
 OpenBabel03242513583D

 30 32  0  0  0  0  0  0  0  0999 V2000
   37.1450   29.0700   41.6560 C   0  0  0  0  0  0  0  0  0  0  0  0
   37.3490   28.5480   42.9080 C   0  0  0  0  0  0  0  0  0  0  0  0
   37.3120   27.1780   43.1120 C   0  0  0  0  0  0  0  0  0  0  0  0
   37.0700   26.3050   42.0730 C   0  0  0  0  0  0  0  0  0  0  0  0
   37.0450   24.9930   42.3300 N   0  0  0  0  0  0  0  0  0  0  0  0
   36.8140   24.1030   41.3510 C   0  0  0  0  0  0  0  0  0  0  0  0
   36.6040   24.5830   40.0820 C   0  0  0  0  0  0  0  0  0  0  0  0
   36.6250   25.9580   39.7880 C   0  0  0  0  0  0  0  0  0  0  0  0
   36.8670   26.8490   40.8240 C   0  0  0  0  0  0  0  0  0  0  0  0
   36.8990   28.2200   40.5910 C   0  0  0  0  0  0  0  0  0  0  0  0
   37.5320   29.2810   43.6620 H   0  0  0  0  0  0  0  0  0  0  0  0
   37.4830   26.8410   44.1280 H   0  0  0  0  0  0  0  0  0  0  0  0
   36.7760   23.0410   41.4720 H   0  0  0  0  0  0  0  0  0  0  0  0
   36.4090   23.9930   39.2160 H   0  0  0  0  0  0  0  0  0  0  0  0
   36.4610   26.3580   38.7950 H   0  0  0  0  0  0  0  0  0  0  0  0
   36.7280   28.5120   39.5850 H   0  0  0  0  0  0  0  0  0  0  0  0
   37.1510   30.4110   41.2880 O   0  0  0  0  0  0  0  0  0  0  0  0
   37.0500   31.4680   39.0740 C   0  0  0  0  0  0  0  0  0  0  0  0
   37.7580   30.9190   40.1530 C   0  0  0  0  0  0  0  0  0  0  0  0
   39.1490   30.8890   40.0660 C   0  0  0  0  0  0  0  0  0  0  0  0
   39.7330   31.3850   38.9610 N   0  0  0  0  0  0  0  0  0  0  0  0
   39.0300   31.9090   37.9350 C   0  0  0  0  0  0  0  0  0  0  0  0
   37.6710   31.9450   38.0040 N   0  0  0  0  0  0  0  0  0  0  0  0
   35.9740   31.4970   39.1300 H   0  0  0  0  0  0  0  0  0  0  0  0
   39.6950   30.4680   40.8950 H   0  0  0  0  0  0  0  0  0  0  0  0
   42.1140   32.3870   36.5930 H   0  0  0  0  0  0  0  0  0  0  0  0
   41.2510   32.1430   37.2000 C   0  0  0  0  0  0  0  0  0  0  0  0
   41.7920   31.6370   38.2090 O   0  0  0  0  0  0  0  0  0  0  0  0
   39.8700   32.3660   36.8820 N   0  0  0  0  0  0  0  0  0  0  0  0
   39.6870   32.8130   35.9580 H   0  0  0  0  0  0  0  0  0  0  0  0
  1  2  1  0  0  0  0
  2  3  2  0  0  0  0
  2 11  1  0  0  0  0
  3 12  1  0  0  0  0
  4  5  1  0  0  0  0
  4  3  1  0  0  0  0
  6 13  1  0  0  0  0
  6  5  2  0  0  0  0
  7  6  1  0  0  0  0
  8  7  2  0  0  0  0
  8  9  1  0  0  0  0
  9  4  2  0  0  0  0
 10  9  1  0  0  0  0
 10  1  2  0  0  0  0
 14  7  1  0  0  0  0
 15  8  1  0  0  0  0
 16 10  1  0  0  0  0
 17  1  1  0  0  0  0
 18 24  1  0  0  0  0
 18 19  1  0  0  0  0
 19 17  1  0  0  0  0
 20 19  2  0  0  0  0
 20 25  1  0  0  0  0
 21 20  1  0  0  0  0
 22 23  1  0  0  0  0
 22 21  2  0  0  0  0
 23 18  2  0  0  0  0
 26 27  1  0  0  0  0
 27 28  2  0  0  0  0
 29 27  1  0  0  0  0
 29 22  1  0  0  0  0
 30 29  1  0  0  0  0
M  END
>  <minimizedAffinity>
-5.92151165

$$$$

 OpenBabel03242513583D

 30 32  0  0  0  0  0  0  0  0999 V2000
   38.0650   27.0940   42.1750 C   0  0  0  0  0  0  0  0  0  0  0  0
   37.0700   26.2610   42.6210 C   0  0  0  0  0  0  0  0  0  0  0  0
   36.9420   24.9820   42.1050 C   0  0  0  0  0  0  0  0  0  0  0  0
   37.8030   24.5100   41.1360 C   0  0  0  0  0  0  0  0  0  0  0  0
   37.6300   23.2670   40.6750 N   0  0  0  0  0  0  0  0  0  0  0  0
   38.4430   22.7620   39.7320 C   0  0  0  0  0  0  0  0  0  0  0  0
   39.4520   23.5630   39.2580 C   0  0  0  0  0  0  0  0  0  0  0  0
   39.6520   24.8730   39.7270 C   0  0  0  0  0  0  0  0  0  0  0  0
   38.7940   25.3620   40.7020 C   0  0  0  0  0  0  0  0  0  0  0  0
   38.9450   26.6510   41.2030 C   0  0  0  0  0  0  0  0  0  0  0  0
   36.4430   26.6910   43.3710 H   0  0  0  0  0  0  0  0  0  0  0  0
   36.1330   24.3820   42.5060 H   0  0  0  0  0  0  0  0  0  0  0  0
   38.3740   21.7820   39.3110 H   0  0  0  0  0  0  0  0  0  0  0  0
   40.1650   23.2930   38.5130 H   0  0  0  0  0  0  0  0  0  0  0  0
   40.4420   25.5220   39.3670 H   0  0  0  0  0  0  0  0  0  0  0  0
   39.7480   27.2070   40.7860 H   0  0  0  0  0  0  0  0  0  0  0  0
   38.3260   28.3950   42.5890 O   0  0  0  0  0  0  0  0  0  0  0  0
   36.5890   29.7240   41.4710 C   0  0  0  0  0  0  0  0  0  0  0  0
   37.9010   29.5370   41.9330 C   0  0  0  0  0  0  0  0  0  0  0  0
   38.8170   30.5640   41.7130 C   0  0  0  0  0  0  0  0  0  0  0  0
   38.3970   31.6710   41.0740 N   0  0  0  0  0  0  0  0  0  0  0  0
   37.1290   31.8280   40.6390 C   0  0  0  0  0  0  0  0  0  0  0  0
   36.2230   30.8350   40.8460 N   0  0  0  0  0  0  0  0  0  0  0  0
   35.8720   28.9370   41.6360 H   0  0  0  0  0  0  0  0  0  0  0  0
   39.8250   30.4230   42.0670 H   0  0  0  0  0  0  0  0  0  0  0  0
   38.2970   34.8310   39.5640 H   0  0  0  0  0  0  0  0  0  0  0  0
   38.1450   33.8450   39.9830 C   0  0  0  0  0  0  0  0  0  0  0  0
   39.2850   33.5860   40.4300 O   0  0  0  0  0  0  0  0  0  0  0  0
   36.9310   33.0810   39.9960 N   0  0  0  0  0  0  0  0  0  0  0  0
   36.1080   33.5370   39.5470 H   0  0  0  0  0  0  0  0  0  0  0  0
  1 17  1  0  0  0  0
  1  2  1  0  0  0  0
  2 11  1  0  0  0  0
  3 12  1  0  0  0  0
  3  2  2  0  0  0  0
  4  3  1  0  0  0  0
  5  4  2  0  0  0  0
  6  5  1  0  0  0  0
  7  8  1  0  0  0  0
  7  6  2  0  0  0  0
  8  9  2  0  0  0  0
  9  4  1  0  0  0  0
  9 10  1  0  0  0  0
 10  1  2  0  0  0  0
 13  6  1  0  0  0  0
 14  7  1  0  0  0  0
 15  8  1  0  0  0  0
 16 10  1  0  0  0  0
 18 24  1  0  0  0  0
 18 19  1  0  0  0  0
 19 17  1  0  0  0  0
 20 19  2  0  0  0  0
 20 25  1  0  0  0  0
 21 20  1  0  0  0  0
 22 23  1  0  0  0  0
 22 21  2  0  0  0  0
 23 18  2  0  0  0  0
 26 27  1  0  0  0  0
 27 29  1  0  0  0  0
 27 28  2  0  0  0  0
 29 22  1  0  0  0  0
 30 29  1  0  0  0  0
M  END
>  <minimizedAffinity>
-5.70184851

$$$$

 OpenBabel03242513583D

 30 32  0  0  0  0  0  0  0  0999 V2000
   36.7850   28.9230   41.7830 C   0  0  0  0  0  0  0  0  0  0  0  0
   37.2030   28.3810   42.9710 C   0  0  0  0  0  0  0  0  0  0  0  0
   37.4150   27.0170   43.0840 C   0  0  0  0  0  0  0  0  0  0  0  0
   37.2150   26.1690   42.0150 C   0  0  0  0  0  0  0  0  0  0  0  0
   37.4350   24.8620   42.1830 N   0  0  0  0  0  0  0  0  0  0  0  0
   37.2540   23.9960   41.1720 C   0  0  0  0  0  0  0  0  0  0  0  0
   36.8360   24.4970   39.9650 C   0  0  0  0  0  0  0  0  0  0  0  0
   36.5980   25.8680   39.7640 C   0  0  0  0  0  0  0  0  0  0  0  0
   36.7950   26.7330   40.8300 C   0  0  0  0  0  0  0  0  0  0  0  0
   36.5750   28.1000   40.6890 C   0  0  0  0  0  0  0  0  0  0  0  0
   37.3380   29.0960   43.7530 H   0  0  0  0  0  0  0  0  0  0  0  0
   37.7440   26.6620   44.0540 H   0  0  0  0  0  0  0  0  0  0  0  0
   37.4060   22.9390   41.2230 H   0  0  0  0  0  0  0  0  0  0  0  0
   36.6530   23.9270   39.0830 H   0  0  0  0  0  0  0  0  0  0  0  0
   36.2680   26.2850   38.8200 H   0  0  0  0  0  0  0  0  0  0  0  0
   36.2530   28.4090   39.7260 H   0  0  0  0  0  0  0  0  0  0  0  0
   36.5300   30.2620   41.5070 O   0  0  0  0  0  0  0  0  0  0  0  0
   36.9640   31.7680   39.6160 C   0  0  0  0  0  0  0  0  0  0  0  0
   37.3630   31.0950   40.7810 C   0  0  0  0  0  0  0  0  0  0  0  0
   38.6720   31.2850   41.2210 C   0  0  0  0  0  0  0  0  0  0  0  0
   39.4760   32.0960   40.5100 N   0  0  0  0  0  0  0  0  0  0  0  0
   39.0690   32.7330   39.3920 C   0  0  0  0  0  0  0  0  0  0  0  0
   37.7940   32.5580   38.9490 N   0  0  0  0  0  0  0  0  0  0  0  0
   35.9540   31.6290   39.2660 H   0  0  0  0  0  0  0  0  0  0  0  0
   38.9800   30.7700   42.1160 H   0  0  0  0  0  0  0  0  0  0  0  0
   42.2450   33.9380   39.4060 H   0  0  0  0  0  0  0  0  0  0  0  0
   41.3010   33.4420   39.5960 C   0  0  0  0  0  0  0  0  0  0  0  0
   41.5620   32.8030   40.6400 O   0  0  0  0  0  0  0  0  0  0  0  0
   40.0980   33.5310   38.8210 N   0  0  0  0  0  0  0  0  0  0  0  0
   40.1480   34.1450   37.9800 H   0  0  0  0  0  0  0  0  0  0  0  0
  1  2  1  0  0  0  0
  2  3  2  0  0  0  0
  2 11  1  0  0  0  0
  3 12  1  0  0  0  0
  4  5  1  0  0  0  0
  4  3  1  0  0  0  0
  6 13  1  0  0  0  0
  6  5  2  0  0  0  0
  7  6  1  0  0  0  0
  8  7  2  0  0  0  0
  8  9  1  0  0  0  0
  9  4  2  0  0  0  0
 10  9  1  0  0  0  0
 10  1  2  0  0  0  0
 14  7  1  0  0  0  0
 15  8  1  0  0  0  0
 16 10  1  0  0  0  0
 17  1  1  0  0  0  0
 18 19  1  0  0  0  0
 19 20  2  0  0  0  0
 19 17  1  0  0  0  0
 20 25  1  0  0  0  0
 21 20  1  0  0  0  0
 22 21  2  0  0  0  0
 23 22  1  0  0  0  0
 23 18  2  0  0  0  0
 24 18  1  0  0  0  0
 26 27  1  0  0  0  0
 27 28  2  0  0  0  0
 29 22  1  0  0  0  0
 29 27  1  0  0  0  0
 30 29  1  0  0  0  0
M  END
>  <minimizedAffinity>
-5.59128761

$$$$

 OpenBabel03242513583D

 30 32  0  0  0  0  0  0  0  0999 V2000
   38.1080   29.3800   42.4980 C   0  0  0  0  0  0  0  0  0  0  0  0
   39.3350   29.9280   42.7730 C   0  0  0  0  0  0  0  0  0  0  0  0
   39.7370   31.0960   42.1470 C   0  0  0  0  0  0  0  0  0  0  0  0
   38.9250   31.7390   41.2370 C   0  0  0  0  0  0  0  0  0  0  0  0
   39.3670   32.8630   40.6640 N   0  0  0  0  0  0  0  0  0  0  0  0
   38.6110   33.5250   39.7720 C   0  0  0  0  0  0  0  0  0  0  0  0
   37.3760   33.0110   39.4690 C   0  0  0  0  0  0  0  0  0  0  0  0
   36.8900   31.8300   40.0580 C   0  0  0  0  0  0  0  0  0  0  0  0
   37.6960   31.1720   40.9750 C   0  0  0  0  0  0  0  0  0  0  0  0
   37.2670   30.0000   41.5890 C   0  0  0  0  0  0  0  0  0  0  0  0
   39.9090   29.3780   43.4860 H   0  0  0  0  0  0  0  0  0  0  0  0
   40.7200   31.4680   42.4140 H   0  0  0  0  0  0  0  0  0  0  0  0
   38.8900   34.4270   39.2700 H   0  0  0  0  0  0  0  0  0  0  0  0
   36.6770   33.4300   38.7820 H   0  0  0  0  0  0  0  0  0  0  0  0
   35.9180   31.4070   39.8330 H   0  0  0  0  0  0  0  0  0  0  0  0
   36.3010   29.6670   41.3020 H   0  0  0  0  0  0  0  0  0  0  0  0
   37.5590   28.2210   43.0380 O   0  0  0  0  0  0  0  0  0  0  0  0
   39.0100   26.2410   43.1010 C   0  0  0  0  0  0  0  0  0  0  0  0
   37.8790   26.9340   42.6450 C   0  0  0  0  0  0  0  0  0  0  0  0
   37.0380   26.2790   41.7460 C   0  0  0  0  0  0  0  0  0  0  0  0
   37.3550   25.0280   41.3670 N   0  0  0  0  0  0  0  0  0  0  0  0
   38.4490   24.3810   41.8210 C   0  0  0  0  0  0  0  0  0  0  0  0
   39.2800   25.0070   42.6980 N   0  0  0  0  0  0  0  0  0  0  0  0
   39.6680   26.7370   43.7960 H   0  0  0  0  0  0  0  0  0  0  0  0
   36.1680   26.8100   41.3950 H   0  0  0  0  0  0  0  0  0  0  0  0
   37.3040   21.8820   39.8260 H   0  0  0  0  0  0  0  0  0  0  0  0
   37.4790   22.7930   40.3840 C   0  0  0  0  0  0  0  0  0  0  0  0
   36.5000   23.4890   40.0360 O   0  0  0  0  0  0  0  0  0  0  0  0
   38.5670   23.0720   41.2760 N   0  0  0  0  0  0  0  0  0  0  0  0
   39.2630   22.3050   41.3930 H   0  0  0  0  0  0  0  0  0  0  0  0
  1  2  1  0  0  0  0
  1 17  1  0  0  0  0
  2 11  1  0  0  0  0
  3 12  1  0  0  0  0
  3  2  2  0  0  0  0
  4  3  1  0  0  0  0
  5  4  2  0  0  0  0
  6  5  1  0  0  0  0
  7  6  2  0  0  0  0
  7  8  1  0  0  0  0
  8  9  2  0  0  0  0
  9  4  1  0  0  0  0
  9 10  1  0  0  0  0
 10  1  2  0  0  0  0
 13  6  1  0  0  0  0
 14  7  1  0  0  0  0
 15  8  1  0  0  0  0
 16 10  1  0  0  0  0
 18 24  1  0  0  0  0
 19 17  1  0  0  0  0
 19 18  2  0  0  0  0
 20 19  1  0  0  0  0
 21 20  2  0  0  0  0
 21 22  1  0  0  0  0
 22 23  2  0  0  0  0
 23 18  1  0  0  0  0
 25 20  1  0  0  0  0
 26 27  1  0  0  0  0
 27 29  1  0  0  0  0
 28 27  2  0  0  0  0
 29 30  1  0  0  0  0
 29 22  1  0  0  0  0
M  END
>  <minimizedAffinity>
-5.56641531

$$$$

 OpenBabel03242513583D

 30 32  0  0  0  0  0  0  0  0999 V2000
   36.6410   27.6740   41.6560 C   0  0  0  0  0  0  0  0  0  0  0  0
   36.9010   26.8080   42.6870 C   0  0  0  0  0  0  0  0  0  0  0  0
   37.1390   25.4670   42.4330 C   0  0  0  0  0  0  0  0  0  0  0  0
   37.1210   24.9660   41.1490 C   0  0  0  0  0  0  0  0  0  0  0  0
   37.3570   23.6630   40.9650 N   0  0  0  0  0  0  0  0  0  0  0  0
   37.3510   23.1280   39.7320 C   0  0  0  0  0  0  0  0  0  0  0  0
   37.0950   23.9610   38.6720 C   0  0  0  0  0  0  0  0  0  0  0  0
   36.8440   25.3340   38.8410 C   0  0  0  0  0  0  0  0  0  0  0  0
   36.8580   25.8520   40.1280 C   0  0  0  0  0  0  0  0  0  0  0  0
   36.6160   27.2040   40.3540 C   0  0  0  0  0  0  0  0  0  0  0  0
   36.8990   27.2650   43.6520 H   0  0  0  0  0  0  0  0  0  0  0  0
   37.3370   24.8440   43.2980 H   0  0  0  0  0  0  0  0  0  0  0  0
   37.5290   22.1000   39.5000 H   0  0  0  0  0  0  0  0  0  0  0  0
   37.0590   23.6720   37.6470 H   0  0  0  0  0  0  0  0  0  0  0  0
   36.6390   26.0090   38.0180 H   0  0  0  0  0  0  0  0  0  0  0  0
   36.4260   27.7810   39.4840 H   0  0  0  0  0  0  0  0  0  0  0  0
   36.3850   29.0380   41.7430 O   0  0  0  0  0  0  0  0  0  0  0  0
   38.6270   29.9510   42.1560 C   0  0  0  0  0  0  0  0  0  0  0  0
   37.3370   30.0340   41.6120 C   0  0  0  0  0  0  0  0  0  0  0  0
   37.0070   31.1870   40.9010 C   0  0  0  0  0  0  0  0  0  0  0  0
   37.9370   32.1510   40.7770 N   0  0  0  0  0  0  0  0  0  0  0  0
   39.1730   32.0490   41.3110 C   0  0  0  0  0  0  0  0  0  0  0  0
   39.5100   30.9290   42.0080 N   0  0  0  0  0  0  0  0  0  0  0  0
   38.8930   29.0640   42.7080 H   0  0  0  0  0  0  0  0  0  0  0  0
   36.0170   31.2530   40.4810 H   0  0  0  0  0  0  0  0  0  0  0  0
   39.5890   35.1210   39.9240 H   0  0  0  0  0  0  0  0  0  0  0  0
   39.2410   34.1580   40.2740 C   0  0  0  0  0  0  0  0  0  0  0  0
   38.0730   34.1380   39.8270 O   0  0  0  0  0  0  0  0  0  0  0  0
   39.9730   33.1940   41.0450 N   0  0  0  0  0  0  0  0  0  0  0  0
   40.9500   33.4620   41.2910 H   0  0  0  0  0  0  0  0  0  0  0  0
  1 17  1  0  0  0  0
  1  2  1  0  0  0  0
  2 11  1  0  0  0  0
  3  2  2  0  0  0  0
  3 12  1  0  0  0  0
  4  3  1  0  0  0  0
  5  4  1  0  0  0  0
  6  5  2  0  0  0  0
  7  8  2  0  0  0  0
  7  6  1  0  0  0  0
  8  9  1  0  0  0  0
  9 10  1  0  0  0  0
  9  4  2  0  0  0  0
 10  1  2  0  0  0  0
 13  6  1  0  0  0  0
 14  7  1  0  0  0  0
 15  8  1  0  0  0  0
 16 10  1  0  0  0  0
 18 24  1  0  0  0  0
 19 17  1  0  0  0  0
 19 18  2  0  0  0  0
 20 19  1  0  0  0  0
 21 20  2  0  0  0  0
 21 22  1  0  0  0  0
 22 23  2  0  0  0  0
 23 18  1  0  0  0  0
 25 20  1  0  0  0  0
 26 27  1  0  0  0  0
 27 29  1  0  0  0  0
 28 27  2  0  0  0  0
 29 30  1  0  0  0  0
 29 22  1  0  0  0  0
M  END
>  <minimizedAffinity>
-5.53502607

$$$$

 OpenBabel03242513583D

 30 32  0  0  0  0  0  0  0  0999 V2000
   36.7210   28.6290   40.9980 C   0  0  0  0  0  0  0  0  0  0  0  0
   36.2980   28.3240   39.7290 C   0  0  0  0  0  0  0  0  0  0  0  0
   36.2840   27.0100   39.2910 C   0  0  0  0  0  0  0  0  0  0  0  0
   36.6910   25.9770   40.1080 C   0  0  0  0  0  0  0  0  0  0  0  0
   36.6560   24.7290   39.6310 N   0  0  0  0  0  0  0  0  0  0  0  0
   37.0420   23.6890   40.3890 C   0  0  0  0  0  0  0  0  0  0  0  0
   37.4730   23.9500   41.6660 C   0  0  0  0  0  0  0  0  0  0  0  0
   37.5190   25.2540   42.1890 C   0  0  0  0  0  0  0  0  0  0  0  0
   37.1120   26.3040   41.3780 C   0  0  0  0  0  0  0  0  0  0  0  0
   37.1370   27.6150   41.8440 C   0  0  0  0  0  0  0  0  0  0  0  0
   35.9980   29.1720   39.1540 H   0  0  0  0  0  0  0  0  0  0  0  0
   35.9370   26.8480   38.2770 H   0  0  0  0  0  0  0  0  0  0  0  0
   37.0460   22.6650   40.0840 H   0  0  0  0  0  0  0  0  0  0  0  0
   37.8070   23.2250   42.3720 H   0  0  0  0  0  0  0  0  0  0  0  0
   37.8550   25.4830   43.1940 H   0  0  0  0  0  0  0  0  0  0  0  0
   37.4820   27.7340   42.8410 H   0  0  0  0  0  0  0  0  0  0  0  0
   36.7940   29.8870   41.5850 O   0  0  0  0  0  0  0  0  0  0  0  0
   36.8040   31.9380   40.2330 C   0  0  0  0  0  0  0  0  0  0  0  0
   37.4410   30.9820   41.0390 C   0  0  0  0  0  0  0  0  0  0  0  0
   38.8000   31.1550   41.2960 C   0  0  0  0  0  0  0  0  0  0  0  0
   39.4230   32.2210   40.7620 N   0  0  0  0  0  0  0  0  0  0  0  0
   38.7880   33.1270   39.9900 C   0  0  0  0  0  0  0  0  0  0  0  0
   37.4620   32.9730   39.7290 N   0  0  0  0  0  0  0  0  0  0  0  0
   35.7530   31.8140   40.0270 H   0  0  0  0  0  0  0  0  0  0  0  0
   39.2910   30.4220   41.9150 H   0  0  0  0  0  0  0  0  0  0  0  0
   41.8570   34.5770   39.8710 H   0  0  0  0  0  0  0  0  0  0  0  0
   40.9880   33.9560   40.0430 C   0  0  0  0  0  0  0  0  0  0  0  0
   41.4650   33.0560   40.7690 O   0  0  0  0  0  0  0  0  0  0  0  0
   39.6580   34.1610   39.5450 N   0  0  0  0  0  0  0  0  0  0  0  0
   39.5250   35.0060   38.9490 H   0  0  0  0  0  0  0  0  0  0  0  0
  1 17  1  0  0  0  0
  1 10  1  0  0  0  0
  2  1  2  0  0  0  0
  3  2  1  0  0  0  0
  3  4  2  0  0  0  0
  4  9  1  0  0  0  0
  5  4  1  0  0  0  0
  5  6  2  0  0  0  0
  6  7  1  0  0  0  0
  7  8  2  0  0  0  0
  7 14  1  0  0  0  0
  8 15  1  0  0  0  0
  9 10  2  0  0  0  0
  9  8  1  0  0  0  0
 10 16  1  0  0  0  0
 11  2  1  0  0  0  0
 12  3  1  0  0  0  0
 13  6  1  0  0  0  0
 18 19  1  0  0  0  0
 19 20  2  0  0  0  0
 19 17  1  0  0  0  0
 20 25  1  0  0  0  0
 21 20  1  0  0  0  0
 22 21  2  0  0  0  0
 23 22  1  0  0  0  0
 23 18  2  0  0  0  0
 24 18  1  0  0  0  0
 26 27  1  0  0  0  0
 27 28  2  0  0  0  0
 29 22  1  0  0  0  0
 29 27  1  0  0  0  0
 30 29  1  0  0  0  0
M  END
>  <minimizedAffinity>
-5.45883846

$$$$

 OpenBabel03242513583D

 30 32  0  0  0  0  0  0  0  0999 V2000
   37.2070   29.8920   41.1330 C   0  0  0  0  0  0  0  0  0  0  0  0
   36.4240   28.9020   40.5950 C   0  0  0  0  0  0  0  0  0  0  0  0
   36.6360   27.5760   40.9370 C   0  0  0  0  0  0  0  0  0  0  0  0
   37.6310   27.2130   41.8200 C   0  0  0  0  0  0  0  0  0  0  0  0
   37.7880   25.9190   42.1120 N   0  0  0  0  0  0  0  0  0  0  0  0
   38.7440   25.5150   42.9670 C   0  0  0  0  0  0  0  0  0  0  0  0
   39.5500   26.4740   43.5270 C   0  0  0  0  0  0  0  0  0  0  0  0
   39.4030   27.8410   43.2350 C   0  0  0  0  0  0  0  0  0  0  0  0
   38.4060   28.2220   42.3480 C   0  0  0  0  0  0  0  0  0  0  0  0
   38.2160   29.5610   42.0220 C   0  0  0  0  0  0  0  0  0  0  0  0
   35.6750   29.2560   39.9220 H   0  0  0  0  0  0  0  0  0  0  0  0
   35.9770   26.8520   40.4720 H   0  0  0  0  0  0  0  0  0  0  0  0
   38.9360   24.5030   43.2520 H   0  0  0  0  0  0  0  0  0  0  0  0
   40.3430   26.2960   44.2160 H   0  0  0  0  0  0  0  0  0  0  0  0
   40.0290   28.6150   43.6660 H   0  0  0  0  0  0  0  0  0  0  0  0
   38.8790   30.2410   42.4970 H   0  0  0  0  0  0  0  0  0  0  0  0
   37.1240   31.2590   40.8950 O   0  0  0  0  0  0  0  0  0  0  0  0
   38.5210   33.2790   40.9100 C   0  0  0  0  0  0  0  0  0  0  0  0
   38.1430   32.0380   40.3760 C   0  0  0  0  0  0  0  0  0  0  0  0
   38.8410   31.5740   39.2620 C   0  0  0  0  0  0  0  0  0  0  0  0
   39.8310   32.3350   38.7620 N   0  0  0  0  0  0  0  0  0  0  0  0
   40.1760   33.5270   39.2940 C   0  0  0  0  0  0  0  0  0  0  0  0
   39.5040   33.9940   40.3810 N   0  0  0  0  0  0  0  0  0  0  0  0
   37.9880   33.6480   41.7710 H   0  0  0  0  0  0  0  0  0  0  0  0
   38.5530   30.6200   38.8500 H   0  0  0  0  0  0  0  0  0  0  0  0
   42.4710   33.5250   36.7900 H   0  0  0  0  0  0  0  0  0  0  0  0
   41.6770   33.3180   37.4970 C   0  0  0  0  0  0  0  0  0  0  0  0
   41.2700   32.2060   37.0950 O   0  0  0  0  0  0  0  0  0  0  0  0
   41.2490   34.1410   38.5910 N   0  0  0  0  0  0  0  0  0  0  0  0
   41.7660   35.0390   38.7100 H   0  0  0  0  0  0  0  0  0  0  0  0
  1 10  1  0  0  0  0
  2  3  1  0  0  0  0
  2  1  2  0  0  0  0
  3  4  2  0  0  0  0
  4  5  1  0  0  0  0
  4  9  1  0  0  0  0
  5  6  2  0  0  0  0
  6 13  1  0  0  0  0
  6  7  1  0  0  0  0
  7 14  1  0  0  0  0
  8  7  2  0  0  0  0
  8 15  1  0  0  0  0
  9  8  1  0  0  0  0
 10  9  2  0  0  0  0
 10 16  1  0  0  0  0
 11  2  1  0  0  0  0
 12  3  1  0  0  0  0
 17  1  1  0  0  0  0
 18 24  1  0  0  0  0
 19 17  1  0  0  0  0
 19 18  2  0  0  0  0
 20 19  1  0  0  0  0
 21 20  2  0  0  0  0
 21 22  1  0  0  0  0
 22 23  2  0  0  0  0
 23 18  1  0  0  0  0
 25 20  1  0  0  0  0
 26 27  1  0  0  0  0
 27 29  1  0  0  0  0
 28 27  2  0  0  0  0
 29 30  1  0  0  0  0
 29 22  1  0  0  0  0
M  END
>  <minimizedAffinity>
-5.29069948

$$$$

 OpenBabel03242513583D

 30 32  0  0  0  0  0  0  0  0999 V2000
   35.9560   29.4200   40.3120 C   0  0  0  0  0  0  0  0  0  0  0  0
   34.6490   29.0800   40.0710 C   0  0  0  0  0  0  0  0  0  0  0  0
   34.1820   28.9620   38.7720 C   0  0  0  0  0  0  0  0  0  0  0  0
   35.0090   29.1810   37.6910 C   0  0  0  0  0  0  0  0  0  0  0  0
   34.5030   29.0530   36.4600 N   0  0  0  0  0  0  0  0  0  0  0  0
   35.2680   29.2560   35.3750 C   0  0  0  0  0  0  0  0  0  0  0  0
   36.5820   29.5990   35.5710 C   0  0  0  0  0  0  0  0  0  0  0  0
   37.1370   29.7400   36.8550 C   0  0  0  0  0  0  0  0  0  0  0  0
   36.3180   29.5220   37.9530 C   0  0  0  0  0  0  0  0  0  0  0  0
   36.8130   29.6480   39.2480 C   0  0  0  0  0  0  0  0  0  0  0  0
   34.0690   28.9240   40.9540 H   0  0  0  0  0  0  0  0  0  0  0  0
   33.1390   28.6900   38.6620 H   0  0  0  0  0  0  0  0  0  0  0  0
   34.9420   29.1760   34.3600 H   0  0  0  0  0  0  0  0  0  0  0  0
   37.2980   29.7890   34.8040 H   0  0  0  0  0  0  0  0  0  0  0  0
   38.1710   30.0100   37.0330 H   0  0  0  0  0  0  0  0  0  0  0  0
   37.8380   29.9150   39.3160 H   0  0  0  0  0  0  0  0  0  0  0  0
   36.5750   29.5770   41.5470 O   0  0  0  0  0  0  0  0  0  0  0  0
   38.6900   29.1510   42.7210 C   0  0  0  0  0  0  0  0  0  0  0  0
   37.5230   28.7180   42.0740 C   0  0  0  0  0  0  0  0  0  0  0  0
   37.3180   27.3440   41.9630 C   0  0  0  0  0  0  0  0  0  0  0  0
   38.2430   26.5140   42.4770 N   0  0  0  0  0  0  0  0  0  0  0  0
   39.3590   26.9550   43.0950 C   0  0  0  0  0  0  0  0  0  0  0  0
   39.5740   28.2940   43.2120 N   0  0  0  0  0  0  0  0  0  0  0  0
   38.8600   30.2120   42.8130 H   0  0  0  0  0  0  0  0  0  0  0  0
   36.4220   27.0080   41.4670 H   0  0  0  0  0  0  0  0  0  0  0  0
   39.9900   23.6370   43.4500 H   0  0  0  0  0  0  0  0  0  0  0  0
   39.5940   24.6200   43.2290 C   0  0  0  0  0  0  0  0  0  0  0  0
   38.5290   24.3320   42.6400 O   0  0  0  0  0  0  0  0  0  0  0  0
   40.1810   25.8880   43.5530 N   0  0  0  0  0  0  0  0  0  0  0  0
   41.0920   25.8480   44.0570 H   0  0  0  0  0  0  0  0  0  0  0  0
  1 17  1  0  0  0  0
  2  1  1  0  0  0  0
  2 11  1  0  0  0  0
  3  2  2  0  0  0  0
  4  9  1  0  0  0  0
  4  3  1  0  0  0  0
  5  4  2  0  0  0  0
  6  7  2  0  0  0  0
  6  5  1  0  0  0  0
  7  8  1  0  0  0  0
  8 15  1  0  0  0  0
  8  9  2  0  0  0  0
  9 10  1  0  0  0  0
 10 16  1  0  0  0  0
 10  1  2  0  0  0  0
 12  3  1  0  0  0  0
 13  6  1  0  0  0  0
 14  7  1  0  0  0  0
 17 19  1  0  0  0  0
 18 24  1  0  0  0  0
 18 23  1  0  0  0  0
 19 18  2  0  0  0  0
 20 19  1  0  0  0  0
 20 21  2  0  0  0  0
 21 22  1  0  0  0  0
 22 23  2  0  0  0  0
 22 29  1  0  0  0  0
 25 20  1  0  0  0  0
 27 26  1  0  0  0  0
 27 29  1  0  0  0  0
 28 27  2  0  0  0  0
 29 30  1  0  0  0  0
M  END
>  <minimizedAffinity>
-5.22781086

$$$$

 OpenBabel03242513583D

 30 32  0  0  0  0  0  0  0  0999 V2000
   36.9110   28.4000   41.4260 C   0  0  0  0  0  0  0  0  0  0  0  0
   37.5100   28.8940   42.5570 C   0  0  0  0  0  0  0  0  0  0  0  0
   38.3720   28.1020   43.2980 C   0  0  0  0  0  0  0  0  0  0  0  0
   38.6520   26.8040   42.9250 C   0  0  0  0  0  0  0  0  0  0  0  0
   39.4910   26.0880   43.6790 N   0  0  0  0  0  0  0  0  0  0  0  0
   39.7960   24.8190   43.3570 C   0  0  0  0  0  0  0  0  0  0  0  0
   39.2190   24.2860   42.2320 C   0  0  0  0  0  0  0  0  0  0  0  0
   38.3340   25.0200   41.4240 C   0  0  0  0  0  0  0  0  0  0  0  0
   38.0410   26.3270   41.7860 C   0  0  0  0  0  0  0  0  0  0  0  0
   37.1720   27.1010   41.0240 C   0  0  0  0  0  0  0  0  0  0  0  0
   37.2470   29.9040   42.7840 H   0  0  0  0  0  0  0  0  0  0  0  0
   38.8060   28.5610   44.1780 H   0  0  0  0  0  0  0  0  0  0  0  0
   40.4550   24.1800   43.9050 H   0  0  0  0  0  0  0  0  0  0  0  0
   39.3700   23.2980   41.8620 H   0  0  0  0  0  0  0  0  0  0  0  0
   37.8660   24.6190   40.5320 H   0  0  0  0  0  0  0  0  0  0  0  0
   36.7670   26.6170   40.1700 H   0  0  0  0  0  0  0  0  0  0  0  0
   36.0300   29.0620   40.5780 O   0  0  0  0  0  0  0  0  0  0  0  0
   37.4220   30.1710   38.8860 C   0  0  0  0  0  0  0  0  0  0  0  0
   36.3030   29.4160   39.2690 C   0  0  0  0  0  0  0  0  0  0  0  0
   35.4260   29.0060   38.2660 C   0  0  0  0  0  0  0  0  0  0  0  0
   35.6980   29.3530   36.9950 N   0  0  0  0  0  0  0  0  0  0  0  0
   36.7820   30.0810   36.6520 C   0  0  0  0  0  0  0  0  0  0  0  0
   37.6470   30.4900   37.6190 N   0  0  0  0  0  0  0  0  0  0  0  0
   38.1070   30.4940   39.6530 H   0  0  0  0  0  0  0  0  0  0  0  0
   34.5670   28.4250   38.5570 H   0  0  0  0  0  0  0  0  0  0  0  0
   35.5250   29.7300   33.5160 H   0  0  0  0  0  0  0  0  0  0  0  0
   35.7370   29.7150   34.5770 C   0  0  0  0  0  0  0  0  0  0  0  0
   34.7730   29.0490   35.0150 O   0  0  0  0  0  0  0  0  0  0  0  0
   36.8510   30.3190   35.2510 N   0  0  0  0  0  0  0  0  0  0  0  0
   37.5250   30.8280   34.6410 H   0  0  0  0  0  0  0  0  0  0  0  0
  1  2  1  0  0  0  0
  2 11  1  0  0  0  0
  2  3  2  0  0  0  0
  3 12  1  0  0  0  0
  4  3  1  0  0  0  0
  4  5  1  0  0  0  0
  6  5  2  0  0  0  0
  6 13  1  0  0  0  0
  7  6  1  0  0  0  0
  8  9  1  0  0  0  0
  8  7  2  0  0  0  0
  9  4  2  0  0  0  0
 10  1  2  0  0  0  0
 10  9  1  0  0  0  0
 14  7  1  0  0  0  0
 15  8  1  0  0  0  0
 16 10  1  0  0  0  0
 17  1  1  0  0  0  0
 18 19  1  0  0  0  0
 18 24  1  0  0  0  0
 19 17  1  0  0  0  0
 20 25  1  0  0  0  0
 20 19  2  0  0  0  0
 21 20  1  0  0  0  0
 22 21  2  0  0  0  0
 22 23  1  0  0  0  0
 23 18  2  0  0  0  0
 26 27  1  0  0  0  0
 27 28  2  0  0  0  0
 27 29  1  0  0  0  0
 29 22  1  0  0  0  0
 30 29  1  0  0  0  0
M  END
>  <minimizedAffinity>
-5.12479687

$$$$
