
 OpenBabel03242521213D

 32 34  0  0  0  0  0  0  0  0999 V2000
   45.6880   33.9720   45.5340 C   0  0  0  0  0  0  0  0  0  0  0  0
   44.7690   34.9430   45.6990 C   0  0  0  0  0  0  0  0  0  0  0  0
   44.4520   35.8790   44.7310 C   0  0  0  0  0  0  0  0  0  0  0  0
   45.1310   35.7770   43.5640 N   0  0  0  0  0  0  0  0  0  0  0  0
   46.0510   34.8060   43.3960 C   0  0  0  0  0  0  0  0  0  0  0  0
   46.3510   33.8960   44.3500 N   0  0  0  0  0  0  0  0  0  0  0  0
   44.2650   34.9660   46.6570 H   0  0  0  0  0  0  0  0  0  0  0  0
   43.7100   36.6260   44.9290 H   0  0  0  0  0  0  0  0  0  0  0  0
   46.7800   34.7080   42.1220 C   0  0  0  0  0  0  0  0  0  0  0  0
   47.9760   35.3760   41.9690 C   0  0  0  0  0  0  0  0  0  0  0  0
   48.7260   35.3380   40.8050 C   0  0  0  0  0  0  0  0  0  0  0  0
   48.2420   34.5860   39.7390 C   0  0  0  0  0  0  0  0  0  0  0  0
   47.0650   33.9330   39.8990 C   0  0  0  0  0  0  0  0  0  0  0  0
   46.3220   33.9730   41.0600 C   0  0  0  0  0  0  0  0  0  0  0  0
   48.3370   35.9610   42.8200 H   0  0  0  0  0  0  0  0  0  0  0  0
   49.6560   35.8860   40.7520 H   0  0  0  0  0  0  0  0  0  0  0  0
   48.8270   34.5530   38.8250 H   0  0  0  0  0  0  0  0  0  0  0  0
   46.6790   33.3380   39.0630 H   0  0  0  0  0  0  0  0  0  0  0  0
   43.8900   31.5090   41.5910 H   0  0  0  0  0  0  0  0  0  0  0  0
   44.8890   31.9110   41.5640 C   0  0  0  0  0  0  0  0  0  0  0  0
   45.8880   31.1970   41.8870 O   0  0  0  0  0  0  0  0  0  0  0  0
   45.0940   33.2630   41.1610 N   0  0  0  0  0  0  0  0  0  0  0  0
   44.2880   33.8850   40.8850 H   0  0  0  0  0  0  0  0  0  0  0  0
   45.4370   32.0210   48.6340 C   0  0  0  0  0  0  0  0  0  0  0  0
   46.5520   31.1960   48.5490 C   0  0  0  0  0  0  0  0  0  0  0  0
   47.3830   31.3010   47.4480 C   0  0  0  0  0  0  0  0  0  0  0  0
   47.0800   32.2200   46.4700 N   0  0  0  0  0  0  0  0  0  0  0  0
   45.9920   33.0030   46.5860 C   0  0  0  0  0  0  0  0  0  0  0  0
   45.1930   32.9040   47.6420 N   0  0  0  0  0  0  0  0  0  0  0  0
   44.8320   31.9000   49.5030 H   0  0  0  0  0  0  0  0  0  0  0  0
   46.8660   30.4560   49.2560 H   0  0  0  0  0  0  0  0  0  0  0  0
   48.2890   30.7230   47.2460 H   0  0  0  0  0  0  0  0  0  0  0  0
  1  2  1  0  0  0  0
  1 28  1  0  0  0  0
  2  7  1  0  0  0  0
  3  8  1  0  0  0  0
  3  2  2  0  0  0  0
  4  3  1  0  0  0  0
  5  4  2  0  0  0  0
  5  6  1  0  0  0  0
  6  1  2  0  0  0  0
  9  5  1  0  0  0  0
 10  9  1  0  0  0  0
 10 15  1  0  0  0  0
 11 10  2  0  0  0  0
 12 13  2  0  0  0  0
 12 11  1  0  0  0  0
 13 14  1  0  0  0  0
 14 22  1  0  0  0  0
 14  9  2  0  0  0  0
 16 11  1  0  0  0  0
 17 12  1  0  0  0  0
 18 13  1  0  0  0  0
 20 19  1  0  0  0  0
 20 21  2  0  0  0  0
 22 20  1  0  0  0  0
 23 22  1  0  0  0  0
 24 30  1  0  0  0  0
 25 24  1  0  0  0  0
 25 31  1  0  0  0  0
 26 25  2  0  0  0  0
 27 28  2  0  0  0  0
 27 26  1  0  0  0  0
 28 29  1  0  0  0  0
 29 24  2  0  0  0  0
 32 26  1  0  0  0  0
M  END
>  <minimizedAffinity>
-6.2751255

>  <minimizedRMSD>
2.80367208

$$$$
