
 OpenBabel03252505353D

 26 27  0  0  0  0  0  0  0  0999 V2000
   37.8130   29.5870   41.8030 C   0  0  0  0  0  0  0  0  0  0  0  0
   38.1020   29.2410   43.1130 C   0  0  0  0  0  0  0  0  0  0  0  0
   37.6290   28.0520   43.6790 C   0  0  0  0  0  0  0  0  0  0  0  0
   36.8550   27.1880   42.9370 C   0  0  0  0  0  0  0  0  0  0  0  0
   36.5820   27.5480   41.6460 C   0  0  0  0  0  0  0  0  0  0  0  0
   37.0430   28.7170   41.0810 C   0  0  0  0  0  0  0  0  0  0  0  0
   38.7000   29.8460   43.7840 H   0  0  0  0  0  0  0  0  0  0  0  0
   37.8530   27.7780   44.7050 H   0  0  0  0  0  0  0  0  0  0  0  0
   36.4630   26.2560   43.3210 H   0  0  0  0  0  0  0  0  0  0  0  0
   35.9730   26.8740   41.0540 H   0  0  0  0  0  0  0  0  0  0  0  0
   40.0840   32.4110   40.8260 C   0  0  0  0  0  0  0  0  0  0  0  0
   39.6930   31.1680   41.3510 C   0  0  0  0  0  0  0  0  0  0  0  0
   38.3380   30.8240   41.3020 C   0  0  0  0  0  0  0  0  0  0  0  0
   37.4760   31.7040   40.7520 N   0  0  0  0  0  0  0  0  0  0  0  0
   37.8900   32.8980   40.2540 C   0  0  0  0  0  0  0  0  0  0  0  0
   39.2040   33.2400   40.2980 N   0  0  0  0  0  0  0  0  0  0  0  0
   36.9660   33.8170   39.6770 N   0  0  0  0  0  0  0  0  0  0  0  0
   41.1420   32.6670   40.8710 H   0  0  0  0  0  0  0  0  0  0  0  0
   40.3850   30.4530   41.7960 H   0  0  0  0  0  0  0  0  0  0  0  0
   35.9660   33.7660   40.0020 H   0  0  0  0  0  0  0  0  0  0  0  0
   37.2660   34.5100   38.9630 H   0  0  0  0  0  0  0  0  0  0  0  0
   34.9770   29.4260   38.3430 H   0  0  0  0  0  0  0  0  0  0  0  0
   35.3840   29.1870   39.3120 C   0  0  0  0  0  0  0  0  0  0  0  0
   34.1610   29.1570   39.6440 O   0  0  0  0  0  0  0  0  0  0  0  0
   36.7280   29.0380   39.7380 N   0  0  0  0  0  0  0  0  0  0  0  0
   37.4010   29.1920   38.9580 H   0  0  0  0  0  0  0  0  0  0  0  0
  1  2  1  0  0  0  0
  2  3  2  0  0  0  0
  2  7  1  0  0  0  0
  3  8  1  0  0  0  0
  4  9  1  0  0  0  0
  4  3  1  0  0  0  0
  5  4  2  0  0  0  0
  6  5  1  0  0  0  0
  6  1  2  0  0  0  0
 10  5  1  0  0  0  0
 11 18  1  0  0  0  0
 11 12  1  0  0  0  0
 12 19  1  0  0  0  0
 13 12  2  0  0  0  0
 13  1  1  0  0  0  0
 14 13  1  0  0  0  0
 15 16  1  0  0  0  0
 15 14  2  0  0  0  0
 16 11  2  0  0  0  0
 17 20  1  0  0  0  0
 17 15  1  0  0  0  0
 21 17  1  0  0  0  0
 22 23  1  0  0  0  0
 23 24  2  0  0  0  0
 23 25  1  0  0  0  0
 25  6  1  0  0  0  0
 26 25  1  0  0  0  0
M  END
>  <minimizedAffinity>
-5.18264246

$$$$

 OpenBabel03252505353D

 26 27  0  0  0  0  0  0  0  0999 V2000
   36.8100   30.7480   39.8050 C   0  0  0  0  0  0  0  0  0  0  0  0
   36.4550   30.5210   38.4860 C   0  0  0  0  0  0  0  0  0  0  0  0
   35.6020   29.4720   38.1250 C   0  0  0  0  0  0  0  0  0  0  0  0
   35.0900   28.6310   39.0860 C   0  0  0  0  0  0  0  0  0  0  0  0
   35.4530   28.8710   40.3830 C   0  0  0  0  0  0  0  0  0  0  0  0
   36.2930   29.9010   40.7470 C   0  0  0  0  0  0  0  0  0  0  0  0
   36.7990   31.1210   37.6510 H   0  0  0  0  0  0  0  0  0  0  0  0
   35.3210   29.2930   37.0920 H   0  0  0  0  0  0  0  0  0  0  0  0
   34.4270   27.8040   38.8670 H   0  0  0  0  0  0  0  0  0  0  0  0
   35.0560   28.2130   41.1480 H   0  0  0  0  0  0  0  0  0  0  0  0
   38.3470   34.1610   40.0850 C   0  0  0  0  0  0  0  0  0  0  0  0
   37.4030   33.1730   39.7550 C   0  0  0  0  0  0  0  0  0  0  0  0
   37.6900   31.8450   40.0880 C   0  0  0  0  0  0  0  0  0  0  0  0
   38.8580   31.5800   40.7090 N   0  0  0  0  0  0  0  0  0  0  0  0
   39.7470   32.5620   41.0120 C   0  0  0  0  0  0  0  0  0  0  0  0
   39.4770   33.8540   40.6920 N   0  0  0  0  0  0  0  0  0  0  0  0
   40.9770   32.2650   41.6680 N   0  0  0  0  0  0  0  0  0  0  0  0
   38.1110   35.1910   39.8200 H   0  0  0  0  0  0  0  0  0  0  0  0
   36.4580   33.3810   39.2540 H   0  0  0  0  0  0  0  0  0  0  0  0
   41.3710   31.2970   41.5410 H   0  0  0  0  0  0  0  0  0  0  0  0
   41.4660   32.9750   42.2480 H   0  0  0  0  0  0  0  0  0  0  0  0
   37.7490   29.1510   43.8430 H   0  0  0  0  0  0  0  0  0  0  0  0
   37.4060   29.1520   42.8210 C   0  0  0  0  0  0  0  0  0  0  0  0
   38.0150   28.0400   42.7810 O   0  0  0  0  0  0  0  0  0  0  0  0
   36.6340   30.1020   42.1060 N   0  0  0  0  0  0  0  0  0  0  0  0
   36.3770   30.9180   42.7020 H   0  0  0  0  0  0  0  0  0  0  0  0
  1 13  1  0  0  0  0
  1  6  1  0  0  0  0
  2  1  2  0  0  0  0
  3  2  1  0  0  0  0
  3  4  2  0  0  0  0
  4  5  1  0  0  0  0
  5  6  2  0  0  0  0
  5 10  1  0  0  0  0
  6 25  1  0  0  0  0
  7  2  1  0  0  0  0
  8  3  1  0  0  0  0
  9  4  1  0  0  0  0
 11 16  1  0  0  0  0
 12 11  2  0  0  0  0
 12 13  1  0  0  0  0
 13 14  2  0  0  0  0
 14 15  1  0  0  0  0
 15 17  1  0  0  0  0
 16 15  2  0  0  0  0
 17 21  1  0  0  0  0
 18 11  1  0  0  0  0
 19 12  1  0  0  0  0
 20 17  1  0  0  0  0
 23 22  1  0  0  0  0
 24 23  2  0  0  0  0
 25 26  1  0  0  0  0
 25 23  1  0  0  0  0
M  END
>  <minimizedAffinity>
-5.16821194

$$$$

 OpenBabel03252505353D

 26 27  0  0  0  0  0  0  0  0999 V2000
   37.4560   29.3350   41.5150 C   0  0  0  0  0  0  0  0  0  0  0  0
   36.5290   28.3090   41.5880 C   0  0  0  0  0  0  0  0  0  0  0  0
   36.5130   27.4090   42.6600 C   0  0  0  0  0  0  0  0  0  0  0  0
   37.4320   27.5250   43.6780 C   0  0  0  0  0  0  0  0  0  0  0  0
   38.3400   28.5450   43.5870 C   0  0  0  0  0  0  0  0  0  0  0  0
   38.3630   29.4350   42.5360 C   0  0  0  0  0  0  0  0  0  0  0  0
   35.7630   28.1270   40.8440 H   0  0  0  0  0  0  0  0  0  0  0  0
   35.7880   26.6050   42.7210 H   0  0  0  0  0  0  0  0  0  0  0  0
   37.4680   26.8600   44.5310 H   0  0  0  0  0  0  0  0  0  0  0  0
   39.0680   28.6440   44.3840 H   0  0  0  0  0  0  0  0  0  0  0  0
   37.4340   30.7350   38.0320 C   0  0  0  0  0  0  0  0  0  0  0  0
   37.5010   29.7750   39.0570 C   0  0  0  0  0  0  0  0  0  0  0  0
   37.4020   30.2130   40.3820 C   0  0  0  0  0  0  0  0  0  0  0  0
   37.2460   31.5340   40.6080 N   0  0  0  0  0  0  0  0  0  0  0  0
   37.1860   32.4330   39.5910 C   0  0  0  0  0  0  0  0  0  0  0  0
   37.2820   32.0160   38.3020 N   0  0  0  0  0  0  0  0  0  0  0  0
   37.0210   33.8250   39.8470 N   0  0  0  0  0  0  0  0  0  0  0  0
   37.5140   30.3800   37.0050 H   0  0  0  0  0  0  0  0  0  0  0  0
   37.6270   28.7070   38.8800 H   0  0  0  0  0  0  0  0  0  0  0  0
   37.3580   34.1890   40.7760 H   0  0  0  0  0  0  0  0  0  0  0  0
   36.5880   34.4570   39.1460 H   0  0  0  0  0  0  0  0  0  0  0  0
   41.5650   30.8470   42.3920 H   0  0  0  0  0  0  0  0  0  0  0  0
   40.7130   30.1870   42.4310 C   0  0  0  0  0  0  0  0  0  0  0  0
   41.6060   29.2880   42.3890 O   0  0  0  0  0  0  0  0  0  0  0  0
   39.3250   30.4720   42.4940 N   0  0  0  0  0  0  0  0  0  0  0  0
   39.1410   31.4980   42.5030 H   0  0  0  0  0  0  0  0  0  0  0  0
  1  2  2  0  0  0  0
  1  6  1  0  0  0  0
  2  3  1  0  0  0  0
  3  8  1  0  0  0  0
  3  4  2  0  0  0  0
  4  9  1  0  0  0  0
  5  4  1  0  0  0  0
  5 10  1  0  0  0  0
  6  5  2  0  0  0  0
  7  2  1  0  0  0  0
 11 16  2  0  0  0  0
 11 12  1  0  0  0  0
 12 13  2  0  0  0  0
 13 14  1  0  0  0  0
 13  1  1  0  0  0  0
 15 17  1  0  0  0  0
 15 14  2  0  0  0  0
 16 15  1  0  0  0  0
 17 20  1  0  0  0  0
 18 11  1  0  0  0  0
 19 12  1  0  0  0  0
 21 17  1  0  0  0  0
 22 23  1  0  0  0  0
 23 25  1  0  0  0  0
 24 23  2  0  0  0  0
 25 26  1  0  0  0  0
 25  6  1  0  0  0  0
M  END
>  <minimizedAffinity>
-4.95385647

$$$$

 OpenBabel03252505353D

 26 27  0  0  0  0  0  0  0  0999 V2000
   37.0910   26.6660   40.6490 C   0  0  0  0  0  0  0  0  0  0  0  0
   36.7830   25.7310   39.6750 C   0  0  0  0  0  0  0  0  0  0  0  0
   36.6710   24.3680   39.9740 C   0  0  0  0  0  0  0  0  0  0  0  0
   36.8690   23.9220   41.2610 C   0  0  0  0  0  0  0  0  0  0  0  0
   37.1720   24.8610   42.2090 C   0  0  0  0  0  0  0  0  0  0  0  0
   37.2840   26.2040   41.9220 C   0  0  0  0  0  0  0  0  0  0  0  0
   36.6080   25.9730   38.6330 H   0  0  0  0  0  0  0  0  0  0  0  0
   36.4300   23.6330   39.2140 H   0  0  0  0  0  0  0  0  0  0  0  0
   36.7950   22.8820   41.5520 H   0  0  0  0  0  0  0  0  0  0  0  0
   37.3290   24.5180   43.2250 H   0  0  0  0  0  0  0  0  0  0  0  0
   38.0210   29.8740   38.9360 C   0  0  0  0  0  0  0  0  0  0  0  0
   38.0160   28.4990   39.2270 C   0  0  0  0  0  0  0  0  0  0  0  0
   37.1860   28.0420   40.2560 C   0  0  0  0  0  0  0  0  0  0  0  0
   36.4320   28.9450   40.9170 N   0  0  0  0  0  0  0  0  0  0  0  0
   36.4640   30.2680   40.6080 C   0  0  0  0  0  0  0  0  0  0  0  0
   37.2670   30.7200   39.6110 N   0  0  0  0  0  0  0  0  0  0  0  0
   35.6610   31.2090   41.3160 N   0  0  0  0  0  0  0  0  0  0  0  0
   38.6720   30.2160   38.1320 H   0  0  0  0  0  0  0  0  0  0  0  0
   38.6220   27.7650   38.6960 H   0  0  0  0  0  0  0  0  0  0  0  0
   35.3840   30.9640   42.3020 H   0  0  0  0  0  0  0  0  0  0  0  0
   35.3610   32.1030   40.8790 H   0  0  0  0  0  0  0  0  0  0  0  0
   39.2570   27.7370   44.3770 H   0  0  0  0  0  0  0  0  0  0  0  0
   38.8600   27.1120   43.5920 C   0  0  0  0  0  0  0  0  0  0  0  0
   39.9960   26.5540   43.6790 O   0  0  0  0  0  0  0  0  0  0  0  0
   37.6000   27.1320   42.9440 N   0  0  0  0  0  0  0  0  0  0  0  0
   36.9860   27.8880   43.3150 H   0  0  0  0  0  0  0  0  0  0  0  0
  1  6  1  0  0  0  0
  2  3  1  0  0  0  0
  2  1  2  0  0  0  0
  3  4  2  0  0  0  0
  4  9  1  0  0  0  0
  4  5  1  0  0  0  0
  5 10  1  0  0  0  0
  6  5  2  0  0  0  0
  6 25  1  0  0  0  0
  7  2  1  0  0  0  0
  8  3  1  0  0  0  0
 11 12  2  0  0  0  0
 11 16  1  0  0  0  0
 12 13  1  0  0  0  0
 13  1  1  0  0  0  0
 13 14  2  0  0  0  0
 15 14  1  0  0  0  0
 15 17  1  0  0  0  0
 16 15  2  0  0  0  0
 17 20  1  0  0  0  0
 18 11  1  0  0  0  0
 19 12  1  0  0  0  0
 21 17  1  0  0  0  0
 23 24  2  0  0  0  0
 23 22  1  0  0  0  0
 25 26  1  0  0  0  0
 25 23  1  0  0  0  0
M  END
>  <minimizedAffinity>
-4.84335613

$$$$

 OpenBabel03252505353D

 26 27  0  0  0  0  0  0  0  0999 V2000
   36.2400   27.8010   39.9630 C   0  0  0  0  0  0  0  0  0  0  0  0
   36.7860   26.5350   40.0900 C   0  0  0  0  0  0  0  0  0  0  0  0
   37.1740   26.0240   41.3340 C   0  0  0  0  0  0  0  0  0  0  0  0
   37.0190   26.7800   42.4740 C   0  0  0  0  0  0  0  0  0  0  0  0
   36.4780   28.0280   42.3270 C   0  0  0  0  0  0  0  0  0  0  0  0
   36.0940   28.5390   41.1070 C   0  0  0  0  0  0  0  0  0  0  0  0
   36.9520   25.8580   39.2610 H   0  0  0  0  0  0  0  0  0  0  0  0
   37.6010   25.0330   41.4370 H   0  0  0  0  0  0  0  0  0  0  0  0
   37.3000   26.4380   43.4610 H   0  0  0  0  0  0  0  0  0  0  0  0
   36.3530   28.6310   43.2190 H   0  0  0  0  0  0  0  0  0  0  0  0
   34.4540   28.3430   36.7060 C   0  0  0  0  0  0  0  0  0  0  0  0
   34.7070   27.8350   37.9920 C   0  0  0  0  0  0  0  0  0  0  0  0
   35.8700   28.2470   38.6500 C   0  0  0  0  0  0  0  0  0  0  0  0
   36.6900   29.1120   38.0180 N   0  0  0  0  0  0  0  0  0  0  0  0
   36.4130   29.5810   36.7730 C   0  0  0  0  0  0  0  0  0  0  0  0
   35.2870   29.1860   36.1270 N   0  0  0  0  0  0  0  0  0  0  0  0
   37.2900   30.4940   36.1190 N   0  0  0  0  0  0  0  0  0  0  0  0
   33.5450   28.0130   36.2040 H   0  0  0  0  0  0  0  0  0  0  0  0
   34.0480   27.1370   38.5080 H   0  0  0  0  0  0  0  0  0  0  0  0
   38.3050   30.4750   36.3980 H   0  0  0  0  0  0  0  0  0  0  0  0
   36.9430   31.1530   35.3940 H   0  0  0  0  0  0  0  0  0  0  0  0
   36.1090   32.0350   40.8960 H   0  0  0  0  0  0  0  0  0  0  0  0
   36.3650   30.9890   40.9660 C   0  0  0  0  0  0  0  0  0  0  0  0
   37.5490   31.4420   40.9700 O   0  0  0  0  0  0  0  0  0  0  0  0
   35.5390   29.8370   41.0140 N   0  0  0  0  0  0  0  0  0  0  0  0
   34.5280   30.0840   40.9730 H   0  0  0  0  0  0  0  0  0  0  0  0
  1  2  2  0  0  0  0
  1  6  1  0  0  0  0
  2  3  1  0  0  0  0
  3  8  1  0  0  0  0
  3  4  2  0  0  0  0
  4  9  1  0  0  0  0
  5  4  1  0  0  0  0
  5 10  1  0  0  0  0
  6  5  2  0  0  0  0
  7  2  1  0  0  0  0
 11 12  1  0  0  0  0
 12 19  1  0  0  0  0
 12 13  2  0  0  0  0
 13  1  1  0  0  0  0
 14 13  1  0  0  0  0
 15 14  2  0  0  0  0
 16 11  2  0  0  0  0
 16 15  1  0  0  0  0
 17 20  1  0  0  0  0
 17 15  1  0  0  0  0
 18 11  1  0  0  0  0
 21 17  1  0  0  0  0
 22 23  1  0  0  0  0
 23 24  2  0  0  0  0
 23 25  1  0  0  0  0
 25  6  1  0  0  0  0
 26 25  1  0  0  0  0
M  END
>  <minimizedAffinity>
-4.82270575

$$$$

 OpenBabel03252505353D

 26 27  0  0  0  0  0  0  0  0999 V2000
   38.6600   29.9050   41.7600 C   0  0  0  0  0  0  0  0  0  0  0  0
   39.6900   29.1630   42.3130 C   0  0  0  0  0  0  0  0  0  0  0  0
   39.4400   28.0610   43.1380 C   0  0  0  0  0  0  0  0  0  0  0  0
   38.1460   27.6860   43.4240 C   0  0  0  0  0  0  0  0  0  0  0  0
   37.1430   28.4320   42.8680 C   0  0  0  0  0  0  0  0  0  0  0  0
   37.3800   29.5180   42.0550 C   0  0  0  0  0  0  0  0  0  0  0  0
   40.7420   29.3700   42.1540 H   0  0  0  0  0  0  0  0  0  0  0  0
   40.2440   27.4770   43.5730 H   0  0  0  0  0  0  0  0  0  0  0  0
   37.8930   26.8440   44.0550 H   0  0  0  0  0  0  0  0  0  0  0  0
   36.1210   28.1450   43.0880 H   0  0  0  0  0  0  0  0  0  0  0  0
   39.8420   33.2340   40.4910 C   0  0  0  0  0  0  0  0  0  0  0  0
   39.5460   32.2140   41.4110 C   0  0  0  0  0  0  0  0  0  0  0  0
   39.0040   31.0190   40.9250 C   0  0  0  0  0  0  0  0  0  0  0  0
   38.7930   30.9070   39.5970 N   0  0  0  0  0  0  0  0  0  0  0  0
   39.0910   31.9160   38.7370 C   0  0  0  0  0  0  0  0  0  0  0  0
   39.6170   33.0790   39.2000 N   0  0  0  0  0  0  0  0  0  0  0  0
   38.8620   31.7820   37.3370 N   0  0  0  0  0  0  0  0  0  0  0  0
   40.2630   34.1590   40.8830 H   0  0  0  0  0  0  0  0  0  0  0  0
   39.7150   32.2980   42.4840 H   0  0  0  0  0  0  0  0  0  0  0  0
   38.1090   31.1120   37.0310 H   0  0  0  0  0  0  0  0  0  0  0  0
   39.4140   32.3240   36.6430 H   0  0  0  0  0  0  0  0  0  0  0  0
   34.6190   30.1190   39.9860 H   0  0  0  0  0  0  0  0  0  0  0  0
   35.4690   29.7010   40.5020 C   0  0  0  0  0  0  0  0  0  0  0  0
   35.2220   28.6970   39.7670 O   0  0  0  0  0  0  0  0  0  0  0  0
   36.3020   30.2540   41.5070 N   0  0  0  0  0  0  0  0  0  0  0  0
   36.0130   31.2230   41.7600 H   0  0  0  0  0  0  0  0  0  0  0  0
  1  6  2  0  0  0  0
  1  2  1  0  0  0  0
  2  3  2  0  0  0  0
  3  4  1  0  0  0  0
  3  8  1  0  0  0  0
  4  9  1  0  0  0  0
  5 10  1  0  0  0  0
  5  4  2  0  0  0  0
  6  5  1  0  0  0  0
  7  2  1  0  0  0  0
 11 18  1  0  0  0  0
 11 12  1  0  0  0  0
 12 19  1  0  0  0  0
 13 12  2  0  0  0  0
 13  1  1  0  0  0  0
 14 13  1  0  0  0  0
 15 16  1  0  0  0  0
 15 14  2  0  0  0  0
 16 11  2  0  0  0  0
 17 15  1  0  0  0  0
 20 17  1  0  0  0  0
 21 17  1  0  0  0  0
 22 23  1  0  0  0  0
 23 25  1  0  0  0  0
 24 23  2  0  0  0  0
 25 26  1  0  0  0  0
 25  6  1  0  0  0  0
M  END
>  <minimizedAffinity>
-4.7866807

$$$$

 OpenBabel03252505353D

 26 27  0  0  0  0  0  0  0  0999 V2000
   36.1010   27.8470   40.0050 C   0  0  0  0  0  0  0  0  0  0  0  0
   36.6710   26.5870   40.0790 C   0  0  0  0  0  0  0  0  0  0  0  0
   37.2270   26.1010   41.2680 C   0  0  0  0  0  0  0  0  0  0  0  0
   37.2220   26.8770   42.4050 C   0  0  0  0  0  0  0  0  0  0  0  0
   36.6550   28.1180   42.3110 C   0  0  0  0  0  0  0  0  0  0  0  0
   36.1050   28.6040   41.1450 C   0  0  0  0  0  0  0  0  0  0  0  0
   36.7290   25.8950   39.2460 H   0  0  0  0  0  0  0  0  0  0  0  0
   37.6740   25.1140   41.3290 H   0  0  0  0  0  0  0  0  0  0  0  0
   37.6370   26.5550   43.3510 H   0  0  0  0  0  0  0  0  0  0  0  0
   36.6460   28.7370   43.2020 H   0  0  0  0  0  0  0  0  0  0  0  0
   35.6630   28.8510   36.4150 C   0  0  0  0  0  0  0  0  0  0  0  0
   36.3160   28.4350   37.5870 C   0  0  0  0  0  0  0  0  0  0  0  0
   35.5530   28.2660   38.7470 C   0  0  0  0  0  0  0  0  0  0  0  0
   34.2280   28.5100   38.6810 N   0  0  0  0  0  0  0  0  0  0  0  0
   33.6300   28.9120   37.5290 C   0  0  0  0  0  0  0  0  0  0  0  0
   34.3640   29.0790   36.3990 N   0  0  0  0  0  0  0  0  0  0  0  0
   32.2290   29.1660   37.4760 N   0  0  0  0  0  0  0  0  0  0  0  0
   36.2690   28.9790   35.5190 H   0  0  0  0  0  0  0  0  0  0  0  0
   37.3860   28.2360   37.6470 H   0  0  0  0  0  0  0  0  0  0  0  0
   31.7540   29.4450   38.3740 H   0  0  0  0  0  0  0  0  0  0  0  0
   31.6960   29.0820   36.5880 H   0  0  0  0  0  0  0  0  0  0  0  0
   36.0620   32.0970   40.8980 H   0  0  0  0  0  0  0  0  0  0  0  0
   36.3340   31.0550   40.9480 C   0  0  0  0  0  0  0  0  0  0  0  0
   37.5060   31.5170   40.8060 O   0  0  0  0  0  0  0  0  0  0  0  0
   35.5310   29.8970   41.1060 N   0  0  0  0  0  0  0  0  0  0  0  0
   34.5190   30.1360   41.1840 H   0  0  0  0  0  0  0  0  0  0  0  0
  1  2  2  0  0  0  0
  1  6  1  0  0  0  0
  2  3  1  0  0  0  0
  3  8  1  0  0  0  0
  3  4  2  0  0  0  0
  4  9  1  0  0  0  0
  5  4  1  0  0  0  0
  5 10  1  0  0  0  0
  6  5  2  0  0  0  0
  7  2  1  0  0  0  0
 11 12  1  0  0  0  0
 12 19  1  0  0  0  0
 12 13  2  0  0  0  0
 13  1  1  0  0  0  0
 14 13  1  0  0  0  0
 15 14  2  0  0  0  0
 16 11  2  0  0  0  0
 16 15  1  0  0  0  0
 17 15  1  0  0  0  0
 17 20  1  0  0  0  0
 18 11  1  0  0  0  0
 21 17  1  0  0  0  0
 22 23  1  0  0  0  0
 23 25  1  0  0  0  0
 24 23  2  0  0  0  0
 25  6  1  0  0  0  0
 25 26  1  0  0  0  0
M  END
>  <minimizedAffinity>
-4.73314524

$$$$

 OpenBabel03252505353D

 26 27  0  0  0  0  0  0  0  0999 V2000
   40.5520   31.2410   37.8790 C   0  0  0  0  0  0  0  0  0  0  0  0
   40.6440   29.8600   37.9270 C   0  0  0  0  0  0  0  0  0  0  0  0
   41.6970   29.1720   37.3120 C   0  0  0  0  0  0  0  0  0  0  0  0
   42.6770   29.8630   36.6370 C   0  0  0  0  0  0  0  0  0  0  0  0
   42.5690   31.2260   36.6020 C   0  0  0  0  0  0  0  0  0  0  0  0
   41.5360   31.9110   37.2030 C   0  0  0  0  0  0  0  0  0  0  0  0
   39.9280   29.2200   38.4290 H   0  0  0  0  0  0  0  0  0  0  0  0
   41.7710   28.0910   37.3480 H   0  0  0  0  0  0  0  0  0  0  0  0
   43.5130   29.3860   36.1440 H   0  0  0  0  0  0  0  0  0  0  0  0
   43.3360   31.7790   36.0720 H   0  0  0  0  0  0  0  0  0  0  0  0
   37.1070   32.3510   38.8740 C   0  0  0  0  0  0  0  0  0  0  0  0
   38.1090   31.6820   38.1500 C   0  0  0  0  0  0  0  0  0  0  0  0
   39.4410   31.8660   38.5360 C   0  0  0  0  0  0  0  0  0  0  0  0
   39.6950   32.6760   39.5840 N   0  0  0  0  0  0  0  0  0  0  0  0
   38.7000   33.3080   40.2600 C   0  0  0  0  0  0  0  0  0  0  0  0
   37.4050   33.1340   39.8920 N   0  0  0  0  0  0  0  0  0  0  0  0
   38.9860   34.1610   41.3650 N   0  0  0  0  0  0  0  0  0  0  0  0
   36.0740   32.1990   38.5620 H   0  0  0  0  0  0  0  0  0  0  0  0
   37.9090   31.0260   37.3030 H   0  0  0  0  0  0  0  0  0  0  0  0
   39.9340   34.6190   41.3900 H   0  0  0  0  0  0  0  0  0  0  0  0
   38.2880   34.3260   42.1170 H   0  0  0  0  0  0  0  0  0  0  0  0
   42.6370   35.2040   37.6630 H   0  0  0  0  0  0  0  0  0  0  0  0
   42.5250   34.1320   37.6370 C   0  0  0  0  0  0  0  0  0  0  0  0
   43.6600   34.1590   38.2030 O   0  0  0  0  0  0  0  0  0  0  0  0
   41.4750   33.3240   37.1340 N   0  0  0  0  0  0  0  0  0  0  0  0
   40.7030   33.8980   36.7330 H   0  0  0  0  0  0  0  0  0  0  0  0
  1  2  1  0  0  0  0
  1 13  1  0  0  0  0
  2  7  1  0  0  0  0
  3  8  1  0  0  0  0
  3  2  2  0  0  0  0
  4  3  1  0  0  0  0
  5  4  2  0  0  0  0
  5  6  1  0  0  0  0
  6  1  2  0  0  0  0
  9  4  1  0  0  0  0
 10  5  1  0  0  0  0
 11 16  1  0  0  0  0
 12 13  1  0  0  0  0
 12 11  2  0  0  0  0
 13 14  2  0  0  0  0
 14 15  1  0  0  0  0
 15 17  1  0  0  0  0
 16 15  2  0  0  0  0
 17 20  1  0  0  0  0
 17 21  1  0  0  0  0
 18 11  1  0  0  0  0
 19 12  1  0  0  0  0
 23 22  1  0  0  0  0
 23 24  2  0  0  0  0
 25  6  1  0  0  0  0
 25 23  1  0  0  0  0
 26 25  1  0  0  0  0
M  END
>  <minimizedAffinity>
-4.72616005

$$$$

 OpenBabel03252505353D

 26 27  0  0  0  0  0  0  0  0999 V2000
   37.2170   26.5360   41.0670 C   0  0  0  0  0  0  0  0  0  0  0  0
   37.1590   25.6960   42.1660 C   0  0  0  0  0  0  0  0  0  0  0  0
   36.8480   24.3380   42.0370 C   0  0  0  0  0  0  0  0  0  0  0  0
   36.5870   23.8000   40.7970 C   0  0  0  0  0  0  0  0  0  0  0  0
   36.6490   24.6460   39.7240 C   0  0  0  0  0  0  0  0  0  0  0  0
   36.9550   25.9840   39.8420 C   0  0  0  0  0  0  0  0  0  0  0  0
   37.3460   26.0140   43.1850 H   0  0  0  0  0  0  0  0  0  0  0  0
   36.8020   23.6770   42.8960 H   0  0  0  0  0  0  0  0  0  0  0  0
   36.3420   22.7580   40.6360 H   0  0  0  0  0  0  0  0  0  0  0  0
   36.4450   24.2310   38.7430 H   0  0  0  0  0  0  0  0  0  0  0  0
   39.0240   29.7440   41.7960 C   0  0  0  0  0  0  0  0  0  0  0  0
   38.8300   28.3660   41.6010 C   0  0  0  0  0  0  0  0  0  0  0  0
   37.5430   27.9150   41.2880 C   0  0  0  0  0  0  0  0  0  0  0  0
   36.5540   28.8270   41.1890 N   0  0  0  0  0  0  0  0  0  0  0  0
   36.7780   30.1520   41.3850 C   0  0  0  0  0  0  0  0  0  0  0  0
   38.0240   30.5980   41.6890 N   0  0  0  0  0  0  0  0  0  0  0  0
   35.7220   31.1030   41.2770 N   0  0  0  0  0  0  0  0  0  0  0  0
   40.0300   30.0820   42.0390 H   0  0  0  0  0  0  0  0  0  0  0  0
   39.6250   27.6250   41.6790 H   0  0  0  0  0  0  0  0  0  0  0  0
   34.7430   30.7610   41.4600 H   0  0  0  0  0  0  0  0  0  0  0  0
   35.9080   32.0940   41.0280 H   0  0  0  0  0  0  0  0  0  0  0  0
   35.7280   27.6100   36.9930 H   0  0  0  0  0  0  0  0  0  0  0  0
   35.8600   27.0190   37.8850 C   0  0  0  0  0  0  0  0  0  0  0  0
   34.6330   26.7540   37.7010 O   0  0  0  0  0  0  0  0  0  0  0  0
   37.0050   26.8130   38.6960 N   0  0  0  0  0  0  0  0  0  0  0  0
   37.8320   27.3350   38.3360 H   0  0  0  0  0  0  0  0  0  0  0  0
  1 13  1  0  0  0  0
  1  2  1  0  0  0  0
  2  7  1  0  0  0  0
  3  2  2  0  0  0  0
  3  8  1  0  0  0  0
  4  3  1  0  0  0  0
  5  6  1  0  0  0  0
  5  4  2  0  0  0  0
  6  1  2  0  0  0  0
  9  4  1  0  0  0  0
 10  5  1  0  0  0  0
 11 18  1  0  0  0  0
 12 19  1  0  0  0  0
 12 11  2  0  0  0  0
 13 12  1  0  0  0  0
 14 13  2  0  0  0  0
 14 15  1  0  0  0  0
 15 16  2  0  0  0  0
 16 11  1  0  0  0  0
 17 15  1  0  0  0  0
 17 20  1  0  0  0  0
 21 17  1  0  0  0  0
 22 23  1  0  0  0  0
 23 25  1  0  0  0  0
 24 23  2  0  0  0  0
 25  6  1  0  0  0  0
 26 25  1  0  0  0  0
M  END
>  <minimizedAffinity>
-4.71572542

$$$$
