
 OpenBabel03242510163D

 21 22  0  0  1  0  0  0  0  0999 V2000
   46.4020   33.5320   42.3180 C   0  0  1  0  0  0  0  0  0  0  0  0
   46.7730   34.3350   41.1520 C   0  0  0  0  0  0  0  0  0  0  0  0
   47.8490   33.7950   42.0320 C   0  0  1  0  0  0  0  0  0  0  0  0
   46.0960   32.4690   42.1380 H   0  0  0  0  0  0  0  0  0  0  0  0
   46.7000   35.4490   41.1560 H   0  0  0  0  0  0  0  0  0  0  0  0
   46.7280   33.9150   40.1070 H   0  0  0  0  0  0  0  0  0  0  0  0
   48.4460   32.9570   41.6270 H   0  0  0  0  0  0  0  0  0  0  0  0
   45.1150   35.4120   43.3960 C   0  0  0  0  0  0  0  0  0  0  0  0
   45.7700   34.1600   43.5040 C   0  0  0  0  0  0  0  0  0  0  0  0
   45.7990   33.5640   44.7610 C   0  0  0  0  0  0  0  0  0  0  0  0
   45.2050   34.2120   45.7990 N   0  0  0  0  0  0  0  0  0  0  0  0
   44.5890   35.4040   45.6610 C   0  0  0  0  0  0  0  0  0  0  0  0
   44.5440   36.0120   44.4460 N   0  0  0  0  0  0  0  0  0  0  0  0
   45.1170   35.8420   42.3960 H   0  0  0  0  0  0  0  0  0  0  0  0
   46.2850   32.6130   44.8890 H   0  0  0  0  0  0  0  0  0  0  0  0
   44.1160   35.9210   46.4800 H   0  0  0  0  0  0  0  0  0  0  0  0
   49.8210   36.4550   42.8820 H   0  0  0  0  0  0  0  0  0  0  0  0
   49.2590   35.8230   42.1760 C   0  0  0  0  0  0  0  0  0  0  0  0
   49.1760   36.0310   40.9380 O   0  0  0  0  0  0  0  0  0  0  0  0
   48.6210   34.7100   42.8350 N   0  0  0  0  0  0  0  0  0  0  0  0
   48.6930   34.5410   43.8590 H   0  0  0  0  0  0  0  0  0  0  0  0
  1  4  1  6  0  0  0
  1  9  1  0  0  0  0
  2  5  1  0  0  0  0
  2  3  1  0  0  0  0
  2  1  1  0  0  0  0
  3  7  1  6  0  0  0
  3  1  1  0  0  0  0
  3 20  1  0  0  0  0
  6  2  1  0  0  0  0
  8  9  2  0  0  0  0
  8 13  1  0  0  0  0
  9 10  1  0  0  0  0
 10 15  1  0  0  0  0
 10 11  2  0  0  0  0
 12 11  1  0  0  0  0
 12 16  1  0  0  0  0
 13 12  2  0  0  0  0
 14  8  1  0  0  0  0
 18 20  1  0  0  0  0
 18 17  1  0  0  0  0
 19 18  2  0  0  0  0
 20 21  1  0  0  0  0
M  END
>  <minimizedAffinity>
-3.8323369

>  <minimizedRMSD>
1.9264406

$$$$
