
 OpenBabel03242515263D

 27 28  0  0  0  0  0  0  0  0999 V2000
   36.5700   31.1340   40.9530 C   0  0  0  0  0  0  0  0  0  0  0  0
   36.3790   31.9170   41.6910 H   0  0  0  0  0  0  0  0  0  0  0  0
   35.6240   31.0100   40.3720 H   0  0  0  0  0  0  0  0  0  0  0  0
   37.5660   30.9010   38.7410 C   0  0  0  0  0  0  0  0  0  0  0  0
   37.5920   31.5490   39.9840 C   0  0  0  0  0  0  0  0  0  0  0  0
   38.5670   32.5020   40.1730 C   0  0  0  0  0  0  0  0  0  0  0  0
   39.4410   32.7740   39.1820 N   0  0  0  0  0  0  0  0  0  0  0  0
   39.3730   32.1160   37.9900 C   0  0  0  0  0  0  0  0  0  0  0  0
   38.4460   31.1770   37.7470 N   0  0  0  0  0  0  0  0  0  0  0  0
   36.8220   30.1420   38.5340 H   0  0  0  0  0  0  0  0  0  0  0  0
   38.5810   32.9950   41.1340 H   0  0  0  0  0  0  0  0  0  0  0  0
   42.4690   33.0770   36.7050 H   0  0  0  0  0  0  0  0  0  0  0  0
   41.5940   32.8090   37.2650 C   0  0  0  0  0  0  0  0  0  0  0  0
   41.9000   32.9400   38.4990 O   0  0  0  0  0  0  0  0  0  0  0  0
   40.2800   32.3790   36.9240 N   0  0  0  0  0  0  0  0  0  0  0  0
   40.1820   32.3220   35.8860 H   0  0  0  0  0  0  0  0  0  0  0  0
   36.9700   29.8580   41.5320 N   0  0  0  0  0  0  0  0  0  0  0  0
   38.0480   29.7750   42.2980 C   0  0  0  0  0  0  0  0  0  0  0  0
   38.3770   28.5230   42.8230 C   0  0  0  0  0  0  0  0  0  0  0  0
   37.6100   27.4270   42.5510 C   0  0  0  0  0  0  0  0  0  0  0  0
   37.9290   26.3040   43.0390 O   0  0  0  0  0  0  0  0  0  0  0  0
   36.5110   27.5470   41.7620 N   0  0  0  0  0  0  0  0  0  0  0  0
   36.1940   28.7600   41.2540 C   0  0  0  0  0  0  0  0  0  0  0  0
   35.1590   28.8060   40.5280 O   0  0  0  0  0  0  0  0  0  0  0  0
   38.6410   30.6590   42.4990 H   0  0  0  0  0  0  0  0  0  0  0  0
   39.2540   28.4390   43.4500 H   0  0  0  0  0  0  0  0  0  0  0  0
   35.9680   26.6810   41.5910 H   0  0  0  0  0  0  0  0  0  0  0  0
  1 17  1  0  0  0  0
  1  2  1  0  0  0  0
  3  1  1  0  0  0  0
  4  5  1  0  0  0  0
  5  6  2  0  0  0  0
  5  1  1  0  0  0  0
  6 11  1  0  0  0  0
  7  6  1  0  0  0  0
  8  7  2  0  0  0  0
  9  8  1  0  0  0  0
  9  4  2  0  0  0  0
 10  4  1  0  0  0  0
 12 13  1  0  0  0  0
 13 14  2  0  0  0  0
 15 13  1  0  0  0  0
 15  8  1  0  0  0  0
 16 15  1  0  0  0  0
 17 18  1  0  0  0  0
 18 25  1  0  0  0  0
 18 19  2  0  0  0  0
 19 26  1  0  0  0  0
 20 19  1  0  0  0  0
 20 21  2  0  0  0  0
 22 20  1  0  0  0  0
 23 17  1  0  0  0  0
 23 22  1  0  0  0  0
 24 23  2  0  0  0  0
 27 22  1  0  0  0  0
M  END
>  <minimizedAffinity>
-5.20060492

$$$$

 OpenBabel03242515263D

 27 28  0  0  0  0  0  0  0  0999 V2000
   35.4540   28.6350   40.1720 C   0  0  0  0  0  0  0  0  0  0  0  0
   34.4670   28.7360   40.6300 H   0  0  0  0  0  0  0  0  0  0  0  0
   35.2860   28.2300   39.1450 H   0  0  0  0  0  0  0  0  0  0  0  0
   36.4970   30.2640   38.6910 C   0  0  0  0  0  0  0  0  0  0  0  0
   36.0990   29.9420   39.9950 C   0  0  0  0  0  0  0  0  0  0  0  0
   36.3520   30.8740   40.9760 C   0  0  0  0  0  0  0  0  0  0  0  0
   36.9580   32.0370   40.6560 N   0  0  0  0  0  0  0  0  0  0  0  0
   37.3240   32.3030   39.3710 C   0  0  0  0  0  0  0  0  0  0  0  0
   37.1050   31.4340   38.3720 N   0  0  0  0  0  0  0  0  0  0  0  0
   36.3250   29.5710   37.8770 H   0  0  0  0  0  0  0  0  0  0  0  0
   36.0440   30.6170   41.9790 H   0  0  0  0  0  0  0  0  0  0  0  0
   39.3780   35.0520   39.9910 H   0  0  0  0  0  0  0  0  0  0  0  0
   38.7870   34.1580   39.9730 C   0  0  0  0  0  0  0  0  0  0  0  0
   38.9130   33.6170   41.1240 O   0  0  0  0  0  0  0  0  0  0  0  0
   37.9650   33.5210   39.0010 N   0  0  0  0  0  0  0  0  0  0  0  0
   37.9600   34.0780   38.1180 H   0  0  0  0  0  0  0  0  0  0  0  0
   36.3620   27.7640   40.9070 N   0  0  0  0  0  0  0  0  0  0  0  0
   36.4540   27.8480   42.2270 C   0  0  0  0  0  0  0  0  0  0  0  0
   37.3430   26.9860   42.8730 C   0  0  0  0  0  0  0  0  0  0  0  0
   38.0880   26.0890   42.1610 C   0  0  0  0  0  0  0  0  0  0  0  0
   38.8860   25.3180   42.7700 O   0  0  0  0  0  0  0  0  0  0  0  0
   37.9690   26.0290   40.8100 N   0  0  0  0  0  0  0  0  0  0  0  0
   37.1080   26.8650   40.1860 C   0  0  0  0  0  0  0  0  0  0  0  0
   37.0430   26.7590   38.9280 O   0  0  0  0  0  0  0  0  0  0  0  0
   35.8530   28.5680   42.7690 H   0  0  0  0  0  0  0  0  0  0  0  0
   37.4310   27.0420   43.9480 H   0  0  0  0  0  0  0  0  0  0  0  0
   38.5600   25.3290   40.3250 H   0  0  0  0  0  0  0  0  0  0  0  0
  1  2  1  0  0  0  0
  1 17  1  0  0  0  0
  3  1  1  0  0  0  0
  4  5  1  0  0  0  0
  5  1  1  0  0  0  0
  5  6  2  0  0  0  0
  6 11  1  0  0  0  0
  7  6  1  0  0  0  0
  8  7  2  0  0  0  0
  9  4  2  0  0  0  0
  9  8  1  0  0  0  0
 10  4  1  0  0  0  0
 13 12  1  0  0  0  0
 13 14  2  0  0  0  0
 15  8  1  0  0  0  0
 15 13  1  0  0  0  0
 16 15  1  0  0  0  0
 17 18  1  0  0  0  0
 18 25  1  0  0  0  0
 18 19  2  0  0  0  0
 19 26  1  0  0  0  0
 20 21  2  0  0  0  0
 20 19  1  0  0  0  0
 22 20  1  0  0  0  0
 23 22  1  0  0  0  0
 23 17  1  0  0  0  0
 24 23  2  0  0  0  0
 27 22  1  0  0  0  0
M  END
>  <minimizedAffinity>
-4.95542479

$$$$

 OpenBabel03242515263D

 27 28  0  0  0  0  0  0  0  0999 V2000
   36.2800   30.1280   40.6250 C   0  0  0  0  0  0  0  0  0  0  0  0
   36.1490   30.7020   41.5470 H   0  0  0  0  0  0  0  0  0  0  0  0
   35.3300   30.2330   40.0490 H   0  0  0  0  0  0  0  0  0  0  0  0
   36.9620   31.0560   38.4780 C   0  0  0  0  0  0  0  0  0  0  0  0
   37.3350   30.7040   39.7820 C   0  0  0  0  0  0  0  0  0  0  0  0
   38.6450   30.9290   40.1410 C   0  0  0  0  0  0  0  0  0  0  0  0
   39.5020   31.4680   39.2490 N   0  0  0  0  0  0  0  0  0  0  0  0
   39.0890   31.7940   37.9920 C   0  0  0  0  0  0  0  0  0  0  0  0
   37.8260   31.5980   37.5840 N   0  0  0  0  0  0  0  0  0  0  0  0
   35.9460   30.9020   38.1380 H   0  0  0  0  0  0  0  0  0  0  0  0
   38.9240   30.6540   41.1480 H   0  0  0  0  0  0  0  0  0  0  0  0
   42.2220   32.2770   36.5400 H   0  0  0  0  0  0  0  0  0  0  0  0
   41.3480   32.0180   37.1030 C   0  0  0  0  0  0  0  0  0  0  0  0
   41.7340   31.2200   38.0250 O   0  0  0  0  0  0  0  0  0  0  0  0
   39.9690   32.3640   37.0270 N   0  0  0  0  0  0  0  0  0  0  0  0
   39.8090   33.0190   36.2300 H   0  0  0  0  0  0  0  0  0  0  0  0
   36.5770   28.7180   40.8430 N   0  0  0  0  0  0  0  0  0  0  0  0
   36.3610   27.8290   39.8830 C   0  0  0  0  0  0  0  0  0  0  0  0
   36.6670   26.4930   40.1540 C   0  0  0  0  0  0  0  0  0  0  0  0
   37.1710   26.1240   41.3690 C   0  0  0  0  0  0  0  0  0  0  0  0
   37.4400   24.9070   41.5900 O   0  0  0  0  0  0  0  0  0  0  0  0
   37.3800   27.0610   42.3300 N   0  0  0  0  0  0  0  0  0  0  0  0
   37.0830   28.3540   42.0650 C   0  0  0  0  0  0  0  0  0  0  0  0
   37.3010   29.1770   43.0010 O   0  0  0  0  0  0  0  0  0  0  0  0
   35.9600   28.1460   38.9280 H   0  0  0  0  0  0  0  0  0  0  0  0
   36.4960   25.7560   39.3830 H   0  0  0  0  0  0  0  0  0  0  0  0
   37.7640   26.7210   43.2300 H   0  0  0  0  0  0  0  0  0  0  0  0
  1 17  1  0  0  0  0
  1  2  1  0  0  0  0
  3  1  1  0  0  0  0
  4  5  1  0  0  0  0
  5  6  2  0  0  0  0
  5  1  1  0  0  0  0
  6 11  1  0  0  0  0
  7  6  1  0  0  0  0
  8  7  2  0  0  0  0
  9  8  1  0  0  0  0
  9  4  2  0  0  0  0
 10  4  1  0  0  0  0
 12 13  1  0  0  0  0
 13 14  2  0  0  0  0
 15 13  1  0  0  0  0
 15  8  1  0  0  0  0
 16 15  1  0  0  0  0
 17 23  1  0  0  0  0
 18 19  2  0  0  0  0
 18 17  1  0  0  0  0
 19 20  1  0  0  0  0
 20 21  2  0  0  0  0
 20 22  1  0  0  0  0
 22 27  1  0  0  0  0
 23 22  1  0  0  0  0
 23 24  2  0  0  0  0
 25 18  1  0  0  0  0
 26 19  1  0  0  0  0
M  END
>  <minimizedAffinity>
-4.92314672

$$$$

 OpenBabel03242515263D

 27 28  0  0  0  0  0  0  0  0999 V2000
   36.4500   30.7240   41.0880 C   0  0  0  0  0  0  0  0  0  0  0  0
   36.8230   31.7170   41.3520 H   0  0  0  0  0  0  0  0  0  0  0  0
   35.3620   30.7180   41.3360 H   0  0  0  0  0  0  0  0  0  0  0  0
   37.3300   31.3890   38.9150 C   0  0  0  0  0  0  0  0  0  0  0  0
   36.5400   30.4870   39.6410 C   0  0  0  0  0  0  0  0  0  0  0  0
   35.9300   29.4770   38.9330 C   0  0  0  0  0  0  0  0  0  0  0  0
   36.1090   29.3900   37.5980 N   0  0  0  0  0  0  0  0  0  0  0  0
   36.8880   30.2930   36.9380 C   0  0  0  0  0  0  0  0  0  0  0  0
   37.5070   31.3000   37.5730 N   0  0  0  0  0  0  0  0  0  0  0  0
   37.8340   32.2050   39.4170 H   0  0  0  0  0  0  0  0  0  0  0  0
   35.3230   28.7870   39.5010 H   0  0  0  0  0  0  0  0  0  0  0  0
   35.9200   29.5080   33.6810 H   0  0  0  0  0  0  0  0  0  0  0  0
   36.0530   29.6830   34.7300 C   0  0  0  0  0  0  0  0  0  0  0  0
   34.9860   29.2750   35.3040 O   0  0  0  0  0  0  0  0  0  0  0  0
   37.0960   30.2300   35.5300 N   0  0  0  0  0  0  0  0  0  0  0  0
   37.8980   30.5150   34.9240 H   0  0  0  0  0  0  0  0  0  0  0  0
   37.1260   29.6330   41.7790 N   0  0  0  0  0  0  0  0  0  0  0  0
   36.5000   28.4850   41.9970 C   0  0  0  0  0  0  0  0  0  0  0  0
   37.2020   27.4800   42.6650 C   0  0  0  0  0  0  0  0  0  0  0  0
   38.4890   27.6800   43.0770 C   0  0  0  0  0  0  0  0  0  0  0  0
   39.1040   26.7530   43.6800 O   0  0  0  0  0  0  0  0  0  0  0  0
   39.1010   28.8690   42.8370 N   0  0  0  0  0  0  0  0  0  0  0  0
   38.4180   29.8420   42.1900 C   0  0  0  0  0  0  0  0  0  0  0  0
   39.0430   30.9250   41.9980 O   0  0  0  0  0  0  0  0  0  0  0  0
   35.4790   28.3500   41.6620 H   0  0  0  0  0  0  0  0  0  0  0  0
   36.7070   26.5370   42.8510 H   0  0  0  0  0  0  0  0  0  0  0  0
   40.0760   28.9630   43.1720 H   0  0  0  0  0  0  0  0  0  0  0  0
  1  3  1  0  0  0  0
  1  2  1  0  0  0  0
  1 17  1  0  0  0  0
  4 10  1  0  0  0  0
  4  5  1  0  0  0  0
  5  1  1  0  0  0  0
  6 11  1  0  0  0  0
  6  5  2  0  0  0  0
  7  6  1  0  0  0  0
  8  9  1  0  0  0  0
  8  7  2  0  0  0  0
  9  4  2  0  0  0  0
 12 13  1  0  0  0  0
 13 14  2  0  0  0  0
 13 15  1  0  0  0  0
 15  8  1  0  0  0  0
 16 15  1  0  0  0  0
 17 18  1  0  0  0  0
 17 23  1  0  0  0  0
 18 19  2  0  0  0  0
 19 26  1  0  0  0  0
 19 20  1  0  0  0  0
 20 21  2  0  0  0  0
 22 20  1  0  0  0  0
 22 27  1  0  0  0  0
 23 22  1  0  0  0  0
 24 23  2  0  0  0  0
 25 18  1  0  0  0  0
M  END
>  <minimizedAffinity>
-4.87507391

$$$$

 OpenBabel03242515263D

 27 28  0  0  0  0  0  0  0  0999 V2000
   37.9190   28.9970   43.3130 C   0  0  0  0  0  0  0  0  0  0  0  0
   37.2000   29.1250   44.1270 H   0  0  0  0  0  0  0  0  0  0  0  0
   38.9230   29.2390   43.7350 H   0  0  0  0  0  0  0  0  0  0  0  0
   39.2690   27.0930   42.6120 C   0  0  0  0  0  0  0  0  0  0  0  0
   37.9880   27.5970   42.8760 C   0  0  0  0  0  0  0  0  0  0  0  0
   36.9270   26.7370   42.6990 C   0  0  0  0  0  0  0  0  0  0  0  0
   37.1520   25.4710   42.2890 N   0  0  0  0  0  0  0  0  0  0  0  0
   38.4180   25.0280   42.0470 C   0  0  0  0  0  0  0  0  0  0  0  0
   39.4910   25.8200   42.2010 N   0  0  0  0  0  0  0  0  0  0  0  0
   40.1410   27.7220   42.7330 H   0  0  0  0  0  0  0  0  0  0  0  0
   35.9440   27.1340   42.9030 H   0  0  0  0  0  0  0  0  0  0  0  0
   37.6110   22.0760   40.3770 H   0  0  0  0  0  0  0  0  0  0  0  0
   37.6950   23.0430   40.8320 C   0  0  0  0  0  0  0  0  0  0  0  0
   36.6140   23.6680   40.5570 O   0  0  0  0  0  0  0  0  0  0  0  0
   38.6880   23.6990   41.6130 N   0  0  0  0  0  0  0  0  0  0  0  0
   39.5060   23.0660   41.7550 H   0  0  0  0  0  0  0  0  0  0  0  0
   37.6530   29.8340   42.1500 N   0  0  0  0  0  0  0  0  0  0  0  0
   36.4550   29.8360   41.5820 C   0  0  0  0  0  0  0  0  0  0  0  0
   36.2650   30.6600   40.4700 C   0  0  0  0  0  0  0  0  0  0  0  0
   37.2830   31.4350   39.9910 C   0  0  0  0  0  0  0  0  0  0  0  0
   37.0850   32.1730   38.9830 O   0  0  0  0  0  0  0  0  0  0  0  0
   38.4980   31.4080   40.5970 N   0  0  0  0  0  0  0  0  0  0  0  0
   38.6810   30.6090   41.6740 C   0  0  0  0  0  0  0  0  0  0  0  0
   39.8340   30.6300   42.1920 O   0  0  0  0  0  0  0  0  0  0  0  0
   35.6640   29.2120   41.9800 H   0  0  0  0  0  0  0  0  0  0  0  0
   35.2940   30.6730   39.9950 H   0  0  0  0  0  0  0  0  0  0  0  0
   39.2310   32.0170   40.1890 H   0  0  0  0  0  0  0  0  0  0  0  0
  1  3  1  0  0  0  0
  1  2  1  0  0  0  0
  4 10  1  0  0  0  0
  4  5  1  0  0  0  0
  5  1  1  0  0  0  0
  6  5  2  0  0  0  0
  6 11  1  0  0  0  0
  7  6  1  0  0  0  0
  8  9  1  0  0  0  0
  8  7  2  0  0  0  0
  9  4  2  0  0  0  0
 12 13  1  0  0  0  0
 13 15  1  0  0  0  0
 14 13  2  0  0  0  0
 15 16  1  0  0  0  0
 15  8  1  0  0  0  0
 17  1  1  0  0  0  0
 18 25  1  0  0  0  0
 18 17  1  0  0  0  0
 19 18  2  0  0  0  0
 20 19  1  0  0  0  0
 20 22  1  0  0  0  0
 21 20  2  0  0  0  0
 22 23  1  0  0  0  0
 23 17  1  0  0  0  0
 23 24  2  0  0  0  0
 26 19  1  0  0  0  0
 27 22  1  0  0  0  0
M  END
>  <minimizedAffinity>
-4.86532784

$$$$

 OpenBabel03242515263D

 27 28  0  0  0  0  0  0  0  0999 V2000
   38.4580   32.1790   38.9160 C   0  0  0  0  0  0  0  0  0  0  0  0
   38.4780   31.8200   37.8840 H   0  0  0  0  0  0  0  0  0  0  0  0
   37.6920   32.9890   38.9560 H   0  0  0  0  0  0  0  0  0  0  0  0
   36.6640   31.2290   40.2630 C   0  0  0  0  0  0  0  0  0  0  0  0
   37.9950   31.1330   39.8370 C   0  0  0  0  0  0  0  0  0  0  0  0
   38.7330   30.0760   40.3200 C   0  0  0  0  0  0  0  0  0  0  0  0
   38.1640   29.1910   41.1660 N   0  0  0  0  0  0  0  0  0  0  0  0
   36.8630   29.3290   41.5500 C   0  0  0  0  0  0  0  0  0  0  0  0
   36.0940   30.3390   41.1130 N   0  0  0  0  0  0  0  0  0  0  0  0
   36.0340   32.0400   39.9170 H   0  0  0  0  0  0  0  0  0  0  0  0
   39.7580   30.0100   39.9870 H   0  0  0  0  0  0  0  0  0  0  0  0
   36.8720   27.0510   44.1900 H   0  0  0  0  0  0  0  0  0  0  0  0
   37.0500   27.7660   43.4110 C   0  0  0  0  0  0  0  0  0  0  0  0
   38.3000   28.0310   43.4410 O   0  0  0  0  0  0  0  0  0  0  0  0
   36.2330   28.4140   42.4410 N   0  0  0  0  0  0  0  0  0  0  0  0
   35.2430   28.0970   42.5390 H   0  0  0  0  0  0  0  0  0  0  0  0
   39.7400   32.6830   39.3930 N   0  0  0  0  0  0  0  0  0  0  0  0
   40.8750   32.2120   38.8960 C   0  0  0  0  0  0  0  0  0  0  0  0
   42.0700   32.7360   39.3960 C   0  0  0  0  0  0  0  0  0  0  0  0
   42.0600   33.7010   40.3630 C   0  0  0  0  0  0  0  0  0  0  0  0
   43.1560   34.1600   40.7980 O   0  0  0  0  0  0  0  0  0  0  0  0
   40.8780   34.1610   40.8500 N   0  0  0  0  0  0  0  0  0  0  0  0
   39.7230   33.6510   40.3650 C   0  0  0  0  0  0  0  0  0  0  0  0
   38.6580   34.1220   40.8590 O   0  0  0  0  0  0  0  0  0  0  0  0
   40.8580   31.4460   38.1300 H   0  0  0  0  0  0  0  0  0  0  0  0
   43.0040   32.3630   39.0020 H   0  0  0  0  0  0  0  0  0  0  0  0
   40.9340   34.8930   41.5810 H   0  0  0  0  0  0  0  0  0  0  0  0
  1  3  1  0  0  0  0
  1 17  1  0  0  0  0
  1  5  1  0  0  0  0
  2  1  1  0  0  0  0
  4  9  1  0  0  0  0
  5  4  2  0  0  0  0
  5  6  1  0  0  0  0
  6  7  2  0  0  0  0
  7  8  1  0  0  0  0
  8 15  1  0  0  0  0
  9  8  2  0  0  0  0
 10  4  1  0  0  0  0
 11  6  1  0  0  0  0
 13 14  2  0  0  0  0
 13 12  1  0  0  0  0
 15 16  1  0  0  0  0
 15 13  1  0  0  0  0
 17 23  1  0  0  0  0
 18 17  1  0  0  0  0
 18 19  2  0  0  0  0
 19 20  1  0  0  0  0
 20 21  2  0  0  0  0
 20 22  1  0  0  0  0
 22 27  1  0  0  0  0
 23 22  1  0  0  0  0
 23 24  2  0  0  0  0
 25 18  1  0  0  0  0
 26 19  1  0  0  0  0
M  END
>  <minimizedAffinity>
-4.83824205

$$$$

 OpenBabel03242515263D

 27 28  0  0  0  0  0  0  0  0999 V2000
   37.0230   31.6330   39.3290 C   0  0  0  0  0  0  0  0  0  0  0  0
   36.2130   31.6430   38.5950 H   0  0  0  0  0  0  0  0  0  0  0  0
   36.7520   32.3840   40.1100 H   0  0  0  0  0  0  0  0  0  0  0  0
   36.8860   30.3610   41.4020 C   0  0  0  0  0  0  0  0  0  0  0  0
   37.1050   30.3390   40.0180 C   0  0  0  0  0  0  0  0  0  0  0  0
   37.3740   29.1170   39.4450 C   0  0  0  0  0  0  0  0  0  0  0  0
   37.4170   28.0100   40.2150 N   0  0  0  0  0  0  0  0  0  0  0  0
   37.1960   28.0840   41.5580 C   0  0  0  0  0  0  0  0  0  0  0  0
   36.9300   29.2460   42.1740 N   0  0  0  0  0  0  0  0  0  0  0  0
   36.6710   31.2930   41.9090 H   0  0  0  0  0  0  0  0  0  0  0  0
   37.5420   29.1100   38.3780 H   0  0  0  0  0  0  0  0  0  0  0  0
   38.3310   24.9050   42.4330 H   0  0  0  0  0  0  0  0  0  0  0  0
   38.0950   25.8650   42.0200 C   0  0  0  0  0  0  0  0  0  0  0  0
   38.7890   25.9810   40.9520 O   0  0  0  0  0  0  0  0  0  0  0  0
   37.2340   26.9340   42.3990 N   0  0  0  0  0  0  0  0  0  0  0  0
   36.7360   26.6940   43.2850 H   0  0  0  0  0  0  0  0  0  0  0  0
   38.3330   31.9460   38.7710 N   0  0  0  0  0  0  0  0  0  0  0  0
   39.3350   32.2990   39.5640 C   0  0  0  0  0  0  0  0  0  0  0  0
   40.5650   32.5850   38.9670 C   0  0  0  0  0  0  0  0  0  0  0  0
   40.7220   32.5010   37.6120 C   0  0  0  0  0  0  0  0  0  0  0  0
   41.8460   32.7660   37.0960 O   0  0  0  0  0  0  0  0  0  0  0  0
   39.6730   32.1370   36.8290 N   0  0  0  0  0  0  0  0  0  0  0  0
   38.4830   31.8600   37.4100 C   0  0  0  0  0  0  0  0  0  0  0  0
   37.5470   31.5260   36.6270 O   0  0  0  0  0  0  0  0  0  0  0  0
   39.1860   32.3580   40.6350 H   0  0  0  0  0  0  0  0  0  0  0  0
   41.3930   32.8750   39.5980 H   0  0  0  0  0  0  0  0  0  0  0  0
   39.8520   32.0910   35.8100 H   0  0  0  0  0  0  0  0  0  0  0  0
  1  5  1  0  0  0  0
  1  3  1  0  0  0  0
  2  1  1  0  0  0  0
  4 10  1  0  0  0  0
  4  9  1  0  0  0  0
  5  4  2  0  0  0  0
  6  5  1  0  0  0  0
  6  7  2  0  0  0  0
  7  8  1  0  0  0  0
  8  9  2  0  0  0  0
  8 15  1  0  0  0  0
 11  6  1  0  0  0  0
 13 15  1  0  0  0  0
 13 12  1  0  0  0  0
 14 13  2  0  0  0  0
 15 16  1  0  0  0  0
 17  1  1  0  0  0  0
 17 18  1  0  0  0  0
 18 25  1  0  0  0  0
 19 18  2  0  0  0  0
 19 26  1  0  0  0  0
 20 19  1  0  0  0  0
 21 20  2  0  0  0  0
 22 23  1  0  0  0  0
 22 20  1  0  0  0  0
 23 17  1  0  0  0  0
 24 23  2  0  0  0  0
 27 22  1  0  0  0  0
M  END
>  <minimizedAffinity>
-4.76619959

$$$$

 OpenBabel03242515263D

 27 28  0  0  0  0  0  0  0  0999 V2000
   36.2600   30.8020   41.2190 C   0  0  0  0  0  0  0  0  0  0  0  0
   35.1980   30.5620   41.3250 H   0  0  0  0  0  0  0  0  0  0  0  0
   36.4420   31.7150   41.8350 H   0  0  0  0  0  0  0  0  0  0  0  0
   38.4220   30.1140   42.1070 C   0  0  0  0  0  0  0  0  0  0  0  0
   37.1060   29.7480   41.7920 C   0  0  0  0  0  0  0  0  0  0  0  0
   36.7400   28.4460   42.0470 C   0  0  0  0  0  0  0  0  0  0  0  0
   37.6360   27.5890   42.5790 N   0  0  0  0  0  0  0  0  0  0  0  0
   38.9050   27.9950   42.8680 C   0  0  0  0  0  0  0  0  0  0  0  0
   39.3200   29.2500   42.6420 N   0  0  0  0  0  0  0  0  0  0  0  0
   38.7670   31.1250   41.9290 H   0  0  0  0  0  0  0  0  0  0  0  0
   35.7250   28.1720   41.8000 H   0  0  0  0  0  0  0  0  0  0  0  0
   40.3380   24.8560   43.3680 H   0  0  0  0  0  0  0  0  0  0  0  0
   39.7770   25.7310   43.1080 C   0  0  0  0  0  0  0  0  0  0  0  0
   38.8340   25.3420   42.3380 O   0  0  0  0  0  0  0  0  0  0  0  0
   39.8750   27.1150   43.4290 N   0  0  0  0  0  0  0  0  0  0  0  0
   40.6880   27.2770   44.0630 H   0  0  0  0  0  0  0  0  0  0  0  0
   36.6790   31.0380   39.8430 N   0  0  0  0  0  0  0  0  0  0  0  0
   36.4860   30.1130   38.9130 C   0  0  0  0  0  0  0  0  0  0  0  0
   36.9110   30.4000   37.6140 C   0  0  0  0  0  0  0  0  0  0  0  0
   37.5020   31.5960   37.3190 C   0  0  0  0  0  0  0  0  0  0  0  0
   37.8780   31.8320   36.1340 O   0  0  0  0  0  0  0  0  0  0  0  0
   37.6840   32.5210   38.2970 N   0  0  0  0  0  0  0  0  0  0  0  0
   37.2730   32.2410   39.5550 C   0  0  0  0  0  0  0  0  0  0  0  0
   37.4700   33.1440   40.4180 O   0  0  0  0  0  0  0  0  0  0  0  0
   36.0150   29.1720   39.1710 H   0  0  0  0  0  0  0  0  0  0  0  0
   36.7620   29.6570   36.8440 H   0  0  0  0  0  0  0  0  0  0  0  0
   38.1380   33.4080   38.0140 H   0  0  0  0  0  0  0  0  0  0  0  0
  1  2  1  0  0  0  0
  1  5  1  0  0  0  0
  1  3  1  0  0  0  0
  4  9  1  0  0  0  0
  5  6  1  0  0  0  0
  5  4  2  0  0  0  0
  6  7  2  0  0  0  0
  7  8  1  0  0  0  0
  8 15  1  0  0  0  0
  9  8  2  0  0  0  0
 10  4  1  0  0  0  0
 11  6  1  0  0  0  0
 13 12  1  0  0  0  0
 13 15  1  0  0  0  0
 14 13  2  0  0  0  0
 15 16  1  0  0  0  0
 17  1  1  0  0  0  0
 18 25  1  0  0  0  0
 18 17  1  0  0  0  0
 19 18  2  0  0  0  0
 20 19  1  0  0  0  0
 20 22  1  0  0  0  0
 21 20  2  0  0  0  0
 22 23  1  0  0  0  0
 23 17  1  0  0  0  0
 23 24  2  0  0  0  0
 26 19  1  0  0  0  0
 27 22  1  0  0  0  0
M  END
>  <minimizedAffinity>
-4.76576662

$$$$

 OpenBabel03242515263D

 27 28  0  0  0  0  0  0  0  0999 V2000
   37.0370   26.8420   40.9800 C   0  0  0  0  0  0  0  0  0  0  0  0
   36.1250   26.5610   41.5150 H   0  0  0  0  0  0  0  0  0  0  0  0
   36.9660   26.3760   39.9680 H   0  0  0  0  0  0  0  0  0  0  0  0
   36.1800   29.0690   41.4730 C   0  0  0  0  0  0  0  0  0  0  0  0
   37.1020   28.2920   40.7580 C   0  0  0  0  0  0  0  0  0  0  0  0
   37.9700   28.9590   39.9240 C   0  0  0  0  0  0  0  0  0  0  0  0
   37.9060   30.3030   39.8250 N   0  0  0  0  0  0  0  0  0  0  0  0
   36.9910   31.0140   40.5430 C   0  0  0  0  0  0  0  0  0  0  0  0
   36.1190   30.4200   41.3720 N   0  0  0  0  0  0  0  0  0  0  0  0
   35.4720   28.6000   42.1450 H   0  0  0  0  0  0  0  0  0  0  0  0
   38.6760   28.3520   39.3760 H   0  0  0  0  0  0  0  0  0  0  0  0
   37.2990   34.0620   38.8770 H   0  0  0  0  0  0  0  0  0  0  0  0
   37.2630   33.0500   39.2320 C   0  0  0  0  0  0  0  0  0  0  0  0
   37.6560   32.3130   38.2640 O   0  0  0  0  0  0  0  0  0  0  0  0
   36.8980   32.4330   40.4620 N   0  0  0  0  0  0  0  0  0  0  0  0
   36.6020   33.1590   41.1510 H   0  0  0  0  0  0  0  0  0  0  0  0
   38.2660   26.4170   41.6390 N   0  0  0  0  0  0  0  0  0  0  0  0
   38.5090   26.7630   42.8960 C   0  0  0  0  0  0  0  0  0  0  0  0
   39.7050   26.3240   43.4700 C   0  0  0  0  0  0  0  0  0  0  0  0
   40.5870   25.5650   42.7540 C   0  0  0  0  0  0  0  0  0  0  0  0
   41.6630   25.1800   43.2970 O   0  0  0  0  0  0  0  0  0  0  0  0
   40.3060   25.2290   41.4690 N   0  0  0  0  0  0  0  0  0  0  0  0
   39.1470   25.6550   40.9140 C   0  0  0  0  0  0  0  0  0  0  0  0
   38.9440   25.3080   39.7150 O   0  0  0  0  0  0  0  0  0  0  0  0
   37.7940   27.3660   43.4420 H   0  0  0  0  0  0  0  0  0  0  0  0
   39.9190   26.5980   44.4930 H   0  0  0  0  0  0  0  0  0  0  0  0
   41.0120   24.6520   40.9770 H   0  0  0  0  0  0  0  0  0  0  0  0
  1  2  1  0  0  0  0
  1 17  1  0  0  0  0
  3  1  1  0  0  0  0
  4 10  1  0  0  0  0
  5  1  1  0  0  0  0
  5  4  2  0  0  0  0
  6  5  1  0  0  0  0
  7  6  2  0  0  0  0
  7  8  1  0  0  0  0
  8  9  2  0  0  0  0
  9  4  1  0  0  0  0
 11  6  1  0  0  0  0
 12 13  1  0  0  0  0
 13 15  1  0  0  0  0
 14 13  2  0  0  0  0
 15  8  1  0  0  0  0
 15 16  1  0  0  0  0
 17 18  1  0  0  0  0
 18 25  1  0  0  0  0
 18 19  2  0  0  0  0
 19 26  1  0  0  0  0
 20 21  2  0  0  0  0
 20 19  1  0  0  0  0
 22 20  1  0  0  0  0
 23 22  1  0  0  0  0
 23 17  1  0  0  0  0
 24 23  2  0  0  0  0
 27 22  1  0  0  0  0
M  END
>  <minimizedAffinity>
-4.65252876

$$$$
