
 OpenBabel03252509353D

 40 41  0  0  1  0  0  0  0  0999 V2000
   44.5450   35.4600   44.1800 O   0  0  0  0  0  0  0  0  0  0  0  0
   45.4080   34.2330   44.3970 P   0  0  1  0  0  0  0  0  0  0  0  0
   44.7050   32.8780   43.6660 O   0  0  0  0  0  0  0  0  0  0  0  0
   44.3810   33.0640   42.7450 H   0  0  0  0  0  0  0  0  0  0  0  0
   46.9070   34.5310   43.7200 O   0  0  0  0  0  0  0  0  0  0  0  0
   47.0260   33.8330   42.5110 C   0  0  1  0  0  0  0  0  0  0  0  0
   46.4410   34.6700   41.3710 C   0  0  0  0  0  0  0  0  0  0  0  0
   46.9350   33.9010   40.1760 C   0  0  0  0  0  0  0  0  0  0  0  0
   48.2190   33.2150   40.6180 C   0  0  0  0  0  0  0  0  0  0  0  0
   48.4400   33.6860   42.0470 C   0  0  1  0  0  0  0  0  0  0  0  0
   46.4950   32.8850   42.4920 H   0  0  0  0  0  0  0  0  0  0  0  0
   45.3130   34.6800   41.4210 H   0  0  0  0  0  0  0  0  0  0  0  0
   46.7440   35.7130   41.3840 H   0  0  0  0  0  0  0  0  0  0  0  0
   46.1480   33.1890   39.8850 H   0  0  0  0  0  0  0  0  0  0  0  0
   47.1360   34.6250   39.3510 H   0  0  0  0  0  0  0  0  0  0  0  0
   47.9950   32.1300   40.6680 H   0  0  0  0  0  0  0  0  0  0  0  0
   49.0670   33.4670   39.9590 H   0  0  0  0  0  0  0  0  0  0  0  0
   48.9000   32.8650   42.6340 H   0  0  0  0  0  0  0  0  0  0  0  0
   49.2150   34.9710   42.0960 C   0  0  0  0  0  0  0  0  0  0  0  0
   49.9070   34.9790   41.2070 H   0  0  0  0  0  0  0  0  0  0  0  0
   48.6100   35.8870   42.0600 H   0  0  0  0  0  0  0  0  0  0  0  0
   50.0040   35.0710   43.2230 O   0  0  0  0  0  0  0  0  0  0  0  0
   50.6580   35.7880   43.1230 H   0  0  0  0  0  0  0  0  0  0  0  0
   45.5460   33.8890   46.0230 O   0  0  0  0  0  0  0  0  0  0  0  0
   46.4340   32.8690   46.1860 C   0  0  0  0  0  0  0  0  0  0  0  0
   47.3900   33.3380   46.5600 H   0  0  0  0  0  0  0  0  0  0  0  0
   46.7240   32.2960   45.3100 H   0  0  0  0  0  0  0  0  0  0  0  0
   45.2580   31.5130   49.4510 C   0  0  0  0  0  0  0  0  0  0  0  0
   45.6520   32.4370   48.4690 C   0  0  0  0  0  0  0  0  0  0  0  0
   46.0150   31.9180   47.2340 C   0  0  0  0  0  0  0  0  0  0  0  0
   45.9720   30.5590   47.0290 N   0  0  0  0  0  0  0  0  0  0  0  0
   45.5880   29.6960   47.9900 C   0  0  0  0  0  0  0  0  0  0  0  0
   45.2350   30.1730   49.1900 N   0  0  0  0  0  0  0  0  0  0  0  0
   44.9590   31.8270   50.4430 H   0  0  0  0  0  0  0  0  0  0  0  0
   45.6640   33.4770   48.6890 H   0  0  0  0  0  0  0  0  0  0  0  0
   47.0060   26.6640   47.1750 H   0  0  0  0  0  0  0  0  0  0  0  0
   46.8020   27.7080   47.3980 C   0  0  0  0  0  0  0  0  0  0  0  0
   47.8620   28.3990   47.2990 O   0  0  0  0  0  0  0  0  0  0  0  0
   45.5530   28.2920   47.7560 N   0  0  0  0  0  0  0  0  0  0  0  0
   44.7340   27.6160   47.8070 H   0  0  0  0  0  0  0  0  0  0  0  0
  2  1  2  6  0  0  0
  2 24  1  0  0  0  0
  3  2  1  0  0  0  0
  4  3  1  0  0  0  0
  5  2  1  0  0  0  0
  6 11  1  1  0  0  0
  6  5  1  0  0  0  0
  7 13  1  0  0  0  0
  7 12  1  0  0  0  0
  7  6  1  0  0  0  0
  8  9  1  0  0  0  0
  8  7  1  0  0  0  0
  9 16  1  0  0  0  0
  9 10  1  0  0  0  0
 10 19  1  0  0  0  0
 10  6  1  0  0  0  0
 10 18  1  1  0  0  0
 14  8  1  0  0  0  0
 15  8  1  0  0  0  0
 17  9  1  0  0  0  0
 19 22  1  0  0  0  0
 20 19  1  0  0  0  0
 21 19  1  0  0  0  0
 23 22  1  0  0  0  0
 24 25  1  0  0  0  0
 25 26  1  0  0  0  0
 25 30  1  0  0  0  0
 27 25  1  0  0  0  0
 28 34  1  0  0  0  0
 29 35  1  0  0  0  0
 29 28  2  0  0  0  0
 30 29  1  0  0  0  0
 31 30  2  0  0  0  0
 31 32  1  0  0  0  0
 32 33  2  0  0  0  0
 33 28  1  0  0  0  0
 36 37  1  0  0  0  0
 37 39  1  0  0  0  0
 38 37  2  0  0  0  0
 39 40  1  0  0  0  0
 39 32  1  0  0  0  0
M  END
>  <minimizedAffinity>
-5.78266287

>  <minimizedRMSD>
0.758402109

$$$$
