
 OpenBabel03242513553D

 30 32  0  0  0  0  0  0  0  0999 V2000
   44.3020   34.9010   41.3290 C   0  0  0  0  0  0  0  0  0  0  0  0
   44.5560   34.0300   40.3000 C   0  0  0  0  0  0  0  0  0  0  0  0
   43.5640   33.7130   39.3880 C   0  0  0  0  0  0  0  0  0  0  0  0
   42.3000   34.2580   39.4840 C   0  0  0  0  0  0  0  0  0  0  0  0
   41.3830   33.9150   38.5750 N   0  0  0  0  0  0  0  0  0  0  0  0
   40.1390   34.4200   38.6260 C   0  0  0  0  0  0  0  0  0  0  0  0
   39.8420   35.2960   39.6400 C   0  0  0  0  0  0  0  0  0  0  0  0
   40.7900   35.6710   40.6070 C   0  0  0  0  0  0  0  0  0  0  0  0
   42.0660   35.1310   40.5240 C   0  0  0  0  0  0  0  0  0  0  0  0
   43.0440   35.4660   41.4540 C   0  0  0  0  0  0  0  0  0  0  0  0
   45.5540   33.6490   40.2880 H   0  0  0  0  0  0  0  0  0  0  0  0
   43.8390   33.0180   38.6030 H   0  0  0  0  0  0  0  0  0  0  0  0
   39.3490   34.1970   37.9410 H   0  0  0  0  0  0  0  0  0  0  0  0
   38.9000   35.7680   39.8000 H   0  0  0  0  0  0  0  0  0  0  0  0
   40.5780   36.3610   41.4160 H   0  0  0  0  0  0  0  0  0  0  0  0
   42.7380   36.1490   42.2070 H   0  0  0  0  0  0  0  0  0  0  0  0
   45.1840   35.3200   42.3190 O   0  0  0  0  0  0  0  0  0  0  0  0
   44.5300   35.8090   44.6350 C   0  0  0  0  0  0  0  0  0  0  0  0
   45.0950   34.9780   43.6570 C   0  0  0  0  0  0  0  0  0  0  0  0
   45.5890   33.7410   44.0670 C   0  0  0  0  0  0  0  0  0  0  0  0
   45.4990   33.4140   45.3690 N   0  0  0  0  0  0  0  0  0  0  0  0
   44.9510   34.2310   46.2920 C   0  0  0  0  0  0  0  0  0  0  0  0
   44.4640   35.4420   45.9080 N   0  0  0  0  0  0  0  0  0  0  0  0
   44.1440   36.7680   44.3300 H   0  0  0  0  0  0  0  0  0  0  0  0
   46.0230   33.0990   43.3170 H   0  0  0  0  0  0  0  0  0  0  0  0
   45.7290   31.6960   48.4140 H   0  0  0  0  0  0  0  0  0  0  0  0
   45.5760   32.3630   47.5750 C   0  0  0  0  0  0  0  0  0  0  0  0
   46.0580   31.6940   46.6340 O   0  0  0  0  0  0  0  0  0  0  0  0
   44.9720   33.6640   47.5960 N   0  0  0  0  0  0  0  0  0  0  0  0
   44.6470   33.9950   48.5300 H   0  0  0  0  0  0  0  0  0  0  0  0
  1 10  1  0  0  0  0
  1 17  1  0  0  0  0
  2  1  2  0  0  0  0
  3  4  2  0  0  0  0
  3  2  1  0  0  0  0
  4  9  1  0  0  0  0
  5  6  2  0  0  0  0
  5  4  1  0  0  0  0
  6  7  1  0  0  0  0
  7 14  1  0  0  0  0
  7  8  2  0  0  0  0
  8 15  1  0  0  0  0
  9  8  1  0  0  0  0
  9 10  2  0  0  0  0
 10 16  1  0  0  0  0
 11  2  1  0  0  0  0
 12  3  1  0  0  0  0
 13  6  1  0  0  0  0
 17 19  1  0  0  0  0
 18 23  1  0  0  0  0
 19 20  1  0  0  0  0
 19 18  2  0  0  0  0
 20 21  2  0  0  0  0
 21 22  1  0  0  0  0
 22 29  1  0  0  0  0
 23 22  2  0  0  0  0
 24 18  1  0  0  0  0
 25 20  1  0  0  0  0
 27 29  1  0  0  0  0
 27 26  1  0  0  0  0
 28 27  2  0  0  0  0
 29 30  1  0  0  0  0
M  END
>  <minimizedAffinity>
-6.4788847

>  <minimizedRMSD>
1.3060962

$$$$
