
 OpenBabel03252508203D

 30 31  0  0  0  0  0  0  0  0999 V2000
   44.3040   33.6070   41.2900 C   0  0  0  0  0  0  0  0  0  0  0  0
   43.7210   34.2790   41.9780 H   0  0  0  0  0  0  0  0  0  0  0  0
   44.1310   32.5830   41.6270 H   0  0  0  0  0  0  0  0  0  0  0  0
   45.6990   34.0740   41.3550 C   0  0  0  0  0  0  0  0  0  0  0  0
   46.5930   34.1150   40.3180 C   0  0  0  0  0  0  0  0  0  0  0  0
   47.8930   34.5640   40.4370 C   0  0  0  0  0  0  0  0  0  0  0  0
   48.3060   35.0000   41.6920 C   0  0  0  0  0  0  0  0  0  0  0  0
   47.4290   34.9700   42.7520 C   0  0  0  0  0  0  0  0  0  0  0  0
   46.1510   34.5170   42.5920 C   0  0  0  0  0  0  0  0  0  0  0  0
   46.2360   33.7700   39.3600 H   0  0  0  0  0  0  0  0  0  0  0  0
   48.5100   34.5520   39.5520 H   0  0  0  0  0  0  0  0  0  0  0  0
   49.3330   35.3540   41.7840 H   0  0  0  0  0  0  0  0  0  0  0  0
   47.8000   35.3190   43.7040 H   0  0  0  0  0  0  0  0  0  0  0  0
   44.1660   36.2210   44.7420 H   0  0  0  0  0  0  0  0  0  0  0  0
   44.8260   35.8540   43.9500 C   0  0  0  0  0  0  0  0  0  0  0  0
   45.1720   36.7330   43.1200 O   0  0  0  0  0  0  0  0  0  0  0  0
   45.3270   34.5290   43.7550 N   0  0  0  0  0  0  0  0  0  0  0  0
   45.0130   33.8400   44.4680 H   0  0  0  0  0  0  0  0  0  0  0  0
   43.7240   33.8980   39.9040 C   0  0  0  0  0  0  0  0  0  0  0  0
   43.6240   32.9880   39.3090 H   0  0  0  0  0  0  0  0  0  0  0  0
   44.4050   34.6530   39.4510 H   0  0  0  0  0  0  0  0  0  0  0  0
   40.9040   35.9830   41.3080 C   0  0  0  0  0  0  0  0  0  0  0  0
   42.1820   35.3700   41.2050 C   0  0  0  0  0  0  0  0  0  0  0  0
   42.4120   34.5800   40.0920 C   0  0  0  0  0  0  0  0  0  0  0  0
   41.4090   34.4340   39.1610 N   0  0  0  0  0  0  0  0  0  0  0  0
   40.2190   35.0360   39.3070 C   0  0  0  0  0  0  0  0  0  0  0  0
   39.9640   35.8140   40.3850 N   0  0  0  0  0  0  0  0  0  0  0  0
   40.8310   36.5830   42.2230 H   0  0  0  0  0  0  0  0  0  0  0  0
   42.9560   35.4970   41.9470 H   0  0  0  0  0  0  0  0  0  0  0  0
   39.4200   34.9310   38.5840 H   0  0  0  0  0  0  0  0  0  0  0  0
  1  4  1  0  0  0  0
  1  3  1  0  0  0  0
  1  2  1  0  0  0  0
  4  9  1  0  0  0  0
  5  6  1  0  0  0  0
  5  4  2  0  0  0  0
  6  7  2  0  0  0  0
  7 12  1  0  0  0  0
  7  8  1  0  0  0  0
  8 13  1  0  0  0  0
  9  8  2  0  0  0  0
  9 17  1  0  0  0  0
 10  5  1  0  0  0  0
 11  6  1  0  0  0  0
 15 14  1  0  0  0  0
 16 15  2  0  0  0  0
 17 15  1  0  0  0  0
 17 18  1  0  0  0  0
 19 24  1  0  0  0  0
 19  1  1  0  0  0  0
 20 19  1  0  0  0  0
 21 19  1  0  0  0  0
 22 28  1  0  0  0  0
 23 22  1  0  0  0  0
 23 29  1  0  0  0  0
 24 23  2  0  0  0  0
 25 26  2  0  0  0  0
 25 24  1  0  0  0  0
 26 27  1  0  0  0  0
 27 22  2  0  0  0  0
 30 26  1  0  0  0  0
M  END
>  <minimizedAffinity>
-4.82225704

>  <minimizedRMSD>
1.59666252

$$$$
