
 OpenBabel03242516183D

 24 25  0  0  0  0  0  0  0  0999 V2000
   45.9640   32.7230   46.9440 C   0  0  0  0  0  0  0  0  0  0  0  0
   47.0920   31.9180   46.9740 C   0  0  0  0  0  0  0  0  0  0  0  0
   47.3060   31.0400   48.0230 C   0  0  0  0  0  0  0  0  0  0  0  0
   46.4170   30.9340   49.0630 C   0  0  0  0  0  0  0  0  0  0  0  0
   45.3030   31.7190   49.0470 C   0  0  0  0  0  0  0  0  0  0  0  0
   45.0790   32.6040   47.9990 C   0  0  0  0  0  0  0  0  0  0  0  0
   47.7670   32.0310   46.1380 H   0  0  0  0  0  0  0  0  0  0  0  0
   46.6720   30.2260   49.8250 H   0  0  0  0  0  0  0  0  0  0  0  0
   44.6050   31.6330   49.8690 H   0  0  0  0  0  0  0  0  0  0  0  0
   44.1880   33.2070   48.0230 H   0  0  0  0  0  0  0  0  0  0  0  0
   44.5840   35.5100   45.0390 C   0  0  0  0  0  0  0  0  0  0  0  0
   45.2520   35.4420   43.8070 C   0  0  0  0  0  0  0  0  0  0  0  0
   46.1950   34.4140   43.6320 C   0  0  0  0  0  0  0  0  0  0  0  0
   46.4120   33.5480   44.6510 N   0  0  0  0  0  0  0  0  0  0  0  0
   45.7410   33.6510   45.8340 C   0  0  0  0  0  0  0  0  0  0  0  0
   44.8230   34.6370   46.0270 N   0  0  0  0  0  0  0  0  0  0  0  0
   43.8540   36.3070   45.1730 H   0  0  0  0  0  0  0  0  0  0  0  0
   45.0730   36.1410   42.9900 H   0  0  0  0  0  0  0  0  0  0  0  0
   46.7480   34.2970   42.7110 H   0  0  0  0  0  0  0  0  0  0  0  0
   50.4620   30.0480   48.7210 H   0  0  0  0  0  0  0  0  0  0  0  0
   49.5520   30.6350   48.8310 C   0  0  0  0  0  0  0  0  0  0  0  0
   49.2020   31.5700   49.6080 O   0  0  0  0  0  0  0  0  0  0  0  0
   48.5190   30.2810   47.9000 N   0  0  0  0  0  0  0  0  0  0  0  0
   48.5600   29.5460   47.1610 H   0  0  0  0  0  0  0  0  0  0  0  0
  1  2  2  0  0  0  0
  1  6  1  0  0  0  0
  2  3  1  0  0  0  0
  3  4  2  0  0  0  0
  4  8  1  0  0  0  0
  5  4  1  0  0  0  0
  5  9  1  0  0  0  0
  6 10  1  0  0  0  0
  6  5  2  0  0  0  0
  7  2  1  0  0  0  0
 11 17  1  0  0  0  0
 11 16  1  0  0  0  0
 12 11  2  0  0  0  0
 13 12  1  0  0  0  0
 13 14  2  0  0  0  0
 14 15  1  0  0  0  0
 15 16  2  0  0  0  0
 15  1  1  0  0  0  0
 18 12  1  0  0  0  0
 19 13  1  0  0  0  0
 20 21  1  0  0  0  0
 21 22  2  0  0  0  0
 23  3  1  0  0  0  0
 23 21  1  0  0  0  0
 24 23  1  0  0  0  0
M  END
>  <minimizedAffinity>
-4.97438526

>  <minimizedRMSD>
0.295746654

$$$$
