
 OpenBabel03252509353D

 40 41  0  0  1  0  0  0  0  0999 V2000
   44.5030   35.4960   44.0220 O   0  0  0  0  0  0  0  0  0  0  0  0
   45.3380   34.2760   44.3580 P   0  0  1  0  0  0  0  0  0  0  0  0
   44.6600   32.8870   43.6670 O   0  0  0  0  0  0  0  0  0  0  0  0
   44.3890   33.0220   42.7200 H   0  0  0  0  0  0  0  0  0  0  0  0
   46.8750   34.5210   43.7490 O   0  0  0  0  0  0  0  0  0  0  0  0
   47.0180   33.8320   42.5380 C   0  0  1  0  0  0  0  0  0  0  0  0
   46.4400   34.6700   41.3940 C   0  0  0  0  0  0  0  0  0  0  0  0
   46.9590   33.9150   40.2010 C   0  0  0  0  0  0  0  0  0  0  0  0
   48.2450   33.2400   40.6570 C   0  0  0  0  0  0  0  0  0  0  0  0
   48.4410   33.7040   42.0920 C   0  0  1  0  0  0  0  0  0  0  0  0
   46.4990   32.8780   42.5050 H   0  0  0  0  0  0  0  0  0  0  0  0
   45.3110   34.6670   41.4290 H   0  0  0  0  0  0  0  0  0  0  0  0
   46.7310   35.7160   41.4180 H   0  0  0  0  0  0  0  0  0  0  0  0
   46.1840   33.1950   39.8960 H   0  0  0  0  0  0  0  0  0  0  0  0
   47.1640   34.6470   39.3850 H   0  0  0  0  0  0  0  0  0  0  0  0
   48.0320   32.1520   40.6960 H   0  0  0  0  0  0  0  0  0  0  0  0
   49.0990   33.5060   40.0110 H   0  0  0  0  0  0  0  0  0  0  0  0
   48.9020   32.8840   42.6800 H   0  0  0  0  0  0  0  0  0  0  0  0
   49.2010   34.9970   42.1600 C   0  0  0  0  0  0  0  0  0  0  0  0
   49.8550   35.0490   41.2450 H   0  0  0  0  0  0  0  0  0  0  0  0
   48.5830   35.9050   42.1830 H   0  0  0  0  0  0  0  0  0  0  0  0
   50.0330   35.0650   43.2570 O   0  0  0  0  0  0  0  0  0  0  0  0
   50.6730   35.7950   43.1600 H   0  0  0  0  0  0  0  0  0  0  0  0
   45.3820   34.0250   46.0050 O   0  0  0  0  0  0  0  0  0  0  0  0
   46.4000   33.1680   46.2960 C   0  0  0  0  0  0  0  0  0  0  0  0
   47.0900   33.7230   46.9970 H   0  0  0  0  0  0  0  0  0  0  0  0
   47.0350   32.8310   45.4820 H   0  0  0  0  0  0  0  0  0  0  0  0
   45.1130   31.0080   49.0460 C   0  0  0  0  0  0  0  0  0  0  0  0
   45.5440   32.1550   48.3580 C   0  0  0  0  0  0  0  0  0  0  0  0
   45.9420   31.9790   47.0400 C   0  0  0  0  0  0  0  0  0  0  0  0
   45.8970   30.7240   46.4790 N   0  0  0  0  0  0  0  0  0  0  0  0
   45.4780   29.6410   47.1630 C   0  0  0  0  0  0  0  0  0  0  0  0
   45.0910   29.7870   48.4360 N   0  0  0  0  0  0  0  0  0  0  0  0
   44.7860   31.0510   50.0770 H   0  0  0  0  0  0  0  0  0  0  0  0
   45.5570   33.0980   48.8480 H   0  0  0  0  0  0  0  0  0  0  0  0
   44.8640   26.2520   47.1620 H   0  0  0  0  0  0  0  0  0  0  0  0
   44.9750   27.3040   47.4080 C   0  0  0  0  0  0  0  0  0  0  0  0
   44.6230   27.5180   48.6090 O   0  0  0  0  0  0  0  0  0  0  0  0
   45.4400   28.3520   46.5610 N   0  0  0  0  0  0  0  0  0  0  0  0
   45.7060   28.0540   45.5770 H   0  0  0  0  0  0  0  0  0  0  0  0
  2  1  2  6  0  0  0
  2 24  1  0  0  0  0
  3  2  1  0  0  0  0
  4  3  1  0  0  0  0
  5  2  1  0  0  0  0
  6 11  1  1  0  0  0
  6  5  1  0  0  0  0
  7 13  1  0  0  0  0
  7 12  1  0  0  0  0
  7  6  1  0  0  0  0
  8  9  1  0  0  0  0
  8  7  1  0  0  0  0
  9 16  1  0  0  0  0
  9 10  1  0  0  0  0
 10 19  1  0  0  0  0
 10  6  1  0  0  0  0
 10 18  1  1  0  0  0
 14  8  1  0  0  0  0
 15  8  1  0  0  0  0
 17  9  1  0  0  0  0
 19 21  1  0  0  0  0
 19 22  1  0  0  0  0
 20 19  1  0  0  0  0
 23 22  1  0  0  0  0
 24 25  1  0  0  0  0
 25 26  1  0  0  0  0
 25 30  1  0  0  0  0
 27 25  1  0  0  0  0
 28 34  1  0  0  0  0
 29 35  1  0  0  0  0
 29 28  2  0  0  0  0
 30 29  1  0  0  0  0
 31 30  2  0  0  0  0
 31 32  1  0  0  0  0
 32 33  2  0  0  0  0
 33 28  1  0  0  0  0
 36 37  1  0  0  0  0
 37 38  2  0  0  0  0
 39 32  1  0  0  0  0
 39 37  1  0  0  0  0
 40 39  1  0  0  0  0
M  END
>  <minimizedAffinity>
-5.75791454

>  <minimizedRMSD>
1.18072391

$$$$
