
 OpenBabel03252500413D

 24 25  0  0  1  0  0  0  0  0999 V2000
   47.3710   34.0360   42.5870 C   0  0  0  0  0  0  0  0  0  0  0  0
   48.3560   33.7810   43.0640 H   0  0  0  0  0  0  0  0  0  0  0  0
   47.0420   33.0880   42.0730 H   0  0  0  0  0  0  0  0  0  0  0  0
   46.4220   34.3630   43.6660 C   0  0  0  0  0  0  0  0  0  0  0  0
   45.6000   35.4420   43.4110 C   0  0  0  0  0  0  0  0  0  0  0  0
   44.6610   35.8610   44.3540 C   0  0  0  0  0  0  0  0  0  0  0  0
   44.6170   35.1420   45.5120 N   0  0  0  0  0  0  0  0  0  0  0  0
   45.4300   34.0800   45.7510 C   0  0  0  0  0  0  0  0  0  0  0  0
   46.3220   33.7020   44.8300 N   0  0  0  0  0  0  0  0  0  0  0  0
   45.4530   36.1380   42.5970 H   0  0  0  0  0  0  0  0  0  0  0  0
   43.9440   36.6390   44.3810 H   0  0  0  0  0  0  0  0  0  0  0  0
   45.3950   33.5190   46.6570 H   0  0  0  0  0  0  0  0  0  0  0  0
   47.5450   35.1460   41.6080 C   0  0  1  0  0  0  0  0  0  0  0  0
   48.9480   35.7230   41.4900 C   0  0  0  0  0  0  0  0  0  0  0  0
   48.3820   34.8370   40.4120 C   0  0  1  0  0  0  0  0  0  0  0  0
   46.7760   35.8990   41.3860 H   0  0  0  0  0  0  0  0  0  0  0  0
   49.0890   36.7970   41.2580 H   0  0  0  0  0  0  0  0  0  0  0  0
   49.7170   35.3440   42.1880 H   0  0  0  0  0  0  0  0  0  0  0  0
   48.1270   35.2720   39.4260 H   0  0  0  0  0  0  0  0  0  0  0  0
   49.1530   31.6750   39.2620 H   0  0  0  0  0  0  0  0  0  0  0  0
   48.6840   32.6480   39.2940 C   0  0  0  0  0  0  0  0  0  0  0  0
   47.8700   32.9770   38.3940 O   0  0  0  0  0  0  0  0  0  0  0  0
   49.0170   33.5340   40.3780 N   0  0  0  0  0  0  0  0  0  0  0  0
   49.6950   33.2230   41.1010 H   0  0  0  0  0  0  0  0  0  0  0  0
  1  2  1  0  0  0  0
  1  4  1  0  0  0  0
  3  1  1  0  0  0  0
  4  9  1  0  0  0  0
  5  4  2  0  0  0  0
  5  6  1  0  0  0  0
  6 11  1  0  0  0  0
  6  7  2  0  0  0  0
  7  8  1  0  0  0  0
  8 12  1  0  0  0  0
  9  8  2  0  0  0  0
 10  5  1  0  0  0  0
 13 16  1  6  0  0  0
 13  1  1  0  0  0  0
 14 13  1  0  0  0  0
 14 18  1  0  0  0  0
 15 19  1  6  0  0  0
 15 14  1  0  0  0  0
 15 13  1  0  0  0  0
 17 14  1  0  0  0  0
 20 21  1  0  0  0  0
 21 23  1  0  0  0  0
 22 21  2  0  0  0  0
 23 15  1  0  0  0  0
 23 24  1  0  0  0  0
M  END
>  <minimizedAffinity>
-4.43582916

>  <minimizedRMSD>
0.503580034

$$$$
