
 OpenBabel03242515083D

 24 25  0  0  0  0  0  0  0  0999 V2000
   36.2950   27.8480   40.1920 C   0  0  0  0  0  0  0  0  0  0  0  0
   36.2510   26.9010   39.1870 C   0  0  0  0  0  0  0  0  0  0  0  0
   35.4380   27.0460   38.0710 C   0  0  0  0  0  0  0  0  0  0  0  0
   34.6410   28.1730   37.9460 C   0  0  0  0  0  0  0  0  0  0  0  0
   34.6720   29.1210   38.9280 C   0  0  0  0  0  0  0  0  0  0  0  0
   35.4930   28.9480   40.0320 C   0  0  0  0  0  0  0  0  0  0  0  0
   36.8510   25.9900   39.2210 H   0  0  0  0  0  0  0  0  0  0  0  0
   35.4150   26.3000   37.3000 H   0  0  0  0  0  0  0  0  0  0  0  0
   34.0170   28.2570   37.0610 H   0  0  0  0  0  0  0  0  0  0  0  0
   34.0610   30.0070   38.8540 H   0  0  0  0  0  0  0  0  0  0  0  0
   37.3570   27.6290   43.6800 C   0  0  0  0  0  0  0  0  0  0  0  0
   38.7200   27.3320   43.6080 C   0  0  0  0  0  0  0  0  0  0  0  0
   39.2830   27.2040   42.3370 C   0  0  0  0  0  0  0  0  0  0  0  0
   38.4940   27.3720   41.2310 N   0  0  0  0  0  0  0  0  0  0  0  0
   37.1620   27.6630   41.3530 C   0  0  0  0  0  0  0  0  0  0  0  0
   36.6080   27.7890   42.5800 N   0  0  0  0  0  0  0  0  0  0  0  0
   36.9480   27.7220   44.6890 H   0  0  0  0  0  0  0  0  0  0  0  0
   39.3700   27.1920   44.4650 H   0  0  0  0  0  0  0  0  0  0  0  0
   40.3390   26.9720   42.1840 H   0  0  0  0  0  0  0  0  0  0  0  0
   36.4080   32.0150   41.4550 H   0  0  0  0  0  0  0  0  0  0  0  0
   36.2640   31.1290   40.8530 C   0  0  0  0  0  0  0  0  0  0  0  0
   37.0820   31.8230   40.2020 O   0  0  0  0  0  0  0  0  0  0  0  0
   35.4780   29.9750   41.0200 N   0  0  0  0  0  0  0  0  0  0  0  0
   34.9250   30.0040   41.9260 H   0  0  0  0  0  0  0  0  0  0  0  0
  1 15  1  0  0  0  0
  2  7  1  0  0  0  0
  2  1  2  0  0  0  0
  3  2  1  0  0  0  0
  4  3  2  0  0  0  0
  4  5  1  0  0  0  0
  5  6  2  0  0  0  0
  6  1  1  0  0  0  0
  6 23  1  0  0  0  0
  8  3  1  0  0  0  0
  9  4  1  0  0  0  0
 10  5  1  0  0  0  0
 11 17  1  0  0  0  0
 12 11  1  0  0  0  0
 12 18  1  0  0  0  0
 13 12  2  0  0  0  0
 14 15  2  0  0  0  0
 14 13  1  0  0  0  0
 15 16  1  0  0  0  0
 16 11  2  0  0  0  0
 19 13  1  0  0  0  0
 21 23  1  0  0  0  0
 21 20  1  0  0  0  0
 22 21  2  0  0  0  0
 23 24  1  0  0  0  0
M  END
>  <minimizedAffinity>
-4.69093323

$$$$

 OpenBabel03242515083D

 24 25  0  0  0  0  0  0  0  0999 V2000
   36.8360   30.7480   39.7690 C   0  0  0  0  0  0  0  0  0  0  0  0
   36.4420   30.4880   38.4700 C   0  0  0  0  0  0  0  0  0  0  0  0
   35.5630   29.4600   38.1570 C   0  0  0  0  0  0  0  0  0  0  0  0
   35.0550   28.6610   39.1700 C   0  0  0  0  0  0  0  0  0  0  0  0
   35.4320   28.9030   40.4590 C   0  0  0  0  0  0  0  0  0  0  0  0
   36.3120   29.9360   40.7420 C   0  0  0  0  0  0  0  0  0  0  0  0
   36.8030   31.0760   37.6250 H   0  0  0  0  0  0  0  0  0  0  0  0
   35.2680   29.2710   37.1420 H   0  0  0  0  0  0  0  0  0  0  0  0
   34.3700   27.8650   38.8920 H   0  0  0  0  0  0  0  0  0  0  0  0
   35.0510   28.2960   41.2650 H   0  0  0  0  0  0  0  0  0  0  0  0
   38.1690   34.1380   40.0430 C   0  0  0  0  0  0  0  0  0  0  0  0
   39.4450   33.9650   40.5830 C   0  0  0  0  0  0  0  0  0  0  0  0
   39.8540   32.6590   40.8590 C   0  0  0  0  0  0  0  0  0  0  0  0
   39.0050   31.6180   40.5930 N   0  0  0  0  0  0  0  0  0  0  0  0
   37.7630   31.8380   40.0620 C   0  0  0  0  0  0  0  0  0  0  0  0
   37.3590   33.1000   39.7930 N   0  0  0  0  0  0  0  0  0  0  0  0
   37.8800   35.1720   39.8400 H   0  0  0  0  0  0  0  0  0  0  0  0
   40.1380   34.7690   40.8050 H   0  0  0  0  0  0  0  0  0  0  0  0
   40.8330   32.4280   41.2820 H   0  0  0  0  0  0  0  0  0  0  0  0
   37.8490   29.1350   43.7860 H   0  0  0  0  0  0  0  0  0  0  0  0
   37.4650   29.1920   42.7770 C   0  0  0  0  0  0  0  0  0  0  0  0
   38.1210   28.1220   42.8050 O   0  0  0  0  0  0  0  0  0  0  0  0
   36.6640   30.1350   42.1080 N   0  0  0  0  0  0  0  0  0  0  0  0
   36.3960   30.9430   42.7430 H   0  0  0  0  0  0  0  0  0  0  0  0
  1 15  1  0  0  0  0
  1  6  1  0  0  0  0
  2  1  2  0  0  0  0
  3  2  1  0  0  0  0
  3  4  2  0  0  0  0
  4  5  1  0  0  0  0
  5  6  2  0  0  0  0
  5 10  1  0  0  0  0
  6 23  1  0  0  0  0
  7  2  1  0  0  0  0
  8  3  1  0  0  0  0
  9  4  1  0  0  0  0
 11 12  1  0  0  0  0
 12 18  1  0  0  0  0
 12 13  2  0  0  0  0
 13 19  1  0  0  0  0
 14 13  1  0  0  0  0
 15 14  2  0  0  0  0
 16 11  2  0  0  0  0
 16 15  1  0  0  0  0
 17 11  1  0  0  0  0
 21 22  2  0  0  0  0
 21 20  1  0  0  0  0
 23 24  1  0  0  0  0
 23 21  1  0  0  0  0
M  END
>  <minimizedAffinity>
-4.68307638

$$$$

 OpenBabel03242515083D

 24 25  0  0  0  0  0  0  0  0999 V2000
   38.6620   29.6310   41.9480 C   0  0  0  0  0  0  0  0  0  0  0  0
   39.6720   28.8780   42.5160 C   0  0  0  0  0  0  0  0  0  0  0  0
   39.4090   27.7990   43.3480 C   0  0  0  0  0  0  0  0  0  0  0  0
   38.0960   27.4540   43.6280 C   0  0  0  0  0  0  0  0  0  0  0  0
   37.0850   28.1850   43.0760 C   0  0  0  0  0  0  0  0  0  0  0  0
   37.3780   29.2590   42.2490 C   0  0  0  0  0  0  0  0  0  0  0  0
   40.7270   29.0940   42.3390 H   0  0  0  0  0  0  0  0  0  0  0  0
   40.2060   27.2250   43.7820 H   0  0  0  0  0  0  0  0  0  0  0  0
   37.9240   26.6050   44.2840 H   0  0  0  0  0  0  0  0  0  0  0  0
   36.0550   27.9370   43.2790 H   0  0  0  0  0  0  0  0  0  0  0  0
   39.0480   31.6080   38.9010 C   0  0  0  0  0  0  0  0  0  0  0  0
   39.5370   32.8380   39.3460 C   0  0  0  0  0  0  0  0  0  0  0  0
   39.7380   32.9900   40.7200 C   0  0  0  0  0  0  0  0  0  0  0  0
   39.4530   31.9480   41.5610 N   0  0  0  0  0  0  0  0  0  0  0  0
   38.9750   30.7600   41.0750 C   0  0  0  0  0  0  0  0  0  0  0  0
   38.7780   30.6050   39.7470 N   0  0  0  0  0  0  0  0  0  0  0  0
   38.9020   31.5240   37.8210 H   0  0  0  0  0  0  0  0  0  0  0  0
   39.7710   33.6810   38.7050 H   0  0  0  0  0  0  0  0  0  0  0  0
   40.1160   33.9150   41.1590 H   0  0  0  0  0  0  0  0  0  0  0  0
   34.6770   29.7960   40.0840 H   0  0  0  0  0  0  0  0  0  0  0  0
   35.5310   29.4390   40.6410 C   0  0  0  0  0  0  0  0  0  0  0  0
   35.2970   28.5310   39.8070 O   0  0  0  0  0  0  0  0  0  0  0  0
   36.2760   29.9800   41.7050 N   0  0  0  0  0  0  0  0  0  0  0  0
   35.9040   30.9300   42.0010 H   0  0  0  0  0  0  0  0  0  0  0  0
  1  6  2  0  0  0  0
  1  2  1  0  0  0  0
  2  3  2  0  0  0  0
  3  4  1  0  0  0  0
  3  8  1  0  0  0  0
  4  9  1  0  0  0  0
  5 10  1  0  0  0  0
  5  4  2  0  0  0  0
  6  5  1  0  0  0  0
  7  2  1  0  0  0  0
 11 12  2  0  0  0  0
 11 16  1  0  0  0  0
 12 13  1  0  0  0  0
 13 19  1  0  0  0  0
 13 14  2  0  0  0  0
 15 14  1  0  0  0  0
 15  1  1  0  0  0  0
 16 15  2  0  0  0  0
 17 11  1  0  0  0  0
 18 12  1  0  0  0  0
 20 21  1  0  0  0  0
 21 23  1  0  0  0  0
 22 21  2  0  0  0  0
 23 24  1  0  0  0  0
 23  6  1  0  0  0  0
M  END
>  <minimizedAffinity>
-4.470963

$$$$

 OpenBabel03242515083D

 24 25  0  0  0  0  0  0  0  0999 V2000
   36.1970   27.7320   39.9830 C   0  0  0  0  0  0  0  0  0  0  0  0
   36.7640   26.4820   40.1350 C   0  0  0  0  0  0  0  0  0  0  0  0
   37.2040   26.0150   41.3650 C   0  0  0  0  0  0  0  0  0  0  0  0
   37.0750   26.8180   42.4880 C   0  0  0  0  0  0  0  0  0  0  0  0
   36.5160   28.0560   42.3590 C   0  0  0  0  0  0  0  0  0  0  0  0
   36.0870   28.4960   41.1160 C   0  0  0  0  0  0  0  0  0  0  0  0
   36.8970   25.7980   39.2940 H   0  0  0  0  0  0  0  0  0  0  0  0
   37.6430   25.0400   41.4660 H   0  0  0  0  0  0  0  0  0  0  0  0
   37.4280   26.4230   43.4370 H   0  0  0  0  0  0  0  0  0  0  0  0
   36.4050   28.7000   43.2170 H   0  0  0  0  0  0  0  0  0  0  0  0
   33.9690   28.9270   37.3470 C   0  0  0  0  0  0  0  0  0  0  0  0
   34.7970   29.0690   36.2320 C   0  0  0  0  0  0  0  0  0  0  0  0
   36.1470   28.7490   36.3890 C   0  0  0  0  0  0  0  0  0  0  0  0
   36.5980   28.3160   37.6070 N   0  0  0  0  0  0  0  0  0  0  0  0
   35.7450   28.1920   38.6720 C   0  0  0  0  0  0  0  0  0  0  0  0
   34.4370   28.5000   38.5270 N   0  0  0  0  0  0  0  0  0  0  0  0
   32.9190   29.1860   37.1890 H   0  0  0  0  0  0  0  0  0  0  0  0
   34.4700   29.4110   35.2560 H   0  0  0  0  0  0  0  0  0  0  0  0
   36.8680   28.8300   35.5740 H   0  0  0  0  0  0  0  0  0  0  0  0
   36.1320   31.9910   40.8810 H   0  0  0  0  0  0  0  0  0  0  0  0
   36.3390   30.9320   40.9450 C   0  0  0  0  0  0  0  0  0  0  0  0
   37.4700   31.4710   40.8680 O   0  0  0  0  0  0  0  0  0  0  0  0
   35.5130   29.7990   41.0500 N   0  0  0  0  0  0  0  0  0  0  0  0
   34.4840   30.0630   41.0690 H   0  0  0  0  0  0  0  0  0  0  0  0
  1  2  2  0  0  0  0
  1  6  1  0  0  0  0
  2  3  1  0  0  0  0
  3  8  1  0  0  0  0
  3  4  2  0  0  0  0
  4  9  1  0  0  0  0
  5  4  1  0  0  0  0
  5 10  1  0  0  0  0
  6  5  2  0  0  0  0
  7  2  1  0  0  0  0
 11 16  1  0  0  0  0
 12 13  1  0  0  0  0
 12 11  2  0  0  0  0
 13 14  2  0  0  0  0
 14 15  1  0  0  0  0
 15  1  1  0  0  0  0
 16 15  2  0  0  0  0
 17 11  1  0  0  0  0
 18 12  1  0  0  0  0
 19 13  1  0  0  0  0
 20 21  1  0  0  0  0
 21 23  1  0  0  0  0
 22 21  2  0  0  0  0
 23 24  1  0  0  0  0
 23  6  1  0  0  0  0
M  END
>  <minimizedAffinity>
-4.46263266

$$$$

 OpenBabel03242515083D

 24 25  0  0  0  0  0  0  0  0999 V2000
   38.1380   30.5340   41.2970 C   0  0  0  0  0  0  0  0  0  0  0  0
   39.3170   31.2230   41.0880 C   0  0  0  0  0  0  0  0  0  0  0  0
   39.3460   32.4710   40.4820 C   0  0  0  0  0  0  0  0  0  0  0  0
   38.1600   33.0590   40.0690 C   0  0  0  0  0  0  0  0  0  0  0  0
   36.9850   32.3950   40.2670 C   0  0  0  0  0  0  0  0  0  0  0  0
   36.9870   31.1480   40.8740 C   0  0  0  0  0  0  0  0  0  0  0  0
   40.2860   30.8200   41.3880 H   0  0  0  0  0  0  0  0  0  0  0  0
   40.2710   32.9930   40.3270 H   0  0  0  0  0  0  0  0  0  0  0  0
   38.2170   34.0370   39.5980 H   0  0  0  0  0  0  0  0  0  0  0  0
   36.0490   32.8310   39.9540 H   0  0  0  0  0  0  0  0  0  0  0  0
   38.8930   27.0110   41.8910 C   0  0  0  0  0  0  0  0  0  0  0  0
   38.2170   26.7070   43.0750 C   0  0  0  0  0  0  0  0  0  0  0  0
   37.4880   27.7330   43.6800 C   0  0  0  0  0  0  0  0  0  0  0  0
   37.4650   28.9730   43.1010 N   0  0  0  0  0  0  0  0  0  0  0  0
   38.1440   29.2220   41.9380 C   0  0  0  0  0  0  0  0  0  0  0  0
   38.8520   28.2340   41.3460 N   0  0  0  0  0  0  0  0  0  0  0  0
   39.4530   26.1860   41.4450 H   0  0  0  0  0  0  0  0  0  0  0  0
   38.2180   25.7350   43.5570 H   0  0  0  0  0  0  0  0  0  0  0  0
   36.9300   27.5880   44.6060 H   0  0  0  0  0  0  0  0  0  0  0  0
   34.3170   29.0640   39.9820 H   0  0  0  0  0  0  0  0  0  0  0  0
   35.2260   29.6450   40.0610 C   0  0  0  0  0  0  0  0  0  0  0  0
   35.3200   29.0620   38.9540 O   0  0  0  0  0  0  0  0  0  0  0  0
   35.7260   30.5090   41.0520 N   0  0  0  0  0  0  0  0  0  0  0  0
   35.0600   30.5920   41.8750 H   0  0  0  0  0  0  0  0  0  0  0  0
  1 15  1  0  0  0  0
  2  1  1  0  0  0  0
  2  7  1  0  0  0  0
  3  2  2  0  0  0  0
  4  5  2  0  0  0  0
  4  3  1  0  0  0  0
  5  6  1  0  0  0  0
  6 23  1  0  0  0  0
  6  1  2  0  0  0  0
  8  3  1  0  0  0  0
  9  4  1  0  0  0  0
 10  5  1  0  0  0  0
 11 12  1  0  0  0  0
 12 18  1  0  0  0  0
 12 13  2  0  0  0  0
 13 19  1  0  0  0  0
 14 13  1  0  0  0  0
 15 14  2  0  0  0  0
 16 11  2  0  0  0  0
 16 15  1  0  0  0  0
 17 11  1  0  0  0  0
 20 21  1  0  0  0  0
 21 23  1  0  0  0  0
 22 21  2  0  0  0  0
 23 24  1  0  0  0  0
M  END
>  <minimizedAffinity>
-4.44110394

$$$$

 OpenBabel03242515083D

 24 25  0  0  0  0  0  0  0  0999 V2000
   36.6770   27.2280   40.4660 C   0  0  0  0  0  0  0  0  0  0  0  0
   36.2490   27.1500   39.1550 C   0  0  0  0  0  0  0  0  0  0  0  0
   35.4200   28.1100   38.5910 C   0  0  0  0  0  0  0  0  0  0  0  0
   35.0020   29.1870   39.3550 C   0  0  0  0  0  0  0  0  0  0  0  0
   35.4140   29.2830   40.6520 C   0  0  0  0  0  0  0  0  0  0  0  0
   36.2410   28.3080   41.1890 C   0  0  0  0  0  0  0  0  0  0  0  0
   36.5400   26.3290   38.4970 H   0  0  0  0  0  0  0  0  0  0  0  0
   35.0960   28.0330   37.5700 H   0  0  0  0  0  0  0  0  0  0  0  0
   34.3530   29.9210   38.8840 H   0  0  0  0  0  0  0  0  0  0  0  0
   35.1020   30.1120   41.2670 H   0  0  0  0  0  0  0  0  0  0  0  0
   37.7550   24.0190   41.8390 C   0  0  0  0  0  0  0  0  0  0  0  0
   39.1170   24.1920   42.0940 C   0  0  0  0  0  0  0  0  0  0  0  0
   39.6750   25.4350   41.7870 C   0  0  0  0  0  0  0  0  0  0  0  0
   38.8810   26.4170   41.2590 N   0  0  0  0  0  0  0  0  0  0  0  0
   37.5490   26.1990   41.0280 C   0  0  0  0  0  0  0  0  0  0  0  0
   37.0010   24.9990   41.3220 N   0  0  0  0  0  0  0  0  0  0  0  0
   37.3510   23.0360   42.0900 H   0  0  0  0  0  0  0  0  0  0  0  0
   39.7720   23.4340   42.5100 H   0  0  0  0  0  0  0  0  0  0  0  0
   40.7310   25.6610   41.9510 H   0  0  0  0  0  0  0  0  0  0  0  0
   38.1910   29.5600   43.8160 H   0  0  0  0  0  0  0  0  0  0  0  0
   37.7250   29.2950   42.8770 C   0  0  0  0  0  0  0  0  0  0  0  0
   38.6570   30.0720   42.5580 O   0  0  0  0  0  0  0  0  0  0  0  0
   36.6360   28.4670   42.5490 N   0  0  0  0  0  0  0  0  0  0  0  0
   36.2030   28.0260   43.4130 H   0  0  0  0  0  0  0  0  0  0  0  0
  1 15  1  0  0  0  0
  1  6  1  0  0  0  0
  2  1  2  0  0  0  0
  3  2  1  0  0  0  0
  3  4  2  0  0  0  0
  4  5  1  0  0  0  0
  5  6  2  0  0  0  0
  5 10  1  0  0  0  0
  6 23  1  0  0  0  0
  7  2  1  0  0  0  0
  8  3  1  0  0  0  0
  9  4  1  0  0  0  0
 11 17  1  0  0  0  0
 11 12  1  0  0  0  0
 12 18  1  0  0  0  0
 13 19  1  0  0  0  0
 13 12  2  0  0  0  0
 14 13  1  0  0  0  0
 15 14  2  0  0  0  0
 15 16  1  0  0  0  0
 16 11  2  0  0  0  0
 21 20  1  0  0  0  0
 22 21  2  0  0  0  0
 23 21  1  0  0  0  0
 23 24  1  0  0  0  0
M  END
>  <minimizedAffinity>
-4.37986183

$$$$

 OpenBabel03242515083D

 24 25  0  0  0  0  0  0  0  0999 V2000
   38.2020   31.4400   40.8730 C   0  0  0  0  0  0  0  0  0  0  0  0
   37.1790   31.8830   40.0560 C   0  0  0  0  0  0  0  0  0  0  0  0
   37.1340   33.1810   39.5670 C   0  0  0  0  0  0  0  0  0  0  0  0
   38.1420   34.0730   39.8990 C   0  0  0  0  0  0  0  0  0  0  0  0
   39.1610   33.6550   40.7040 C   0  0  0  0  0  0  0  0  0  0  0  0
   39.1790   32.3520   41.1790 C   0  0  0  0  0  0  0  0  0  0  0  0
   36.3550   31.2340   39.7560 H   0  0  0  0  0  0  0  0  0  0  0  0
   36.3310   33.5080   38.9340 H   0  0  0  0  0  0  0  0  0  0  0  0
   38.0770   35.0820   39.5000 H   0  0  0  0  0  0  0  0  0  0  0  0
   39.9570   34.3300   40.9770 H   0  0  0  0  0  0  0  0  0  0  0  0
   37.1730   28.4290   42.6660 C   0  0  0  0  0  0  0  0  0  0  0  0
   38.1610   27.4910   42.3620 C   0  0  0  0  0  0  0  0  0  0  0  0
   39.2000   27.9010   41.5240 C   0  0  0  0  0  0  0  0  0  0  0  0
   39.2110   29.1830   41.0430 N   0  0  0  0  0  0  0  0  0  0  0  0
   38.2180   30.0670   41.3710 C   0  0  0  0  0  0  0  0  0  0  0  0
   37.2090   29.6780   42.1810 N   0  0  0  0  0  0  0  0  0  0  0  0
   36.3750   28.0750   43.3230 H   0  0  0  0  0  0  0  0  0  0  0  0
   38.1800   26.4690   42.7260 H   0  0  0  0  0  0  0  0  0  0  0  0
   40.0160   27.2370   41.2310 H   0  0  0  0  0  0  0  0  0  0  0  0
   42.5380   31.7090   41.9340 H   0  0  0  0  0  0  0  0  0  0  0  0
   41.5800   31.9530   41.4980 C   0  0  0  0  0  0  0  0  0  0  0  0
   42.4010   32.1050   40.5610 O   0  0  0  0  0  0  0  0  0  0  0  0
   40.2720   31.9800   42.0150 N   0  0  0  0  0  0  0  0  0  0  0  0
   40.2480   31.7010   43.0390 H   0  0  0  0  0  0  0  0  0  0  0  0
  1  6  1  0  0  0  0
  1 15  1  0  0  0  0
  2  1  2  0  0  0  0
  3  4  2  0  0  0  0
  3  2  1  0  0  0  0
  4  5  1  0  0  0  0
  5 10  1  0  0  0  0
  5  6  2  0  0  0  0
  6 23  1  0  0  0  0
  7  2  1  0  0  0  0
  8  3  1  0  0  0  0
  9  4  1  0  0  0  0
 11 17  1  0  0  0  0
 12 11  1  0  0  0  0
 12 18  1  0  0  0  0
 13 12  2  0  0  0  0
 14 15  2  0  0  0  0
 14 13  1  0  0  0  0
 15 16  1  0  0  0  0
 16 11  2  0  0  0  0
 19 13  1  0  0  0  0
 21 20  1  0  0  0  0
 21 23  1  0  0  0  0
 22 21  2  0  0  0  0
 23 24  1  0  0  0  0
M  END
>  <minimizedAffinity>
-4.27454329

$$$$

 OpenBabel03242515083D

 24 25  0  0  0  0  0  0  0  0999 V2000
   36.7650   27.0910   40.3690 C   0  0  0  0  0  0  0  0  0  0  0  0
   36.8660   25.7570   40.0250 C   0  0  0  0  0  0  0  0  0  0  0  0
   36.9740   24.7550   40.9790 C   0  0  0  0  0  0  0  0  0  0  0  0
   36.9820   25.0880   42.3240 C   0  0  0  0  0  0  0  0  0  0  0  0
   36.8830   26.4010   42.6840 C   0  0  0  0  0  0  0  0  0  0  0  0
   36.7760   27.3810   41.7090 C   0  0  0  0  0  0  0  0  0  0  0  0
   36.8660   25.4230   38.9860 H   0  0  0  0  0  0  0  0  0  0  0  0
   37.0530   23.7220   40.6940 H   0  0  0  0  0  0  0  0  0  0  0  0
   37.0690   24.2810   43.0460 H   0  0  0  0  0  0  0  0  0  0  0  0
   36.8870   26.6860   43.7240 H   0  0  0  0  0  0  0  0  0  0  0  0
   37.6830   29.8590   38.1700 C   0  0  0  0  0  0  0  0  0  0  0  0
   36.5350   30.0930   37.4090 C   0  0  0  0  0  0  0  0  0  0  0  0
   35.4250   29.2830   37.6570 C   0  0  0  0  0  0  0  0  0  0  0  0
   35.5030   28.3100   38.6180 N   0  0  0  0  0  0  0  0  0  0  0  0
   36.6520   28.1200   39.3380 C   0  0  0  0  0  0  0  0  0  0  0  0
   37.7310   28.9000   39.1040 N   0  0  0  0  0  0  0  0  0  0  0  0
   38.5320   30.5100   37.9500 H   0  0  0  0  0  0  0  0  0  0  0  0
   36.4440   30.8530   36.6420 H   0  0  0  0  0  0  0  0  0  0  0  0
   34.4860   29.3910   37.1120 H   0  0  0  0  0  0  0  0  0  0  0  0
   37.9510   30.3770   43.0910 H   0  0  0  0  0  0  0  0  0  0  0  0
   37.7960   29.3820   42.6990 C   0  0  0  0  0  0  0  0  0  0  0  0
   39.0010   29.3990   43.0490 O   0  0  0  0  0  0  0  0  0  0  0  0
   36.6760   28.7310   42.1520 N   0  0  0  0  0  0  0  0  0  0  0  0
   35.8240   29.3660   42.1300 H   0  0  0  0  0  0  0  0  0  0  0  0
  1  6  1  0  0  0  0
  2  1  2  0  0  0  0
  2  3  1  0  0  0  0
  3  4  2  0  0  0  0
  4  5  1  0  0  0  0
  4  9  1  0  0  0  0
  5 10  1  0  0  0  0
  6 23  1  0  0  0  0
  6  5  2  0  0  0  0
  7  2  1  0  0  0  0
  8  3  1  0  0  0  0
 11 16  1  0  0  0  0
 12 13  1  0  0  0  0
 12 11  2  0  0  0  0
 13 14  2  0  0  0  0
 14 15  1  0  0  0  0
 15  1  1  0  0  0  0
 16 15  2  0  0  0  0
 17 11  1  0  0  0  0
 18 12  1  0  0  0  0
 19 13  1  0  0  0  0
 21 22  2  0  0  0  0
 21 20  1  0  0  0  0
 23 21  1  0  0  0  0
 24 23  1  0  0  0  0
M  END
>  <minimizedAffinity>
-4.24746275

$$$$

 OpenBabel03242515083D

 24 25  0  0  0  0  0  0  0  0999 V2000
   38.2850   27.1330   42.0440 C   0  0  0  0  0  0  0  0  0  0  0  0
   39.0290   27.2160   43.2050 C   0  0  0  0  0  0  0  0  0  0  0  0
   39.7800   26.1490   43.6790 C   0  0  0  0  0  0  0  0  0  0  0  0
   39.7940   24.9560   42.9750 C   0  0  0  0  0  0  0  0  0  0  0  0
   39.0660   24.8530   41.8250 C   0  0  0  0  0  0  0  0  0  0  0  0
   38.3250   25.9360   41.3760 C   0  0  0  0  0  0  0  0  0  0  0  0
   39.0630   28.1250   43.8090 H   0  0  0  0  0  0  0  0  0  0  0  0
   40.3520   26.2310   44.5850 H   0  0  0  0  0  0  0  0  0  0  0  0
   40.3910   24.1400   43.3730 H   0  0  0  0  0  0  0  0  0  0  0  0
   39.0600   23.9350   41.2600 H   0  0  0  0  0  0  0  0  0  0  0  0
   37.4370   30.5710   41.1490 C   0  0  0  0  0  0  0  0  0  0  0  0
   36.1160   30.4960   40.7030 C   0  0  0  0  0  0  0  0  0  0  0  0
   35.5060   29.2400   40.7090 C   0  0  0  0  0  0  0  0  0  0  0  0
   36.2120   28.1510   41.1450 N   0  0  0  0  0  0  0  0  0  0  0  0
   37.5070   28.2760   41.5740 C   0  0  0  0  0  0  0  0  0  0  0  0
   38.1050   29.4880   41.5700 N   0  0  0  0  0  0  0  0  0  0  0  0
   37.8830   31.5680   41.1300 H   0  0  0  0  0  0  0  0  0  0  0  0
   35.5310   31.3390   40.3510 H   0  0  0  0  0  0  0  0  0  0  0  0
   34.4770   29.0850   40.3780 H   0  0  0  0  0  0  0  0  0  0  0  0
   35.9480   24.4450   39.2790 H   0  0  0  0  0  0  0  0  0  0  0  0
   36.6130   24.7540   40.0740 C   0  0  0  0  0  0  0  0  0  0  0  0
   35.9640   23.7950   40.5600 O   0  0  0  0  0  0  0  0  0  0  0  0
   37.5880   25.7630   40.1690 N   0  0  0  0  0  0  0  0  0  0  0  0
   37.6670   26.3190   39.2680 H   0  0  0  0  0  0  0  0  0  0  0  0
  1  2  1  0  0  0  0
  2  3  2  0  0  0  0
  2  7  1  0  0  0  0
  3  8  1  0  0  0  0
  4  9  1  0  0  0  0
  4  3  1  0  0  0  0
  5  4  2  0  0  0  0
  6  5  1  0  0  0  0
  6  1  2  0  0  0  0
 10  5  1  0  0  0  0
 11 16  1  0  0  0  0
 12 13  1  0  0  0  0
 12 11  2  0  0  0  0
 13 14  2  0  0  0  0
 14 15  1  0  0  0  0
 15  1  1  0  0  0  0
 16 15  2  0  0  0  0
 17 11  1  0  0  0  0
 18 12  1  0  0  0  0
 19 13  1  0  0  0  0
 20 21  1  0  0  0  0
 21 23  1  0  0  0  0
 21 22  2  0  0  0  0
 23  6  1  0  0  0  0
 24 23  1  0  0  0  0
M  END
>  <minimizedAffinity>
-4.22972488

$$$$
