
 OpenBabel03252500423D

 24 25  0  0  1  0  0  0  0  0999 V2000
   38.8950   27.9260   43.3020 C   0  0  0  0  0  0  0  0  0  0  0  0
   38.7250   28.2790   44.3550 H   0  0  0  0  0  0  0  0  0  0  0  0
   39.1240   28.8620   42.7150 H   0  0  0  0  0  0  0  0  0  0  0  0
   40.0780   27.0490   43.3080 C   0  0  0  0  0  0  0  0  0  0  0  0
   39.8440   25.7510   42.9010 C   0  0  0  0  0  0  0  0  0  0  0  0
   40.8790   24.8170   42.8690 C   0  0  0  0  0  0  0  0  0  0  0  0
   42.1060   25.2710   43.2560 N   0  0  0  0  0  0  0  0  0  0  0  0
   42.3250   26.5510   43.6530 C   0  0  0  0  0  0  0  0  0  0  0  0
   41.3140   27.4250   43.6760 N   0  0  0  0  0  0  0  0  0  0  0  0
   38.9930   25.1810   42.5580 H   0  0  0  0  0  0  0  0  0  0  0  0
   40.9380   23.7940   42.6010 H   0  0  0  0  0  0  0  0  0  0  0  0
   43.2840   26.9050   43.9560 H   0  0  0  0  0  0  0  0  0  0  0  0
   37.6720   27.2510   42.7810 C   0  0  1  0  0  0  0  0  0  0  0  0
   36.3970   27.4590   43.5850 C   0  0  0  0  0  0  0  0  0  0  0  0
   36.6000   28.1500   42.2620 C   0  0  1  0  0  0  0  0  0  0  0  0
   37.6760   26.2800   42.2670 H   0  0  0  0  0  0  0  0  0  0  0  0
   35.6380   26.6550   43.6380 H   0  0  0  0  0  0  0  0  0  0  0  0
   36.4770   28.0190   44.5350 H   0  0  0  0  0  0  0  0  0  0  0  0
   35.9920   27.8450   41.3890 H   0  0  0  0  0  0  0  0  0  0  0  0
   36.5620   31.5010   41.4370 H   0  0  0  0  0  0  0  0  0  0  0  0
   36.4060   30.4370   41.3340 C   0  0  0  0  0  0  0  0  0  0  0  0
   35.8770   29.9850   40.2870 O   0  0  0  0  0  0  0  0  0  0  0  0
   36.8140   29.5760   42.4120 N   0  0  0  0  0  0  0  0  0  0  0  0
   37.2480   29.9910   43.2600 H   0  0  0  0  0  0  0  0  0  0  0  0
  1  4  1  0  0  0  0
  1  2  1  0  0  0  0
  3  1  1  0  0  0  0
  4  9  1  0  0  0  0
  5  4  2  0  0  0  0
  6  5  1  0  0  0  0
  6  7  2  0  0  0  0
  7  8  1  0  0  0  0
  8  9  2  0  0  0  0
  8 12  1  0  0  0  0
 10  5  1  0  0  0  0
 11  6  1  0  0  0  0
 13 16  1  6  0  0  0
 13  1  1  0  0  0  0
 13 14  1  0  0  0  0
 14 17  1  0  0  0  0
 14 18  1  0  0  0  0
 15 19  1  6  0  0  0
 15 23  1  0  0  0  0
 15 13  1  0  0  0  0
 15 14  1  0  0  0  0
 21 20  1  0  0  0  0
 21 23  1  0  0  0  0
 22 21  2  0  0  0  0
 23 24  1  0  0  0  0
M  END
>  <minimizedAffinity>
-4.00388575

$$$$

 OpenBabel03252500423D

 24 25  0  0  1  0  0  0  0  0999 V2000
   36.6620   30.6920   40.8650 C   0  0  0  0  0  0  0  0  0  0  0  0
   35.5910   30.5930   40.5420 H   0  0  0  0  0  0  0  0  0  0  0  0
   36.6880   31.6220   41.5030 H   0  0  0  0  0  0  0  0  0  0  0  0
   36.9900   29.5200   41.6950 C   0  0  0  0  0  0  0  0  0  0  0  0
   38.1560   29.6310   42.4260 C   0  0  0  0  0  0  0  0  0  0  0  0
   38.5850   28.5880   43.2470 C   0  0  0  0  0  0  0  0  0  0  0  0
   37.7860   27.4820   43.2730 N   0  0  0  0  0  0  0  0  0  0  0  0
   36.6400   27.3840   42.5500 C   0  0  0  0  0  0  0  0  0  0  0  0
   36.2540   28.4000   41.7710 N   0  0  0  0  0  0  0  0  0  0  0  0
   38.9220   30.3800   42.5660 H   0  0  0  0  0  0  0  0  0  0  0  0
   39.4200   28.4480   43.8810 H   0  0  0  0  0  0  0  0  0  0  0  0
   36.0170   26.5200   42.5710 H   0  0  0  0  0  0  0  0  0  0  0  0
   37.5490   30.8310   39.6760 C   0  0  1  0  0  0  0  0  0  0  0  0
   37.0550   31.7570   38.5740 C   0  0  0  0  0  0  0  0  0  0  0  0
   38.1810   32.1690   39.4850 C   0  0  1  0  0  0  0  0  0  0  0  0
   38.1760   30.0210   39.2760 H   0  0  0  0  0  0  0  0  0  0  0  0
   37.2970   31.5390   37.5160 H   0  0  0  0  0  0  0  0  0  0  0  0
   36.0460   32.1940   38.6880 H   0  0  0  0  0  0  0  0  0  0  0  0
   39.2090   32.2470   39.0800 H   0  0  0  0  0  0  0  0  0  0  0  0
   38.5090   34.9400   41.5160 H   0  0  0  0  0  0  0  0  0  0  0  0
   38.7930   34.1580   40.8270 C   0  0  0  0  0  0  0  0  0  0  0  0
   39.9780   34.0940   40.4120 O   0  0  0  0  0  0  0  0  0  0  0  0
   37.7900   33.2150   40.4090 N   0  0  0  0  0  0  0  0  0  0  0  0
   36.8220   33.3040   40.7760 H   0  0  0  0  0  0  0  0  0  0  0  0
  1  3  1  0  0  0  0
  1  4  1  0  0  0  0
  2  1  1  0  0  0  0
  4  9  2  0  0  0  0
  4  5  1  0  0  0  0
  5 10  1  0  0  0  0
  5  6  2  0  0  0  0
  6  7  1  0  0  0  0
  6 11  1  0  0  0  0
  8 12  1  0  0  0  0
  8  7  2  0  0  0  0
  9  8  1  0  0  0  0
 13 16  1  6  0  0  0
 13  1  1  0  0  0  0
 14 18  1  0  0  0  0
 14 15  1  0  0  0  0
 14 13  1  0  0  0  0
 15 19  1  6  0  0  0
 15 13  1  0  0  0  0
 15 23  1  0  0  0  0
 17 14  1  0  0  0  0
 21 20  1  0  0  0  0
 22 21  2  0  0  0  0
 23 24  1  0  0  0  0
 23 21  1  0  0  0  0
M  END
>  <minimizedAffinity>
-3.93681788

$$$$

 OpenBabel03252500423D

 24 25  0  0  1  0  0  0  0  0999 V2000
   36.8320   29.0380   41.7400 C   0  0  0  0  0  0  0  0  0  0  0  0
   35.7660   29.2860   41.9930 H   0  0  0  0  0  0  0  0  0  0  0  0
   36.7700   28.3890   40.8200 H   0  0  0  0  0  0  0  0  0  0  0  0
   37.5190   30.2980   41.4040 C   0  0  0  0  0  0  0  0  0  0  0  0
   36.7870   31.1700   40.6240 C   0  0  0  0  0  0  0  0  0  0  0  0
   37.3240   32.3960   40.2300 C   0  0  0  0  0  0  0  0  0  0  0  0
   38.5910   32.6590   40.6640 N   0  0  0  0  0  0  0  0  0  0  0  0
   39.3010   31.7940   41.4330 C   0  0  0  0  0  0  0  0  0  0  0  0
   38.7610   30.6260   41.7950 N   0  0  0  0  0  0  0  0  0  0  0  0
   35.8020   31.1840   40.1800 H   0  0  0  0  0  0  0  0  0  0  0  0
   36.9630   33.2040   39.6490 H   0  0  0  0  0  0  0  0  0  0  0  0
   40.2900   32.0000   41.7710 H   0  0  0  0  0  0  0  0  0  0  0  0
   37.4740   28.3090   42.8700 C   0  0  1  0  0  0  0  0  0  0  0  0
   36.5660   27.3940   43.6800 C   0  0  0  0  0  0  0  0  0  0  0  0
   37.5760   26.8270   42.7170 C   0  0  1  0  0  0  0  0  0  0  0  0
   38.2920   28.7140   43.4810 H   0  0  0  0  0  0  0  0  0  0  0  0
   36.7460   27.2530   44.7630 H   0  0  0  0  0  0  0  0  0  0  0  0
   35.4880   27.3960   43.4340 H   0  0  0  0  0  0  0  0  0  0  0  0
   38.4590   26.2870   43.1090 H   0  0  0  0  0  0  0  0  0  0  0  0
   36.5930   24.3840   40.4870 H   0  0  0  0  0  0  0  0  0  0  0  0
   37.0540   24.8240   41.3600 C   0  0  0  0  0  0  0  0  0  0  0  0
   37.6570   24.0890   42.1820 O   0  0  0  0  0  0  0  0  0  0  0  0
   36.9540   26.2480   41.5430 N   0  0  0  0  0  0  0  0  0  0  0  0
   36.4460   26.8180   40.8390 H   0  0  0  0  0  0  0  0  0  0  0  0
  1  2  1  0  0  0  0
  1 13  1  0  0  0  0
  3  1  1  0  0  0  0
  4  1  1  0  0  0  0
  4  9  1  0  0  0  0
  5  4  2  0  0  0  0
  6  5  1  0  0  0  0
  6  7  2  0  0  0  0
  7  8  1  0  0  0  0
  8 12  1  0  0  0  0
  8  9  2  0  0  0  0
 10  5  1  0  0  0  0
 11  6  1  0  0  0  0
 13 16  1  1  0  0  0
 13 14  1  0  0  0  0
 14 17  1  0  0  0  0
 15 13  1  0  0  0  0
 15 19  1  1  0  0  0
 15 14  1  0  0  0  0
 18 14  1  0  0  0  0
 20 21  1  0  0  0  0
 21 23  1  0  0  0  0
 21 22  2  0  0  0  0
 23 15  1  0  0  0  0
 24 23  1  0  0  0  0
M  END
>  <minimizedAffinity>
-3.88544226

$$$$

 OpenBabel03252500423D

 24 25  0  0  1  0  0  0  0  0999 V2000
   36.8810   28.8830   42.0490 C   0  0  0  0  0  0  0  0  0  0  0  0
   35.9920   28.8930   42.7360 H   0  0  0  0  0  0  0  0  0  0  0  0
   37.3970   29.8700   42.2250 H   0  0  0  0  0  0  0  0  0  0  0  0
   37.7650   27.7840   42.4750 C   0  0  0  0  0  0  0  0  0  0  0  0
   37.4810   26.5560   41.9110 C   0  0  0  0  0  0  0  0  0  0  0  0
   38.2380   25.4310   42.2360 C   0  0  0  0  0  0  0  0  0  0  0  0
   39.2530   25.6310   43.1260 N   0  0  0  0  0  0  0  0  0  0  0  0
   39.5240   26.8450   43.6730 C   0  0  0  0  0  0  0  0  0  0  0  0
   38.7800   27.9060   43.3440 N   0  0  0  0  0  0  0  0  0  0  0  0
   36.7600   26.1670   41.2070 H   0  0  0  0  0  0  0  0  0  0  0  0
   38.2090   24.4150   41.9410 H   0  0  0  0  0  0  0  0  0  0  0  0
   40.3160   27.0000   44.3690 H   0  0  0  0  0  0  0  0  0  0  0  0
   36.4340   28.7560   40.6330 C   0  0  1  0  0  0  0  0  0  0  0  0
   34.9970   29.1640   40.3420 C   0  0  0  0  0  0  0  0  0  0  0  0
   36.1500   30.0360   39.9200 C   0  0  1  0  0  0  0  0  0  0  0  0
   36.7820   27.9730   39.9440 H   0  0  0  0  0  0  0  0  0  0  0  0
   34.4230   28.6440   39.5510 H   0  0  0  0  0  0  0  0  0  0  0  0
   34.3620   29.4430   41.2020 H   0  0  0  0  0  0  0  0  0  0  0  0
   36.3890   30.1390   38.8430 H   0  0  0  0  0  0  0  0  0  0  0  0
   37.3740   33.0830   40.9810 H   0  0  0  0  0  0  0  0  0  0  0  0
   37.3020   32.1730   40.4030 C   0  0  0  0  0  0  0  0  0  0  0  0
   38.1390   31.9470   39.4930 O   0  0  0  0  0  0  0  0  0  0  0  0
   36.2380   31.2530   40.7020 N   0  0  0  0  0  0  0  0  0  0  0  0
   35.5670   31.4780   41.4630 H   0  0  0  0  0  0  0  0  0  0  0  0
  1  3  1  0  0  0  0
  1  4  1  0  0  0  0
  1  2  1  0  0  0  0
  4  9  1  0  0  0  0
  5  6  1  0  0  0  0
  5  4  2  0  0  0  0
  6  7  2  0  0  0  0
  7  8  1  0  0  0  0
  8 12  1  0  0  0  0
  9  8  2  0  0  0  0
 10  5  1  0  0  0  0
 11  6  1  0  0  0  0
 13 16  1  6  0  0  0
 13  1  1  0  0  0  0
 14 13  1  0  0  0  0
 14 18  1  0  0  0  0
 15 19  1  6  0  0  0
 15 14  1  0  0  0  0
 15 13  1  0  0  0  0
 15 23  1  0  0  0  0
 17 14  1  0  0  0  0
 21 23  1  0  0  0  0
 21 20  1  0  0  0  0
 22 21  2  0  0  0  0
 23 24  1  0  0  0  0
M  END
>  <minimizedAffinity>
-3.82523179

$$$$

 OpenBabel03252500423D

 24 25  0  0  1  0  0  0  0  0999 V2000
   37.8870   28.0760   43.3890 C   0  0  0  0  0  0  0  0  0  0  0  0
   38.0710   28.8270   44.2050 H   0  0  0  0  0  0  0  0  0  0  0  0
   37.2380   27.2840   43.8620 H   0  0  0  0  0  0  0  0  0  0  0  0
   37.1330   28.7520   42.3190 C   0  0  0  0  0  0  0  0  0  0  0  0
   37.5440   30.0400   42.0410 C   0  0  0  0  0  0  0  0  0  0  0  0
   36.9090   30.7940   41.0540 C   0  0  0  0  0  0  0  0  0  0  0  0
   35.8800   30.1780   40.4020 N   0  0  0  0  0  0  0  0  0  0  0  0
   35.4850   28.9090   40.6840 C   0  0  0  0  0  0  0  0  0  0  0  0
   36.1120   28.2100   41.6350 N   0  0  0  0  0  0  0  0  0  0  0  0
   38.3060   30.7130   42.4060 H   0  0  0  0  0  0  0  0  0  0  0  0
   37.0430   31.7730   40.6770 H   0  0  0  0  0  0  0  0  0  0  0  0
   34.6820   28.4280   40.1740 H   0  0  0  0  0  0  0  0  0  0  0  0
   39.1790   27.5010   42.9170 C   0  0  1  0  0  0  0  0  0  0  0  0
   39.6920   26.2880   43.6800 C   0  0  0  0  0  0  0  0  0  0  0  0
   39.1030   26.1440   42.3010 C   0  0  1  0  0  0  0  0  0  0  0  0
   40.0020   28.0960   42.4970 H   0  0  0  0  0  0  0  0  0  0  0  0
   40.7810   26.1280   43.7980 H   0  0  0  0  0  0  0  0  0  0  0  0
   39.1250   25.9690   44.5730 H   0  0  0  0  0  0  0  0  0  0  0  0
   39.7640   25.8810   41.4520 H   0  0  0  0  0  0  0  0  0  0  0  0
   36.7630   23.6560   41.8080 H   0  0  0  0  0  0  0  0  0  0  0  0
   37.7240   24.1510   41.7980 C   0  0  0  0  0  0  0  0  0  0  0  0
   38.7280   23.5500   41.3400 O   0  0  0  0  0  0  0  0  0  0  0  0
   37.8100   25.4900   42.3180 N   0  0  0  0  0  0  0  0  0  0  0  0
   36.9550   25.9500   42.6880 H   0  0  0  0  0  0  0  0  0  0  0  0
  1  3  1  0  0  0  0
  1  2  1  0  0  0  0
  4  1  1  0  0  0  0
  5  4  1  0  0  0  0
  5 10  1  0  0  0  0
  6  5  2  0  0  0  0
  7  8  2  0  0  0  0
  7  6  1  0  0  0  0
  8  9  1  0  0  0  0
  9  4  2  0  0  0  0
 11  6  1  0  0  0  0
 12  8  1  0  0  0  0
 13 16  1  6  0  0  0
 13  1  1  0  0  0  0
 13 14  1  0  0  0  0
 14 17  1  0  0  0  0
 14 18  1  0  0  0  0
 15 19  1  6  0  0  0
 15 23  1  0  0  0  0
 15 13  1  0  0  0  0
 15 14  1  0  0  0  0
 21 20  1  0  0  0  0
 21 23  1  0  0  0  0
 22 21  2  0  0  0  0
 23 24  1  0  0  0  0
M  END
>  <minimizedAffinity>
-3.82068157

$$$$

 OpenBabel03252500423D

 24 25  0  0  1  0  0  0  0  0999 V2000
   35.4770   28.9080   40.6890 C   0  0  0  0  0  0  0  0  0  0  0  0
   34.6110   28.2960   41.0620 H   0  0  0  0  0  0  0  0  0  0  0  0
   35.1160   29.9760   40.7260 H   0  0  0  0  0  0  0  0  0  0  0  0
   36.5910   28.7340   41.6370 C   0  0  0  0  0  0  0  0  0  0  0  0
   36.7590   27.4470   42.1080 C   0  0  0  0  0  0  0  0  0  0  0  0
   37.7730   27.1490   43.0180 C   0  0  0  0  0  0  0  0  0  0  0  0
   38.5650   28.1940   43.3940 N   0  0  0  0  0  0  0  0  0  0  0  0
   38.3910   29.4560   42.9220 C   0  0  0  0  0  0  0  0  0  0  0  0
   37.4100   29.7140   42.0520 N   0  0  0  0  0  0  0  0  0  0  0  0
   36.2790   26.4910   41.9590 H   0  0  0  0  0  0  0  0  0  0  0  0
   38.0860   26.2620   43.5050 H   0  0  0  0  0  0  0  0  0  0  0  0
   39.0100   30.2730   43.2170 H   0  0  0  0  0  0  0  0  0  0  0  0
   35.8290   28.5080   39.2970 C   0  0  1  0  0  0  0  0  0  0  0  0
   35.0490   29.1930   38.1840 C   0  0  0  0  0  0  0  0  0  0  0  0
   36.4840   29.5570   38.4620 C   0  0  1  0  0  0  0  0  0  0  0  0
   36.1470   27.4960   39.0080 H   0  0  0  0  0  0  0  0  0  0  0  0
   34.8240   28.6470   37.2470 H   0  0  0  0  0  0  0  0  0  0  0  0
   34.2270   29.8700   38.4790 H   0  0  0  0  0  0  0  0  0  0  0  0
   37.2680   29.2770   37.7310 H   0  0  0  0  0  0  0  0  0  0  0  0
   37.4570   32.8550   38.7560 H   0  0  0  0  0  0  0  0  0  0  0  0
   37.3550   31.8700   38.3230 C   0  0  0  0  0  0  0  0  0  0  0  0
   37.8770   31.6250   37.2060 O   0  0  0  0  0  0  0  0  0  0  0  0
   36.6160   30.8740   39.0520 N   0  0  0  0  0  0  0  0  0  0  0  0
   36.2000   31.1190   39.9720 H   0  0  0  0  0  0  0  0  0  0  0  0
  1  3  1  0  0  0  0
  1  2  1  0  0  0  0
  1  4  1  0  0  0  0
  4  9  2  0  0  0  0
  4  5  1  0  0  0  0
  5  6  2  0  0  0  0
  6  7  1  0  0  0  0
  6 11  1  0  0  0  0
  8 12  1  0  0  0  0
  8  7  2  0  0  0  0
  9  8  1  0  0  0  0
 10  5  1  0  0  0  0
 13 16  1  6  0  0  0
 13  1  1  0  0  0  0
 14 15  1  0  0  0  0
 14 18  1  0  0  0  0
 14 13  1  0  0  0  0
 15 19  1  6  0  0  0
 15 23  1  0  0  0  0
 15 13  1  0  0  0  0
 17 14  1  0  0  0  0
 21 20  1  0  0  0  0
 21 23  1  0  0  0  0
 22 21  2  0  0  0  0
 23 24  1  0  0  0  0
M  END
>  <minimizedAffinity>
-3.74010229

$$$$

 OpenBabel03252500423D

 24 25  0  0  1  0  0  0  0  0999 V2000
   36.7480   27.0550   42.5060 C   0  0  0  0  0  0  0  0  0  0  0  0
   35.8580   26.3770   42.6100 H   0  0  0  0  0  0  0  0  0  0  0  0
   36.6420   27.8050   43.3410 H   0  0  0  0  0  0  0  0  0  0  0  0
   37.9580   26.2430   42.7270 C   0  0  0  0  0  0  0  0  0  0  0  0
   37.9940   25.0500   42.0330 C   0  0  0  0  0  0  0  0  0  0  0  0
   39.0810   24.1850   42.1600 C   0  0  0  0  0  0  0  0  0  0  0  0
   40.0770   24.5970   42.9960 N   0  0  0  0  0  0  0  0  0  0  0  0
   40.0310   25.7750   43.6720 C   0  0  0  0  0  0  0  0  0  0  0  0
   38.9770   26.5840   43.5320 N   0  0  0  0  0  0  0  0  0  0  0  0
   37.3510   24.5310   41.3370 H   0  0  0  0  0  0  0  0  0  0  0  0
   39.3230   23.2440   41.7410 H   0  0  0  0  0  0  0  0  0  0  0  0
   40.8110   26.0950   44.3250 H   0  0  0  0  0  0  0  0  0  0  0  0
   36.7310   27.7250   41.1750 C   0  0  1  0  0  0  0  0  0  0  0  0
   35.6610   28.7880   40.9720 C   0  0  0  0  0  0  0  0  0  0  0  0
   37.1050   29.1700   41.1660 C   0  0  1  0  0  0  0  0  0  0  0  0
   36.9960   27.2280   40.2310 H   0  0  0  0  0  0  0  0  0  0  0  0
   35.2150   28.9400   39.9700 H   0  0  0  0  0  0  0  0  0  0  0  0
   34.9230   28.9310   41.7820 H   0  0  0  0  0  0  0  0  0  0  0  0
   37.6760   29.5920   40.3170 H   0  0  0  0  0  0  0  0  0  0  0  0
   38.8930   30.4780   43.8130 H   0  0  0  0  0  0  0  0  0  0  0  0
   38.7070   30.0150   42.8540 C   0  0  0  0  0  0  0  0  0  0  0  0
   39.6750   29.6910   42.1220 O   0  0  0  0  0  0  0  0  0  0  0  0
   37.3430   29.7910   42.4540 N   0  0  0  0  0  0  0  0  0  0  0  0
   36.5710   30.0740   43.0900 H   0  0  0  0  0  0  0  0  0  0  0  0
  1  2  1  0  0  0  0
  1  4  1  0  0  0  0
  1  3  1  0  0  0  0
  4  9  1  0  0  0  0
  5  6  1  0  0  0  0
  5  4  2  0  0  0  0
  6  7  2  0  0  0  0
  7  8  1  0  0  0  0
  8 12  1  0  0  0  0
  9  8  2  0  0  0  0
 10  5  1  0  0  0  0
 11  6  1  0  0  0  0
 13 16  1  6  0  0  0
 13  1  1  0  0  0  0
 14 15  1  0  0  0  0
 14 13  1  0  0  0  0
 14 18  1  0  0  0  0
 15 19  1  6  0  0  0
 15 13  1  0  0  0  0
 15 23  1  0  0  0  0
 17 14  1  0  0  0  0
 21 20  1  0  0  0  0
 22 21  2  0  0  0  0
 23 21  1  0  0  0  0
 23 24  1  0  0  0  0
M  END
>  <minimizedAffinity>
-3.72399211

$$$$

 OpenBabel03252500423D

 24 25  0  0  1  0  0  0  0  0999 V2000
   36.8650   30.6830   39.4620 C   0  0  0  0  0  0  0  0  0  0  0  0
   36.3830   31.0210   38.5050 H   0  0  0  0  0  0  0  0  0  0  0  0
   37.4980   29.7950   39.1720 H   0  0  0  0  0  0  0  0  0  0  0  0
   37.7370   31.7720   39.9350 C   0  0  0  0  0  0  0  0  0  0  0  0
   37.3430   33.0400   39.5560 C   0  0  0  0  0  0  0  0  0  0  0  0
   38.0850   34.1590   39.9310 C   0  0  0  0  0  0  0  0  0  0  0  0
   39.1980   33.9130   40.6820 N   0  0  0  0  0  0  0  0  0  0  0  0
   39.5750   32.6610   41.0510 C   0  0  0  0  0  0  0  0  0  0  0  0
   38.8450   31.6060   40.6760 N   0  0  0  0  0  0  0  0  0  0  0  0
   36.5300   33.4680   38.9880 H   0  0  0  0  0  0  0  0  0  0  0  0
   37.9830   35.1990   39.7640 H   0  0  0  0  0  0  0  0  0  0  0  0
   40.4440   32.4700   41.6370 H   0  0  0  0  0  0  0  0  0  0  0  0
   35.8240   30.2980   40.4560 C   0  0  1  0  0  0  0  0  0  0  0  0
   35.2180   28.9110   40.2910 C   0  0  0  0  0  0  0  0  0  0  0  0
   36.1940   29.2030   41.4010 C   0  0  1  0  0  0  0  0  0  0  0  0
   35.1100   31.0020   40.9060 H   0  0  0  0  0  0  0  0  0  0  0  0
   34.1610   28.7320   40.5650 H   0  0  0  0  0  0  0  0  0  0  0  0
   35.5250   28.3220   39.4080 H   0  0  0  0  0  0  0  0  0  0  0  0
   35.8370   29.2270   42.4480 H   0  0  0  0  0  0  0  0  0  0  0  0
   39.3120   27.9390   42.1720 H   0  0  0  0  0  0  0  0  0  0  0  0
   38.3530   28.4140   42.3210 C   0  0  0  0  0  0  0  0  0  0  0  0
   38.0300   28.8170   43.4670 O   0  0  0  0  0  0  0  0  0  0  0  0
   37.4780   28.5650   41.1890 N   0  0  0  0  0  0  0  0  0  0  0  0
   37.7840   28.2170   40.2580 H   0  0  0  0  0  0  0  0  0  0  0  0
  1  4  1  0  0  0  0
  1 13  1  0  0  0  0
  2  1  1  0  0  0  0
  3  1  1  0  0  0  0
  4  9  1  0  0  0  0
  5  6  1  0  0  0  0
  5  4  2  0  0  0  0
  6  7  2  0  0  0  0
  7  8  1  0  0  0  0
  8 12  1  0  0  0  0
  9  8  2  0  0  0  0
 10  5  1  0  0  0  0
 11  6  1  0  0  0  0
 13 16  1  1  0  0  0
 13 15  1  0  0  0  0
 14 13  1  0  0  0  0
 14 17  1  0  0  0  0
 14 15  1  0  0  0  0
 15 19  1  1  0  0  0
 18 14  1  0  0  0  0
 20 21  1  0  0  0  0
 21 22  2  0  0  0  0
 23 15  1  0  0  0  0
 23 21  1  0  0  0  0
 24 23  1  0  0  0  0
M  END
>  <minimizedAffinity>
-3.64051366

$$$$

 OpenBabel03252500423D

 24 25  0  0  1  0  0  0  0  0999 V2000
   34.3260   29.1080   39.5530 C   0  0  0  0  0  0  0  0  0  0  0  0
   33.9200   28.1470   39.9700 H   0  0  0  0  0  0  0  0  0  0  0  0
   33.5050   29.8650   39.7160 H   0  0  0  0  0  0  0  0  0  0  0  0
   35.5040   29.4830   40.3550 C   0  0  0  0  0  0  0  0  0  0  0  0
   35.9690   28.4970   41.2010 C   0  0  0  0  0  0  0  0  0  0  0  0
   37.0750   28.7260   42.0210 C   0  0  0  0  0  0  0  0  0  0  0  0
   37.6440   29.9620   41.9240 N   0  0  0  0  0  0  0  0  0  0  0  0
   37.1770   30.9240   41.0860 C   0  0  0  0  0  0  0  0  0  0  0  0
   36.1160   30.6770   40.3120 N   0  0  0  0  0  0  0  0  0  0  0  0
   35.6980   27.4800   41.4400 H   0  0  0  0  0  0  0  0  0  0  0  0
   37.5970   28.1400   42.7310 H   0  0  0  0  0  0  0  0  0  0  0  0
   37.6230   31.8900   41.0110 H   0  0  0  0  0  0  0  0  0  0  0  0
   34.6340   28.9530   38.1040 C   0  0  1  0  0  0  0  0  0  0  0  0
   34.1150   27.6860   37.4390 C   0  0  0  0  0  0  0  0  0  0  0  0
   33.4650   29.0190   37.1770 C   0  0  1  0  0  0  0  0  0  0  0  0
   35.5550   29.3140   37.6260 H   0  0  0  0  0  0  0  0  0  0  0  0
   34.6880   27.2170   36.6160 H   0  0  0  0  0  0  0  0  0  0  0  0
   33.6240   26.9350   38.0850 H   0  0  0  0  0  0  0  0  0  0  0  0
   33.5720   29.4900   36.1800 H   0  0  0  0  0  0  0  0  0  0  0  0
   30.1820   30.0090   37.5660 H   0  0  0  0  0  0  0  0  0  0  0  0
   31.1630   29.9260   37.1190 C   0  0  0  0  0  0  0  0  0  0  0  0
   31.4070   30.5240   36.0410 O   0  0  0  0  0  0  0  0  0  0  0  0
   32.1540   29.1240   37.7850 N   0  0  0  0  0  0  0  0  0  0  0  0
   31.9100   28.6460   38.6750 H   0  0  0  0  0  0  0  0  0  0  0  0
  1  3  1  0  0  0  0
  1  2  1  0  0  0  0
  1  4  1  0  0  0  0
  4  5  1  0  0  0  0
  5 10  1  0  0  0  0
  5  6  2  0  0  0  0
  6 11  1  0  0  0  0
  7  6  1  0  0  0  0
  8  7  2  0  0  0  0
  9  4  2  0  0  0  0
  9  8  1  0  0  0  0
 12  8  1  0  0  0  0
 13 16  1  6  0  0  0
 13  1  1  0  0  0  0
 14 18  1  0  0  0  0
 14 13  1  0  0  0  0
 15 19  1  6  0  0  0
 15 14  1  0  0  0  0
 15 23  1  0  0  0  0
 15 13  1  0  0  0  0
 17 14  1  0  0  0  0
 21 20  1  0  0  0  0
 21 23  1  0  0  0  0
 22 21  2  0  0  0  0
 23 24  1  0  0  0  0
M  END
>  <minimizedAffinity>
-3.62418509

$$$$
