
 OpenBabel03242511063D

 24 26  0  0  1  0  0  0  0  0999 V2000
   46.7280   31.5190   45.2640 C   0  0  1  0  0  0  0  0  0  0  0  0
   46.4200   30.4200   44.2900 C   0  0  0  0  0  0  0  0  0  0  0  0
   45.8110   31.8200   44.1570 C   0  0  2  0  0  0  0  0  0  0  0  0
   47.7460   31.9590   45.2470 H   0  0  0  0  0  0  0  0  0  0  0  0
   45.7730   29.6260   44.7150 H   0  0  0  0  0  0  0  0  0  0  0  0
   47.2580   30.1220   43.6640 H   0  0  0  0  0  0  0  0  0  0  0  0
   44.7440   31.8760   44.4710 H   0  0  0  0  0  0  0  0  0  0  0  0
   45.0740   30.1880   48.3100 C   0  0  0  0  0  0  0  0  0  0  0  0
   45.2420   31.2890   49.2200 C   0  0  0  0  0  0  0  0  0  0  0  0
   45.9290   32.4530   48.7530 C   0  0  0  0  0  0  0  0  0  0  0  0
   46.3860   32.4730   47.4970 N   0  0  0  0  0  0  0  0  0  0  0  0
   46.2110   31.4100   46.6570 C   0  0  0  0  0  0  0  0  0  0  0  0
   45.5610   30.2840   47.0700 N   0  0  0  0  0  0  0  0  0  0  0  0
   44.5510   29.3220   48.6900 H   0  0  0  0  0  0  0  0  0  0  0  0
   44.8710   31.2680   50.2330 H   0  0  0  0  0  0  0  0  0  0  0  0
   46.0330   33.2540   49.4690 H   0  0  0  0  0  0  0  0  0  0  0  0
   46.1510   32.5840   43.0280 N   0  0  0  0  0  0  0  0  0  0  0  0
   45.4240   32.7710   42.3440 H   0  0  0  0  0  0  0  0  0  0  0  0
   48.6540   32.1590   42.6790 H   0  0  0  0  0  0  0  0  0  0  0  0
   48.4910   33.1650   42.7640 N   0  0  0  0  0  0  0  0  0  0  0  0
   48.9290   33.9960   41.6930 C   0  0  0  0  0  2  0  0  0  0  0  0
   48.2800   35.3350   42.0570 C   0  0  0  0  0  2  0  0  0  0  0  0
   46.8940   34.8720   42.4630 C   0  0  0  0  0  2  0  0  0  0  0  0
   47.1550   33.5650   43.1290 C   0  0  1  0  0  3  0  0  0  0  0  0
  1  4  1  6  0  0  0
  1 12  1  0  0  0  0
  2  5  1  0  0  0  0
  2  1  1  0  0  0  0
  3  2  1  0  0  0  0
  3  7  1  1  0  0  0
  3  1  1  0  0  0  0
  6  2  1  0  0  0  0
  8 14  1  0  0  0  0
  8  9  1  0  0  0  0
  9 15  1  0  0  0  0
 10  9  2  0  0  0  0
 10 16  1  0  0  0  0
 11 10  1  0  0  0  0
 12 13  1  0  0  0  0
 12 11  2  0  0  0  0
 13  8  2  0  0  0  0
 17  3  1  0  0  0  0
 18 17  1  0  0  0  0
 19 20  1  0  0  0  0
 20 24  1  0  0  0  0
 21 22  1  0  0  0  0
 21 20  1  0  0  0  0
 22 23  1  0  0  0  0
 23 24  1  0  0  0  0
 24 17  1  6  0  0  0
M  END
>  <minimizedAffinity>
-3.84601235

>  <minimizedRMSD>
6.60716105

$$$$
