
 OpenBabel03252500253D

 34 36  0  0  1  0  0  0  0  0999 V2000
   46.8410   30.0850   48.1170 C   0  0  2  0  0  0  0  0  0  0  0  0
   45.4040   30.4200   48.2180 C   0  0  2  0  0  0  0  0  0  0  0  0
   44.7840   29.6230   47.1260 C   0  0  0  0  0  0  0  0  0  0  0  0
   45.5450   28.4800   46.9560 O   0  0  0  0  0  0  0  0  0  0  0  0
   46.6880   28.6080   47.6740 C   0  0  0  0  0  0  0  0  0  0  0  0
   47.5200   30.4470   47.4050 H   0  0  0  0  0  0  0  0  0  0  0  0
   45.1000   30.0440   49.2330 H   0  0  0  0  0  0  0  0  0  0  0  0
   43.8130   29.2220   47.5530 H   0  0  0  0  0  0  0  0  0  0  0  0
   44.4530   30.1350   46.2290 H   0  0  0  0  0  0  0  0  0  0  0  0
   46.5300   28.0720   48.6540 H   0  0  0  0  0  0  0  0  0  0  0  0
   47.5940   28.2120   47.2190 H   0  0  0  0  0  0  0  0  0  0  0  0
   45.1450   31.7660   48.1010 O   0  0  0  0  0  0  0  0  0  0  0  0
   47.3600   32.8820   47.4270 O   0  0  0  0  0  0  0  0  0  0  0  0
   46.0420   32.4260   46.8650 P   0  0  1  0  0  0  0  0  0  0  0  0
   46.3350   31.2400   45.6910 O   0  0  0  0  0  0  0  0  0  0  0  0
   45.8100   31.4390   44.8760 H   0  0  0  0  0  0  0  0  0  0  0  0
   45.2770   33.7870   46.1680 O   0  0  0  0  0  0  0  0  0  0  0  0
   45.2150   35.8680   43.2770 C   0  0  0  0  0  0  0  0  0  0  0  0
   46.2760   35.3740   42.4630 C   0  0  0  0  0  0  0  0  0  0  0  0
   47.0110   34.2820   42.9740 C   0  0  0  0  0  0  0  0  0  0  0  0
   46.6630   33.7870   44.1810 N   0  0  0  0  0  0  0  0  0  0  0  0
   45.6470   34.2920   44.9160 C   0  0  0  0  0  0  0  0  0  0  0  0
   44.9320   35.3320   44.4520 N   0  0  0  0  0  0  0  0  0  0  0  0
   46.5340   35.7840   41.5080 H   0  0  0  0  0  0  0  0  0  0  0  0
   47.8310   33.8490   42.4180 H   0  0  0  0  0  0  0  0  0  0  0  0
   44.5070   36.9350   42.7690 O   0  0  0  0  0  0  0  0  0  0  0  0
   45.0730   37.7210   42.4160 H   0  0  0  0  0  0  0  0  0  0  0  0
   47.5440   30.1750   49.2840 O   0  0  0  0  0  0  0  0  0  0  0  0
   49.8280   30.6260   51.1650 H   0  0  0  0  0  0  0  0  0  0  0  0
   49.4700   29.9500   50.4570 N   0  0  0  0  0  0  0  0  0  0  0  0
   50.4650   29.0580   49.9490 C   0  0  0  0  0  2  0  0  0  0  0  0
   50.7870   29.4920   48.5390 C   0  0  0  0  0  2  0  0  0  0  0  0
   49.5110   30.1500   48.0750 C   0  0  0  0  0  2  0  0  0  0  0  0
   48.7940   30.5870   49.3600 C   0  0  1  0  0  3  0  0  0  0  0  0
  1  6  1  6  0  0  0
  1  2  1  0  0  0  0
  1 28  1  0  0  0  0
  2  7  1  1  0  0  0
  3  8  1  0  0  0  0
  3  2  1  0  0  0  0
  4  3  1  0  0  0  0
  4  5  1  0  0  0  0
  5  1  1  0  0  0  0
  5 10  1  0  0  0  0
  9  3  1  0  0  0  0
 11  5  1  0  0  0  0
 12  2  1  0  0  0  0
 14 13  2  1  0  0  0
 14 12  1  0  0  0  0
 15 14  1  0  0  0  0
 16 15  1  0  0  0  0
 17 14  1  0  0  0  0
 18 23  1  0  0  0  0
 19 20  1  0  0  0  0
 19 18  2  0  0  0  0
 20 21  2  0  0  0  0
 21 22  1  0  0  0  0
 22 17  1  0  0  0  0
 23 22  2  0  0  0  0
 24 19  1  0  0  0  0
 25 20  1  0  0  0  0
 26 18  1  0  0  0  0
 27 26  1  0  0  0  0
 30 29  1  0  0  0  0
 31 30  1  0  0  0  0
 32 31  1  0  0  0  0
 33 32  1  0  0  0  0
 33 34  1  0  0  0  0
 34 28  1  6  0  0  0
 34 30  1  0  0  0  0
M  END
>  <minimizedAffinity>
-4.92774582

>  <minimizedRMSD>
0.25626123

$$$$
