
 OpenBabel03252508493D

 25 27  0  0  0  0  0  0  0  0999 V2000
   45.9420   34.1860   41.0330 C   0  0  0  0  0  0  0  0  0  0  0  0
   46.5370   34.8160   42.1470 C   0  0  0  0  0  0  0  0  0  0  0  0
   47.8800   35.1800   42.0280 C   0  0  0  0  0  0  0  0  0  0  0  0
   48.5270   34.9040   40.8510 N   0  0  0  0  0  0  0  0  0  0  0  0
   47.9200   34.3060   39.8270 C   0  0  0  0  0  0  0  0  0  0  0  0
   46.6250   33.9460   39.9160 N   0  0  0  0  0  0  0  0  0  0  0  0
   48.3660   35.6670   42.8670 H   0  0  0  0  0  0  0  0  0  0  0  0
   48.4240   34.0850   38.8950 H   0  0  0  0  0  0  0  0  0  0  0  0
   45.7570   35.0600   43.3470 C   0  0  0  0  0  0  0  0  0  0  0  0
   45.0860   36.2360   43.5910 C   0  0  0  0  0  0  0  0  0  0  0  0
   44.5000   36.0180   44.8220 C   0  0  0  0  0  0  0  0  0  0  0  0
   44.7970   34.7830   45.2960 N   0  0  0  0  0  0  0  0  0  0  0  0
   45.5580   34.2280   44.3850 N   0  0  0  0  0  0  0  0  0  0  0  0
   45.0110   37.1420   42.9870 H   0  0  0  0  0  0  0  0  0  0  0  0
   43.8720   36.7410   45.3600 H   0  0  0  0  0  0  0  0  0  0  0  0
   44.4560   34.4100   46.2150 H   0  0  0  0  0  0  0  0  0  0  0  0
   44.6200   33.8230   41.1390 O   0  0  0  0  0  0  0  0  0  0  0  0
   43.5510   34.5180   40.6340 C   0  0  0  0  0  0  0  0  0  0  0  0
   43.2930   35.7600   40.7430 O   0  0  0  0  0  0  0  0  0  0  0  0
   42.4020   34.1750   39.8580 N   0  0  0  0  0  0  0  0  0  0  0  0
   41.3250   33.4730   40.5310 C   0  0  0  0  0  2  0  0  0  0  0  0
   40.7370   32.6930   39.3540 C   0  0  0  0  0  2  0  0  0  0  0  0
   40.6850   33.8490   38.3430 C   0  0  0  0  0  2  0  0  0  0  0  0
   42.0870   34.4000   38.4810 C   0  0  0  0  0  3  0  0  0  0  0  0
   42.1700   35.4690   38.1900 H   0  0  0  0  0  0  0  0  0  0  0  0
  1 17  1  0  0  0  0
  1  2  1  0  0  0  0
  2  9  1  0  0  0  0
  3  2  2  0  0  0  0
  3  7  1  0  0  0  0
  4  3  1  0  0  0  0
  5  6  1  0  0  0  0
  5  4  2  0  0  0  0
  6  1  2  0  0  0  0
  8  5  1  0  0  0  0
  9 10  1  0  0  0  0
  9 13  2  0  0  0  0
 10 11  2  0  0  0  0
 11 12  1  0  0  0  0
 11 15  1  0  0  0  0
 12 16  1  0  0  0  0
 13 12  1  0  0  0  0
 14 10  1  0  0  0  0
 18 19  2  0  0  0  0
 18 17  1  0  0  0  0
 20 21  1  0  0  0  0
 20 18  1  0  0  0  0
 22 21  1  0  0  0  0
 23 24  1  0  0  0  0
 23 22  1  0  0  0  0
 24 20  1  0  0  0  0
 25 24  1  0  0  0  0
M  END
>  <minimizedAffinity>
-5.41353321

>  <minimizedRMSD>
0.517715156

$$$$
