
 OpenBabel03252500253D

 34 36  0  0  1  0  0  0  0  0999 V2000
   47.1400   30.0100   47.9980 C   0  0  2  0  0  0  0  0  0  0  0  0
   45.7070   30.2590   48.2660 C   0  0  2  0  0  0  0  0  0  0  0  0
   45.0130   29.4100   47.2610 C   0  0  0  0  0  0  0  0  0  0  0  0
   45.8190   28.3120   47.0120 O   0  0  0  0  0  0  0  0  0  0  0  0
   47.0280   28.5200   47.5890 C   0  0  0  0  0  0  0  0  0  0  0  0
   47.7070   30.4020   47.2080 H   0  0  0  0  0  0  0  0  0  0  0  0
   45.5480   29.8810   49.3130 H   0  0  0  0  0  0  0  0  0  0  0  0
   44.1270   28.9570   47.8040 H   0  0  0  0  0  0  0  0  0  0  0  0
   44.5480   29.8870   46.4060 H   0  0  0  0  0  0  0  0  0  0  0  0
   47.0190   27.9900   48.5840 H   0  0  0  0  0  0  0  0  0  0  0  0
   47.8970   28.1730   47.0330 H   0  0  0  0  0  0  0  0  0  0  0  0
   45.3530   31.5850   48.1700 O   0  0  0  0  0  0  0  0  0  0  0  0
   47.4730   32.8990   47.5490 O   0  0  0  0  0  0  0  0  0  0  0  0
   46.2130   32.3310   46.9570 P   0  0  1  0  0  0  0  0  0  0  0  0
   46.6370   31.1830   45.7840 O   0  0  0  0  0  0  0  0  0  0  0  0
   46.1130   31.3390   44.9590 H   0  0  0  0  0  0  0  0  0  0  0  0
   45.3440   33.6220   46.2490 O   0  0  0  0  0  0  0  0  0  0  0  0
   45.1880   35.7430   43.3910 C   0  0  0  0  0  0  0  0  0  0  0  0
   46.2670   35.3060   42.5680 C   0  0  0  0  0  0  0  0  0  0  0  0
   47.0480   34.2380   43.0600 C   0  0  0  0  0  0  0  0  0  0  0  0
   46.7240   33.7100   44.2600 N   0  0  0  0  0  0  0  0  0  0  0  0
   45.6890   34.1610   45.0040 C   0  0  0  0  0  0  0  0  0  0  0  0
   44.9300   35.1770   44.5580 N   0  0  0  0  0  0  0  0  0  0  0  0
   46.5050   35.7410   41.6180 H   0  0  0  0  0  0  0  0  0  0  0  0
   47.8840   33.8490   42.4960 H   0  0  0  0  0  0  0  0  0  0  0  0
   44.4340   36.7860   42.9000 O   0  0  0  0  0  0  0  0  0  0  0  0
   44.9670   37.6010   42.5580 H   0  0  0  0  0  0  0  0  0  0  0  0
   47.9680   30.1610   49.0740 O   0  0  0  0  0  0  0  0  0  0  0  0
   50.1030   32.1950   48.5680 H   0  0  0  0  0  0  0  0  0  0  0  0
   49.6300   31.6780   49.3390 N   0  0  0  0  0  0  0  0  0  0  0  0
   50.3640   31.6630   50.5650 C   0  0  0  0  0  2  0  0  0  0  0  0
   50.9260   30.2730   50.7400 C   0  0  0  0  0  2  0  0  0  0  0  0
   49.9450   29.4010   49.9970 C   0  0  0  0  0  2  0  0  0  0  0  0
   49.2720   30.3340   48.9790 C   0  0  1  0  0  3  0  0  0  0  0  0
  1  6  1  6  0  0  0
  1  2  1  0  0  0  0
  1 28  1  0  0  0  0
  2  7  1  1  0  0  0
  3  8  1  0  0  0  0
  3  2  1  0  0  0  0
  4  3  1  0  0  0  0
  4  5  1  0  0  0  0
  5  1  1  0  0  0  0
  5 10  1  0  0  0  0
  9  3  1  0  0  0  0
 11  5  1  0  0  0  0
 12  2  1  0  0  0  0
 14 13  2  1  0  0  0
 14 12  1  0  0  0  0
 15 14  1  0  0  0  0
 16 15  1  0  0  0  0
 17 14  1  0  0  0  0
 18 23  1  0  0  0  0
 19 20  1  0  0  0  0
 19 18  2  0  0  0  0
 20 21  2  0  0  0  0
 21 22  1  0  0  0  0
 22 17  1  0  0  0  0
 23 22  2  0  0  0  0
 24 19  1  0  0  0  0
 25 20  1  0  0  0  0
 26 18  1  0  0  0  0
 27 26  1  0  0  0  0
 29 30  1  0  0  0  0
 30 31  1  0  0  0  0
 31 32  1  0  0  0  0
 33 32  1  0  0  0  0
 34 28  1  1  0  0  0
 34 30  1  0  0  0  0
 34 33  1  0  0  0  0
M  END
>  <minimizedAffinity>
-5.08311272

>  <minimizedRMSD>
0.549371421

$$$$
