
 OpenBabel03252502233D

 31 33  0  0  1  0  0  0  0  0999 V2000
   46.7640   34.5940   42.2230 N   0  0  0  0  0  0  0  0  0  0  0  0
   48.2100   34.6750   42.2430 C   0  0  0  0  0  0  0  0  0  0  0  0
   48.5780   35.3600   40.9320 C   0  0  0  0  0  0  0  0  0  0  0  0
   48.1790   34.5020   39.7590 C   0  0  0  0  0  0  0  0  0  0  0  0
   46.8770   33.8120   39.9080 C   0  0  0  0  0  0  0  0  0  0  0  0
   46.0190   34.2660   41.0400 C   0  0  1  0  0  0  0  0  0  0  0  0
   48.5780   35.3070   43.0760 H   0  0  0  0  0  0  0  0  0  0  0  0
   48.6340   33.6750   42.2150 H   0  0  0  0  0  0  0  0  0  0  0  0
   49.6900   35.4660   40.9440 H   0  0  0  0  0  0  0  0  0  0  0  0
   48.0670   36.3350   40.9380 H   0  0  0  0  0  0  0  0  0  0  0  0
   48.1550   35.1770   38.8770 H   0  0  0  0  0  0  0  0  0  0  0  0
   49.0070   33.7730   39.5190 H   0  0  0  0  0  0  0  0  0  0  0  0
   46.3060   33.8820   38.9550 H   0  0  0  0  0  0  0  0  0  0  0  0
   47.1000   32.7200   40.1000 H   0  0  0  0  0  0  0  0  0  0  0  0
   45.4330   35.1540   40.6940 H   0  0  0  0  0  0  0  0  0  0  0  0
   44.4720   36.1310   44.7580 C   0  0  0  0  0  0  0  0  0  0  0  0
   45.1760   35.9810   43.5470 C   0  0  0  0  0  0  0  0  0  0  0  0
   46.0040   34.8460   43.4130 C   0  0  0  0  0  0  0  0  0  0  0  0
   46.0730   33.9690   44.4600 N   0  0  0  0  0  0  0  0  0  0  0  0
   45.3690   34.1710   45.6000 C   0  0  0  0  0  0  0  0  0  0  0  0
   44.5670   35.2600   45.7430 N   0  0  0  0  0  0  0  0  0  0  0  0
   43.8630   37.0270   44.7760 H   0  0  0  0  0  0  0  0  0  0  0  0
   45.1300   36.6680   42.7120 H   0  0  0  0  0  0  0  0  0  0  0  0
   45.4200   33.4840   46.4230 H   0  0  0  0  0  0  0  0  0  0  0  0
   45.1040   33.2420   41.3310 O   0  0  0  0  0  0  0  0  0  0  0  0
   42.1460   32.6150   41.5030 H   0  0  0  0  0  0  0  0  0  0  0  0
   42.8730   33.3300   41.6930 N   0  0  0  0  0  0  0  0  0  0  0  0
   42.3510   34.6470   41.9070 C   0  0  0  0  0  2  0  0  0  0  0  0
   42.3740   35.2540   40.5210 C   0  0  0  0  0  2  0  0  0  0  0  0
   43.7540   34.7960   40.0470 C   0  0  0  0  0  2  0  0  0  0  0  0
   43.9010   33.4120   40.6630 C   0  0  1  0  0  3  0  0  0  0  0  0
  1  2  1  0  0  0  0
  1 18  1  0  0  0  0
  2  7  1  0  0  0  0
  3 10  1  0  0  0  0
  3  9  1  0  0  0  0
  3  2  1  0  0  0  0
  4  5  1  0  0  0  0
  4  3  1  0  0  0  0
  5 14  1  0  0  0  0
  5  6  1  0  0  0  0
  6 15  1  6  0  0  0
  6 25  1  0  0  0  0
  6  1  1  0  0  0  0
  8  2  1  0  0  0  0
 11  4  1  0  0  0  0
 12  4  1  0  0  0  0
 13  5  1  0  0  0  0
 16 22  1  0  0  0  0
 16 21  1  0  0  0  0
 17 16  2  0  0  0  0
 18 17  1  0  0  0  0
 18 19  2  0  0  0  0
 19 20  1  0  0  0  0
 20 21  2  0  0  0  0
 20 24  1  0  0  0  0
 23 17  1  0  0  0  0
 26 27  1  0  0  0  0
 27 28  1  0  0  0  0
 29 28  1  0  0  0  0
 30 29  1  0  0  0  0
 30 31  1  0  0  0  0
 31 25  1  1  0  0  0
 31 27  1  0  0  0  0
M  END
>  <minimizedAffinity>
-5.22910357

>  <minimizedRMSD>
0.63210851

$$$$
