
 OpenBabel03252508493D

 25 27  0  0  0  0  0  0  0  0999 V2000
   45.9630   34.1020   41.0330 C   0  0  0  0  0  0  0  0  0  0  0  0
   46.5340   34.8050   42.1150 C   0  0  0  0  0  0  0  0  0  0  0  0
   47.8520   35.2430   41.9640 C   0  0  0  0  0  0  0  0  0  0  0  0
   48.4990   34.9640   40.7880 N   0  0  0  0  0  0  0  0  0  0  0  0
   47.9150   34.2950   39.7950 C   0  0  0  0  0  0  0  0  0  0  0  0
   46.6440   33.8630   39.9150 N   0  0  0  0  0  0  0  0  0  0  0  0
   48.3190   35.7870   42.7790 H   0  0  0  0  0  0  0  0  0  0  0  0
   48.4190   34.0710   38.8630 H   0  0  0  0  0  0  0  0  0  0  0  0
   45.7570   35.0460   43.3180 C   0  0  0  0  0  0  0  0  0  0  0  0
   45.0400   36.1980   43.5410 C   0  0  0  0  0  0  0  0  0  0  0  0
   44.4760   35.9870   44.7840 C   0  0  0  0  0  0  0  0  0  0  0  0
   44.8290   34.7770   45.2840 N   0  0  0  0  0  0  0  0  0  0  0  0
   45.6040   34.2320   44.3780 N   0  0  0  0  0  0  0  0  0  0  0  0
   44.9190   37.0860   42.9160 H   0  0  0  0  0  0  0  0  0  0  0  0
   43.8230   36.6960   45.3110 H   0  0  0  0  0  0  0  0  0  0  0  0
   44.5130   34.4130   46.2160 H   0  0  0  0  0  0  0  0  0  0  0  0
   44.6660   33.6680   41.1720 O   0  0  0  0  0  0  0  0  0  0  0  0
   43.5550   34.2660   40.6380 C   0  0  0  0  0  0  0  0  0  0  0  0
   43.3100   35.5090   40.5090 O   0  0  0  0  0  0  0  0  0  0  0  0
   42.3340   33.7960   40.0630 N   0  0  0  0  0  0  0  0  0  0  0  0
   42.4290   32.9580   38.8820 C   0  0  0  0  0  2  0  0  0  0  0  0
   41.0970   33.2910   38.2090 C   0  0  0  0  0  2  0  0  0  0  0  0
   40.1980   33.1590   39.4460 C   0  0  0  0  0  2  0  0  0  0  0  0
   40.9690   33.9990   40.4410 C   0  0  0  0  0  3  0  0  0  0  0  0
   40.7700   33.7230   41.4990 H   0  0  0  0  0  0  0  0  0  0  0  0
  1 17  1  0  0  0  0
  1  2  1  0  0  0  0
  2  9  1  0  0  0  0
  3  2  2  0  0  0  0
  3  7  1  0  0  0  0
  4  3  1  0  0  0  0
  5  6  1  0  0  0  0
  5  4  2  0  0  0  0
  6  1  2  0  0  0  0
  8  5  1  0  0  0  0
  9 10  1  0  0  0  0
  9 13  2  0  0  0  0
 10 11  2  0  0  0  0
 11 12  1  0  0  0  0
 11 15  1  0  0  0  0
 12 16  1  0  0  0  0
 13 12  1  0  0  0  0
 14 10  1  0  0  0  0
 18 17  1  0  0  0  0
 19 18  2  0  0  0  0
 20 24  1  0  0  0  0
 20 18  1  0  0  0  0
 21 20  1  0  0  0  0
 22 21  1  0  0  0  0
 22 23  1  0  0  0  0
 23 24  1  0  0  0  0
 24 25  1  0  0  0  0
M  END
>  <minimizedAffinity>
-5.36037111

>  <minimizedRMSD>
0.556669772

$$$$
