
 OpenBabel03252502233D

 31 33  0  0  1  0  0  0  0  0999 V2000
   46.8740   34.6210   42.2750 N   0  0  0  0  0  0  0  0  0  0  0  0
   48.3200   34.7000   42.3280 C   0  0  0  0  0  0  0  0  0  0  0  0
   48.7130   35.4580   41.0660 C   0  0  0  0  0  0  0  0  0  0  0  0
   48.3380   34.6700   39.8380 C   0  0  0  0  0  0  0  0  0  0  0  0
   47.0330   33.9730   39.9220 C   0  0  0  0  0  0  0  0  0  0  0  0
   46.1530   34.3620   41.0600 C   0  0  1  0  0  0  0  0  0  0  0  0
   48.6710   35.2820   43.2030 H   0  0  0  0  0  0  0  0  0  0  0  0
   48.7450   33.7030   42.2500 H   0  0  0  0  0  0  0  0  0  0  0  0
   49.8260   35.5620   41.1060 H   0  0  0  0  0  0  0  0  0  0  0  0
   48.2020   36.4320   41.1180 H   0  0  0  0  0  0  0  0  0  0  0  0
   48.3310   35.3950   38.9960 H   0  0  0  0  0  0  0  0  0  0  0  0
   49.1710   33.9550   39.5720 H   0  0  0  0  0  0  0  0  0  0  0  0
   46.4810   34.0990   38.9630 H   0  0  0  0  0  0  0  0  0  0  0  0
   47.2530   32.8730   40.0540 H   0  0  0  0  0  0  0  0  0  0  0  0
   45.5740   35.2690   40.7540 H   0  0  0  0  0  0  0  0  0  0  0  0
   44.4880   35.9810   44.8240 C   0  0  0  0  0  0  0  0  0  0  0  0
   45.2110   35.8960   43.6180 C   0  0  0  0  0  0  0  0  0  0  0  0
   46.0910   34.8040   43.4620 C   0  0  0  0  0  0  0  0  0  0  0  0
   46.1890   33.9020   44.4850 N   0  0  0  0  0  0  0  0  0  0  0  0
   45.4650   34.0400   45.6220 C   0  0  0  0  0  0  0  0  0  0  0  0
   44.6120   35.0870   45.7860 N   0  0  0  0  0  0  0  0  0  0  0  0
   43.8390   36.8470   44.8600 H   0  0  0  0  0  0  0  0  0  0  0  0
   45.1430   36.6040   42.8020 H   0  0  0  0  0  0  0  0  0  0  0  0
   45.5380   33.3330   46.4260 H   0  0  0  0  0  0  0  0  0  0  0  0
   45.2330   33.3240   41.2740 O   0  0  0  0  0  0  0  0  0  0  0  0
   43.5240   35.5600   40.1560 H   0  0  0  0  0  0  0  0  0  0  0  0
   43.8930   34.6050   39.9790 N   0  0  0  0  0  0  0  0  0  0  0  0
   43.2030   33.8980   38.9430 C   0  0  0  0  0  2  0  0  0  0  0  0
   42.1270   33.1470   39.6990 C   0  0  0  0  0  2  0  0  0  0  0  0
   42.9400   32.6300   40.8850 C   0  0  0  0  0  2  0  0  0  0  0  0
   43.9210   33.7590   41.1660 C   0  0  1  0  0  3  0  0  0  0  0  0
  1  2  1  0  0  0  0
  1 18  1  0  0  0  0
  2  7  1  0  0  0  0
  3  9  1  0  0  0  0
  3 10  1  0  0  0  0
  3  2  1  0  0  0  0
  4  5  1  0  0  0  0
  4  3  1  0  0  0  0
  5 14  1  0  0  0  0
  5  6  1  0  0  0  0
  6 15  1  6  0  0  0
  6 25  1  0  0  0  0
  6  1  1  0  0  0  0
  8  2  1  0  0  0  0
 11  4  1  0  0  0  0
 12  4  1  0  0  0  0
 13  5  1  0  0  0  0
 16 22  1  0  0  0  0
 16 21  1  0  0  0  0
 17 16  2  0  0  0  0
 18 17  1  0  0  0  0
 18 19  2  0  0  0  0
 19 20  1  0  0  0  0
 20 21  2  0  0  0  0
 20 24  1  0  0  0  0
 23 17  1  0  0  0  0
 27 26  1  0  0  0  0
 27 31  1  0  0  0  0
 28 29  1  0  0  0  0
 28 27  1  0  0  0  0
 29 30  1  0  0  0  0
 30 31  1  0  0  0  0
 31 25  1  6  0  0  0
M  END
>  <minimizedAffinity>
-5.42189217

>  <minimizedRMSD>
0.541560709

$$$$
