
 OpenBabel03252508493D

 25 27  0  0  0  0  0  0  0  0999 V2000
   45.9000   34.1770   41.0170 C   0  0  0  0  0  0  0  0  0  0  0  0
   46.5090   34.8030   42.1250 C   0  0  0  0  0  0  0  0  0  0  0  0
   47.8560   35.1520   41.9970 C   0  0  0  0  0  0  0  0  0  0  0  0
   48.4910   34.8670   40.8160 N   0  0  0  0  0  0  0  0  0  0  0  0
   47.8720   34.2740   39.7980 C   0  0  0  0  0  0  0  0  0  0  0  0
   46.5730   33.9280   39.8960 N   0  0  0  0  0  0  0  0  0  0  0  0
   48.3520   35.6350   42.8320 H   0  0  0  0  0  0  0  0  0  0  0  0
   48.3670   34.0450   38.8630 H   0  0  0  0  0  0  0  0  0  0  0  0
   45.7400   35.0580   43.3310 C   0  0  0  0  0  0  0  0  0  0  0  0
   45.0710   36.2360   43.5690 C   0  0  0  0  0  0  0  0  0  0  0  0
   44.4960   36.0290   44.8080 C   0  0  0  0  0  0  0  0  0  0  0  0
   44.7980   34.7990   45.2910 N   0  0  0  0  0  0  0  0  0  0  0  0
   45.5510   34.2350   44.3770 N   0  0  0  0  0  0  0  0  0  0  0  0
   44.9890   37.1360   42.9580 H   0  0  0  0  0  0  0  0  0  0  0  0
   43.8720   36.7570   45.3440 H   0  0  0  0  0  0  0  0  0  0  0  0
   44.4650   34.4340   46.2160 H   0  0  0  0  0  0  0  0  0  0  0  0
   44.5750   33.8300   41.1320 O   0  0  0  0  0  0  0  0  0  0  0  0
   43.5160   34.4970   40.5730 C   0  0  0  0  0  0  0  0  0  0  0  0
   43.1620   35.7080   40.7470 O   0  0  0  0  0  0  0  0  0  0  0  0
   42.4750   34.1490   39.6580 N   0  0  0  0  0  0  0  0  0  0  0  0
   41.7260   35.2350   39.0540 C   0  0  0  0  0  2  0  0  0  0  0  0
   40.3870   34.5360   38.8120 C   0  0  0  0  0  2  0  0  0  0  0  0
   40.9340   33.2440   38.1890 C   0  0  0  0  0  2  0  0  0  0  0  0
   42.0010   32.8810   39.1990 C   0  0  0  0  0  3  0  0  0  0  0  0
   42.8100   32.2470   38.7750 H   0  0  0  0  0  0  0  0  0  0  0  0
  1 17  1  0  0  0  0
  1  2  1  0  0  0  0
  2  9  1  0  0  0  0
  3  2  2  0  0  0  0
  3  7  1  0  0  0  0
  4  3  1  0  0  0  0
  5  6  1  0  0  0  0
  5  4  2  0  0  0  0
  6  1  2  0  0  0  0
  8  5  1  0  0  0  0
  9 10  1  0  0  0  0
  9 13  2  0  0  0  0
 10 11  2  0  0  0  0
 11 12  1  0  0  0  0
 11 15  1  0  0  0  0
 12 16  1  0  0  0  0
 13 12  1  0  0  0  0
 14 10  1  0  0  0  0
 18 19  2  0  0  0  0
 18 17  1  0  0  0  0
 20 18  1  0  0  0  0
 21 20  1  0  0  0  0
 22 21  1  0  0  0  0
 23 22  1  0  0  0  0
 23 24  1  0  0  0  0
 24 20  1  0  0  0  0
 25 24  1  0  0  0  0
M  END
>  <minimizedAffinity>
-5.54186296

>  <minimizedRMSD>
0.426108867

$$$$
