
 OpenBabel03252500253D

 34 36  0  0  1  0  0  0  0  0999 V2000
   46.9370   30.3490   48.3050 C   0  0  2  0  0  0  0  0  0  0  0  0
   45.4810   30.5960   48.2330 C   0  0  2  0  0  0  0  0  0  0  0  0
   45.0300   29.6970   47.1380 C   0  0  0  0  0  0  0  0  0  0  0  0
   45.8700   28.5970   47.1260 O   0  0  0  0  0  0  0  0  0  0  0  0
   46.9190   28.8410   47.9500 C   0  0  0  0  0  0  0  0  0  0  0  0
   47.6680   30.7100   47.6460 H   0  0  0  0  0  0  0  0  0  0  0  0
   45.0910   30.2640   49.2340 H   0  0  0  0  0  0  0  0  0  0  0  0
   44.0440   29.2600   47.4880 H   0  0  0  0  0  0  0  0  0  0  0  0
   44.7700   30.1310   46.1800 H   0  0  0  0  0  0  0  0  0  0  0  0
   46.6860   28.3560   48.9410 H   0  0  0  0  0  0  0  0  0  0  0  0
   47.8900   28.4780   47.6200 H   0  0  0  0  0  0  0  0  0  0  0  0
   45.1590   31.9130   48.0000 O   0  0  0  0  0  0  0  0  0  0  0  0
   47.4020   32.9020   47.2260 O   0  0  0  0  0  0  0  0  0  0  0  0
   46.0410   32.5100   46.7210 P   0  0  1  0  0  0  0  0  0  0  0  0
   46.2260   31.2960   45.5540 O   0  0  0  0  0  0  0  0  0  0  0  0
   45.6800   31.5120   44.7560 H   0  0  0  0  0  0  0  0  0  0  0  0
   45.3220   33.9020   46.0350 O   0  0  0  0  0  0  0  0  0  0  0  0
   45.0960   35.8000   43.0290 C   0  0  0  0  0  0  0  0  0  0  0  0
   46.1700   35.3170   42.2240 C   0  0  0  0  0  0  0  0  0  0  0  0
   46.9720   34.2990   42.7830 C   0  0  0  0  0  0  0  0  0  0  0  0
   46.6730   33.8580   44.0240 N   0  0  0  0  0  0  0  0  0  0  0  0
   45.6420   34.3500   44.7480 C   0  0  0  0  0  0  0  0  0  0  0  0
   44.8630   35.3200   44.2390 N   0  0  0  0  0  0  0  0  0  0  0  0
   46.3880   35.6830   41.2410 H   0  0  0  0  0  0  0  0  0  0  0  0
   47.8060   33.8790   42.2370 H   0  0  0  0  0  0  0  0  0  0  0  0
   44.3220   36.7950   42.4740 O   0  0  0  0  0  0  0  0  0  0  0  0
   44.8380   37.5880   42.0630 H   0  0  0  0  0  0  0  0  0  0  0  0
   47.5030   30.5550   49.5310 O   0  0  0  0  0  0  0  0  0  0  0  0
   49.5110   28.3370   49.4560 H   0  0  0  0  0  0  0  0  0  0  0  0
   49.2280   29.2050   48.9520 N   0  0  0  0  0  0  0  0  0  0  0  0
   50.2430   29.7410   48.1000 C   0  0  0  0  0  2  0  0  0  0  0  0
   50.7850   30.9830   48.7650 C   0  0  0  0  0  2  0  0  0  0  0  0
   49.6210   31.4750   49.5900 C   0  0  0  0  0  2  0  0  0  0  0  0
   48.7480   30.2360   49.8300 C   0  0  1  0  0  3  0  0  0  0  0  0
  1  6  1  6  0  0  0
  1 28  1  0  0  0  0
  2  1  1  0  0  0  0
  2  7  1  1  0  0  0
  3  8  1  0  0  0  0
  3  2  1  0  0  0  0
  4  3  1  0  0  0  0
  4  5  1  0  0  0  0
  5  1  1  0  0  0  0
  5 10  1  0  0  0  0
  9  3  1  0  0  0  0
 11  5  1  0  0  0  0
 12  2  1  0  0  0  0
 14 13  2  1  0  0  0
 14 12  1  0  0  0  0
 15 14  1  0  0  0  0
 16 15  1  0  0  0  0
 17 14  1  0  0  0  0
 18 23  1  0  0  0  0
 19 20  1  0  0  0  0
 19 18  2  0  0  0  0
 20 21  2  0  0  0  0
 21 22  1  0  0  0  0
 22 17  1  0  0  0  0
 23 22  2  0  0  0  0
 24 19  1  0  0  0  0
 25 20  1  0  0  0  0
 26 18  1  0  0  0  0
 27 26  1  0  0  0  0
 30 29  1  0  0  0  0
 30 34  1  0  0  0  0
 31 32  1  0  0  0  0
 31 30  1  0  0  0  0
 32 33  1  0  0  0  0
 33 34  1  0  0  0  0
 34 28  1  6  0  0  0
M  END
>  <minimizedAffinity>
-4.54626608

>  <minimizedRMSD>
0.785949409

$$$$
