
 OpenBabel03252500253D

 34 36  0  0  1  0  0  0  0  0999 V2000
   46.9260   29.8470   47.8340 C   0  0  2  0  0  0  0  0  0  0  0  0
   45.5120   30.1880   48.1000 C   0  0  2  0  0  0  0  0  0  0  0  0
   44.7750   29.4800   47.0200 C   0  0  0  0  0  0  0  0  0  0  0  0
   45.4960   28.3440   46.6950 O   0  0  0  0  0  0  0  0  0  0  0  0
   46.7050   28.4080   47.3040 C   0  0  0  0  0  0  0  0  0  0  0  0
   47.5390   30.2530   47.0870 H   0  0  0  0  0  0  0  0  0  0  0  0
   45.3020   29.7430   49.1110 H   0  0  0  0  0  0  0  0  0  0  0  0
   43.8440   29.0580   47.5110 H   0  0  0  0  0  0  0  0  0  0  0  0
   44.3670   30.0590   46.1990 H   0  0  0  0  0  0  0  0  0  0  0  0
   46.6340   27.8040   48.2540 H   0  0  0  0  0  0  0  0  0  0  0  0
   47.5560   28.0370   46.7350 H   0  0  0  0  0  0  0  0  0  0  0  0
   45.2660   31.5420   48.1060 O   0  0  0  0  0  0  0  0  0  0  0  0
   47.4210   32.8300   47.5530 O   0  0  0  0  0  0  0  0  0  0  0  0
   46.1600   32.3020   46.9260 P   0  0  1  0  0  0  0  0  0  0  0  0
   46.5810   31.1750   45.7310 O   0  0  0  0  0  0  0  0  0  0  0  0
   46.0750   31.3620   44.9020 H   0  0  0  0  0  0  0  0  0  0  0  0
   45.3290   33.6270   46.2370 O   0  0  0  0  0  0  0  0  0  0  0  0
   45.1910   35.7510   43.3800 C   0  0  0  0  0  0  0  0  0  0  0  0
   46.2770   35.3160   42.5650 C   0  0  0  0  0  0  0  0  0  0  0  0
   47.0570   34.2490   43.0620 C   0  0  0  0  0  0  0  0  0  0  0  0
   46.7240   33.7200   44.2590 N   0  0  0  0  0  0  0  0  0  0  0  0
   45.6830   34.1680   44.9960 C   0  0  0  0  0  0  0  0  0  0  0  0
   44.9250   35.1830   44.5450 N   0  0  0  0  0  0  0  0  0  0  0  0
   46.5220   35.7530   41.6180 H   0  0  0  0  0  0  0  0  0  0  0  0
   47.8980   33.8620   42.5040 H   0  0  0  0  0  0  0  0  0  0  0  0
   44.4400   36.7930   42.8850 O   0  0  0  0  0  0  0  0  0  0  0  0
   44.9740   37.6090   42.5480 H   0  0  0  0  0  0  0  0  0  0  0  0
   47.7410   29.8450   48.9300 O   0  0  0  0  0  0  0  0  0  0  0  0
   49.6160   31.9960   49.8340 H   0  0  0  0  0  0  0  0  0  0  0  0
   49.3000   31.0310   50.0700 N   0  0  0  0  0  0  0  0  0  0  0  0
   50.2000   30.3140   50.9180 C   0  0  0  0  0  2  0  0  0  0  0  0
   50.8880   29.2720   50.0710 C   0  0  0  0  0  2  0  0  0  0  0  0
   49.8820   28.9820   48.9850 C   0  0  0  0  0  2  0  0  0  0  0  0
   49.0000   30.2360   48.9110 C   0  0  1  0  0  3  0  0  0  0  0  0
  1  6  1  6  0  0  0
  1  2  1  0  0  0  0
  1 28  1  0  0  0  0
  2 12  1  0  0  0  0
  2  7  1  1  0  0  0
  3  8  1  0  0  0  0
  3  2  1  0  0  0  0
  4  3  1  0  0  0  0
  4  5  1  0  0  0  0
  5  1  1  0  0  0  0
  5 10  1  0  0  0  0
  9  3  1  0  0  0  0
 11  5  1  0  0  0  0
 14 13  2  1  0  0  0
 14 12  1  0  0  0  0
 15 14  1  0  0  0  0
 16 15  1  0  0  0  0
 17 14  1  0  0  0  0
 18 23  1  0  0  0  0
 19 20  1  0  0  0  0
 19 18  2  0  0  0  0
 20 21  2  0  0  0  0
 21 22  1  0  0  0  0
 22 17  1  0  0  0  0
 23 22  2  0  0  0  0
 24 19  1  0  0  0  0
 25 20  1  0  0  0  0
 26 18  1  0  0  0  0
 27 26  1  0  0  0  0
 29 30  1  0  0  0  0
 30 31  1  0  0  0  0
 32 31  1  0  0  0  0
 33 32  1  0  0  0  0
 34 28  1  1  0  0  0
 34 33  1  0  0  0  0
 34 30  1  0  0  0  0
M  END
>  <minimizedAffinity>
-5.14623117

>  <minimizedRMSD>
0.318753511

$$$$
