
 OpenBabel03252500253D

 34 36  0  0  1  0  0  0  0  0999 V2000
   46.9840   29.8990   47.8680 C   0  0  2  0  0  0  0  0  0  0  0  0
   45.5750   30.2120   48.1900 C   0  0  2  0  0  0  0  0  0  0  0  0
   44.8070   29.4440   47.1750 C   0  0  0  0  0  0  0  0  0  0  0  0
   45.5450   28.3160   46.8560 O   0  0  0  0  0  0  0  0  0  0  0  0
   46.7800   28.4350   47.4020 C   0  0  0  0  0  0  0  0  0  0  0  0
   47.5480   30.2930   47.0770 H   0  0  0  0  0  0  0  0  0  0  0  0
   45.4270   29.7990   49.2260 H   0  0  0  0  0  0  0  0  0  0  0  0
   43.9140   29.0160   47.7260 H   0  0  0  0  0  0  0  0  0  0  0  0
   44.3440   29.9790   46.3540 H   0  0  0  0  0  0  0  0  0  0  0  0
   46.7710   27.8660   48.3760 H   0  0  0  0  0  0  0  0  0  0  0  0
   47.6120   28.0670   46.8060 H   0  0  0  0  0  0  0  0  0  0  0  0
   45.2910   31.5570   48.1590 O   0  0  0  0  0  0  0  0  0  0  0  0
   47.4290   32.8630   47.5820 O   0  0  0  0  0  0  0  0  0  0  0  0
   46.1730   32.3110   46.9660 P   0  0  1  0  0  0  0  0  0  0  0  0
   46.6040   31.1740   45.7860 O   0  0  0  0  0  0  0  0  0  0  0  0
   46.0930   31.3430   44.9550 H   0  0  0  0  0  0  0  0  0  0  0  0
   45.3230   33.6170   46.2620 O   0  0  0  0  0  0  0  0  0  0  0  0
   45.1910   35.7400   43.4040 C   0  0  0  0  0  0  0  0  0  0  0  0
   46.2770   35.3030   42.5890 C   0  0  0  0  0  0  0  0  0  0  0  0
   47.0540   34.2350   43.0870 C   0  0  0  0  0  0  0  0  0  0  0  0
   46.7200   33.7070   44.2840 N   0  0  0  0  0  0  0  0  0  0  0  0
   45.6790   34.1570   45.0200 C   0  0  0  0  0  0  0  0  0  0  0  0
   44.9240   35.1730   44.5680 N   0  0  0  0  0  0  0  0  0  0  0  0
   46.5220   35.7390   41.6410 H   0  0  0  0  0  0  0  0  0  0  0  0
   47.8950   33.8460   42.5300 H   0  0  0  0  0  0  0  0  0  0  0  0
   44.4410   36.7830   42.9080 O   0  0  0  0  0  0  0  0  0  0  0  0
   44.9770   37.5980   42.5700 H   0  0  0  0  0  0  0  0  0  0  0  0
   47.8500   29.9610   48.9210 O   0  0  0  0  0  0  0  0  0  0  0  0
   49.6800   32.3200   49.1150 H   0  0  0  0  0  0  0  0  0  0  0  0
   49.3590   31.4870   49.6520 N   0  0  0  0  0  0  0  0  0  0  0  0
   50.2260   31.1140   50.7240 C   0  0  0  0  0  0  0  0  0  0  0  0
   50.9510   29.8570   50.3050 C   0  0  0  0  0  0  0  0  0  0  0  0
   49.9900   29.2020   49.3450 C   0  0  0  0  0  0  0  0  0  0  0  0
   49.1090   30.3430   48.8180 C   0  0  1  0  0  0  0  0  0  0  0  0
  1  6  1  6  0  0  0
  1  2  1  0  0  0  0
  1 28  1  0  0  0  0
  2  7  1  1  0  0  0
  3  8  1  0  0  0  0
  3  2  1  0  0  0  0
  4  3  1  0  0  0  0
  4  5  1  0  0  0  0
  5  1  1  0  0  0  0
  5 10  1  0  0  0  0
  9  3  1  0  0  0  0
 11  5  1  0  0  0  0
 12  2  1  0  0  0  0
 14 13  2  1  0  0  0
 14 12  1  0  0  0  0
 15 14  1  0  0  0  0
 16 15  1  0  0  0  0
 17 14  1  0  0  0  0
 18 23  1  0  0  0  0
 19 20  1  0  0  0  0
 19 18  2  0  0  0  0
 20 21  2  0  0  0  0
 21 22  1  0  0  0  0
 22 17  1  0  0  0  0
 23 22  2  0  0  0  0
 24 19  1  0  0  0  0
 25 20  1  0  0  0  0
 26 18  1  0  0  0  0
 27 26  1  0  0  0  0
 29 30  1  0  0  0  0
 30 31  1  0  0  0  0
 32 31  1  0  0  0  0
 33 32  1  0  0  0  0
 34 28  1  1  0  0  0
 34 33  1  0  0  0  0
 34 30  1  0  0  0  0
M  END
>  <minimizedAffinity>
-5.14808464

>  <minimizedRMSD>
0.444731057

$$$$
