
 OpenBabel03252502233D

 31 33  0  0  1  0  0  0  0  0999 V2000
   46.8450   34.6080   42.2370 N   0  0  0  0  0  0  0  0  0  0  0  0
   48.2900   34.6830   42.2790 C   0  0  0  0  0  0  0  0  0  0  0  0
   48.6790   35.4170   41.0020 C   0  0  0  0  0  0  0  0  0  0  0  0
   48.2940   34.6090   39.7900 C   0  0  0  0  0  0  0  0  0  0  0  0
   46.9870   33.9180   39.8940 C   0  0  0  0  0  0  0  0  0  0  0  0
   46.1150   34.3290   41.0310 C   0  0  1  0  0  0  0  0  0  0  0  0
   48.6490   35.2790   43.1410 H   0  0  0  0  0  0  0  0  0  0  0  0
   48.7130   33.6830   42.2170 H   0  0  0  0  0  0  0  0  0  0  0  0
   49.7910   35.5190   41.0330 H   0  0  0  0  0  0  0  0  0  0  0  0
   48.1710   36.3940   41.0400 H   0  0  0  0  0  0  0  0  0  0  0  0
   48.2830   35.3180   38.9350 H   0  0  0  0  0  0  0  0  0  0  0  0
   49.1230   33.8870   39.5320 H   0  0  0  0  0  0  0  0  0  0  0  0
   46.4300   34.0280   38.9360 H   0  0  0  0  0  0  0  0  0  0  0  0
   47.2050   32.8190   40.0450 H   0  0  0  0  0  0  0  0  0  0  0  0
   45.5370   35.2330   40.7120 H   0  0  0  0  0  0  0  0  0  0  0  0
   44.4900   36.0290   44.7810 C   0  0  0  0  0  0  0  0  0  0  0  0
   45.2060   35.9210   43.5730 C   0  0  0  0  0  0  0  0  0  0  0  0
   46.0700   34.8150   43.4250 C   0  0  0  0  0  0  0  0  0  0  0  0
   46.1580   33.9210   44.4560 N   0  0  0  0  0  0  0  0  0  0  0  0
   45.4410   34.0810   45.5940 C   0  0  0  0  0  0  0  0  0  0  0  0
   44.6040   35.1430   45.7510 N   0  0  0  0  0  0  0  0  0  0  0  0
   43.8530   36.9040   44.8110 H   0  0  0  0  0  0  0  0  0  0  0  0
   45.1450   36.6220   42.7500 H   0  0  0  0  0  0  0  0  0  0  0  0
   45.5070   33.3810   46.4050 H   0  0  0  0  0  0  0  0  0  0  0  0
   45.1930   33.2980   41.2690 O   0  0  0  0  0  0  0  0  0  0  0  0
   43.4940   35.5430   40.1530 H   0  0  0  0  0  0  0  0  0  0  0  0
   43.8650   34.5910   39.9720 N   0  0  0  0  0  0  0  0  0  0  0  0
   43.1870   33.8930   38.9220 C   0  0  0  0  0  2  0  0  0  0  0  0
   42.1040   33.1330   39.6590 C   0  0  0  0  0  2  0  0  0  0  0  0
   42.9060   32.6060   40.8480 C   0  0  0  0  0  2  0  0  0  0  0  0
   43.8820   33.7330   41.1510 C   0  0  1  0  0  3  0  0  0  0  0  0
  1  2  1  0  0  0  0
  1 18  1  0  0  0  0
  2  7  1  0  0  0  0
  3  9  1  0  0  0  0
  3 10  1  0  0  0  0
  3  2  1  0  0  0  0
  4  5  1  0  0  0  0
  4  3  1  0  0  0  0
  5 14  1  0  0  0  0
  5  6  1  0  0  0  0
  6 15  1  6  0  0  0
  6 25  1  0  0  0  0
  6  1  1  0  0  0  0
  8  2  1  0  0  0  0
 11  4  1  0  0  0  0
 12  4  1  0  0  0  0
 13  5  1  0  0  0  0
 16 22  1  0  0  0  0
 16 21  1  0  0  0  0
 17 16  2  0  0  0  0
 18 17  1  0  0  0  0
 18 19  2  0  0  0  0
 19 20  1  0  0  0  0
 20 21  2  0  0  0  0
 20 24  1  0  0  0  0
 23 17  1  0  0  0  0
 27 26  1  0  0  0  0
 27 31  1  0  0  0  0
 28 29  1  0  0  0  0
 28 27  1  0  0  0  0
 29 30  1  0  0  0  0
 30 31  1  0  0  0  0
 31 25  1  6  0  0  0
M  END
>  <minimizedAffinity>
-5.42594957

>  <minimizedRMSD>
0.257162541

$$$$
