
 OpenBabel03252500253D

 34 36  0  0  1  0  0  0  0  0999 V2000
   47.1330   29.7070   47.5320 C   0  0  2  0  0  0  0  0  0  0  0  0
   46.0820   30.5020   48.2020 C   0  0  2  0  0  0  0  0  0  0  0  0
   44.8200   29.9550   47.6360 C   0  0  0  0  0  0  0  0  0  0  0  0
   45.0390   28.6230   47.3310 O   0  0  0  0  0  0  0  0  0  0  0  0
   46.3650   28.3640   47.4420 C   0  0  0  0  0  0  0  0  0  0  0  0
   47.4720   29.8200   46.5460 H   0  0  0  0  0  0  0  0  0  0  0  0
   46.1940   30.2510   49.2920 H   0  0  0  0  0  0  0  0  0  0  0  0
   44.0930   29.9010   48.5060 H   0  0  0  0  0  0  0  0  0  0  0  0
   44.2740   30.5460   46.9090 H   0  0  0  0  0  0  0  0  0  0  0  0
   46.5350   27.9140   48.4620 H   0  0  0  0  0  0  0  0  0  0  0  0
   46.7910   27.6880   46.7030 H   0  0  0  0  0  0  0  0  0  0  0  0
   46.2060   31.8570   48.0000 O   0  0  0  0  0  0  0  0  0  0  0  0
   47.4740   32.2130   45.7920 O   0  0  0  0  0  0  0  0  0  0  0  0
   46.0900   32.2180   46.3790 P   0  0  1  0  0  0  0  0  0  0  0  0
   45.1700   31.0230   45.6060 O   0  0  0  0  0  0  0  0  0  0  0  0
   44.2930   31.3960   45.3390 H   0  0  0  0  0  0  0  0  0  0  0  0
   45.4160   33.7660   46.1090 O   0  0  0  0  0  0  0  0  0  0  0  0
   44.9430   36.1630   43.5160 C   0  0  0  0  0  0  0  0  0  0  0  0
   44.7560   35.3780   42.3400 C   0  0  0  0  0  0  0  0  0  0  0  0
   44.8030   33.9760   42.4990 C   0  0  0  0  0  0  0  0  0  0  0  0
   45.0190   33.4810   43.7360 N   0  0  0  0  0  0  0  0  0  0  0  0
   45.1910   34.2670   44.8220 C   0  0  0  0  0  0  0  0  0  0  0  0
   45.1510   35.6060   44.6980 N   0  0  0  0  0  0  0  0  0  0  0  0
   44.5860   35.7950   41.3680 H   0  0  0  0  0  0  0  0  0  0  0  0
   44.6710   33.3120   41.6560 H   0  0  0  0  0  0  0  0  0  0  0  0
   44.8960   37.5290   43.3490 O   0  0  0  0  0  0  0  0  0  0  0  0
   45.4720   37.9050   42.5800 H   0  0  0  0  0  0  0  0  0  0  0  0
   48.2920   29.5610   48.2390 O   0  0  0  0  0  0  0  0  0  0  0  0
   50.0230   28.4470   46.0670 H   0  0  0  0  0  0  0  0  0  0  0  0
   50.0510   29.0860   46.8900 N   0  0  0  0  0  0  0  0  0  0  0  0
   51.3660   29.3420   47.3860 C   0  0  0  0  0  2  0  0  0  0  0  0
   51.5160   28.5870   48.6840 C   0  0  0  0  0  2  0  0  0  0  0  0
   50.1030   28.5050   49.2080 C   0  0  0  0  0  2  0  0  0  0  0  0
   49.2080   28.6500   47.9700 C   0  0  1  0  0  3  0  0  0  0  0  0
  1  6  1  6  0  0  0
  1  2  1  0  0  0  0
  1 28  1  0  0  0  0
  2  7  1  1  0  0  0
  3  2  1  0  0  0  0
  3  8  1  0  0  0  0
  4  5  1  0  0  0  0
  4  3  1  0  0  0  0
  5  1  1  0  0  0  0
  5 10  1  0  0  0  0
  9  3  1  0  0  0  0
 11  5  1  0  0  0  0
 12  2  1  0  0  0  0
 14 13  2  6  0  0  0
 14 12  1  0  0  0  0
 15 14  1  0  0  0  0
 16 15  1  0  0  0  0
 17 14  1  0  0  0  0
 18 23  1  0  0  0  0
 19 20  1  0  0  0  0
 19 18  2  0  0  0  0
 20 21  2  0  0  0  0
 21 22  1  0  0  0  0
 22 17  1  0  0  0  0
 23 22  2  0  0  0  0
 24 19  1  0  0  0  0
 25 20  1  0  0  0  0
 26 18  1  0  0  0  0
 27 26  1  0  0  0  0
 29 30  1  0  0  0  0
 30 31  1  0  0  0  0
 30 34  1  0  0  0  0
 31 32  1  0  0  0  0
 32 33  1  0  0  0  0
 34 28  1  1  0  0  0
 34 33  1  0  0  0  0
M  END
>  <minimizedAffinity>
-4.60743523

>  <minimizedRMSD>
1.99562621

$$$$
