
 OpenBabel03252508493D

 25 27  0  0  0  0  0  0  0  0999 V2000
   45.9100   34.1320   41.0180 C   0  0  0  0  0  0  0  0  0  0  0  0
   46.5100   34.7900   42.1120 C   0  0  0  0  0  0  0  0  0  0  0  0
   47.8470   35.1700   41.9690 C   0  0  0  0  0  0  0  0  0  0  0  0
   48.4820   34.8830   40.7890 N   0  0  0  0  0  0  0  0  0  0  0  0
   47.8700   34.2590   39.7840 C   0  0  0  0  0  0  0  0  0  0  0  0
   46.5810   33.8820   39.8970 N   0  0  0  0  0  0  0  0  0  0  0  0
   48.3370   35.6790   42.7940 H   0  0  0  0  0  0  0  0  0  0  0  0
   48.3650   34.0290   38.8490 H   0  0  0  0  0  0  0  0  0  0  0  0
   45.7430   35.0450   43.3190 C   0  0  0  0  0  0  0  0  0  0  0  0
   45.0670   36.2180   43.5550 C   0  0  0  0  0  0  0  0  0  0  0  0
   44.4970   36.0130   44.7960 C   0  0  0  0  0  0  0  0  0  0  0  0
   44.8090   34.7860   45.2830 N   0  0  0  0  0  0  0  0  0  0  0  0
   45.5630   34.2240   44.3690 N   0  0  0  0  0  0  0  0  0  0  0  0
   44.9770   37.1160   42.9410 H   0  0  0  0  0  0  0  0  0  0  0  0
   43.8700   36.7380   45.3320 H   0  0  0  0  0  0  0  0  0  0  0  0
   44.4810   34.4230   46.2110 H   0  0  0  0  0  0  0  0  0  0  0  0
   44.5940   33.7540   41.1480 O   0  0  0  0  0  0  0  0  0  0  0  0
   43.5090   34.4290   40.6540 C   0  0  0  0  0  0  0  0  0  0  0  0
   43.3240   35.6870   40.5850 O   0  0  0  0  0  0  0  0  0  0  0  0
   42.2630   34.0450   40.0700 N   0  0  0  0  0  0  0  0  0  0  0  0
   42.2860   33.5620   38.7030 C   0  0  0  0  0  2  0  0  0  0  0  0
   40.8820   33.9680   38.2510 C   0  0  0  0  0  2  0  0  0  0  0  0
   40.1090   33.4490   39.4710 C   0  0  0  0  0  2  0  0  0  0  0  0
   40.9320   34.0450   40.5930 C   0  0  0  0  0  3  0  0  0  0  0  0
   40.8450   33.4840   41.5480 H   0  0  0  0  0  0  0  0  0  0  0  0
  1 17  1  0  0  0  0
  1  2  1  0  0  0  0
  2  9  1  0  0  0  0
  3  2  2  0  0  0  0
  3  7  1  0  0  0  0
  4  3  1  0  0  0  0
  5  6  1  0  0  0  0
  5  4  2  0  0  0  0
  6  1  2  0  0  0  0
  8  5  1  0  0  0  0
  9 10  1  0  0  0  0
  9 13  2  0  0  0  0
 10 11  2  0  0  0  0
 11 12  1  0  0  0  0
 11 15  1  0  0  0  0
 12 16  1  0  0  0  0
 13 12  1  0  0  0  0
 14 10  1  0  0  0  0
 18 17  1  0  0  0  0
 19 18  2  0  0  0  0
 20 24  1  0  0  0  0
 20 18  1  0  0  0  0
 21 20  1  0  0  0  0
 22 21  1  0  0  0  0
 22 23  1  0  0  0  0
 23 24  1  0  0  0  0
 24 25  1  0  0  0  0
M  END
>  <minimizedAffinity>
-5.43054438

>  <minimizedRMSD>
0.640672207

$$$$
