
 OpenBabel03242510213D

 35 38  0  0  1  0  0  0  0  0999 V2000
   48.0630   33.2500   43.2130 N   0  0  0  0  0  0  0  0  0  0  0  0
   49.2270   33.2950   42.4490 C   0  0  0  0  0  0  0  0  0  0  0  0
   50.3860   32.8750   42.6970 O   0  0  0  0  0  0  0  0  0  0  0  0
   47.5340   34.1640   43.1610 H   0  0  0  0  0  0  0  0  0  0  0  0
   46.2940   32.1100   44.5040 C   0  0  1  0  0  0  0  0  0  0  0  0
   46.4510   31.3650   43.3300 C   0  0  0  0  0  0  0  0  0  0  0  0
   47.6710   32.1050   43.9590 C   0  0  1  0  0  0  0  0  0  0  0  0
   46.1040   31.6410   45.4960 H   0  0  0  0  0  0  0  0  0  0  0  0
   46.2380   31.6100   42.2750 H   0  0  0  0  0  0  0  0  0  0  0  0
   46.5300   30.2390   43.4320 H   0  0  0  0  0  0  0  0  0  0  0  0
   48.4800   31.4060   44.2650 H   0  0  0  0  0  0  0  0  0  0  0  0
   45.0600   33.9800   43.1760 C   0  0  0  0  0  0  0  0  0  0  0  0
   45.5460   33.4470   44.4160 C   0  0  0  0  0  0  0  0  0  0  0  0
   45.3390   34.2000   45.5550 C   0  0  0  0  0  0  0  0  0  0  0  0
   44.6990   35.3850   45.4500 N   0  0  0  0  0  0  0  0  0  0  0  0
   44.2460   35.8760   44.2680 C   0  0  0  0  0  0  0  0  0  0  0  0
   44.4380   35.1410   43.0960 N   0  0  0  0  0  0  0  0  0  0  0  0
   45.2350   33.3480   42.3540 H   0  0  0  0  0  0  0  0  0  0  0  0
   45.6880   33.8400   46.5100 H   0  0  0  0  0  0  0  0  0  0  0  0
   43.7400   36.8310   44.2420 H   0  0  0  0  0  0  0  0  0  0  0  0
   49.1840   33.9310   41.0730 C   0  0  2  0  0  0  0  0  0  0  0  0
   48.6690   35.4200   41.0120 C   0  0  0  0  0  0  0  0  0  0  0  0
   47.9140   34.2720   40.4260 C   0  0  1  0  0  0  0  0  0  0  0  0
   50.0890   33.8370   40.4380 H   0  0  0  0  0  0  0  0  0  0  0  0
   48.3590   35.7980   42.0120 H   0  0  0  0  0  0  0  0  0  0  0  0
   49.1310   36.0870   40.2910 H   0  0  0  0  0  0  0  0  0  0  0  0
   46.9750   33.9300   40.9110 H   0  0  0  0  0  0  0  0  0  0  0  0
   47.8440   34.1860   38.9200 C   0  0  0  0  0  0  0  0  0  0  0  0
   48.5990   34.8470   38.2240 O   0  0  0  0  0  0  0  0  0  0  0  0
   46.8940   33.3270   38.2970 N   0  0  0  0  0  0  0  0  0  0  0  0
   46.9450   32.6090   37.0230 C   0  0  0  0  0  0  0  0  0  0  0  0
   45.5590   32.7700   36.4440 C   0  0  0  0  0  0  0  0  0  0  0  0
   44.6610   33.0930   37.6220 C   0  0  0  0  0  0  0  0  0  0  0  0
   45.5980   32.9460   38.8000 C   0  0  0  0  0  0  0  0  0  0  0  0
   45.6630   31.8770   39.1070 H   0  0  0  0  0  0  0  0  0  0  0  0
  1  7  1  0  0  0  0
  2  3  2  0  0  0  0
  2  1  1  0  0  0  0
  4  1  1  0  0  0  0
  5  8  1  1  0  0  0
  6 10  1  0  0  0  0
  6  7  1  0  0  0  0
  6  5  1  0  0  0  0
  7 11  1  1  0  0  0
  7  5  1  0  0  0  0
  9  6  1  0  0  0  0
 12 13  1  0  0  0  0
 13  5  1  0  0  0  0
 13 14  2  0  0  0  0
 14 19  1  0  0  0  0
 15 14  1  0  0  0  0
 16 15  2  0  0  0  0
 17 12  2  0  0  0  0
 17 16  1  0  0  0  0
 18 12  1  0  0  0  0
 20 16  1  0  0  0  0
 21 24  1  6  0  0  0
 21  2  1  0  0  0  0
 22 21  1  0  0  0  0
 22 25  1  0  0  0  0
 23 27  1  1  0  0  0
 23 22  1  0  0  0  0
 23 21  1  0  0  0  0
 26 22  1  0  0  0  0
 28 23  1  0  0  0  0
 29 28  2  0  0  0  0
 30 34  1  0  0  0  0
 30 28  1  0  0  0  0
 31 30  1  0  0  0  0
 32 31  1  0  0  0  0
 32 33  1  0  0  0  0
 33 34  1  0  0  0  0
 34 35  1  0  0  0  0
M  END
>  <minimizedAffinity>
-5.09206486

>  <minimizedRMSD>
0.152766615

$$$$
