
 OpenBabel03252500253D

 34 36  0  0  1  0  0  0  0  0999 V2000
   47.3450   30.0990   48.1580 C   0  0  2  0  0  0  0  0  0  0  0  0
   45.8850   30.2430   48.3420 C   0  0  2  0  0  0  0  0  0  0  0  0
   45.3130   29.3320   47.3150 C   0  0  0  0  0  0  0  0  0  0  0  0
   46.2110   28.2950   47.1290 O   0  0  0  0  0  0  0  0  0  0  0  0
   47.3670   28.5990   47.7680 C   0  0  0  0  0  0  0  0  0  0  0  0
   47.9250   30.5210   47.3940 H   0  0  0  0  0  0  0  0  0  0  0  0
   45.6960   29.8680   49.3850 H   0  0  0  0  0  0  0  0  0  0  0  0
   44.4340   28.8210   47.8160 H   0  0  0  0  0  0  0  0  0  0  0  0
   44.8630   29.7620   46.4280 H   0  0  0  0  0  0  0  0  0  0  0  0
   47.3410   28.0830   48.7700 H   0  0  0  0  0  0  0  0  0  0  0  0
   48.2890   28.3110   47.2670 H   0  0  0  0  0  0  0  0  0  0  0  0
   45.4400   31.5380   48.2040 O   0  0  0  0  0  0  0  0  0  0  0  0
   47.5210   32.9310   47.6250 O   0  0  0  0  0  0  0  0  0  0  0  0
   46.2920   32.3220   47.0090 P   0  0  1  0  0  0  0  0  0  0  0  0
   46.7750   31.1980   45.8370 O   0  0  0  0  0  0  0  0  0  0  0  0
   46.2600   31.3400   45.0040 H   0  0  0  0  0  0  0  0  0  0  0  0
   45.3890   33.5860   46.2960 O   0  0  0  0  0  0  0  0  0  0  0  0
   45.1940   35.7100   43.4420 C   0  0  0  0  0  0  0  0  0  0  0  0
   46.2630   35.2740   42.6040 C   0  0  0  0  0  0  0  0  0  0  0  0
   47.0510   34.2060   43.0850 C   0  0  0  0  0  0  0  0  0  0  0  0
   46.7430   33.6770   44.2890 N   0  0  0  0  0  0  0  0  0  0  0  0
   45.7170   34.1260   45.0470 C   0  0  0  0  0  0  0  0  0  0  0  0
   44.9520   35.1420   44.6120 N   0  0  0  0  0  0  0  0  0  0  0  0
   46.4880   35.7110   41.6520 H   0  0  0  0  0  0  0  0  0  0  0  0
   47.8800   33.8180   42.5100 H   0  0  0  0  0  0  0  0  0  0  0  0
   44.4340   36.7530   42.9620 O   0  0  0  0  0  0  0  0  0  0  0  0
   44.9610   37.5680   42.6140 H   0  0  0  0  0  0  0  0  0  0  0  0
   48.0990   30.3240   49.2740 O   0  0  0  0  0  0  0  0  0  0  0  0
   50.4700   31.9580   48.4610 H   0  0  0  0  0  0  0  0  0  0  0  0
   49.8850   31.7190   49.2900 N   0  0  0  0  0  0  0  0  0  0  0  0
   50.5110   31.9960   50.5440 C   0  0  0  0  0  2  0  0  0  0  0  0
   50.9050   30.6740   51.1550 C   0  0  0  0  0  2  0  0  0  0  0  0
   49.9020   29.7060   50.5780 C   0  0  0  0  0  2  0  0  0  0  0  0
   49.4170   30.3600   49.2770 C   0  0  1  0  0  3  0  0  0  0  0  0
  1  6  1  6  0  0  0
  1  2  1  0  0  0  0
  1 28  1  0  0  0  0
  2  7  1  1  0  0  0
  3  8  1  0  0  0  0
  3  2  1  0  0  0  0
  4  3  1  0  0  0  0
  4  5  1  0  0  0  0
  5  1  1  0  0  0  0
  5 10  1  0  0  0  0
  9  3  1  0  0  0  0
 11  5  1  0  0  0  0
 12  2  1  0  0  0  0
 14 13  2  1  0  0  0
 14 12  1  0  0  0  0
 15 14  1  0  0  0  0
 16 15  1  0  0  0  0
 17 14  1  0  0  0  0
 18 23  1  0  0  0  0
 19 20  1  0  0  0  0
 19 18  2  0  0  0  0
 20 21  2  0  0  0  0
 21 22  1  0  0  0  0
 22 17  1  0  0  0  0
 23 22  2  0  0  0  0
 24 19  1  0  0  0  0
 25 20  1  0  0  0  0
 26 18  1  0  0  0  0
 27 26  1  0  0  0  0
 29 30  1  0  0  0  0
 30 31  1  0  0  0  0
 31 32  1  0  0  0  0
 33 32  1  0  0  0  0
 34 28  1  1  0  0  0
 34 30  1  0  0  0  0
 34 33  1  0  0  0  0
M  END
>  <minimizedAffinity>
-5.06792355

>  <minimizedRMSD>
0.735043824

$$$$
