
 OpenBabel03252503273D

 22 23  0  0  0  0  0  0  0  0999 V2000
   45.1530   34.9260   42.9460 C   0  0  0  0  0  0  0  0  0  0  0  0
   46.2050   35.3050   42.0730 C   0  0  0  0  0  0  0  0  0  0  0  0
   47.4810   34.8220   42.3990 C   0  0  0  0  0  0  0  0  0  0  0  0
   47.6130   34.0480   43.4940 N   0  0  0  0  0  0  0  0  0  0  0  0
   46.5820   33.7140   44.2940 C   0  0  0  0  0  0  0  0  0  0  0  0
   45.3430   34.1600   44.0140 N   0  0  0  0  0  0  0  0  0  0  0  0
   43.2320   34.6470   41.6310 C   0  0  0  0  0  0  0  0  0  0  0  0
   43.9150   33.7710   41.0360 O   0  0  0  0  0  0  0  0  0  0  0  0
   43.8140   35.3720   42.6960 N   0  0  0  0  0  0  0  0  0  0  0  0
   46.0000   35.9240   41.2270 H   0  0  0  0  0  0  0  0  0  0  0  0
   46.7210   33.0890   45.1690 H   0  0  0  0  0  0  0  0  0  0  0  0
   43.2570   36.1000   43.1590 H   0  0  0  0  0  0  0  0  0  0  0  0
   41.9010   34.8280   41.1580 N   0  0  0  0  0  0  0  0  0  0  0  0
   41.4700   34.2950   39.8770 C   0  0  0  0  0  0  0  0  0  0  0  0
   40.4670   35.3360   39.4260 C   0  0  0  0  0  0  0  0  0  0  0  0
   40.2660   36.3010   40.5660 C   0  0  0  0  0  0  0  0  0  0  0  0
   40.7640   35.5080   41.7570 C   0  0  0  0  0  0  0  0  0  0  0  0
   39.9920   34.8010   42.1060 H   0  0  0  0  0  0  0  0  0  0  0  0
   48.5440   35.2270   41.4820 C   0  0  0  0  0  0  0  0  0  0  0  0
   49.6510   34.4100   41.6790 F   0  0  0  0  0  0  0  0  0  0  0  0
   48.9550   36.5010   41.8710 F   0  0  0  0  0  0  0  0  0  0  0  0
   48.1970   35.1490   40.1610 F   0  0  0  0  0  0  0  0  0  0  0  0
  1  6  1  0  0  0  0
  2  3  1  0  0  0  0
  2  1  2  0  0  0  0
  3  4  2  0  0  0  0
  4  5  1  0  0  0  0
  5 11  1  0  0  0  0
  6  5  2  0  0  0  0
  7  9  1  0  0  0  0
  8  7  2  0  0  0  0
  9  1  1  0  0  0  0
  9 12  1  0  0  0  0
 10  2  1  0  0  0  0
 13  7  1  0  0  0  0
 13 17  1  0  0  0  0
 14 13  1  0  0  0  0
 15 14  1  0  0  0  0
 15 16  1  0  0  0  0
 16 17  1  0  0  0  0
 17 18  1  0  0  0  0
 19 20  1  0  0  0  0
 19 21  1  0  0  0  0
 19  3  1  0  0  0  0
 22 19  1  0  0  0  0
M  END
>  <minimizedAffinity>
-6.39436913

>  <minimizedRMSD>
0.744944632

$$$$
