
 OpenBabel03252500253D

 34 36  0  0  1  0  0  0  0  0999 V2000
   46.8400   30.0830   48.1150 C   0  0  2  0  0  0  0  0  0  0  0  0
   45.4040   30.4190   48.2170 C   0  0  2  0  0  0  0  0  0  0  0  0
   44.7830   29.6230   47.1250 C   0  0  0  0  0  0  0  0  0  0  0  0
   45.5440   28.4790   46.9550 O   0  0  0  0  0  0  0  0  0  0  0  0
   46.6870   28.6060   47.6730 C   0  0  0  0  0  0  0  0  0  0  0  0
   47.5200   30.4450   47.4040 H   0  0  0  0  0  0  0  0  0  0  0  0
   45.1000   30.0430   49.2320 H   0  0  0  0  0  0  0  0  0  0  0  0
   43.8130   29.2210   47.5530 H   0  0  0  0  0  0  0  0  0  0  0  0
   44.4520   30.1340   46.2290 H   0  0  0  0  0  0  0  0  0  0  0  0
   46.5290   28.0700   48.6530 H   0  0  0  0  0  0  0  0  0  0  0  0
   47.5930   28.2100   47.2180 H   0  0  0  0  0  0  0  0  0  0  0  0
   45.1450   31.7650   48.1000 O   0  0  0  0  0  0  0  0  0  0  0  0
   47.3610   32.8790   47.4230 O   0  0  0  0  0  0  0  0  0  0  0  0
   46.0420   32.4250   46.8630 P   0  0  1  0  0  0  0  0  0  0  0  0
   46.3320   31.2380   45.6890 O   0  0  0  0  0  0  0  0  0  0  0  0
   45.8070   31.4370   44.8740 H   0  0  0  0  0  0  0  0  0  0  0  0
   45.2770   33.7860   46.1660 O   0  0  0  0  0  0  0  0  0  0  0  0
   45.2140   35.8680   43.2760 C   0  0  0  0  0  0  0  0  0  0  0  0
   46.2770   35.3750   42.4630 C   0  0  0  0  0  0  0  0  0  0  0  0
   47.0130   34.2840   42.9740 C   0  0  0  0  0  0  0  0  0  0  0  0
   46.6650   33.7880   44.1810 N   0  0  0  0  0  0  0  0  0  0  0  0
   45.6470   34.2910   44.9140 C   0  0  0  0  0  0  0  0  0  0  0  0
   44.9310   35.3300   44.4510 N   0  0  0  0  0  0  0  0  0  0  0  0
   46.5340   35.7860   41.5070 H   0  0  0  0  0  0  0  0  0  0  0  0
   47.8340   33.8530   42.4180 H   0  0  0  0  0  0  0  0  0  0  0  0
   44.5050   36.9330   42.7670 O   0  0  0  0  0  0  0  0  0  0  0  0
   45.0700   37.7200   42.4140 H   0  0  0  0  0  0  0  0  0  0  0  0
   47.5440   30.1740   49.2830 O   0  0  0  0  0  0  0  0  0  0  0  0
   49.8270   30.6260   51.1630 H   0  0  0  0  0  0  0  0  0  0  0  0
   49.4700   29.9500   50.4560 N   0  0  0  0  0  0  0  0  0  0  0  0
   50.4650   29.0580   49.9490 C   0  0  0  0  0  2  0  0  0  0  0  0
   50.7870   29.4910   48.5400 C   0  0  0  0  0  2  0  0  0  0  0  0
   49.5110   30.1480   48.0740 C   0  0  0  0  0  2  0  0  0  0  0  0
   48.7940   30.5870   49.3580 C   0  0  1  0  0  3  0  0  0  0  0  0
  1  6  1  6  0  0  0
  1  2  1  0  0  0  0
  1 28  1  0  0  0  0
  2  7  1  1  0  0  0
  3  8  1  0  0  0  0
  3  2  1  0  0  0  0
  4  3  1  0  0  0  0
  4  5  1  0  0  0  0
  5  1  1  0  0  0  0
  5 10  1  0  0  0  0
  9  3  1  0  0  0  0
 11  5  1  0  0  0  0
 12  2  1  0  0  0  0
 14 13  2  1  0  0  0
 14 12  1  0  0  0  0
 15 14  1  0  0  0  0
 16 15  1  0  0  0  0
 17 14  1  0  0  0  0
 18 23  1  0  0  0  0
 19 20  1  0  0  0  0
 19 18  2  0  0  0  0
 20 21  2  0  0  0  0
 21 22  1  0  0  0  0
 22 17  1  0  0  0  0
 23 22  2  0  0  0  0
 24 19  1  0  0  0  0
 25 20  1  0  0  0  0
 26 18  1  0  0  0  0
 27 26  1  0  0  0  0
 30 29  1  0  0  0  0
 31 30  1  0  0  0  0
 32 31  1  0  0  0  0
 33 32  1  0  0  0  0
 33 34  1  0  0  0  0
 34 28  1  6  0  0  0
 34 30  1  0  0  0  0
M  END
>  <minimizedAffinity>
-4.92790413

>  <minimizedRMSD>
0.428865075

$$$$
