
 OpenBabel03252508493D

 25 27  0  0  0  0  0  0  0  0999 V2000
   45.8920   34.1640   41.0240 C   0  0  0  0  0  0  0  0  0  0  0  0
   46.5030   34.7960   42.1270 C   0  0  0  0  0  0  0  0  0  0  0  0
   47.8480   35.1510   41.9910 C   0  0  0  0  0  0  0  0  0  0  0  0
   48.4790   34.8650   40.8080 N   0  0  0  0  0  0  0  0  0  0  0  0
   47.8570   34.2650   39.7950 C   0  0  0  0  0  0  0  0  0  0  0  0
   46.5600   33.9140   39.9010 N   0  0  0  0  0  0  0  0  0  0  0  0
   48.3460   35.6390   42.8230 H   0  0  0  0  0  0  0  0  0  0  0  0
   48.3480   34.0360   38.8580 H   0  0  0  0  0  0  0  0  0  0  0  0
   45.7390   35.0520   43.3360 C   0  0  0  0  0  0  0  0  0  0  0  0
   45.0870   36.2360   43.5850 C   0  0  0  0  0  0  0  0  0  0  0  0
   44.5100   36.0280   44.8220 C   0  0  0  0  0  0  0  0  0  0  0  0
   44.7950   34.7890   45.2940 N   0  0  0  0  0  0  0  0  0  0  0  0
   45.5390   34.2230   44.3750 N   0  0  0  0  0  0  0  0  0  0  0  0
   45.0170   37.1430   42.9810 H   0  0  0  0  0  0  0  0  0  0  0  0
   43.8970   36.7590   45.3660 H   0  0  0  0  0  0  0  0  0  0  0  0
   44.4580   34.4210   46.2170 H   0  0  0  0  0  0  0  0  0  0  0  0
   44.5690   33.8110   41.1470 O   0  0  0  0  0  0  0  0  0  0  0  0
   43.4970   34.5230   40.6740 C   0  0  0  0  0  0  0  0  0  0  0  0
   43.2970   35.7790   40.7280 O   0  0  0  0  0  0  0  0  0  0  0  0
   42.2860   34.1900   39.9940 N   0  0  0  0  0  0  0  0  0  0  0  0
   42.3150   34.1790   38.5440 C   0  0  0  0  0  2  0  0  0  0  0  0
   40.8540   34.5240   38.2440 C   0  0  0  0  0  2  0  0  0  0  0  0
   40.2010   33.5440   39.2290 C   0  0  0  0  0  2  0  0  0  0  0  0
   40.9860   33.8490   40.4850 C   0  0  0  0  0  3  0  0  0  0  0  0
   41.0070   33.0040   41.2070 H   0  0  0  0  0  0  0  0  0  0  0  0
  1 17  1  0  0  0  0
  1  2  1  0  0  0  0
  2  9  1  0  0  0  0
  3  2  2  0  0  0  0
  3  7  1  0  0  0  0
  4  3  1  0  0  0  0
  5  6  1  0  0  0  0
  5  4  2  0  0  0  0
  6  1  2  0  0  0  0
  8  5  1  0  0  0  0
  9 10  1  0  0  0  0
  9 13  2  0  0  0  0
 10 11  2  0  0  0  0
 11 12  1  0  0  0  0
 11 15  1  0  0  0  0
 12 16  1  0  0  0  0
 13 12  1  0  0  0  0
 14 10  1  0  0  0  0
 18 19  2  0  0  0  0
 18 17  1  0  0  0  0
 20 24  1  0  0  0  0
 20 18  1  0  0  0  0
 21 20  1  0  0  0  0
 22 21  1  0  0  0  0
 22 23  1  0  0  0  0
 23 24  1  0  0  0  0
 24 25  1  0  0  0  0
M  END
>  <minimizedAffinity>
-5.48929405

>  <minimizedRMSD>
0.630894482

$$$$
