
 OpenBabel03252508493D

 25 27  0  0  0  0  0  0  0  0999 V2000
   45.9480   34.1950   41.0230 C   0  0  0  0  0  0  0  0  0  0  0  0
   46.5420   34.8120   42.1440 C   0  0  0  0  0  0  0  0  0  0  0  0
   47.8910   35.1600   42.0370 C   0  0  0  0  0  0  0  0  0  0  0  0
   48.5430   34.8820   40.8630 N   0  0  0  0  0  0  0  0  0  0  0  0
   47.9360   34.2970   39.8320 C   0  0  0  0  0  0  0  0  0  0  0  0
   46.6360   33.9520   39.9100 N   0  0  0  0  0  0  0  0  0  0  0  0
   48.3770   35.6360   42.8820 H   0  0  0  0  0  0  0  0  0  0  0  0
   48.4440   34.0740   38.9020 H   0  0  0  0  0  0  0  0  0  0  0  0
   45.7570   35.0600   43.3400 C   0  0  0  0  0  0  0  0  0  0  0  0
   45.0750   36.2320   43.5710 C   0  0  0  0  0  0  0  0  0  0  0  0
   44.4880   36.0200   44.8030 C   0  0  0  0  0  0  0  0  0  0  0  0
   44.7940   34.7920   45.2890 N   0  0  0  0  0  0  0  0  0  0  0  0
   45.5620   34.2350   44.3840 N   0  0  0  0  0  0  0  0  0  0  0  0
   44.9930   37.1320   42.9590 H   0  0  0  0  0  0  0  0  0  0  0  0
   43.8510   36.7420   45.3320 H   0  0  0  0  0  0  0  0  0  0  0  0
   44.4530   34.4240   46.2100 H   0  0  0  0  0  0  0  0  0  0  0  0
   44.6200   33.8490   41.1180 O   0  0  0  0  0  0  0  0  0  0  0  0
   43.5690   34.5310   40.5620 C   0  0  0  0  0  0  0  0  0  0  0  0
   43.2860   35.7680   40.6630 O   0  0  0  0  0  0  0  0  0  0  0  0
   42.4660   34.1760   39.7260 N   0  0  0  0  0  0  0  0  0  0  0  0
   42.1570   32.7650   39.5890 C   0  0  0  0  0  2  0  0  0  0  0  0
   41.5330   32.7610   38.1920 C   0  0  0  0  0  2  0  0  0  0  0  0
   40.6000   33.9660   38.3760 C   0  0  0  0  0  2  0  0  0  0  0  0
   41.5630   34.9770   38.9580 C   0  0  0  0  0  3  0  0  0  0  0  0
   41.0630   35.7630   39.5650 H   0  0  0  0  0  0  0  0  0  0  0  0
  1 17  1  0  0  0  0
  1  2  1  0  0  0  0
  2  9  1  0  0  0  0
  3  2  2  0  0  0  0
  3  7  1  0  0  0  0
  4  3  1  0  0  0  0
  5  6  1  0  0  0  0
  5  4  2  0  0  0  0
  6  1  2  0  0  0  0
  8  5  1  0  0  0  0
  9 10  1  0  0  0  0
  9 13  2  0  0  0  0
 10 11  2  0  0  0  0
 11 12  1  0  0  0  0
 11 15  1  0  0  0  0
 12 16  1  0  0  0  0
 13 12  1  0  0  0  0
 14 10  1  0  0  0  0
 18 19  2  0  0  0  0
 18 17  1  0  0  0  0
 20 18  1  0  0  0  0
 21 20  1  0  0  0  0
 22 23  1  0  0  0  0
 22 21  1  0  0  0  0
 23 24  1  0  0  0  0
 24 25  1  0  0  0  0
 24 20  1  0  0  0  0
M  END
>  <minimizedAffinity>
-5.46626234

>  <minimizedRMSD>
0.4536708

$$$$
