
 OpenBabel03252508493D

 25 27  0  0  0  0  0  0  0  0999 V2000
   45.9340   34.1980   41.0110 C   0  0  0  0  0  0  0  0  0  0  0  0
   46.5340   34.8070   42.1340 C   0  0  0  0  0  0  0  0  0  0  0  0
   47.8860   35.1440   42.0260 C   0  0  0  0  0  0  0  0  0  0  0  0
   48.5340   34.8650   40.8500 N   0  0  0  0  0  0  0  0  0  0  0  0
   47.9210   34.2880   39.8180 C   0  0  0  0  0  0  0  0  0  0  0  0
   46.6180   33.9530   39.8970 N   0  0  0  0  0  0  0  0  0  0  0  0
   48.3760   35.6140   42.8720 H   0  0  0  0  0  0  0  0  0  0  0  0
   48.4260   34.0640   38.8870 H   0  0  0  0  0  0  0  0  0  0  0  0
   45.7530   35.0580   43.3320 C   0  0  0  0  0  0  0  0  0  0  0  0
   45.0880   36.2370   43.5710 C   0  0  0  0  0  0  0  0  0  0  0  0
   44.4970   36.0240   44.8020 C   0  0  0  0  0  0  0  0  0  0  0  0
   44.7860   34.7890   45.2790 N   0  0  0  0  0  0  0  0  0  0  0  0
   45.5460   34.2280   44.3700 N   0  0  0  0  0  0  0  0  0  0  0  0
   45.0180   37.1430   42.9660 H   0  0  0  0  0  0  0  0  0  0  0  0
   43.8710   36.7520   45.3360 H   0  0  0  0  0  0  0  0  0  0  0  0
   44.4400   34.4200   46.1970 H   0  0  0  0  0  0  0  0  0  0  0  0
   44.6040   33.8630   41.1070 O   0  0  0  0  0  0  0  0  0  0  0  0
   43.5550   34.5680   40.5760 C   0  0  0  0  0  0  0  0  0  0  0  0
   43.2730   35.8000   40.7280 O   0  0  0  0  0  0  0  0  0  0  0  0
   42.4550   34.2490   39.7210 N   0  0  0  0  0  0  0  0  0  0  0  0
   41.3650   35.2040   39.6500 C   0  0  0  0  0  2  0  0  0  0  0  0
   40.2050   34.2630   39.3180 C   0  0  0  0  0  2  0  0  0  0  0  0
   40.8960   33.4640   38.2040 C   0  0  0  0  0  2  0  0  0  0  0  0
   42.2050   33.1200   38.8810 C   0  0  0  0  0  3  0  0  0  0  0  0
   43.0320   32.9250   38.1630 H   0  0  0  0  0  0  0  0  0  0  0  0
  1 17  1  0  0  0  0
  1  2  1  0  0  0  0
  2  9  1  0  0  0  0
  3  2  2  0  0  0  0
  3  7  1  0  0  0  0
  4  3  1  0  0  0  0
  5  6  1  0  0  0  0
  5  4  2  0  0  0  0
  6  1  2  0  0  0  0
  8  5  1  0  0  0  0
  9 10  1  0  0  0  0
  9 13  2  0  0  0  0
 10 11  2  0  0  0  0
 11 12  1  0  0  0  0
 11 15  1  0  0  0  0
 12 16  1  0  0  0  0
 13 12  1  0  0  0  0
 14 10  1  0  0  0  0
 18 19  2  0  0  0  0
 18 17  1  0  0  0  0
 20 18  1  0  0  0  0
 21 20  1  0  0  0  0
 22 21  1  0  0  0  0
 23 24  1  0  0  0  0
 23 22  1  0  0  0  0
 24 20  1  0  0  0  0
 25 24  1  0  0  0  0
M  END
>  <minimizedAffinity>
-5.5055933

>  <minimizedRMSD>
0.505911946

$$$$
