
 OpenBabel03252508523D

 25 27  0  0  0  0  0  0  0  0999 V2000
   36.4610   30.3740   38.9130 C   0  0  0  0  0  0  0  0  0  0  0  0
   37.3420   31.3650   38.4310 C   0  0  0  0  0  0  0  0  0  0  0  0
   37.6170   31.3590   37.0610 C   0  0  0  0  0  0  0  0  0  0  0  0
   37.0190   30.4020   36.2830 N   0  0  0  0  0  0  0  0  0  0  0  0
   36.1940   29.4860   36.7870 C   0  0  0  0  0  0  0  0  0  0  0  0
   35.9120   29.4710   38.1050 N   0  0  0  0  0  0  0  0  0  0  0  0
   38.2910   32.1090   36.6590 H   0  0  0  0  0  0  0  0  0  0  0  0
   35.7180   28.7270   36.1790 H   0  0  0  0  0  0  0  0  0  0  0  0
   37.9200   32.3340   39.3460 C   0  0  0  0  0  0  0  0  0  0  0  0
   39.1720   32.2010   39.9000 C   0  0  0  0  0  0  0  0  0  0  0  0
   39.2920   33.3320   40.6850 C   0  0  0  0  0  0  0  0  0  0  0  0
   38.1810   34.1030   40.6100 N   0  0  0  0  0  0  0  0  0  0  0  0
   37.3690   33.4760   39.7940 N   0  0  0  0  0  0  0  0  0  0  0  0
   39.9170   31.4140   39.7780 H   0  0  0  0  0  0  0  0  0  0  0  0
   40.1690   33.5860   41.2960 H   0  0  0  0  0  0  0  0  0  0  0  0
   38.0590   35.0080   41.1270 H   0  0  0  0  0  0  0  0  0  0  0  0
   36.1840   30.3720   40.2600 O   0  0  0  0  0  0  0  0  0  0  0  0
   36.8050   29.6010   41.2090 C   0  0  0  0  0  0  0  0  0  0  0  0
   37.5250   29.9810   42.1880 O   0  0  0  0  0  0  0  0  0  0  0  0
   36.8970   28.2000   41.4670 N   0  0  0  0  0  0  0  0  0  0  0  0
   36.7240   27.7600   42.8390 C   0  0  0  0  0  2  0  0  0  0  0  0
   37.5730   26.4880   42.8230 C   0  0  0  0  0  2  0  0  0  0  0  0
   37.0310   25.8910   41.5160 C   0  0  0  0  0  2  0  0  0  0  0  0
   37.1380   27.0900   40.5990 C   0  0  0  0  0  3  0  0  0  0  0  0
   36.4310   27.0520   39.7420 H   0  0  0  0  0  0  0  0  0  0  0  0
  1 17  1  0  0  0  0
  2  1  1  0  0  0  0
  2  9  1  0  0  0  0
  3  2  2  0  0  0  0
  4  5  2  0  0  0  0
  4  3  1  0  0  0  0
  5  6  1  0  0  0  0
  6  1  2  0  0  0  0
  7  3  1  0  0  0  0
  8  5  1  0  0  0  0
  9 13  2  0  0  0  0
  9 10  1  0  0  0  0
 10 11  2  0  0  0  0
 11 15  1  0  0  0  0
 12 11  1  0  0  0  0
 12 16  1  0  0  0  0
 13 12  1  0  0  0  0
 14 10  1  0  0  0  0
 17 18  1  0  0  0  0
 18 20  1  0  0  0  0
 18 19  2  0  0  0  0
 20 21  1  0  0  0  0
 22 21  1  0  0  0  0
 23 22  1  0  0  0  0
 24 20  1  0  0  0  0
 24 23  1  0  0  0  0
 25 24  1  0  0  0  0
M  END
>  <minimizedAffinity>
-5.06275511

$$$$

 OpenBabel03252508523D

 25 27  0  0  0  0  0  0  0  0999 V2000
   39.0790   31.5200   40.0270 C   0  0  0  0  0  0  0  0  0  0  0  0
   37.7260   31.9180   39.9790 C   0  0  0  0  0  0  0  0  0  0  0  0
   37.4690   33.2890   39.9180 C   0  0  0  0  0  0  0  0  0  0  0  0
   38.5360   34.1510   39.9090 N   0  0  0  0  0  0  0  0  0  0  0  0
   39.7970   33.7250   39.9560 C   0  0  0  0  0  0  0  0  0  0  0  0
   40.0710   32.4070   40.0150 N   0  0  0  0  0  0  0  0  0  0  0  0
   36.4390   33.6270   39.8790 H   0  0  0  0  0  0  0  0  0  0  0  0
   40.6440   34.3990   39.9500 H   0  0  0  0  0  0  0  0  0  0  0  0
   36.6720   30.9180   39.9940 C   0  0  0  0  0  0  0  0  0  0  0  0
   36.2880   30.2040   38.8830 C   0  0  0  0  0  0  0  0  0  0  0  0
   35.2780   29.3920   39.3620 C   0  0  0  0  0  0  0  0  0  0  0  0
   35.0640   29.6010   40.6840 N   0  0  0  0  0  0  0  0  0  0  0  0
   35.9210   30.5290   41.0380 N   0  0  0  0  0  0  0  0  0  0  0  0
   36.6620   30.2390   37.8580 H   0  0  0  0  0  0  0  0  0  0  0  0
   34.7130   28.6660   38.7610 H   0  0  0  0  0  0  0  0  0  0  0  0
   34.3430   29.0910   41.2490 H   0  0  0  0  0  0  0  0  0  0  0  0
   39.3430   30.1720   40.0870 O   0  0  0  0  0  0  0  0  0  0  0  0
   39.4340   29.4190   41.2290 C   0  0  0  0  0  0  0  0  0  0  0  0
   40.3840   29.3780   42.0760 O   0  0  0  0  0  0  0  0  0  0  0  0
   38.5910   28.4660   41.8780 N   0  0  0  0  0  0  0  0  0  0  0  0
   38.4250   28.5890   43.3140 C   0  0  0  0  0  2  0  0  0  0  0  0
   38.1540   27.1280   43.6800 C   0  0  0  0  0  2  0  0  0  0  0  0
   37.1200   26.8270   42.5850 C   0  0  0  0  0  2  0  0  0  0  0  0
   37.8420   27.3600   41.3670 C   0  0  0  0  0  3  0  0  0  0  0  0
   37.1570   27.6480   40.5410 H   0  0  0  0  0  0  0  0  0  0  0  0
  1 17  1  0  0  0  0
  2  9  1  0  0  0  0
  2  1  2  0  0  0  0
  3  2  1  0  0  0  0
  4  3  2  0  0  0  0
  4  5  1  0  0  0  0
  5  6  2  0  0  0  0
  6  1  1  0  0  0  0
  7  3  1  0  0  0  0
  8  5  1  0  0  0  0
  9 13  2  0  0  0  0
 10 11  2  0  0  0  0
 10  9  1  0  0  0  0
 11 12  1  0  0  0  0
 12 13  1  0  0  0  0
 12 16  1  0  0  0  0
 14 10  1  0  0  0  0
 15 11  1  0  0  0  0
 17 18  1  0  0  0  0
 18 20  1  0  0  0  0
 18 19  2  0  0  0  0
 20 21  1  0  0  0  0
 21 22  1  0  0  0  0
 23 22  1  0  0  0  0
 24 20  1  0  0  0  0
 24 23  1  0  0  0  0
 25 24  1  0  0  0  0
M  END
>  <minimizedAffinity>
-5.01046228

$$$$

 OpenBabel03252508523D

 25 27  0  0  0  0  0  0  0  0999 V2000
   37.4090   31.5120   39.6710 C   0  0  0  0  0  0  0  0  0  0  0  0
   38.3000   31.3090   38.5950 C   0  0  0  0  0  0  0  0  0  0  0  0
   39.4650   32.0790   38.5820 C   0  0  0  0  0  0  0  0  0  0  0  0
   39.6660   32.9720   39.6030 N   0  0  0  0  0  0  0  0  0  0  0  0
   38.7940   33.1260   40.5970 C   0  0  0  0  0  0  0  0  0  0  0  0
   37.6620   32.3950   40.6330 N   0  0  0  0  0  0  0  0  0  0  0  0
   40.1700   31.9470   37.7680 H   0  0  0  0  0  0  0  0  0  0  0  0
   38.9450   33.8290   41.4070 H   0  0  0  0  0  0  0  0  0  0  0  0
   37.9870   30.3350   37.5640 C   0  0  0  0  0  0  0  0  0  0  0  0
   38.4950   29.0570   37.5490 C   0  0  0  0  0  0  0  0  0  0  0  0
   37.9370   28.5070   36.4110 C   0  0  0  0  0  0  0  0  0  0  0  0
   37.1380   29.3990   35.7760 N   0  0  0  0  0  0  0  0  0  0  0  0
   37.1880   30.4940   36.4950 N   0  0  0  0  0  0  0  0  0  0  0  0
   39.1740   28.5600   38.2440 H   0  0  0  0  0  0  0  0  0  0  0  0
   38.1080   27.4830   36.0550 H   0  0  0  0  0  0  0  0  0  0  0  0
   36.6150   29.1910   34.8910 H   0  0  0  0  0  0  0  0  0  0  0  0
   36.2590   30.7580   39.6940 O   0  0  0  0  0  0  0  0  0  0  0  0
   36.0120   29.6910   40.5170 C   0  0  0  0  0  0  0  0  0  0  0  0
   34.9540   28.9870   40.6030 O   0  0  0  0  0  0  0  0  0  0  0  0
   36.7570   28.9950   41.5170 N   0  0  0  0  0  0  0  0  0  0  0  0
   36.7230   27.5450   41.4880 C   0  0  0  0  0  2  0  0  0  0  0  0
   36.9410   27.2400   42.9710 C   0  0  0  0  0  2  0  0  0  0  0  0
   38.1150   28.1990   43.2110 C   0  0  0  0  0  2  0  0  0  0  0  0
   37.5680   29.4680   42.5950 C   0  0  0  0  0  3  0  0  0  0  0  0
   38.3610   30.1710   42.2600 H   0  0  0  0  0  0  0  0  0  0  0  0
  1 17  1  0  0  0  0
  1  6  1  0  0  0  0
  2  1  2  0  0  0  0
  3  2  1  0  0  0  0
  3  4  2  0  0  0  0
  4  5  1  0  0  0  0
  5  6  2  0  0  0  0
  5  8  1  0  0  0  0
  7  3  1  0  0  0  0
  9  2  1  0  0  0  0
 10  9  1  0  0  0  0
 10 14  1  0  0  0  0
 11 10  2  0  0  0  0
 12 11  1  0  0  0  0
 12 13  1  0  0  0  0
 13  9  2  0  0  0  0
 15 11  1  0  0  0  0
 16 12  1  0  0  0  0
 17 18  1  0  0  0  0
 18 19  2  0  0  0  0
 18 20  1  0  0  0  0
 20 24  1  0  0  0  0
 21 20  1  0  0  0  0
 21 22  1  0  0  0  0
 22 23  1  0  0  0  0
 24 23  1  0  0  0  0
 25 24  1  0  0  0  0
M  END
>  <minimizedAffinity>
-4.90450144

$$$$

 OpenBabel03252508523D

 25 27  0  0  0  0  0  0  0  0999 V2000
   37.2580   29.2150   39.0990 C   0  0  0  0  0  0  0  0  0  0  0  0
   36.2720   28.9480   40.0720 C   0  0  0  0  0  0  0  0  0  0  0  0
   34.9470   28.8870   39.6330 C   0  0  0  0  0  0  0  0  0  0  0  0
   34.6940   29.0890   38.3000 N   0  0  0  0  0  0  0  0  0  0  0  0
   35.6610   29.3390   37.4210 C   0  0  0  0  0  0  0  0  0  0  0  0
   36.9470   29.4030   37.8190 N   0  0  0  0  0  0  0  0  0  0  0  0
   34.1650   28.6820   40.3570 H   0  0  0  0  0  0  0  0  0  0  0  0
   35.4700   29.5000   36.3670 H   0  0  0  0  0  0  0  0  0  0  0  0
   36.6520   28.7490   41.4590 C   0  0  0  0  0  0  0  0  0  0  0  0
   36.6820   27.5170   42.0690 C   0  0  0  0  0  0  0  0  0  0  0  0
   37.0920   27.8090   43.3550 C   0  0  0  0  0  0  0  0  0  0  0  0
   37.2980   29.1390   43.5150 N   0  0  0  0  0  0  0  0  0  0  0  0
   37.0240   29.6820   42.3540 N   0  0  0  0  0  0  0  0  0  0  0  0
   36.4480   26.5270   41.6710 H   0  0  0  0  0  0  0  0  0  0  0  0
   37.2360   27.0700   44.1560 H   0  0  0  0  0  0  0  0  0  0  0  0
   37.6120   29.5800   44.4140 H   0  0  0  0  0  0  0  0  0  0  0  0
   38.5660   29.2770   39.5210 O   0  0  0  0  0  0  0  0  0  0  0  0
   39.2850   30.4210   39.7480 C   0  0  0  0  0  0  0  0  0  0  0  0
   40.5270   30.5360   40.0080 O   0  0  0  0  0  0  0  0  0  0  0  0
   38.9780   31.8160   39.7840 N   0  0  0  0  0  0  0  0  0  0  0  0
   39.8850   32.7180   39.1020 C   0  0  0  0  0  2  0  0  0  0  0  0
   39.6840   33.9840   39.9370 C   0  0  0  0  0  2  0  0  0  0  0  0
   38.1500   33.9660   39.9770 C   0  0  0  0  0  2  0  0  0  0  0  0
   37.9000   32.5320   40.3910 C   0  0  0  0  0  3  0  0  0  0  0  0
   36.9020   32.1530   40.0810 H   0  0  0  0  0  0  0  0  0  0  0  0
  1 17  1  0  0  0  0
  1  2  1  0  0  0  0
  2  9  1  0  0  0  0
  3  2  2  0  0  0  0
  3  7  1  0  0  0  0
  4  3  1  0  0  0  0
  5  6  1  0  0  0  0
  5  4  2  0  0  0  0
  6  1  2  0  0  0  0
  8  5  1  0  0  0  0
  9 10  1  0  0  0  0
  9 13  2  0  0  0  0
 10 11  2  0  0  0  0
 11 12  1  0  0  0  0
 11 15  1  0  0  0  0
 12 16  1  0  0  0  0
 13 12  1  0  0  0  0
 14 10  1  0  0  0  0
 17 18  1  0  0  0  0
 18 20  1  0  0  0  0
 18 19  2  0  0  0  0
 20 24  1  0  0  0  0
 21 20  1  0  0  0  0
 21 22  1  0  0  0  0
 22 23  1  0  0  0  0
 23 24  1  0  0  0  0
 25 24  1  0  0  0  0
M  END
>  <minimizedAffinity>
-4.89699554

$$$$

 OpenBabel03252508523D

 25 27  0  0  0  0  0  0  0  0999 V2000
   36.8200   28.1580   38.4660 C   0  0  0  0  0  0  0  0  0  0  0  0
   35.9320   29.2510   38.5470 C   0  0  0  0  0  0  0  0  0  0  0  0
   34.6510   29.0700   38.0200 C   0  0  0  0  0  0  0  0  0  0  0  0
   34.3430   27.8550   37.4640 N   0  0  0  0  0  0  0  0  0  0  0  0
   35.2180   26.8530   37.4110 C   0  0  0  0  0  0  0  0  0  0  0  0
   36.4600   27.0020   37.9130 N   0  0  0  0  0  0  0  0  0  0  0  0
   33.9450   29.8920   38.0670 H   0  0  0  0  0  0  0  0  0  0  0  0
   34.9830   25.8910   36.9740 H   0  0  0  0  0  0  0  0  0  0  0  0
   36.3640   30.4960   39.1590 C   0  0  0  0  0  0  0  0  0  0  0  0
   37.0570   31.4730   38.4840 C   0  0  0  0  0  0  0  0  0  0  0  0
   37.2470   32.4480   39.4440 C   0  0  0  0  0  0  0  0  0  0  0  0
   36.7000   32.0840   40.6290 N   0  0  0  0  0  0  0  0  0  0  0  0
   36.1740   30.9000   40.4270 N   0  0  0  0  0  0  0  0  0  0  0  0
   37.3950   31.5090   37.4460 H   0  0  0  0  0  0  0  0  0  0  0  0
   37.7710   33.4000   39.2820 H   0  0  0  0  0  0  0  0  0  0  0  0
   36.7290   32.6760   41.4950 H   0  0  0  0  0  0  0  0  0  0  0  0
   38.0840   28.3260   38.9830 O   0  0  0  0  0  0  0  0  0  0  0  0
   38.5710   27.7440   40.1240 C   0  0  0  0  0  0  0  0  0  0  0  0
   39.5350   26.9200   40.2420 O   0  0  0  0  0  0  0  0  0  0  0  0
   38.2370   27.8090   41.5110 N   0  0  0  0  0  0  0  0  0  0  0  0
   39.3300   27.9450   42.4560 C   0  0  0  0  0  2  0  0  0  0  0  0
   38.7140   27.2630   43.6790 C   0  0  0  0  0  2  0  0  0  0  0  0
   37.3460   27.9590   43.6400 C   0  0  0  0  0  2  0  0  0  0  0  0
   36.9770   27.7640   42.1860 C   0  0  0  0  0  3  0  0  0  0  0  0
   36.2600   28.5250   41.8090 H   0  0  0  0  0  0  0  0  0  0  0  0
  1  2  1  0  0  0  0
  1 17  1  0  0  0  0
  2  9  1  0  0  0  0
  3  7  1  0  0  0  0
  3  2  2  0  0  0  0
  4  3  1  0  0  0  0
  5  4  2  0  0  0  0
  5  6  1  0  0  0  0
  6  1  2  0  0  0  0
  8  5  1  0  0  0  0
  9 13  2  0  0  0  0
 10  9  1  0  0  0  0
 10 11  2  0  0  0  0
 11 12  1  0  0  0  0
 12 16  1  0  0  0  0
 13 12  1  0  0  0  0
 14 10  1  0  0  0  0
 15 11  1  0  0  0  0
 17 18  1  0  0  0  0
 18 19  2  0  0  0  0
 18 20  1  0  0  0  0
 20 24  1  0  0  0  0
 20 21  1  0  0  0  0
 21 22  1  0  0  0  0
 23 22  1  0  0  0  0
 24 23  1  0  0  0  0
 25 24  1  0  0  0  0
M  END
>  <minimizedAffinity>
-4.87049961

$$$$

 OpenBabel03252508523D

 25 27  0  0  0  0  0  0  0  0999 V2000
   38.9570   30.0530   39.0540 C   0  0  0  0  0  0  0  0  0  0  0  0
   38.4460   31.3400   38.7850 C   0  0  0  0  0  0  0  0  0  0  0  0
   37.5790   31.4650   37.6970 C   0  0  0  0  0  0  0  0  0  0  0  0
   37.2830   30.3420   36.9690 N   0  0  0  0  0  0  0  0  0  0  0  0
   37.7930   29.1470   37.2630 C   0  0  0  0  0  0  0  0  0  0  0  0
   38.6310   29.0000   38.3070 N   0  0  0  0  0  0  0  0  0  0  0  0
   37.1690   32.4430   37.4650 H   0  0  0  0  0  0  0  0  0  0  0  0
   37.5650   28.2560   36.6920 H   0  0  0  0  0  0  0  0  0  0  0  0
   38.8250   32.4640   39.6240 C   0  0  0  0  0  0  0  0  0  0  0  0
   39.9410   33.2350   39.4000 C   0  0  0  0  0  0  0  0  0  0  0  0
   39.8980   34.1610   40.4240 C   0  0  0  0  0  0  0  0  0  0  0  0
   38.8190   33.9630   41.2200 N   0  0  0  0  0  0  0  0  0  0  0  0
   38.1890   32.9310   40.7130 N   0  0  0  0  0  0  0  0  0  0  0  0
   40.7010   33.1660   38.6190 H   0  0  0  0  0  0  0  0  0  0  0  0
   40.6340   34.9600   40.5850 H   0  0  0  0  0  0  0  0  0  0  0  0
   38.5920   34.5520   42.0570 H   0  0  0  0  0  0  0  0  0  0  0  0
   39.8110   29.9190   40.1230 O   0  0  0  0  0  0  0  0  0  0  0  0
   39.4750   29.4610   41.3700 C   0  0  0  0  0  0  0  0  0  0  0  0
   40.0260   29.7290   42.4860 O   0  0  0  0  0  0  0  0  0  0  0  0
   38.4730   28.5830   41.8860 N   0  0  0  0  0  0  0  0  0  0  0  0
   37.7630   29.0060   43.0780 C   0  0  0  0  0  2  0  0  0  0  0  0
   37.4120   27.6440   43.6800 C   0  0  0  0  0  2  0  0  0  0  0  0
   36.8890   26.9780   42.3990 C   0  0  0  0  0  2  0  0  0  0  0  0
   38.0100   27.3070   41.4380 C   0  0  0  0  0  3  0  0  0  0  0  0
   37.6880   27.3140   40.3740 H   0  0  0  0  0  0  0  0  0  0  0  0
  1 17  1  0  0  0  0
  2  1  1  0  0  0  0
  2  9  1  0  0  0  0
  3  2  2  0  0  0  0
  4  5  2  0  0  0  0
  4  3  1  0  0  0  0
  5  6  1  0  0  0  0
  6  1  2  0  0  0  0
  7  3  1  0  0  0  0
  8  5  1  0  0  0  0
  9 13  2  0  0  0  0
 10  9  1  0  0  0  0
 10 11  2  0  0  0  0
 11 15  1  0  0  0  0
 11 12  1  0  0  0  0
 12 16  1  0  0  0  0
 13 12  1  0  0  0  0
 14 10  1  0  0  0  0
 17 18  1  0  0  0  0
 18 20  1  0  0  0  0
 18 19  2  0  0  0  0
 20 21  1  0  0  0  0
 21 22  1  0  0  0  0
 23 22  1  0  0  0  0
 24 20  1  0  0  0  0
 24 23  1  0  0  0  0
 25 24  1  0  0  0  0
M  END
>  <minimizedAffinity>
-4.82690907

$$$$

 OpenBabel03252508523D

 25 27  0  0  0  0  0  0  0  0999 V2000
   36.4300   27.5790   38.1360 C   0  0  0  0  0  0  0  0  0  0  0  0
   36.5810   28.9810   38.0960 C   0  0  0  0  0  0  0  0  0  0  0  0
   36.8780   29.5530   36.8570 C   0  0  0  0  0  0  0  0  0  0  0  0
   37.0010   28.7250   35.7710 N   0  0  0  0  0  0  0  0  0  0  0  0
   36.8490   27.4050   35.8610 C   0  0  0  0  0  0  0  0  0  0  0  0
   36.5620   26.8290   37.0450 N   0  0  0  0  0  0  0  0  0  0  0  0
   37.0000   30.6300   36.7940 H   0  0  0  0  0  0  0  0  0  0  0  0
   36.9460   26.7440   35.0080 H   0  0  0  0  0  0  0  0  0  0  0  0
   36.4280   29.7650   39.3090 C   0  0  0  0  0  0  0  0  0  0  0  0
   37.4720   30.4010   39.9390 C   0  0  0  0  0  0  0  0  0  0  0  0
   36.8680   31.0060   41.0240 C   0  0  0  0  0  0  0  0  0  0  0  0
   35.5360   30.7520   41.0490 N   0  0  0  0  0  0  0  0  0  0  0  0
   35.2990   30.0000   40.0010 N   0  0  0  0  0  0  0  0  0  0  0  0
   38.5320   30.4420   39.6800 H   0  0  0  0  0  0  0  0  0  0  0  0
   37.3850   31.6160   41.7760 H   0  0  0  0  0  0  0  0  0  0  0  0
   34.8840   31.1140   41.7860 H   0  0  0  0  0  0  0  0  0  0  0  0
   36.1370   27.0060   39.3510 O   0  0  0  0  0  0  0  0  0  0  0  0
   37.0440   26.6730   40.3240 C   0  0  0  0  0  0  0  0  0  0  0  0
   37.8660   25.7000   40.3390 O   0  0  0  0  0  0  0  0  0  0  0  0
   37.4080   27.2190   41.5930 N   0  0  0  0  0  0  0  0  0  0  0  0
   38.8230   27.3370   41.8880 C   0  0  0  0  0  2  0  0  0  0  0  0
   38.7900   27.2180   43.4130 C   0  0  0  0  0  2  0  0  0  0  0  0
   37.6380   28.1990   43.6750 C   0  0  0  0  0  2  0  0  0  0  0  0
   36.6140   27.6950   42.6820 C   0  0  0  0  0  3  0  0  0  0  0  0
   35.8810   28.4720   42.3740 H   0  0  0  0  0  0  0  0  0  0  0  0
  1 17  1  0  0  0  0
  2  1  1  0  0  0  0
  2  9  1  0  0  0  0
  3  2  2  0  0  0  0
  4  5  2  0  0  0  0
  4  3  1  0  0  0  0
  5  6  1  0  0  0  0
  6  1  2  0  0  0  0
  7  3  1  0  0  0  0
  8  5  1  0  0  0  0
  9 10  1  0  0  0  0
  9 13  2  0  0  0  0
 10 11  2  0  0  0  0
 11 12  1  0  0  0  0
 11 15  1  0  0  0  0
 12 16  1  0  0  0  0
 13 12  1  0  0  0  0
 14 10  1  0  0  0  0
 17 18  1  0  0  0  0
 18 19  2  0  0  0  0
 18 20  1  0  0  0  0
 20 21  1  0  0  0  0
 20 24  1  0  0  0  0
 21 22  1  0  0  0  0
 22 23  1  0  0  0  0
 24 23  1  0  0  0  0
 25 24  1  0  0  0  0
M  END
>  <minimizedAffinity>
-4.73127365

$$$$

 OpenBabel03252508523D

 25 27  0  0  0  0  0  0  0  0999 V2000
   37.9880   29.5010   38.8290 C   0  0  0  0  0  0  0  0  0  0  0  0
   37.7010   30.4070   39.8720 C   0  0  0  0  0  0  0  0  0  0  0  0
   37.3680   31.7130   39.5060 C   0  0  0  0  0  0  0  0  0  0  0  0
   37.3410   32.0270   38.1710 N   0  0  0  0  0  0  0  0  0  0  0  0
   37.6210   31.1350   37.2230 C   0  0  0  0  0  0  0  0  0  0  0  0
   37.9450   29.8680   37.5500 N   0  0  0  0  0  0  0  0  0  0  0  0
   37.1410   32.4330   40.2850 H   0  0  0  0  0  0  0  0  0  0  0  0
   37.6030   31.3750   36.1680 H   0  0  0  0  0  0  0  0  0  0  0  0
   37.7590   29.9670   41.2550 C   0  0  0  0  0  0  0  0  0  0  0  0
   38.9220   29.9150   41.9870 C   0  0  0  0  0  0  0  0  0  0  0  0
   38.5020   29.4480   43.2170 C   0  0  0  0  0  0  0  0  0  0  0  0
   37.1640   29.2310   43.2300 N   0  0  0  0  0  0  0  0  0  0  0  0
   36.7420   29.5530   42.0310 N   0  0  0  0  0  0  0  0  0  0  0  0
   39.9450   30.1690   41.7040 H   0  0  0  0  0  0  0  0  0  0  0  0
   39.1550   29.2710   44.0830 H   0  0  0  0  0  0  0  0  0  0  0  0
   36.6350   28.8760   44.0640 H   0  0  0  0  0  0  0  0  0  0  0  0
   38.3180   28.2130   39.1790 O   0  0  0  0  0  0  0  0  0  0  0  0
   37.4480   27.1570   39.2760 C   0  0  0  0  0  0  0  0  0  0  0  0
   36.4620   26.8730   38.5230 O   0  0  0  0  0  0  0  0  0  0  0  0
   37.3000   26.0520   40.1690 N   0  0  0  0  0  0  0  0  0  0  0  0
   37.0560   24.7480   39.5830 C   0  0  0  0  0  2  0  0  0  0  0  0
   36.2670   24.0880   40.7160 C   0  0  0  0  0  2  0  0  0  0  0  0
   37.1860   24.4960   41.8760 C   0  0  0  0  0  2  0  0  0  0  0  0
   37.3460   25.9740   41.5960 C   0  0  0  0  0  3  0  0  0  0  0  0
   38.2790   26.4030   42.0210 H   0  0  0  0  0  0  0  0  0  0  0  0
  1 17  1  0  0  0  0
  1  2  1  0  0  0  0
  2  9  1  0  0  0  0
  3  2  2  0  0  0  0
  3  7  1  0  0  0  0
  4  3  1  0  0  0  0
  5  6  1  0  0  0  0
  5  4  2  0  0  0  0
  6  1  2  0  0  0  0
  8  5  1  0  0  0  0
  9 10  1  0  0  0  0
  9 13  2  0  0  0  0
 10 11  2  0  0  0  0
 11 12  1  0  0  0  0
 11 15  1  0  0  0  0
 12 16  1  0  0  0  0
 13 12  1  0  0  0  0
 14 10  1  0  0  0  0
 17 18  1  0  0  0  0
 18 20  1  0  0  0  0
 19 18  2  0  0  0  0
 20 24  1  0  0  0  0
 21 20  1  0  0  0  0
 21 22  1  0  0  0  0
 22 23  1  0  0  0  0
 24 23  1  0  0  0  0
 24 25  1  0  0  0  0
M  END
>  <minimizedAffinity>
-4.62166119

$$$$

 OpenBabel03252508523D

 25 27  0  0  0  0  0  0  0  0999 V2000
   39.7470   29.7720   41.3030 C   0  0  0  0  0  0  0  0  0  0  0  0
   38.6580   29.0970   41.8930 C   0  0  0  0  0  0  0  0  0  0  0  0
   38.9500   28.2030   42.9270 C   0  0  0  0  0  0  0  0  0  0  0  0
   40.2600   28.0430   43.2970 N   0  0  0  0  0  0  0  0  0  0  0  0
   41.2540   28.7050   42.7070 C   0  0  0  0  0  0  0  0  0  0  0  0
   40.9990   29.5720   41.7080 N   0  0  0  0  0  0  0  0  0  0  0  0
   38.1330   27.6690   43.4010 H   0  0  0  0  0  0  0  0  0  0  0  0
   42.2910   28.5830   42.9940 H   0  0  0  0  0  0  0  0  0  0  0  0
   37.3060   29.3430   41.4220 C   0  0  0  0  0  0  0  0  0  0  0  0
   36.5120   28.3750   40.8550 C   0  0  0  0  0  0  0  0  0  0  0  0
   35.3420   29.0510   40.5680 C   0  0  0  0  0  0  0  0  0  0  0  0
   35.4230   30.3520   40.9410 N   0  0  0  0  0  0  0  0  0  0  0  0
   36.6210   30.5000   41.4530 N   0  0  0  0  0  0  0  0  0  0  0  0
   36.7160   27.3200   40.6600 H   0  0  0  0  0  0  0  0  0  0  0  0
   34.4530   28.6070   40.1000 H   0  0  0  0  0  0  0  0  0  0  0  0
   34.6480   31.0480   40.8150 H   0  0  0  0  0  0  0  0  0  0  0  0
   39.4710   30.6540   40.2840 O   0  0  0  0  0  0  0  0  0  0  0  0
   40.0670   31.8730   40.0910 C   0  0  0  0  0  0  0  0  0  0  0  0
   40.0060   32.9090   40.8290 O   0  0  0  0  0  0  0  0  0  0  0  0
   40.9150   32.4340   39.0870 N   0  0  0  0  0  0  0  0  0  0  0  0
   42.0630   33.1990   39.5330 C   0  0  0  0  0  2  0  0  0  0  0  0
   42.2220   34.1590   38.3510 C   0  0  0  0  0  2  0  0  0  0  0  0
   42.0990   33.1240   37.2240 C   0  0  0  0  0  2  0  0  0  0  0  0
   40.8510   32.3870   37.6590 C   0  0  0  0  0  3  0  0  0  0  0  0
   40.7940   31.3490   37.2650 H   0  0  0  0  0  0  0  0  0  0  0  0
  1  6  2  0  0  0  0
  1  2  1  0  0  0  0
  2  3  2  0  0  0  0
  3  4  1  0  0  0  0
  3  7  1  0  0  0  0
  5  8  1  0  0  0  0
  5  4  2  0  0  0  0
  6  5  1  0  0  0  0
  9 13  2  0  0  0  0
  9  2  1  0  0  0  0
 10  9  1  0  0  0  0
 11 10  2  0  0  0  0
 11 12  1  0  0  0  0
 12 13  1  0  0  0  0
 14 10  1  0  0  0  0
 15 11  1  0  0  0  0
 16 12  1  0  0  0  0
 17  1  1  0  0  0  0
 18 17  1  0  0  0  0
 18 19  2  0  0  0  0
 20 21  1  0  0  0  0
 20 18  1  0  0  0  0
 22 21  1  0  0  0  0
 23 24  1  0  0  0  0
 23 22  1  0  0  0  0
 24 20  1  0  0  0  0
 25 24  1  0  0  0  0
M  END
>  <minimizedAffinity>
-4.61101246

$$$$
