
 OpenBabel03252502233D

 31 33  0  0  1  0  0  0  0  0999 V2000
   46.7610   34.5950   42.2210 N   0  0  0  0  0  0  0  0  0  0  0  0
   48.2070   34.6750   42.2400 C   0  0  0  0  0  0  0  0  0  0  0  0
   48.5750   35.3580   40.9290 C   0  0  0  0  0  0  0  0  0  0  0  0
   48.1760   34.4990   39.7570 C   0  0  0  0  0  0  0  0  0  0  0  0
   46.8730   33.8100   39.9070 C   0  0  0  0  0  0  0  0  0  0  0  0
   46.0150   34.2660   41.0380 C   0  0  1  0  0  0  0  0  0  0  0  0
   48.5760   35.3070   43.0730 H   0  0  0  0  0  0  0  0  0  0  0  0
   48.6310   33.6750   42.2130 H   0  0  0  0  0  0  0  0  0  0  0  0
   49.6880   35.4630   40.9410 H   0  0  0  0  0  0  0  0  0  0  0  0
   48.0650   36.3330   40.9340 H   0  0  0  0  0  0  0  0  0  0  0  0
   48.1520   35.1730   38.8740 H   0  0  0  0  0  0  0  0  0  0  0  0
   49.0030   33.7700   39.5170 H   0  0  0  0  0  0  0  0  0  0  0  0
   46.3020   33.8800   38.9540 H   0  0  0  0  0  0  0  0  0  0  0  0
   47.0950   32.7190   40.1000 H   0  0  0  0  0  0  0  0  0  0  0  0
   45.4300   35.1550   40.6910 H   0  0  0  0  0  0  0  0  0  0  0  0
   44.4720   36.1380   44.7550 C   0  0  0  0  0  0  0  0  0  0  0  0
   45.1760   35.9850   43.5450 C   0  0  0  0  0  0  0  0  0  0  0  0
   46.0020   34.8490   43.4110 C   0  0  0  0  0  0  0  0  0  0  0  0
   46.0690   33.9720   44.4580 N   0  0  0  0  0  0  0  0  0  0  0  0
   45.3660   34.1760   45.5980 C   0  0  0  0  0  0  0  0  0  0  0  0
   44.5650   35.2670   45.7410 N   0  0  0  0  0  0  0  0  0  0  0  0
   43.8640   37.0340   44.7730 H   0  0  0  0  0  0  0  0  0  0  0  0
   45.1310   36.6720   42.7090 H   0  0  0  0  0  0  0  0  0  0  0  0
   45.4150   33.4890   46.4210 H   0  0  0  0  0  0  0  0  0  0  0  0
   45.1000   33.2430   41.3310 O   0  0  0  0  0  0  0  0  0  0  0  0
   42.1420   32.6160   41.5030 H   0  0  0  0  0  0  0  0  0  0  0  0
   42.8690   33.3310   41.6940 N   0  0  0  0  0  0  0  0  0  0  0  0
   42.3460   34.6470   41.9110 C   0  0  0  0  0  2  0  0  0  0  0  0
   42.3690   35.2570   40.5260 C   0  0  0  0  0  2  0  0  0  0  0  0
   43.7480   34.8010   40.0510 C   0  0  0  0  0  2  0  0  0  0  0  0
   43.8960   33.4150   40.6640 C   0  0  1  0  0  3  0  0  0  0  0  0
  1  2  1  0  0  0  0
  1 18  1  0  0  0  0
  2  7  1  0  0  0  0
  3 10  1  0  0  0  0
  3  9  1  0  0  0  0
  3  2  1  0  0  0  0
  4  5  1  0  0  0  0
  4  3  1  0  0  0  0
  5 14  1  0  0  0  0
  5  6  1  0  0  0  0
  6 15  1  6  0  0  0
  6 25  1  0  0  0  0
  6  1  1  0  0  0  0
  8  2  1  0  0  0  0
 11  4  1  0  0  0  0
 12  4  1  0  0  0  0
 13  5  1  0  0  0  0
 16 22  1  0  0  0  0
 16 21  1  0  0  0  0
 17 16  2  0  0  0  0
 18 17  1  0  0  0  0
 18 19  2  0  0  0  0
 19 20  1  0  0  0  0
 20 21  2  0  0  0  0
 20 24  1  0  0  0  0
 23 17  1  0  0  0  0
 26 27  1  0  0  0  0
 27 28  1  0  0  0  0
 29 28  1  0  0  0  0
 30 29  1  0  0  0  0
 30 31  1  0  0  0  0
 31 25  1  1  0  0  0
 31 27  1  0  0  0  0
M  END
>  <minimizedAffinity>
-5.22851849

>  <minimizedRMSD>
0.875353754

$$$$
