
 OpenBabel03252508493D

 25 27  0  0  0  0  0  0  0  0999 V2000
   45.9290   34.1940   41.0110 C   0  0  0  0  0  0  0  0  0  0  0  0
   46.5310   34.8050   42.1310 C   0  0  0  0  0  0  0  0  0  0  0  0
   47.8820   35.1430   42.0210 C   0  0  0  0  0  0  0  0  0  0  0  0
   48.5280   34.8630   40.8450 N   0  0  0  0  0  0  0  0  0  0  0  0
   47.9150   34.2830   39.8150 C   0  0  0  0  0  0  0  0  0  0  0  0
   46.6120   33.9480   39.8960 N   0  0  0  0  0  0  0  0  0  0  0  0
   48.3730   35.6150   42.8660 H   0  0  0  0  0  0  0  0  0  0  0  0
   48.4180   34.0580   38.8830 H   0  0  0  0  0  0  0  0  0  0  0  0
   45.7510   35.0570   43.3300 C   0  0  0  0  0  0  0  0  0  0  0  0
   45.0830   36.2350   43.5680 C   0  0  0  0  0  0  0  0  0  0  0  0
   44.4950   36.0240   44.8000 C   0  0  0  0  0  0  0  0  0  0  0  0
   44.7880   34.7910   45.2790 N   0  0  0  0  0  0  0  0  0  0  0  0
   45.5480   34.2290   44.3710 N   0  0  0  0  0  0  0  0  0  0  0  0
   45.0110   37.1400   42.9610 H   0  0  0  0  0  0  0  0  0  0  0  0
   43.8690   36.7520   45.3340 H   0  0  0  0  0  0  0  0  0  0  0  0
   44.4440   34.4230   46.2000 H   0  0  0  0  0  0  0  0  0  0  0  0
   44.6000   33.8570   41.1090 O   0  0  0  0  0  0  0  0  0  0  0  0
   43.5500   34.5570   40.5740 C   0  0  0  0  0  0  0  0  0  0  0  0
   43.2770   35.7940   40.7020 O   0  0  0  0  0  0  0  0  0  0  0  0
   42.4380   34.2270   39.7400 N   0  0  0  0  0  0  0  0  0  0  0  0
   41.2230   35.0020   39.9070 C   0  0  0  0  0  2  0  0  0  0  0  0
   40.1830   33.9660   39.4750 C   0  0  0  0  0  2  0  0  0  0  0  0
   40.8830   33.4870   38.1960 C   0  0  0  0  0  2  0  0  0  0  0  0
   42.2790   33.2350   38.7210 C   0  0  0  0  0  3  0  0  0  0  0  0
   43.0630   33.2960   37.9350 H   0  0  0  0  0  0  0  0  0  0  0  0
  1 17  1  0  0  0  0
  1  2  1  0  0  0  0
  2  9  1  0  0  0  0
  3  2  2  0  0  0  0
  3  7  1  0  0  0  0
  4  3  1  0  0  0  0
  5  6  1  0  0  0  0
  5  4  2  0  0  0  0
  6  1  2  0  0  0  0
  8  5  1  0  0  0  0
  9 10  1  0  0  0  0
  9 13  2  0  0  0  0
 10 11  2  0  0  0  0
 11 12  1  0  0  0  0
 11 15  1  0  0  0  0
 12 16  1  0  0  0  0
 13 12  1  0  0  0  0
 14 10  1  0  0  0  0
 18 19  2  0  0  0  0
 18 17  1  0  0  0  0
 20 21  1  0  0  0  0
 20 18  1  0  0  0  0
 22 21  1  0  0  0  0
 23 24  1  0  0  0  0
 23 22  1  0  0  0  0
 24 20  1  0  0  0  0
 25 24  1  0  0  0  0
M  END
>  <minimizedAffinity>
-5.46441936

>  <minimizedRMSD>
0.502532721

$$$$
