
 OpenBabel03252508493D

 25 27  0  0  0  0  0  0  0  0999 V2000
   45.9520   34.1490   41.0280 C   0  0  0  0  0  0  0  0  0  0  0  0
   46.5370   34.8080   42.1290 C   0  0  0  0  0  0  0  0  0  0  0  0
   47.8710   35.2000   42.0000 C   0  0  0  0  0  0  0  0  0  0  0  0
   48.5190   34.9220   40.8240 N   0  0  0  0  0  0  0  0  0  0  0  0
   47.9220   34.2960   39.8120 C   0  0  0  0  0  0  0  0  0  0  0  0
   46.6350   33.9080   39.9120 N   0  0  0  0  0  0  0  0  0  0  0  0
   48.3490   35.7100   42.8300 H   0  0  0  0  0  0  0  0  0  0  0  0
   48.4270   34.0730   38.8810 H   0  0  0  0  0  0  0  0  0  0  0  0
   45.7560   35.0530   43.3300 C   0  0  0  0  0  0  0  0  0  0  0  0
   45.0570   36.2150   43.5570 C   0  0  0  0  0  0  0  0  0  0  0  0
   44.4820   36.0030   44.7950 C   0  0  0  0  0  0  0  0  0  0  0  0
   44.8120   34.7840   45.2880 N   0  0  0  0  0  0  0  0  0  0  0  0
   45.5830   34.2320   44.3810 N   0  0  0  0  0  0  0  0  0  0  0  0
   44.9560   37.1090   42.9390 H   0  0  0  0  0  0  0  0  0  0  0  0
   43.8380   36.7180   45.3240 H   0  0  0  0  0  0  0  0  0  0  0  0
   44.4850   34.4180   46.2140 H   0  0  0  0  0  0  0  0  0  0  0  0
   44.6380   33.7590   41.1450 O   0  0  0  0  0  0  0  0  0  0  0  0
   43.5560   34.4030   40.6030 C   0  0  0  0  0  0  0  0  0  0  0  0
   43.3050   35.6510   40.5860 O   0  0  0  0  0  0  0  0  0  0  0  0
   42.3800   33.9870   39.9070 N   0  0  0  0  0  0  0  0  0  0  0  0
   42.3580   32.6370   39.3780 C   0  0  0  0  0  2  0  0  0  0  0  0
   41.4150   32.8280   38.1890 C   0  0  0  0  0  2  0  0  0  0  0  0
   40.3220   33.6250   38.9150 C   0  0  0  0  0  2  0  0  0  0  0  0
   41.1600   34.6730   39.6130 C   0  0  0  0  0  3  0  0  0  0  0  0
   40.6740   35.0940   40.5200 H   0  0  0  0  0  0  0  0  0  0  0  0
  1 17  1  0  0  0  0
  1  2  1  0  0  0  0
  2  9  1  0  0  0  0
  3  2  2  0  0  0  0
  3  7  1  0  0  0  0
  4  3  1  0  0  0  0
  5  6  1  0  0  0  0
  5  4  2  0  0  0  0
  6  1  2  0  0  0  0
  8  5  1  0  0  0  0
  9 10  1  0  0  0  0
  9 13  2  0  0  0  0
 10 11  2  0  0  0  0
 11 12  1  0  0  0  0
 11 15  1  0  0  0  0
 12 16  1  0  0  0  0
 13 12  1  0  0  0  0
 14 10  1  0  0  0  0
 18 17  1  0  0  0  0
 19 18  2  0  0  0  0
 20 18  1  0  0  0  0
 21 20  1  0  0  0  0
 22 23  1  0  0  0  0
 22 21  1  0  0  0  0
 23 24  1  0  0  0  0
 24 20  1  0  0  0  0
 24 25  1  0  0  0  0
M  END
>  <minimizedAffinity>
-5.37846231

>  <minimizedRMSD>
0.477253109

$$$$
