
 OpenBabel03252500253D

 34 36  0  0  1  0  0  0  0  0999 V2000
   46.9280   29.8470   47.8360 C   0  0  2  0  0  0  0  0  0  0  0  0
   45.5140   30.1880   48.1010 C   0  0  2  0  0  0  0  0  0  0  0  0
   44.7770   29.4800   47.0210 C   0  0  0  0  0  0  0  0  0  0  0  0
   45.4990   28.3440   46.6960 O   0  0  0  0  0  0  0  0  0  0  0  0
   46.7080   28.4080   47.3060 C   0  0  0  0  0  0  0  0  0  0  0  0
   47.5410   30.2530   47.0890 H   0  0  0  0  0  0  0  0  0  0  0  0
   45.3030   29.7430   49.1120 H   0  0  0  0  0  0  0  0  0  0  0  0
   43.8460   29.0580   47.5120 H   0  0  0  0  0  0  0  0  0  0  0  0
   44.3690   30.0580   46.2000 H   0  0  0  0  0  0  0  0  0  0  0  0
   46.6360   27.8040   48.2560 H   0  0  0  0  0  0  0  0  0  0  0  0
   47.5590   28.0380   46.7370 H   0  0  0  0  0  0  0  0  0  0  0  0
   45.2670   31.5420   48.1070 O   0  0  0  0  0  0  0  0  0  0  0  0
   47.4230   32.8290   47.5540 O   0  0  0  0  0  0  0  0  0  0  0  0
   46.1620   32.3010   46.9270 P   0  0  1  0  0  0  0  0  0  0  0  0
   46.5820   31.1750   45.7320 O   0  0  0  0  0  0  0  0  0  0  0  0
   46.0760   31.3620   44.9030 H   0  0  0  0  0  0  0  0  0  0  0  0
   45.3300   33.6270   46.2390 O   0  0  0  0  0  0  0  0  0  0  0  0
   45.1900   35.7490   43.3800 C   0  0  0  0  0  0  0  0  0  0  0  0
   46.2770   35.3150   42.5660 C   0  0  0  0  0  0  0  0  0  0  0  0
   47.0580   34.2500   43.0630 C   0  0  0  0  0  0  0  0  0  0  0  0
   46.7260   33.7210   44.2610 N   0  0  0  0  0  0  0  0  0  0  0  0
   45.6840   34.1670   44.9970 C   0  0  0  0  0  0  0  0  0  0  0  0
   44.9250   35.1810   44.5450 N   0  0  0  0  0  0  0  0  0  0  0  0
   46.5210   35.7520   41.6180 H   0  0  0  0  0  0  0  0  0  0  0  0
   47.8990   33.8630   42.5060 H   0  0  0  0  0  0  0  0  0  0  0  0
   44.4370   36.7900   42.8840 O   0  0  0  0  0  0  0  0  0  0  0  0
   44.9700   37.6060   42.5470 H   0  0  0  0  0  0  0  0  0  0  0  0
   47.7420   29.8460   48.9320 O   0  0  0  0  0  0  0  0  0  0  0  0
   49.6180   31.9950   49.8360 H   0  0  0  0  0  0  0  0  0  0  0  0
   49.3020   31.0310   50.0720 N   0  0  0  0  0  0  0  0  0  0  0  0
   50.2030   30.3140   50.9200 C   0  0  0  0  0  2  0  0  0  0  0  0
   50.8900   29.2710   50.0740 C   0  0  0  0  0  2  0  0  0  0  0  0
   49.8840   28.9820   48.9870 C   0  0  0  0  0  2  0  0  0  0  0  0
   49.0020   30.2360   48.9130 C   0  0  1  0  0  3  0  0  0  0  0  0
  1  6  1  6  0  0  0
  1  2  1  0  0  0  0
  1 28  1  0  0  0  0
  2 12  1  0  0  0  0
  2  7  1  1  0  0  0
  3  8  1  0  0  0  0
  3  2  1  0  0  0  0
  4  3  1  0  0  0  0
  4  5  1  0  0  0  0
  5  1  1  0  0  0  0
  5 10  1  0  0  0  0
  9  3  1  0  0  0  0
 11  5  1  0  0  0  0
 14 13  2  1  0  0  0
 14 12  1  0  0  0  0
 15 14  1  0  0  0  0
 16 15  1  0  0  0  0
 17 14  1  0  0  0  0
 18 23  1  0  0  0  0
 19 20  1  0  0  0  0
 19 18  2  0  0  0  0
 20 21  2  0  0  0  0
 21 22  1  0  0  0  0
 22 17  1  0  0  0  0
 23 22  2  0  0  0  0
 24 19  1  0  0  0  0
 25 20  1  0  0  0  0
 26 18  1  0  0  0  0
 27 26  1  0  0  0  0
 29 30  1  0  0  0  0
 30 31  1  0  0  0  0
 32 31  1  0  0  0  0
 33 32  1  0  0  0  0
 34 28  1  1  0  0  0
 34 33  1  0  0  0  0
 34 30  1  0  0  0  0
M  END
>  <minimizedAffinity>
-5.146029

>  <minimizedRMSD>
0.407422692

$$$$
