
 OpenBabel03252508493D

 25 27  0  0  0  0  0  0  0  0999 V2000
   45.8740   34.2070   40.9970 C   0  0  0  0  0  0  0  0  0  0  0  0
   46.4970   34.8000   42.1160 C   0  0  0  0  0  0  0  0  0  0  0  0
   47.8530   35.1140   41.9960 C   0  0  0  0  0  0  0  0  0  0  0  0
   48.4840   34.8290   40.8130 N   0  0  0  0  0  0  0  0  0  0  0  0
   47.8510   34.2670   39.7850 C   0  0  0  0  0  0  0  0  0  0  0  0
   46.5440   33.9550   39.8750 N   0  0  0  0  0  0  0  0  0  0  0  0
   48.3600   35.5710   42.8400 H   0  0  0  0  0  0  0  0  0  0  0  0
   48.3430   34.0390   38.8470 H   0  0  0  0  0  0  0  0  0  0  0  0
   45.7310   35.0580   43.3230 C   0  0  0  0  0  0  0  0  0  0  0  0
   45.1070   36.2550   43.5840 C   0  0  0  0  0  0  0  0  0  0  0  0
   44.5180   36.0440   44.8150 C   0  0  0  0  0  0  0  0  0  0  0  0
   44.7690   34.7930   45.2720 N   0  0  0  0  0  0  0  0  0  0  0  0
   45.5040   34.2200   44.3500 N   0  0  0  0  0  0  0  0  0  0  0  0
   45.0640   37.1720   42.9920 H   0  0  0  0  0  0  0  0  0  0  0  0
   43.9190   36.7840   45.3650 H   0  0  0  0  0  0  0  0  0  0  0  0
   44.4160   34.4220   46.1880 H   0  0  0  0  0  0  0  0  0  0  0  0
   44.5400   33.8940   41.1040 O   0  0  0  0  0  0  0  0  0  0  0  0
   43.4960   34.6400   40.6210 C   0  0  0  0  0  0  0  0  0  0  0  0
   43.1810   35.8390   40.9090 O   0  0  0  0  0  0  0  0  0  0  0  0
   42.4370   34.4080   39.6900 N   0  0  0  0  0  0  0  0  0  0  0  0
   41.7190   33.1520   39.7930 C   0  0  0  0  0  2  0  0  0  0  0  0
   41.2830   32.9710   38.3380 C   0  0  0  0  0  2  0  0  0  0  0  0
   40.7590   34.3950   38.0990 C   0  0  0  0  0  2  0  0  0  0  0  0
   41.9200   35.2090   38.6250 C   0  0  0  0  0  3  0  0  0  0  0  0
   41.6270   36.2290   38.9570 H   0  0  0  0  0  0  0  0  0  0  0  0
  1 17  1  0  0  0  0
  1  2  1  0  0  0  0
  2  9  1  0  0  0  0
  3  2  2  0  0  0  0
  3  7  1  0  0  0  0
  4  3  1  0  0  0  0
  5  6  1  0  0  0  0
  5  4  2  0  0  0  0
  6  1  2  0  0  0  0
  8  5  1  0  0  0  0
  9 10  1  0  0  0  0
  9 13  2  0  0  0  0
 10 11  2  0  0  0  0
 11 12  1  0  0  0  0
 11 15  1  0  0  0  0
 12 16  1  0  0  0  0
 13 12  1  0  0  0  0
 14 10  1  0  0  0  0
 18 19  2  0  0  0  0
 18 17  1  0  0  0  0
 20 21  1  0  0  0  0
 20 18  1  0  0  0  0
 22 21  1  0  0  0  0
 23 22  1  0  0  0  0
 23 24  1  0  0  0  0
 24 25  1  0  0  0  0
 24 20  1  0  0  0  0
M  END
>  <minimizedAffinity>
-5.55647516

>  <minimizedRMSD>
0.618121445

$$$$
