
 OpenBabel03242523153D

 24 26  0  0  0  0  0  0  0  0999 V2000
   46.2480   34.3830   43.6400 C   0  0  0  0  0  0  0  0  0  0  0  0
   47.4200   33.8290   43.2350 C   0  0  0  0  0  0  0  0  0  0  0  0
   47.8560   32.7520   43.9870 C   0  0  0  0  0  0  0  0  0  0  0  0
   47.0890   32.3400   45.0540 N   0  0  0  0  0  0  0  0  0  0  0  0
   45.9390   32.9230   45.4090 C   0  0  0  0  0  0  0  0  0  0  0  0
   45.4760   33.9970   44.6820 N   0  0  0  0  0  0  0  0  0  0  0  0
   48.7710   32.2100   43.7860 H   0  0  0  0  0  0  0  0  0  0  0  0
   45.4920   32.4490   46.2730 H   0  0  0  0  0  0  0  0  0  0  0  0
   48.2420   34.3020   42.1800 C   0  0  0  0  0  0  0  0  0  0  0  0
   48.5130   35.5610   41.7620 C   0  0  0  0  0  0  0  0  0  0  0  0
   49.6650   34.9130   42.5270 C   0  0  0  0  0  0  0  0  0  0  0  0
   48.6300   33.3560   41.5940 H   0  0  0  0  0  0  0  0  0  0  0  0
   48.7950   35.8870   40.7170 H   0  0  0  0  0  0  0  0  0  0  0  0
   48.1560   36.4740   42.3220 H   0  0  0  0  0  0  0  0  0  0  0  0
   50.5280   34.6090   41.9570 H   0  0  0  0  0  0  0  0  0  0  0  0
   49.8210   35.1300   43.5860 H   0  0  0  0  0  0  0  0  0  0  0  0
   45.5180   35.4570   42.9860 C   0  0  0  0  0  0  0  0  0  0  0  0
   45.2040   36.5940   42.7540 O   0  0  0  0  0  0  0  0  0  0  0  0
   44.5320   35.1090   41.9710 N   0  0  0  0  0  0  0  0  0  0  0  0
   44.9450   34.3830   40.7840 C   0  0  0  0  0  0  0  0  0  0  0  0
   43.6500   34.0520   40.1080 C   0  0  0  0  0  0  0  0  0  0  0  0
   42.7750   35.2100   40.4860 C   0  0  0  0  0  0  0  0  0  0  0  0
   43.1210   35.3890   41.9560 C   0  0  0  0  0  0  0  0  0  0  0  0
   42.5660   34.5810   42.4930 H   0  0  0  0  0  0  0  0  0  0  0  0
  1  6  1  0  0  0  0
  2  1  2  0  0  0  0
  2  3  1  0  0  0  0
  3  4  2  0  0  0  0
  4  5  1  0  0  0  0
  5  8  1  0  0  0  0
  6  5  2  0  0  0  0
  7  3  1  0  0  0  0
  9 11  1  0  0  0  0
  9  2  1  0  0  0  0
 10  9  1  0  0  0  0
 10 14  1  0  0  0  0
 10 11  1  0  0  0  0
 11 16  1  0  0  0  0
 12  9  1  0  0  0  0
 13 10  1  0  0  0  0
 15 11  1  0  0  0  0
 17  1  1  0  0  0  0
 18 17  2  0  0  0  0
 19 17  1  0  0  0  0
 20 19  1  0  0  0  0
 21 22  1  0  0  0  0
 21 20  1  0  0  0  0
 22 23  1  0  0  0  0
 23 19  1  0  0  0  0
 23 24  1  0  0  0  0
M  END
>  <minimizedAffinity>
-4.83072805

>  <minimizedRMSD>
0.710248947

$$$$
