
 OpenBabel03252503293D

 22 23  0  0  0  0  0  0  0  0999 V2000
   37.3150   30.7080   40.9860 C   0  0  0  0  0  0  0  0  0  0  0  0
   37.6120   29.6810   41.9190 C   0  0  0  0  0  0  0  0  0  0  0  0
   36.7210   28.5990   41.9470 C   0  0  0  0  0  0  0  0  0  0  0  0
   35.6690   28.6110   41.1050 N   0  0  0  0  0  0  0  0  0  0  0  0
   35.4290   29.6110   40.2350 C   0  0  0  0  0  0  0  0  0  0  0  0
   36.2620   30.6670   40.1790 N   0  0  0  0  0  0  0  0  0  0  0  0
   39.3630   31.5360   40.1980 C   0  0  0  0  0  0  0  0  0  0  0  0
   39.5510   30.3530   39.8070 O   0  0  0  0  0  0  0  0  0  0  0  0
   38.1680   31.8560   40.8830 N   0  0  0  0  0  0  0  0  0  0  0  0
   38.4730   29.7620   42.5470 H   0  0  0  0  0  0  0  0  0  0  0  0
   34.5740   29.5920   39.5700 H   0  0  0  0  0  0  0  0  0  0  0  0
   38.0340   32.8170   41.2200 H   0  0  0  0  0  0  0  0  0  0  0  0
   40.4020   32.4640   39.9040 N   0  0  0  0  0  0  0  0  0  0  0  0
   41.7230   32.0210   39.4920 C   0  0  0  0  0  2  0  0  0  0  0  0
   42.6140   33.0860   40.0970 C   0  0  0  0  0  2  0  0  0  0  0  0
   41.7210   34.1610   40.6620 C   0  0  0  0  0  2  0  0  0  0  0  0
   40.4150   33.9180   39.9340 C   0  0  0  0  0  3  0  0  0  0  0  0
   40.4450   34.3550   38.9220 H   0  0  0  0  0  0  0  0  0  0  0  0
   37.0520   27.5560   42.9170 C   0  0  0  0  0  0  0  0  0  0  0  0
   37.2820   26.3630   42.2410 F   0  0  0  0  0  0  0  0  0  0  0  0
   35.9070   27.3300   43.6800 F   0  0  0  0  0  0  0  0  0  0  0  0
   38.1600   27.8300   43.6700 F   0  0  0  0  0  0  0  0  0  0  0  0
  1  2  1  0  0  0  0
  2  3  2  0  0  0  0
  2 10  1  0  0  0  0
  3 19  1  0  0  0  0
  4  3  1  0  0  0  0
  5  4  2  0  0  0  0
  6  5  1  0  0  0  0
  6  1  2  0  0  0  0
  7  9  1  0  0  0  0
  8  7  2  0  0  0  0
  9  1  1  0  0  0  0
  9 12  1  0  0  0  0
 11  5  1  0  0  0  0
 13 17  1  0  0  0  0
 13  7  1  0  0  0  0
 14 13  1  0  0  0  0
 14 15  1  0  0  0  0
 15 16  1  0  0  0  0
 17 16  1  0  0  0  0
 18 17  1  0  0  0  0
 19 22  1  0  0  0  0
 19 21  1  0  0  0  0
 20 19  1  0  0  0  0
M  END
>  <minimizedAffinity>
-5.21971178

$$$$

 OpenBabel03252503293D

 22 23  0  0  0  0  0  0  0  0999 V2000
   36.8680   28.1770   39.5870 C   0  0  0  0  0  0  0  0  0  0  0  0
   36.8990   27.7060   40.9250 C   0  0  0  0  0  0  0  0  0  0  0  0
   37.0220   26.3190   41.0870 C   0  0  0  0  0  0  0  0  0  0  0  0
   37.1010   25.5490   39.9830 N   0  0  0  0  0  0  0  0  0  0  0  0
   37.0680   26.0440   38.7310 C   0  0  0  0  0  0  0  0  0  0  0  0
   36.9500   27.3710   38.5360 N   0  0  0  0  0  0  0  0  0  0  0  0
   37.9650   30.2500   39.5610 C   0  0  0  0  0  0  0  0  0  0  0  0
   38.9550   29.5930   39.9840 O   0  0  0  0  0  0  0  0  0  0  0  0
   36.7430   29.5810   39.3200 N   0  0  0  0  0  0  0  0  0  0  0  0
   36.8280   28.3980   41.7360 H   0  0  0  0  0  0  0  0  0  0  0  0
   37.1340   25.3980   37.8630 H   0  0  0  0  0  0  0  0  0  0  0  0
   35.9360   30.1280   38.9990 H   0  0  0  0  0  0  0  0  0  0  0  0
   38.1800   31.6430   39.3600 N   0  0  0  0  0  0  0  0  0  0  0  0
   39.3360   32.3220   39.9190 C   0  0  0  0  0  2  0  0  0  0  0  0
   38.7780   33.6980   40.2170 C   0  0  0  0  0  2  0  0  0  0  0  0
   37.3860   33.7610   39.6420 C   0  0  0  0  0  2  0  0  0  0  0  0
   37.3980   32.6300   38.6340 C   0  0  0  0  0  3  0  0  0  0  0  0
   37.8910   32.9470   37.6990 H   0  0  0  0  0  0  0  0  0  0  0  0
   37.0520   25.8620   42.4750 C   0  0  0  0  0  0  0  0  0  0  0  0
   38.3730   25.7790   42.8990 F   0  0  0  0  0  0  0  0  0  0  0  0
   36.5810   24.5500   42.4830 F   0  0  0  0  0  0  0  0  0  0  0  0
   36.3850   26.6830   43.3430 F   0  0  0  0  0  0  0  0  0  0  0  0
  1  2  1  0  0  0  0
  2  3  2  0  0  0  0
  2 10  1  0  0  0  0
  3 19  1  0  0  0  0
  4  3  1  0  0  0  0
  5  4  2  0  0  0  0
  6  5  1  0  0  0  0
  6  1  2  0  0  0  0
  7  8  2  0  0  0  0
  9  7  1  0  0  0  0
  9  1  1  0  0  0  0
 11  5  1  0  0  0  0
 12  9  1  0  0  0  0
 13  7  1  0  0  0  0
 13 14  1  0  0  0  0
 14 15  1  0  0  0  0
 16 15  1  0  0  0  0
 17 13  1  0  0  0  0
 17 16  1  0  0  0  0
 18 17  1  0  0  0  0
 19 21  1  0  0  0  0
 19 20  1  0  0  0  0
 19 22  1  0  0  0  0
M  END
>  <minimizedAffinity>
-4.89269447

$$$$

 OpenBabel03252503293D

 22 23  0  0  0  0  0  0  0  0999 V2000
   39.3940   27.7420   41.8160 C   0  0  0  0  0  0  0  0  0  0  0  0
   38.4760   26.7400   41.4090 C   0  0  0  0  0  0  0  0  0  0  0  0
   38.3910   25.6110   42.2360 C   0  0  0  0  0  0  0  0  0  0  0  0
   39.1700   25.5590   43.3340 N   0  0  0  0  0  0  0  0  0  0  0  0
   40.0290   26.5380   43.6800 C   0  0  0  0  0  0  0  0  0  0  0  0
   40.1390   27.6370   42.9100 N   0  0  0  0  0  0  0  0  0  0  0  0
   38.4610   29.8120   41.2290 C   0  0  0  0  0  0  0  0  0  0  0  0
   37.5170   29.4640   41.9890 O   0  0  0  0  0  0  0  0  0  0  0  0
   39.5520   28.9340   41.0350 N   0  0  0  0  0  0  0  0  0  0  0  0
   37.9000   26.8730   40.5190 H   0  0  0  0  0  0  0  0  0  0  0  0
   40.6430   26.4670   44.5690 H   0  0  0  0  0  0  0  0  0  0  0  0
   40.3040   29.2160   40.3950 H   0  0  0  0  0  0  0  0  0  0  0  0
   38.3320   31.0930   40.6200 N   0  0  0  0  0  0  0  0  0  0  0  0
   37.0640   31.8010   40.6000 C   0  0  0  0  0  2  0  0  0  0  0  0
   37.1370   32.5370   39.2780 C   0  0  0  0  0  2  0  0  0  0  0  0
   38.5220   32.3340   38.7190 C   0  0  0  0  0  2  0  0  0  0  0  0
   39.3130   31.9260   39.9450 C   0  0  0  0  0  3  0  0  0  0  0  0
   39.5910   32.8120   40.5420 H   0  0  0  0  0  0  0  0  0  0  0  0
   37.4370   24.5950   41.7930 C   0  0  0  0  0  0  0  0  0  0  0  0
   36.9470   24.9460   40.5400 F   0  0  0  0  0  0  0  0  0  0  0  0
   36.3380   24.6670   42.6490 F   0  0  0  0  0  0  0  0  0  0  0  0
   37.9690   23.3390   41.6980 F   0  0  0  0  0  0  0  0  0  0  0  0
  1  6  1  0  0  0  0
  2  1  2  0  0  0  0
  2  3  1  0  0  0  0
  3  4  2  0  0  0  0
  4  5  1  0  0  0  0
  5 11  1  0  0  0  0
  6  5  2  0  0  0  0
  7  8  2  0  0  0  0
  9  7  1  0  0  0  0
  9  1  1  0  0  0  0
 10  2  1  0  0  0  0
 12  9  1  0  0  0  0
 13  7  1  0  0  0  0
 14 13  1  0  0  0  0
 15 14  1  0  0  0  0
 16 15  1  0  0  0  0
 16 17  1  0  0  0  0
 17 18  1  0  0  0  0
 17 13  1  0  0  0  0
 19  3  1  0  0  0  0
 19 21  1  0  0  0  0
 20 19  1  0  0  0  0
 22 19  1  0  0  0  0
M  END
>  <minimizedAffinity>
-4.86629534

$$$$

 OpenBabel03252503293D

 22 23  0  0  0  0  0  0  0  0999 V2000
   37.2570   26.7230   42.0280 C   0  0  0  0  0  0  0  0  0  0  0  0
   36.6670   27.6830   41.1650 C   0  0  0  0  0  0  0  0  0  0  0  0
   36.7170   29.0140   41.6000 C   0  0  0  0  0  0  0  0  0  0  0  0
   37.3080   29.2820   42.7810 N   0  0  0  0  0  0  0  0  0  0  0  0
   37.8560   28.3350   43.5670 C   0  0  0  0  0  0  0  0  0  0  0  0
   37.8270   27.0450   43.1830 N   0  0  0  0  0  0  0  0  0  0  0  0
   38.2170   25.0720   40.6680 C   0  0  0  0  0  0  0  0  0  0  0  0
   38.9040   26.0230   40.2070 O   0  0  0  0  0  0  0  0  0  0  0  0
   37.2540   25.3340   41.6700 N   0  0  0  0  0  0  0  0  0  0  0  0
   36.2200   27.3710   40.2460 H   0  0  0  0  0  0  0  0  0  0  0  0
   38.3250   28.5820   44.5120 H   0  0  0  0  0  0  0  0  0  0  0  0
   36.6830   24.5570   42.0210 H   0  0  0  0  0  0  0  0  0  0  0  0
   38.4860   23.7850   40.1190 N   0  0  0  0  0  0  0  0  0  0  0  0
   39.2420   23.6270   38.8890 C   0  0  0  0  0  2  0  0  0  0  0  0
   38.5940   22.4020   38.2780 C   0  0  0  0  0  2  0  0  0  0  0  0
   37.6280   21.8430   39.2920 C   0  0  0  0  0  2  0  0  0  0  0  0
   38.1200   22.4580   40.5860 C   0  0  0  0  0  3  0  0  0  0  0  0
   38.9880   21.9000   40.9780 H   0  0  0  0  0  0  0  0  0  0  0  0
   36.1030   29.9810   40.6920 C   0  0  0  0  0  0  0  0  0  0  0  0
   35.9220   31.1850   41.3620 F   0  0  0  0  0  0  0  0  0  0  0  0
   34.8170   29.5200   40.4130 F   0  0  0  0  0  0  0  0  0  0  0  0
   36.8430   30.2350   39.5700 F   0  0  0  0  0  0  0  0  0  0  0  0
  1  6  1  0  0  0  0
  2  3  1  0  0  0  0
  2  1  2  0  0  0  0
  3  4  2  0  0  0  0
  4  5  1  0  0  0  0
  5 11  1  0  0  0  0
  6  5  2  0  0  0  0
  7  9  1  0  0  0  0
  8  7  2  0  0  0  0
  9 12  1  0  0  0  0
  9  1  1  0  0  0  0
 10  2  1  0  0  0  0
 13 17  1  0  0  0  0
 13  7  1  0  0  0  0
 14 13  1  0  0  0  0
 15 14  1  0  0  0  0
 15 16  1  0  0  0  0
 16 17  1  0  0  0  0
 17 18  1  0  0  0  0
 19 20  1  0  0  0  0
 19  3  1  0  0  0  0
 21 19  1  0  0  0  0
 22 19  1  0  0  0  0
M  END
>  <minimizedAffinity>
-4.74677992

$$$$

 OpenBabel03252503293D

 22 23  0  0  0  0  0  0  0  0999 V2000
   38.3760   29.5650   41.8000 C   0  0  0  0  0  0  0  0  0  0  0  0
   37.7580   30.3190   40.7700 C   0  0  0  0  0  0  0  0  0  0  0  0
   38.2620   31.6120   40.5670 C   0  0  0  0  0  0  0  0  0  0  0  0
   39.2750   32.0350   41.3480 N   0  0  0  0  0  0  0  0  0  0  0  0
   39.8300   31.2810   42.3160 C   0  0  0  0  0  0  0  0  0  0  0  0
   39.3730   30.0350   42.5410 N   0  0  0  0  0  0  0  0  0  0  0  0
   38.3910   27.3260   41.1010 C   0  0  0  0  0  0  0  0  0  0  0  0
   39.0710   27.7610   40.1330 O   0  0  0  0  0  0  0  0  0  0  0  0
   37.9290   28.2320   42.0840 N   0  0  0  0  0  0  0  0  0  0  0  0
   36.9580   29.8950   40.2030 H   0  0  0  0  0  0  0  0  0  0  0  0
   40.6440   31.6500   42.9280 H   0  0  0  0  0  0  0  0  0  0  0  0
   37.3550   27.8720   42.8560 H   0  0  0  0  0  0  0  0  0  0  0  0
   38.1460   25.9240   41.1120 N   0  0  0  0  0  0  0  0  0  0  0  0
   38.3640   25.1040   39.9320 C   0  0  0  0  0  2  0  0  0  0  0  0
   37.2800   24.0570   40.0730 C   0  0  0  0  0  2  0  0  0  0  0  0
   36.6310   24.2490   41.4200 C   0  0  0  0  0  2  0  0  0  0  0  0
   37.6730   25.0500   42.1730 C   0  0  0  0  0  3  0  0  0  0  0  0
   38.4700   24.3900   42.5570 H   0  0  0  0  0  0  0  0  0  0  0  0
   37.6080   32.3660   39.4990 C   0  0  0  0  0  0  0  0  0  0  0  0
   36.5450   31.6220   39.0010 F   0  0  0  0  0  0  0  0  0  0  0  0
   38.5180   32.4550   38.4460 F   0  0  0  0  0  0  0  0  0  0  0  0
   37.1190   33.5800   39.8970 F   0  0  0  0  0  0  0  0  0  0  0  0
  1  9  1  0  0  0  0
  1  6  1  0  0  0  0
  2  1  2  0  0  0  0
  3  2  1  0  0  0  0
  3  4  2  0  0  0  0
  4  5  1  0  0  0  0
  5  6  2  0  0  0  0
  5 11  1  0  0  0  0
  7 13  1  0  0  0  0
  7  9  1  0  0  0  0
  8  7  2  0  0  0  0
  9 12  1  0  0  0  0
 10  2  1  0  0  0  0
 13 17  1  0  0  0  0
 14 15  1  0  0  0  0
 14 13  1  0  0  0  0
 15 16  1  0  0  0  0
 16 17  1  0  0  0  0
 17 18  1  0  0  0  0
 19 22  1  0  0  0  0
 19  3  1  0  0  0  0
 20 19  1  0  0  0  0
 21 19  1  0  0  0  0
M  END
>  <minimizedAffinity>
-4.69753313

$$$$

 OpenBabel03252503293D

 22 23  0  0  0  0  0  0  0  0999 V2000
   37.6110   29.2480   39.8050 C   0  0  0  0  0  0  0  0  0  0  0  0
   37.2980   28.1400   40.6340 C   0  0  0  0  0  0  0  0  0  0  0  0
   37.4820   28.3290   42.0110 C   0  0  0  0  0  0  0  0  0  0  0  0
   37.9330   29.5250   42.4390 N   0  0  0  0  0  0  0  0  0  0  0  0
   38.2160   30.5500   41.6120 C   0  0  0  0  0  0  0  0  0  0  0  0
   38.0530   30.4050   40.2840 N   0  0  0  0  0  0  0  0  0  0  0  0
   36.0910   29.2240   38.0190 C   0  0  0  0  0  0  0  0  0  0  0  0
   35.2170   29.3270   38.9210 O   0  0  0  0  0  0  0  0  0  0  0  0
   37.4560   29.1510   38.3830 N   0  0  0  0  0  0  0  0  0  0  0  0
   36.9470   27.2300   40.1980 H   0  0  0  0  0  0  0  0  0  0  0  0
   38.5780   31.4990   41.9880 H   0  0  0  0  0  0  0  0  0  0  0  0
   38.1590   29.0420   37.6420 H   0  0  0  0  0  0  0  0  0  0  0  0
   35.6060   29.1890   36.6810 N   0  0  0  0  0  0  0  0  0  0  0  0
   34.2040   28.9460   36.3870 C   0  0  0  0  0  2  0  0  0  0  0  0
   34.2850   28.1860   35.0790 C   0  0  0  0  0  2  0  0  0  0  0  0
   35.7240   28.2040   34.6290 C   0  0  0  0  0  2  0  0  0  0  0  0
   36.2980   29.3650   35.4140 C   0  0  0  0  0  3  0  0  0  0  0  0
   36.0460   30.3250   34.9320 H   0  0  0  0  0  0  0  0  0  0  0  0
   37.1520   27.1720   42.8400 C   0  0  0  0  0  0  0  0  0  0  0  0
   36.8450   26.0940   42.0170 F   0  0  0  0  0  0  0  0  0  0  0  0
   35.9660   27.4730   43.5080 F   0  0  0  0  0  0  0  0  0  0  0  0
   38.1620   26.7830   43.6770 F   0  0  0  0  0  0  0  0  0  0  0  0
  1  6  2  0  0  0  0
  1  2  1  0  0  0  0
  2  3  2  0  0  0  0
  3  4  1  0  0  0  0
  3 19  1  0  0  0  0
  5 11  1  0  0  0  0
  5  4  2  0  0  0  0
  6  5  1  0  0  0  0
  7  9  1  0  0  0  0
  7  8  2  0  0  0  0
  9  1  1  0  0  0  0
 10  2  1  0  0  0  0
 12  9  1  0  0  0  0
 13  7  1  0  0  0  0
 14 13  1  0  0  0  0
 15 14  1  0  0  0  0
 16 15  1  0  0  0  0
 16 17  1  0  0  0  0
 17 13  1  0  0  0  0
 18 17  1  0  0  0  0
 19 21  1  0  0  0  0
 19 22  1  0  0  0  0
 20 19  1  0  0  0  0
M  END
>  <minimizedAffinity>
-4.56776857

$$$$

 OpenBabel03252503293D

 22 23  0  0  0  0  0  0  0  0999 V2000
   36.3960   27.3830   39.3940 C   0  0  0  0  0  0  0  0  0  0  0  0
   36.8510   26.7130   40.5580 C   0  0  0  0  0  0  0  0  0  0  0  0
   36.8630   25.3130   40.4980 C   0  0  0  0  0  0  0  0  0  0  0  0
   36.4500   24.7160   39.3620 N   0  0  0  0  0  0  0  0  0  0  0  0
   36.0260   25.3960   38.2800 C   0  0  0  0  0  0  0  0  0  0  0  0
   35.9990   26.7420   38.3010 N   0  0  0  0  0  0  0  0  0  0  0  0
   37.6420   29.3610   39.2050 C   0  0  0  0  0  0  0  0  0  0  0  0
   38.6340   28.5860   39.1480 O   0  0  0  0  0  0  0  0  0  0  0  0
   36.3460   28.8160   39.3600 N   0  0  0  0  0  0  0  0  0  0  0  0
   37.1580   27.2760   41.4130 H   0  0  0  0  0  0  0  0  0  0  0  0
   35.7000   24.8870   37.3810 H   0  0  0  0  0  0  0  0  0  0  0  0
   35.5470   29.4570   39.4290 H   0  0  0  0  0  0  0  0  0  0  0  0
   37.9300   30.7520   39.1030 N   0  0  0  0  0  0  0  0  0  0  0  0
   39.2810   31.2620   39.2670 C   0  0  0  0  0  2  0  0  0  0  0  0
   39.0300   32.6100   39.9110 C   0  0  0  0  0  2  0  0  0  0  0  0
   37.5420   32.8480   39.9080 C   0  0  0  0  0  2  0  0  0  0  0  0
   37.0590   31.8860   38.8420 C   0  0  0  0  0  3  0  0  0  0  0  0
   37.2160   32.3090   37.8350 H   0  0  0  0  0  0  0  0  0  0  0  0
   37.3370   24.6490   41.7110 C   0  0  0  0  0  0  0  0  0  0  0  0
   36.3620   24.7500   42.6960 F   0  0  0  0  0  0  0  0  0  0  0  0
   38.4170   25.3910   42.1870 F   0  0  0  0  0  0  0  0  0  0  0  0
   37.6240   23.3220   41.5410 F   0  0  0  0  0  0  0  0  0  0  0  0
  1  2  1  0  0  0  0
  2 10  1  0  0  0  0
  3  2  2  0  0  0  0
  3 19  1  0  0  0  0
  4  3  1  0  0  0  0
  5  6  1  0  0  0  0
  5  4  2  0  0  0  0
  6  1  2  0  0  0  0
  7  9  1  0  0  0  0
  8  7  2  0  0  0  0
  9  1  1  0  0  0  0
  9 12  1  0  0  0  0
 11  5  1  0  0  0  0
 13  7  1  0  0  0  0
 13 14  1  0  0  0  0
 14 15  1  0  0  0  0
 16 15  1  0  0  0  0
 17 13  1  0  0  0  0
 17 16  1  0  0  0  0
 18 17  1  0  0  0  0
 19 21  1  0  0  0  0
 19 20  1  0  0  0  0
 22 19  1  0  0  0  0
M  END
>  <minimizedAffinity>
-4.55020666

$$$$

 OpenBabel03252503293D

 22 23  0  0  0  0  0  0  0  0999 V2000
   39.3570   29.3840   39.6530 C   0  0  0  0  0  0  0  0  0  0  0  0
   38.4860   30.3730   40.1750 C   0  0  0  0  0  0  0  0  0  0  0  0
   38.4460   31.5900   39.4790 C   0  0  0  0  0  0  0  0  0  0  0  0
   39.2230   31.7280   38.3860 N   0  0  0  0  0  0  0  0  0  0  0  0
   40.0360   30.7580   37.9270 C   0  0  0  0  0  0  0  0  0  0  0  0
   40.1020   29.5760   38.5700 N   0  0  0  0  0  0  0  0  0  0  0  0
   38.3370   27.3040   40.0180 C   0  0  0  0  0  0  0  0  0  0  0  0
   37.4070   27.7740   39.3090 O   0  0  0  0  0  0  0  0  0  0  0  0
   39.4670   28.1070   40.2970 N   0  0  0  0  0  0  0  0  0  0  0  0
   37.9090   30.1680   41.0510 H   0  0  0  0  0  0  0  0  0  0  0  0
   40.6490   30.9000   37.0450 H   0  0  0  0  0  0  0  0  0  0  0  0
   40.2090   27.7250   40.8950 H   0  0  0  0  0  0  0  0  0  0  0  0
   38.1560   25.9700   40.4830 N   0  0  0  0  0  0  0  0  0  0  0  0
   36.8580   25.3190   40.4370 C   0  0  0  0  0  2  0  0  0  0  0  0
   36.9040   24.4400   41.6690 C   0  0  0  0  0  2  0  0  0  0  0  0
   38.2990   24.5200   42.2350 C   0  0  0  0  0  2  0  0  0  0  0  0
   39.1020   25.0260   41.0540 C   0  0  0  0  0  3  0  0  0  0  0  0
   39.3390   24.2010   40.3610 H   0  0  0  0  0  0  0  0  0  0  0  0
   37.5390   32.5900   40.0390 C   0  0  0  0  0  0  0  0  0  0  0  0
   38.2630   33.4600   40.8460 F   0  0  0  0  0  0  0  0  0  0  0  0
   36.6770   31.9190   40.9050 F   0  0  0  0  0  0  0  0  0  0  0  0
   36.8890   33.3380   39.0960 F   0  0  0  0  0  0  0  0  0  0  0  0
  1  2  1  0  0  0  0
  1  9  1  0  0  0  0
  2 10  1  0  0  0  0
  3 19  1  0  0  0  0
  3  2  2  0  0  0  0
  4  3  1  0  0  0  0
  5  4  2  0  0  0  0
  5  6  1  0  0  0  0
  6  1  2  0  0  0  0
  7  9  1  0  0  0  0
  7 13  1  0  0  0  0
  8  7  2  0  0  0  0
  9 12  1  0  0  0  0
 11  5  1  0  0  0  0
 13 17  1  0  0  0  0
 14 13  1  0  0  0  0
 14 15  1  0  0  0  0
 15 16  1  0  0  0  0
 17 16  1  0  0  0  0
 18 17  1  0  0  0  0
 19 20  1  0  0  0  0
 19 21  1  0  0  0  0
 22 19  1  0  0  0  0
M  END
>  <minimizedAffinity>
-4.55002546

$$$$

 OpenBabel03252503293D

 22 23  0  0  0  0  0  0  0  0999 V2000
   36.5500   28.9440   40.3130 C   0  0  0  0  0  0  0  0  0  0  0  0
   36.9710   29.3130   39.0100 C   0  0  0  0  0  0  0  0  0  0  0  0
   37.0820   30.6890   38.7650 C   0  0  0  0  0  0  0  0  0  0  0  0
   36.7880   31.5440   39.7650 N   0  0  0  0  0  0  0  0  0  0  0  0
   36.3920   31.1450   40.9890 C   0  0  0  0  0  0  0  0  0  0  0  0
   36.2730   29.8310   41.2610 N   0  0  0  0  0  0  0  0  0  0  0  0
   37.6680   26.9570   40.8610 C   0  0  0  0  0  0  0  0  0  0  0  0
   38.7130   27.6430   40.6980 O   0  0  0  0  0  0  0  0  0  0  0  0
   36.4050   27.5590   40.6580 N   0  0  0  0  0  0  0  0  0  0  0  0
   37.1810   28.5590   38.2820 H   0  0  0  0  0  0  0  0  0  0  0  0
   36.1630   31.8570   41.7720 H   0  0  0  0  0  0  0  0  0  0  0  0
   35.5610   26.9850   40.7700 H   0  0  0  0  0  0  0  0  0  0  0  0
   37.8670   25.6000   41.2450 N   0  0  0  0  0  0  0  0  0  0  0  0
   39.1660   24.9590   41.1280 C   0  0  0  0  0  2  0  0  0  0  0  0
   38.7810   23.5300   40.8030 C   0  0  0  0  0  2  0  0  0  0  0  0
   37.2840   23.4190   40.9340 C   0  0  0  0  0  2  0  0  0  0  0  0
   36.9400   24.6210   41.7900 C   0  0  0  0  0  3  0  0  0  0  0  0
   37.1350   24.4090   42.8550 H   0  0  0  0  0  0  0  0  0  0  0  0
   37.5180   31.0410   37.4150 C   0  0  0  0  0  0  0  0  0  0  0  0
   36.7640   30.3250   36.4920 F   0  0  0  0  0  0  0  0  0  0  0  0
   38.8210   30.5670   37.2710 F   0  0  0  0  0  0  0  0  0  0  0  0
   37.3880   32.3700   37.1190 F   0  0  0  0  0  0  0  0  0  0  0  0
  1  9  1  0  0  0  0
  1  6  1  0  0  0  0
  2  1  2  0  0  0  0
  3  2  1  0  0  0  0
  3  4  2  0  0  0  0
  4  5  1  0  0  0  0
  5  6  2  0  0  0  0
  5 11  1  0  0  0  0
  7 13  1  0  0  0  0
  8  7  2  0  0  0  0
  9 12  1  0  0  0  0
  9  7  1  0  0  0  0
 10  2  1  0  0  0  0
 13 17  1  0  0  0  0
 14 13  1  0  0  0  0
 15 16  1  0  0  0  0
 15 14  1  0  0  0  0
 16 17  1  0  0  0  0
 17 18  1  0  0  0  0
 19  3  1  0  0  0  0
 20 19  1  0  0  0  0
 21 19  1  0  0  0  0
 22 19  1  0  0  0  0
M  END
>  <minimizedAffinity>
-4.54929399

$$$$
