
 OpenBabel03252502233D

 31 33  0  0  1  0  0  0  0  0999 V2000
   46.8360   34.6030   42.2310 N   0  0  0  0  0  0  0  0  0  0  0  0
   48.2820   34.6760   42.2700 C   0  0  0  0  0  0  0  0  0  0  0  0
   48.6690   35.4070   40.9910 C   0  0  0  0  0  0  0  0  0  0  0  0
   48.2800   34.5960   39.7810 C   0  0  0  0  0  0  0  0  0  0  0  0
   46.9720   33.9080   39.8900 C   0  0  0  0  0  0  0  0  0  0  0  0
   46.1040   34.3230   41.0270 C   0  0  1  0  0  0  0  0  0  0  0  0
   48.6430   35.2730   43.1310 H   0  0  0  0  0  0  0  0  0  0  0  0
   48.7030   33.6750   42.2090 H   0  0  0  0  0  0  0  0  0  0  0  0
   49.7820   35.5070   41.0200 H   0  0  0  0  0  0  0  0  0  0  0  0
   48.1620   36.3840   41.0280 H   0  0  0  0  0  0  0  0  0  0  0  0
   48.2690   35.3050   38.9250 H   0  0  0  0  0  0  0  0  0  0  0  0
   49.1070   33.8730   39.5230 H   0  0  0  0  0  0  0  0  0  0  0  0
   46.4130   34.0170   38.9330 H   0  0  0  0  0  0  0  0  0  0  0  0
   47.1880   32.8090   40.0420 H   0  0  0  0  0  0  0  0  0  0  0  0
   45.5260   35.2270   40.7090 H   0  0  0  0  0  0  0  0  0  0  0  0
   44.4900   36.0320   44.7780 C   0  0  0  0  0  0  0  0  0  0  0  0
   45.2030   35.9220   43.5690 C   0  0  0  0  0  0  0  0  0  0  0  0
   46.0640   34.8130   43.4210 C   0  0  0  0  0  0  0  0  0  0  0  0
   46.1520   33.9210   44.4530 N   0  0  0  0  0  0  0  0  0  0  0  0
   45.4380   34.0840   45.5930 C   0  0  0  0  0  0  0  0  0  0  0  0
   44.6040   35.1480   45.7500 N   0  0  0  0  0  0  0  0  0  0  0  0
   43.8550   36.9100   44.8080 H   0  0  0  0  0  0  0  0  0  0  0  0
   45.1420   36.6210   42.7450 H   0  0  0  0  0  0  0  0  0  0  0  0
   45.5040   33.3860   46.4050 H   0  0  0  0  0  0  0  0  0  0  0  0
   45.1800   33.2940   41.2690 O   0  0  0  0  0  0  0  0  0  0  0  0
   43.4860   35.5400   40.1490 H   0  0  0  0  0  0  0  0  0  0  0  0
   43.8580   34.5880   39.9690 N   0  0  0  0  0  0  0  0  0  0  0  0
   43.1840   33.8900   38.9140 C   0  0  0  0  0  2  0  0  0  0  0  0
   42.0990   33.1310   39.6460 C   0  0  0  0  0  2  0  0  0  0  0  0
   42.8950   32.6010   40.8390 C   0  0  0  0  0  2  0  0  0  0  0  0
   43.8700   33.7290   41.1460 C   0  0  1  0  0  3  0  0  0  0  0  0
  1  2  1  0  0  0  0
  1 18  1  0  0  0  0
  2  7  1  0  0  0  0
  3  9  1  0  0  0  0
  3 10  1  0  0  0  0
  3  2  1  0  0  0  0
  4  5  1  0  0  0  0
  4  3  1  0  0  0  0
  5 14  1  0  0  0  0
  5  6  1  0  0  0  0
  6 15  1  6  0  0  0
  6 25  1  0  0  0  0
  6  1  1  0  0  0  0
  8  2  1  0  0  0  0
 11  4  1  0  0  0  0
 12  4  1  0  0  0  0
 13  5  1  0  0  0  0
 16 22  1  0  0  0  0
 16 21  1  0  0  0  0
 17 16  2  0  0  0  0
 18 17  1  0  0  0  0
 18 19  2  0  0  0  0
 19 20  1  0  0  0  0
 20 21  2  0  0  0  0
 20 24  1  0  0  0  0
 23 17  1  0  0  0  0
 27 26  1  0  0  0  0
 27 31  1  0  0  0  0
 28 29  1  0  0  0  0
 28 27  1  0  0  0  0
 29 30  1  0  0  0  0
 30 31  1  0  0  0  0
 31 25  1  6  0  0  0
M  END
>  <minimizedAffinity>
-5.41867733

>  <minimizedRMSD>
0.536114752

$$$$
