
 OpenBabel03252506473D

 39 42  0  0  1  0  0  0  0  0999 V2000
   49.5450   33.4790   41.3680 N   0  0  1  0  0  0  0  0  0  0  0  0
   50.7050   33.0400   42.1440 C   0  0  0  0  0  0  0  0  0  0  0  0
   51.2590   31.7240   41.6820 C   0  0  0  0  0  0  0  0  0  0  0  0
   50.2360   30.6340   42.0020 C   0  0  0  0  0  0  0  0  0  0  0  0
   48.8390   31.1460   41.7830 C   0  0  0  0  0  0  0  0  0  0  0  0
   48.8840   32.3270   40.8520 C   0  0  2  0  0  0  0  0  0  0  0  0
   50.3720   32.9080   43.2070 H   0  0  0  0  0  0  0  0  0  0  0  0
   51.4930   33.7960   42.1380 H   0  0  0  0  0  0  0  0  0  0  0  0
   51.5080   31.7480   40.6030 H   0  0  0  0  0  0  0  0  0  0  0  0
   52.1970   31.5600   42.2180 H   0  0  0  0  0  0  0  0  0  0  0  0
   50.4520   29.7860   41.3250 H   0  0  0  0  0  0  0  0  0  0  0  0
   50.3730   30.3010   43.0460 H   0  0  0  0  0  0  0  0  0  0  0  0
   48.4800   31.5300   42.7660 H   0  0  0  0  0  0  0  0  0  0  0  0
   48.1130   30.4160   41.4480 H   0  0  0  0  0  0  0  0  0  0  0  0
   47.8090   32.6320   40.6940 H   0  0  0  0  0  0  0  0  0  0  0  0
   47.3510   34.6840   41.9630 C   0  0  1  0  0  0  0  0  0  0  0  0
   48.4470   35.6640   41.7510 C   0  0  0  0  0  0  0  0  0  0  0  0
   48.7620   34.3000   42.2150 C   0  0  2  0  0  0  0  0  0  0  0  0
   46.8190   34.4140   41.0130 H   0  0  0  0  0  0  0  0  0  0  0  0
   48.7680   35.9700   40.7310 H   0  0  0  0  0  0  0  0  0  0  0  0
   48.5270   36.4870   42.5080 H   0  0  0  0  0  0  0  0  0  0  0  0
   48.9920   34.1660   43.3080 H   0  0  0  0  0  0  0  0  0  0  0  0
   45.4990   35.9270   43.0860 C   0  0  0  0  0  0  0  0  0  0  0  0
   46.4270   34.8800   43.0820 C   0  0  0  0  0  0  0  0  0  0  0  0
   46.4300   33.9980   44.1890 C   0  0  0  0  0  0  0  0  0  0  0  0
   45.5420   34.2150   45.1820 N   0  0  0  0  0  0  0  0  0  0  0  0
   44.6540   35.2310   45.1650 C   0  0  0  0  0  0  0  0  0  0  0  0
   44.6260   36.0940   44.1200 N   0  0  0  0  0  0  0  0  0  0  0  0
   45.5040   36.5980   42.2370 H   0  0  0  0  0  0  0  0  0  0  0  0
   47.1370   33.1880   44.2030 H   0  0  0  0  0  0  0  0  0  0  0  0
   43.9410   35.4050   45.9640 H   0  0  0  0  0  0  0  0  0  0  0  0
   49.3750   31.9230   39.5610 N   0  0  0  0  0  0  0  0  0  0  0  0
   50.3220   32.3910   39.4640 H   0  0  0  0  0  0  0  0  0  0  0  0
   46.8500   33.4220   38.3670 H   0  0  0  0  0  0  0  0  0  0  0  0
   47.8650   33.5620   38.6250 N   0  0  0  0  0  0  0  0  0  0  0  0
   48.3880   34.4610   37.6200 C   0  0  0  0  0  2  0  0  0  0  0  0
   48.5970   33.5130   36.4580 C   0  0  0  0  0  2  0  0  0  0  0  0
   49.2950   32.3560   37.1450 C   0  0  0  0  0  2  0  0  0  0  0  0
   48.5480   32.3050   38.4690 C   0  0  1  0  0  3  0  0  0  0  0  0
  1  2  1  1  0  0  0
  1 18  1  0  0  0  0
  2  7  1  0  0  0  0
  3  4  1  0  0  0  0
  3  2  1  0  0  0  0
  3 10  1  0  0  0  0
  4 12  1  0  0  0  0
  5  4  1  0  0  0  0
  5 13  1  0  0  0  0
  6 15  1  6  0  0  0
  6  1  1  0  0  0  0
  6  5  1  0  0  0  0
  8  2  1  0  0  0  0
  9  3  1  0  0  0  0
 11  4  1  0  0  0  0
 14  5  1  0  0  0  0
 16 19  1  6  0  0  0
 16 18  1  0  0  0  0
 16 24  1  0  0  0  0
 17 16  1  0  0  0  0
 17 18  1  0  0  0  0
 17 21  1  0  0  0  0
 18 22  1  1  0  0  0
 20 17  1  0  0  0  0
 23 28  1  0  0  0  0
 24 23  2  0  0  0  0
 24 25  1  0  0  0  0
 25 30  1  0  0  0  0
 25 26  2  0  0  0  0
 27 26  1  0  0  0  0
 27 31  1  0  0  0  0
 28 27  2  0  0  0  0
 29 23  1  0  0  0  0
 32  6  1  0  0  0  0
 33 32  1  0  0  0  0
 34 35  1  0  0  0  0
 36 35  1  0  0  0  0
 37 38  1  0  0  0  0
 37 36  1  0  0  0  0
 38 39  1  0  0  0  0
 39 35  1  0  0  0  0
 39 32  1  1  0  0  0
M  END
>  <minimizedAffinity>
-5.29655027

>  <minimizedRMSD>
2.47190762

$$$$
