
 OpenBabel03252506473D

 39 42  0  0  1  0  0  0  0  0999 V2000
   49.5450   33.4790   41.3680 N   0  0  1  0  0  0  0  0  0  0  0  0
   50.7050   33.0400   42.1450 C   0  0  0  0  0  0  0  0  0  0  0  0
   51.2590   31.7240   41.6820 C   0  0  0  0  0  0  0  0  0  0  0  0
   50.2360   30.6330   42.0020 C   0  0  0  0  0  0  0  0  0  0  0  0
   48.8390   31.1460   41.7830 C   0  0  0  0  0  0  0  0  0  0  0  0
   48.8840   32.3270   40.8520 C   0  0  2  0  0  0  0  0  0  0  0  0
   50.3720   32.9070   43.2070 H   0  0  0  0  0  0  0  0  0  0  0  0
   51.4930   33.7950   42.1390 H   0  0  0  0  0  0  0  0  0  0  0  0
   51.5080   31.7470   40.6030 H   0  0  0  0  0  0  0  0  0  0  0  0
   52.1970   31.5590   42.2190 H   0  0  0  0  0  0  0  0  0  0  0  0
   50.4520   29.7860   41.3250 H   0  0  0  0  0  0  0  0  0  0  0  0
   50.3720   30.3000   43.0460 H   0  0  0  0  0  0  0  0  0  0  0  0
   48.4800   31.5300   42.7660 H   0  0  0  0  0  0  0  0  0  0  0  0
   48.1130   30.4160   41.4480 H   0  0  0  0  0  0  0  0  0  0  0  0
   47.8090   32.6320   40.6930 H   0  0  0  0  0  0  0  0  0  0  0  0
   47.3510   34.6830   41.9630 C   0  0  1  0  0  0  0  0  0  0  0  0
   48.4460   35.6630   41.7510 C   0  0  0  0  0  0  0  0  0  0  0  0
   48.7630   34.2990   42.2150 C   0  0  2  0  0  0  0  0  0  0  0  0
   46.8190   34.4130   41.0140 H   0  0  0  0  0  0  0  0  0  0  0  0
   48.7670   35.9690   40.7310 H   0  0  0  0  0  0  0  0  0  0  0  0
   48.5270   36.4870   42.5070 H   0  0  0  0  0  0  0  0  0  0  0  0
   48.9930   34.1660   43.3080 H   0  0  0  0  0  0  0  0  0  0  0  0
   45.4990   35.9270   43.0860 C   0  0  0  0  0  0  0  0  0  0  0  0
   46.4280   34.8800   43.0830 C   0  0  0  0  0  0  0  0  0  0  0  0
   46.4310   33.9980   44.1890 C   0  0  0  0  0  0  0  0  0  0  0  0
   45.5430   34.2150   45.1830 N   0  0  0  0  0  0  0  0  0  0  0  0
   44.6550   35.2310   45.1650 C   0  0  0  0  0  0  0  0  0  0  0  0
   44.6260   36.0930   44.1200 N   0  0  0  0  0  0  0  0  0  0  0  0
   45.5040   36.5970   42.2360 H   0  0  0  0  0  0  0  0  0  0  0  0
   47.1380   33.1880   44.2040 H   0  0  0  0  0  0  0  0  0  0  0  0
   43.9420   35.4050   45.9640 H   0  0  0  0  0  0  0  0  0  0  0  0
   49.3760   31.9230   39.5610 N   0  0  0  0  0  0  0  0  0  0  0  0
   50.3220   32.3900   39.4650 H   0  0  0  0  0  0  0  0  0  0  0  0
   46.8510   33.4210   38.3660 H   0  0  0  0  0  0  0  0  0  0  0  0
   47.8650   33.5610   38.6260 N   0  0  0  0  0  0  0  0  0  0  0  0
   48.3880   34.4610   37.6220 C   0  0  0  0  0  2  0  0  0  0  0  0
   48.5990   33.5140   36.4590 C   0  0  0  0  0  2  0  0  0  0  0  0
   49.2960   32.3580   37.1470 C   0  0  0  0  0  2  0  0  0  0  0  0
   48.5480   32.3040   38.4690 C   0  0  1  0  0  3  0  0  0  0  0  0
  1  2  1  1  0  0  0
  1 18  1  0  0  0  0
  2  7  1  0  0  0  0
  3  4  1  0  0  0  0
  3  2  1  0  0  0  0
  3 10  1  0  0  0  0
  4 12  1  0  0  0  0
  5  4  1  0  0  0  0
  5 13  1  0  0  0  0
  6 15  1  6  0  0  0
  6  1  1  0  0  0  0
  6  5  1  0  0  0  0
  8  2  1  0  0  0  0
  9  3  1  0  0  0  0
 11  4  1  0  0  0  0
 14  5  1  0  0  0  0
 16 19  1  6  0  0  0
 16 18  1  0  0  0  0
 16 24  1  0  0  0  0
 17 16  1  0  0  0  0
 17 18  1  0  0  0  0
 17 21  1  0  0  0  0
 18 22  1  1  0  0  0
 20 17  1  0  0  0  0
 23 28  1  0  0  0  0
 24 23  2  0  0  0  0
 24 25  1  0  0  0  0
 25 30  1  0  0  0  0
 25 26  2  0  0  0  0
 27 26  1  0  0  0  0
 27 31  1  0  0  0  0
 28 27  2  0  0  0  0
 29 23  1  0  0  0  0
 32  6  1  0  0  0  0
 33 32  1  0  0  0  0
 34 35  1  0  0  0  0
 36 35  1  0  0  0  0
 37 38  1  0  0  0  0
 37 36  1  0  0  0  0
 38 39  1  0  0  0  0
 39 35  1  0  0  0  0
 39 32  1  1  0  0  0
M  END
>  <minimizedAffinity>
-5.29909468

>  <minimizedRMSD>
2.06603146

$$$$
