
 OpenBabel03252506473D

 39 42  0  0  1  0  0  0  0  0999 V2000
   49.2510   33.2040   41.4710 N   0  0  1  0  0  0  0  0  0  0  0  0
   50.6020   33.1040   42.0240 C   0  0  0  0  0  0  0  0  0  0  0  0
   51.2620   31.7880   41.7310 C   0  0  0  0  0  0  0  0  0  0  0  0
   50.5230   30.6970   42.5060 C   0  0  0  0  0  0  0  0  0  0  0  0
   49.0440   30.9760   42.5220 C   0  0  0  0  0  0  0  0  0  0  0  0
   48.7000   31.8930   41.3800 C   0  0  2  0  0  0  0  0  0  0  0  0
   50.5200   33.1950   43.1380 H   0  0  0  0  0  0  0  0  0  0  0  0
   51.2340   33.9220   41.6720 H   0  0  0  0  0  0  0  0  0  0  0  0
   51.2770   31.5780   40.6440 H   0  0  0  0  0  0  0  0  0  0  0  0
   52.3030   31.8680   42.0520 H   0  0  0  0  0  0  0  0  0  0  0  0
   50.7340   29.7420   41.9910 H   0  0  0  0  0  0  0  0  0  0  0  0
   50.9230   30.6450   43.5340 H   0  0  0  0  0  0  0  0  0  0  0  0
   48.8350   31.5430   43.4590 H   0  0  0  0  0  0  0  0  0  0  0  0
   48.3980   30.1080   42.5310 H   0  0  0  0  0  0  0  0  0  0  0  0
   47.5800   32.0240   41.4210 H   0  0  0  0  0  0  0  0  0  0  0  0
   47.1320   34.5430   42.0500 C   0  0  1  0  0  0  0  0  0  0  0  0
   48.2640   35.4570   41.7500 C   0  0  0  0  0  0  0  0  0  0  0  0
   48.5310   34.1100   42.2870 C   0  0  2  0  0  0  0  0  0  0  0  0
   46.5610   34.2430   41.1340 H   0  0  0  0  0  0  0  0  0  0  0  0
   48.5680   35.6860   40.7050 H   0  0  0  0  0  0  0  0  0  0  0  0
   48.4040   36.3190   42.4530 H   0  0  0  0  0  0  0  0  0  0  0  0
   48.7880   34.0300   43.3800 H   0  0  0  0  0  0  0  0  0  0  0  0
   45.4020   35.9610   43.1630 C   0  0  0  0  0  0  0  0  0  0  0  0
   46.2520   34.8490   43.1810 C   0  0  0  0  0  0  0  0  0  0  0  0
   46.2170   34.0110   44.3210 C   0  0  0  0  0  0  0  0  0  0  0  0
   45.3710   34.3300   45.3230 N   0  0  0  0  0  0  0  0  0  0  0  0
   44.5590   35.4070   45.2840 C   0  0  0  0  0  0  0  0  0  0  0  0
   44.5690   36.2300   44.2070 N   0  0  0  0  0  0  0  0  0  0  0  0
   45.4350   36.5960   42.2870 H   0  0  0  0  0  0  0  0  0  0  0  0
   46.8640   33.1530   44.3520 H   0  0  0  0  0  0  0  0  0  0  0  0
   43.8800   35.6630   46.0910 H   0  0  0  0  0  0  0  0  0  0  0  0
   48.9780   31.2480   40.1240 N   0  0  0  0  0  0  0  0  0  0  0  0
   50.0250   31.0780   40.1240 H   0  0  0  0  0  0  0  0  0  0  0  0
   49.4470   33.6720   38.1360 H   0  0  0  0  0  0  0  0  0  0  0  0
   49.7210   32.6670   38.3140 N   0  0  0  0  0  0  0  0  0  0  0  0
   49.8440   32.0730   37.0010 C   0  0  0  0  0  2  0  0  0  0  0  0
   48.3910   31.8330   36.6500 C   0  0  0  0  0  2  0  0  0  0  0  0
   47.8810   31.2000   37.9290 C   0  0  0  0  0  2  0  0  0  0  0  0
   48.6240   32.0110   38.9780 C   0  0  1  0  0  3  0  0  0  0  0  0
  1  2  1  1  0  0  0
  1 18  1  0  0  0  0
  2  7  1  0  0  0  0
  3  2  1  0  0  0  0
  3 10  1  0  0  0  0
  3  4  1  0  0  0  0
  4  5  1  0  0  0  0
  4 12  1  0  0  0  0
  5 14  1  0  0  0  0
  5 13  1  0  0  0  0
  6 15  1  1  0  0  0
  6  1  1  0  0  0  0
  6  5  1  0  0  0  0
  8  2  1  0  0  0  0
  9  3  1  0  0  0  0
 11  4  1  0  0  0  0
 16 19  1  6  0  0  0
 16 18  1  0  0  0  0
 16 24  1  0  0  0  0
 17 16  1  0  0  0  0
 17 18  1  0  0  0  0
 17 21  1  0  0  0  0
 18 22  1  1  0  0  0
 20 17  1  0  0  0  0
 23 24  2  0  0  0  0
 23 28  1  0  0  0  0
 24 25  1  0  0  0  0
 25 30  1  0  0  0  0
 25 26  2  0  0  0  0
 27 26  1  0  0  0  0
 27 31  1  0  0  0  0
 28 27  2  0  0  0  0
 29 23  1  0  0  0  0
 32  6  1  0  0  0  0
 33 32  1  0  0  0  0
 34 35  1  0  0  0  0
 35 39  1  0  0  0  0
 36 35  1  0  0  0  0
 37 36  1  0  0  0  0
 37 38  1  0  0  0  0
 38 39  1  0  0  0  0
 39 32  1  1  0  0  0
M  END
>  <minimizedAffinity>
-4.94484138

>  <minimizedRMSD>
1.87860155

$$$$
