
 OpenBabel03252506213D

 32 34  0  0  1  0  0  0  0  0999 V2000
   45.0960   36.4600   43.3210 C   0  0  0  0  0  0  0  0  0  0  0  0
   44.0870   36.4180   42.3700 C   0  0  0  0  0  0  0  0  0  0  0  0
   44.1850   35.4520   41.3630 C   0  0  0  0  0  0  0  0  0  0  0  0
   45.2480   34.6120   41.3620 N   0  0  0  0  0  0  0  0  0  0  0  0
   46.2080   34.6900   42.3110 C   0  0  0  0  0  0  0  0  0  0  0  0
   46.1340   35.6060   43.2800 N   0  0  0  0  0  0  0  0  0  0  0  0
   43.2900   37.1210   42.4560 H   0  0  0  0  0  0  0  0  0  0  0  0
   43.3870   35.4330   40.6280 H   0  0  0  0  0  0  0  0  0  0  0  0
   48.7870   35.8170   41.1900 Cl  0  0  0  0  0  0  0  0  0  0  0  0
   48.5360   34.1920   41.7130 C   0  0  0  0  0  0  0  0  0  0  0  0
   47.3190   33.7310   42.2220 C   0  0  0  0  0  0  0  0  0  0  0  0
   47.0920   32.4400   42.6510 C   0  0  0  0  0  0  0  0  0  0  0  0
   48.1600   31.5800   42.5540 C   0  0  0  0  0  0  0  0  0  0  0  0
   49.4080   31.9140   42.0700 C   0  0  0  0  0  0  0  0  0  0  0  0
   49.5320   33.2430   41.6630 C   0  0  0  0  0  0  0  0  0  0  0  0
   46.1200   32.1520   43.0310 H   0  0  0  0  0  0  0  0  0  0  0  0
   47.9530   30.5570   42.9000 H   0  0  0  0  0  0  0  0  0  0  0  0
   50.2040   31.2080   42.0210 H   0  0  0  0  0  0  0  0  0  0  0  0
   50.4950   33.5350   41.2690 H   0  0  0  0  0  0  0  0  0  0  0  0
   45.0220   37.4670   44.3990 C   0  0  0  0  0  2  0  0  0  0  0  0
   45.3880   38.7160   44.1080 C   0  0  0  0  0  2  0  0  0  0  0  0
   45.2750   39.6890   45.2510 C   0  0  0  0  0  0  0  0  0  0  0  0
   46.3400   39.9430   45.5260 H   0  0  0  0  0  0  0  0  0  0  0  0
   44.6750   39.3260   46.0760 H   0  0  0  0  0  0  0  0  0  0  0  0
   44.7250   40.9100   44.6720 N   0  0  0  0  0  0  0  0  0  0  0  0
   44.1870   40.6300   43.8240 H   0  0  0  0  0  0  0  0  0  0  0  0
   43.9760   41.8880   47.6520 H   0  0  0  0  0  0  0  0  0  0  0  0
   44.5700   41.9110   46.7850 N   0  0  0  0  0  0  0  0  0  0  0  0
   45.0210   43.2320   46.4570 C   0  0  0  0  0  2  0  0  0  0  0  0
   44.2620   43.6880   45.2490 C   0  0  0  0  0  2  0  0  0  0  0  0
   43.1150   42.7010   45.1770 C   0  0  0  0  0  2  0  0  0  0  0  0
   43.8100   41.4440   45.6580 C   0  0  1  0  0  3  0  0  0  0  0  0
  1 20  1  0  0  0  0
  2  7  1  0  0  0  0
  2  1  2  0  0  0  0
  3  2  1  0  0  0  0
  4  3  2  0  0  0  0
  4  5  1  0  0  0  0
  5  6  2  0  0  0  0
  6  1  1  0  0  0  0
  8  3  1  0  0  0  0
  9 10  1  0  0  0  0
 10 11  1  0  0  0  0
 11  5  1  0  0  0  0
 11 12  2  0  0  0  0
 12 16  1  0  0  0  0
 13 12  1  0  0  0  0
 13 17  1  0  0  0  0
 14 13  2  0  0  0  0
 15 10  2  0  0  0  0
 15 14  1  0  0  0  0
 18 14  1  0  0  0  0
 19 15  1  0  0  0  0
 21 20  1  0  0  0  0
 21 22  1  0  0  0  0
 22 23  1  0  0  0  0
 22 24  1  0  0  0  0
 25 22  1  0  0  0  0
 26 25  1  0  0  0  0
 28 27  1  0  0  0  0
 29 28  1  0  0  0  0
 30 29  1  0  0  0  0
 31 30  1  0  0  0  0
 31 32  1  0  0  0  0
 32 25  1  6  0  0  0
 32 28  1  0  0  0  0
M  END
>  <minimizedAffinity>
-3.99576592

>  <minimizedRMSD>
1.35434365

$$$$
