
 OpenBabel03252506463D

 39 42  0  0  1  0  0  0  0  0999 V2000
   49.7390   33.6690   41.4550 N   0  0  1  0  0  0  0  0  0  0  0  0
   50.7150   33.0010   42.3180 C   0  0  0  0  0  0  0  0  0  0  0  0
   51.2380   31.7210   41.7330 C   0  0  0  0  0  0  0  0  0  0  0  0
   50.0950   30.7050   41.7040 C   0  0  0  0  0  0  0  0  0  0  0  0
   48.7980   31.3850   41.3600 C   0  0  0  0  0  0  0  0  0  0  0  0
   49.0890   32.6830   40.6580 C   0  0  2  0  0  0  0  0  0  0  0  0
   50.1980   32.7430   43.2780 H   0  0  0  0  0  0  0  0  0  0  0  0
   51.5470   33.6640   42.5600 H   0  0  0  0  0  0  0  0  0  0  0  0
   51.6660   31.8830   40.7250 H   0  0  0  0  0  0  0  0  0  0  0  0
   52.0550   31.3820   42.3730 H   0  0  0  0  0  0  0  0  0  0  0  0
   50.3580   29.9530   40.9360 H   0  0  0  0  0  0  0  0  0  0  0  0
   50.0270   30.2050   42.6860 H   0  0  0  0  0  0  0  0  0  0  0  0
   48.3080   31.6490   42.3260 H   0  0  0  0  0  0  0  0  0  0  0  0
   48.0860   30.7920   40.8000 H   0  0  0  0  0  0  0  0  0  0  0  0
   48.0830   33.1170   40.3890 H   0  0  0  0  0  0  0  0  0  0  0  0
   47.4820   34.7840   41.9860 C   0  0  1  0  0  0  0  0  0  0  0  0
   48.5580   35.8020   41.8800 C   0  0  0  0  0  0  0  0  0  0  0  0
   48.8890   34.4270   42.2960 C   0  0  2  0  0  0  0  0  0  0  0  0
   47.0100   34.5460   40.9980 H   0  0  0  0  0  0  0  0  0  0  0  0
   48.9240   36.1660   40.8940 H   0  0  0  0  0  0  0  0  0  0  0  0
   48.5740   36.5910   42.6780 H   0  0  0  0  0  0  0  0  0  0  0  0
   49.0650   34.2470   43.3930 H   0  0  0  0  0  0  0  0  0  0  0  0
   45.4930   35.8780   43.0290 C   0  0  0  0  0  0  0  0  0  0  0  0
   46.4960   34.9020   43.0630 C   0  0  0  0  0  0  0  0  0  0  0  0
   46.5120   34.0120   44.1620 C   0  0  0  0  0  0  0  0  0  0  0  0
   45.5650   34.1530   45.1140 N   0  0  0  0  0  0  0  0  0  0  0  0
   44.6070   35.1020   45.0610 C   0  0  0  0  0  0  0  0  0  0  0  0
   44.5640   35.9700   44.0210 N   0  0  0  0  0  0  0  0  0  0  0  0
   45.4880   36.5550   42.1840 H   0  0  0  0  0  0  0  0  0  0  0  0
   47.2750   33.2550   44.2050 H   0  0  0  0  0  0  0  0  0  0  0  0
   43.8460   35.2150   45.8270 H   0  0  0  0  0  0  0  0  0  0  0  0
   49.7600   32.4330   39.4090 N   0  0  0  0  0  0  0  0  0  0  0  0
   50.2230   33.3510   39.1530 H   0  0  0  0  0  0  0  0  0  0  0  0
   47.1820   32.8120   37.6060 H   0  0  0  0  0  0  0  0  0  0  0  0
   48.1980   33.0880   37.6860 N   0  0  0  0  0  0  0  0  0  0  0  0
   48.6820   33.1370   36.3240 C   0  0  0  0  0  2  0  0  0  0  0  0
   48.8870   31.6660   36.0320 C   0  0  0  0  0  2  0  0  0  0  0  0
   49.6220   31.2190   37.2800 C   0  0  0  0  0  2  0  0  0  0  0  0
   48.9030   32.0240   38.3510 C   0  0  1  0  0  3  0  0  0  0  0  0
  1 18  1  0  0  0  0
  1  2  1  1  0  0  0
  2  8  1  0  0  0  0
  2  7  1  0  0  0  0
  3  2  1  0  0  0  0
  3 10  1  0  0  0  0
  4  3  1  0  0  0  0
  4 12  1  0  0  0  0
  5  4  1  0  0  0  0
  5 13  1  0  0  0  0
  6 15  1  6  0  0  0
  6  5  1  0  0  0  0
  6  1  1  0  0  0  0
  9  3  1  0  0  0  0
 11  4  1  0  0  0  0
 14  5  1  0  0  0  0
 16 19  1  6  0  0  0
 16 18  1  0  0  0  0
 16 24  1  0  0  0  0
 17 16  1  0  0  0  0
 17 18  1  0  0  0  0
 17 21  1  0  0  0  0
 18 22  1  1  0  0  0
 20 17  1  0  0  0  0
 23 24  2  0  0  0  0
 23 28  1  0  0  0  0
 24 25  1  0  0  0  0
 25 30  1  0  0  0  0
 25 26  2  0  0  0  0
 27 26  1  0  0  0  0
 27 31  1  0  0  0  0
 28 27  2  0  0  0  0
 29 23  1  0  0  0  0
 32  6  1  0  0  0  0
 33 32  1  0  0  0  0
 34 35  1  0  0  0  0
 35 39  1  0  0  0  0
 36 35  1  0  0  0  0
 37 36  1  0  0  0  0
 37 38  1  0  0  0  0
 38 39  1  0  0  0  0
 39 32  1  1  0  0  0
M  END
>  <minimizedAffinity>
-4.94215965

>  <minimizedRMSD>
1.85227537

$$$$
