
 OpenBabel03252506213D

 32 34  0  0  1  0  0  0  0  0999 V2000
   45.0940   36.4650   43.3000 C   0  0  0  0  0  0  0  0  0  0  0  0
   44.0740   36.4270   42.3610 C   0  0  0  0  0  0  0  0  0  0  0  0
   44.1610   35.4660   41.3490 C   0  0  0  0  0  0  0  0  0  0  0  0
   45.2230   34.6250   41.3330 N   0  0  0  0  0  0  0  0  0  0  0  0
   46.1940   34.6990   42.2710 C   0  0  0  0  0  0  0  0  0  0  0  0
   46.1310   35.6110   43.2450 N   0  0  0  0  0  0  0  0  0  0  0  0
   43.2790   37.1310   42.4590 H   0  0  0  0  0  0  0  0  0  0  0  0
   43.3550   35.4500   40.6230 H   0  0  0  0  0  0  0  0  0  0  0  0
   48.7890   35.8540   41.2190 Cl  0  0  0  0  0  0  0  0  0  0  0  0
   48.5270   34.2140   41.6870 C   0  0  0  0  0  0  0  0  0  0  0  0
   47.3030   33.7400   42.1660 C   0  0  0  0  0  0  0  0  0  0  0  0
   47.0670   32.4370   42.5500 C   0  0  0  0  0  0  0  0  0  0  0  0
   48.1350   31.5770   42.4390 C   0  0  0  0  0  0  0  0  0  0  0  0
   49.3890   31.9230   41.9820 C   0  0  0  0  0  0  0  0  0  0  0  0
   49.5220   33.2630   41.6200 C   0  0  0  0  0  0  0  0  0  0  0  0
   46.0900   32.1400   42.9090 H   0  0  0  0  0  0  0  0  0  0  0  0
   47.9210   30.5440   42.7500 H   0  0  0  0  0  0  0  0  0  0  0  0
   50.1850   31.2170   41.9210 H   0  0  0  0  0  0  0  0  0  0  0  0
   50.4910   33.5650   41.2460 H   0  0  0  0  0  0  0  0  0  0  0  0
   45.0320   37.4680   44.3830 C   0  0  0  0  0  2  0  0  0  0  0  0
   45.3810   38.7220   44.0900 C   0  0  0  0  0  2  0  0  0  0  0  0
   45.2830   39.6890   45.2380 C   0  0  0  0  0  0  0  0  0  0  0  0
   46.3510   39.9370   45.5060 H   0  0  0  0  0  0  0  0  0  0  0  0
   44.6880   39.3250   46.0670 H   0  0  0  0  0  0  0  0  0  0  0  0
   44.7330   40.9150   44.6700 N   0  0  0  0  0  0  0  0  0  0  0  0
   44.1950   40.6430   43.8190 H   0  0  0  0  0  0  0  0  0  0  0  0
   43.9830   41.8750   47.6560 H   0  0  0  0  0  0  0  0  0  0  0  0
   44.5760   41.9050   46.7880 N   0  0  0  0  0  0  0  0  0  0  0  0
   45.0210   43.2300   46.4660 C   0  0  0  0  0  2  0  0  0  0  0  0
   44.2570   43.6870   45.2610 C   0  0  0  0  0  2  0  0  0  0  0  0
   43.1140   42.6950   45.1860 C   0  0  0  0  0  2  0  0  0  0  0  0
   43.8160   41.4400   45.6600 C   0  0  1  0  0  3  0  0  0  0  0  0
  1 20  1  0  0  0  0
  2  7  1  0  0  0  0
  2  1  2  0  0  0  0
  3  2  1  0  0  0  0
  4  3  2  0  0  0  0
  4  5  1  0  0  0  0
  5  6  2  0  0  0  0
  6  1  1  0  0  0  0
  8  3  1  0  0  0  0
  9 10  1  0  0  0  0
 10 11  1  0  0  0  0
 11  5  1  0  0  0  0
 11 12  2  0  0  0  0
 12 16  1  0  0  0  0
 13 12  1  0  0  0  0
 13 17  1  0  0  0  0
 14 13  2  0  0  0  0
 15 10  2  0  0  0  0
 15 14  1  0  0  0  0
 18 14  1  0  0  0  0
 19 15  1  0  0  0  0
 21 20  1  0  0  0  0
 21 22  1  0  0  0  0
 22 23  1  0  0  0  0
 22 24  1  0  0  0  0
 25 22  1  0  0  0  0
 26 25  1  0  0  0  0
 28 27  1  0  0  0  0
 29 28  1  0  0  0  0
 30 29  1  0  0  0  0
 31 30  1  0  0  0  0
 31 32  1  0  0  0  0
 32 25  1  6  0  0  0
 32 28  1  0  0  0  0
M  END
>  <minimizedAffinity>
-3.99770045

>  <minimizedRMSD>
1.25746834

$$$$
