
 OpenBabel03252506213D

 32 34  0  0  1  0  0  0  0  0999 V2000
   45.1120   36.5580   43.3030 C   0  0  0  0  0  0  0  0  0  0  0  0
   44.0720   36.5170   42.3860 C   0  0  0  0  0  0  0  0  0  0  0  0
   44.1250   35.5370   41.3900 C   0  0  0  0  0  0  0  0  0  0  0  0
   45.1760   34.6830   41.3660 N   0  0  0  0  0  0  0  0  0  0  0  0
   46.1680   34.7600   42.2820 C   0  0  0  0  0  0  0  0  0  0  0  0
   46.1360   35.6900   43.2410 N   0  0  0  0  0  0  0  0  0  0  0  0
   43.2880   37.2320   42.4880 H   0  0  0  0  0  0  0  0  0  0  0  0
   43.3030   35.5190   40.6810 H   0  0  0  0  0  0  0  0  0  0  0  0
   48.7770   35.8810   41.2280 Cl  0  0  0  0  0  0  0  0  0  0  0  0
   48.4920   34.2430   41.6910 C   0  0  0  0  0  0  0  0  0  0  0  0
   47.2620   33.7850   42.1710 C   0  0  0  0  0  0  0  0  0  0  0  0
   47.0080   32.4840   42.5500 C   0  0  0  0  0  0  0  0  0  0  0  0
   48.0620   31.6090   42.4340 C   0  0  0  0  0  0  0  0  0  0  0  0
   49.3210   31.9380   41.9750 C   0  0  0  0  0  0  0  0  0  0  0  0
   49.4730   33.2780   41.6170 C   0  0  0  0  0  0  0  0  0  0  0  0
   46.0270   32.2010   42.9100 H   0  0  0  0  0  0  0  0  0  0  0  0
   47.8340   30.5790   42.7410 H   0  0  0  0  0  0  0  0  0  0  0  0
   50.1060   31.2210   41.9090 H   0  0  0  0  0  0  0  0  0  0  0  0
   50.4450   33.5670   41.2430 H   0  0  0  0  0  0  0  0  0  0  0  0
   45.0860   37.5800   44.3690 C   0  0  0  0  0  2  0  0  0  0  0  0
   45.3730   38.8380   44.0310 C   0  0  0  0  0  2  0  0  0  0  0  0
   45.3160   39.8250   45.1660 C   0  0  0  0  0  0  0  0  0  0  0  0
   46.3660   40.2270   45.2590 H   0  0  0  0  0  0  0  0  0  0  0  0
   44.9120   39.4140   46.0830 H   0  0  0  0  0  0  0  0  0  0  0  0
   44.5170   40.9420   44.6720 N   0  0  0  0  0  0  0  0  0  0  0  0
   43.7260   40.5350   44.1290 H   0  0  0  0  0  0  0  0  0  0  0  0
   44.8230   42.8060   47.2840 H   0  0  0  0  0  0  0  0  0  0  0  0
   44.9290   42.6180   46.2560 N   0  0  0  0  0  0  0  0  0  0  0  0
   44.6660   43.7750   45.4510 C   0  0  0  0  0  2  0  0  0  0  0  0
   43.3510   43.5680   44.7650 C   0  0  0  0  0  2  0  0  0  0  0  0
   42.7450   42.4130   45.5370 C   0  0  0  0  0  2  0  0  0  0  0  0
   43.9920   41.6090   45.8440 C   0  0  1  0  0  3  0  0  0  0  0  0
  1 20  1  0  0  0  0
  2  7  1  0  0  0  0
  2  1  2  0  0  0  0
  3  2  1  0  0  0  0
  4  3  2  0  0  0  0
  4  5  1  0  0  0  0
  5  6  2  0  0  0  0
  6  1  1  0  0  0  0
  8  3  1  0  0  0  0
  9 10  1  0  0  0  0
 10 11  1  0  0  0  0
 11  5  1  0  0  0  0
 11 12  2  0  0  0  0
 12 16  1  0  0  0  0
 13 12  1  0  0  0  0
 13 17  1  0  0  0  0
 14 13  2  0  0  0  0
 15 10  2  0  0  0  0
 15 14  1  0  0  0  0
 18 14  1  0  0  0  0
 19 15  1  0  0  0  0
 21 20  1  0  0  0  0
 21 22  1  0  0  0  0
 22 23  1  0  0  0  0
 22 24  1  0  0  0  0
 25 22  1  0  0  0  0
 26 25  1  0  0  0  0
 28 27  1  0  0  0  0
 29 28  1  0  0  0  0
 30 29  1  0  0  0  0
 30 31  1  0  0  0  0
 31 32  1  0  0  0  0
 32 25  1  6  0  0  0
 32 28  1  0  0  0  0
M  END
>  <minimizedAffinity>
-4.2207303

>  <minimizedRMSD>
0.694267631

$$$$
