
 OpenBabel03242515483D

 40 43  0  0  1  0  0  0  0  0999 V2000
   40.9420   33.7400   41.2610 C   0  0  0  0  0  0  0  0  0  0  0  0
   42.2960   33.3970   41.2260 C   0  0  0  0  0  0  0  0  0  0  0  0
   42.7200   32.1660   41.6760 C   0  0  0  0  0  0  0  0  0  0  0  0
   41.8410   31.2510   42.1640 C   0  0  0  0  0  0  0  0  0  0  0  0
   40.5050   31.5740   42.2050 C   0  0  0  0  0  0  0  0  0  0  0  0
   40.0490   32.7890   41.7650 C   0  0  0  0  0  0  0  0  0  0  0  0
   39.8270   30.4660   42.7460 O   0  0  0  0  0  0  0  0  0  0  0  0
   40.7570   29.5870   43.2380 C   0  0  1  0  0  0  0  0  0  0  0  0
   41.9920   29.9570   42.6750 O   0  0  0  0  0  0  0  0  0  0  0  0
   40.5330   34.6620   40.9350 H   0  0  0  0  0  0  0  0  0  0  0  0
   43.7760   31.9990   41.6080 H   0  0  0  0  0  0  0  0  0  0  0  0
   38.9940   33.0280   41.8030 H   0  0  0  0  0  0  0  0  0  0  0  0
   40.4780   28.5360   42.9690 H   0  0  0  0  0  0  0  0  0  0  0  0
   40.7800   29.6500   44.6830 N   0  0  0  0  0  0  0  0  0  0  0  0
   41.7070   30.0560   44.9540 H   0  0  0  0  0  0  0  0  0  0  0  0
   39.6580   26.7010   44.3710 H   0  0  0  0  0  0  0  0  0  0  0  0
   40.4090   27.3530   44.0890 N   0  0  0  0  0  0  0  0  0  0  0  0
   41.6050   26.5830   43.7540 C   0  0  0  0  0  2  0  0  0  0  0  0
   42.2000   26.3990   45.1470 C   0  0  0  0  0  2  0  0  0  0  0  0
   42.1740   27.8560   45.6150 C   0  0  0  0  0  2  0  0  0  0  0  0
   40.7980   28.2650   45.1470 C   0  0  1  0  0  3  0  0  0  0  0  0
   43.3260   34.7070   40.5540 S   0  0  0  0  0  0  0  0  0  0  0  0
   44.9740   34.0180   40.1520 C   0  0  0  0  0  0  0  0  0  0  0  0
   45.0450   33.2610   39.0300 C   0  0  0  0  0  0  0  0  0  0  0  0
   46.2970   32.7430   38.7550 C   0  0  0  0  0  0  0  0  0  0  0  0
   47.3630   32.9750   39.5390 N   0  0  0  0  0  0  0  0  0  0  0  0
   47.2450   33.7360   40.6460 C   0  0  0  0  0  0  0  0  0  0  0  0
   46.0380   34.2390   40.9210 N   0  0  0  0  0  0  0  0  0  0  0  0
   46.4860   31.9140   37.5950 N   0  0  0  0  0  0  0  0  0  0  0  0
   46.5180   32.2990   36.6260 H   0  0  0  0  0  0  0  0  0  0  0  0
   46.5810   30.9080   37.8790 H   0  0  0  0  0  0  0  0  0  0  0  0
   44.0610   32.8500   37.9780 C   0  0  0  0  0  0  0  0  0  0  0  0
   43.9410   31.7480   38.0830 H   0  0  0  0  0  0  0  0  0  0  0  0
   44.4890   33.0200   36.9620 H   0  0  0  0  0  0  0  0  0  0  0  0
   43.0970   33.3480   38.0970 H   0  0  0  0  0  0  0  0  0  0  0  0
   48.2680   34.0410   41.5230 O   0  0  0  0  0  0  0  0  0  0  0  0
   48.7420   35.3840   41.5190 C   0  0  0  0  0  0  0  0  0  0  0  0
   49.9420   35.4830   42.1400 F   0  0  0  0  0  0  0  0  0  0  0  0
   48.7930   35.7940   40.1760 F   0  0  0  0  0  0  0  0  0  0  0  0
   47.8250   36.1620   42.2280 F   0  0  0  0  0  0  0  0  0  0  0  0
  1  6  1  0  0  0  0
  2  1  2  0  0  0  0
  2  3  1  0  0  0  0
  3  4  2  0  0  0  0
  4  5  1  0  0  0  0
  4  9  1  0  0  0  0
  5  7  1  0  0  0  0
  6 12  1  0  0  0  0
  6  5  2  0  0  0  0
  7  8  1  0  0  0  0
  8 13  1  6  0  0  0
  8 14  1  0  0  0  0
  9  8  1  0  0  0  0
 10  1  1  0  0  0  0
 11  3  1  0  0  0  0
 14 15  1  0  0  0  0
 17 16  1  0  0  0  0
 17 21  1  0  0  0  0
 18 17  1  0  0  0  0
 18 19  1  0  0  0  0
 19 20  1  0  0  0  0
 21 14  1  6  0  0  0
 21 20  1  0  0  0  0
 22  2  1  0  0  0  0
 23 22  1  0  0  0  0
 23 28  1  0  0  0  0
 24 23  2  0  0  0  0
 25 24  1  0  0  0  0
 25 26  2  0  0  0  0
 26 27  1  0  0  0  0
 27 28  2  0  0  0  0
 27 36  1  0  0  0  0
 29 31  1  0  0  0  0
 29 25  1  0  0  0  0
 30 29  1  0  0  0  0
 32 33  1  0  0  0  0
 32 35  1  0  0  0  0
 32 24  1  0  0  0  0
 34 32  1  0  0  0  0
 37 36  1  0  0  0  0
 37 38  1  0  0  0  0
 37 40  1  0  0  0  0
 39 37  1  0  0  0  0
M  END
>  <minimizedAffinity>
-5.83404207

>  <minimizedRMSD>
2.68818378

$$$$
