
 OpenBabel03252506213D

 32 34  0  0  1  0  0  0  0  0999 V2000
   45.1060   36.2870   43.1870 C   0  0  0  0  0  0  0  0  0  0  0  0
   44.0890   36.1870   42.2500 C   0  0  0  0  0  0  0  0  0  0  0  0
   44.2080   35.1990   41.2670 C   0  0  0  0  0  0  0  0  0  0  0  0
   45.2980   34.3950   41.2740 N   0  0  0  0  0  0  0  0  0  0  0  0
   46.2650   34.5290   42.2090 C   0  0  0  0  0  0  0  0  0  0  0  0
   46.1710   35.4670   43.1550 N   0  0  0  0  0  0  0  0  0  0  0  0
   43.2700   36.8660   42.3270 H   0  0  0  0  0  0  0  0  0  0  0  0
   43.4030   35.1350   40.5410 H   0  0  0  0  0  0  0  0  0  0  0  0
   48.8120   35.7300   41.0930 Cl  0  0  0  0  0  0  0  0  0  0  0  0
   48.6100   34.1010   41.6250 C   0  0  0  0  0  0  0  0  0  0  0  0
   47.4060   33.6040   42.1320 C   0  0  0  0  0  0  0  0  0  0  0  0
   47.2180   32.3100   42.5670 C   0  0  0  0  0  0  0  0  0  0  0  0
   48.3130   31.4840   42.4800 C   0  0  0  0  0  0  0  0  0  0  0  0
   49.5520   31.8540   42.0000 C   0  0  0  0  0  0  0  0  0  0  0  0
   49.6360   33.1830   41.5860 C   0  0  0  0  0  0  0  0  0  0  0  0
   46.2540   31.9940   42.9440 H   0  0  0  0  0  0  0  0  0  0  0  0
   48.1370   30.4570   42.8310 H   0  0  0  0  0  0  0  0  0  0  0  0
   50.3710   31.1740   41.9590 H   0  0  0  0  0  0  0  0  0  0  0  0
   50.5920   33.5030   41.1940 H   0  0  0  0  0  0  0  0  0  0  0  0
   45.0110   37.3180   44.2390 C   0  0  0  0  0  2  0  0  0  0  0  0
   45.4210   38.5520   43.9390 C   0  0  0  0  0  2  0  0  0  0  0  0
   45.2830   39.5520   45.0560 C   0  0  0  0  0  0  0  0  0  0  0  0
   46.3160   39.9880   45.1880 H   0  0  0  0  0  0  0  0  0  0  0  0
   44.8530   39.1400   45.9610 H   0  0  0  0  0  0  0  0  0  0  0  0
   44.4730   40.6360   44.5120 N   0  0  0  0  0  0  0  0  0  0  0  0
   43.4780   40.4110   44.7270 H   0  0  0  0  0  0  0  0  0  0  0  0
   45.0090   43.8080   44.7350 H   0  0  0  0  0  0  0  0  0  0  0  0
   44.4060   42.9780   44.5060 N   0  0  0  0  0  0  0  0  0  0  0  0
   43.0300   43.1780   44.8590 C   0  0  0  0  0  2  0  0  0  0  0  0
   42.7370   42.3280   46.0560 C   0  0  0  0  0  2  0  0  0  0  0  0
   44.1190   41.9590   46.5560 C   0  0  0  0  0  2  0  0  0  0  0  0
   44.8560   41.8270   45.2400 C   0  0  1  0  0  3  0  0  0  0  0  0
  1 20  1  0  0  0  0
  2  7  1  0  0  0  0
  2  1  2  0  0  0  0
  3  4  2  0  0  0  0
  3  2  1  0  0  0  0
  4  5  1  0  0  0  0
  5  6  2  0  0  0  0
  6  1  1  0  0  0  0
  8  3  1  0  0  0  0
  9 10  1  0  0  0  0
 10 11  1  0  0  0  0
 11  5  1  0  0  0  0
 11 12  2  0  0  0  0
 12 16  1  0  0  0  0
 13 12  1  0  0  0  0
 13 17  1  0  0  0  0
 14 13  2  0  0  0  0
 15 10  2  0  0  0  0
 15 14  1  0  0  0  0
 18 14  1  0  0  0  0
 19 15  1  0  0  0  0
 21 20  1  0  0  0  0
 21 22  1  0  0  0  0
 22 23  1  0  0  0  0
 22 24  1  0  0  0  0
 25 26  1  0  0  0  0
 25 22  1  0  0  0  0
 28 27  1  0  0  0  0
 28 29  1  0  0  0  0
 28 32  1  0  0  0  0
 29 30  1  0  0  0  0
 30 31  1  0  0  0  0
 32 25  1  6  0  0  0
 32 31  1  0  0  0  0
M  END
>  <minimizedAffinity>
-4.18469477

>  <minimizedRMSD>
1.31788313

$$$$
