
 OpenBabel03252506213D

 32 34  0  0  1  0  0  0  0  0999 V2000
   45.1130   36.4730   43.3370 C   0  0  0  0  0  0  0  0  0  0  0  0
   44.1080   36.3950   42.3840 C   0  0  0  0  0  0  0  0  0  0  0  0
   44.2370   35.4280   41.3820 C   0  0  0  0  0  0  0  0  0  0  0  0
   45.3250   34.6200   41.3880 N   0  0  0  0  0  0  0  0  0  0  0  0
   46.2800   34.7320   42.3380 C   0  0  0  0  0  0  0  0  0  0  0  0
   46.1760   35.6500   43.3030 N   0  0  0  0  0  0  0  0  0  0  0  0
   43.2900   37.0750   42.4650 H   0  0  0  0  0  0  0  0  0  0  0  0
   43.4420   35.3810   40.6450 H   0  0  0  0  0  0  0  0  0  0  0  0
   48.8780   35.9780   41.4040 Cl  0  0  0  0  0  0  0  0  0  0  0  0
   48.6460   34.3230   41.8320 C   0  0  0  0  0  0  0  0  0  0  0  0
   47.4200   33.8060   42.2570 C   0  0  0  0  0  0  0  0  0  0  0  0
   47.2070   32.4900   42.6090 C   0  0  0  0  0  0  0  0  0  0  0  0
   48.3020   31.6630   42.5220 C   0  0  0  0  0  0  0  0  0  0  0  0
   49.5620   32.0520   42.1170 C   0  0  0  0  0  0  0  0  0  0  0  0
   49.6690   33.4020   41.7840 C   0  0  0  0  0  0  0  0  0  0  0  0
   46.2260   32.1590   42.9260 H   0  0  0  0  0  0  0  0  0  0  0  0
   48.1060   30.6180   42.8060 H   0  0  0  0  0  0  0  0  0  0  0  0
   50.3790   31.3690   42.0730 H   0  0  0  0  0  0  0  0  0  0  0  0
   50.6420   33.7380   41.4530 H   0  0  0  0  0  0  0  0  0  0  0  0
   45.0060   37.4820   44.4100 C   0  0  0  0  0  2  0  0  0  0  0  0
   45.4070   38.7240   44.1360 C   0  0  0  0  0  2  0  0  0  0  0  0
   45.2580   39.7000   45.2720 C   0  0  0  0  0  0  0  0  0  0  0  0
   46.3140   39.9650   45.5720 H   0  0  0  0  0  0  0  0  0  0  0  0
   44.6420   39.3350   46.0840 H   0  0  0  0  0  0  0  0  0  0  0  0
   44.7100   40.9130   44.6750 N   0  0  0  0  0  0  0  0  0  0  0  0
   44.1710   40.6220   43.8320 H   0  0  0  0  0  0  0  0  0  0  0  0
   43.9570   41.9220   47.6440 H   0  0  0  0  0  0  0  0  0  0  0  0
   44.5550   41.9320   46.7790 N   0  0  0  0  0  0  0  0  0  0  0  0
   45.0220   43.2450   46.4430 C   0  0  0  0  0  2  0  0  0  0  0  0
   44.2740   43.6990   45.2290 C   0  0  0  0  0  2  0  0  0  0  0  0
   43.1160   42.7240   45.1590 C   0  0  0  0  0  2  0  0  0  0  0  0
   43.7960   41.4640   45.6530 C   0  0  1  0  0  3  0  0  0  0  0  0
  1 20  1  0  0  0  0
  2  7  1  0  0  0  0
  2  1  2  0  0  0  0
  3  4  2  0  0  0  0
  3  2  1  0  0  0  0
  4  5  1  0  0  0  0
  5  6  2  0  0  0  0
  6  1  1  0  0  0  0
  8  3  1  0  0  0  0
  9 10  1  0  0  0  0
 10 11  1  0  0  0  0
 11  5  1  0  0  0  0
 11 12  2  0  0  0  0
 12 16  1  0  0  0  0
 13 12  1  0  0  0  0
 13 17  1  0  0  0  0
 14 13  2  0  0  0  0
 15 10  2  0  0  0  0
 15 14  1  0  0  0  0
 18 14  1  0  0  0  0
 19 15  1  0  0  0  0
 21 20  1  0  0  0  0
 21 22  1  0  0  0  0
 22 23  1  0  0  0  0
 22 24  1  0  0  0  0
 25 22  1  0  0  0  0
 26 25  1  0  0  0  0
 28 27  1  0  0  0  0
 29 28  1  0  0  0  0
 30 29  1  0  0  0  0
 31 30  1  0  0  0  0
 31 32  1  0  0  0  0
 32 25  1  6  0  0  0
 32 28  1  0  0  0  0
M  END
>  <minimizedAffinity>
-4.00952196

>  <minimizedRMSD>
0.676954329

$$$$
