
 OpenBabel03252508023D

 39 42  0  0  1  0  0  0  0  0999 V2000
   44.1580   34.1190   41.5050 C   0  0  0  0  0  0  0  0  0  0  0  0
   44.9950   33.7830   40.5980 O   0  0  0  0  0  0  0  0  0  0  0  0
   41.7950   33.3160   41.3570 C   0  0  0  0  0  0  0  0  0  0  0  0
   42.7280   34.3320   41.2760 C   0  0  0  0  0  0  0  0  0  0  0  0
   42.2870   35.6200   40.9710 C   0  0  0  0  0  0  0  0  0  0  0  0
   40.9460   35.8970   40.7510 C   0  0  0  0  0  0  0  0  0  0  0  0
   40.0200   34.8910   40.8300 C   0  0  0  0  0  0  0  0  0  0  0  0
   40.4660   33.6320   41.1300 C   0  0  0  0  0  0  0  0  0  0  0  0
   42.9340   36.4790   40.8810 H   0  0  0  0  0  0  0  0  0  0  0  0
   40.6090   36.8740   40.5190 H   0  0  0  0  0  0  0  0  0  0  0  0
   38.9780   35.0490   40.6700 H   0  0  0  0  0  0  0  0  0  0  0  0
   39.7220   32.8290   41.1930 H   0  0  0  0  0  0  0  0  0  0  0  0
   42.2460   31.7280   41.6520 S   0  0  0  0  0  0  0  0  0  0  0  0
   42.0620   31.0610   40.3160 O   0  0  0  0  0  0  0  0  0  0  0  0
   41.2460   31.1160   42.6640 O   0  0  0  0  0  0  0  0  0  0  0  0
   44.6640   29.9580   43.5920 H   0  0  0  0  0  0  0  0  0  0  0  0
   43.6760   30.3010   43.4200 N   0  0  0  0  0  0  0  0  0  0  0  0
   42.7430   29.2100   43.4750 C   0  0  0  0  0  2  0  0  0  0  0  0
   42.6230   28.7070   42.0790 C   0  0  0  0  0  2  0  0  0  0  0  0
   43.7070   29.5040   41.4110 C   0  0  0  0  0  2  0  0  0  0  0  0
   43.6110   30.9400   42.1200 C   0  0  1  0  0  3  0  0  0  0  0  0
   44.5350   34.3280   42.8760 C   0  0  0  0  0  0  0  0  0  0  0  0
   44.3020   35.6230   43.4190 C   0  0  0  0  0  0  0  0  0  0  0  0
   44.6600   35.8200   44.7470 C   0  0  0  0  0  0  0  0  0  0  0  0
   45.2020   34.7820   45.4360 N   0  0  0  0  0  0  0  0  0  0  0  0
   45.4080   33.5510   44.8680 C   0  0  0  0  0  0  0  0  0  0  0  0
   45.0700   33.3950   43.6430 N   0  0  0  0  0  0  0  0  0  0  0  0
   43.8810   36.4690   42.9200 H   0  0  0  0  0  0  0  0  0  0  0  0
   44.5330   36.7510   45.2630 H   0  0  0  0  0  0  0  0  0  0  0  0
   45.9960   32.4780   45.6920 C   0  0  1  0  0  0  0  0  0  0  0  0
   46.9300   32.8530   46.8220 C   0  0  0  0  0  0  0  0  0  0  0  0
   45.5150   32.4450   47.0990 C   0  0  1  0  0  0  0  0  0  0  0  0
   46.2670   31.5390   45.2010 H   0  0  0  0  0  0  0  0  0  0  0  0
   47.2520   33.9100   46.8940 H   0  0  0  0  0  0  0  0  0  0  0  0
   47.7080   32.1340   47.1320 H   0  0  0  0  0  0  0  0  0  0  0  0
   45.3290   31.4540   47.5610 H   0  0  0  0  0  0  0  0  0  0  0  0
   44.7270   33.5410   47.6230 N   0  0  0  0  0  0  0  0  0  0  0  0
   45.3170   34.2520   48.1070 H   0  0  0  0  0  0  0  0  0  0  0  0
   43.9820   33.1590   48.2700 H   0  0  0  0  0  0  0  0  0  0  0  0
  1 22  1  0  0  0  0
  2  1  2  0  0  0  0
  3 13  1  0  0  0  0
  4  3  1  0  0  0  0
  4  1  1  0  0  0  0
  5  4  2  0  0  0  0
  6  7  2  0  0  0  0
  6  5  1  0  0  0  0
  7  8  1  0  0  0  0
  8 12  1  0  0  0  0
  8  3  2  0  0  0  0
  9  5  1  0  0  0  0
 10  6  1  0  0  0  0
 11  7  1  0  0  0  0
 13 15  2  0  0  0  0
 14 13  2  0  0  0  0
 17 18  1  0  0  0  0
 17 16  1  0  0  0  0
 19 18  1  0  0  0  0
 20 19  1  0  0  0  0
 20 21  1  0  0  0  0
 21 13  1  1  0  0  0
 21 17  1  0  0  0  0
 22 23  2  0  0  0  0
 22 27  1  0  0  0  0
 23 24  1  0  0  0  0
 24 29  1  0  0  0  0
 24 25  2  0  0  0  0
 26 25  1  0  0  0  0
 26 30  1  0  0  0  0
 27 26  2  0  0  0  0
 28 23  1  0  0  0  0
 30 33  1  6  0  0  0
 30 31  1  0  0  0  0
 30 32  1  0  0  0  0
 31 34  1  0  0  0  0
 31 32  1  0  0  0  0
 31 35  1  0  0  0  0
 32 36  1  1  0  0  0
 32 37  1  0  0  0  0
 37 38  1  0  0  0  0
 37 39  1  0  0  0  0
M  END
>  <minimizedAffinity>
-6.03261948

>  <minimizedRMSD>
0.413883686

$$$$
