
 OpenBabel03252508023D

 39 42  0  0  1  0  0  0  0  0999 V2000
   44.2580   34.3970   41.5680 C   0  0  0  0  0  0  0  0  0  0  0  0
   45.1410   34.3580   40.6450 O   0  0  0  0  0  0  0  0  0  0  0  0
   42.1020   33.1730   41.2420 C   0  0  0  0  0  0  0  0  0  0  0  0
   42.8130   34.3530   41.3350 C   0  0  0  0  0  0  0  0  0  0  0  0
   42.1230   35.5590   41.2100 C   0  0  0  0  0  0  0  0  0  0  0  0
   40.7530   35.5950   40.9970 C   0  0  0  0  0  0  0  0  0  0  0  0
   40.0460   34.4240   40.9050 C   0  0  0  0  0  0  0  0  0  0  0  0
   40.7360   33.2490   41.0290 C   0  0  0  0  0  0  0  0  0  0  0  0
   42.5840   36.5340   41.2630 H   0  0  0  0  0  0  0  0  0  0  0  0
   40.2260   36.5090   40.9010 H   0  0  0  0  0  0  0  0  0  0  0  0
   38.9930   34.3950   40.7420 H   0  0  0  0  0  0  0  0  0  0  0  0
   40.1680   32.3140   40.9550 H   0  0  0  0  0  0  0  0  0  0  0  0
   42.8620   31.6800   41.3150 S   0  0  0  0  0  0  0  0  0  0  0  0
   42.0410   30.8270   40.3870 O   0  0  0  0  0  0  0  0  0  0  0  0
   42.7280   31.1310   42.7570 O   0  0  0  0  0  0  0  0  0  0  0  0
   46.2370   30.5410   41.5480 H   0  0  0  0  0  0  0  0  0  0  0  0
   45.3090   30.8070   41.9880 N   0  0  0  0  0  0  0  0  0  0  0  0
   44.8300   29.7530   42.8380 C   0  0  0  0  0  2  0  0  0  0  0  0
   43.9750   28.8920   41.9750 C   0  0  0  0  0  2  0  0  0  0  0  0
   44.2490   29.5010   40.6290 C   0  0  0  0  0  2  0  0  0  0  0  0
   44.3440   31.0720   40.9390 C   0  0  1  0  0  3  0  0  0  0  0  0
   44.5900   34.4870   42.9630 C   0  0  0  0  0  0  0  0  0  0  0  0
   44.3070   35.7210   43.6150 C   0  0  0  0  0  0  0  0  0  0  0  0
   44.6210   35.8030   44.9660 C   0  0  0  0  0  0  0  0  0  0  0  0
   45.1700   34.7190   45.5740 N   0  0  0  0  0  0  0  0  0  0  0  0
   45.4250   33.5510   44.9020 C   0  0  0  0  0  0  0  0  0  0  0  0
   45.1260   33.5010   43.6580 N   0  0  0  0  0  0  0  0  0  0  0  0
   43.8780   36.5990   43.1830 H   0  0  0  0  0  0  0  0  0  0  0  0
   44.4550   36.6800   45.5600 H   0  0  0  0  0  0  0  0  0  0  0  0
   46.0180   32.4210   45.6430 C   0  0  1  0  0  0  0  0  0  0  0  0
   46.9740   32.7120   46.7790 C   0  0  0  0  0  0  0  0  0  0  0  0
   45.5600   32.2980   47.0520 C   0  0  1  0  0  0  0  0  0  0  0  0
   46.2720   31.5150   45.0860 H   0  0  0  0  0  0  0  0  0  0  0  0
   47.3050   33.7600   46.9150 H   0  0  0  0  0  0  0  0  0  0  0  0
   47.7500   31.9680   47.0270 H   0  0  0  0  0  0  0  0  0  0  0  0
   45.3730   31.2790   47.4500 H   0  0  0  0  0  0  0  0  0  0  0  0
   44.7910   33.3620   47.6620 N   0  0  0  0  0  0  0  0  0  0  0  0
   45.3950   34.0350   48.1820 H   0  0  0  0  0  0  0  0  0  0  0  0
   44.0530   32.9440   48.2940 H   0  0  0  0  0  0  0  0  0  0  0  0
  1 22  1  0  0  0  0
  2  1  2  0  0  0  0
  3 13  1  0  0  0  0
  3  4  1  0  0  0  0
  4  1  1  0  0  0  0
  5  9  1  0  0  0  0
  5  4  2  0  0  0  0
  6  5  1  0  0  0  0
  7  6  2  0  0  0  0
  7  8  1  0  0  0  0
  8  3  2  0  0  0  0
 10  6  1  0  0  0  0
 11  7  1  0  0  0  0
 12  8  1  0  0  0  0
 13 15  2  0  0  0  0
 14 13  2  0  0  0  0
 16 17  1  0  0  0  0
 17 18  1  0  0  0  0
 19 18  1  0  0  0  0
 20 21  1  0  0  0  0
 20 19  1  0  0  0  0
 21 13  1  1  0  0  0
 21 17  1  0  0  0  0
 22 23  2  0  0  0  0
 22 27  1  0  0  0  0
 23 24  1  0  0  0  0
 24 29  1  0  0  0  0
 24 25  2  0  0  0  0
 26 25  1  0  0  0  0
 26 30  1  0  0  0  0
 27 26  2  0  0  0  0
 28 23  1  0  0  0  0
 30 33  1  6  0  0  0
 30 31  1  0  0  0  0
 30 32  1  0  0  0  0
 31 34  1  0  0  0  0
 31 35  1  0  0  0  0
 31 32  1  0  0  0  0
 32 36  1  1  0  0  0
 32 37  1  0  0  0  0
 37 38  1  0  0  0  0
 37 39  1  0  0  0  0
M  END
>  <minimizedAffinity>
-5.54848671

>  <minimizedRMSD>
1.13890433

$$$$
