
 OpenBabel03252502003D

 31 34  0  0  0  0  0  0  0  0999 V2000
   47.7870   32.2910   48.3290 C   0  0  0  0  0  0  0  0  0  0  0  0
   47.4930   30.9460   48.3960 C   0  0  0  0  0  0  0  0  0  0  0  0
   46.6320   30.4670   47.4540 C   0  0  0  0  0  0  0  0  0  0  0  0
   46.1140   31.2840   46.5220 N   0  0  0  0  0  0  0  0  0  0  0  0
   46.4020   32.5790   46.4640 C   0  0  0  0  0  0  0  0  0  0  0  0
   47.2440   33.0510   47.3840 N   0  0  0  0  0  0  0  0  0  0  0  0
   48.4770   32.6790   49.0820 H   0  0  0  0  0  0  0  0  0  0  0  0
   46.2570   29.1200   47.4170 N   0  0  0  0  0  0  0  0  0  0  0  0
   47.1030   28.0150   46.9420 C   0  0  0  0  0  2  0  0  0  0  0  0
   46.3150   26.7600   47.2330 C   0  0  0  0  0  2  0  0  0  0  0  0
   44.8670   27.2540   47.1620 C   0  0  0  0  0  2  0  0  0  0  0  0
   44.9730   28.5910   47.8400 C   0  0  0  0  0  3  0  0  0  0  0  0
   45.0420   28.4450   48.9570 H   0  0  0  0  0  0  0  0  0  0  0  0
   45.9550   33.6430   45.5410 C   0  0  0  0  0  0  0  0  0  0  0  0
   44.9580   34.5150   45.8330 N   0  0  0  0  0  0  0  0  0  0  0  0
   44.5330   35.4800   45.0280 C   0  0  0  0  0  0  0  0  0  0  0  0
   45.1070   35.6460   43.8130 N   0  0  0  0  0  0  0  0  0  0  0  0
   46.1060   34.8420   43.4090 C   0  0  0  0  0  0  0  0  0  0  0  0
   46.6830   35.0170   42.1730 C   0  0  0  0  0  0  0  0  0  0  0  0
   47.7000   34.2050   41.7510 C   0  0  0  0  0  0  0  0  0  0  0  0
   48.1210   33.2100   42.6100 C   0  0  0  0  0  0  0  0  0  0  0  0
   47.5160   33.0700   43.8380 C   0  0  0  0  0  0  0  0  0  0  0  0
   46.4960   33.8610   44.2980 C   0  0  0  0  0  0  0  0  0  0  0  0
   43.7270   36.1170   45.3750 H   0  0  0  0  0  0  0  0  0  0  0  0
   46.3460   35.8010   41.5040 H   0  0  0  0  0  0  0  0  0  0  0  0
   48.1420   34.3560   40.7760 H   0  0  0  0  0  0  0  0  0  0  0  0
   48.9230   32.5400   42.3250 H   0  0  0  0  0  0  0  0  0  0  0  0
   47.8860   32.2660   44.4790 H   0  0  0  0  0  0  0  0  0  0  0  0
   48.0630   30.1330   49.3920 N   0  0  0  0  0  0  0  0  0  0  0  0
   48.9460   29.6320   49.1400 H   0  0  0  0  0  0  0  0  0  0  0  0
   47.6510   30.0050   50.3610 H   0  0  0  0  0  0  0  0  0  0  0  0
  1  2  1  0  0  0  0
  1  7  1  0  0  0  0
  2 29  1  0  0  0  0
  3  2  2  0  0  0  0
  4  3  1  0  0  0  0
  5  4  2  0  0  0  0
  5  6  1  0  0  0  0
  6  1  2  0  0  0  0
  8  3  1  0  0  0  0
  8 12  1  0  0  0  0
  9 10  1  0  0  0  0
  9  8  1  0  0  0  0
 11 10  1  0  0  0  0
 11 12  1  0  0  0  0
 12 13  1  0  0  0  0
 14 15  1  0  0  0  0
 14  5  1  0  0  0  0
 16 24  1  0  0  0  0
 16 15  2  0  0  0  0
 17 16  1  0  0  0  0
 18 17  2  0  0  0  0
 18 23  1  0  0  0  0
 19 18  1  0  0  0  0
 20 19  2  0  0  0  0
 20 21  1  0  0  0  0
 21 22  2  0  0  0  0
 22 23  1  0  0  0  0
 22 28  1  0  0  0  0
 23 14  2  0  0  0  0
 25 19  1  0  0  0  0
 26 20  1  0  0  0  0
 27 21  1  0  0  0  0
 29 31  1  0  0  0  0
 30 29  1  0  0  0  0
M  END
>  <minimizedAffinity>
-6.41304493

>  <minimizedRMSD>
0.268193603

$$$$
