
 OpenBabel03252508023D

 39 42  0  0  1  0  0  0  0  0999 V2000
   44.1580   34.1200   41.5020 C   0  0  0  0  0  0  0  0  0  0  0  0
   44.9940   33.7850   40.5960 O   0  0  0  0  0  0  0  0  0  0  0  0
   41.7950   33.3170   41.3550 C   0  0  0  0  0  0  0  0  0  0  0  0
   42.7270   34.3330   41.2740 C   0  0  0  0  0  0  0  0  0  0  0  0
   42.2860   35.6200   40.9690 C   0  0  0  0  0  0  0  0  0  0  0  0
   40.9450   35.8970   40.7490 C   0  0  0  0  0  0  0  0  0  0  0  0
   40.0180   34.8900   40.8290 C   0  0  0  0  0  0  0  0  0  0  0  0
   40.4650   33.6320   41.1290 C   0  0  0  0  0  0  0  0  0  0  0  0
   42.9320   36.4800   40.8790 H   0  0  0  0  0  0  0  0  0  0  0  0
   40.6070   36.8740   40.5170 H   0  0  0  0  0  0  0  0  0  0  0  0
   38.9760   35.0480   40.6690 H   0  0  0  0  0  0  0  0  0  0  0  0
   39.7220   32.8290   41.1920 H   0  0  0  0  0  0  0  0  0  0  0  0
   42.2460   31.7290   41.6510 S   0  0  0  0  0  0  0  0  0  0  0  0
   42.0620   31.0620   40.3150 O   0  0  0  0  0  0  0  0  0  0  0  0
   41.2460   31.1160   42.6620 O   0  0  0  0  0  0  0  0  0  0  0  0
   44.6640   29.9590   43.5910 H   0  0  0  0  0  0  0  0  0  0  0  0
   43.6760   30.3030   43.4200 N   0  0  0  0  0  0  0  0  0  0  0  0
   42.7430   29.2120   43.4740 C   0  0  0  0  0  2  0  0  0  0  0  0
   42.6230   28.7090   42.0770 C   0  0  0  0  0  2  0  0  0  0  0  0
   43.7070   29.5060   41.4100 C   0  0  0  0  0  2  0  0  0  0  0  0
   43.6120   30.9410   42.1190 C   0  0  1  0  0  3  0  0  0  0  0  0
   44.5350   34.3290   42.8730 C   0  0  0  0  0  0  0  0  0  0  0  0
   44.3020   35.6250   43.4170 C   0  0  0  0  0  0  0  0  0  0  0  0
   44.6600   35.8220   44.7450 C   0  0  0  0  0  0  0  0  0  0  0  0
   45.2010   34.7830   45.4340 N   0  0  0  0  0  0  0  0  0  0  0  0
   45.4070   33.5520   44.8660 C   0  0  0  0  0  0  0  0  0  0  0  0
   45.0690   33.3970   43.6410 N   0  0  0  0  0  0  0  0  0  0  0  0
   43.8810   36.4710   42.9180 H   0  0  0  0  0  0  0  0  0  0  0  0
   44.5330   36.7530   45.2600 H   0  0  0  0  0  0  0  0  0  0  0  0
   45.9950   32.4790   45.6900 C   0  0  1  0  0  0  0  0  0  0  0  0
   46.9300   32.8540   46.8200 C   0  0  0  0  0  0  0  0  0  0  0  0
   45.5140   32.4470   47.0970 C   0  0  1  0  0  0  0  0  0  0  0  0
   46.2650   31.5400   45.2000 H   0  0  0  0  0  0  0  0  0  0  0  0
   47.2510   33.9110   46.8910 H   0  0  0  0  0  0  0  0  0  0  0  0
   47.7070   32.1340   47.1300 H   0  0  0  0  0  0  0  0  0  0  0  0
   45.3280   31.4560   47.5590 H   0  0  0  0  0  0  0  0  0  0  0  0
   44.7270   33.5440   47.6210 N   0  0  0  0  0  0  0  0  0  0  0  0
   45.3170   34.2540   48.1050 H   0  0  0  0  0  0  0  0  0  0  0  0
   43.9820   33.1620   48.2680 H   0  0  0  0  0  0  0  0  0  0  0  0
  1 22  1  0  0  0  0
  2  1  2  0  0  0  0
  3 13  1  0  0  0  0
  4  3  1  0  0  0  0
  4  1  1  0  0  0  0
  5  4  2  0  0  0  0
  6  7  2  0  0  0  0
  6  5  1  0  0  0  0
  7  8  1  0  0  0  0
  8 12  1  0  0  0  0
  8  3  2  0  0  0  0
  9  5  1  0  0  0  0
 10  6  1  0  0  0  0
 11  7  1  0  0  0  0
 13 15  2  0  0  0  0
 14 13  2  0  0  0  0
 17 18  1  0  0  0  0
 17 16  1  0  0  0  0
 19 18  1  0  0  0  0
 20 19  1  0  0  0  0
 20 21  1  0  0  0  0
 21 13  1  1  0  0  0
 21 17  1  0  0  0  0
 22 23  2  0  0  0  0
 22 27  1  0  0  0  0
 23 24  1  0  0  0  0
 24 29  1  0  0  0  0
 24 25  2  0  0  0  0
 26 25  1  0  0  0  0
 26 30  1  0  0  0  0
 27 26  2  0  0  0  0
 28 23  1  0  0  0  0
 30 33  1  6  0  0  0
 30 31  1  0  0  0  0
 30 32  1  0  0  0  0
 31 34  1  0  0  0  0
 31 32  1  0  0  0  0
 31 35  1  0  0  0  0
 32 36  1  1  0  0  0
 32 37  1  0  0  0  0
 37 38  1  0  0  0  0
 37 39  1  0  0  0  0
M  END
>  <minimizedAffinity>
-6.03480053

>  <minimizedRMSD>
0.298667401

$$$$
