
 OpenBabel03242515373D

 33 36  0  0  0  0  0  0  0  0999 V2000
   44.0570   34.8040   41.0680 C   0  0  0  0  0  0  0  0  0  0  0  0
   44.0010   33.9220   39.9980 C   0  0  0  0  0  0  0  0  0  0  0  0
   45.2150   33.3540   39.6080 C   0  0  0  0  0  0  0  0  0  0  0  0
   46.3510   33.6650   40.2520 N   0  0  0  0  0  0  0  0  0  0  0  0
   46.3620   34.5300   41.2900 C   0  0  0  0  0  0  0  0  0  0  0  0
   45.2100   35.0710   41.6640 N   0  0  0  0  0  0  0  0  0  0  0  0
   43.0800   33.6830   39.4930 H   0  0  0  0  0  0  0  0  0  0  0  0
   45.2480   32.4370   38.5180 N   0  0  0  0  0  0  0  0  0  0  0  0
   44.1850   31.5410   38.1110 C   0  0  0  0  0  0  0  0  0  0  0  0
   44.3630   31.4160   36.6010 C   0  0  0  0  0  0  0  0  0  0  0  0
   45.6030   32.2290   36.2670 C   0  0  0  0  0  0  0  0  0  0  0  0
   46.3350   32.2200   37.6140 C   0  0  0  0  0  0  0  0  0  0  0  0
   47.1250   32.9850   37.6430 H   0  0  0  0  0  0  0  0  0  0  0  0
   42.4790   35.5350   41.5680 S   0  0  0  0  0  0  0  0  0  0  0  0
   40.3350   34.9940   40.0360 C   0  0  0  0  0  0  0  0  0  0  0  0
   41.1220   34.4900   41.0630 C   0  0  0  0  0  0  0  0  0  0  0  0
   40.8390   33.2760   41.6200 C   0  0  0  0  0  0  0  0  0  0  0  0
   39.7810   32.5020   41.1990 C   0  0  0  0  0  0  0  0  0  0  0  0
   38.9900   33.0070   40.1660 C   0  0  0  0  0  0  0  0  0  0  0  0
   39.2470   34.2470   39.5720 C   0  0  0  0  0  0  0  0  0  0  0  0
   37.9730   32.0490   39.9050 O   0  0  0  0  0  0  0  0  0  0  0  0
   37.9640   31.2040   41.0140 C   0  0  0  0  0  0  0  0  0  0  0  0
   39.2680   31.2630   41.5690 O   0  0  0  0  0  0  0  0  0  0  0  0
   40.5110   35.9480   39.5580 H   0  0  0  0  0  0  0  0  0  0  0  0
   41.4850   32.9200   42.4240 H   0  0  0  0  0  0  0  0  0  0  0  0
   38.6200   34.6220   38.7670 H   0  0  0  0  0  0  0  0  0  0  0  0
   37.6700   30.1670   40.7550 H   0  0  0  0  0  0  0  0  0  0  0  0
   37.2930   31.6470   41.7810 H   0  0  0  0  0  0  0  0  0  0  0  0
   47.4700   34.9050   42.0050 O   0  0  0  0  0  0  0  0  0  0  0  0
   48.6620   35.1800   41.2990 C   0  0  0  0  0  0  0  0  0  0  0  0
   49.6280   34.2430   41.5030 F   0  0  0  0  0  0  0  0  0  0  0  0
   48.2780   35.3260   39.9700 F   0  0  0  0  0  0  0  0  0  0  0  0
   49.1350   36.4030   41.7890 F   0  0  0  0  0  0  0  0  0  0  0  0
  1 14  1  0  0  0  0
  1  6  1  0  0  0  0
  2  1  2  0  0  0  0
  3  2  1  0  0  0  0
  3  4  2  0  0  0  0
  4  5  1  0  0  0  0
  5  6  2  0  0  0  0
  5 29  1  0  0  0  0
  7  2  1  0  0  0  0
  8  3  1  0  0  0  0
  9  8  1  0  0  0  0
 10  9  1  0  0  0  0
 11 10  1  0  0  0  0
 11 12  1  0  0  0  0
 12 13  1  0  0  0  0
 12  8  1  0  0  0  0
 15 16  1  0  0  0  0
 16 14  1  0  0  0  0
 16 17  2  0  0  0  0
 17 25  1  0  0  0  0
 18 23  1  0  0  0  0
 18 17  1  0  0  0  0
 19 18  2  0  0  0  0
 20 15  2  0  0  0  0
 20 19  1  0  0  0  0
 21 19  1  0  0  0  0
 21 22  1  0  0  0  0
 22 23  1  0  0  0  0
 22 28  1  0  0  0  0
 24 15  1  0  0  0  0
 26 20  1  0  0  0  0
 27 22  1  0  0  0  0
 30 31  1  0  0  0  0
 30 33  1  0  0  0  0
 30 29  1  0  0  0  0
 32 30  1  0  0  0  0
M  END
>  <minimizedAffinity>
-6.17496729

>  <minimizedRMSD>
0.327205837

$$$$
