
 OpenBabel03252508023D

 39 42  0  0  1  0  0  0  0  0999 V2000
   44.5110   34.4500   41.6450 C   0  0  0  0  0  0  0  0  0  0  0  0
   45.4600   34.4540   40.7890 O   0  0  0  0  0  0  0  0  0  0  0  0
   42.4560   33.2510   40.8760 C   0  0  0  0  0  0  0  0  0  0  0  0
   43.0870   34.4020   41.3040 C   0  0  0  0  0  0  0  0  0  0  0  0
   42.3340   35.5700   41.4270 C   0  0  0  0  0  0  0  0  0  0  0  0
   40.9800   35.5970   41.1310 C   0  0  0  0  0  0  0  0  0  0  0  0
   40.3520   34.4550   40.7050 C   0  0  0  0  0  0  0  0  0  0  0  0
   41.1030   33.3170   40.5890 C   0  0  0  0  0  0  0  0  0  0  0  0
   42.7320   36.5200   41.7500 H   0  0  0  0  0  0  0  0  0  0  0  0
   40.4060   36.4820   41.2230 H   0  0  0  0  0  0  0  0  0  0  0  0
   39.3140   34.4210   40.4640 H   0  0  0  0  0  0  0  0  0  0  0  0
   40.5980   32.4060   40.2480 H   0  0  0  0  0  0  0  0  0  0  0  0
   43.3000   31.8210   40.6370 S   0  0  0  0  0  0  0  0  0  0  0  0
   44.3680   32.2100   39.6520 O   0  0  0  0  0  0  0  0  0  0  0  0
   42.3480   30.7970   39.9700 O   0  0  0  0  0  0  0  0  0  0  0  0
   44.7550   30.1300   43.4240 H   0  0  0  0  0  0  0  0  0  0  0  0
   44.0140   30.7560   42.9950 N   0  0  0  0  0  0  0  0  0  0  0  0
   42.6990   30.2730   43.3110 C   0  0  0  0  0  2  0  0  0  0  0  0
   42.3220   29.3600   42.1970 C   0  0  0  0  0  2  0  0  0  0  0  0
   43.6230   29.2970   41.4480 C   0  0  0  0  0  2  0  0  0  0  0  0
   44.1930   30.7910   41.5560 C   0  0  1  0  0  3  0  0  0  0  0  0
   44.7380   34.4920   43.0630 C   0  0  0  0  0  0  0  0  0  0  0  0
   44.3670   35.6880   43.7410 C   0  0  0  0  0  0  0  0  0  0  0  0
   44.5800   35.7220   45.1140 C   0  0  0  0  0  0  0  0  0  0  0  0
   45.1210   34.6310   45.7170 N   0  0  0  0  0  0  0  0  0  0  0  0
   45.4640   33.5010   45.0200 C   0  0  0  0  0  0  0  0  0  0  0  0
   45.2570   33.4940   43.7560 N   0  0  0  0  0  0  0  0  0  0  0  0
   43.9400   36.5690   43.3150 H   0  0  0  0  0  0  0  0  0  0  0  0
   44.3410   36.5670   45.7290 H   0  0  0  0  0  0  0  0  0  0  0  0
   46.0400   32.3600   45.7560 C   0  0  1  0  0  0  0  0  0  0  0  0
   46.9870   32.6340   46.9030 C   0  0  0  0  0  0  0  0  0  0  0  0
   45.5670   32.2280   47.1600 C   0  0  1  0  0  0  0  0  0  0  0  0
   46.2920   31.4570   45.1930 H   0  0  0  0  0  0  0  0  0  0  0  0
   47.3260   33.6770   47.0520 H   0  0  0  0  0  0  0  0  0  0  0  0
   47.7550   31.8810   47.1520 H   0  0  0  0  0  0  0  0  0  0  0  0
   45.3690   31.2080   47.5470 H   0  0  0  0  0  0  0  0  0  0  0  0
   44.8010   33.2940   47.7710 N   0  0  0  0  0  0  0  0  0  0  0  0
   45.4050   33.9570   48.3030 H   0  0  0  0  0  0  0  0  0  0  0  0
   44.0540   32.8760   48.3930 H   0  0  0  0  0  0  0  0  0  0  0  0
  1 22  1  0  0  0  0
  2  1  2  0  0  0  0
  3  4  1  0  0  0  0
  4  5  2  0  0  0  0
  4  1  1  0  0  0  0
  5  9  1  0  0  0  0
  6 10  1  0  0  0  0
  6  5  1  0  0  0  0
  7  6  2  0  0  0  0
  8  7  1  0  0  0  0
  8  3  2  0  0  0  0
 11  7  1  0  0  0  0
 12  8  1  0  0  0  0
 13  3  1  0  0  0  0
 14 13  2  0  0  0  0
 15 13  2  0  0  0  0
 17 18  1  0  0  0  0
 17 16  1  0  0  0  0
 19 18  1  0  0  0  0
 20 21  1  0  0  0  0
 20 19  1  0  0  0  0
 21 13  1  6  0  0  0
 21 17  1  0  0  0  0
 22 23  2  0  0  0  0
 22 27  1  0  0  0  0
 23 24  1  0  0  0  0
 24 25  2  0  0  0  0
 24 29  1  0  0  0  0
 26 25  1  0  0  0  0
 26 30  1  0  0  0  0
 27 26  2  0  0  0  0
 28 23  1  0  0  0  0
 30 33  1  6  0  0  0
 30 31  1  0  0  0  0
 30 32  1  0  0  0  0
 31 34  1  0  0  0  0
 31 35  1  0  0  0  0
 31 32  1  0  0  0  0
 32 36  1  1  0  0  0
 32 37  1  0  0  0  0
 37 38  1  0  0  0  0
 37 39  1  0  0  0  0
M  END
>  <minimizedAffinity>
-5.51980543

>  <minimizedRMSD>
1.01317501

$$$$
