
 OpenBabel03252508023D

 39 42  0  0  1  0  0  0  0  0999 V2000
   44.1140   34.0610   41.5050 C   0  0  0  0  0  0  0  0  0  0  0  0
   44.9290   33.6780   40.5970 O   0  0  0  0  0  0  0  0  0  0  0  0
   41.7320   33.3220   41.3350 C   0  0  0  0  0  0  0  0  0  0  0  0
   42.6890   34.3160   41.2870 C   0  0  0  0  0  0  0  0  0  0  0  0
   42.2790   35.6240   41.0270 C   0  0  0  0  0  0  0  0  0  0  0  0
   40.9450   35.9410   40.8190 C   0  0  0  0  0  0  0  0  0  0  0  0
   39.9950   34.9550   40.8660 C   0  0  0  0  0  0  0  0  0  0  0  0
   40.4110   33.6770   41.1230 C   0  0  0  0  0  0  0  0  0  0  0  0
   42.9470   36.4710   40.9640 H   0  0  0  0  0  0  0  0  0  0  0  0
   40.6320   36.9330   40.6210 H   0  0  0  0  0  0  0  0  0  0  0  0
   38.9560   35.1440   40.7140 H   0  0  0  0  0  0  0  0  0  0  0  0
   39.6480   32.8900   41.1600 H   0  0  0  0  0  0  0  0  0  0  0  0
   42.1450   31.7140   41.5760 S   0  0  0  0  0  0  0  0  0  0  0  0
   41.8470   31.0770   40.2460 O   0  0  0  0  0  0  0  0  0  0  0  0
   41.1950   31.1190   42.6440 O   0  0  0  0  0  0  0  0  0  0  0  0
   44.4690   29.4980   43.1350 H   0  0  0  0  0  0  0  0  0  0  0  0
   43.4820   29.8400   42.9580 N   0  0  0  0  0  0  0  0  0  0  0  0
   42.6390   28.7560   42.5310 C   0  0  0  0  0  2  0  0  0  0  0  0
   42.7160   28.7410   41.0450 C   0  0  0  0  0  2  0  0  0  0  0  0
   43.8000   29.7570   40.8200 C   0  0  0  0  0  2  0  0  0  0  0  0
   43.5100   30.8710   41.9380 C   0  0  1  0  0  3  0  0  0  0  0  0
   44.5140   34.2890   42.8660 C   0  0  0  0  0  0  0  0  0  0  0  0
   44.2960   35.5930   43.3940 C   0  0  0  0  0  0  0  0  0  0  0  0
   44.6750   35.8080   44.7130 C   0  0  0  0  0  0  0  0  0  0  0  0
   45.2230   34.7770   45.4090 N   0  0  0  0  0  0  0  0  0  0  0  0
   45.4140   33.5370   44.8570 C   0  0  0  0  0  0  0  0  0  0  0  0
   45.0550   33.3650   43.6400 N   0  0  0  0  0  0  0  0  0  0  0  0
   43.8710   36.4340   42.8890 H   0  0  0  0  0  0  0  0  0  0  0  0
   44.5610   36.7470   45.2170 H   0  0  0  0  0  0  0  0  0  0  0  0
   46.0090   32.4730   45.6880 C   0  0  1  0  0  0  0  0  0  0  0  0
   46.9390   32.8620   46.8170 C   0  0  0  0  0  0  0  0  0  0  0  0
   45.5260   32.4440   47.0940 C   0  0  1  0  0  0  0  0  0  0  0  0
   46.2880   31.5340   45.2020 H   0  0  0  0  0  0  0  0  0  0  0  0
   47.2510   33.9220   46.8830 H   0  0  0  0  0  0  0  0  0  0  0  0
   47.7220   32.1500   47.1320 H   0  0  0  0  0  0  0  0  0  0  0  0
   45.3480   31.4540   47.5610 H   0  0  0  0  0  0  0  0  0  0  0  0
   44.7290   33.5370   47.6110 N   0  0  0  0  0  0  0  0  0  0  0  0
   45.3120   34.2550   48.0920 H   0  0  0  0  0  0  0  0  0  0  0  0
   43.9860   33.1530   48.2590 H   0  0  0  0  0  0  0  0  0  0  0  0
  1 22  1  0  0  0  0
  2  1  2  0  0  0  0
  3 13  1  0  0  0  0
  4  3  1  0  0  0  0
  4  1  1  0  0  0  0
  5  4  2  0  0  0  0
  6  7  2  0  0  0  0
  6  5  1  0  0  0  0
  7  8  1  0  0  0  0
  8 12  1  0  0  0  0
  8  3  2  0  0  0  0
  9  5  1  0  0  0  0
 10  6  1  0  0  0  0
 11  7  1  0  0  0  0
 13 15  2  0  0  0  0
 14 13  2  0  0  0  0
 17 16  1  0  0  0  0
 18 17  1  0  0  0  0
 19 18  1  0  0  0  0
 20 19  1  0  0  0  0
 20 21  1  0  0  0  0
 21 13  1  6  0  0  0
 21 17  1  0  0  0  0
 22 23  2  0  0  0  0
 22 27  1  0  0  0  0
 23 24  1  0  0  0  0
 24 29  1  0  0  0  0
 24 25  2  0  0  0  0
 26 25  1  0  0  0  0
 26 30  1  0  0  0  0
 27 26  2  0  0  0  0
 28 23  1  0  0  0  0
 30 33  1  6  0  0  0
 30 31  1  0  0  0  0
 30 32  1  0  0  0  0
 31 34  1  0  0  0  0
 31 32  1  0  0  0  0
 31 35  1  0  0  0  0
 32 36  1  1  0  0  0
 32 37  1  0  0  0  0
 37 38  1  0  0  0  0
 37 39  1  0  0  0  0
M  END
>  <minimizedAffinity>
-5.75961971

>  <minimizedRMSD>
0.437955827

$$$$
