
 OpenBabel03252508023D

 39 42  0  0  1  0  0  0  0  0999 V2000
   44.2120   34.2680   41.5460 C   0  0  0  0  0  0  0  0  0  0  0  0
   45.0760   34.0480   40.6300 O   0  0  0  0  0  0  0  0  0  0  0  0
   41.9170   33.3120   41.2830 C   0  0  0  0  0  0  0  0  0  0  0  0
   42.7720   34.3960   41.3150 C   0  0  0  0  0  0  0  0  0  0  0  0
   42.2390   35.6710   41.1270 C   0  0  0  0  0  0  0  0  0  0  0  0
   40.8840   35.8700   40.9120 C   0  0  0  0  0  0  0  0  0  0  0  0
   40.0340   34.7950   40.8800 C   0  0  0  0  0  0  0  0  0  0  0  0
   40.5700   33.5500   41.0660 C   0  0  0  0  0  0  0  0  0  0  0  0
   42.8210   36.5810   41.1300 H   0  0  0  0  0  0  0  0  0  0  0  0
   40.4770   36.8370   40.7680 H   0  0  0  0  0  0  0  0  0  0  0  0
   38.9850   34.8910   40.7180 H   0  0  0  0  0  0  0  0  0  0  0  0
   39.8880   32.6920   41.0390 H   0  0  0  0  0  0  0  0  0  0  0  0
   42.4830   31.7400   41.4330 S   0  0  0  0  0  0  0  0  0  0  0  0
   42.0240   31.0840   40.1600 O   0  0  0  0  0  0  0  0  0  0  0  0
   41.7640   31.0740   42.6320 O   0  0  0  0  0  0  0  0  0  0  0  0
   45.2040   29.7480   42.6020 H   0  0  0  0  0  0  0  0  0  0  0  0
   44.1790   30.0170   42.6000 N   0  0  0  0  0  0  0  0  0  0  0  0
   43.3520   28.8640   42.3700 C   0  0  0  0  0  2  0  0  0  0  0  0
   43.1570   28.7900   40.8960 C   0  0  0  0  0  2  0  0  0  0  0  0
   44.1060   29.8630   40.4430 C   0  0  0  0  0  2  0  0  0  0  0  0
   43.9480   31.0030   41.5610 C   0  0  1  0  0  3  0  0  0  0  0  0
   44.5640   34.4150   42.9320 C   0  0  0  0  0  0  0  0  0  0  0  0
   44.2980   35.6770   43.5350 C   0  0  0  0  0  0  0  0  0  0  0  0
   44.6310   35.8140   44.8770 C   0  0  0  0  0  0  0  0  0  0  0  0
   45.1830   34.7530   45.5220 N   0  0  0  0  0  0  0  0  0  0  0  0
   45.4220   33.5560   44.8970 C   0  0  0  0  0  0  0  0  0  0  0  0
   45.1050   33.4560   43.6600 N   0  0  0  0  0  0  0  0  0  0  0  0
   43.8670   36.5390   43.0730 H   0  0  0  0  0  0  0  0  0  0  0  0
   44.4770   36.7150   45.4360 H   0  0  0  0  0  0  0  0  0  0  0  0
   46.0190   32.4550   45.6760 C   0  0  1  0  0  0  0  0  0  0  0  0
   46.9590   32.7890   46.8130 C   0  0  0  0  0  0  0  0  0  0  0  0
   45.5460   32.3660   47.0830 C   0  0  1  0  0  0  0  0  0  0  0  0
   46.2890   31.5360   45.1480 H   0  0  0  0  0  0  0  0  0  0  0  0
   47.2770   33.8440   46.9230 H   0  0  0  0  0  0  0  0  0  0  0  0
   47.7410   32.0610   47.0910 H   0  0  0  0  0  0  0  0  0  0  0  0
   45.3670   31.3580   47.5080 H   0  0  0  0  0  0  0  0  0  0  0  0
   44.7590   33.4390   47.6540 N   0  0  0  0  0  0  0  0  0  0  0  0
   45.3490   34.1330   48.1610 H   0  0  0  0  0  0  0  0  0  0  0  0
   44.0190   33.0310   48.2900 H   0  0  0  0  0  0  0  0  0  0  0  0
  1 22  1  0  0  0  0
  2  1  2  0  0  0  0
  3  4  1  0  0  0  0
  3 13  1  0  0  0  0
  4  1  1  0  0  0  0
  5  9  1  0  0  0  0
  5  4  2  0  0  0  0
  6  5  1  0  0  0  0
  7  6  2  0  0  0  0
  7  8  1  0  0  0  0
  8  3  2  0  0  0  0
 10  6  1  0  0  0  0
 11  7  1  0  0  0  0
 12  8  1  0  0  0  0
 13 15  2  0  0  0  0
 14 13  2  0  0  0  0
 17 16  1  0  0  0  0
 18 17  1  0  0  0  0
 19 18  1  0  0  0  0
 20 19  1  0  0  0  0
 20 21  1  0  0  0  0
 21 13  1  1  0  0  0
 21 17  1  0  0  0  0
 22 23  2  0  0  0  0
 22 27  1  0  0  0  0
 23 24  1  0  0  0  0
 24 29  1  0  0  0  0
 24 25  2  0  0  0  0
 26 25  1  0  0  0  0
 26 30  1  0  0  0  0
 27 26  2  0  0  0  0
 28 23  1  0  0  0  0
 30 33  1  6  0  0  0
 30 31  1  0  0  0  0
 30 32  1  0  0  0  0
 31 34  1  0  0  0  0
 31 32  1  0  0  0  0
 31 35  1  0  0  0  0
 32 36  1  1  0  0  0
 32 37  1  0  0  0  0
 37 38  1  0  0  0  0
 37 39  1  0  0  0  0
M  END
>  <minimizedAffinity>
-5.70015478

>  <minimizedRMSD>
0.575957

$$$$
