
 OpenBabel03252508023D

 39 42  0  0  1  0  0  0  0  0999 V2000
   44.0100   33.8420   41.4940 C   0  0  0  0  0  0  0  0  0  0  0  0
   44.7590   33.3020   40.6100 O   0  0  0  0  0  0  0  0  0  0  0  0
   41.5670   33.3240   41.3870 C   0  0  0  0  0  0  0  0  0  0  0  0
   42.6120   34.2200   41.2790 C   0  0  0  0  0  0  0  0  0  0  0  0
   42.3230   35.5460   40.9580 C   0  0  0  0  0  0  0  0  0  0  0  0
   41.0220   35.9780   40.7490 C   0  0  0  0  0  0  0  0  0  0  0  0
   39.9830   35.0900   40.8560 C   0  0  0  0  0  0  0  0  0  0  0  0
   40.2810   33.7920   41.1710 C   0  0  0  0  0  0  0  0  0  0  0  0
   43.0660   36.3210   40.8460 H   0  0  0  0  0  0  0  0  0  0  0  0
   40.8000   36.9840   40.5040 H   0  0  0  0  0  0  0  0  0  0  0  0
   38.9650   35.3680   40.7050 H   0  0  0  0  0  0  0  0  0  0  0  0
   39.4480   33.0840   41.2560 H   0  0  0  0  0  0  0  0  0  0  0  0
   41.8300   31.6980   41.7030 S   0  0  0  0  0  0  0  0  0  0  0  0
   42.0330   31.1070   40.3350 O   0  0  0  0  0  0  0  0  0  0  0  0
   40.5400   31.1040   42.3230 O   0  0  0  0  0  0  0  0  0  0  0  0
   43.3730   29.4210   43.9790 H   0  0  0  0  0  0  0  0  0  0  0  0
   42.5220   29.8030   43.4740 N   0  0  0  0  0  0  0  0  0  0  0  0
   41.8150   28.7490   42.8020 C   0  0  0  0  0  2  0  0  0  0  0  0
   42.3850   28.6870   41.4270 C   0  0  0  0  0  2  0  0  0  0  0  0
   43.5340   29.6450   41.5690 C   0  0  0  0  0  2  0  0  0  0  0  0
   42.9470   30.8020   42.5130 C   0  0  1  0  0  3  0  0  0  0  0  0
   44.4640   34.1420   42.8240 C   0  0  0  0  0  0  0  0  0  0  0  0
   44.2920   35.4800   43.2790 C   0  0  0  0  0  0  0  0  0  0  0  0
   44.7240   35.7650   44.5680 C   0  0  0  0  0  0  0  0  0  0  0  0
   45.2770   34.7670   45.3050 N   0  0  0  0  0  0  0  0  0  0  0  0
   45.4230   33.4920   44.8230 C   0  0  0  0  0  0  0  0  0  0  0  0
   45.0160   33.2550   43.6320 N   0  0  0  0  0  0  0  0  0  0  0  0
   43.8650   36.2980   42.7390 H   0  0  0  0  0  0  0  0  0  0  0  0
   44.6470   36.7360   45.0170 H   0  0  0  0  0  0  0  0  0  0  0  0
   46.0290   32.4680   45.6950 C   0  0  1  0  0  0  0  0  0  0  0  0
   46.9420   32.9100   46.8170 C   0  0  0  0  0  0  0  0  0  0  0  0
   45.5340   32.4790   47.0970 C   0  0  1  0  0  0  0  0  0  0  0  0
   46.3260   31.5170   45.2450 H   0  0  0  0  0  0  0  0  0  0  0  0
   47.2370   33.9770   46.8490 H   0  0  0  0  0  0  0  0  0  0  0  0
   47.7340   32.2230   47.1630 H   0  0  0  0  0  0  0  0  0  0  0  0
   45.3680   31.5030   47.5970 H   0  0  0  0  0  0  0  0  0  0  0  0
   44.7150   33.5760   47.5690 N   0  0  0  0  0  0  0  0  0  0  0  0
   45.2830   34.3200   48.0300 H   0  0  0  0  0  0  0  0  0  0  0  0
   43.9730   33.2030   48.2240 H   0  0  0  0  0  0  0  0  0  0  0  0
  1 22  1  0  0  0  0
  2  1  2  0  0  0  0
  3 13  1  0  0  0  0
  4  3  1  0  0  0  0
  4  1  1  0  0  0  0
  5  4  2  0  0  0  0
  6  7  2  0  0  0  0
  6  5  1  0  0  0  0
  7  8  1  0  0  0  0
  8 12  1  0  0  0  0
  8  3  2  0  0  0  0
  9  5  1  0  0  0  0
 10  6  1  0  0  0  0
 11  7  1  0  0  0  0
 13 15  2  0  0  0  0
 14 13  2  0  0  0  0
 17 16  1  0  0  0  0
 18 17  1  0  0  0  0
 19 20  1  0  0  0  0
 19 18  1  0  0  0  0
 20 21  1  0  0  0  0
 21 13  1  6  0  0  0
 21 17  1  0  0  0  0
 22 23  2  0  0  0  0
 22 27  1  0  0  0  0
 23 24  1  0  0  0  0
 24 29  1  0  0  0  0
 24 25  2  0  0  0  0
 26 25  1  0  0  0  0
 26 30  1  0  0  0  0
 27 26  2  0  0  0  0
 28 23  1  0  0  0  0
 30 33  1  6  0  0  0
 30 31  1  0  0  0  0
 30 32  1  0  0  0  0
 31 34  1  0  0  0  0
 31 32  1  0  0  0  0
 31 35  1  0  0  0  0
 32 37  1  0  0  0  0
 32 36  1  1  0  0  0
 37 38  1  0  0  0  0
 37 39  1  0  0  0  0
M  END
>  <minimizedAffinity>
-5.8899231

>  <minimizedRMSD>
0.908736229

$$$$
