
 OpenBabel03252502033D

 31 34  0  0  0  0  0  0  0  0999 V2000
   37.0790   32.0450   39.7810 C   0  0  0  0  0  0  0  0  0  0  0  0
   36.9710   31.0590   40.7380 C   0  0  0  0  0  0  0  0  0  0  0  0
   38.1030   30.3470   41.0040 C   0  0  0  0  0  0  0  0  0  0  0  0
   39.2470   30.6130   40.3530 N   0  0  0  0  0  0  0  0  0  0  0  0
   39.3430   31.5650   39.4320 C   0  0  0  0  0  0  0  0  0  0  0  0
   38.2380   32.2640   39.1690 N   0  0  0  0  0  0  0  0  0  0  0  0
   36.1740   32.6180   39.5660 H   0  0  0  0  0  0  0  0  0  0  0  0
   38.1200   29.3210   41.9540 N   0  0  0  0  0  0  0  0  0  0  0  0
   39.1770   28.3060   42.0890 C   0  0  0  0  0  2  0  0  0  0  0  0
   38.8170   27.5240   43.3290 C   0  0  0  0  0  2  0  0  0  0  0  0
   37.2930   27.6540   43.3720 C   0  0  0  0  0  2  0  0  0  0  0  0
   37.1030   29.0870   42.9620 C   0  0  0  0  0  3  0  0  0  0  0  0
   37.3500   29.7670   43.8270 H   0  0  0  0  0  0  0  0  0  0  0  0
   40.4810   32.0200   38.6070 C   0  0  0  0  0  0  0  0  0  0  0  0
   40.9270   33.3010   38.5900 N   0  0  0  0  0  0  0  0  0  0  0  0
   41.9450   33.7410   37.8620 C   0  0  0  0  0  0  0  0  0  0  0  0
   42.6210   32.8850   37.0600 N   0  0  0  0  0  0  0  0  0  0  0  0
   42.2720   31.5880   36.9910 C   0  0  0  0  0  0  0  0  0  0  0  0
   42.9650   30.7250   36.1730 C   0  0  0  0  0  0  0  0  0  0  0  0
   42.6190   29.4030   36.0940 C   0  0  0  0  0  0  0  0  0  0  0  0
   41.5560   28.9740   36.8640 C   0  0  0  0  0  0  0  0  0  0  0  0
   40.8910   29.8720   37.6670 C   0  0  0  0  0  0  0  0  0  0  0  0
   41.2050   31.2020   37.7750 C   0  0  0  0  0  0  0  0  0  0  0  0
   42.2090   34.7910   37.9340 H   0  0  0  0  0  0  0  0  0  0  0  0
   43.7980   31.0710   35.5720 H   0  0  0  0  0  0  0  0  0  0  0  0
   43.1730   28.7390   35.4470 H   0  0  0  0  0  0  0  0  0  0  0  0
   41.2420   27.9380   36.8380 H   0  0  0  0  0  0  0  0  0  0  0  0
   40.0570   29.4800   38.2550 H   0  0  0  0  0  0  0  0  0  0  0  0
   35.7490   30.8210   41.3910 N   0  0  0  0  0  0  0  0  0  0  0  0
   35.5980   31.3170   42.3000 H   0  0  0  0  0  0  0  0  0  0  0  0
   34.9920   30.1780   41.0180 H   0  0  0  0  0  0  0  0  0  0  0  0
  1  2  1  0  0  0  0
  2  3  2  0  0  0  0
  2 29  1  0  0  0  0
  3  8  1  0  0  0  0
  4  3  1  0  0  0  0
  5  4  2  0  0  0  0
  6  5  1  0  0  0  0
  6  1  2  0  0  0  0
  7  1  1  0  0  0  0
  8  9  1  0  0  0  0
  8 12  1  0  0  0  0
  9 10  1  0  0  0  0
 10 11  1  0  0  0  0
 12 11  1  0  0  0  0
 12 13  1  0  0  0  0
 14  5  1  0  0  0  0
 15 14  1  0  0  0  0
 16 24  1  0  0  0  0
 16 15  2  0  0  0  0
 17 16  1  0  0  0  0
 18 17  2  0  0  0  0
 18 23  1  0  0  0  0
 19 18  1  0  0  0  0
 20 19  2  0  0  0  0
 20 21  1  0  0  0  0
 21 22  2  0  0  0  0
 22 23  1  0  0  0  0
 22 28  1  0  0  0  0
 23 14  2  0  0  0  0
 25 19  1  0  0  0  0
 26 20  1  0  0  0  0
 27 21  1  0  0  0  0
 29 30  1  0  0  0  0
 31 29  1  0  0  0  0
M  END
>  <minimizedAffinity>
-6.50611401

$$$$

 OpenBabel03252502033D

 31 34  0  0  0  0  0  0  0  0999 V2000
   36.1080   30.6180   40.7710 C   0  0  0  0  0  0  0  0  0  0  0  0
   37.1150   31.5120   40.4800 C   0  0  0  0  0  0  0  0  0  0  0  0
   38.3590   30.9840   40.2970 C   0  0  0  0  0  0  0  0  0  0  0  0
   38.5630   29.6620   40.4020 N   0  0  0  0  0  0  0  0  0  0  0  0
   37.5860   28.8060   40.6830 C   0  0  0  0  0  0  0  0  0  0  0  0
   36.3680   29.3190   40.8630 N   0  0  0  0  0  0  0  0  0  0  0  0
   35.1090   31.0370   40.9180 H   0  0  0  0  0  0  0  0  0  0  0  0
   39.4630   31.7890   39.9960 N   0  0  0  0  0  0  0  0  0  0  0  0
   40.8700   31.3700   40.0890 C   0  0  0  0  0  2  0  0  0  0  0  0
   41.6640   32.5260   39.5310 C   0  0  0  0  0  2  0  0  0  0  0  0
   40.7670   33.7260   39.8430 C   0  0  0  0  0  2  0  0  0  0  0  0
   39.4050   33.1670   39.5440 C   0  0  0  0  0  3  0  0  0  0  0  0
   39.2450   33.1290   38.4280 H   0  0  0  0  0  0  0  0  0  0  0  0
   37.5860   27.3370   40.8430 C   0  0  0  0  0  0  0  0  0  0  0  0
   36.8120   26.5050   40.1030 N   0  0  0  0  0  0  0  0  0  0  0  0
   36.7880   25.1830   40.2220 C   0  0  0  0  0  0  0  0  0  0  0  0
   37.5770   24.5750   41.1370 N   0  0  0  0  0  0  0  0  0  0  0  0
   38.3890   25.2940   41.9310 C   0  0  0  0  0  0  0  0  0  0  0  0
   39.1890   24.6660   42.8590 C   0  0  0  0  0  0  0  0  0  0  0  0
   40.0190   25.3880   43.6730 C   0  0  0  0  0  0  0  0  0  0  0  0
   40.0230   26.7600   43.5260 C   0  0  0  0  0  0  0  0  0  0  0  0
   39.2070   27.3460   42.5860 C   0  0  0  0  0  0  0  0  0  0  0  0
   38.3620   26.6610   41.7520 C   0  0  0  0  0  0  0  0  0  0  0  0
   36.1260   24.6240   39.5700 H   0  0  0  0  0  0  0  0  0  0  0  0
   39.1790   23.5870   42.9670 H   0  0  0  0  0  0  0  0  0  0  0  0
   40.6400   24.8790   44.3970 H   0  0  0  0  0  0  0  0  0  0  0  0
   40.6620   27.3770   44.1460 H   0  0  0  0  0  0  0  0  0  0  0  0
   39.2480   28.4360   42.5110 H   0  0  0  0  0  0  0  0  0  0  0  0
   36.8490   32.8900   40.3800 N   0  0  0  0  0  0  0  0  0  0  0  0
   36.6380   33.2590   39.4240 H   0  0  0  0  0  0  0  0  0  0  0  0
   36.8530   33.5550   41.2060 H   0  0  0  0  0  0  0  0  0  0  0  0
  1  6  1  0  0  0  0
  1  7  1  0  0  0  0
  2  1  2  0  0  0  0
  3  4  2  0  0  0  0
  3  2  1  0  0  0  0
  4  5  1  0  0  0  0
  5 14  1  0  0  0  0
  5  6  2  0  0  0  0
  8  9  1  0  0  0  0
  8  3  1  0  0  0  0
 10 11  1  0  0  0  0
 10  9  1  0  0  0  0
 12 11  1  0  0  0  0
 12  8  1  0  0  0  0
 13 12  1  0  0  0  0
 14 23  1  0  0  0  0
 15 16  1  0  0  0  0
 15 14  2  0  0  0  0
 16 17  2  0  0  0  0
 17 18  1  0  0  0  0
 18 19  1  0  0  0  0
 19 25  1  0  0  0  0
 19 20  2  0  0  0  0
 20 26  1  0  0  0  0
 21 20  1  0  0  0  0
 21 27  1  0  0  0  0
 22 21  2  0  0  0  0
 23 18  2  0  0  0  0
 23 22  1  0  0  0  0
 24 16  1  0  0  0  0
 28 22  1  0  0  0  0
 29  2  1  0  0  0  0
 29 31  1  0  0  0  0
 30 29  1  0  0  0  0
M  END
>  <minimizedAffinity>
-6.18909121

$$$$

 OpenBabel03252502033D

 31 34  0  0  0  0  0  0  0  0999 V2000
   36.2410   28.8650   41.7020 C   0  0  0  0  0  0  0  0  0  0  0  0
   36.6960   30.1220   41.3640 C   0  0  0  0  0  0  0  0  0  0  0  0
   38.0490   30.2850   41.3220 C   0  0  0  0  0  0  0  0  0  0  0  0
   38.8700   29.2610   41.6000 N   0  0  0  0  0  0  0  0  0  0  0  0
   38.4250   28.0520   41.9250 C   0  0  0  0  0  0  0  0  0  0  0  0
   37.1020   27.8890   41.9670 N   0  0  0  0  0  0  0  0  0  0  0  0
   35.1580   28.7310   41.7360 H   0  0  0  0  0  0  0  0  0  0  0  0
   38.6310   31.5130   40.9910 N   0  0  0  0  0  0  0  0  0  0  0  0
   40.0400   31.8740   41.2180 C   0  0  0  0  0  2  0  0  0  0  0  0
   40.2110   33.2270   40.5710 C   0  0  0  0  0  2  0  0  0  0  0  0
   38.8060   33.8260   40.6800 C   0  0  0  0  0  2  0  0  0  0  0  0
   37.9470   32.6320   40.3710 C   0  0  0  0  0  3  0  0  0  0  0  0
   37.9560   32.4350   39.2600 H   0  0  0  0  0  0  0  0  0  0  0  0
   39.1370   26.8030   42.2640 C   0  0  0  0  0  0  0  0  0  0  0  0
   38.5800   25.5710   42.1500 N   0  0  0  0  0  0  0  0  0  0  0  0
   39.1920   24.4310   42.4450 C   0  0  0  0  0  0  0  0  0  0  0  0
   40.4670   24.4480   42.8980 N   0  0  0  0  0  0  0  0  0  0  0  0
   41.1260   25.6100   43.0530 C   0  0  0  0  0  0  0  0  0  0  0  0
   42.4230   25.6170   43.5140 C   0  0  0  0  0  0  0  0  0  0  0  0
   43.1030   26.7930   43.6760 C   0  0  0  0  0  0  0  0  0  0  0  0
   42.4420   27.9630   43.3600 C   0  0  0  0  0  0  0  0  0  0  0  0
   41.1450   27.9090   42.9040 C   0  0  0  0  0  0  0  0  0  0  0  0
   40.4290   26.7540   42.7270 C   0  0  0  0  0  0  0  0  0  0  0  0
   38.6410   23.5060   42.3120 H   0  0  0  0  0  0  0  0  0  0  0  0
   42.9350   24.6940   43.7590 H   0  0  0  0  0  0  0  0  0  0  0  0
   44.1210   26.7810   44.0390 H   0  0  0  0  0  0  0  0  0  0  0  0
   42.9350   28.9210   43.4710 H   0  0  0  0  0  0  0  0  0  0  0  0
   40.6670   28.8640   42.6690 H   0  0  0  0  0  0  0  0  0  0  0  0
   35.7930   31.1620   41.0810 N   0  0  0  0  0  0  0  0  0  0  0  0
   35.5360   31.3010   40.0760 H   0  0  0  0  0  0  0  0  0  0  0  0
   35.3710   31.7980   41.8170 H   0  0  0  0  0  0  0  0  0  0  0  0
  1  7  1  0  0  0  0
  1  6  1  0  0  0  0
  2  1  2  0  0  0  0
  3  2  1  0  0  0  0
  3  4  2  0  0  0  0
  4  5  1  0  0  0  0
  5  6  2  0  0  0  0
  5 14  1  0  0  0  0
  8  9  1  0  0  0  0
  8  3  1  0  0  0  0
 10 11  1  0  0  0  0
 10  9  1  0  0  0  0
 12 11  1  0  0  0  0
 12  8  1  0  0  0  0
 13 12  1  0  0  0  0
 14 23  1  0  0  0  0
 15 14  2  0  0  0  0
 15 16  1  0  0  0  0
 16 17  2  0  0  0  0
 17 18  1  0  0  0  0
 18 19  1  0  0  0  0
 19 20  2  0  0  0  0
 19 25  1  0  0  0  0
 20 26  1  0  0  0  0
 21 27  1  0  0  0  0
 21 20  1  0  0  0  0
 22 21  2  0  0  0  0
 23 22  1  0  0  0  0
 23 18  2  0  0  0  0
 24 16  1  0  0  0  0
 28 22  1  0  0  0  0
 29  2  1  0  0  0  0
 29 31  1  0  0  0  0
 30 29  1  0  0  0  0
M  END
>  <minimizedAffinity>
-6.17621422

$$$$

 OpenBabel03252502033D

 31 34  0  0  0  0  0  0  0  0999 V2000
   37.2850   32.0450   39.9580 C   0  0  0  0  0  0  0  0  0  0  0  0
   37.0860   31.0120   40.8480 C   0  0  0  0  0  0  0  0  0  0  0  0
   38.1700   30.2300   41.1200 C   0  0  0  0  0  0  0  0  0  0  0  0
   39.3540   30.4770   40.5380 N   0  0  0  0  0  0  0  0  0  0  0  0
   39.5380   31.4750   39.6810 C   0  0  0  0  0  0  0  0  0  0  0  0
   38.4800   32.2410   39.4120 N   0  0  0  0  0  0  0  0  0  0  0  0
   36.4190   32.6740   39.7380 H   0  0  0  0  0  0  0  0  0  0  0  0
   38.0950   29.1520   42.0070 N   0  0  0  0  0  0  0  0  0  0  0  0
   39.0950   28.0800   42.1280 C   0  0  0  0  0  2  0  0  0  0  0  0
   38.6410   27.2450   43.3010 C   0  0  0  0  0  2  0  0  0  0  0  0
   37.1240   27.4480   43.2850 C   0  0  0  0  0  2  0  0  0  0  0  0
   37.0210   28.9100   42.9530 C   0  0  0  0  0  3  0  0  0  0  0  0
   37.2590   29.5250   43.8680 H   0  0  0  0  0  0  0  0  0  0  0  0
   40.7340   31.9200   38.9370 C   0  0  0  0  0  0  0  0  0  0  0  0
   40.9420   31.6480   37.6240 N   0  0  0  0  0  0  0  0  0  0  0  0
   42.0030   32.0340   36.9270 C   0  0  0  0  0  0  0  0  0  0  0  0
   42.9790   32.7530   37.5280 N   0  0  0  0  0  0  0  0  0  0  0  0
   42.8870   33.0860   38.8280 C   0  0  0  0  0  0  0  0  0  0  0  0
   43.8840   33.8180   39.4300 C   0  0  0  0  0  0  0  0  0  0  0  0
   43.8020   34.1610   40.7520 C   0  0  0  0  0  0  0  0  0  0  0  0
   42.6860   33.7470   41.4510 C   0  0  0  0  0  0  0  0  0  0  0  0
   41.7130   33.0160   40.8090 C   0  0  0  0  0  0  0  0  0  0  0  0
   41.7570   32.6520   39.4890 C   0  0  0  0  0  0  0  0  0  0  0  0
   42.0560   31.7550   35.8800 H   0  0  0  0  0  0  0  0  0  0  0  0
   44.7570   34.1390   38.8730 H   0  0  0  0  0  0  0  0  0  0  0  0
   44.5940   34.7360   41.2100 H   0  0  0  0  0  0  0  0  0  0  0  0
   42.5720   33.9930   42.5000 H   0  0  0  0  0  0  0  0  0  0  0  0
   40.8510   32.7130   41.4090 H   0  0  0  0  0  0  0  0  0  0  0  0
   35.8250   30.7960   41.4310 N   0  0  0  0  0  0  0  0  0  0  0  0
   35.6540   31.2460   42.3610 H   0  0  0  0  0  0  0  0  0  0  0  0
   35.0580   30.2140   40.9870 H   0  0  0  0  0  0  0  0  0  0  0  0
  1  2  1  0  0  0  0
  2  3  2  0  0  0  0
  2 29  1  0  0  0  0
  3  8  1  0  0  0  0
  4  3  1  0  0  0  0
  5  4  2  0  0  0  0
  6  5  1  0  0  0  0
  6  1  2  0  0  0  0
  7  1  1  0  0  0  0
  8  9  1  0  0  0  0
  8 12  1  0  0  0  0
  9 10  1  0  0  0  0
 11 10  1  0  0  0  0
 12 11  1  0  0  0  0
 12 13  1  0  0  0  0
 14 23  1  0  0  0  0
 14  5  1  0  0  0  0
 15 14  2  0  0  0  0
 16 17  2  0  0  0  0
 16 15  1  0  0  0  0
 17 18  1  0  0  0  0
 18 19  2  0  0  0  0
 18 23  1  0  0  0  0
 19 20  1  0  0  0  0
 20 26  1  0  0  0  0
 20 21  2  0  0  0  0
 21 27  1  0  0  0  0
 22 28  1  0  0  0  0
 22 21  1  0  0  0  0
 23 22  2  0  0  0  0
 24 16  1  0  0  0  0
 25 19  1  0  0  0  0
 29 30  1  0  0  0  0
 31 29  1  0  0  0  0
M  END
>  <minimizedAffinity>
-6.10438061

$$$$

 OpenBabel03252502033D

 31 34  0  0  0  0  0  0  0  0999 V2000
   37.3260   32.2570   40.1840 C   0  0  0  0  0  0  0  0  0  0  0  0
   37.0710   31.1480   40.9630 C   0  0  0  0  0  0  0  0  0  0  0  0
   38.1590   30.4480   41.3940 C   0  0  0  0  0  0  0  0  0  0  0  0
   39.3990   30.8390   41.0630 N   0  0  0  0  0  0  0  0  0  0  0  0
   39.6370   31.9080   40.3120 C   0  0  0  0  0  0  0  0  0  0  0  0
   38.5760   32.5960   39.8880 N   0  0  0  0  0  0  0  0  0  0  0  0
   36.4570   32.8200   39.8370 H   0  0  0  0  0  0  0  0  0  0  0  0
   38.0290   29.3060   42.1920 N   0  0  0  0  0  0  0  0  0  0  0  0
   39.0930   28.3200   42.4420 C   0  0  0  0  0  2  0  0  0  0  0  0
   38.5160   27.3670   43.4610 C   0  0  0  0  0  2  0  0  0  0  0  0
   37.0160   27.4360   43.1670 C   0  0  0  0  0  2  0  0  0  0  0  0
   36.8300   28.9030   42.9010 C   0  0  0  0  0  3  0  0  0  0  0  0
   36.8310   29.4700   43.8760 H   0  0  0  0  0  0  0  0  0  0  0  0
   40.8990   32.5100   39.8330 C   0  0  0  0  0  0  0  0  0  0  0  0
   41.4730   33.5970   40.4060 N   0  0  0  0  0  0  0  0  0  0  0  0
   42.6050   34.1610   40.0020 C   0  0  0  0  0  0  0  0  0  0  0  0
   43.2710   33.6480   38.9420 N   0  0  0  0  0  0  0  0  0  0  0  0
   42.8010   32.5700   38.2900 C   0  0  0  0  0  0  0  0  0  0  0  0
   43.4860   32.0560   37.2130 C   0  0  0  0  0  0  0  0  0  0  0  0
   43.0170   30.9600   36.5410 C   0  0  0  0  0  0  0  0  0  0  0  0
   41.8390   30.3950   36.9850 C   0  0  0  0  0  0  0  0  0  0  0  0
   41.1860   30.9420   38.0660 C   0  0  0  0  0  0  0  0  0  0  0  0
   41.6220   32.0370   38.7650 C   0  0  0  0  0  0  0  0  0  0  0  0
   42.9650   35.0290   40.5430 H   0  0  0  0  0  0  0  0  0  0  0  0
   44.4120   32.5060   36.8710 H   0  0  0  0  0  0  0  0  0  0  0  0
   43.5670   30.5690   35.6970 H   0  0  0  0  0  0  0  0  0  0  0  0
   41.4250   29.5260   36.4890 H   0  0  0  0  0  0  0  0  0  0  0  0
   40.2570   30.4570   38.3760 H   0  0  0  0  0  0  0  0  0  0  0  0
   35.7520   30.7810   41.2830 N   0  0  0  0  0  0  0  0  0  0  0  0
   35.3680   31.1460   42.1860 H   0  0  0  0  0  0  0  0  0  0  0  0
   35.1420   30.1670   40.6700 H   0  0  0  0  0  0  0  0  0  0  0  0
  1  2  1  0  0  0  0
  2 29  1  0  0  0  0
  2  3  2  0  0  0  0
  3  8  1  0  0  0  0
  4  3  1  0  0  0  0
  5  4  2  0  0  0  0
  6  1  2  0  0  0  0
  6  5  1  0  0  0  0
  7  1  1  0  0  0  0
  8  9  1  0  0  0  0
  8 12  1  0  0  0  0
  9 10  1  0  0  0  0
 11 10  1  0  0  0  0
 12 11  1  0  0  0  0
 12 13  1  0  0  0  0
 14  5  1  0  0  0  0
 14 15  1  0  0  0  0
 16 15  2  0  0  0  0
 16 24  1  0  0  0  0
 17 16  1  0  0  0  0
 18 23  1  0  0  0  0
 18 17  2  0  0  0  0
 19 18  1  0  0  0  0
 20 21  1  0  0  0  0
 20 19  2  0  0  0  0
 21 22  2  0  0  0  0
 22 28  1  0  0  0  0
 22 23  1  0  0  0  0
 23 14  2  0  0  0  0
 25 19  1  0  0  0  0
 26 20  1  0  0  0  0
 27 21  1  0  0  0  0
 29 30  1  0  0  0  0
 31 29  1  0  0  0  0
M  END
>  <minimizedAffinity>
-6.09494781

$$$$

 OpenBabel03252502033D

 31 34  0  0  0  0  0  0  0  0999 V2000
   36.1630   30.6070   41.0230 C   0  0  0  0  0  0  0  0  0  0  0  0
   37.1810   31.4040   40.5430 C   0  0  0  0  0  0  0  0  0  0  0  0
   38.3360   30.7670   40.1990 C   0  0  0  0  0  0  0  0  0  0  0  0
   38.4490   29.4360   40.3300 N   0  0  0  0  0  0  0  0  0  0  0  0
   37.4640   28.6750   40.7940 C   0  0  0  0  0  0  0  0  0  0  0  0
   36.3320   29.2940   41.1320 N   0  0  0  0  0  0  0  0  0  0  0  0
   35.2360   31.1140   41.3000 H   0  0  0  0  0  0  0  0  0  0  0  0
   39.4400   31.4660   39.6990 N   0  0  0  0  0  0  0  0  0  0  0  0
   40.8080   30.9330   39.5970 C   0  0  0  0  0  2  0  0  0  0  0  0
   41.5950   32.0000   38.8750 C   0  0  0  0  0  2  0  0  0  0  0  0
   40.8530   33.2800   39.2650 C   0  0  0  0  0  2  0  0  0  0  0  0
   39.4210   32.8280   39.2010 C   0  0  0  0  0  3  0  0  0  0  0  0
   39.0890   32.7690   38.1240 H   0  0  0  0  0  0  0  0  0  0  0  0
   37.3730   27.2170   41.0170 C   0  0  0  0  0  0  0  0  0  0  0  0
   37.8580   26.5990   42.1230 N   0  0  0  0  0  0  0  0  0  0  0  0
   37.7920   25.2940   42.3540 C   0  0  0  0  0  0  0  0  0  0  0  0
   37.2060   24.4780   41.4470 N   0  0  0  0  0  0  0  0  0  0  0  0
   36.6870   24.9740   40.3100 C   0  0  0  0  0  0  0  0  0  0  0  0
   36.0930   24.1360   39.3940 C   0  0  0  0  0  0  0  0  0  0  0  0
   35.5630   24.6300   38.2330 C   0  0  0  0  0  0  0  0  0  0  0  0
   35.6450   25.9910   38.0210 C   0  0  0  0  0  0  0  0  0  0  0  0
   36.2480   26.7920   38.9630 C   0  0  0  0  0  0  0  0  0  0  0  0
   36.7920   26.3380   40.1370 C   0  0  0  0  0  0  0  0  0  0  0  0
   38.2170   24.9160   43.2770 H   0  0  0  0  0  0  0  0  0  0  0  0
   36.0320   23.0680   39.5690 H   0  0  0  0  0  0  0  0  0  0  0  0
   35.1000   23.9580   37.5240 H   0  0  0  0  0  0  0  0  0  0  0  0
   35.2400   26.4320   37.1180 H   0  0  0  0  0  0  0  0  0  0  0  0
   36.2880   27.8620   38.7460 H   0  0  0  0  0  0  0  0  0  0  0  0
   37.0110   32.7950   40.4240 N   0  0  0  0  0  0  0  0  0  0  0  0
   36.6850   33.1500   39.4950 H   0  0  0  0  0  0  0  0  0  0  0  0
   37.1940   33.4840   41.2090 H   0  0  0  0  0  0  0  0  0  0  0  0
  1  6  1  0  0  0  0
  1  7  1  0  0  0  0
  2  1  2  0  0  0  0
  3  4  2  0  0  0  0
  3  2  1  0  0  0  0
  4  5  1  0  0  0  0
  5 14  1  0  0  0  0
  5  6  2  0  0  0  0
  8  3  1  0  0  0  0
  9  8  1  0  0  0  0
 10 11  1  0  0  0  0
 10  9  1  0  0  0  0
 12 11  1  0  0  0  0
 12  8  1  0  0  0  0
 13 12  1  0  0  0  0
 14 15  1  0  0  0  0
 15 16  2  0  0  0  0
 16 24  1  0  0  0  0
 17 16  1  0  0  0  0
 18 17  2  0  0  0  0
 19 25  1  0  0  0  0
 19 18  1  0  0  0  0
 20 19  2  0  0  0  0
 21 20  1  0  0  0  0
 21 22  2  0  0  0  0
 22 23  1  0  0  0  0
 23 18  1  0  0  0  0
 23 14  2  0  0  0  0
 26 20  1  0  0  0  0
 27 21  1  0  0  0  0
 28 22  1  0  0  0  0
 29  2  1  0  0  0  0
 29 31  1  0  0  0  0
 30 29  1  0  0  0  0
M  END
>  <minimizedAffinity>
-5.83809471

$$$$

 OpenBabel03252502033D

 31 34  0  0  0  0  0  0  0  0999 V2000
   38.0340   31.3280   38.5600 C   0  0  0  0  0  0  0  0  0  0  0  0
   39.2970   31.4570   38.0220 C   0  0  0  0  0  0  0  0  0  0  0  0
   40.2850   30.7300   38.6160 C   0  0  0  0  0  0  0  0  0  0  0  0
   40.0150   29.9380   39.6670 N   0  0  0  0  0  0  0  0  0  0  0  0
   38.7950   29.8190   40.1790 C   0  0  0  0  0  0  0  0  0  0  0  0
   37.8260   30.5290   39.6010 N   0  0  0  0  0  0  0  0  0  0  0  0
   37.2400   31.9090   38.0860 H   0  0  0  0  0  0  0  0  0  0  0  0
   41.6070   30.7760   38.1620 N   0  0  0  0  0  0  0  0  0  0  0  0
   42.7790   30.2890   38.9070 C   0  0  0  0  0  2  0  0  0  0  0  0
   43.9400   30.4270   37.9520 C   0  0  0  0  0  2  0  0  0  0  0  0
   43.5050   31.6000   37.0690 C   0  0  0  0  0  2  0  0  0  0  0  0
   42.0430   31.3100   36.8850 C   0  0  0  0  0  3  0  0  0  0  0  0
   41.9110   30.4810   36.1320 H   0  0  0  0  0  0  0  0  0  0  0  0
   38.2810   29.0210   41.3120 C   0  0  0  0  0  0  0  0  0  0  0  0
   38.1680   29.5020   42.5750 N   0  0  0  0  0  0  0  0  0  0  0  0
   37.7110   28.8120   43.6120 C   0  0  0  0  0  0  0  0  0  0  0  0
   37.3160   27.5280   43.4470 N   0  0  0  0  0  0  0  0  0  0  0  0
   37.3810   26.9390   42.2400 C   0  0  0  0  0  0  0  0  0  0  0  0
   36.9780   25.6330   42.0810 C   0  0  0  0  0  0  0  0  0  0  0  0
   37.0410   25.0230   40.8570 C   0  0  0  0  0  0  0  0  0  0  0  0
   37.5200   25.7660   39.7970 C   0  0  0  0  0  0  0  0  0  0  0  0
   37.9130   27.0680   40.0010 C   0  0  0  0  0  0  0  0  0  0  0  0
   37.8660   27.7160   41.2080 C   0  0  0  0  0  0  0  0  0  0  0  0
   37.6660   29.3080   44.5760 H   0  0  0  0  0  0  0  0  0  0  0  0
   36.6020   25.0570   42.9190 H   0  0  0  0  0  0  0  0  0  0  0  0
   36.7200   23.9970   40.7500 H   0  0  0  0  0  0  0  0  0  0  0  0
   37.5890   25.3300   38.8080 H   0  0  0  0  0  0  0  0  0  0  0  0
   38.2850   27.6110   39.1290 H   0  0  0  0  0  0  0  0  0  0  0  0
   39.5270   32.3000   36.9200 N   0  0  0  0  0  0  0  0  0  0  0  0
   39.4840   31.8560   35.9730 H   0  0  0  0  0  0  0  0  0  0  0  0
   39.7390   33.3360   37.0000 H   0  0  0  0  0  0  0  0  0  0  0  0
  1  6  1  0  0  0  0
  2  1  2  0  0  0  0
  2  3  1  0  0  0  0
  3  4  2  0  0  0  0
  4  5  1  0  0  0  0
  5 14  1  0  0  0  0
  6  5  2  0  0  0  0
  7  1  1  0  0  0  0
  8  3  1  0  0  0  0
  8  9  1  0  0  0  0
 10  9  1  0  0  0  0
 11 10  1  0  0  0  0
 12 11  1  0  0  0  0
 12  8  1  0  0  0  0
 13 12  1  0  0  0  0
 14 15  1  0  0  0  0
 15 16  2  0  0  0  0
 16 24  1  0  0  0  0
 17 16  1  0  0  0  0
 18 17  2  0  0  0  0
 19 18  1  0  0  0  0
 19 25  1  0  0  0  0
 20 19  2  0  0  0  0
 21 22  2  0  0  0  0
 21 20  1  0  0  0  0
 22 23  1  0  0  0  0
 23 14  2  0  0  0  0
 23 18  1  0  0  0  0
 26 20  1  0  0  0  0
 27 21  1  0  0  0  0
 28 22  1  0  0  0  0
 29 31  1  0  0  0  0
 29  2  1  0  0  0  0
 30 29  1  0  0  0  0
M  END
>  <minimizedAffinity>
-5.77310467

$$$$

 OpenBabel03252502033D

 31 34  0  0  0  0  0  0  0  0999 V2000
   38.5990   32.1480   38.8970 C   0  0  0  0  0  0  0  0  0  0  0  0
   39.6950   32.7770   39.4470 C   0  0  0  0  0  0  0  0  0  0  0  0
   40.4750   32.0230   40.2720 C   0  0  0  0  0  0  0  0  0  0  0  0
   40.1690   30.7390   40.5180 N   0  0  0  0  0  0  0  0  0  0  0  0
   39.1110   30.1390   39.9840 C   0  0  0  0  0  0  0  0  0  0  0  0
   38.3450   30.8740   39.1760 N   0  0  0  0  0  0  0  0  0  0  0  0
   37.9710   32.7490   38.2350 H   0  0  0  0  0  0  0  0  0  0  0  0
   41.6150   32.5480   40.8900 N   0  0  0  0  0  0  0  0  0  0  0  0
   42.3310   31.9310   42.0170 C   0  0  0  0  0  2  0  0  0  0  0  0
   43.5540   32.7900   42.2270 C   0  0  0  0  0  2  0  0  0  0  0  0
   43.0840   34.1610   41.7360 C   0  0  0  0  0  2  0  0  0  0  0  0
   42.2790   33.7850   40.5240 C   0  0  0  0  0  3  0  0  0  0  0  0
   42.9720   33.5340   39.6700 H   0  0  0  0  0  0  0  0  0  0  0  0
   38.5950   28.7610   40.1150 C   0  0  0  0  0  0  0  0  0  0  0  0
   38.6380   27.8490   39.1120 N   0  0  0  0  0  0  0  0  0  0  0  0
   38.1840   26.6040   39.1980 C   0  0  0  0  0  0  0  0  0  0  0  0
   37.6280   26.1680   40.3510 N   0  0  0  0  0  0  0  0  0  0  0  0
   37.5280   26.9810   41.4180 C   0  0  0  0  0  0  0  0  0  0  0  0
   36.9610   26.5280   42.5870 C   0  0  0  0  0  0  0  0  0  0  0  0
   36.8540   27.3470   43.6780 C   0  0  0  0  0  0  0  0  0  0  0  0
   37.3350   28.6350   43.5600 C   0  0  0  0  0  0  0  0  0  0  0  0
   37.8940   29.0460   42.3720 C   0  0  0  0  0  0  0  0  0  0  0  0
   38.0210   28.2590   41.2570 C   0  0  0  0  0  0  0  0  0  0  0  0
   38.2750   25.9660   38.3250 H   0  0  0  0  0  0  0  0  0  0  0  0
   36.5860   25.5140   42.6710 H   0  0  0  0  0  0  0  0  0  0  0  0
   36.4060   26.9750   44.5880 H   0  0  0  0  0  0  0  0  0  0  0  0
   37.2750   29.3230   44.3940 H   0  0  0  0  0  0  0  0  0  0  0  0
   38.2590   30.0760   42.3310 H   0  0  0  0  0  0  0  0  0  0  0  0
   39.9720   34.1250   39.1570 N   0  0  0  0  0  0  0  0  0  0  0  0
   40.6280   34.3090   38.3620 H   0  0  0  0  0  0  0  0  0  0  0  0
   39.5610   34.9440   39.6910 H   0  0  0  0  0  0  0  0  0  0  0  0
  1  6  2  0  0  0  0
  1  2  1  0  0  0  0
  2  3  2  0  0  0  0
  3  4  1  0  0  0  0
  3  8  1  0  0  0  0
  5 14  1  0  0  0  0
  5  4  2  0  0  0  0
  6  5  1  0  0  0  0
  7  1  1  0  0  0  0
  8  9  1  0  0  0  0
  9 10  1  0  0  0  0
 11 10  1  0  0  0  0
 12  8  1  0  0  0  0
 12 11  1  0  0  0  0
 13 12  1  0  0  0  0
 14 23  1  0  0  0  0
 15 16  1  0  0  0  0
 15 14  2  0  0  0  0
 16 17  2  0  0  0  0
 17 18  1  0  0  0  0
 18 19  1  0  0  0  0
 19 25  1  0  0  0  0
 19 20  2  0  0  0  0
 20 26  1  0  0  0  0
 21 20  1  0  0  0  0
 21 27  1  0  0  0  0
 22 21  2  0  0  0  0
 23 18  2  0  0  0  0
 23 22  1  0  0  0  0
 24 16  1  0  0  0  0
 28 22  1  0  0  0  0
 29  2  1  0  0  0  0
 29 31  1  0  0  0  0
 30 29  1  0  0  0  0
M  END
>  <minimizedAffinity>
-5.65158033

$$$$

 OpenBabel03252502033D

 31 34  0  0  0  0  0  0  0  0999 V2000
   40.3270   32.2860   37.4080 C   0  0  0  0  0  0  0  0  0  0  0  0
   41.5630   32.7230   37.8330 C   0  0  0  0  0  0  0  0  0  0  0  0
   41.8150   32.6190   39.1700 C   0  0  0  0  0  0  0  0  0  0  0  0
   40.8910   32.1140   40.0020 N   0  0  0  0  0  0  0  0  0  0  0  0
   39.7020   31.6950   39.5840 C   0  0  0  0  0  0  0  0  0  0  0  0
   39.4520   31.7950   38.2780 N   0  0  0  0  0  0  0  0  0  0  0  0
   40.1230   32.3670   36.3380 H   0  0  0  0  0  0  0  0  0  0  0  0
   43.0330   33.0280   39.7230 N   0  0  0  0  0  0  0  0  0  0  0  0
   43.2830   33.2480   41.1560 C   0  0  0  0  0  2  0  0  0  0  0  0
   44.7620   33.5370   41.2590 C   0  0  0  0  0  2  0  0  0  0  0  0
   45.0730   34.1610   39.8970 C   0  0  0  0  0  2  0  0  0  0  0  0
   44.2470   33.3040   38.9790 C   0  0  0  0  0  3  0  0  0  0  0  0
   44.7590   32.3100   38.8240 H   0  0  0  0  0  0  0  0  0  0  0  0
   38.5540   31.1160   40.3130 C   0  0  0  0  0  0  0  0  0  0  0  0
   37.2680   31.4900   40.1010 N   0  0  0  0  0  0  0  0  0  0  0  0
   36.2160   30.9900   40.7370 C   0  0  0  0  0  0  0  0  0  0  0  0
   36.3900   30.0330   41.6780 N   0  0  0  0  0  0  0  0  0  0  0  0
   37.6200   29.5800   41.9780 C   0  0  0  0  0  0  0  0  0  0  0  0
   37.7880   28.6060   42.9360 C   0  0  0  0  0  0  0  0  0  0  0  0
   39.0340   28.1380   43.2500 C   0  0  0  0  0  0  0  0  0  0  0  0
   40.1090   28.6760   42.5710 C   0  0  0  0  0  0  0  0  0  0  0  0
   39.8960   29.6480   41.6210 C   0  0  0  0  0  0  0  0  0  0  0  0
   38.6650   30.1440   41.2770 C   0  0  0  0  0  0  0  0  0  0  0  0
   35.2340   31.3700   40.4780 H   0  0  0  0  0  0  0  0  0  0  0  0
   36.9380   28.1890   43.4640 H   0  0  0  0  0  0  0  0  0  0  0  0
   39.1480   27.3730   44.0050 H   0  0  0  0  0  0  0  0  0  0  0  0
   41.1170   28.3400   42.7820 H   0  0  0  0  0  0  0  0  0  0  0  0
   40.7800   30.0410   41.1140 H   0  0  0  0  0  0  0  0  0  0  0  0
   42.4970   33.2430   36.9200 N   0  0  0  0  0  0  0  0  0  0  0  0
   43.1930   32.5690   36.5250 H   0  0  0  0  0  0  0  0  0  0  0  0
   42.5310   34.2600   36.6200 H   0  0  0  0  0  0  0  0  0  0  0  0
  1  2  2  0  0  0  0
  1  6  1  0  0  0  0
  2  3  1  0  0  0  0
  3  8  1  0  0  0  0
  3  4  2  0  0  0  0
  5  4  1  0  0  0  0
  5 14  1  0  0  0  0
  6  5  2  0  0  0  0
  7  1  1  0  0  0  0
  8  9  1  0  0  0  0
  9 10  1  0  0  0  0
 11 10  1  0  0  0  0
 12  8  1  0  0  0  0
 12 11  1  0  0  0  0
 13 12  1  0  0  0  0
 14 23  1  0  0  0  0
 15 14  2  0  0  0  0
 15 16  1  0  0  0  0
 16 17  2  0  0  0  0
 17 18  1  0  0  0  0
 18 19  1  0  0  0  0
 19 20  2  0  0  0  0
 19 25  1  0  0  0  0
 20 26  1  0  0  0  0
 21 27  1  0  0  0  0
 21 20  1  0  0  0  0
 22 21  2  0  0  0  0
 23 22  1  0  0  0  0
 23 18  2  0  0  0  0
 24 16  1  0  0  0  0
 28 22  1  0  0  0  0
 29  2  1  0  0  0  0
 30 29  1  0  0  0  0
 31 29  1  0  0  0  0
M  END
>  <minimizedAffinity>
-5.63364363

$$$$
