
 OpenBabel03252508023D

 39 42  0  0  1  0  0  0  0  0999 V2000
   44.3700   34.3860   41.5620 C   0  0  0  0  0  0  0  0  0  0  0  0
   45.2800   34.3890   40.6640 O   0  0  0  0  0  0  0  0  0  0  0  0
   42.3570   33.1700   40.7140 C   0  0  0  0  0  0  0  0  0  0  0  0
   42.9350   34.2850   41.2890 C   0  0  0  0  0  0  0  0  0  0  0  0
   42.1150   35.3590   41.6320 C   0  0  0  0  0  0  0  0  0  0  0  0
   40.7470   35.3310   41.4100 C   0  0  0  0  0  0  0  0  0  0  0  0
   40.1710   34.2250   40.8390 C   0  0  0  0  0  0  0  0  0  0  0  0
   40.9880   33.1780   40.5080 C   0  0  0  0  0  0  0  0  0  0  0  0
   42.4680   36.2760   42.0820 H   0  0  0  0  0  0  0  0  0  0  0  0
   40.1220   36.1450   41.6690 H   0  0  0  0  0  0  0  0  0  0  0  0
   39.1250   34.1510   40.6470 H   0  0  0  0  0  0  0  0  0  0  0  0
   40.5250   32.2950   40.0510 H   0  0  0  0  0  0  0  0  0  0  0  0
   43.2780   31.8620   40.2090 S   0  0  0  0  0  0  0  0  0  0  0  0
   44.0440   32.4090   39.0360 O   0  0  0  0  0  0  0  0  0  0  0  0
   42.3190   30.7510   39.7130 O   0  0  0  0  0  0  0  0  0  0  0  0
   45.6200   30.3920   42.4670 H   0  0  0  0  0  0  0  0  0  0  0  0
   44.7510   30.9650   42.2660 N   0  0  0  0  0  0  0  0  0  0  0  0
   43.6270   30.4580   43.0050 C   0  0  0  0  0  2  0  0  0  0  0  0
   42.9670   29.4670   42.1120 C   0  0  0  0  0  2  0  0  0  0  0  0
   43.9680   29.4030   40.9920 C   0  0  0  0  0  2  0  0  0  0  0  0
   44.4670   30.9200   40.8450 C   0  0  1  0  0  3  0  0  0  0  0  0
   44.6590   34.4820   42.9670 C   0  0  0  0  0  0  0  0  0  0  0  0
   44.3470   35.7150   43.6070 C   0  0  0  0  0  0  0  0  0  0  0  0
   44.6190   35.8030   44.9670 C   0  0  0  0  0  0  0  0  0  0  0  0
   45.1580   34.7240   45.5930 N   0  0  0  0  0  0  0  0  0  0  0  0
   45.4420   33.5570   44.9330 C   0  0  0  0  0  0  0  0  0  0  0  0
   45.1820   33.5020   43.6800 N   0  0  0  0  0  0  0  0  0  0  0  0
   43.9250   36.5890   43.1600 H   0  0  0  0  0  0  0  0  0  0  0  0
   44.4280   36.6790   45.5530 H   0  0  0  0  0  0  0  0  0  0  0  0
   46.0210   32.4330   45.6940 C   0  0  1  0  0  0  0  0  0  0  0  0
   46.9650   32.7340   46.8370 C   0  0  0  0  0  0  0  0  0  0  0  0
   45.5460   32.3280   47.0990 C   0  0  1  0  0  0  0  0  0  0  0  0
   46.2770   31.5190   45.1500 H   0  0  0  0  0  0  0  0  0  0  0  0
   47.2990   33.7810   46.9650 H   0  0  0  0  0  0  0  0  0  0  0  0
   47.7350   31.9890   47.1030 H   0  0  0  0  0  0  0  0  0  0  0  0
   45.3500   31.3160   47.5060 H   0  0  0  0  0  0  0  0  0  0  0  0
   44.7740   33.4040   47.6860 N   0  0  0  0  0  0  0  0  0  0  0  0
   45.3750   34.0790   48.2060 H   0  0  0  0  0  0  0  0  0  0  0  0
   44.0270   32.9960   48.3150 H   0  0  0  0  0  0  0  0  0  0  0  0
  1 22  1  0  0  0  0
  2  1  2  0  0  0  0
  3  4  1  0  0  0  0
  4  1  1  0  0  0  0
  4  5  2  0  0  0  0
  5  9  1  0  0  0  0
  6  5  1  0  0  0  0
  6 10  1  0  0  0  0
  7  6  2  0  0  0  0
  8  3  2  0  0  0  0
  8  7  1  0  0  0  0
 11  7  1  0  0  0  0
 12  8  1  0  0  0  0
 13  3  1  0  0  0  0
 14 13  2  0  0  0  0
 15 13  2  0  0  0  0
 17 16  1  0  0  0  0
 17 18  1  0  0  0  0
 19 18  1  0  0  0  0
 20 19  1  0  0  0  0
 21 13  1  1  0  0  0
 21 20  1  0  0  0  0
 21 17  1  0  0  0  0
 22 23  2  0  0  0  0
 22 27  1  0  0  0  0
 23 24  1  0  0  0  0
 24 29  1  0  0  0  0
 24 25  2  0  0  0  0
 26 25  1  0  0  0  0
 26 30  1  0  0  0  0
 27 26  2  0  0  0  0
 28 23  1  0  0  0  0
 30 33  1  6  0  0  0
 30 31  1  0  0  0  0
 30 32  1  0  0  0  0
 31 34  1  0  0  0  0
 31 32  1  0  0  0  0
 31 35  1  0  0  0  0
 32 36  1  1  0  0  0
 32 37  1  0  0  0  0
 37 38  1  0  0  0  0
 37 39  1  0  0  0  0
M  END
>  <minimizedAffinity>
-5.47581673

>  <minimizedRMSD>
1.17860055

$$$$
