
 OpenBabel03252501593D

 31 34  0  0  0  0  0  0  0  0999 V2000
   47.3250   32.3260   47.9610 C   0  0  0  0  0  0  0  0  0  0  0  0
   46.8930   31.0180   48.0140 C   0  0  0  0  0  0  0  0  0  0  0  0
   46.0910   30.6040   46.9910 C   0  0  0  0  0  0  0  0  0  0  0  0
   45.7580   31.4450   46.0000 N   0  0  0  0  0  0  0  0  0  0  0  0
   46.1780   32.7040   45.9560 C   0  0  0  0  0  0  0  0  0  0  0  0
   46.9620   33.1130   46.9550 N   0  0  0  0  0  0  0  0  0  0  0  0
   47.9680   32.6610   48.7780 H   0  0  0  0  0  0  0  0  0  0  0  0
   45.5890   29.2990   46.9320 N   0  0  0  0  0  0  0  0  0  0  0  0
   46.2560   28.1080   47.4760 C   0  0  0  0  0  2  0  0  0  0  0  0
   45.2660   26.9810   47.2940 C   0  0  0  0  0  2  0  0  0  0  0  0
   44.4730   27.4340   46.0650 C   0  0  0  0  0  2  0  0  0  0  0  0
   44.3300   28.9070   46.3260 C   0  0  0  0  0  3  0  0  0  0  0  0
   43.5340   29.0780   47.1070 H   0  0  0  0  0  0  0  0  0  0  0  0
   45.9380   33.7850   44.9780 C   0  0  0  0  0  0  0  0  0  0  0  0
   44.9520   34.7070   45.1100 N   0  0  0  0  0  0  0  0  0  0  0  0
   44.7110   35.6890   44.2510 C   0  0  0  0  0  0  0  0  0  0  0  0
   45.4780   35.8210   43.1440 N   0  0  0  0  0  0  0  0  0  0  0  0
   46.4880   34.9660   42.9020 C   0  0  0  0  0  0  0  0  0  0  0  0
   47.2640   35.1080   41.7740 C   0  0  0  0  0  0  0  0  0  0  0  0
   48.2930   34.2440   41.5180 C   0  0  0  0  0  0  0  0  0  0  0  0
   48.5210   33.2330   42.4300 C   0  0  0  0  0  0  0  0  0  0  0  0
   47.7210   33.1280   43.5440 C   0  0  0  0  0  0  0  0  0  0  0  0
   46.6810   33.9710   43.8380 C   0  0  0  0  0  0  0  0  0  0  0  0
   43.8920   36.3670   44.4660 H   0  0  0  0  0  0  0  0  0  0  0  0
   47.0780   35.9050   41.0640 H   0  0  0  0  0  0  0  0  0  0  0  0
   48.8920   34.3690   40.6270 H   0  0  0  0  0  0  0  0  0  0  0  0
   49.3240   32.5230   42.2740 H   0  0  0  0  0  0  0  0  0  0  0  0
   47.9440   32.3100   44.2330 H   0  0  0  0  0  0  0  0  0  0  0  0
   47.2720   30.1760   49.0750 N   0  0  0  0  0  0  0  0  0  0  0  0
   48.1220   29.5850   48.9240 H   0  0  0  0  0  0  0  0  0  0  0  0
   46.7500   30.1120   49.9960 H   0  0  0  0  0  0  0  0  0  0  0  0
  1  2  1  0  0  0  0
  1  7  1  0  0  0  0
  2 29  1  0  0  0  0
  3  2  2  0  0  0  0
  4  3  1  0  0  0  0
  5  4  2  0  0  0  0
  5  6  1  0  0  0  0
  6  1  2  0  0  0  0
  8  3  1  0  0  0  0
  8  9  1  0  0  0  0
 10  9  1  0  0  0  0
 11 12  1  0  0  0  0
 11 10  1  0  0  0  0
 12  8  1  0  0  0  0
 12 13  1  0  0  0  0
 14 15  1  0  0  0  0
 14  5  1  0  0  0  0
 16 24  1  0  0  0  0
 16 15  2  0  0  0  0
 17 16  1  0  0  0  0
 18 17  2  0  0  0  0
 18 23  1  0  0  0  0
 19 18  1  0  0  0  0
 20 19  2  0  0  0  0
 20 21  1  0  0  0  0
 21 22  2  0  0  0  0
 22 23  1  0  0  0  0
 22 28  1  0  0  0  0
 23 14  2  0  0  0  0
 25 19  1  0  0  0  0
 26 20  1  0  0  0  0
 27 21  1  0  0  0  0
 29 31  1  0  0  0  0
 30 29  1  0  0  0  0
M  END
>  <minimizedAffinity>
-6.40465021

>  <minimizedRMSD>
0.515398979

$$$$
