
 OpenBabel03252507373D

 35 39  0  0  0  0  0  0  0  0999 V2000
   45.5790   34.7730   43.4350 C   0  0  0  0  0  0  0  0  0  0  0  0
   46.2600   33.7090   44.0590 C   0  0  0  0  0  0  0  0  0  0  0  0
   46.0580   33.5020   45.4070 C   0  0  0  0  0  0  0  0  0  0  0  0
   45.2290   34.3120   46.0640 N   0  0  0  0  0  0  0  0  0  0  0  0
   44.5740   35.3360   45.4590 C   0  0  0  0  0  0  0  0  0  0  0  0
   44.7540   35.5540   44.1610 N   0  0  0  0  0  0  0  0  0  0  0  0
   46.9290   33.0600   43.5240 H   0  0  0  0  0  0  0  0  0  0  0  0
   43.9110   35.9850   45.9930 H   0  0  0  0  0  0  0  0  0  0  0  0
   46.9950   32.6950   47.5130 C   0  0  0  0  0  0  0  0  0  0  0  0
   46.7140   32.4360   46.1650 C   0  0  0  0  0  0  0  0  0  0  0  0
   47.0670   31.2180   45.6590 C   0  0  0  0  0  0  0  0  0  0  0  0
   47.6820   30.2460   46.4110 C   0  0  0  0  0  0  0  0  0  0  0  0
   48.1120   28.9990   46.1250 N   0  0  0  0  0  0  0  0  0  0  0  0
   48.6600   28.4770   47.2920 C   0  0  0  0  0  0  0  0  0  0  0  0
   48.5520   29.4080   48.2490 N   0  0  0  0  0  0  0  0  0  0  0  0
   47.9610   30.4910   47.7310 C   0  0  0  0  0  0  0  0  0  0  0  0
   47.6130   31.7210   48.2770 C   0  0  0  0  0  0  0  0  0  0  0  0
   46.7260   33.6590   47.9370 H   0  0  0  0  0  0  0  0  0  0  0  0
   46.8400   31.0310   44.5990 H   0  0  0  0  0  0  0  0  0  0  0  0
   48.0490   28.5080   45.2020 H   0  0  0  0  0  0  0  0  0  0  0  0
   49.0820   27.4850   47.3580 H   0  0  0  0  0  0  0  0  0  0  0  0
   47.8170   31.9430   49.3170 H   0  0  0  0  0  0  0  0  0  0  0  0
   45.7770   34.9870   42.0770 O   0  0  0  0  0  0  0  0  0  0  0  0
   44.7580   34.7180   41.1660 C   0  0  0  0  0  0  0  0  0  0  0  0
   45.3740   33.7370   40.4510 C   0  0  0  0  0  0  0  0  0  0  0  0
   43.9910   33.3380   39.1850 S   0  0  0  0  0  0  0  0  0  0  0  0
   42.8840   34.6540   39.9760 C   0  0  0  0  0  0  0  0  0  0  0  0
   43.5300   35.0290   40.7750 N   0  0  0  0  0  0  0  0  0  0  0  0
   46.2540   33.0360   40.2040 H   0  0  0  0  0  0  0  0  0  0  0  0
   41.6440   34.6730   39.2710 N   0  0  0  0  0  0  0  0  0  0  0  0
   40.8760   33.8630   38.3640 C   0  0  0  0  0  2  0  0  0  0  0  0
   39.6260   33.6320   39.2360 C   0  0  0  0  0  2  0  0  0  0  0  0
   39.4800   35.0010   39.9100 C   0  0  0  0  0  2  0  0  0  0  0  0
   40.6920   35.7910   39.4000 C   0  0  0  0  0  3  0  0  0  0  0  0
   41.0360   36.4850   40.1650 H   0  0  0  0  0  0  0  0  0  0  0  0
  1  2  2  0  0  0  0
  1  6  1  0  0  0  0
  2  3  1  0  0  0  0
  3  4  2  0  0  0  0
  3 10  1  0  0  0  0
  5  8  1  0  0  0  0
  5  4  1  0  0  0  0
  6  5  2  0  0  0  0
  7  2  1  0  0  0  0
  9 18  1  0  0  0  0
  9 17  1  0  0  0  0
 10  9  2  0  0  0  0
 11 10  1  0  0  0  0
 11 12  2  0  0  0  0
 12 16  1  0  0  0  0
 13 12  1  0  0  0  0
 13 14  1  0  0  0  0
 14 21  1  0  0  0  0
 14 15  2  0  0  0  0
 16 15  1  0  0  0  0
 16 17  2  0  0  0  0
 17 22  1  0  0  0  0
 19 11  1  0  0  0  0
 20 13  1  0  0  0  0
 23  1  1  0  0  0  0
 24 23  1  0  0  0  0
 25 24  2  0  0  0  0
 26 27  1  0  0  0  0
 26 25  1  0  0  0  0
 27 28  2  0  0  0  0
 28 24  1  0  0  0  0
 29 25  1  0  0  0  0
 30 34  1  0  0  0  0
 30 27  1  0  0  0  0
 31 32  1  0  0  0  0
 31 30  1  0  0  0  0
 32 33  1  0  0  0  0
 34 33  1  0  0  0  0
 34 35  1  0  0  0  0
M  END
>  <minimizedAffinity>
-6.73961782

>  <minimizedRMSD>
0.414471358

$$$$
