
 OpenBabel03242513333D

 18 19  0  0  0  0  0  0  0  0999 V2000
   45.0840   34.7770   45.1540 C   0  0  0  0  0  0  0  0  0  0  0  0
   45.8360   34.5830   43.9980 C   0  0  0  0  0  0  0  0  0  0  0  0
   46.6630   33.4600   43.9490 C   0  0  0  0  0  0  0  0  0  0  0  0
   46.7010   32.6210   45.0060 N   0  0  0  0  0  0  0  0  0  0  0  0
   45.9440   32.8510   46.1230 C   0  0  0  0  0  0  0  0  0  0  0  0
   45.1400   33.9250   46.1920 N   0  0  0  0  0  0  0  0  0  0  0  0
   44.4330   35.6540   45.2020 H   0  0  0  0  0  0  0  0  0  0  0  0
   47.2330   33.3240   43.0600 H   0  0  0  0  0  0  0  0  0  0  0  0
   46.0070   31.9450   47.2220 N   0  0  0  0  0  0  0  0  0  0  0  0
   46.4120   32.2610   48.5780 C   0  0  0  0  0  0  0  0  0  0  0  0
   45.3690   31.5190   49.3790 C   0  0  0  0  0  0  0  0  0  0  0  0
   45.1500   30.2710   48.5520 C   0  0  0  0  0  0  0  0  0  0  0  0
   45.6720   30.5340   47.1740 C   0  0  0  0  0  0  0  0  0  0  0  0
   44.9580   30.2860   46.3670 H   0  0  0  0  0  0  0  0  0  0  0  0
   45.7030   35.5860   42.9040 C   0  0  0  0  0  0  0  0  0  0  0  0
   45.2550   36.7520   43.5160 F   0  0  0  0  0  0  0  0  0  0  0  0
   44.7840   35.1420   42.0030 F   0  0  0  0  0  0  0  0  0  0  0  0
   46.9630   35.7570   42.3250 F   0  0  0  0  0  0  0  0  0  0  0  0
  1  7  1  0  0  0  0
  1  6  1  0  0  0  0
  2  1  2  0  0  0  0
  3  2  1  0  0  0  0
  3  4  2  0  0  0  0
  4  5  1  0  0  0  0
  5  6  2  0  0  0  0
  5  9  1  0  0  0  0
  8  3  1  0  0  0  0
  9 10  1  0  0  0  0
 10 11  1  0  0  0  0
 12 11  1  0  0  0  0
 13  9  1  0  0  0  0
 13 12  1  0  0  0  0
 14 13  1  0  0  0  0
 15 16  1  0  0  0  0
 15  2  1  0  0  0  0
 17 15  1  0  0  0  0
 18 15  1  0  0  0  0
M  END
>  <minimizedAffinity>
-5.29451799

>  <minimizedRMSD>
0.608152211

$$$$
