
 OpenBabel03252508353D

 28 30  0  0  0  0  0  0  0  0999 V2000
   45.8550   33.6700   40.1160 C   0  0  0  0  0  0  0  0  0  0  0  0
   44.7170   33.8640   40.8560 C   0  0  0  0  0  0  0  0  0  0  0  0
   43.5210   33.6620   40.2310 C   0  0  0  0  0  0  0  0  0  0  0  0
   43.4130   33.2770   38.9030 C   0  0  0  0  0  0  0  0  0  0  0  0
   44.5860   33.0890   38.1870 C   0  0  0  0  0  0  0  0  0  0  0  0
   45.8000   33.2870   38.7980 C   0  0  0  0  0  0  0  0  0  0  0  0
   42.6260   33.8200   40.8280 H   0  0  0  0  0  0  0  0  0  0  0  0
   42.4230   33.1440   38.5040 H   0  0  0  0  0  0  0  0  0  0  0  0
   44.4940   32.7860   37.1450 H   0  0  0  0  0  0  0  0  0  0  0  0
   44.9580   35.9750   43.9730 C   0  0  0  0  0  0  0  0  0  0  0  0
   44.8040   35.6090   42.6320 C   0  0  0  0  0  0  0  0  0  0  0  0
   44.8750   34.2680   42.2420 C   0  0  0  0  0  0  0  0  0  0  0  0
   45.1010   33.3750   43.2470 N   0  0  0  0  0  0  0  0  0  0  0  0
   45.2470   33.7460   44.5250 C   0  0  0  0  0  0  0  0  0  0  0  0
   45.1750   35.0350   44.8840 N   0  0  0  0  0  0  0  0  0  0  0  0
   44.8770   37.3480   44.3130 N   0  0  0  0  0  0  0  0  0  0  0  0
   44.6250   36.3790   41.8920 H   0  0  0  0  0  0  0  0  0  0  0  0
   45.4210   32.9350   45.2170 H   0  0  0  0  0  0  0  0  0  0  0  0
   44.4900   37.6390   45.2460 H   0  0  0  0  0  0  0  0  0  0  0  0
   45.1740   38.1540   43.7100 H   0  0  0  0  0  0  0  0  0  0  0  0
   46.9460   33.0720   37.9850 N   0  0  0  0  0  0  0  0  0  0  0  0
   47.7630   34.0380   37.2990 C   0  0  0  0  0  2  0  0  0  0  0  0
   49.0040   33.2200   36.9210 C   0  0  0  0  0  2  0  0  0  0  0  0
   48.3290   31.9050   36.5440 C   0  0  0  0  0  2  0  0  0  0  0  0
   47.4310   31.7290   37.7620 C   0  0  0  0  0  3  0  0  0  0  0  0
   48.1410   31.4440   38.5930 H   0  0  0  0  0  0  0  0  0  0  0  0
   48.2190   34.0390   41.1870 N   0  0  0  0  0  0  0  0  0  0  0  0
   47.1560   33.8630   40.7040 C   0  0  0  0  0  0  0  0  0  0  0  0
  1 28  1  0  0  0  0
  1  2  1  0  0  0  0
  2 12  1  0  0  0  0
  3  7  1  0  0  0  0
  3  2  2  0  0  0  0
  4  3  1  0  0  0  0
  5  6  1  0  0  0  0
  5  4  2  0  0  0  0
  6  1  2  0  0  0  0
  8  4  1  0  0  0  0
  9  5  1  0  0  0  0
 10 16  1  0  0  0  0
 10 15  1  0  0  0  0
 11 10  2  0  0  0  0
 12 11  1  0  0  0  0
 12 13  2  0  0  0  0
 13 14  1  0  0  0  0
 14 15  2  0  0  0  0
 14 18  1  0  0  0  0
 16 19  1  0  0  0  0
 17 11  1  0  0  0  0
 20 16  1  0  0  0  0
 21  6  1  0  0  0  0
 22 21  1  0  0  0  0
 23 22  1  0  0  0  0
 24 23  1  0  0  0  0
 24 25  1  0  0  0  0
 25 21  1  0  0  0  0
 25 26  1  0  0  0  0
 28 27  3  0  0  0  0
M  END
>  <minimizedAffinity>
-4.55397272

>  <minimizedRMSD>
2.80736756

$$$$
