
 OpenBabel03242512103D

 38 41  0  0  1  0  0  0  0  0999 V2000
   50.0610   33.9750   42.0760 O   0  0  0  0  0  0  0  0  0  0  0  0
   47.8210   34.4840   41.1870 C   0  0  1  0  0  0  0  0  0  0  0  0
   48.5850   35.7860   41.6570 C   0  0  0  0  0  0  0  0  0  0  0  0
   48.8050   34.5100   42.2960 C   0  0  2  0  0  0  0  0  0  0  0  0
   48.1470   34.1060   40.2230 H   0  0  0  0  0  0  0  0  0  0  0  0
   49.2210   36.2190   40.8780 H   0  0  0  0  0  0  0  0  0  0  0  0
   47.9720   36.5490   42.1740 H   0  0  0  0  0  0  0  0  0  0  0  0
   48.3440   34.2030   43.2540 H   0  0  0  0  0  0  0  0  0  0  0  0
   46.3620   34.5670   41.4910 C   0  0  0  0  0  0  0  0  0  0  0  0
   45.5820   34.3750   40.5670 O   0  0  0  0  0  0  0  0  0  0  0  0
   45.2520   36.0240   43.1250 C   0  0  0  0  0  0  0  0  0  0  0  0
   45.8110   34.8510   42.7680 C   0  0  0  0  0  0  0  0  0  0  0  0
   45.8380   33.8260   43.7720 C   0  0  0  0  0  0  0  0  0  0  0  0
   45.3250   34.0450   45.0050 N   0  0  0  0  0  0  0  0  0  0  0  0
   44.7740   35.2470   45.3080 C   0  0  0  0  0  0  0  0  0  0  0  0
   44.7430   36.1980   44.3920 N   0  0  0  0  0  0  0  0  0  0  0  0
   45.2450   36.7810   42.3460 H   0  0  0  0  0  0  0  0  0  0  0  0
   46.2360   32.8540   43.6410 H   0  0  0  0  0  0  0  0  0  0  0  0
   44.3330   35.5650   46.2300 H   0  0  0  0  0  0  0  0  0  0  0  0
   48.8850   32.0960   43.4020 O   0  0  0  0  0  0  0  0  0  0  0  0
   49.9650   32.3100   42.3490 P   0  0  2  0  0  0  0  0  0  0  0  0
   51.3880   31.5740   42.7560 O   0  0  0  0  0  0  0  0  0  0  0  0
   51.6130   31.7540   43.7000 H   0  0  0  0  0  0  0  0  0  0  0  0
   49.2810   31.6020   40.9160 O   0  0  0  0  0  0  0  0  0  0  0  0
   49.8690   31.6630   39.6720 C   0  0  0  0  0  0  0  0  0  0  0  0
   49.3210   32.0670   38.4630 C   0  0  0  0  0  0  0  0  0  0  0  0
   50.0930   32.0570   37.3140 C   0  0  0  0  0  0  0  0  0  0  0  0
   51.3800   31.6490   37.3960 N   0  0  0  0  0  0  0  0  0  0  0  0
   51.9220   31.2560   38.5630 C   0  0  0  0  0  0  0  0  0  0  0  0
   51.1730   31.2590   39.7150 N   0  0  0  0  0  0  0  0  0  0  0  0
   48.2900   32.3560   38.5850 H   0  0  0  0  0  0  0  0  0  0  0  0
   49.5730   32.3850   36.4380 H   0  0  0  0  0  0  0  0  0  0  0  0
   53.2840   30.8360   38.5890 N   0  0  0  0  0  0  0  0  0  0  0  0
   53.7850   29.8610   39.5200 C   0  0  0  0  0  0  0  0  0  0  0  0
   55.1950   29.5780   39.0750 C   0  0  0  0  0  0  0  0  0  0  0  0
   55.3400   30.1540   37.6950 C   0  0  0  0  0  0  0  0  0  0  0  0
   54.3510   31.3000   37.7220 C   0  0  0  0  0  0  0  0  0  0  0  0
   53.8910   31.4190   36.7010 H   0  0  0  0  0  0  0  0  0  0  0  0
  1  4  1  0  0  0  0
  1 21  1  0  0  0  0
  2  5  1  6  0  0  0
  2  9  1  0  0  0  0
  2  3  1  0  0  0  0
  2  4  1  0  0  0  0
  3  7  1  0  0  0  0
  3  4  1  0  0  0  0
  4  8  1  1  0  0  0
  6  3  1  0  0  0  0
  9 12  1  0  0  0  0
 10  9  2  0  0  0  0
 11 16  1  0  0  0  0
 12 11  2  0  0  0  0
 12 13  1  0  0  0  0
 13 14  2  0  0  0  0
 14 15  1  0  0  0  0
 15 19  1  0  0  0  0
 16 15  2  0  0  0  0
 17 11  1  0  0  0  0
 18 13  1  0  0  0  0
 21 22  1  0  0  0  0
 21 20  2  1  0  0  0
 22 23  1  0  0  0  0
 24 21  1  0  0  0  0
 25 30  1  0  0  0  0
 25 24  1  0  0  0  0
 26 31  1  0  0  0  0
 26 25  2  0  0  0  0
 27 28  2  0  0  0  0
 27 26  1  0  0  0  0
 28 29  1  0  0  0  0
 29 33  1  0  0  0  0
 29 30  2  0  0  0  0
 32 27  1  0  0  0  0
 33 34  1  0  0  0  0
 35 34  1  0  0  0  0
 36 37  1  0  0  0  0
 36 35  1  0  0  0  0
 37 33  1  0  0  0  0
 38 37  1  0  0  0  0
M  END
>  <minimizedAffinity>
-5.53264046

>  <minimizedRMSD>
1.06467068

$$$$
