
 OpenBabel03252507373D

 35 39  0  0  0  0  0  0  0  0999 V2000
   45.5650   34.7170   43.9280 C   0  0  0  0  0  0  0  0  0  0  0  0
   46.3140   33.6620   44.4840 C   0  0  0  0  0  0  0  0  0  0  0  0
   46.1400   33.3660   45.8190 C   0  0  0  0  0  0  0  0  0  0  0  0
   45.2720   34.0850   46.5280 N   0  0  0  0  0  0  0  0  0  0  0  0
   44.5500   35.1010   45.9890 C   0  0  0  0  0  0  0  0  0  0  0  0
   44.7020   35.4040   44.7040 N   0  0  0  0  0  0  0  0  0  0  0  0
   47.0150   33.0860   43.9060 H   0  0  0  0  0  0  0  0  0  0  0  0
   43.8560   35.6770   46.5640 H   0  0  0  0  0  0  0  0  0  0  0  0
   47.2630   32.5510   47.8290 C   0  0  0  0  0  0  0  0  0  0  0  0
   46.8670   32.2990   46.5080 C   0  0  0  0  0  0  0  0  0  0  0  0
   47.1840   31.0880   45.9650 C   0  0  0  0  0  0  0  0  0  0  0  0
   47.8690   30.1150   46.6520 C   0  0  0  0  0  0  0  0  0  0  0  0
   48.2810   28.8740   46.3210 N   0  0  0  0  0  0  0  0  0  0  0  0
   48.9320   28.3480   47.4320 C   0  0  0  0  0  0  0  0  0  0  0  0
   48.9010   29.2710   48.4020 N   0  0  0  0  0  0  0  0  0  0  0  0
   48.2590   30.3530   47.9450 C   0  0  0  0  0  0  0  0  0  0  0  0
   47.9510   31.5760   48.5290 C   0  0  0  0  0  0  0  0  0  0  0  0
   47.0240   33.5100   48.2820 H   0  0  0  0  0  0  0  0  0  0  0  0
   46.8670   30.9070   44.9270 H   0  0  0  0  0  0  0  0  0  0  0  0
   48.1410   28.3890   45.4030 H   0  0  0  0  0  0  0  0  0  0  0  0
   49.3650   27.3590   47.4520 H   0  0  0  0  0  0  0  0  0  0  0  0
   48.2440   31.7930   49.5490 H   0  0  0  0  0  0  0  0  0  0  0  0
   45.7340   35.0200   42.5820 O   0  0  0  0  0  0  0  0  0  0  0  0
   44.6990   34.8040   41.6770 C   0  0  0  0  0  0  0  0  0  0  0  0
   45.2940   33.8510   40.9070 C   0  0  0  0  0  0  0  0  0  0  0  0
   43.8870   33.5240   39.6450 S   0  0  0  0  0  0  0  0  0  0  0  0
   42.8060   34.8120   40.5140 C   0  0  0  0  0  0  0  0  0  0  0  0
   43.4680   35.1440   41.3200 N   0  0  0  0  0  0  0  0  0  0  0  0
   46.1620   33.1540   40.6130 H   0  0  0  0  0  0  0  0  0  0  0  0
   41.5560   34.8770   39.8300 N   0  0  0  0  0  0  0  0  0  0  0  0
   40.6360   35.8460   39.2990 C   0  0  0  0  0  2  0  0  0  0  0  0
   40.6820   35.4430   37.8130 C   0  0  0  0  0  2  0  0  0  0  0  0
   40.7560   33.9160   37.9240 C   0  0  0  0  0  2  0  0  0  0  0  0
   40.8200   33.6610   39.4350 C   0  0  0  0  0  3  0  0  0  0  0  0
   41.4240   32.7800   39.6420 H   0  0  0  0  0  0  0  0  0  0  0  0
  1  2  2  0  0  0  0
  1  6  1  0  0  0  0
  2  3  1  0  0  0  0
  3 10  1  0  0  0  0
  3  4  2  0  0  0  0
  5  4  1  0  0  0  0
  5  8  1  0  0  0  0
  6  5  2  0  0  0  0
  7  2  1  0  0  0  0
  9 18  1  0  0  0  0
  9 17  1  0  0  0  0
 10  9  2  0  0  0  0
 11 10  1  0  0  0  0
 11 12  2  0  0  0  0
 12 16  1  0  0  0  0
 13 12  1  0  0  0  0
 13 14  1  0  0  0  0
 14 21  1  0  0  0  0
 14 15  2  0  0  0  0
 16 15  1  0  0  0  0
 16 17  2  0  0  0  0
 17 22  1  0  0  0  0
 19 11  1  0  0  0  0
 20 13  1  0  0  0  0
 23  1  1  0  0  0  0
 24 23  1  0  0  0  0
 25 24  2  0  0  0  0
 26 27  1  0  0  0  0
 26 25  1  0  0  0  0
 27 28  2  0  0  0  0
 28 24  1  0  0  0  0
 29 25  1  0  0  0  0
 30 27  1  0  0  0  0
 31 30  1  0  0  0  0
 32 33  1  0  0  0  0
 32 31  1  0  0  0  0
 33 34  1  0  0  0  0
 34 35  1  0  0  0  0
 34 30  1  0  0  0  0
M  END
>  <minimizedAffinity>
-6.43324757

>  <minimizedRMSD>
0.447355181

$$$$
