
 OpenBabel03252507373D

 35 39  0  0  0  0  0  0  0  0999 V2000
   45.5320   34.8170   43.4810 C   0  0  0  0  0  0  0  0  0  0  0  0
   46.2140   33.7440   44.0860 C   0  0  0  0  0  0  0  0  0  0  0  0
   46.0220   33.5200   45.4330 C   0  0  0  0  0  0  0  0  0  0  0  0
   45.1990   34.3230   46.1060 N   0  0  0  0  0  0  0  0  0  0  0  0
   44.5420   35.3570   45.5190 C   0  0  0  0  0  0  0  0  0  0  0  0
   44.7130   35.5900   44.2220 N   0  0  0  0  0  0  0  0  0  0  0  0
   46.8780   33.0990   43.5380 H   0  0  0  0  0  0  0  0  0  0  0  0
   43.8850   36.0000   46.0650 H   0  0  0  0  0  0  0  0  0  0  0  0
   46.9950   32.6940   47.5150 C   0  0  0  0  0  0  0  0  0  0  0  0
   46.6810   32.4430   46.1720 C   0  0  0  0  0  0  0  0  0  0  0  0
   47.0080   31.2230   45.6550 C   0  0  0  0  0  0  0  0  0  0  0  0
   47.6270   30.2400   46.3900 C   0  0  0  0  0  0  0  0  0  0  0  0
   48.0350   28.9890   46.0900 N   0  0  0  0  0  0  0  0  0  0  0  0
   48.6010   28.4560   47.2440 C   0  0  0  0  0  0  0  0  0  0  0  0
   48.5260   29.3840   48.2060 N   0  0  0  0  0  0  0  0  0  0  0  0
   47.9370   30.4770   47.7040 C   0  0  0  0  0  0  0  0  0  0  0  0
   47.6170   31.7090   48.2620 C   0  0  0  0  0  0  0  0  0  0  0  0
   46.7460   33.6590   47.9480 H   0  0  0  0  0  0  0  0  0  0  0  0
   46.7550   31.0420   44.5990 H   0  0  0  0  0  0  0  0  0  0  0  0
   47.9450   28.5020   45.1670 H   0  0  0  0  0  0  0  0  0  0  0  0
   49.0130   27.4590   47.2960 H   0  0  0  0  0  0  0  0  0  0  0  0
   47.8460   31.9250   49.2980 H   0  0  0  0  0  0  0  0  0  0  0  0
   45.7200   35.0470   42.1230 O   0  0  0  0  0  0  0  0  0  0  0  0
   44.6780   34.8400   41.2230 C   0  0  0  0  0  0  0  0  0  0  0  0
   45.2360   33.8380   40.4890 C   0  0  0  0  0  0  0  0  0  0  0  0
   43.8190   33.5220   39.2360 S   0  0  0  0  0  0  0  0  0  0  0  0
   42.7880   34.8820   40.0560 C   0  0  0  0  0  0  0  0  0  0  0  0
   43.4620   35.2150   40.8520 N   0  0  0  0  0  0  0  0  0  0  0  0
   46.0770   33.0980   40.2220 H   0  0  0  0  0  0  0  0  0  0  0  0
   41.5420   34.9700   39.3670 N   0  0  0  0  0  0  0  0  0  0  0  0
   40.8280   34.3410   38.2900 C   0  0  0  0  0  2  0  0  0  0  0  0
   39.6110   33.8130   39.0730 C   0  0  0  0  0  2  0  0  0  0  0  0
   39.3680   34.9680   40.0510 C   0  0  0  0  0  2  0  0  0  0  0  0
   40.5080   35.9490   39.7520 C   0  0  0  0  0  3  0  0  0  0  0  0
   40.8070   36.4650   40.6610 H   0  0  0  0  0  0  0  0  0  0  0  0
  1  2  2  0  0  0  0
  1  6  1  0  0  0  0
  2  3  1  0  0  0  0
  3  4  2  0  0  0  0
  3 10  1  0  0  0  0
  5  8  1  0  0  0  0
  5  4  1  0  0  0  0
  6  5  2  0  0  0  0
  7  2  1  0  0  0  0
  9 18  1  0  0  0  0
  9 17  1  0  0  0  0
 10  9  2  0  0  0  0
 11 10  1  0  0  0  0
 11 12  2  0  0  0  0
 12 16  1  0  0  0  0
 13 12  1  0  0  0  0
 13 14  1  0  0  0  0
 14 21  1  0  0  0  0
 14 15  2  0  0  0  0
 16 15  1  0  0  0  0
 16 17  2  0  0  0  0
 17 22  1  0  0  0  0
 19 11  1  0  0  0  0
 20 13  1  0  0  0  0
 23  1  1  0  0  0  0
 24 23  1  0  0  0  0
 25 24  2  0  0  0  0
 26 27  1  0  0  0  0
 26 25  1  0  0  0  0
 27 28  2  0  0  0  0
 28 24  1  0  0  0  0
 29 25  1  0  0  0  0
 30 34  1  0  0  0  0
 30 27  1  0  0  0  0
 31 32  1  0  0  0  0
 31 30  1  0  0  0  0
 32 33  1  0  0  0  0
 34 33  1  0  0  0  0
 34 35  1  0  0  0  0
M  END
>  <minimizedAffinity>
-6.79752207

>  <minimizedRMSD>
0.218294024

$$$$
