
 OpenBabel03252507373D

 35 39  0  0  0  0  0  0  0  0999 V2000
   45.5540   34.7430   43.8220 C   0  0  0  0  0  0  0  0  0  0  0  0
   46.2930   33.6900   44.3950 C   0  0  0  0  0  0  0  0  0  0  0  0
   46.1100   33.4110   45.7320 C   0  0  0  0  0  0  0  0  0  0  0  0
   45.2430   34.1450   46.4280 N   0  0  0  0  0  0  0  0  0  0  0  0
   44.5320   35.1600   45.8720 C   0  0  0  0  0  0  0  0  0  0  0  0
   44.6930   35.4460   44.5850 N   0  0  0  0  0  0  0  0  0  0  0  0
   46.9930   33.1010   43.8280 H   0  0  0  0  0  0  0  0  0  0  0  0
   43.8390   35.7480   46.4370 H   0  0  0  0  0  0  0  0  0  0  0  0
   47.1910   32.6020   47.7670 C   0  0  0  0  0  0  0  0  0  0  0  0
   46.8260   32.3470   46.4380 C   0  0  0  0  0  0  0  0  0  0  0  0
   47.1590   31.1370   45.9030 C   0  0  0  0  0  0  0  0  0  0  0  0
   47.8320   30.1680   46.6060 C   0  0  0  0  0  0  0  0  0  0  0  0
   48.2560   28.9270   46.2850 N   0  0  0  0  0  0  0  0  0  0  0  0
   48.8840   28.4050   47.4110 C   0  0  0  0  0  0  0  0  0  0  0  0
   48.8280   29.3280   48.3790 N   0  0  0  0  0  0  0  0  0  0  0  0
   48.1920   30.4070   47.9070 C   0  0  0  0  0  0  0  0  0  0  0  0
   47.8670   31.6300   48.4830 C   0  0  0  0  0  0  0  0  0  0  0  0
   46.9390   33.5600   48.2140 H   0  0  0  0  0  0  0  0  0  0  0  0
   46.8660   30.9540   44.8580 H   0  0  0  0  0  0  0  0  0  0  0  0
   48.1380   28.4410   45.3640 H   0  0  0  0  0  0  0  0  0  0  0  0
   49.3210   27.4180   47.4420 H   0  0  0  0  0  0  0  0  0  0  0  0
   48.1360   31.8480   49.5090 H   0  0  0  0  0  0  0  0  0  0  0  0
   45.7340   35.0290   42.4740 O   0  0  0  0  0  0  0  0  0  0  0  0
   44.7920   34.6130   41.5360 C   0  0  0  0  0  0  0  0  0  0  0  0
   45.6120   33.8870   40.7270 C   0  0  0  0  0  0  0  0  0  0  0  0
   44.3420   33.2930   39.4190 S   0  0  0  0  0  0  0  0  0  0  0  0
   42.9650   34.2160   40.3350 C   0  0  0  0  0  0  0  0  0  0  0  0
   43.5180   34.6550   41.1720 N   0  0  0  0  0  0  0  0  0  0  0  0
   46.6300   33.4490   40.4140 H   0  0  0  0  0  0  0  0  0  0  0  0
   41.7440   34.0050   39.6300 N   0  0  0  0  0  0  0  0  0  0  0  0
   40.4220   33.4790   39.8430 C   0  0  0  0  0  2  0  0  0  0  0  0
   39.6010   34.7520   39.5650 C   0  0  0  0  0  2  0  0  0  0  0  0
   40.3870   35.3580   38.3980 C   0  0  0  0  0  2  0  0  0  0  0  0
   41.5760   34.4070   38.2220 C   0  0  0  0  0  3  0  0  0  0  0  0
   42.4530   34.9600   37.8880 H   0  0  0  0  0  0  0  0  0  0  0  0
  1  2  2  0  0  0  0
  1  6  1  0  0  0  0
  2  3  1  0  0  0  0
  3  4  2  0  0  0  0
  3 10  1  0  0  0  0
  5  4  1  0  0  0  0
  5  8  1  0  0  0  0
  6  5  2  0  0  0  0
  7  2  1  0  0  0  0
  9 18  1  0  0  0  0
  9 17  1  0  0  0  0
 10  9  2  0  0  0  0
 11 10  1  0  0  0  0
 11 12  2  0  0  0  0
 12 16  1  0  0  0  0
 13 12  1  0  0  0  0
 13 14  1  0  0  0  0
 14 21  1  0  0  0  0
 14 15  2  0  0  0  0
 16 15  1  0  0  0  0
 16 17  2  0  0  0  0
 17 22  1  0  0  0  0
 19 11  1  0  0  0  0
 20 13  1  0  0  0  0
 23  1  1  0  0  0  0
 24 23  1  0  0  0  0
 25 24  2  0  0  0  0
 26 27  1  0  0  0  0
 26 25  1  0  0  0  0
 27 28  2  0  0  0  0
 28 24  1  0  0  0  0
 29 25  1  0  0  0  0
 30 31  1  0  0  0  0
 30 27  1  0  0  0  0
 32 31  1  0  0  0  0
 33 32  1  0  0  0  0
 34 33  1  0  0  0  0
 34 30  1  0  0  0  0
 35 34  1  0  0  0  0
M  END
>  <minimizedAffinity>
-6.37921238

>  <minimizedRMSD>
0.815409601

$$$$
