
 OpenBabel03252507373D

 35 39  0  0  0  0  0  0  0  0999 V2000
   45.5240   34.6900   43.7280 C   0  0  0  0  0  0  0  0  0  0  0  0
   46.2590   33.6390   44.3120 C   0  0  0  0  0  0  0  0  0  0  0  0
   46.1010   33.3970   45.6590 C   0  0  0  0  0  0  0  0  0  0  0  0
   45.2610   34.1610   46.3550 N   0  0  0  0  0  0  0  0  0  0  0  0
   44.5540   35.1730   45.7890 C   0  0  0  0  0  0  0  0  0  0  0  0
   44.6910   35.4250   44.4920 N   0  0  0  0  0  0  0  0  0  0  0  0
   46.9370   33.0260   43.7450 H   0  0  0  0  0  0  0  0  0  0  0  0
   43.8820   35.7860   46.3540 H   0  0  0  0  0  0  0  0  0  0  0  0
   47.1680   32.6020   47.7070 C   0  0  0  0  0  0  0  0  0  0  0  0
   46.8160   32.3390   46.3760 C   0  0  0  0  0  0  0  0  0  0  0  0
   47.1590   31.1290   45.8490 C   0  0  0  0  0  0  0  0  0  0  0  0
   47.8300   30.1650   46.5620 C   0  0  0  0  0  0  0  0  0  0  0  0
   48.2640   28.9260   46.2500 N   0  0  0  0  0  0  0  0  0  0  0  0
   48.8840   28.4110   47.3840 C   0  0  0  0  0  0  0  0  0  0  0  0
   48.8150   29.3380   48.3470 N   0  0  0  0  0  0  0  0  0  0  0  0
   48.1790   30.4120   47.8650 C   0  0  0  0  0  0  0  0  0  0  0  0
   47.8430   31.6360   48.4330 C   0  0  0  0  0  0  0  0  0  0  0  0
   46.9080   33.5600   48.1480 H   0  0  0  0  0  0  0  0  0  0  0  0
   46.8760   30.9390   44.8020 H   0  0  0  0  0  0  0  0  0  0  0  0
   48.1560   28.4350   45.3310 H   0  0  0  0  0  0  0  0  0  0  0  0
   49.3250   27.4260   47.4230 H   0  0  0  0  0  0  0  0  0  0  0  0
   48.1020   31.8600   49.4600 H   0  0  0  0  0  0  0  0  0  0  0  0
   45.6780   34.9390   42.3700 O   0  0  0  0  0  0  0  0  0  0  0  0
   44.6020   34.7810   41.5000 C   0  0  0  0  0  0  0  0  0  0  0  0
   45.1630   33.8890   40.6380 C   0  0  0  0  0  0  0  0  0  0  0  0
   43.7010   33.6450   39.4220 S   0  0  0  0  0  0  0  0  0  0  0  0
   42.6570   34.8620   40.4290 C   0  0  0  0  0  0  0  0  0  0  0  0
   43.3560   35.1400   41.2250 N   0  0  0  0  0  0  0  0  0  0  0  0
   46.0190   33.2200   40.2560 H   0  0  0  0  0  0  0  0  0  0  0  0
   41.3770   34.9670   39.8100 N   0  0  0  0  0  0  0  0  0  0  0  0
   40.6260   35.8610   38.9700 C   0  0  0  0  0  2  0  0  0  0  0  0
   40.4080   34.9370   37.7570 C   0  0  0  0  0  2  0  0  0  0  0  0
   40.1700   33.5910   38.4510 C   0  0  0  0  0  2  0  0  0  0  0  0
   40.3590   33.9080   39.9390 C   0  0  0  0  0  3  0  0  0  0  0  0
   40.7830   33.0490   40.4550 H   0  0  0  0  0  0  0  0  0  0  0  0
  1  2  2  0  0  0  0
  1  6  1  0  0  0  0
  2  3  1  0  0  0  0
  3  4  2  0  0  0  0
  3 10  1  0  0  0  0
  5  8  1  0  0  0  0
  5  4  1  0  0  0  0
  6  5  2  0  0  0  0
  7  2  1  0  0  0  0
  9 18  1  0  0  0  0
  9 17  1  0  0  0  0
 10  9  2  0  0  0  0
 11 10  1  0  0  0  0
 11 12  2  0  0  0  0
 12 16  1  0  0  0  0
 13 12  1  0  0  0  0
 13 14  1  0  0  0  0
 14 21  1  0  0  0  0
 14 15  2  0  0  0  0
 16 15  1  0  0  0  0
 16 17  2  0  0  0  0
 17 22  1  0  0  0  0
 19 11  1  0  0  0  0
 20 13  1  0  0  0  0
 23  1  1  0  0  0  0
 24 23  1  0  0  0  0
 25 24  2  0  0  0  0
 26 27  1  0  0  0  0
 26 25  1  0  0  0  0
 27 28  2  0  0  0  0
 28 24  1  0  0  0  0
 29 25  1  0  0  0  0
 30 34  1  0  0  0  0
 30 27  1  0  0  0  0
 31 30  1  0  0  0  0
 32 33  1  0  0  0  0
 32 31  1  0  0  0  0
 33 34  1  0  0  0  0
 34 35  1  0  0  0  0
M  END
>  <minimizedAffinity>
-6.51227093

>  <minimizedRMSD>
0.320099175

$$$$
