
 OpenBabel03252501093D

 37 40  0  0  1  0  0  0  0  0999 V2000
   35.9450   28.4440   41.3470 O   0  0  0  0  0  0  0  0  0  0  0  0
   36.7440   29.7430   41.2370 P   0  0  2  0  0  0  0  0  0  0  0  0
   35.6030   30.9860   41.3940 O   0  0  0  0  0  0  0  0  0  0  0  0
   35.8500   31.6420   42.1130 H   0  0  0  0  0  0  0  0  0  0  0  0
   37.6470   29.8050   39.8750 O   0  0  0  0  0  0  0  0  0  0  0  0
   37.2490   31.4390   38.1380 C   0  0  1  0  0  0  0  0  0  0  0  0
   37.8780   30.3130   37.4360 C   0  0  0  0  0  0  0  0  0  0  0  0
   37.0430   30.1110   38.7120 C   0  0  1  0  0  0  0  0  0  0  0  0
   36.4180   31.9800   37.6320 H   0  0  0  0  0  0  0  0  0  0  0  0
   38.9580   30.0500   37.6280 H   0  0  0  0  0  0  0  0  0  0  0  0
   37.5330   29.9190   36.4830 H   0  0  0  0  0  0  0  0  0  0  0  0
   36.1390   29.5160   38.4780 H   0  0  0  0  0  0  0  0  0  0  0  0
   38.6000   34.1420   40.4220 C   0  0  0  0  0  0  0  0  0  0  0  0
   37.7010   33.3050   39.7670 C   0  0  0  0  0  0  0  0  0  0  0  0
   38.2010   32.3420   38.8680 C   0  0  0  0  0  0  0  0  0  0  0  0
   39.5420   32.2570   38.6640 N   0  0  0  0  0  0  0  0  0  0  0  0
   40.3970   33.0870   39.3160 C   0  0  0  0  0  0  0  0  0  0  0  0
   39.9300   34.0240   40.1910 N   0  0  0  0  0  0  0  0  0  0  0  0
   38.1990   34.8700   41.1060 H   0  0  0  0  0  0  0  0  0  0  0  0
   36.6630   33.4110   39.9620 H   0  0  0  0  0  0  0  0  0  0  0  0
   41.4510   32.9490   39.0930 H   0  0  0  0  0  0  0  0  0  0  0  0
   37.7090   29.7690   42.6100 O   0  0  0  0  0  0  0  0  0  0  0  0
   38.6110   28.7710   42.9440 C   0  0  0  0  0  0  0  0  0  0  0  0
   38.3580   27.4810   43.3900 C   0  0  0  0  0  0  0  0  0  0  0  0
   39.3630   26.6160   43.6770 C   0  0  0  0  0  0  0  0  0  0  0  0
   40.6670   27.0070   43.5300 C   0  0  0  0  0  0  0  0  0  0  0  0
   40.8990   28.3070   43.0810 C   0  0  0  0  0  0  0  0  0  0  0  0
   39.8920   29.1630   42.7970 N   0  0  0  0  0  0  0  0  0  0  0  0
   37.3000   27.2650   43.4750 H   0  0  0  0  0  0  0  0  0  0  0  0
   39.0650   25.6340   44.0180 H   0  0  0  0  0  0  0  0  0  0  0  0
   41.4330   26.2860   43.7710 H   0  0  0  0  0  0  0  0  0  0  0  0
   42.2490   28.7320   42.9220 N   0  0  0  0  0  0  0  0  0  0  0  0
   43.3790   28.2740   43.6710 C   0  0  0  0  0  2  0  0  0  0  0  0
   44.5800   28.4440   42.7450 C   0  0  0  0  0  2  0  0  0  0  0  0
   43.9930   28.9420   41.4410 C   0  0  0  0  0  2  0  0  0  0  0  0
   42.7770   29.7020   41.9880 C   0  0  0  0  0  3  0  0  0  0  0  0
   42.0940   29.9960   41.1960 H   0  0  0  0  0  0  0  0  0  0  0  0
  2  1  2  6  0  0  0
  2  3  1  0  0  0  0
  2 22  1  0  0  0  0
  3  4  1  0  0  0  0
  5  2  1  0  0  0  0
  6  9  1  6  0  0  0
  6  8  1  0  0  0  0
  6 15  1  0  0  0  0
  7 10  1  0  0  0  0
  7  6  1  0  0  0  0
  7  8  1  0  0  0  0
  8 12  1  6  0  0  0
  8  5  1  0  0  0  0
 11  7  1  0  0  0  0
 13 19  1  0  0  0  0
 14 20  1  0  0  0  0
 14 13  2  0  0  0  0
 15 14  1  0  0  0  0
 16 15  2  0  0  0  0
 16 17  1  0  0  0  0
 17 18  2  0  0  0  0
 18 13  1  0  0  0  0
 21 17  1  0  0  0  0
 22 23  1  0  0  0  0
 23 24  1  0  0  0  0
 24 29  1  0  0  0  0
 24 25  2  0  0  0  0
 25 30  1  0  0  0  0
 26 25  1  0  0  0  0
 26 31  1  0  0  0  0
 27 26  2  0  0  0  0
 28 23  2  0  0  0  0
 28 27  1  0  0  0  0
 32 27  1  0  0  0  0
 32 33  1  0  0  0  0
 34 33  1  0  0  0  0
 35 36  1  0  0  0  0
 35 34  1  0  0  0  0
 36 32  1  0  0  0  0
 37 36  1  0  0  0  0
M  END
>  <minimizedAffinity>
-6.06635904

$$$$

 OpenBabel03252501093D

 37 40  0  0  1  0  0  0  0  0999 V2000
   34.9990   28.8210   40.3670 O   0  0  0  0  0  0  0  0  0  0  0  0
   36.2280   29.5540   40.9070 P   0  0  2  0  0  0  0  0  0  0  0  0
   35.6780   31.1020   41.3240 O   0  0  0  0  0  0  0  0  0  0  0  0
   35.9070   31.3450   42.2720 H   0  0  0  0  0  0  0  0  0  0  0  0
   37.4800   29.5280   39.8550 O   0  0  0  0  0  0  0  0  0  0  0  0
   37.4260   30.7880   37.7920 C   0  0  1  0  0  0  0  0  0  0  0  0
   38.3620   29.6910   37.5200 C   0  0  0  0  0  0  0  0  0  0  0  0
   37.2160   29.5480   38.5350 C   0  0  1  0  0  0  0  0  0  0  0  0
   36.7250   31.0990   36.9860 H   0  0  0  0  0  0  0  0  0  0  0  0
   39.3600   29.6450   38.0450 H   0  0  0  0  0  0  0  0  0  0  0  0
   38.3640   29.1040   36.6040 H   0  0  0  0  0  0  0  0  0  0  0  0
   36.4990   28.7810   38.1840 H   0  0  0  0  0  0  0  0  0  0  0  0
   39.9200   33.1550   39.3810 C   0  0  0  0  0  0  0  0  0  0  0  0
   39.4040   32.0910   38.6490 C   0  0  0  0  0  0  0  0  0  0  0  0
   38.0060   31.9390   38.5640 C   0  0  0  0  0  0  0  0  0  0  0  0
   37.2010   32.8320   39.1980 N   0  0  0  0  0  0  0  0  0  0  0  0
   37.7320   33.8630   39.9060 C   0  0  0  0  0  0  0  0  0  0  0  0
   39.0830   34.0250   39.9980 N   0  0  0  0  0  0  0  0  0  0  0  0
   40.9910   33.2550   39.4340 H   0  0  0  0  0  0  0  0  0  0  0  0
   40.0750   31.4200   38.1710 H   0  0  0  0  0  0  0  0  0  0  0  0
   37.0160   34.5280   40.3800 H   0  0  0  0  0  0  0  0  0  0  0  0
   36.6120   28.7540   42.3310 O   0  0  0  0  0  0  0  0  0  0  0  0
   37.6120   27.8000   42.4410 C   0  0  0  0  0  0  0  0  0  0  0  0
   38.6750   27.7510   43.3310 C   0  0  0  0  0  0  0  0  0  0  0  0
   39.5780   26.7380   43.3090 C   0  0  0  0  0  0  0  0  0  0  0  0
   39.4530   25.7300   42.3910 C   0  0  0  0  0  0  0  0  0  0  0  0
   38.3780   25.7990   41.5060 C   0  0  0  0  0  0  0  0  0  0  0  0
   37.4830   26.8110   41.5350 N   0  0  0  0  0  0  0  0  0  0  0  0
   38.6900   28.5900   44.0160 H   0  0  0  0  0  0  0  0  0  0  0  0
   40.3710   26.7890   44.0420 H   0  0  0  0  0  0  0  0  0  0  0  0
   40.1940   24.9450   42.4100 H   0  0  0  0  0  0  0  0  0  0  0  0
   38.2330   24.7580   40.5430 N   0  0  0  0  0  0  0  0  0  0  0  0
   39.2850   23.9850   39.9610 C   0  0  0  0  0  2  0  0  0  0  0  0
   38.6540   22.6470   39.5900 C   0  0  0  0  0  2  0  0  0  0  0  0
   37.2280   22.7420   40.0910 C   0  0  0  0  0  2  0  0  0  0  0  0
   37.0140   24.2560   39.9480 C   0  0  0  0  0  3  0  0  0  0  0  0
   36.0970   24.5820   40.4320 H   0  0  0  0  0  0  0  0  0  0  0  0
  2  1  2  6  0  0  0
  2  3  1  0  0  0  0
  2 22  1  0  0  0  0
  3  4  1  0  0  0  0
  5  2  1  0  0  0  0
  6  9  1  6  0  0  0
  6  8  1  0  0  0  0
  6 15  1  0  0  0  0
  7  6  1  0  0  0  0
  7 10  1  0  0  0  0
  7  8  1  0  0  0  0
  8 12  1  6  0  0  0
  8  5  1  0  0  0  0
 11  7  1  0  0  0  0
 13 19  1  0  0  0  0
 13 18  1  0  0  0  0
 14 13  2  0  0  0  0
 15 14  1  0  0  0  0
 15 16  2  0  0  0  0
 16 17  1  0  0  0  0
 17 18  2  0  0  0  0
 17 21  1  0  0  0  0
 20 14  1  0  0  0  0
 22 23  1  0  0  0  0
 23 24  1  0  0  0  0
 24 29  1  0  0  0  0
 25 24  2  0  0  0  0
 25 30  1  0  0  0  0
 26 31  1  0  0  0  0
 26 25  1  0  0  0  0
 27 28  1  0  0  0  0
 27 26  2  0  0  0  0
 28 23  2  0  0  0  0
 32 27  1  0  0  0  0
 33 32  1  0  0  0  0
 34 33  1  0  0  0  0
 34 35  1  0  0  0  0
 36 35  1  0  0  0  0
 36 37  1  0  0  0  0
 36 32  1  0  0  0  0
M  END
>  <minimizedAffinity>
-5.96443844

$$$$

 OpenBabel03252501093D

 37 40  0  0  1  0  0  0  0  0999 V2000
   35.7350   28.5270   41.1120 O   0  0  0  0  0  0  0  0  0  0  0  0
   36.6300   29.7660   41.1380 P   0  0  2  0  0  0  0  0  0  0  0  0
   35.5830   31.0690   41.4150 O   0  0  0  0  0  0  0  0  0  0  0  0
   35.8690   31.6290   42.1980 H   0  0  0  0  0  0  0  0  0  0  0  0
   37.5520   29.8970   39.7940 O   0  0  0  0  0  0  0  0  0  0  0  0
   37.3210   31.7060   38.2070 C   0  0  1  0  0  0  0  0  0  0  0  0
   37.8420   30.5900   37.4080 C   0  0  0  0  0  0  0  0  0  0  0  0
   36.9850   30.3600   38.6640 C   0  0  1  0  0  0  0  0  0  0  0  0
   36.5480   32.3670   37.7540 H   0  0  0  0  0  0  0  0  0  0  0  0
   38.8910   30.2090   37.5720 H   0  0  0  0  0  0  0  0  0  0  0  0
   37.4650   30.3160   36.4250 H   0  0  0  0  0  0  0  0  0  0  0  0
   36.0290   29.8770   38.3820 H   0  0  0  0  0  0  0  0  0  0  0  0
   38.9150   34.0670   40.7040 C   0  0  0  0  0  0  0  0  0  0  0  0
   37.9430   33.3810   39.9820 C   0  0  0  0  0  0  0  0  0  0  0  0
   38.3520   32.4470   39.0100 C   0  0  0  0  0  0  0  0  0  0  0  0
   39.6790   32.2410   38.8030 N   0  0  0  0  0  0  0  0  0  0  0  0
   40.6070   32.9250   39.5220 C   0  0  0  0  0  0  0  0  0  0  0  0
   40.2290   33.8320   40.4670 N   0  0  0  0  0  0  0  0  0  0  0  0
   38.5830   34.7760   41.4420 H   0  0  0  0  0  0  0  0  0  0  0  0
   36.9180   33.5770   40.1810 H   0  0  0  0  0  0  0  0  0  0  0  0
   41.6440   32.6970   39.2910 H   0  0  0  0  0  0  0  0  0  0  0  0
   37.5770   29.5810   42.5110 O   0  0  0  0  0  0  0  0  0  0  0  0
   38.9540   29.7410   42.5320 C   0  0  0  0  0  0  0  0  0  0  0  0
   39.6940   30.9090   42.6550 C   0  0  0  0  0  0  0  0  0  0  0  0
   41.0510   30.8960   42.6570 C   0  0  0  0  0  0  0  0  0  0  0  0
   41.7260   29.7110   42.5370 C   0  0  0  0  0  0  0  0  0  0  0  0
   40.9630   28.5490   42.4150 C   0  0  0  0  0  0  0  0  0  0  0  0
   39.6120   28.5700   42.4120 N   0  0  0  0  0  0  0  0  0  0  0  0
   39.0740   31.7920   42.7430 H   0  0  0  0  0  0  0  0  0  0  0  0
   41.5370   31.8560   42.7580 H   0  0  0  0  0  0  0  0  0  0  0  0
   42.8040   29.7490   42.5440 H   0  0  0  0  0  0  0  0  0  0  0  0
   41.6480   27.3070   42.2870 N   0  0  0  0  0  0  0  0  0  0  0  0
   42.9340   27.1000   41.6970 C   0  0  0  0  0  2  0  0  0  0  0  0
   43.5070   25.8640   42.3840 C   0  0  0  0  0  2  0  0  0  0  0  0
   42.4720   25.4890   43.4250 C   0  0  0  0  0  2  0  0  0  0  0  0
   41.2090   25.9970   42.7160 C   0  0  0  0  0  3  0  0  0  0  0  0
   40.3460   25.9940   43.3770 H   0  0  0  0  0  0  0  0  0  0  0  0
  2  1  2  6  0  0  0
  2  3  1  0  0  0  0
  2 22  1  0  0  0  0
  3  4  1  0  0  0  0
  5  2  1  0  0  0  0
  6  9  1  6  0  0  0
  6  8  1  0  0  0  0
  6 15  1  0  0  0  0
  7 10  1  0  0  0  0
  7  6  1  0  0  0  0
  7  8  1  0  0  0  0
  8 12  1  6  0  0  0
  8  5  1  0  0  0  0
 11  7  1  0  0  0  0
 13 19  1  0  0  0  0
 14 20  1  0  0  0  0
 14 13  2  0  0  0  0
 15 14  1  0  0  0  0
 16 15  2  0  0  0  0
 16 17  1  0  0  0  0
 17 18  2  0  0  0  0
 18 13  1  0  0  0  0
 21 17  1  0  0  0  0
 22 23  1  0  0  0  0
 23 24  1  0  0  0  0
 24 25  2  0  0  0  0
 24 29  1  0  0  0  0
 25 30  1  0  0  0  0
 26 31  1  0  0  0  0
 26 25  1  0  0  0  0
 27 26  2  0  0  0  0
 28 27  1  0  0  0  0
 28 23  2  0  0  0  0
 32 27  1  0  0  0  0
 32 36  1  0  0  0  0
 33 32  1  0  0  0  0
 33 34  1  0  0  0  0
 34 35  1  0  0  0  0
 36 37  1  0  0  0  0
 36 35  1  0  0  0  0
M  END
>  <minimizedAffinity>
-5.92631197

$$$$

 OpenBabel03252501093D

 37 40  0  0  1  0  0  0  0  0999 V2000
   36.4450   30.0810   39.1470 O   0  0  0  0  0  0  0  0  0  0  0  0
   37.0090   30.8630   40.3330 P   0  0  2  0  0  0  0  0  0  0  0  0
   35.6870   31.1400   41.3560 O   0  0  0  0  0  0  0  0  0  0  0  0
   35.8610   30.8310   42.2960 H   0  0  0  0  0  0  0  0  0  0  0  0
   37.8130   32.2090   39.8660 O   0  0  0  0  0  0  0  0  0  0  0  0
   39.9950   32.8910   40.6530 C   0  0  1  0  0  0  0  0  0  0  0  0
   39.2980   34.1550   40.3820 C   0  0  0  0  0  0  0  0  0  0  0  0
   38.5390   32.8780   40.7810 C   0  0  1  0  0  0  0  0  0  0  0  0
   40.6500   32.8290   41.5510 H   0  0  0  0  0  0  0  0  0  0  0  0
   39.0400   34.4510   39.3240 H   0  0  0  0  0  0  0  0  0  0  0  0
   39.3170   35.0160   41.0460 H   0  0  0  0  0  0  0  0  0  0  0  0
   38.0450   33.0270   41.7610 H   0  0  0  0  0  0  0  0  0  0  0  0
   41.5520   30.2690   38.4070 C   0  0  0  0  0  0  0  0  0  0  0  0
   41.0130   30.8770   39.5370 C   0  0  0  0  0  0  0  0  0  0  0  0
   40.5650   32.2090   39.4430 C   0  0  0  0  0  0  0  0  0  0  0  0
   40.6720   32.8640   38.2560 N   0  0  0  0  0  0  0  0  0  0  0  0
   41.2020   32.2460   37.1690 C   0  0  0  0  0  0  0  0  0  0  0  0
   41.6400   30.9570   37.2420 N   0  0  0  0  0  0  0  0  0  0  0  0
   41.8880   29.2500   38.4980 H   0  0  0  0  0  0  0  0  0  0  0  0
   40.9510   30.3220   40.4400 H   0  0  0  0  0  0  0  0  0  0  0  0
   41.2490   32.8440   36.2630 H   0  0  0  0  0  0  0  0  0  0  0  0
   38.0310   29.7830   41.1110 O   0  0  0  0  0  0  0  0  0  0  0  0
   37.5980   28.6420   41.7690 C   0  0  0  0  0  0  0  0  0  0  0  0
   37.0910   28.5170   43.0550 C   0  0  0  0  0  0  0  0  0  0  0  0
   36.7080   27.3160   43.5570 C   0  0  0  0  0  0  0  0  0  0  0  0
   36.8180   26.1860   42.7910 C   0  0  0  0  0  0  0  0  0  0  0  0
   37.3300   26.3340   41.5020 C   0  0  0  0  0  0  0  0  0  0  0  0
   37.7090   27.5340   41.0100 N   0  0  0  0  0  0  0  0  0  0  0  0
   37.0430   29.4620   43.5830 H   0  0  0  0  0  0  0  0  0  0  0  0
   36.3260   27.3210   44.5690 H   0  0  0  0  0  0  0  0  0  0  0  0
   36.5020   25.2530   43.2320 H   0  0  0  0  0  0  0  0  0  0  0  0
   37.4530   25.1700   40.6910 N   0  0  0  0  0  0  0  0  0  0  0  0
   37.6820   23.8340   41.1480 C   0  0  0  0  0  2  0  0  0  0  0  0
   37.0640   22.9270   40.0880 C   0  0  0  0  0  2  0  0  0  0  0  0
   36.4280   23.8750   39.0930 C   0  0  0  0  0  2  0  0  0  0  0  0
   37.3750   25.0730   39.2490 C   0  0  0  0  0  3  0  0  0  0  0  0
   36.9920   25.9590   38.7490 H   0  0  0  0  0  0  0  0  0  0  0  0
  2  1  2  6  0  0  0
  2 22  1  0  0  0  0
  2  3  1  0  0  0  0
  3  4  1  0  0  0  0
  5  2  1  0  0  0  0
  5  8  1  0  0  0  0
  6  8  1  0  0  0  0
  6  9  1  1  0  0  0
  7  6  1  0  0  0  0
  7  8  1  0  0  0  0
  7 11  1  0  0  0  0
  8 12  1  1  0  0  0
 10  7  1  0  0  0  0
 13 19  1  0  0  0  0
 13 14  1  0  0  0  0
 14 20  1  0  0  0  0
 15 14  2  0  0  0  0
 15  6  1  0  0  0  0
 16 15  1  0  0  0  0
 17 18  1  0  0  0  0
 17 16  2  0  0  0  0
 18 13  2  0  0  0  0
 21 17  1  0  0  0  0
 22 23  1  0  0  0  0
 23 24  1  0  0  0  0
 24 25  2  0  0  0  0
 24 29  1  0  0  0  0
 25 30  1  0  0  0  0
 26 31  1  0  0  0  0
 26 25  1  0  0  0  0
 27 26  2  0  0  0  0
 28 27  1  0  0  0  0
 28 23  2  0  0  0  0
 32 33  1  0  0  0  0
 32 27  1  0  0  0  0
 34 33  1  0  0  0  0
 35 36  1  0  0  0  0
 35 34  1  0  0  0  0
 36 32  1  0  0  0  0
 37 36  1  0  0  0  0
M  END
>  <minimizedAffinity>
-5.85526466

$$$$

 OpenBabel03252501093D

 37 40  0  0  1  0  0  0  0  0999 V2000
   36.4420   28.3990   38.3020 O   0  0  0  0  0  0  0  0  0  0  0  0
   37.4700   29.0880   39.2000 P   0  0  2  0  0  0  0  0  0  0  0  0
   38.8680   29.2310   38.2520 O   0  0  0  0  0  0  0  0  0  0  0  0
   39.2100   30.1750   38.2170 H   0  0  0  0  0  0  0  0  0  0  0  0
   37.6790   28.3070   40.6220 O   0  0  0  0  0  0  0  0  0  0  0  0
   36.7630   27.6710   42.7670 C   0  0  1  0  0  0  0  0  0  0  0  0
   37.4550   28.9380   43.0320 C   0  0  0  0  0  0  0  0  0  0  0  0
   36.8650   28.6080   41.6510 C   0  0  1  0  0  0  0  0  0  0  0  0
   35.7880   27.4830   43.2710 H   0  0  0  0  0  0  0  0  0  0  0  0
   38.5800   28.9990   42.9750 H   0  0  0  0  0  0  0  0  0  0  0  0
   37.0390   29.7450   43.6310 H   0  0  0  0  0  0  0  0  0  0  0  0
   36.0460   29.3150   41.4150 H   0  0  0  0  0  0  0  0  0  0  0  0
   38.0130   24.1580   42.1000 C   0  0  0  0  0  0  0  0  0  0  0  0
   37.1760   25.2690   42.1300 C   0  0  0  0  0  0  0  0  0  0  0  0
   37.6530   26.4620   42.7080 C   0  0  0  0  0  0  0  0  0  0  0  0
   38.9120   26.4960   43.2200 N   0  0  0  0  0  0  0  0  0  0  0  0
   39.7080   25.3950   43.1770 C   0  0  0  0  0  0  0  0  0  0  0  0
   39.2620   24.2330   42.6200 N   0  0  0  0  0  0  0  0  0  0  0  0
   37.6310   23.2560   41.6530 H   0  0  0  0  0  0  0  0  0  0  0  0
   36.2010   25.1930   41.7160 H   0  0  0  0  0  0  0  0  0  0  0  0
   40.6970   25.5120   43.6090 H   0  0  0  0  0  0  0  0  0  0  0  0
   36.8620   30.6340   39.4380 O   0  0  0  0  0  0  0  0  0  0  0  0
   37.6380   31.7280   39.7900 C   0  0  0  0  0  0  0  0  0  0  0  0
   37.3430   33.0790   39.6710 C   0  0  0  0  0  0  0  0  0  0  0  0
   38.2190   34.0370   40.0660 C   0  0  0  0  0  0  0  0  0  0  0  0
   39.4300   33.6820   40.5970 C   0  0  0  0  0  0  0  0  0  0  0  0
   39.7060   32.3190   40.7070 C   0  0  0  0  0  0  0  0  0  0  0  0
   38.8280   31.3710   40.3110 N   0  0  0  0  0  0  0  0  0  0  0  0
   36.3660   33.2610   39.2410 H   0  0  0  0  0  0  0  0  0  0  0  0
   37.8990   35.0610   39.9330 H   0  0  0  0  0  0  0  0  0  0  0  0
   40.0950   34.4770   40.8970 H   0  0  0  0  0  0  0  0  0  0  0  0
   40.9620   31.9300   41.2560 N   0  0  0  0  0  0  0  0  0  0  0  0
   42.1870   32.6630   41.1810 C   0  0  0  0  0  2  0  0  0  0  0  0
   42.9870   32.2540   42.4140 C   0  0  0  0  0  2  0  0  0  0  0  0
   42.0660   31.3240   43.1780 C   0  0  0  0  0  2  0  0  0  0  0  0
   41.2780   30.7310   42.0010 C   0  0  0  0  0  3  0  0  0  0  0  0
   40.4180   30.1590   42.3390 H   0  0  0  0  0  0  0  0  0  0  0  0
  2  1  2  6  0  0  0
  2 22  1  0  0  0  0
  2  5  1  0  0  0  0
  3  2  1  0  0  0  0
  4  3  1  0  0  0  0
  5  8  1  0  0  0  0
  6  7  1  0  0  0  0
  6  9  1  1  0  0  0
  7 11  1  0  0  0  0
  8 12  1  6  0  0  0
  8  6  1  0  0  0  0
  8  7  1  0  0  0  0
 10  7  1  0  0  0  0
 13 14  2  0  0  0  0
 13 18  1  0  0  0  0
 14 15  1  0  0  0  0
 15  6  1  0  0  0  0
 15 16  2  0  0  0  0
 17 16  1  0  0  0  0
 17 21  1  0  0  0  0
 18 17  2  0  0  0  0
 19 13  1  0  0  0  0
 20 14  1  0  0  0  0
 22 23  1  0  0  0  0
 23 28  1  0  0  0  0
 24 23  2  0  0  0  0
 24 25  1  0  0  0  0
 25 26  2  0  0  0  0
 26 27  1  0  0  0  0
 26 31  1  0  0  0  0
 27 32  1  0  0  0  0
 28 27  2  0  0  0  0
 29 24  1  0  0  0  0
 30 25  1  0  0  0  0
 32 36  1  0  0  0  0
 33 32  1  0  0  0  0
 33 34  1  0  0  0  0
 34 35  1  0  0  0  0
 36 37  1  0  0  0  0
 36 35  1  0  0  0  0
M  END
>  <minimizedAffinity>
-5.68864441

$$$$

 OpenBabel03252501093D

 37 40  0  0  1  0  0  0  0  0999 V2000
   37.3030   32.8690   39.9940 O   0  0  0  0  0  0  0  0  0  0  0  0
   37.1470   31.3550   40.1450 P   0  0  2  0  0  0  0  0  0  0  0  0
   35.8240   31.1430   41.1830 O   0  0  0  0  0  0  0  0  0  0  0  0
   35.1270   30.5340   40.7930 H   0  0  0  0  0  0  0  0  0  0  0  0
   38.5300   30.6320   40.6340 O   0  0  0  0  0  0  0  0  0  0  0  0
   39.2550   30.4130   42.9300 C   0  0  1  0  0  0  0  0  0  0  0  0
   40.5040   30.5050   42.1640 C   0  0  0  0  0  0  0  0  0  0  0  0
   39.2010   31.1590   41.6740 C   0  0  1  0  0  0  0  0  0  0  0  0
   39.1950   30.9360   43.9100 H   0  0  0  0  0  0  0  0  0  0  0  0
   40.8120   29.6720   41.4680 H   0  0  0  0  0  0  0  0  0  0  0  0
   41.3540   31.1180   42.4550 H   0  0  0  0  0  0  0  0  0  0  0  0
   39.3200   32.2600   41.6530 H   0  0  0  0  0  0  0  0  0  0  0  0
   38.7940   26.6540   42.9300 C   0  0  0  0  0  0  0  0  0  0  0  0
   39.4120   27.9000   42.9450 C   0  0  0  0  0  0  0  0  0  0  0  0
   38.6090   29.0570   42.9290 C   0  0  0  0  0  0  0  0  0  0  0  0
   37.2560   28.9270   42.8980 N   0  0  0  0  0  0  0  0  0  0  0  0
   36.6780   27.6970   42.8830 C   0  0  0  0  0  0  0  0  0  0  0  0
   37.4410   26.5670   42.8990 N   0  0  0  0  0  0  0  0  0  0  0  0
   39.4240   25.7810   42.9430 H   0  0  0  0  0  0  0  0  0  0  0  0
   40.4730   27.9490   42.9700 H   0  0  0  0  0  0  0  0  0  0  0  0
   35.5930   27.6870   42.8580 H   0  0  0  0  0  0  0  0  0  0  0  0
   36.6840   30.8190   38.6240 O   0  0  0  0  0  0  0  0  0  0  0  0
   36.1090   29.5820   38.3780 C   0  0  0  0  0  0  0  0  0  0  0  0
   34.9290   29.2860   37.7100 C   0  0  0  0  0  0  0  0  0  0  0  0
   34.5000   28.0080   37.5520 C   0  0  0  0  0  0  0  0  0  0  0  0
   35.2360   26.9710   38.0580 C   0  0  0  0  0  0  0  0  0  0  0  0
   36.4180   27.2900   38.7260 C   0  0  0  0  0  0  0  0  0  0  0  0
   36.8380   28.5650   38.8790 N   0  0  0  0  0  0  0  0  0  0  0  0
   34.4180   30.1690   37.3470 H   0  0  0  0  0  0  0  0  0  0  0  0
   33.5690   27.8800   37.0180 H   0  0  0  0  0  0  0  0  0  0  0  0
   34.8550   25.9720   37.9090 H   0  0  0  0  0  0  0  0  0  0  0  0
   37.1960   26.2230   39.2600 N   0  0  0  0  0  0  0  0  0  0  0  0
   36.7070   24.9630   39.7270 C   0  0  0  0  0  2  0  0  0  0  0  0
   37.8560   23.9790   39.5320 C   0  0  0  0  0  2  0  0  0  0  0  0
   38.9460   24.7880   38.8590 C   0  0  0  0  0  2  0  0  0  0  0  0
   38.6300   26.1700   39.4490 C   0  0  0  0  0  3  0  0  0  0  0  0
   39.1880   26.9590   38.9510 H   0  0  0  0  0  0  0  0  0  0  0  0
  2  1  2  6  0  0  0
  2  5  1  0  0  0  0
  2  3  1  0  0  0  0
  4  3  1  0  0  0  0
  5  8  1  0  0  0  0
  6  9  1  1  0  0  0
  7 11  1  0  0  0  0
  7  6  1  0  0  0  0
  8 12  1  1  0  0  0
  8  7  1  0  0  0  0
  8  6  1  0  0  0  0
 10  7  1  0  0  0  0
 13 19  1  0  0  0  0
 13 14  1  0  0  0  0
 14 20  1  0  0  0  0
 15  6  1  0  0  0  0
 15 14  2  0  0  0  0
 16 15  1  0  0  0  0
 17 16  2  0  0  0  0
 17 18  1  0  0  0  0
 18 13  2  0  0  0  0
 21 17  1  0  0  0  0
 22  2  1  0  0  0  0
 23 22  1  0  0  0  0
 23 28  1  0  0  0  0
 24 23  2  0  0  0  0
 25 24  1  0  0  0  0
 25 26  2  0  0  0  0
 26 27  1  0  0  0  0
 27 28  2  0  0  0  0
 27 32  1  0  0  0  0
 29 24  1  0  0  0  0
 30 25  1  0  0  0  0
 31 26  1  0  0  0  0
 32 36  1  0  0  0  0
 32 33  1  0  0  0  0
 34 33  1  0  0  0  0
 35 36  1  0  0  0  0
 35 34  1  0  0  0  0
 37 36  1  0  0  0  0
M  END
>  <minimizedAffinity>
-5.56930542

$$$$

 OpenBabel03252501093D

 37 40  0  0  1  0  0  0  0  0999 V2000
   37.2540   28.9510   36.4190 O   0  0  0  0  0  0  0  0  0  0  0  0
   37.9830   29.5780   37.6080 P   0  0  2  0  0  0  0  0  0  0  0  0
   39.6330   29.3740   37.2800 O   0  0  0  0  0  0  0  0  0  0  0  0
   40.1410   30.2390   37.3290 H   0  0  0  0  0  0  0  0  0  0  0  0
   37.4840   28.9640   39.0390 O   0  0  0  0  0  0  0  0  0  0  0  0
   35.7260   28.5390   40.6450 C   0  0  1  0  0  0  0  0  0  0  0  0
   35.5800   29.9630   40.3190 C   0  0  0  0  0  0  0  0  0  0  0  0
   36.1660   28.9560   39.3150 C   0  0  1  0  0  0  0  0  0  0  0  0
   34.8050   27.9290   40.7790 H   0  0  0  0  0  0  0  0  0  0  0  0
   36.3680   30.7060   40.6350 H   0  0  0  0  0  0  0  0  0  0  0  0
   34.6270   30.4480   40.1210 H   0  0  0  0  0  0  0  0  0  0  0  0
   35.4990   28.8730   38.4350 H   0  0  0  0  0  0  0  0  0  0  0  0
   38.2340   26.6200   42.7370 C   0  0  0  0  0  0  0  0  0  0  0  0
   37.2410   26.8920   41.8010 C   0  0  0  0  0  0  0  0  0  0  0  0
   36.8080   28.2230   41.6380 C   0  0  0  0  0  0  0  0  0  0  0  0
   37.3680   29.2020   42.3970 N   0  0  0  0  0  0  0  0  0  0  0  0
   38.3360   28.9080   43.3040 C   0  0  0  0  0  0  0  0  0  0  0  0
   38.7670   27.6260   43.4740 N   0  0  0  0  0  0  0  0  0  0  0  0
   38.5530   25.5980   42.8470 H   0  0  0  0  0  0  0  0  0  0  0  0
   36.8360   26.0930   41.2320 H   0  0  0  0  0  0  0  0  0  0  0  0
   38.7260   29.7510   43.8660 H   0  0  0  0  0  0  0  0  0  0  0  0
   37.6470   31.2180   37.4990 O   0  0  0  0  0  0  0  0  0  0  0  0
   38.0710   32.1610   38.4230 C   0  0  0  0  0  0  0  0  0  0  0  0
   37.3120   33.0480   39.1730 C   0  0  0  0  0  0  0  0  0  0  0  0
   37.8850   33.9180   40.0430 C   0  0  0  0  0  0  0  0  0  0  0  0
   39.2450   33.9350   40.1990 C   0  0  0  0  0  0  0  0  0  0  0  0
   39.9890   33.0350   39.4350 C   0  0  0  0  0  0  0  0  0  0  0  0
   39.4110   32.1730   38.5710 N   0  0  0  0  0  0  0  0  0  0  0  0
   36.2500   32.9610   38.9810 H   0  0  0  0  0  0  0  0  0  0  0  0
   37.2110   34.5690   40.5810 H   0  0  0  0  0  0  0  0  0  0  0  0
   39.6570   34.6430   40.9010 H   0  0  0  0  0  0  0  0  0  0  0  0
   41.4060   33.0400   39.5830 N   0  0  0  0  0  0  0  0  0  0  0  0
   42.2210   34.1610   39.9320 C   0  0  0  0  0  2  0  0  0  0  0  0
   43.4510   33.5760   40.6210 C   0  0  0  0  0  2  0  0  0  0  0  0
   43.1840   32.0860   40.6810 C   0  0  0  0  0  2  0  0  0  0  0  0
   42.3250   31.9350   39.4180 C   0  0  0  0  0  3  0  0  0  0  0  0
   41.8590   30.9540   39.3610 H   0  0  0  0  0  0  0  0  0  0  0  0
  2  1  2  6  0  0  0
  2  5  1  0  0  0  0
  3  4  1  0  0  0  0
  3  2  1  0  0  0  0
  5  8  1  0  0  0  0
  6  9  1  1  0  0  0
  6 15  1  0  0  0  0
  7 10  1  0  0  0  0
  7  6  1  0  0  0  0
  8 12  1  6  0  0  0
  8  7  1  0  0  0  0
  8  6  1  0  0  0  0
 11  7  1  0  0  0  0
 13 19  1  0  0  0  0
 13 18  1  0  0  0  0
 14 13  2  0  0  0  0
 15 14  1  0  0  0  0
 15 16  2  0  0  0  0
 16 17  1  0  0  0  0
 17 18  2  0  0  0  0
 17 21  1  0  0  0  0
 20 14  1  0  0  0  0
 22  2  1  0  0  0  0
 22 23  1  0  0  0  0
 23 28  2  0  0  0  0
 23 24  1  0  0  0  0
 24 25  2  0  0  0  0
 25 26  1  0  0  0  0
 25 30  1  0  0  0  0
 26 31  1  0  0  0  0
 27 32  1  0  0  0  0
 27 26  2  0  0  0  0
 28 27  1  0  0  0  0
 29 24  1  0  0  0  0
 32 33  1  0  0  0  0
 33 34  1  0  0  0  0
 34 35  1  0  0  0  0
 36 32  1  0  0  0  0
 36 35  1  0  0  0  0
 37 36  1  0  0  0  0
M  END
>  <minimizedAffinity>
-5.5094409

$$$$

 OpenBabel03252501093D

 37 40  0  0  1  0  0  0  0  0999 V2000
   41.3610   31.4520   41.9890 O   0  0  0  0  0  0  0  0  0  0  0  0
   40.1270   30.6380   41.6000 P   0  0  2  0  0  0  0  0  0  0  0  0
   40.5880   29.7540   40.2290 O   0  0  0  0  0  0  0  0  0  0  0  0
   40.4170   28.7700   40.3350 H   0  0  0  0  0  0  0  0  0  0  0  0
   38.8000   31.5730   41.4020 O   0  0  0  0  0  0  0  0  0  0  0  0
   37.9000   31.7830   39.1680 C   0  0  1  0  0  0  0  0  0  0  0  0
   37.3360   32.9280   39.8930 C   0  0  0  0  0  0  0  0  0  0  0  0
   38.6890   32.3080   40.2800 C   0  0  1  0  0  0  0  0  0  0  0  0
   38.2250   31.9310   38.1140 H   0  0  0  0  0  0  0  0  0  0  0  0
   36.5810   32.7700   40.7170 H   0  0  0  0  0  0  0  0  0  0  0  0
   37.2860   33.9380   39.4930 H   0  0  0  0  0  0  0  0  0  0  0  0
   39.4990   33.0450   40.1140 H   0  0  0  0  0  0  0  0  0  0  0  0
   35.3760   29.2250   40.3650 C   0  0  0  0  0  0  0  0  0  0  0  0
   36.0000   30.4480   40.1450 C   0  0  0  0  0  0  0  0  0  0  0  0
   37.1990   30.4760   39.4050 C   0  0  0  0  0  0  0  0  0  0  0  0
   37.7130   29.3110   38.9300 N   0  0  0  0  0  0  0  0  0  0  0  0
   37.0820   28.1290   39.1600 C   0  0  0  0  0  0  0  0  0  0  0  0
   35.9210   28.0850   39.8730 N   0  0  0  0  0  0  0  0  0  0  0  0
   34.4600   29.2240   40.9310 H   0  0  0  0  0  0  0  0  0  0  0  0
   35.5590   31.3310   40.5370 H   0  0  0  0  0  0  0  0  0  0  0  0
   37.5630   27.2490   38.7430 H   0  0  0  0  0  0  0  0  0  0  0  0
   39.9210   29.5460   42.8570 O   0  0  0  0  0  0  0  0  0  0  0  0
   38.8800   28.6330   42.9300 C   0  0  0  0  0  0  0  0  0  0  0  0
   37.6690   28.7450   43.5990 C   0  0  0  0  0  0  0  0  0  0  0  0
   36.7450   27.7500   43.5720 C   0  0  0  0  0  0  0  0  0  0  0  0
   36.9960   26.6010   42.8730 C   0  0  0  0  0  0  0  0  0  0  0  0
   38.2190   26.5100   42.2080 C   0  0  0  0  0  0  0  0  0  0  0  0
   39.1330   27.5030   42.2400 N   0  0  0  0  0  0  0  0  0  0  0  0
   37.5620   29.6860   44.1230 H   0  0  0  0  0  0  0  0  0  0  0  0
   35.8330   27.9310   44.1250 H   0  0  0  0  0  0  0  0  0  0  0  0
   36.2330   25.8370   42.8800 H   0  0  0  0  0  0  0  0  0  0  0  0
   38.4980   25.3200   41.4760 N   0  0  0  0  0  0  0  0  0  0  0  0
   38.0110   24.0070   41.7670 C   0  0  0  0  0  2  0  0  0  0  0  0
   37.9770   23.2760   40.4290 C   0  0  0  0  0  2  0  0  0  0  0  0
   38.3980   24.3160   39.4110 C   0  0  0  0  0  2  0  0  0  0  0  0
   39.3190   25.1700   40.2940 C   0  0  0  0  0  3  0  0  0  0  0  0
   39.5970   26.1000   39.8060 H   0  0  0  0  0  0  0  0  0  0  0  0
  2  1  2  1  0  0  0
  2 22  1  0  0  0  0
  3  4  1  0  0  0  0
  3  2  1  0  0  0  0
  5  2  1  0  0  0  0
  6  9  1  6  0  0  0
  6 15  1  0  0  0  0
  6  7  1  0  0  0  0
  6  8  1  0  0  0  0
  7  8  1  0  0  0  0
  7 10  1  0  0  0  0
  8 12  1  6  0  0  0
  8  5  1  0  0  0  0
 11  7  1  0  0  0  0
 13 19  1  0  0  0  0
 14 13  1  0  0  0  0
 14 20  1  0  0  0  0
 15 14  2  0  0  0  0
 16 17  2  0  0  0  0
 16 15  1  0  0  0  0
 17 18  1  0  0  0  0
 18 13  2  0  0  0  0
 21 17  1  0  0  0  0
 22 23  1  0  0  0  0
 23 24  1  0  0  0  0
 24 29  1  0  0  0  0
 25 24  2  0  0  0  0
 25 30  1  0  0  0  0
 26 31  1  0  0  0  0
 26 25  1  0  0  0  0
 27 28  1  0  0  0  0
 27 26  2  0  0  0  0
 28 23  2  0  0  0  0
 32 33  1  0  0  0  0
 32 27  1  0  0  0  0
 34 33  1  0  0  0  0
 35 36  1  0  0  0  0
 35 34  1  0  0  0  0
 36 32  1  0  0  0  0
 37 36  1  0  0  0  0
M  END
>  <minimizedAffinity>
-5.49768353

$$$$

 OpenBabel03252501093D

 37 40  0  0  1  0  0  0  0  0999 V2000
   38.1580   24.8890   38.5170 O   0  0  0  0  0  0  0  0  0  0  0  0
   37.1520   25.5580   39.4540 P   0  0  2  0  0  0  0  0  0  0  0  0
   35.8400   24.4880   39.5370 O   0  0  0  0  0  0  0  0  0  0  0  0
   35.6000   24.2520   40.4840 H   0  0  0  0  0  0  0  0  0  0  0  0
   36.7730   27.0760   38.9800 O   0  0  0  0  0  0  0  0  0  0  0  0
   35.0010   28.5920   38.3420 C   0  0  1  0  0  0  0  0  0  0  0  0
   35.6140   28.1980   37.0680 C   0  0  0  0  0  0  0  0  0  0  0  0
   35.6300   27.2740   38.2970 C   0  0  1  0  0  0  0  0  0  0  0  0
   33.8940   28.6980   38.3870 H   0  0  0  0  0  0  0  0  0  0  0  0
   36.6630   28.5280   36.8100 H   0  0  0  0  0  0  0  0  0  0  0  0
   35.0500   27.9240   36.1790 H   0  0  0  0  0  0  0  0  0  0  0  0
   35.0400   26.3610   38.0870 H   0  0  0  0  0  0  0  0  0  0  0  0
   37.3200   31.4800   39.1370 C   0  0  0  0  0  0  0  0  0  0  0  0
   36.6350   30.5070   38.4150 C   0  0  0  0  0  0  0  0  0  0  0  0
   35.7400   29.6600   39.0980 C   0  0  0  0  0  0  0  0  0  0  0  0
   35.5700   29.8130   40.4370 N   0  0  0  0  0  0  0  0  0  0  0  0
   36.2520   30.7710   41.1180 C   0  0  0  0  0  0  0  0  0  0  0  0
   37.1220   31.6000   40.4730 N   0  0  0  0  0  0  0  0  0  0  0  0
   37.9990   32.1180   38.5990 H   0  0  0  0  0  0  0  0  0  0  0  0
   36.8020   30.4280   37.3700 H   0  0  0  0  0  0  0  0  0  0  0  0
   36.0550   30.8220   42.1850 H   0  0  0  0  0  0  0  0  0  0  0  0
   37.8990   25.5560   40.9560 O   0  0  0  0  0  0  0  0  0  0  0  0
   37.8490   26.6160   41.8490 C   0  0  0  0  0  0  0  0  0  0  0  0
   36.8990   26.8890   42.8240 C   0  0  0  0  0  0  0  0  0  0  0  0
   36.9950   27.9800   43.6270 C   0  0  0  0  0  0  0  0  0  0  0  0
   38.0480   28.8440   43.4860 C   0  0  0  0  0  0  0  0  0  0  0  0
   38.9900   28.5500   42.5010 C   0  0  0  0  0  0  0  0  0  0  0  0
   38.8880   27.4620   41.7050 N   0  0  0  0  0  0  0  0  0  0  0  0
   36.1070   26.1520   42.8590 H   0  0  0  0  0  0  0  0  0  0  0  0
   36.2060   28.1070   44.3550 H   0  0  0  0  0  0  0  0  0  0  0  0
   38.0830   29.6970   44.1450 H   0  0  0  0  0  0  0  0  0  0  0  0
   40.0920   29.4380   42.3390 N   0  0  0  0  0  0  0  0  0  0  0  0
   40.0980   30.8430   42.6060 C   0  0  0  0  0  2  0  0  0  0  0  0
   41.5430   31.1870   42.9560 C   0  0  0  0  0  2  0  0  0  0  0  0
   42.2710   29.8590   42.9350 C   0  0  0  0  0  2  0  0  0  0  0  0
   41.4280   29.1300   41.8790 C   0  0  0  0  0  3  0  0  0  0  0  0
   41.6660   28.0700   41.8340 H   0  0  0  0  0  0  0  0  0  0  0  0
  2  1  2  6  0  0  0
  2  3  1  0  0  0  0
  2 22  1  0  0  0  0
  3  4  1  0  0  0  0
  5  2  1  0  0  0  0
  6  9  1  1  0  0  0
  6 15  1  0  0  0  0
  7  8  1  0  0  0  0
  7  6  1  0  0  0  0
  8 12  1  6  0  0  0
  8  6  1  0  0  0  0
  8  5  1  0  0  0  0
 10  7  1  0  0  0  0
 11  7  1  0  0  0  0
 13 18  1  0  0  0  0
 14 15  1  0  0  0  0
 14 13  2  0  0  0  0
 15 16  2  0  0  0  0
 16 17  1  0  0  0  0
 17 21  1  0  0  0  0
 18 17  2  0  0  0  0
 19 13  1  0  0  0  0
 20 14  1  0  0  0  0
 22 23  1  0  0  0  0
 23 24  1  0  0  0  0
 24 29  1  0  0  0  0
 24 25  2  0  0  0  0
 25 30  1  0  0  0  0
 26 25  1  0  0  0  0
 26 31  1  0  0  0  0
 27 26  2  0  0  0  0
 28 23  2  0  0  0  0
 28 27  1  0  0  0  0
 32 27  1  0  0  0  0
 32 33  1  0  0  0  0
 33 34  1  0  0  0  0
 35 34  1  0  0  0  0
 36 32  1  0  0  0  0
 36 35  1  0  0  0  0
 37 36  1  0  0  0  0
M  END
>  <minimizedAffinity>
-5.46184635

$$$$
