
 OpenBabel03252508353D

 28 30  0  0  0  0  0  0  0  0999 V2000
   46.6610   32.8420   40.8980 C   0  0  0  0  0  0  0  0  0  0  0  0
   45.7870   32.3440   41.8310 C   0  0  0  0  0  0  0  0  0  0  0  0
   45.0760   31.2300   41.4930 C   0  0  0  0  0  0  0  0  0  0  0  0
   45.1990   30.5930   40.2660 C   0  0  0  0  0  0  0  0  0  0  0  0
   46.0930   31.1250   39.3490 C   0  0  0  0  0  0  0  0  0  0  0  0
   46.8180   32.2460   39.6700 C   0  0  0  0  0  0  0  0  0  0  0  0
   44.3870   30.8450   42.2410 H   0  0  0  0  0  0  0  0  0  0  0  0
   44.5930   29.7210   40.0970 H   0  0  0  0  0  0  0  0  0  0  0  0
   46.1840   30.6210   38.3890 H   0  0  0  0  0  0  0  0  0  0  0  0
   44.7800   34.8090   44.5030 C   0  0  0  0  0  0  0  0  0  0  0  0
   44.8590   34.1540   43.2700 C   0  0  0  0  0  0  0  0  0  0  0  0
   45.6890   33.0410   43.1020 C   0  0  0  0  0  0  0  0  0  0  0  0
   46.3920   32.6600   44.2050 N   0  0  0  0  0  0  0  0  0  0  0  0
   46.3030   33.3020   45.3770 C   0  0  0  0  0  0  0  0  0  0  0  0
   45.5030   34.3660   45.5230 N   0  0  0  0  0  0  0  0  0  0  0  0
   43.9230   35.9310   44.6180 N   0  0  0  0  0  0  0  0  0  0  0  0
   44.2660   34.5170   42.4400 H   0  0  0  0  0  0  0  0  0  0  0  0
   46.9150   32.8940   46.1670 H   0  0  0  0  0  0  0  0  0  0  0  0
   43.4430   36.1380   45.5300 H   0  0  0  0  0  0  0  0  0  0  0  0
   43.6990   36.6200   43.8580 H   0  0  0  0  0  0  0  0  0  0  0  0
   47.7070   32.7190   38.6680 N   0  0  0  0  0  0  0  0  0  0  0  0
   49.0970   32.4030   38.4680 C   0  0  0  0  0  2  0  0  0  0  0  0
   49.3630   32.9340   37.0550 C   0  0  0  0  0  2  0  0  0  0  0  0
   48.5390   34.2160   37.1120 C   0  0  0  0  0  2  0  0  0  0  0  0
   47.2380   33.6500   37.6660 C   0  0  0  0  0  3  0  0  0  0  0  0
   46.7930   33.0760   36.8020 H   0  0  0  0  0  0  0  0  0  0  0  0
   48.0770   34.9870   41.4110 N   0  0  0  0  0  0  0  0  0  0  0  0
   47.4480   34.0150   41.1800 C   0  0  0  0  0  0  0  0  0  0  0  0
  1 28  1  0  0  0  0
  1  2  1  0  0  0  0
  2 12  1  0  0  0  0
  3  2  2  0  0  0  0
  3  7  1  0  0  0  0
  4  3  1  0  0  0  0
  5  6  1  0  0  0  0
  5  4  2  0  0  0  0
  6  1  2  0  0  0  0
  8  4  1  0  0  0  0
  9  5  1  0  0  0  0
 10 16  1  0  0  0  0
 10 15  1  0  0  0  0
 11 10  2  0  0  0  0
 12 11  1  0  0  0  0
 12 13  2  0  0  0  0
 13 14  1  0  0  0  0
 14 15  2  0  0  0  0
 14 18  1  0  0  0  0
 16 19  1  0  0  0  0
 17 11  1  0  0  0  0
 20 16  1  0  0  0  0
 21  6  1  0  0  0  0
 22 21  1  0  0  0  0
 23 24  1  0  0  0  0
 23 22  1  0  0  0  0
 24 25  1  0  0  0  0
 25 21  1  0  0  0  0
 26 25  1  0  0  0  0
 28 27  3  0  0  0  0
M  END
>  <minimizedAffinity>
-4.12283993

>  <minimizedRMSD>
2.61748719

$$$$
