
 OpenBabel03252507373D

 35 39  0  0  0  0  0  0  0  0999 V2000
   45.4690   34.5660   43.4900 C   0  0  0  0  0  0  0  0  0  0  0  0
   46.1910   33.5290   44.1140 C   0  0  0  0  0  0  0  0  0  0  0  0
   46.0860   33.3880   45.4810 C   0  0  0  0  0  0  0  0  0  0  0  0
   45.3080   34.2330   46.1560 N   0  0  0  0  0  0  0  0  0  0  0  0
   44.6130   35.2310   45.5510 C   0  0  0  0  0  0  0  0  0  0  0  0
   44.7000   35.3860   44.2340 N   0  0  0  0  0  0  0  0  0  0  0  0
   46.8180   32.8510   43.5630 H   0  0  0  0  0  0  0  0  0  0  0  0
   43.9920   35.9080   46.0990 H   0  0  0  0  0  0  0  0  0  0  0  0
   47.0840   32.6400   47.5800 C   0  0  0  0  0  0  0  0  0  0  0  0
   46.7920   32.3550   46.2400 C   0  0  0  0  0  0  0  0  0  0  0  0
   47.1820   31.1460   45.7420 C   0  0  0  0  0  0  0  0  0  0  0  0
   47.8440   30.2050   46.4940 C   0  0  0  0  0  0  0  0  0  0  0  0
   48.3160   28.9720   46.2160 N   0  0  0  0  0  0  0  0  0  0  0  0
   48.9000   28.4840   47.3800 C   0  0  0  0  0  0  0  0  0  0  0  0
   48.7720   29.4200   48.3280 N   0  0  0  0  0  0  0  0  0  0  0  0
   48.1330   30.4750   47.8070 C   0  0  0  0  0  0  0  0  0  0  0  0
   47.7480   31.6980   48.3450 C   0  0  0  0  0  0  0  0  0  0  0  0
   46.7850   33.5980   47.9980 H   0  0  0  0  0  0  0  0  0  0  0  0
   46.9460   30.9380   44.6870 H   0  0  0  0  0  0  0  0  0  0  0  0
   48.2570   28.4680   45.2990 H   0  0  0  0  0  0  0  0  0  0  0  0
   49.3600   27.5090   47.4490 H   0  0  0  0  0  0  0  0  0  0  0  0
   47.9600   31.9390   49.3790 H   0  0  0  0  0  0  0  0  0  0  0  0
   45.5700   34.7140   42.1120 O   0  0  0  0  0  0  0  0  0  0  0  0
   44.4290   34.6660   41.3140 C   0  0  0  0  0  0  0  0  0  0  0  0
   44.3740   33.3210   41.1140 C   0  0  0  0  0  0  0  0  0  0  0  0
   42.8040   33.2170   40.0170 S   0  0  0  0  0  0  0  0  0  0  0  0
   42.6120   35.0980   40.1110 C   0  0  0  0  0  0  0  0  0  0  0  0
   43.4690   35.3730   40.7350 N   0  0  0  0  0  0  0  0  0  0  0  0
   44.7510   32.2400   41.2450 H   0  0  0  0  0  0  0  0  0  0  0  0
   41.4530   35.4630   39.3650 N   0  0  0  0  0  0  0  0  0  0  0  0
   41.0650   35.8070   38.0230 C   0  0  0  0  0  2  0  0  0  0  0  0
   40.0750   34.6590   37.7500 C   0  0  0  0  0  2  0  0  0  0  0  0
   39.3880   34.5310   39.1140 C   0  0  0  0  0  2  0  0  0  0  0  0
   40.1200   35.5540   39.9900 C   0  0  0  0  0  3  0  0  0  0  0  0
   40.1690   35.2010   41.0190 H   0  0  0  0  0  0  0  0  0  0  0  0
  1  2  2  0  0  0  0
  1  6  1  0  0  0  0
  2  3  1  0  0  0  0
  3  4  2  0  0  0  0
  3 10  1  0  0  0  0
  5  8  1  0  0  0  0
  5  4  1  0  0  0  0
  6  5  2  0  0  0  0
  7  2  1  0  0  0  0
  9 18  1  0  0  0  0
  9 17  1  0  0  0  0
 10  9  2  0  0  0  0
 11 10  1  0  0  0  0
 11 12  2  0  0  0  0
 12 16  1  0  0  0  0
 13 12  1  0  0  0  0
 13 14  1  0  0  0  0
 14 21  1  0  0  0  0
 14 15  2  0  0  0  0
 16 15  1  0  0  0  0
 16 17  2  0  0  0  0
 17 22  1  0  0  0  0
 19 11  1  0  0  0  0
 20 13  1  0  0  0  0
 23  1  1  0  0  0  0
 24 23  1  0  0  0  0
 25 29  1  0  0  0  0
 25 24  2  0  0  0  0
 26 27  1  0  0  0  0
 26 25  1  0  0  0  0
 27 28  2  0  0  0  0
 28 24  1  0  0  0  0
 30 34  1  0  0  0  0
 30 27  1  0  0  0  0
 31 30  1  0  0  0  0
 32 31  1  0  0  0  0
 32 33  1  0  0  0  0
 33 34  1  0  0  0  0
 34 35  1  0  0  0  0
M  END
>  <minimizedAffinity>
-6.93676424

>  <minimizedRMSD>
0.457199872

$$$$
