
 OpenBabel03252505553D

 30 32  0  0  0  0  0  0  0  0999 V2000
   37.9620   30.7880   37.7950 C   0  0  0  0  0  0  0  0  0  0  0  0
   38.8680   30.1360   37.9120 H   0  0  0  0  0  0  0  0  0  0  0  0
   37.8700   31.1160   36.7550 H   0  0  0  0  0  0  0  0  0  0  0  0
   38.1950   31.9540   38.6620 C   0  0  0  0  0  0  0  0  0  0  0  0
   37.3020   32.9000   39.1240 C   0  0  0  0  0  0  0  0  0  0  0  0
   37.7640   33.9000   39.9270 C   0  0  0  0  0  0  0  0  0  0  0  0
   39.0610   33.9800   40.2700 N   0  0  0  0  0  0  0  0  0  0  0  0
   39.9220   33.0610   39.8180 C   0  0  0  0  0  0  0  0  0  0  0  0
   39.5050   32.0470   39.0170 N   0  0  0  0  0  0  0  0  0  0  0  0
   36.2990   32.7250   38.7790 H   0  0  0  0  0  0  0  0  0  0  0  0
   37.0050   34.6030   40.2490 H   0  0  0  0  0  0  0  0  0  0  0  0
   41.2950   33.1640   40.1950 N   0  0  0  0  0  0  0  0  0  0  0  0
   42.2000   34.1420   39.6250 C   0  0  0  0  0  2  0  0  0  0  0  0
   43.4200   34.1590   40.5090 C   0  0  0  0  0  2  0  0  0  0  0  0
   42.9220   33.4780   41.7670 C   0  0  0  0  0  2  0  0  0  0  0  0
   42.0410   32.3790   41.1570 C   0  0  0  0  0  3  0  0  0  0  0  0
   41.4170   31.9790   41.9700 H   0  0  0  0  0  0  0  0  0  0  0  0
   36.8580   30.0920   38.2930 O   0  0  0  0  0  0  0  0  0  0  0  0
   35.9230   28.5800   41.3760 C   0  0  0  0  0  0  0  0  0  0  0  0
   37.0290   27.8020   41.7130 C   0  0  0  0  0  0  0  0  0  0  0  0
   38.1250   27.8140   40.8300 C   0  0  0  0  0  0  0  0  0  0  0  0
   38.0550   28.5620   39.7250 N   0  0  0  0  0  0  0  0  0  0  0  0
   36.9530   29.3070   39.4370 C   0  0  0  0  0  0  0  0  0  0  0  0
   35.9020   29.3170   40.2510 N   0  0  0  0  0  0  0  0  0  0  0  0
   35.0860   28.5640   42.0600 H   0  0  0  0  0  0  0  0  0  0  0  0
   38.9760   27.2070   41.1020 H   0  0  0  0  0  0  0  0  0  0  0  0
   36.9880   27.0050   42.9810 C   0  0  0  0  0  0  0  0  0  0  0  0
   36.7990   25.7070   42.5660 F   0  0  0  0  0  0  0  0  0  0  0  0
   35.8490   27.4460   43.6720 F   0  0  0  0  0  0  0  0  0  0  0  0
   38.1350   27.2100   43.6780 F   0  0  0  0  0  0  0  0  0  0  0  0
  1  2  1  0  0  0  0
  1 18  1  0  0  0  0
  1  4  1  0  0  0  0
  3  1  1  0  0  0  0
  4  9  2  0  0  0  0
  4  5  1  0  0  0  0
  5  6  2  0  0  0  0
  6 11  1  0  0  0  0
  6  7  1  0  0  0  0
  8 12  1  0  0  0  0
  8  7  2  0  0  0  0
  9  8  1  0  0  0  0
 10  5  1  0  0  0  0
 12 16  1  0  0  0  0
 13 12  1  0  0  0  0
 13 14  1  0  0  0  0
 14 15  1  0  0  0  0
 16 15  1  0  0  0  0
 16 17  1  0  0  0  0
 18 23  1  0  0  0  0
 19 20  1  0  0  0  0
 19 25  1  0  0  0  0
 20 27  1  0  0  0  0
 21 26  1  0  0  0  0
 21 20  2  0  0  0  0
 22 21  1  0  0  0  0
 23 22  2  0  0  0  0
 23 24  1  0  0  0  0
 24 19  2  0  0  0  0
 27 29  1  0  0  0  0
 27 30  1  0  0  0  0
 28 27  1  0  0  0  0
M  END
>  <minimizedAffinity>
-5.59000778

$$$$

 OpenBabel03252505553D

 30 32  0  0  0  0  0  0  0  0999 V2000
   37.8730   28.0510   43.5250 C   0  0  0  0  0  0  0  0  0  0  0  0
   38.6910   28.8070   43.6620 H   0  0  0  0  0  0  0  0  0  0  0  0
   37.3370   27.9070   44.4680 H   0  0  0  0  0  0  0  0  0  0  0  0
   38.5460   26.7990   43.1430 C   0  0  0  0  0  0  0  0  0  0  0  0
   39.6690   26.2030   43.6800 C   0  0  0  0  0  0  0  0  0  0  0  0
   40.1050   25.0280   43.1460 C   0  0  0  0  0  0  0  0  0  0  0  0
   39.4680   24.4470   42.1160 N   0  0  0  0  0  0  0  0  0  0  0  0
   38.3790   25.0290   41.5980 C   0  0  0  0  0  0  0  0  0  0  0  0
   37.9090   26.2000   42.1000 N   0  0  0  0  0  0  0  0  0  0  0  0
   40.0850   26.7660   44.4960 H   0  0  0  0  0  0  0  0  0  0  0  0
   40.9910   24.6220   43.6200 H   0  0  0  0  0  0  0  0  0  0  0  0
   37.7170   24.3950   40.5050 N   0  0  0  0  0  0  0  0  0  0  0  0
   38.2370   24.4030   39.1530 C   0  0  0  0  0  2  0  0  0  0  0  0
   37.4590   23.3630   38.3900 C   0  0  0  0  0  2  0  0  0  0  0  0
   36.8340   22.5440   39.5000 C   0  0  0  0  0  2  0  0  0  0  0  0
   36.4710   23.6550   40.4950 C   0  0  0  0  0  3  0  0  0  0  0  0
   36.2470   23.1670   41.4540 H   0  0  0  0  0  0  0  0  0  0  0  0
   37.0790   28.4610   42.4520 O   0  0  0  0  0  0  0  0  0  0  0  0
   38.7630   31.4020   41.3640 C   0  0  0  0  0  0  0  0  0  0  0  0
   37.7930   32.0900   40.6370 C   0  0  0  0  0  0  0  0  0  0  0  0
   36.5200   31.4980   40.5300 C   0  0  0  0  0  0  0  0  0  0  0  0
   36.3040   30.3220   41.1240 N   0  0  0  0  0  0  0  0  0  0  0  0
   37.2820   29.6860   41.8260 C   0  0  0  0  0  0  0  0  0  0  0  0
   38.4940   30.2190   41.9450 N   0  0  0  0  0  0  0  0  0  0  0  0
   39.7370   31.8640   41.4410 H   0  0  0  0  0  0  0  0  0  0  0  0
   35.7770   32.0410   39.9630 H   0  0  0  0  0  0  0  0  0  0  0  0
   38.1570   33.4030   40.0160 C   0  0  0  0  0  0  0  0  0  0  0  0
   39.1110   33.0880   39.0750 F   0  0  0  0  0  0  0  0  0  0  0  0
   38.7450   34.1600   41.0420 F   0  0  0  0  0  0  0  0  0  0  0  0
   37.0400   33.9870   39.5100 F   0  0  0  0  0  0  0  0  0  0  0  0
  1  2  1  0  0  0  0
  1  3  1  0  0  0  0
  4  1  1  0  0  0  0
  4  5  1  0  0  0  0
  5 10  1  0  0  0  0
  6 11  1  0  0  0  0
  6  5  2  0  0  0  0
  7  6  1  0  0  0  0
  8  9  1  0  0  0  0
  8  7  2  0  0  0  0
  9  4  2  0  0  0  0
 12  8  1  0  0  0  0
 13 12  1  0  0  0  0
 14 13  1  0  0  0  0
 14 15  1  0  0  0  0
 15 16  1  0  0  0  0
 16 12  1  0  0  0  0
 16 17  1  0  0  0  0
 18  1  1  0  0  0  0
 19 25  1  0  0  0  0
 19 24  1  0  0  0  0
 20 19  2  0  0  0  0
 21 20  1  0  0  0  0
 21 22  2  0  0  0  0
 22 23  1  0  0  0  0
 23 24  2  0  0  0  0
 23 18  1  0  0  0  0
 26 21  1  0  0  0  0
 27 20  1  0  0  0  0
 27 29  1  0  0  0  0
 28 27  1  0  0  0  0
 30 27  1  0  0  0  0
M  END
>  <minimizedAffinity>
-5.55779791

$$$$

 OpenBabel03252505553D

 30 32  0  0  0  0  0  0  0  0999 V2000
   36.6600   27.5830   42.9190 C   0  0  0  0  0  0  0  0  0  0  0  0
   36.2620   27.3860   43.9490 H   0  0  0  0  0  0  0  0  0  0  0  0
   35.8320   27.7100   42.2160 H   0  0  0  0  0  0  0  0  0  0  0  0
   37.4370   26.3870   42.5570 C   0  0  0  0  0  0  0  0  0  0  0  0
   37.0000   25.1240   42.2100 C   0  0  0  0  0  0  0  0  0  0  0  0
   37.9260   24.1690   41.9120 C   0  0  0  0  0  0  0  0  0  0  0  0
   39.2420   24.4330   41.9510 N   0  0  0  0  0  0  0  0  0  0  0  0
   39.6610   25.6590   42.2880 C   0  0  0  0  0  0  0  0  0  0  0  0
   38.7740   26.6410   42.5920 N   0  0  0  0  0  0  0  0  0  0  0  0
   35.9280   25.0420   42.2160 H   0  0  0  0  0  0  0  0  0  0  0  0
   37.5060   23.2060   41.6500 H   0  0  0  0  0  0  0  0  0  0  0  0
   41.0640   25.9190   42.3230 N   0  0  0  0  0  0  0  0  0  0  0  0
   41.9300   25.4440   43.3830 C   0  0  0  0  0  2  0  0  0  0  0  0
   43.3430   25.6160   42.8880 C   0  0  0  0  0  2  0  0  0  0  0  0
   43.1480   25.7910   41.3970 C   0  0  0  0  0  2  0  0  0  0  0  0
   41.8810   26.6570   41.3810 C   0  0  0  0  0  3  0  0  0  0  0  0
   41.4890   26.6360   40.3540 H   0  0  0  0  0  0  0  0  0  0  0  0
   37.5410   28.6640   42.9930 O   0  0  0  0  0  0  0  0  0  0  0  0
   38.6670   31.3890   40.9990 C   0  0  0  0  0  0  0  0  0  0  0  0
   37.5430   31.7410   40.2540 C   0  0  0  0  0  0  0  0  0  0  0  0
   36.3660   30.9980   40.4630 C   0  0  0  0  0  0  0  0  0  0  0  0
   36.3810   30.0040   41.3540 N   0  0  0  0  0  0  0  0  0  0  0  0
   37.5030   29.6950   42.0600 C   0  0  0  0  0  0  0  0  0  0  0  0
   38.6300   30.3780   41.8860 N   0  0  0  0  0  0  0  0  0  0  0  0
   39.5670   31.9650   40.8320 H   0  0  0  0  0  0  0  0  0  0  0  0
   35.5020   31.2810   39.8790 H   0  0  0  0  0  0  0  0  0  0  0  0
   37.6520   32.8770   39.2840 C   0  0  0  0  0  0  0  0  0  0  0  0
   37.1370   32.3780   38.1090 F   0  0  0  0  0  0  0  0  0  0  0  0
   39.0260   33.1170   39.1270 F   0  0  0  0  0  0  0  0  0  0  0  0
   36.9860   33.9540   39.7750 F   0  0  0  0  0  0  0  0  0  0  0  0
  1 18  1  0  0  0  0
  1  2  1  0  0  0  0
  3  1  1  0  0  0  0
  4  9  1  0  0  0  0
  4  1  1  0  0  0  0
  5 10  1  0  0  0  0
  5  4  2  0  0  0  0
  6  7  2  0  0  0  0
  6  5  1  0  0  0  0
  7  8  1  0  0  0  0
  8 12  1  0  0  0  0
  8  9  2  0  0  0  0
 11  6  1  0  0  0  0
 12 13  1  0  0  0  0
 14 13  1  0  0  0  0
 15 14  1  0  0  0  0
 16 15  1  0  0  0  0
 16 12  1  0  0  0  0
 17 16  1  0  0  0  0
 19 24  1  0  0  0  0
 20 21  1  0  0  0  0
 20 19  2  0  0  0  0
 21 22  2  0  0  0  0
 22 23  1  0  0  0  0
 23 18  1  0  0  0  0
 24 23  2  0  0  0  0
 25 19  1  0  0  0  0
 26 21  1  0  0  0  0
 27 30  1  0  0  0  0
 27 20  1  0  0  0  0
 28 27  1  0  0  0  0
 29 27  1  0  0  0  0
M  END
>  <minimizedAffinity>
-5.55402708

$$$$

 OpenBabel03252505553D

 30 32  0  0  0  0  0  0  0  0999 V2000
   39.7440   30.9480   41.7890 C   0  0  0  0  0  0  0  0  0  0  0  0
   40.2640   31.7880   42.3230 H   0  0  0  0  0  0  0  0  0  0  0  0
   40.4760   30.3410   41.2470 H   0  0  0  0  0  0  0  0  0  0  0  0
   38.8290   31.5900   40.8320 C   0  0  0  0  0  0  0  0  0  0  0  0
   38.4350   32.9100   40.7400 C   0  0  0  0  0  0  0  0  0  0  0  0
   37.5650   33.2660   39.7530 C   0  0  0  0  0  0  0  0  0  0  0  0
   37.0890   32.3640   38.8790 N   0  0  0  0  0  0  0  0  0  0  0  0
   37.4740   31.0860   38.9730 C   0  0  0  0  0  0  0  0  0  0  0  0
   38.3390   30.6870   39.9400 N   0  0  0  0  0  0  0  0  0  0  0  0
   38.8840   33.5290   41.4950 H   0  0  0  0  0  0  0  0  0  0  0  0
   37.3030   34.3180   39.7450 H   0  0  0  0  0  0  0  0  0  0  0  0
   36.9570   30.1430   38.0340 N   0  0  0  0  0  0  0  0  0  0  0  0
   35.6030   29.6310   38.0910 C   0  0  0  0  0  2  0  0  0  0  0  0
   35.3450   28.9590   36.7680 C   0  0  0  0  0  2  0  0  0  0  0  0
   36.4500   29.5180   35.8970 C   0  0  0  0  0  2  0  0  0  0  0  0
   37.6140   29.5300   36.8970 C   0  0  0  0  0  3  0  0  0  0  0  0
   38.4060   30.1560   36.4630 H   0  0  0  0  0  0  0  0  0  0  0  0
   38.9750   30.2500   42.7220 O   0  0  0  0  0  0  0  0  0  0  0  0
   37.0340   27.2670   42.7200 C   0  0  0  0  0  0  0  0  0  0  0  0
   37.9060   26.3040   42.2170 C   0  0  0  0  0  0  0  0  0  0  0  0
   39.2060   26.7210   41.8720 C   0  0  0  0  0  0  0  0  0  0  0  0
   39.5370   28.0040   42.0420 N   0  0  0  0  0  0  0  0  0  0  0  0
   38.6510   28.9100   42.5380 C   0  0  0  0  0  0  0  0  0  0  0  0
   37.4170   28.5470   42.8730 N   0  0  0  0  0  0  0  0  0  0  0  0
   36.0380   26.9370   42.9820 H   0  0  0  0  0  0  0  0  0  0  0  0
   39.8720   25.9660   41.4830 H   0  0  0  0  0  0  0  0  0  0  0  0
   37.4170   24.8950   42.0730 C   0  0  0  0  0  0  0  0  0  0  0  0
   38.4620   24.1200   42.5200 F   0  0  0  0  0  0  0  0  0  0  0  0
   37.2380   24.6920   40.6960 F   0  0  0  0  0  0  0  0  0  0  0  0
   36.2660   24.7450   42.7780 F   0  0  0  0  0  0  0  0  0  0  0  0
  1  2  1  0  0  0  0
  1 18  1  0  0  0  0
  3  1  1  0  0  0  0
  4  1  1  0  0  0  0
  5  4  1  0  0  0  0
  5 10  1  0  0  0  0
  6  5  2  0  0  0  0
  7  8  2  0  0  0  0
  7  6  1  0  0  0  0
  8  9  1  0  0  0  0
  9  4  2  0  0  0  0
 11  6  1  0  0  0  0
 12 13  1  0  0  0  0
 12  8  1  0  0  0  0
 14 13  1  0  0  0  0
 15 14  1  0  0  0  0
 15 16  1  0  0  0  0
 16 12  1  0  0  0  0
 17 16  1  0  0  0  0
 19 24  1  0  0  0  0
 19 25  1  0  0  0  0
 20 19  2  0  0  0  0
 21 22  2  0  0  0  0
 21 20  1  0  0  0  0
 22 23  1  0  0  0  0
 23 18  1  0  0  0  0
 23 24  2  0  0  0  0
 26 21  1  0  0  0  0
 27 20  1  0  0  0  0
 27 28  1  0  0  0  0
 27 30  1  0  0  0  0
 29 27  1  0  0  0  0
M  END
>  <minimizedAffinity>
-5.46783018

$$$$

 OpenBabel03252505553D

 30 32  0  0  0  0  0  0  0  0999 V2000
   37.7680   30.3840   39.0520 C   0  0  0  0  0  0  0  0  0  0  0  0
   37.8810   30.3630   37.9360 H   0  0  0  0  0  0  0  0  0  0  0  0
   36.7230   30.2100   39.3250 H   0  0  0  0  0  0  0  0  0  0  0  0
   38.1690   31.7370   39.4690 C   0  0  0  0  0  0  0  0  0  0  0  0
   37.4040   32.8780   39.6100 C   0  0  0  0  0  0  0  0  0  0  0  0
   38.0130   34.0280   40.0150 C   0  0  0  0  0  0  0  0  0  0  0  0
   39.3300   34.0700   40.2750 N   0  0  0  0  0  0  0  0  0  0  0  0
   40.0670   32.9610   40.1360 C   0  0  0  0  0  0  0  0  0  0  0  0
   39.5020   31.7930   39.7360 N   0  0  0  0  0  0  0  0  0  0  0  0
   36.3690   32.7130   39.3720 H   0  0  0  0  0  0  0  0  0  0  0  0
   37.3480   34.8790   40.1030 H   0  0  0  0  0  0  0  0  0  0  0  0
   41.4650   33.0270   40.4180 N   0  0  0  0  0  0  0  0  0  0  0  0
   42.4230   33.6500   39.5280 C   0  0  0  0  0  2  0  0  0  0  0  0
   43.6930   33.8210   40.3200 C   0  0  0  0  0  2  0  0  0  0  0  0
   43.2120   33.6580   41.7470 C   0  0  0  0  0  2  0  0  0  0  0  0
   42.1900   32.5260   41.5680 C   0  0  0  0  0  3  0  0  0  0  0  0
   41.5840   32.4920   42.4840 H   0  0  0  0  0  0  0  0  0  0  0  0
   38.6780   29.4760   39.5980 O   0  0  0  0  0  0  0  0  0  0  0  0
   37.5810   26.1010   39.8680 C   0  0  0  0  0  0  0  0  0  0  0  0
   37.4150   25.9140   41.2390 C   0  0  0  0  0  0  0  0  0  0  0  0
   37.6990   27.0060   42.0820 C   0  0  0  0  0  0  0  0  0  0  0  0
   38.1080   28.1530   41.5350 N   0  0  0  0  0  0  0  0  0  0  0  0
   38.2540   28.2900   40.1880 C   0  0  0  0  0  0  0  0  0  0  0  0
   37.9940   27.2790   39.3660 N   0  0  0  0  0  0  0  0  0  0  0  0
   37.3610   25.2580   39.2280 H   0  0  0  0  0  0  0  0  0  0  0  0
   37.5680   26.8480   43.1420 H   0  0  0  0  0  0  0  0  0  0  0  0
   36.9510   24.5780   41.7310 C   0  0  0  0  0  0  0  0  0  0  0  0
   36.2740   24.8570   42.8970 F   0  0  0  0  0  0  0  0  0  0  0  0
   38.1170   23.8550   42.0290 F   0  0  0  0  0  0  0  0  0  0  0  0
   36.1960   23.9830   40.7720 F   0  0  0  0  0  0  0  0  0  0  0  0
  1  3  1  0  0  0  0
  1  4  1  0  0  0  0
  1 18  1  0  0  0  0
  2  1  1  0  0  0  0
  4  5  2  0  0  0  0
  4  9  1  0  0  0  0
  5  6  1  0  0  0  0
  6 11  1  0  0  0  0
  6  7  2  0  0  0  0
  8  7  1  0  0  0  0
  8 12  1  0  0  0  0
  9  8  2  0  0  0  0
 10  5  1  0  0  0  0
 12 16  1  0  0  0  0
 13 14  1  0  0  0  0
 13 12  1  0  0  0  0
 14 15  1  0  0  0  0
 16 15  1  0  0  0  0
 16 17  1  0  0  0  0
 18 23  1  0  0  0  0
 19 20  1  0  0  0  0
 20 27  1  0  0  0  0
 20 21  2  0  0  0  0
 21 26  1  0  0  0  0
 22 21  1  0  0  0  0
 23 22  2  0  0  0  0
 24 19  2  0  0  0  0
 24 23  1  0  0  0  0
 25 19  1  0  0  0  0
 27 29  1  0  0  0  0
 27 28  1  0  0  0  0
 30 27  1  0  0  0  0
M  END
>  <minimizedAffinity>
-5.13425779

$$$$

 OpenBabel03252505553D

 30 32  0  0  0  0  0  0  0  0999 V2000
   40.9130   32.6960   40.8260 C   0  0  0  0  0  0  0  0  0  0  0  0
   41.5350   31.7740   40.9710 H   0  0  0  0  0  0  0  0  0  0  0  0
   41.0460   33.3730   41.6750 H   0  0  0  0  0  0  0  0  0  0  0  0
   39.5170   32.2320   40.7780 C   0  0  0  0  0  0  0  0  0  0  0  0
   38.3960   32.8600   40.2710 C   0  0  0  0  0  0  0  0  0  0  0  0
   37.1970   32.2180   40.3440 C   0  0  0  0  0  0  0  0  0  0  0  0
   37.0870   30.9980   40.8960 N   0  0  0  0  0  0  0  0  0  0  0  0
   38.1760   30.3940   41.3870 C   0  0  0  0  0  0  0  0  0  0  0  0
   39.3910   30.9970   41.3350 N   0  0  0  0  0  0  0  0  0  0  0  0
   38.6170   33.8280   39.8590 H   0  0  0  0  0  0  0  0  0  0  0  0
   36.3660   32.7730   39.9260 H   0  0  0  0  0  0  0  0  0  0  0  0
   38.0370   29.0980   41.9680 N   0  0  0  0  0  0  0  0  0  0  0  0
   37.4530   28.8760   43.2750 C   0  0  0  0  0  2  0  0  0  0  0  0
   37.1730   27.3990   43.3720 C   0  0  0  0  0  2  0  0  0  0  0  0
   37.2400   26.9590   41.9250 C   0  0  0  0  0  2  0  0  0  0  0  0
   38.4180   27.8080   41.4300 C   0  0  0  0  0  3  0  0  0  0  0  0
   38.4010   27.7730   40.3310 H   0  0  0  0  0  0  0  0  0  0  0  0
   41.2290   33.2430   39.5800 O   0  0  0  0  0  0  0  0  0  0  0  0
   42.1630   31.3380   36.7230 C   0  0  0  0  0  0  0  0  0  0  0  0
   43.5450   31.2140   36.8430 C   0  0  0  0  0  0  0  0  0  0  0  0
   44.1570   31.8180   37.9580 C   0  0  0  0  0  0  0  0  0  0  0  0
   43.3920   32.4720   38.8360 N   0  0  0  0  0  0  0  0  0  0  0  0
   42.0440   32.5670   38.6780 C   0  0  0  0  0  0  0  0  0  0  0  0
   41.4370   32.0070   37.6370 N   0  0  0  0  0  0  0  0  0  0  0  0
   41.7020   30.8700   35.8630 H   0  0  0  0  0  0  0  0  0  0  0  0
   45.2290   31.7160   38.0400 H   0  0  0  0  0  0  0  0  0  0  0  0
   44.2940   30.4550   35.7910 C   0  0  0  0  0  0  0  0  0  0  0  0
   43.3240   30.0480   34.9030 F   0  0  0  0  0  0  0  0  0  0  0  0
   44.8340   29.3340   36.4400 F   0  0  0  0  0  0  0  0  0  0  0  0
   45.2480   31.2570   35.2510 F   0  0  0  0  0  0  0  0  0  0  0  0
  1  2  1  0  0  0  0
  1  3  1  0  0  0  0
  4  1  1  0  0  0  0
  4  9  1  0  0  0  0
  5  6  1  0  0  0  0
  5  4  2  0  0  0  0
  6  7  2  0  0  0  0
  7  8  1  0  0  0  0
  8 12  1  0  0  0  0
  9  8  2  0  0  0  0
 10  5  1  0  0  0  0
 11  6  1  0  0  0  0
 12 13  1  0  0  0  0
 13 14  1  0  0  0  0
 15 14  1  0  0  0  0
 16 15  1  0  0  0  0
 16 12  1  0  0  0  0
 17 16  1  0  0  0  0
 18  1  1  0  0  0  0
 19 20  2  0  0  0  0
 19 24  1  0  0  0  0
 20 21  1  0  0  0  0
 21 26  1  0  0  0  0
 21 22  2  0  0  0  0
 23 22  1  0  0  0  0
 23 18  1  0  0  0  0
 24 23  2  0  0  0  0
 25 19  1  0  0  0  0
 27 29  1  0  0  0  0
 27 20  1  0  0  0  0
 28 27  1  0  0  0  0
 30 27  1  0  0  0  0
M  END
>  <minimizedAffinity>
-5.09798288

$$$$

 OpenBabel03252505553D

 30 32  0  0  0  0  0  0  0  0999 V2000
   36.2980   30.1720   37.7750 C   0  0  0  0  0  0  0  0  0  0  0  0
   36.9460   29.3840   37.3080 H   0  0  0  0  0  0  0  0  0  0  0  0
   35.7380   30.7040   37.0000 H   0  0  0  0  0  0  0  0  0  0  0  0
   37.2210   31.1020   38.4450 C   0  0  0  0  0  0  0  0  0  0  0  0
   36.9600   32.0740   39.3900 C   0  0  0  0  0  0  0  0  0  0  0  0
   37.9980   32.8190   39.8670 C   0  0  0  0  0  0  0  0  0  0  0  0
   39.2550   32.6260   39.4350 N   0  0  0  0  0  0  0  0  0  0  0  0
   39.5020   31.6830   38.5190 C   0  0  0  0  0  0  0  0  0  0  0  0
   38.4990   30.9170   38.0170 N   0  0  0  0  0  0  0  0  0  0  0  0
   35.9190   32.1280   39.6500 H   0  0  0  0  0  0  0  0  0  0  0  0
   37.7140   33.5600   40.6040 H   0  0  0  0  0  0  0  0  0  0  0  0
   40.8460   31.4940   38.0740 N   0  0  0  0  0  0  0  0  0  0  0  0
   41.5140   32.4040   37.1670 C   0  0  0  0  0  2  0  0  0  0  0  0
   42.9800   32.0610   37.2220 C   0  0  0  0  0  2  0  0  0  0  0  0
   43.0760   31.2440   38.4930 C   0  0  0  0  0  2  0  0  0  0  0  0
   41.7760   30.4330   38.4020 C   0  0  0  0  0  3  0  0  0  0  0  0
   41.6020   29.9920   39.3940 H   0  0  0  0  0  0  0  0  0  0  0  0
   35.5120   29.5620   38.7560 O   0  0  0  0  0  0  0  0  0  0  0  0
   36.5810   27.9100   41.7220 C   0  0  0  0  0  0  0  0  0  0  0  0
   37.0090   26.6630   41.2710 C   0  0  0  0  0  0  0  0  0  0  0  0
   36.9170   26.4040   39.8910 C   0  0  0  0  0  0  0  0  0  0  0  0
   36.4290   27.3540   39.0880 N   0  0  0  0  0  0  0  0  0  0  0  0
   36.0230   28.5590   39.5740 C   0  0  0  0  0  0  0  0  0  0  0  0
   36.0980   28.8340   40.8720 N   0  0  0  0  0  0  0  0  0  0  0  0
   36.6560   28.1000   42.7840 H   0  0  0  0  0  0  0  0  0  0  0  0
   37.2510   25.4340   39.5540 H   0  0  0  0  0  0  0  0  0  0  0  0
   37.5370   25.6800   42.2710 C   0  0  0  0  0  0  0  0  0  0  0  0
   36.4270   24.9800   42.6850 F   0  0  0  0  0  0  0  0  0  0  0  0
   38.0320   26.4470   43.3370 F   0  0  0  0  0  0  0  0  0  0  0  0
   38.4970   24.9160   41.6870 F   0  0  0  0  0  0  0  0  0  0  0  0
  1  4  1  0  0  0  0
  1 18  1  0  0  0  0
  2  1  1  0  0  0  0
  3  1  1  0  0  0  0
  4  5  1  0  0  0  0
  5 10  1  0  0  0  0
  5  6  2  0  0  0  0
  6 11  1  0  0  0  0
  7  6  1  0  0  0  0
  8  7  2  0  0  0  0
  9  4  2  0  0  0  0
  9  8  1  0  0  0  0
 12 16  1  0  0  0  0
 12  8  1  0  0  0  0
 13 14  1  0  0  0  0
 13 12  1  0  0  0  0
 14 15  1  0  0  0  0
 16 15  1  0  0  0  0
 16 17  1  0  0  0  0
 18 23  1  0  0  0  0
 19 25  1  0  0  0  0
 20 19  1  0  0  0  0
 20 27  1  0  0  0  0
 21 20  2  0  0  0  0
 22 23  2  0  0  0  0
 22 21  1  0  0  0  0
 23 24  1  0  0  0  0
 24 19  2  0  0  0  0
 26 21  1  0  0  0  0
 27 28  1  0  0  0  0
 27 29  1  0  0  0  0
 30 27  1  0  0  0  0
M  END
>  <minimizedAffinity>
-4.98243046

$$$$

 OpenBabel03252505553D

 30 32  0  0  0  0  0  0  0  0999 V2000
   39.8970   33.6070   39.8930 C   0  0  0  0  0  0  0  0  0  0  0  0
   39.3290   33.3190   38.9680 H   0  0  0  0  0  0  0  0  0  0  0  0
   40.1670   34.6670   39.8500 H   0  0  0  0  0  0  0  0  0  0  0  0
   41.1180   32.7850   39.8840 C   0  0  0  0  0  0  0  0  0  0  0  0
   42.0930   32.6470   40.8510 C   0  0  0  0  0  0  0  0  0  0  0  0
   43.1440   31.8140   40.6070 C   0  0  0  0  0  0  0  0  0  0  0  0
   43.2450   31.1330   39.4530 N   0  0  0  0  0  0  0  0  0  0  0  0
   42.2970   31.2710   38.5180 C   0  0  0  0  0  0  0  0  0  0  0  0
   41.2320   32.0900   38.7200 N   0  0  0  0  0  0  0  0  0  0  0  0
   41.8970   33.2420   41.7240 H   0  0  0  0  0  0  0  0  0  0  0  0
   43.8670   31.7580   41.4110 H   0  0  0  0  0  0  0  0  0  0  0  0
   42.4230   30.5390   37.3000 N   0  0  0  0  0  0  0  0  0  0  0  0
   43.3590   30.8990   36.2540 C   0  0  0  0  0  2  0  0  0  0  0  0
   43.4340   29.7170   35.3240 C   0  0  0  0  0  2  0  0  0  0  0  0
   42.8380   28.6040   36.1610 C   0  0  0  0  0  2  0  0  0  0  0  0
   41.7020   29.3610   36.8620 C   0  0  0  0  0  3  0  0  0  0  0  0
   41.3580   28.7280   37.6920 H   0  0  0  0  0  0  0  0  0  0  0  0
   39.1350   33.2370   41.0030 O   0  0  0  0  0  0  0  0  0  0  0  0
   37.9540   29.9530   41.7020 C   0  0  0  0  0  0  0  0  0  0  0  0
   36.7590   29.8720   40.9900 C   0  0  0  0  0  0  0  0  0  0  0  0
   36.3650   31.0030   40.2500 C   0  0  0  0  0  0  0  0  0  0  0  0
   37.1460   32.0860   40.2640 N   0  0  0  0  0  0  0  0  0  0  0  0
   38.3070   32.1200   40.9750 C   0  0  0  0  0  0  0  0  0  0  0  0
   38.7060   31.0690   41.6830 N   0  0  0  0  0  0  0  0  0  0  0  0
   38.2480   29.0800   42.2680 H   0  0  0  0  0  0  0  0  0  0  0  0
   35.4370   30.9270   39.7030 H   0  0  0  0  0  0  0  0  0  0  0  0
   35.9700   28.6000   41.0540 C   0  0  0  0  0  0  0  0  0  0  0  0
   36.5170   27.8060   40.0720 F   0  0  0  0  0  0  0  0  0  0  0  0
   34.6570   28.9470   40.6970 F   0  0  0  0  0  0  0  0  0  0  0  0
   36.0520   28.0820   42.3060 F   0  0  0  0  0  0  0  0  0  0  0  0
  1 18  1  0  0  0  0
  2  1  1  0  0  0  0
  3  1  1  0  0  0  0
  4  1  1  0  0  0  0
  4  5  1  0  0  0  0
  5 10  1  0  0  0  0
  6  5  2  0  0  0  0
  6 11  1  0  0  0  0
  7  6  1  0  0  0  0
  8  9  1  0  0  0  0
  8  7  2  0  0  0  0
  9  4  2  0  0  0  0
 12  8  1  0  0  0  0
 13 12  1  0  0  0  0
 14 15  1  0  0  0  0
 14 13  1  0  0  0  0
 15 16  1  0  0  0  0
 16 12  1  0  0  0  0
 16 17  1  0  0  0  0
 19 25  1  0  0  0  0
 20 27  1  0  0  0  0
 20 19  2  0  0  0  0
 21 22  2  0  0  0  0
 21 20  1  0  0  0  0
 22 23  1  0  0  0  0
 23 18  1  0  0  0  0
 23 24  2  0  0  0  0
 24 19  1  0  0  0  0
 26 21  1  0  0  0  0
 27 30  1  0  0  0  0
 28 27  1  0  0  0  0
 29 27  1  0  0  0  0
M  END
>  <minimizedAffinity>
-4.97907639

$$$$

 OpenBabel03252505553D

 30 32  0  0  0  0  0  0  0  0999 V2000
   34.9650   27.7840   37.2650 C   0  0  0  0  0  0  0  0  0  0  0  0
   35.1950   26.7340   37.5890 H   0  0  0  0  0  0  0  0  0  0  0  0
   35.2590   27.9250   36.2210 H   0  0  0  0  0  0  0  0  0  0  0  0
   35.7780   28.6550   38.1300 C   0  0  0  0  0  0  0  0  0  0  0  0
   36.1910   29.9570   37.9290 C   0  0  0  0  0  0  0  0  0  0  0  0
   36.9480   30.5590   38.8890 C   0  0  0  0  0  0  0  0  0  0  0  0
   37.2950   29.9140   40.0150 N   0  0  0  0  0  0  0  0  0  0  0  0
   36.8920   28.6520   40.2050 C   0  0  0  0  0  0  0  0  0  0  0  0
   36.1370   28.0130   39.2750 N   0  0  0  0  0  0  0  0  0  0  0  0
   35.8490   30.3590   36.9920 H   0  0  0  0  0  0  0  0  0  0  0  0
   37.2320   31.5790   38.6600 H   0  0  0  0  0  0  0  0  0  0  0  0
   37.2710   27.9840   41.4080 N   0  0  0  0  0  0  0  0  0  0  0  0
   38.6100   27.4830   41.6460 C   0  0  0  0  0  2  0  0  0  0  0  0
   38.6940   27.1740   43.1180 C   0  0  0  0  0  2  0  0  0  0  0  0
   37.5080   27.9310   43.6790 C   0  0  0  0  0  2  0  0  0  0  0  0
   36.4700   27.6790   42.5760 C   0  0  0  0  0  3  0  0  0  0  0  0
   35.6490   28.3910   42.7380 H   0  0  0  0  0  0  0  0  0  0  0  0
   33.6200   28.0380   37.5390 O   0  0  0  0  0  0  0  0  0  0  0  0
   31.1320   30.4550   36.7410 C   0  0  0  0  0  0  0  0  0  0  0  0
   31.3800   30.7570   35.4030 C   0  0  0  0  0  0  0  0  0  0  0  0
   32.4490   30.0920   34.7740 C   0  0  0  0  0  0  0  0  0  0  0  0
   33.1660   29.2130   35.4800 N   0  0  0  0  0  0  0  0  0  0  0  0
   32.8860   28.9490   36.7860 C   0  0  0  0  0  0  0  0  0  0  0  0
   31.8830   29.5600   37.4070 N   0  0  0  0  0  0  0  0  0  0  0  0
   30.3090   30.9710   37.2150 H   0  0  0  0  0  0  0  0  0  0  0  0
   32.6320   30.3350   33.7380 H   0  0  0  0  0  0  0  0  0  0  0  0
   30.5050   31.7620   34.7190 C   0  0  0  0  0  0  0  0  0  0  0  0
   31.3530   32.4380   33.8720 F   0  0  0  0  0  0  0  0  0  0  0  0
   30.0610   32.6310   35.7280 F   0  0  0  0  0  0  0  0  0  0  0  0
   29.4840   31.1190   34.0960 F   0  0  0  0  0  0  0  0  0  0  0  0
  1 18  1  0  0  0  0
  1  2  1  0  0  0  0
  1  4  1  0  0  0  0
  3  1  1  0  0  0  0
  4  9  1  0  0  0  0
  5  4  2  0  0  0  0
  5  6  1  0  0  0  0
  6  7  2  0  0  0  0
  7  8  1  0  0  0  0
  8 12  1  0  0  0  0
  9  8  2  0  0  0  0
 10  5  1  0  0  0  0
 11  6  1  0  0  0  0
 12 13  1  0  0  0  0
 12 16  1  0  0  0  0
 13 14  1  0  0  0  0
 14 15  1  0  0  0  0
 16 17  1  0  0  0  0
 16 15  1  0  0  0  0
 19 25  1  0  0  0  0
 19 24  1  0  0  0  0
 20 19  2  0  0  0  0
 21 20  1  0  0  0  0
 21 22  2  0  0  0  0
 22 23  1  0  0  0  0
 23 24  2  0  0  0  0
 23 18  1  0  0  0  0
 26 21  1  0  0  0  0
 27 20  1  0  0  0  0
 27 29  1  0  0  0  0
 28 27  1  0  0  0  0
 30 27  1  0  0  0  0
M  END
>  <minimizedAffinity>
-4.95380783

$$$$
