
 OpenBabel03242513103D

 38 42  0  0  0  0  0  0  0  0999 V2000
   37.2360   28.0060   39.9660 C   0  0  0  0  0  0  0  0  0  0  0  0
   37.1570   27.5090   41.2740 C   0  0  0  0  0  0  0  0  0  0  0  0
   37.3200   28.4130   42.3110 C   0  0  0  0  0  0  0  0  0  0  0  0
   37.5480   29.7180   41.9700 N   0  0  0  0  0  0  0  0  0  0  0  0
   37.6210   30.1780   40.7240 C   0  0  0  0  0  0  0  0  0  0  0  0
   37.4660   29.3190   39.7070 N   0  0  0  0  0  0  0  0  0  0  0  0
   37.1100   27.3090   39.1410 H   0  0  0  0  0  0  0  0  0  0  0  0
   36.9710   32.3440   39.7810 C   0  0  0  0  0  0  0  0  0  0  0  0
   37.8670   31.5840   40.4830 C   0  0  0  0  0  0  0  0  0  0  0  0
   39.0610   32.1140   41.0030 C   0  0  0  0  0  0  0  0  0  0  0  0
   39.3640   33.4570   40.8110 C   0  0  0  0  0  0  0  0  0  0  0  0
   40.3750   34.2930   41.1480 N   0  0  0  0  0  0  0  0  0  0  0  0
   40.0890   35.5280   40.6580 C   0  0  0  0  0  0  0  0  0  0  0  0
   38.8990   35.4410   40.0200 N   0  0  0  0  0  0  0  0  0  0  0  0
   38.4370   34.1830   40.1010 C   0  0  0  0  0  0  0  0  0  0  0  0
   37.2570   33.6930   39.5780 C   0  0  0  0  0  0  0  0  0  0  0  0
   36.0620   31.9060   39.3940 H   0  0  0  0  0  0  0  0  0  0  0  0
   39.7540   31.5140   41.5490 H   0  0  0  0  0  0  0  0  0  0  0  0
   41.2040   33.9930   41.6890 H   0  0  0  0  0  0  0  0  0  0  0  0
   40.7030   36.4120   40.7610 H   0  0  0  0  0  0  0  0  0  0  0  0
   36.5720   34.3130   39.0310 H   0  0  0  0  0  0  0  0  0  0  0  0
   37.2470   27.9440   43.7080 C   0  0  0  0  0  0  0  0  0  0  0  0
   37.2070   29.0290   44.5950 F   0  0  0  0  0  0  0  0  0  0  0  0
   36.0910   27.2340   43.9160 F   0  0  0  0  0  0  0  0  0  0  0  0
   38.3640   27.1800   43.9630 F   0  0  0  0  0  0  0  0  0  0  0  0
   36.9260   26.1840   41.4640 O   0  0  0  0  0  0  0  0  0  0  0  0
   37.6340   25.2050   40.8270 C   0  0  0  0  0  0  0  0  0  0  0  0
   36.9530   24.0410   41.1600 C   0  0  0  0  0  0  0  0  0  0  0  0
   37.9250   22.7300   40.2890 S   0  0  0  0  0  0  0  0  0  0  0  0
   39.0990   24.0150   39.6180 C   0  0  0  0  0  0  0  0  0  0  0  0
   38.6400   24.9130   40.0670 N   0  0  0  0  0  0  0  0  0  0  0  0
   36.0610   23.5370   41.7320 H   0  0  0  0  0  0  0  0  0  0  0  0
   40.1730   23.5760   38.7890 N   0  0  0  0  0  0  0  0  0  0  0  0
   40.2290   22.4330   37.9000 C   0  0  0  0  0  2  0  0  0  0  0  0
   41.7240   22.1740   37.6840 C   0  0  0  0  0  2  0  0  0  0  0  0
   42.2320   23.6170   37.6470 C   0  0  0  0  0  2  0  0  0  0  0  0
   41.4220   24.2550   38.7270 C   0  0  0  0  0  3  0  0  0  0  0  0
   41.2860   25.3450   38.5960 H   0  0  0  0  0  0  0  0  0  0  0  0
  1  2  1  0  0  0  0
  2 26  1  0  0  0  0
  2  3  2  0  0  0  0
  3 22  1  0  0  0  0
  4  3  1  0  0  0  0
  5  4  2  0  0  0  0
  6  1  2  0  0  0  0
  6  5  1  0  0  0  0
  7  1  1  0  0  0  0
  8  9  1  0  0  0  0
  9  5  1  0  0  0  0
  9 10  2  0  0  0  0
 10 18  1  0  0  0  0
 11 10  1  0  0  0  0
 11 12  1  0  0  0  0
 12 19  1  0  0  0  0
 13 20  1  0  0  0  0
 13 12  1  0  0  0  0
 14 15  1  0  0  0  0
 14 13  2  0  0  0  0
 15 11  2  0  0  0  0
 16  8  2  0  0  0  0
 16 15  1  0  0  0  0
 17  8  1  0  0  0  0
 21 16  1  0  0  0  0
 22 24  1  0  0  0  0
 22 25  1  0  0  0  0
 22 23  1  0  0  0  0
 27 28  2  0  0  0  0
 27 26  1  0  0  0  0
 28 32  1  0  0  0  0
 29 28  1  0  0  0  0
 30 31  2  0  0  0  0
 30 29  1  0  0  0  0
 31 27  1  0  0  0  0
 33 30  1  0  0  0  0
 34 33  1  0  0  0  0
 35 34  1  0  0  0  0
 36 35  1  0  0  0  0
 36 37  1  0  0  0  0
 37 33  1  0  0  0  0
 38 37  1  0  0  0  0
M  END
>  <minimizedAffinity>
-7.293118

$$$$

 OpenBabel03242513103D

 38 42  0  0  0  0  0  0  0  0999 V2000
   38.9790   27.8350   40.3510 C   0  0  0  0  0  0  0  0  0  0  0  0
   38.5120   27.3490   41.5800 C   0  0  0  0  0  0  0  0  0  0  0  0
   37.9950   28.2700   42.4760 C   0  0  0  0  0  0  0  0  0  0  0  0
   37.9860   29.5810   42.0860 N   0  0  0  0  0  0  0  0  0  0  0  0
   38.4330   30.0310   40.9160 C   0  0  0  0  0  0  0  0  0  0  0  0
   38.9370   29.1550   40.0360 N   0  0  0  0  0  0  0  0  0  0  0  0
   39.3880   27.1240   39.6370 H   0  0  0  0  0  0  0  0  0  0  0  0
   37.2960   31.9780   39.9570 C   0  0  0  0  0  0  0  0  0  0  0  0
   38.3730   31.4450   40.6110 C   0  0  0  0  0  0  0  0  0  0  0  0
   39.4690   32.2250   41.0190 C   0  0  0  0  0  0  0  0  0  0  0  0
   39.4820   33.5910   40.7610 C   0  0  0  0  0  0  0  0  0  0  0  0
   40.3250   34.6260   40.9900 N   0  0  0  0  0  0  0  0  0  0  0  0
   39.7620   35.7550   40.4850 C   0  0  0  0  0  0  0  0  0  0  0  0
   38.5710   35.4030   39.9450 N   0  0  0  0  0  0  0  0  0  0  0  0
   38.3800   34.0840   40.1020 C   0  0  0  0  0  0  0  0  0  0  0  0
   37.2880   33.3450   39.6890 C   0  0  0  0  0  0  0  0  0  0  0  0
   36.4690   31.3500   39.6570 H   0  0  0  0  0  0  0  0  0  0  0  0
   40.3060   31.8020   41.5280 H   0  0  0  0  0  0  0  0  0  0  0  0
   41.2330   34.5230   41.4740 H   0  0  0  0  0  0  0  0  0  0  0  0
   40.1900   36.7470   40.5110 H   0  0  0  0  0  0  0  0  0  0  0  0
   36.4560   33.7910   39.1780 H   0  0  0  0  0  0  0  0  0  0  0  0
   37.4900   27.8140   43.7840 C   0  0  0  0  0  0  0  0  0  0  0  0
   37.1220   28.9040   44.5840 F   0  0  0  0  0  0  0  0  0  0  0  0
   36.3570   27.0550   43.6230 F   0  0  0  0  0  0  0  0  0  0  0  0
   38.4910   27.1020   44.4060 F   0  0  0  0  0  0  0  0  0  0  0  0
   38.5840   26.0160   41.8330 O   0  0  0  0  0  0  0  0  0  0  0  0
   37.9010   25.0810   41.1090 C   0  0  0  0  0  0  0  0  0  0  0  0
   38.6250   23.9140   41.3150 C   0  0  0  0  0  0  0  0  0  0  0  0
   37.6850   22.6650   40.3280 S   0  0  0  0  0  0  0  0  0  0  0  0
   36.4580   23.9680   39.8040 C   0  0  0  0  0  0  0  0  0  0  0  0
   36.8930   24.8320   40.3350 N   0  0  0  0  0  0  0  0  0  0  0  0
   39.5430   23.3880   41.8230 H   0  0  0  0  0  0  0  0  0  0  0  0
   35.3860   23.5760   38.9490 N   0  0  0  0  0  0  0  0  0  0  0  0
   34.7200   22.2930   38.8510 C   0  0  0  0  0  2  0  0  0  0  0  0
   34.0410   22.3030   37.4780 C   0  0  0  0  0  2  0  0  0  0  0  0
   33.6070   23.7690   37.4180 C   0  0  0  0  0  2  0  0  0  0  0  0
   34.7900   24.4640   38.0110 C   0  0  0  0  0  3  0  0  0  0  0  0
   34.5460   25.4400   38.4710 H   0  0  0  0  0  0  0  0  0  0  0  0
  1  2  1  0  0  0  0
  2 26  1  0  0  0  0
  2  3  2  0  0  0  0
  3 22  1  0  0  0  0
  4  3  1  0  0  0  0
  5  4  2  0  0  0  0
  6  1  2  0  0  0  0
  6  5  1  0  0  0  0
  7  1  1  0  0  0  0
  8  9  1  0  0  0  0
  9  5  1  0  0  0  0
  9 10  2  0  0  0  0
 10 18  1  0  0  0  0
 11 12  1  0  0  0  0
 11 10  1  0  0  0  0
 12 19  1  0  0  0  0
 13 20  1  0  0  0  0
 13 12  1  0  0  0  0
 14 15  1  0  0  0  0
 14 13  2  0  0  0  0
 15 11  2  0  0  0  0
 16  8  2  0  0  0  0
 16 15  1  0  0  0  0
 17  8  1  0  0  0  0
 21 16  1  0  0  0  0
 22 25  1  0  0  0  0
 22 23  1  0  0  0  0
 24 22  1  0  0  0  0
 27 28  2  0  0  0  0
 27 26  1  0  0  0  0
 28 32  1  0  0  0  0
 29 28  1  0  0  0  0
 30 29  1  0  0  0  0
 30 31  2  0  0  0  0
 31 27  1  0  0  0  0
 33 30  1  0  0  0  0
 34 33  1  0  0  0  0
 35 34  1  0  0  0  0
 36 35  1  0  0  0  0
 36 37  1  0  0  0  0
 37 38  1  0  0  0  0
 37 33  1  0  0  0  0
M  END
>  <minimizedAffinity>
-7.22189236

$$$$

 OpenBabel03242513103D

 38 42  0  0  0  0  0  0  0  0999 V2000
   38.7260   31.6720   41.3960 C   0  0  0  0  0  0  0  0  0  0  0  0
   38.6680   32.0280   40.0420 C   0  0  0  0  0  0  0  0  0  0  0  0
   38.3210   31.0390   39.1360 C   0  0  0  0  0  0  0  0  0  0  0  0
   38.0650   29.7930   39.6410 N   0  0  0  0  0  0  0  0  0  0  0  0
   38.1250   29.4670   40.9290 C   0  0  0  0  0  0  0  0  0  0  0  0
   38.4580   30.4100   41.8210 N   0  0  0  0  0  0  0  0  0  0  0  0
   38.9970   32.4370   42.1190 H   0  0  0  0  0  0  0  0  0  0  0  0
   37.1760   27.8670   42.5240 C   0  0  0  0  0  0  0  0  0  0  0  0
   37.8330   28.1130   41.3490 C   0  0  0  0  0  0  0  0  0  0  0  0
   38.2580   27.0820   40.4930 C   0  0  0  0  0  0  0  0  0  0  0  0
   38.0120   25.7550   40.8300 C   0  0  0  0  0  0  0  0  0  0  0  0
   38.2580   24.5420   40.2820 N   0  0  0  0  0  0  0  0  0  0  0  0
   37.7580   23.5890   41.1120 C   0  0  0  0  0  0  0  0  0  0  0  0
   37.2050   24.2280   42.1700 N   0  0  0  0  0  0  0  0  0  0  0  0
   37.3500   25.5540   42.0180 C   0  0  0  0  0  0  0  0  0  0  0  0
   36.9190   26.5440   42.8800 C   0  0  0  0  0  0  0  0  0  0  0  0
   36.8620   28.6820   43.1600 H   0  0  0  0  0  0  0  0  0  0  0  0
   38.7700   27.2820   39.5780 H   0  0  0  0  0  0  0  0  0  0  0  0
   38.7480   24.4130   39.3800 H   0  0  0  0  0  0  0  0  0  0  0  0
   37.7970   22.5210   40.9530 H   0  0  0  0  0  0  0  0  0  0  0  0
   36.4050   26.3210   43.7960 H   0  0  0  0  0  0  0  0  0  0  0  0
   38.2440   31.3580   37.6980 C   0  0  0  0  0  0  0  0  0  0  0  0
   39.4830   31.8120   37.2230 F   0  0  0  0  0  0  0  0  0  0  0  0
   37.9420   30.2340   36.9710 F   0  0  0  0  0  0  0  0  0  0  0  0
   37.2960   32.3410   37.5270 F   0  0  0  0  0  0  0  0  0  0  0  0
   38.9480   33.3080   39.6830 O   0  0  0  0  0  0  0  0  0  0  0  0
   40.0000   34.0130   40.1970 C   0  0  0  0  0  0  0  0  0  0  0  0
   39.4780   35.2870   40.3820 C   0  0  0  0  0  0  0  0  0  0  0  0
   40.9140   36.2230   41.0780 S   0  0  0  0  0  0  0  0  0  0  0  0
   41.9810   34.6960   40.9910 C   0  0  0  0  0  0  0  0  0  0  0  0
   41.2380   33.9950   40.5720 N   0  0  0  0  0  0  0  0  0  0  0  0
   38.5580   36.0090   40.2960 H   0  0  0  0  0  0  0  0  0  0  0  0
   43.3330   34.7950   41.4340 N   0  0  0  0  0  0  0  0  0  0  0  0
   43.8970   35.6590   42.4510 C   0  0  0  0  0  2  0  0  0  0  0  0
   45.3990   35.7000   42.1460 C   0  0  0  0  0  2  0  0  0  0  0  0
   45.6090   34.2510   41.6990 C   0  0  0  0  0  2  0  0  0  0  0  0
   44.3790   33.9980   40.8900 C   0  0  0  0  0  3  0  0  0  0  0  0
   44.0930   32.9300   40.8390 H   0  0  0  0  0  0  0  0  0  0  0  0
  1  6  1  0  0  0  0
  1  7  1  0  0  0  0
  2  1  2  0  0  0  0
  3  4  2  0  0  0  0
  3  2  1  0  0  0  0
  4  5  1  0  0  0  0
  5  9  1  0  0  0  0
  5  6  2  0  0  0  0
  8 16  1  0  0  0  0
  8 17  1  0  0  0  0
  9  8  2  0  0  0  0
 10 11  2  0  0  0  0
 10  9  1  0  0  0  0
 11 15  1  0  0  0  0
 12 11  1  0  0  0  0
 12 13  1  0  0  0  0
 13 14  2  0  0  0  0
 15 14  1  0  0  0  0
 15 16  2  0  0  0  0
 16 21  1  0  0  0  0
 18 10  1  0  0  0  0
 19 12  1  0  0  0  0
 20 13  1  0  0  0  0
 22  3  1  0  0  0  0
 23 22  1  0  0  0  0
 24 22  1  0  0  0  0
 25 22  1  0  0  0  0
 26  2  1  0  0  0  0
 26 27  1  0  0  0  0
 27 28  2  0  0  0  0
 27 31  1  0  0  0  0
 28 29  1  0  0  0  0
 30 29  1  0  0  0  0
 30 33  1  0  0  0  0
 31 30  2  0  0  0  0
 32 28  1  0  0  0  0
 33 34  1  0  0  0  0
 35 34  1  0  0  0  0
 36 35  1  0  0  0  0
 37 33  1  0  0  0  0
 37 36  1  0  0  0  0
 38 37  1  0  0  0  0
M  END
>  <minimizedAffinity>
-6.99048519

$$$$

 OpenBabel03242513103D

 38 42  0  0  0  0  0  0  0  0999 V2000
   37.1750   27.9640   40.0460 C   0  0  0  0  0  0  0  0  0  0  0  0
   37.0940   27.4840   41.3600 C   0  0  0  0  0  0  0  0  0  0  0  0
   37.2670   28.3990   42.3860 C   0  0  0  0  0  0  0  0  0  0  0  0
   37.5060   29.6970   42.0290 N   0  0  0  0  0  0  0  0  0  0  0  0
   37.5820   30.1410   40.7770 C   0  0  0  0  0  0  0  0  0  0  0  0
   37.4160   29.2720   39.7710 N   0  0  0  0  0  0  0  0  0  0  0  0
   37.0410   27.2580   39.2300 H   0  0  0  0  0  0  0  0  0  0  0  0
   36.9490   32.3020   39.8100 C   0  0  0  0  0  0  0  0  0  0  0  0
   37.8390   31.5420   40.5190 C   0  0  0  0  0  0  0  0  0  0  0  0
   39.0400   32.0670   41.0290 C   0  0  0  0  0  0  0  0  0  0  0  0
   39.3560   33.4050   40.8210 C   0  0  0  0  0  0  0  0  0  0  0  0
   40.3750   34.2350   41.1450 N   0  0  0  0  0  0  0  0  0  0  0  0
   40.0990   35.4670   40.6420 C   0  0  0  0  0  0  0  0  0  0  0  0
   38.9060   35.3840   40.0070 N   0  0  0  0  0  0  0  0  0  0  0  0
   38.4330   34.1310   40.1050 C   0  0  0  0  0  0  0  0  0  0  0  0
   37.2470   33.6460   39.5900 C   0  0  0  0  0  0  0  0  0  0  0  0
   36.0350   31.8690   39.4310 H   0  0  0  0  0  0  0  0  0  0  0  0
   39.7290   31.4680   41.5800 H   0  0  0  0  0  0  0  0  0  0  0  0
   41.2030   33.9340   41.6880 H   0  0  0  0  0  0  0  0  0  0  0  0
   40.7210   36.3460   40.7320 H   0  0  0  0  0  0  0  0  0  0  0  0
   36.5660   34.2660   39.0380 H   0  0  0  0  0  0  0  0  0  0  0  0
   37.1920   27.9470   43.7880 C   0  0  0  0  0  0  0  0  0  0  0  0
   37.1740   29.0420   44.6630 F   0  0  0  0  0  0  0  0  0  0  0  0
   36.0250   27.2590   44.0090 F   0  0  0  0  0  0  0  0  0  0  0  0
   38.2960   27.1670   44.0480 F   0  0  0  0  0  0  0  0  0  0  0  0
   36.8500   26.1630   41.5660 O   0  0  0  0  0  0  0  0  0  0  0  0
   37.1620   25.1960   40.6530 C   0  0  0  0  0  0  0  0  0  0  0  0
   38.3940   24.7240   41.0860 C   0  0  0  0  0  0  0  0  0  0  0  0
   38.7970   23.4180   39.8390 S   0  0  0  0  0  0  0  0  0  0  0  0
   37.1970   23.7520   38.9390 C   0  0  0  0  0  0  0  0  0  0  0  0
   36.8040   24.5550   39.5870 N   0  0  0  0  0  0  0  0  0  0  0  0
   39.2660   24.7850   41.8690 H   0  0  0  0  0  0  0  0  0  0  0  0
   36.9080   22.9810   37.7750 N   0  0  0  0  0  0  0  0  0  0  0  0
   37.3070   21.6250   37.4580 C   0  0  0  0  0  2  0  0  0  0  0  0
   37.1600   21.5150   35.9360 C   0  0  0  0  0  2  0  0  0  0  0  0
   35.9000   22.3610   35.7390 C   0  0  0  0  0  2  0  0  0  0  0  0
   36.1330   23.4860   36.6940 C   0  0  0  0  0  3  0  0  0  0  0  0
   35.2020   23.9670   37.0490 H   0  0  0  0  0  0  0  0  0  0  0  0
  1  2  1  0  0  0  0
  2 26  1  0  0  0  0
  2  3  2  0  0  0  0
  3 22  1  0  0  0  0
  4  3  1  0  0  0  0
  5  4  2  0  0  0  0
  6  1  2  0  0  0  0
  6  5  1  0  0  0  0
  7  1  1  0  0  0  0
  8  9  1  0  0  0  0
  9  5  1  0  0  0  0
  9 10  2  0  0  0  0
 10 18  1  0  0  0  0
 11 10  1  0  0  0  0
 11 12  1  0  0  0  0
 12 19  1  0  0  0  0
 13 20  1  0  0  0  0
 13 12  1  0  0  0  0
 14 15  1  0  0  0  0
 14 13  2  0  0  0  0
 15 11  2  0  0  0  0
 16  8  2  0  0  0  0
 16 15  1  0  0  0  0
 17  8  1  0  0  0  0
 21 16  1  0  0  0  0
 22 24  1  0  0  0  0
 22 25  1  0  0  0  0
 22 23  1  0  0  0  0
 27 28  2  0  0  0  0
 27 26  1  0  0  0  0
 28 32  1  0  0  0  0
 29 28  1  0  0  0  0
 30 31  2  0  0  0  0
 30 29  1  0  0  0  0
 31 27  1  0  0  0  0
 33 30  1  0  0  0  0
 34 33  1  0  0  0  0
 35 34  1  0  0  0  0
 36 35  1  0  0  0  0
 36 37  1  0  0  0  0
 37 38  1  0  0  0  0
 37 33  1  0  0  0  0
M  END
>  <minimizedAffinity>
-6.95654106

$$$$

 OpenBabel03242513103D

 38 42  0  0  0  0  0  0  0  0999 V2000
   36.3130   28.3470   40.2540 C   0  0  0  0  0  0  0  0  0  0  0  0
   36.9390   28.6890   41.4600 C   0  0  0  0  0  0  0  0  0  0  0  0
   37.5140   27.6640   42.1940 C   0  0  0  0  0  0  0  0  0  0  0  0
   37.4190   26.4000   41.6790 N   0  0  0  0  0  0  0  0  0  0  0  0
   36.8210   26.0880   40.5330 C   0  0  0  0  0  0  0  0  0  0  0  0
   36.2600   27.0650   39.8090 N   0  0  0  0  0  0  0  0  0  0  0  0
   35.8570   29.1400   39.6660 H   0  0  0  0  0  0  0  0  0  0  0  0
   35.9390   24.3200   39.0830 C   0  0  0  0  0  0  0  0  0  0  0  0
   36.7830   24.7110   40.0870 C   0  0  0  0  0  0  0  0  0  0  0  0
   37.6490   23.8130   40.7360 C   0  0  0  0  0  0  0  0  0  0  0  0
   37.6680   22.4750   40.3610 C   0  0  0  0  0  0  0  0  0  0  0  0
   38.3370   21.3590   40.7370 N   0  0  0  0  0  0  0  0  0  0  0  0
   37.9030   20.3220   39.9730 C   0  0  0  0  0  0  0  0  0  0  0  0
   36.9650   20.8120   39.1280 N   0  0  0  0  0  0  0  0  0  0  0  0
   36.8050   22.1260   39.3480 C   0  0  0  0  0  0  0  0  0  0  0  0
   35.9430   22.9830   38.6910 C   0  0  0  0  0  0  0  0  0  0  0  0
   35.2860   25.0350   38.6040 H   0  0  0  0  0  0  0  0  0  0  0  0
   38.3030   24.1260   41.5180 H   0  0  0  0  0  0  0  0  0  0  0  0
   39.0500   21.3500   41.4860 H   0  0  0  0  0  0  0  0  0  0  0  0
   38.2460   19.2990   40.0330 H   0  0  0  0  0  0  0  0  0  0  0  0
   35.2930   22.6480   37.9060 H   0  0  0  0  0  0  0  0  0  0  0  0
   38.1860   27.9680   43.4710 C   0  0  0  0  0  0  0  0  0  0  0  0
   38.8010   26.8220   43.9950 F   0  0  0  0  0  0  0  0  0  0  0  0
   39.1870   28.8880   43.2800 F   0  0  0  0  0  0  0  0  0  0  0  0
   37.2380   28.4290   44.3560 F   0  0  0  0  0  0  0  0  0  0  0  0
   36.9560   29.9910   41.8490 O   0  0  0  0  0  0  0  0  0  0  0  0
   37.6300   30.9640   41.1660 C   0  0  0  0  0  0  0  0  0  0  0  0
   36.6220   31.6700   40.5240 C   0  0  0  0  0  0  0  0  0  0  0  0
   37.5530   32.9800   39.6090 S   0  0  0  0  0  0  0  0  0  0  0  0
   39.1690   32.3250   40.2710 C   0  0  0  0  0  0  0  0  0  0  0  0
   38.7770   31.4890   40.8750 N   0  0  0  0  0  0  0  0  0  0  0  0
   35.4750   31.7990   40.3120 H   0  0  0  0  0  0  0  0  0  0  0  0
   40.3720   32.9860   39.8810 N   0  0  0  0  0  0  0  0  0  0  0  0
   40.5770   34.3800   39.5430 C   0  0  0  0  0  2  0  0  0  0  0  0
   41.8830   34.4040   38.7430 C   0  0  0  0  0  2  0  0  0  0  0  0
   42.6700   33.3340   39.5040 C   0  0  0  0  0  2  0  0  0  0  0  0
   41.6170   32.3070   39.7660 C   0  0  0  0  0  3  0  0  0  0  0  0
   41.8220   31.6780   40.6520 H   0  0  0  0  0  0  0  0  0  0  0  0
  1  2  1  0  0  0  0
  2 26  1  0  0  0  0
  2  3  2  0  0  0  0
  3 22  1  0  0  0  0
  4  3  1  0  0  0  0
  5  4  2  0  0  0  0
  6  1  2  0  0  0  0
  6  5  1  0  0  0  0
  7  1  1  0  0  0  0
  8  9  1  0  0  0  0
  9  5  1  0  0  0  0
  9 10  2  0  0  0  0
 10 18  1  0  0  0  0
 11 10  1  0  0  0  0
 11 12  1  0  0  0  0
 12 19  1  0  0  0  0
 13 20  1  0  0  0  0
 13 12  1  0  0  0  0
 14 15  1  0  0  0  0
 14 13  2  0  0  0  0
 15 11  2  0  0  0  0
 16  8  2  0  0  0  0
 16 15  1  0  0  0  0
 17  8  1  0  0  0  0
 21 16  1  0  0  0  0
 22 23  1  0  0  0  0
 22 25  1  0  0  0  0
 24 22  1  0  0  0  0
 27 26  1  0  0  0  0
 28 27  2  0  0  0  0
 29 30  1  0  0  0  0
 29 28  1  0  0  0  0
 30 31  2  0  0  0  0
 31 27  1  0  0  0  0
 32 28  1  0  0  0  0
 33 30  1  0  0  0  0
 34 33  1  0  0  0  0
 35 36  1  0  0  0  0
 35 34  1  0  0  0  0
 36 37  1  0  0  0  0
 37 33  1  0  0  0  0
 37 38  1  0  0  0  0
M  END
>  <minimizedAffinity>
-6.93210506

$$$$

 OpenBabel03242513103D

 38 42  0  0  0  0  0  0  0  0999 V2000
   40.5230   31.0770   38.4770 C   0  0  0  0  0  0  0  0  0  0  0  0
   39.2220   31.5420   38.7100 C   0  0  0  0  0  0  0  0  0  0  0  0
   39.0810   32.6870   39.4780 C   0  0  0  0  0  0  0  0  0  0  0  0
   40.2280   33.2690   39.9460 N   0  0  0  0  0  0  0  0  0  0  0  0
   41.4580   32.8170   39.7170 C   0  0  0  0  0  0  0  0  0  0  0  0
   41.6150   31.7120   38.9770 N   0  0  0  0  0  0  0  0  0  0  0  0
   40.6500   30.1800   37.8760 H   0  0  0  0  0  0  0  0  0  0  0  0
   43.8330   33.4200   39.6780 C   0  0  0  0  0  0  0  0  0  0  0  0
   42.6010   33.5170   40.2650 C   0  0  0  0  0  0  0  0  0  0  0  0
   42.3740   34.2900   41.4170 C   0  0  0  0  0  0  0  0  0  0  0  0
   43.4230   34.9920   42.0000 C   0  0  0  0  0  0  0  0  0  0  0  0
   43.5850   35.8080   43.0680 N   0  0  0  0  0  0  0  0  0  0  0  0
   44.8890   36.1910   43.1190 C   0  0  0  0  0  0  0  0  0  0  0  0
   45.5210   35.6030   42.0760 N   0  0  0  0  0  0  0  0  0  0  0  0
   44.6430   34.8650   41.3780 C   0  0  0  0  0  0  0  0  0  0  0  0
   44.8990   34.1150   40.2470 C   0  0  0  0  0  0  0  0  0  0  0  0
   43.9750   32.8170   38.7930 H   0  0  0  0  0  0  0  0  0  0  0  0
   41.4100   34.3610   41.8690 H   0  0  0  0  0  0  0  0  0  0  0  0
   42.8150   36.0670   43.7080 H   0  0  0  0  0  0  0  0  0  0  0  0
   45.3330   36.8430   43.8570 H   0  0  0  0  0  0  0  0  0  0  0  0
   45.8770   34.0570   39.8070 H   0  0  0  0  0  0  0  0  0  0  0  0
   37.7340   33.2200   39.7550 C   0  0  0  0  0  0  0  0  0  0  0  0
   37.8090   34.5300   40.2470 F   0  0  0  0  0  0  0  0  0  0  0  0
   36.9950   33.2840   38.6000 F   0  0  0  0  0  0  0  0  0  0  0  0
   37.1360   32.4080   40.6930 F   0  0  0  0  0  0  0  0  0  0  0  0
   38.1730   30.8600   38.1810 O   0  0  0  0  0  0  0  0  0  0  0  0
   37.6690   29.7190   38.7370 C   0  0  0  0  0  0  0  0  0  0  0  0
   36.3600   29.6810   38.2740 C   0  0  0  0  0  0  0  0  0  0  0  0
   35.6970   28.1320   39.0360 S   0  0  0  0  0  0  0  0  0  0  0  0
   37.3380   27.8080   39.8600 C   0  0  0  0  0  0  0  0  0  0  0  0
   37.8890   28.6900   39.4910 N   0  0  0  0  0  0  0  0  0  0  0  0
   35.5150   30.1820   37.6310 H   0  0  0  0  0  0  0  0  0  0  0  0
   37.4650   26.6390   40.6680 N   0  0  0  0  0  0  0  0  0  0  0  0
   36.7870   25.3650   40.5410 C   0  0  0  0  0  2  0  0  0  0  0  0
   36.9190   24.7080   41.9190 C   0  0  0  0  0  2  0  0  0  0  0  0
   38.3330   25.1640   42.2850 C   0  0  0  0  0  2  0  0  0  0  0  0
   38.3390   26.5730   41.7890 C   0  0  0  0  0  3  0  0  0  0  0  0
   39.3490   26.9520   41.5410 H   0  0  0  0  0  0  0  0  0  0  0  0
  1  2  2  0  0  0  0
  1  6  1  0  0  0  0
  2  3  1  0  0  0  0
  3 22  1  0  0  0  0
  3  4  2  0  0  0  0
  5  4  1  0  0  0  0
  5  9  1  0  0  0  0
  6  5  2  0  0  0  0
  7  1  1  0  0  0  0
  8 16  2  0  0  0  0
  8  9  1  0  0  0  0
  9 10  2  0  0  0  0
 10 18  1  0  0  0  0
 10 11  1  0  0  0  0
 11 12  1  0  0  0  0
 12 13  1  0  0  0  0
 12 19  1  0  0  0  0
 13 20  1  0  0  0  0
 14 13  2  0  0  0  0
 15 11  2  0  0  0  0
 15 14  1  0  0  0  0
 16 15  1  0  0  0  0
 17  8  1  0  0  0  0
 21 16  1  0  0  0  0
 22 23  1  0  0  0  0
 22 25  1  0  0  0  0
 24 22  1  0  0  0  0
 26  2  1  0  0  0  0
 26 27  1  0  0  0  0
 27 31  1  0  0  0  0
 28 27  2  0  0  0  0
 28 29  1  0  0  0  0
 29 30  1  0  0  0  0
 30 33  1  0  0  0  0
 31 30  2  0  0  0  0
 32 28  1  0  0  0  0
 33 37  1  0  0  0  0
 34 33  1  0  0  0  0
 34 35  1  0  0  0  0
 35 36  1  0  0  0  0
 37 36  1  0  0  0  0
 38 37  1  0  0  0  0
M  END
>  <minimizedAffinity>
-6.55852222

$$$$

 OpenBabel03242513103D

 38 42  0  0  0  0  0  0  0  0999 V2000
   36.7180   30.3140   37.2370 C   0  0  0  0  0  0  0  0  0  0  0  0
   36.0890   29.4360   38.1300 C   0  0  0  0  0  0  0  0  0  0  0  0
   36.2430   29.6840   39.4840 C   0  0  0  0  0  0  0  0  0  0  0  0
   36.9990   30.7680   39.8370 N   0  0  0  0  0  0  0  0  0  0  0  0
   37.5920   31.5940   38.9800 C   0  0  0  0  0  0  0  0  0  0  0  0
   37.4550   31.3710   37.6660 N   0  0  0  0  0  0  0  0  0  0  0  0
   36.6070   30.1330   36.1710 H   0  0  0  0  0  0  0  0  0  0  0  0
   37.7770   33.9150   39.7440 C   0  0  0  0  0  0  0  0  0  0  0  0
   38.3700   32.7130   39.4700 C   0  0  0  0  0  0  0  0  0  0  0  0
   39.7480   32.4940   39.6450 C   0  0  0  0  0  0  0  0  0  0  0  0
   40.5590   33.5210   40.1130 C   0  0  0  0  0  0  0  0  0  0  0  0
   41.8730   33.6820   40.3960 N   0  0  0  0  0  0  0  0  0  0  0  0
   42.0630   34.9560   40.8320 C   0  0  0  0  0  0  0  0  0  0  0  0
   40.8570   35.5710   40.8120 N   0  0  0  0  0  0  0  0  0  0  0  0
   39.9230   34.7110   40.3750 C   0  0  0  0  0  0  0  0  0  0  0  0
   38.5730   34.9580   40.2150 C   0  0  0  0  0  0  0  0  0  0  0  0
   36.7150   34.0510   39.5990 H   0  0  0  0  0  0  0  0  0  0  0  0
   40.2020   31.5530   39.4290 H   0  0  0  0  0  0  0  0  0  0  0  0
   42.5750   32.9320   40.2840 H   0  0  0  0  0  0  0  0  0  0  0  0
   43.0040   35.3920   41.1360 H   0  0  0  0  0  0  0  0  0  0  0  0
   38.1350   35.9130   40.4380 H   0  0  0  0  0  0  0  0  0  0  0  0
   35.6030   28.7910   40.4680 C   0  0  0  0  0  0  0  0  0  0  0  0
   35.9000   27.4490   40.1890 F   0  0  0  0  0  0  0  0  0  0  0  0
   36.0870   29.0380   41.7280 F   0  0  0  0  0  0  0  0  0  0  0  0
   34.2410   28.9850   40.4020 F   0  0  0  0  0  0  0  0  0  0  0  0
   35.3670   28.3970   37.6350 O   0  0  0  0  0  0  0  0  0  0  0  0
   34.1030   28.5380   37.1360 C   0  0  0  0  0  0  0  0  0  0  0  0
   33.8760   27.3360   36.4790 C   0  0  0  0  0  0  0  0  0  0  0  0
   32.1640   27.5470   35.8130 S   0  0  0  0  0  0  0  0  0  0  0  0
   32.0600   29.2540   36.5560 C   0  0  0  0  0  0  0  0  0  0  0  0
   33.0600   29.2960   37.0220 N   0  0  0  0  0  0  0  0  0  0  0  0
   34.2780   26.2780   36.1680 H   0  0  0  0  0  0  0  0  0  0  0  0
   30.8580   29.9980   36.3660 N   0  0  0  0  0  0  0  0  0  0  0  0
   29.5030   29.5130   36.2070 C   0  0  0  0  0  2  0  0  0  0  0  0
   28.7440   30.6710   35.5490 C   0  0  0  0  0  2  0  0  0  0  0  0
   29.4090   31.8510   36.2620 C   0  0  0  0  0  2  0  0  0  0  0  0
   30.8390   31.4190   36.3010 C   0  0  0  0  0  3  0  0  0  0  0  0
   31.4170   31.8730   37.1280 H   0  0  0  0  0  0  0  0  0  0  0  0
  1  6  2  0  0  0  0
  1  2  1  0  0  0  0
  2  3  2  0  0  0  0
  3  4  1  0  0  0  0
  3 22  1  0  0  0  0
  5  9  1  0  0  0  0
  5  4  2  0  0  0  0
  6  5  1  0  0  0  0
  7  1  1  0  0  0  0
  8 16  1  0  0  0  0
  9 10  1  0  0  0  0
  9  8  2  0  0  0  0
 10 11  2  0  0  0  0
 11 15  1  0  0  0  0
 11 12  1  0  0  0  0
 12 13  1  0  0  0  0
 13 20  1  0  0  0  0
 14 13  2  0  0  0  0
 15 14  1  0  0  0  0
 16 15  2  0  0  0  0
 16 21  1  0  0  0  0
 17  8  1  0  0  0  0
 18 10  1  0  0  0  0
 19 12  1  0  0  0  0
 22 24  1  0  0  0  0
 23 22  1  0  0  0  0
 25 22  1  0  0  0  0
 26  2  1  0  0  0  0
 27 26  1  0  0  0  0
 28 27  2  0  0  0  0
 29 28  1  0  0  0  0
 29 30  1  0  0  0  0
 30 31  2  0  0  0  0
 31 27  1  0  0  0  0
 32 28  1  0  0  0  0
 33 30  1  0  0  0  0
 34 33  1  0  0  0  0
 35 34  1  0  0  0  0
 35 36  1  0  0  0  0
 36 37  1  0  0  0  0
 37 33  1  0  0  0  0
 37 38  1  0  0  0  0
M  END
>  <minimizedAffinity>
-6.47253799

$$$$

 OpenBabel03242513103D

 38 42  0  0  0  0  0  0  0  0999 V2000
   39.5110   27.2980   40.3580 C   0  0  0  0  0  0  0  0  0  0  0  0
   38.8390   26.9900   41.5490 C   0  0  0  0  0  0  0  0  0  0  0  0
   38.4250   28.0490   42.3400 C   0  0  0  0  0  0  0  0  0  0  0  0
   38.7080   29.3100   41.8910 N   0  0  0  0  0  0  0  0  0  0  0  0
   39.3460   29.5900   40.7580 C   0  0  0  0  0  0  0  0  0  0  0  0
   39.7550   28.5780   39.9800 N   0  0  0  0  0  0  0  0  0  0  0  0
   39.8430   26.4770   39.7270 H   0  0  0  0  0  0  0  0  0  0  0  0
   40.3880   31.2740   39.3150 C   0  0  0  0  0  0  0  0  0  0  0  0
   39.5910   30.9660   40.3830 C   0  0  0  0  0  0  0  0  0  0  0  0
   38.9700   31.9530   41.1700 C   0  0  0  0  0  0  0  0  0  0  0  0
   39.1580   33.2980   40.8700 C   0  0  0  0  0  0  0  0  0  0  0  0
   38.7440   34.4830   41.3760 N   0  0  0  0  0  0  0  0  0  0  0  0
   39.2820   35.4800   40.6240 C   0  0  0  0  0  0  0  0  0  0  0  0
   40.0280   34.8950   39.6570 N   0  0  0  0  0  0  0  0  0  0  0  0
   39.9670   33.5610   39.7890 C   0  0  0  0  0  0  0  0  0  0  0  0
   40.5900   32.6160   38.9970 C   0  0  0  0  0  0  0  0  0  0  0  0
   40.8510   30.4910   38.7300 H   0  0  0  0  0  0  0  0  0  0  0  0
   38.3500   31.7050   42.0010 H   0  0  0  0  0  0  0  0  0  0  0  0
   38.1210   34.5650   42.1970 H   0  0  0  0  0  0  0  0  0  0  0  0
   39.1390   36.5410   40.7750 H   0  0  0  0  0  0  0  0  0  0  0  0
   41.2100   32.8860   38.1640 H   0  0  0  0  0  0  0  0  0  0  0  0
   37.7140   27.7830   43.6040 C   0  0  0  0  0  0  0  0  0  0  0  0
   37.3520   28.9820   44.2340 F   0  0  0  0  0  0  0  0  0  0  0  0
   36.5440   27.1050   43.3650 F   0  0  0  0  0  0  0  0  0  0  0  0
   38.5540   27.0660   44.4260 F   0  0  0  0  0  0  0  0  0  0  0  0
   38.6270   25.6870   41.8700 O   0  0  0  0  0  0  0  0  0  0  0  0
   38.2510   24.7460   40.9550 C   0  0  0  0  0  0  0  0  0  0  0  0
   36.8690   24.7010   41.0820 C   0  0  0  0  0  0  0  0  0  0  0  0
   36.3800   23.4240   39.8370 S   0  0  0  0  0  0  0  0  0  0  0  0
   38.1650   23.1750   39.3580 C   0  0  0  0  0  0  0  0  0  0  0  0
   38.6270   23.9040   40.0460 N   0  0  0  0  0  0  0  0  0  0  0  0
   35.9040   25.1030   41.6150 H   0  0  0  0  0  0  0  0  0  0  0  0
   38.4610   22.2190   38.3410 N   0  0  0  0  0  0  0  0  0  0  0  0
   37.6500   21.8080   37.2140 C   0  0  0  0  0  2  0  0  0  0  0  0
   38.2240   20.4530   36.7870 C   0  0  0  0  0  2  0  0  0  0  0  0
   39.7120   20.7180   37.0280 C   0  0  0  0  0  2  0  0  0  0  0  0
   39.6830   21.4920   38.3050 C   0  0  0  0  0  3  0  0  0  0  0  0
   40.5570   22.1560   38.4420 H   0  0  0  0  0  0  0  0  0  0  0  0
  1  2  1  0  0  0  0
  2 26  1  0  0  0  0
  2  3  2  0  0  0  0
  3 22  1  0  0  0  0
  4  3  1  0  0  0  0
  5  4  2  0  0  0  0
  6  1  2  0  0  0  0
  6  5  1  0  0  0  0
  7  1  1  0  0  0  0
  8  9  1  0  0  0  0
  9  5  1  0  0  0  0
  9 10  2  0  0  0  0
 10 18  1  0  0  0  0
 11 10  1  0  0  0  0
 11 12  1  0  0  0  0
 12 19  1  0  0  0  0
 13 20  1  0  0  0  0
 13 12  1  0  0  0  0
 14 15  1  0  0  0  0
 14 13  2  0  0  0  0
 15 11  2  0  0  0  0
 16  8  2  0  0  0  0
 16 15  1  0  0  0  0
 17  8  1  0  0  0  0
 21 16  1  0  0  0  0
 22 23  1  0  0  0  0
 22 25  1  0  0  0  0
 24 22  1  0  0  0  0
 27 28  2  0  0  0  0
 27 26  1  0  0  0  0
 28 32  1  0  0  0  0
 29 28  1  0  0  0  0
 30 29  1  0  0  0  0
 30 31  2  0  0  0  0
 31 27  1  0  0  0  0
 33 30  1  0  0  0  0
 34 33  1  0  0  0  0
 35 36  1  0  0  0  0
 35 34  1  0  0  0  0
 36 37  1  0  0  0  0
 37 33  1  0  0  0  0
 37 38  1  0  0  0  0
M  END
>  <minimizedAffinity>
-6.44051266

$$$$

 OpenBabel03242513103D

 38 42  0  0  0  0  0  0  0  0999 V2000
   38.8480   27.8730   40.1050 C   0  0  0  0  0  0  0  0  0  0  0  0
   38.2450   27.4390   41.2940 C   0  0  0  0  0  0  0  0  0  0  0  0
   38.0750   28.3740   42.3020 C   0  0  0  0  0  0  0  0  0  0  0  0
   38.5130   29.6460   42.0520 N   0  0  0  0  0  0  0  0  0  0  0  0
   39.0850   30.0460   40.9190 C   0  0  0  0  0  0  0  0  0  0  0  0
   39.2570   29.1570   39.9330 N   0  0  0  0  0  0  0  0  0  0  0  0
   38.9880   27.1510   39.3050 H   0  0  0  0  0  0  0  0  0  0  0  0
   40.8260   31.7700   40.8970 C   0  0  0  0  0  0  0  0  0  0  0  0
   39.5090   31.4220   40.7670 C   0  0  0  0  0  0  0  0  0  0  0  0
   38.5040   32.3640   40.4840 C   0  0  0  0  0  0  0  0  0  0  0  0
   38.8360   33.7050   40.3240 C   0  0  0  0  0  0  0  0  0  0  0  0
   38.1740   34.8550   40.0560 N   0  0  0  0  0  0  0  0  0  0  0  0
   39.0770   35.8700   40.0240 C   0  0  0  0  0  0  0  0  0  0  0  0
   40.2940   35.3330   40.2760 N   0  0  0  0  0  0  0  0  0  0  0  0
   40.1700   34.0100   40.4620 C   0  0  0  0  0  0  0  0  0  0  0  0
   41.1800   33.1090   40.7400 C   0  0  0  0  0  0  0  0  0  0  0  0
   41.5740   31.0220   41.1150 H   0  0  0  0  0  0  0  0  0  0  0  0
   37.4800   32.0840   40.3850 H   0  0  0  0  0  0  0  0  0  0  0  0
   37.1520   34.9010   39.9070 H   0  0  0  0  0  0  0  0  0  0  0  0
   38.8580   36.9120   39.8350 H   0  0  0  0  0  0  0  0  0  0  0  0
   42.2060   33.4110   40.8360 H   0  0  0  0  0  0  0  0  0  0  0  0
   37.4470   27.9720   43.5740 C   0  0  0  0  0  0  0  0  0  0  0  0
   38.2700   27.0810   44.2760 F   0  0  0  0  0  0  0  0  0  0  0  0
   37.2750   29.0620   44.3910 F   0  0  0  0  0  0  0  0  0  0  0  0
   36.2470   27.3620   43.2850 F   0  0  0  0  0  0  0  0  0  0  0  0
   37.8590   26.1410   41.4020 O   0  0  0  0  0  0  0  0  0  0  0  0
   37.0690   25.5190   40.4780 C   0  0  0  0  0  0  0  0  0  0  0  0
   36.8950   24.2450   41.0030 C   0  0  0  0  0  0  0  0  0  0  0  0
   35.8250   23.4210   39.7400 S   0  0  0  0  0  0  0  0  0  0  0  0
   35.8050   24.9740   38.7090 C   0  0  0  0  0  0  0  0  0  0  0  0
   36.4340   25.6120   39.3540 N   0  0  0  0  0  0  0  0  0  0  0  0
   37.1190   23.4840   41.8680 H   0  0  0  0  0  0  0  0  0  0  0  0
   35.0690   24.9610   37.4870 N   0  0  0  0  0  0  0  0  0  0  0  0
   33.8840   24.2010   37.1460 C   0  0  0  0  0  2  0  0  0  0  0  0
   33.8480   24.1930   35.6140 C   0  0  0  0  0  2  0  0  0  0  0  0
   34.3590   25.6080   35.3380 C   0  0  0  0  0  2  0  0  0  0  0  0
   35.4360   25.7510   36.3620 C   0  0  0  0  0  3  0  0  0  0  0  0
   35.6400   26.8000   36.6500 H   0  0  0  0  0  0  0  0  0  0  0  0
  1  2  1  0  0  0  0
  2 26  1  0  0  0  0
  2  3  2  0  0  0  0
  3 22  1  0  0  0  0
  4  3  1  0  0  0  0
  5  4  2  0  0  0  0
  6  1  2  0  0  0  0
  6  5  1  0  0  0  0
  7  1  1  0  0  0  0
  8 17  1  0  0  0  0
  9  8  1  0  0  0  0
  9  5  1  0  0  0  0
 10  9  2  0  0  0  0
 11 15  2  0  0  0  0
 11 10  1  0  0  0  0
 12 11  1  0  0  0  0
 13 12  1  0  0  0  0
 13 14  2  0  0  0  0
 14 15  1  0  0  0  0
 15 16  1  0  0  0  0
 16 21  1  0  0  0  0
 16  8  2  0  0  0  0
 18 10  1  0  0  0  0
 19 12  1  0  0  0  0
 20 13  1  0  0  0  0
 22 23  1  0  0  0  0
 22 24  1  0  0  0  0
 25 22  1  0  0  0  0
 27 28  2  0  0  0  0
 27 26  1  0  0  0  0
 28 32  1  0  0  0  0
 29 28  1  0  0  0  0
 30 31  2  0  0  0  0
 30 29  1  0  0  0  0
 31 27  1  0  0  0  0
 33 30  1  0  0  0  0
 34 33  1  0  0  0  0
 35 34  1  0  0  0  0
 36 35  1  0  0  0  0
 36 37  1  0  0  0  0
 37 38  1  0  0  0  0
 37 33  1  0  0  0  0
M  END
>  <minimizedAffinity>
-6.43136072

$$$$
