
 OpenBabel03252507373D

 35 39  0  0  0  0  0  0  0  0999 V2000
   45.2780   34.8460   43.4460 C   0  0  0  0  0  0  0  0  0  0  0  0
   45.9870   33.7710   44.0180 C   0  0  0  0  0  0  0  0  0  0  0  0
   45.9080   33.5840   45.3810 C   0  0  0  0  0  0  0  0  0  0  0  0
   45.1660   34.4230   46.1020 N   0  0  0  0  0  0  0  0  0  0  0  0
   44.4830   35.4580   45.5480 C   0  0  0  0  0  0  0  0  0  0  0  0
   44.5450   35.6570   44.2360 N   0  0  0  0  0  0  0  0  0  0  0  0
   46.5850   33.0980   43.4300 H   0  0  0  0  0  0  0  0  0  0  0  0
   43.8910   36.1300   46.1330 H   0  0  0  0  0  0  0  0  0  0  0  0
   46.8860   32.7190   47.4450 C   0  0  0  0  0  0  0  0  0  0  0  0
   46.6050   32.5090   46.0880 C   0  0  0  0  0  0  0  0  0  0  0  0
   46.9960   31.3280   45.5270 C   0  0  0  0  0  0  0  0  0  0  0  0
   47.6490   30.3450   46.2330 C   0  0  0  0  0  0  0  0  0  0  0  0
   48.1200   29.1280   45.8900 N   0  0  0  0  0  0  0  0  0  0  0  0
   48.6920   28.5740   47.0310 C   0  0  0  0  0  0  0  0  0  0  0  0
   48.5590   29.4580   48.0280 N   0  0  0  0  0  0  0  0  0  0  0  0
   47.9270   30.5410   47.5610 C   0  0  0  0  0  0  0  0  0  0  0  0
   47.5410   31.7340   48.1620 C   0  0  0  0  0  0  0  0  0  0  0  0
   46.5860   33.6530   47.9120 H   0  0  0  0  0  0  0  0  0  0  0  0
   46.7690   31.1790   44.4610 H   0  0  0  0  0  0  0  0  0  0  0  0
   48.0670   28.6750   44.9470 H   0  0  0  0  0  0  0  0  0  0  0  0
   49.1490   27.5960   47.0500 H   0  0  0  0  0  0  0  0  0  0  0  0
   47.7440   31.9170   49.2100 H   0  0  0  0  0  0  0  0  0  0  0  0
   45.3520   35.0400   42.0720 O   0  0  0  0  0  0  0  0  0  0  0  0
   44.3550   34.5420   41.2370 C   0  0  0  0  0  0  0  0  0  0  0  0
   45.1380   33.8210   40.3880 C   0  0  0  0  0  0  0  0  0  0  0  0
   43.7900   33.1140   39.2210 S   0  0  0  0  0  0  0  0  0  0  0  0
   42.4540   34.0120   40.2170 C   0  0  0  0  0  0  0  0  0  0  0  0
   43.0540   34.5110   40.9850 N   0  0  0  0  0  0  0  0  0  0  0  0
   46.1450   33.4150   40.0040 H   0  0  0  0  0  0  0  0  0  0  0  0
   41.1880   33.7160   39.6300 N   0  0  0  0  0  0  0  0  0  0  0  0
   39.8470   33.3670   40.0150 C   0  0  0  0  0  2  0  0  0  0  0  0
   39.0990   34.5800   39.4310 C   0  0  0  0  0  2  0  0  0  0  0  0
   39.8660   34.7950   38.1210 C   0  0  0  0  0  2  0  0  0  0  0  0
   40.9790   33.7440   38.1710 C   0  0  0  0  0  3  0  0  0  0  0  0
   41.8730   34.1200   37.6760 H   0  0  0  0  0  0  0  0  0  0  0  0
  1  2  2  0  0  0  0
  1  6  1  0  0  0  0
  2  3  1  0  0  0  0
  3 10  1  0  0  0  0
  3  4  2  0  0  0  0
  5  4  1  0  0  0  0
  5  8  1  0  0  0  0
  6  5  2  0  0  0  0
  7  2  1  0  0  0  0
  9 18  1  0  0  0  0
  9 17  1  0  0  0  0
 10  9  2  0  0  0  0
 11 10  1  0  0  0  0
 11 12  2  0  0  0  0
 12 16  1  0  0  0  0
 13 12  1  0  0  0  0
 13 14  1  0  0  0  0
 14 21  1  0  0  0  0
 14 15  2  0  0  0  0
 16 15  1  0  0  0  0
 16 17  2  0  0  0  0
 17 22  1  0  0  0  0
 19 11  1  0  0  0  0
 20 13  1  0  0  0  0
 23  1  1  0  0  0  0
 24 23  1  0  0  0  0
 25 24  2  0  0  0  0
 26 27  1  0  0  0  0
 26 25  1  0  0  0  0
 27 28  2  0  0  0  0
 28 24  1  0  0  0  0
 29 25  1  0  0  0  0
 30 31  1  0  0  0  0
 30 27  1  0  0  0  0
 32 31  1  0  0  0  0
 33 34  1  0  0  0  0
 33 32  1  0  0  0  0
 34 30  1  0  0  0  0
 35 34  1  0  0  0  0
M  END
>  <minimizedAffinity>
-6.55702114

>  <minimizedRMSD>
0.952111125

$$$$
