
 OpenBabel03252501263D

 32 35  0  0  0  0  0  0  0  0999 V2000
   40.1460   33.1050   39.6950 C   0  0  0  0  0  0  0  0  0  0  0  0
   39.1700   34.0040   40.0870 C   0  0  0  0  0  0  0  0  0  0  0  0
   38.0670   33.3150   40.4840 C   0  0  0  0  0  0  0  0  0  0  0  0
   38.3610   32.0150   40.3410 N   0  0  0  0  0  0  0  0  0  0  0  0
   39.6030   31.9050   39.8700 N   0  0  0  0  0  0  0  0  0  0  0  0
   39.2780   35.0900   40.0730 H   0  0  0  0  0  0  0  0  0  0  0  0
   37.1200   33.6740   40.8500 H   0  0  0  0  0  0  0  0  0  0  0  0
   39.1150   29.9230   42.0880 F   0  0  0  0  0  0  0  0  0  0  0  0
   37.9340   29.8700   41.4580 C   0  0  0  0  0  0  0  0  0  0  0  0
   37.5720   30.8910   40.6090 C   0  0  0  0  0  0  0  0  0  0  0  0
   36.3470   30.8380   39.9530 C   0  0  0  0  0  0  0  0  0  0  0  0
   35.4690   29.8020   40.1150 C   0  0  0  0  0  0  0  0  0  0  0  0
   35.8490   28.8010   40.9610 C   0  0  0  0  0  0  0  0  0  0  0  0
   37.0550   28.8220   41.6270 C   0  0  0  0  0  0  0  0  0  0  0  0
   36.0340   31.6410   39.2700 H   0  0  0  0  0  0  0  0  0  0  0  0
   34.5040   29.7350   39.6150 H   0  0  0  0  0  0  0  0  0  0  0  0
   35.1750   27.9630   41.1130 H   0  0  0  0  0  0  0  0  0  0  0  0
   37.3680   27.7350   42.4890 N   0  0  0  0  0  0  0  0  0  0  0  0
   37.8450   27.5570   43.8670 C   0  0  0  0  0  2  0  0  0  0  0  0
   39.0200   26.6250   43.6550 C   0  0  0  0  0  2  0  0  0  0  0  0
   38.6390   25.8110   42.4160 C   0  0  0  0  0  2  0  0  0  0  0  0
   37.2530   26.3270   42.0910 C   0  0  0  0  0  3  0  0  0  0  0  0
   36.5390   25.8240   42.7710 H   0  0  0  0  0  0  0  0  0  0  0  0
   42.8760   34.1460   37.4790 C   0  0  0  0  0  0  0  0  0  0  0  0
   43.9840   34.1340   38.3470 C   0  0  0  0  0  0  0  0  0  0  0  0
   43.7860   33.7710   39.6830 C   0  0  0  0  0  0  0  0  0  0  0  0
   42.5260   33.4570   40.0270 N   0  0  0  0  0  0  0  0  0  0  0  0
   41.4590   33.4630   39.2110 C   0  0  0  0  0  0  0  0  0  0  0  0
   41.6400   33.8120   37.9210 N   0  0  0  0  0  0  0  0  0  0  0  0
   43.0710   34.4340   36.4500 H   0  0  0  0  0  0  0  0  0  0  0  0
   44.9790   34.3900   38.0460 H   0  0  0  0  0  0  0  0  0  0  0  0
   44.5610   33.7260   40.4370 H   0  0  0  0  0  0  0  0  0  0  0  0
  1  5  2  0  0  0  0
  1  2  1  0  0  0  0
  2  3  2  0  0  0  0
  3  7  1  0  0  0  0
  4  3  1  0  0  0  0
  4 10  1  0  0  0  0
  5  4  1  0  0  0  0
  6  2  1  0  0  0  0
  9 14  1  0  0  0  0
  9  8  1  0  0  0  0
 10  9  2  0  0  0  0
 11 12  2  0  0  0  0
 11 10  1  0  0  0  0
 12 13  1  0  0  0  0
 13 17  1  0  0  0  0
 13 14  2  0  0  0  0
 14 18  1  0  0  0  0
 15 11  1  0  0  0  0
 16 12  1  0  0  0  0
 18 19  1  0  0  0  0
 20 19  1  0  0  0  0
 21 20  1  0  0  0  0
 22 21  1  0  0  0  0
 22 18  1  0  0  0  0
 22 23  1  0  0  0  0
 24 29  2  0  0  0  0
 24 25  1  0  0  0  0
 25 26  2  0  0  0  0
 26 27  1  0  0  0  0
 26 32  1  0  0  0  0
 28  1  1  0  0  0  0
 28 27  2  0  0  0  0
 29 28  1  0  0  0  0
 30 24  1  0  0  0  0
 31 25  1  0  0  0  0
M  END
>  <minimizedAffinity>
-5.81063795

$$$$

 OpenBabel03252501263D

 32 35  0  0  0  0  0  0  0  0999 V2000
   39.2810   31.6080   39.3190 C   0  0  0  0  0  0  0  0  0  0  0  0
   37.9750   31.5440   38.8630 C   0  0  0  0  0  0  0  0  0  0  0  0
   37.3120   30.5810   39.5560 C   0  0  0  0  0  0  0  0  0  0  0  0
   38.1920   30.0620   40.4220 N   0  0  0  0  0  0  0  0  0  0  0  0
   39.3610   30.6830   40.2710 N   0  0  0  0  0  0  0  0  0  0  0  0
   37.5580   32.1720   38.0740 H   0  0  0  0  0  0  0  0  0  0  0  0
   36.2890   30.2510   39.4770 H   0  0  0  0  0  0  0  0  0  0  0  0
   38.3990   27.3030   39.8370 F   0  0  0  0  0  0  0  0  0  0  0  0
   38.1160   27.6980   41.0850 C   0  0  0  0  0  0  0  0  0  0  0  0
   38.0160   29.0420   41.3650 C   0  0  0  0  0  0  0  0  0  0  0  0
   37.7220   29.4550   42.6590 C   0  0  0  0  0  0  0  0  0  0  0  0
   37.5230   28.5740   43.6860 C   0  0  0  0  0  0  0  0  0  0  0  0
   37.6260   27.2470   43.3850 C   0  0  0  0  0  0  0  0  0  0  0  0
   37.9170   26.8040   42.1140 C   0  0  0  0  0  0  0  0  0  0  0  0
   37.6370   30.5220   42.9080 H   0  0  0  0  0  0  0  0  0  0  0  0
   37.2910   28.8690   44.7080 H   0  0  0  0  0  0  0  0  0  0  0  0
   37.4750   26.5200   44.1780 H   0  0  0  0  0  0  0  0  0  0  0  0
   38.0050   25.4010   41.8930 N   0  0  0  0  0  0  0  0  0  0  0  0
   39.0610   24.4200   41.6090 C   0  0  0  0  0  2  0  0  0  0  0  0
   38.4960   23.7230   40.3890 C   0  0  0  0  0  2  0  0  0  0  0  0
   36.9790   23.8160   40.5670 C   0  0  0  0  0  2  0  0  0  0  0  0
   36.8420   24.5040   41.9090 C   0  0  0  0  0  3  0  0  0  0  0  0
   36.9950   23.7410   42.6960 H   0  0  0  0  0  0  0  0  0  0  0  0
   41.4590   34.5360   38.9580 C   0  0  0  0  0  0  0  0  0  0  0  0
   42.2270   34.1980   37.8290 C   0  0  0  0  0  0  0  0  0  0  0  0
   41.9930   32.9700   37.2020 C   0  0  0  0  0  0  0  0  0  0  0  0
   41.0320   32.2040   37.7460 N   0  0  0  0  0  0  0  0  0  0  0  0
   40.2900   32.5140   38.8230 C   0  0  0  0  0  0  0  0  0  0  0  0
   40.5090   33.6950   39.4340 N   0  0  0  0  0  0  0  0  0  0  0  0
   41.6700   35.4980   39.4170 H   0  0  0  0  0  0  0  0  0  0  0  0
   42.9880   34.8270   37.4160 H   0  0  0  0  0  0  0  0  0  0  0  0
   42.5200   32.6050   36.3300 H   0  0  0  0  0  0  0  0  0  0  0  0
  1  5  2  0  0  0  0
  2  1  1  0  0  0  0
  2  3  2  0  0  0  0
  3  4  1  0  0  0  0
  4 10  1  0  0  0  0
  5  4  1  0  0  0  0
  6  2  1  0  0  0  0
  7  3  1  0  0  0  0
  8  9  1  0  0  0  0
  9 10  2  0  0  0  0
  9 14  1  0  0  0  0
 10 11  1  0  0  0  0
 11 15  1  0  0  0  0
 11 12  2  0  0  0  0
 12 16  1  0  0  0  0
 13 12  1  0  0  0  0
 13 17  1  0  0  0  0
 14 13  2  0  0  0  0
 18 22  1  0  0  0  0
 18 14  1  0  0  0  0
 19 18  1  0  0  0  0
 20 21  1  0  0  0  0
 20 19  1  0  0  0  0
 21 22  1  0  0  0  0
 22 23  1  0  0  0  0
 24 30  1  0  0  0  0
 24 29  1  0  0  0  0
 25 24  2  0  0  0  0
 26 27  2  0  0  0  0
 26 25  1  0  0  0  0
 27 28  1  0  0  0  0
 28  1  1  0  0  0  0
 28 29  2  0  0  0  0
 31 25  1  0  0  0  0
 32 26  1  0  0  0  0
M  END
>  <minimizedAffinity>
-5.65793848

$$$$

 OpenBabel03252501263D

 32 35  0  0  0  0  0  0  0  0999 V2000
   37.6860   31.1100   40.6720 C   0  0  0  0  0  0  0  0  0  0  0  0
   36.3070   31.1460   40.5580 C   0  0  0  0  0  0  0  0  0  0  0  0
   35.8140   29.8940   40.7540 C   0  0  0  0  0  0  0  0  0  0  0  0
   36.8700   29.1030   40.9860 N   0  0  0  0  0  0  0  0  0  0  0  0
   37.9790   29.8400   40.9340 N   0  0  0  0  0  0  0  0  0  0  0  0
   35.7210   32.0410   40.3430 H   0  0  0  0  0  0  0  0  0  0  0  0
   34.7970   29.5400   40.7410 H   0  0  0  0  0  0  0  0  0  0  0  0
   36.9690   27.1060   38.9850 F   0  0  0  0  0  0  0  0  0  0  0  0
   36.9590   26.7530   40.2770 C   0  0  0  0  0  0  0  0  0  0  0  0
   36.9110   27.7280   41.2470 C   0  0  0  0  0  0  0  0  0  0  0  0
   36.9000   27.3640   42.5880 C   0  0  0  0  0  0  0  0  0  0  0  0
   36.9360   26.0590   42.9980 C   0  0  0  0  0  0  0  0  0  0  0  0
   36.9820   25.1100   42.0190 C   0  0  0  0  0  0  0  0  0  0  0  0
   36.9950   25.4360   40.6810 C   0  0  0  0  0  0  0  0  0  0  0  0
   36.8620   28.1240   43.3820 H   0  0  0  0  0  0  0  0  0  0  0  0
   36.9280   25.7460   44.0400 H   0  0  0  0  0  0  0  0  0  0  0  0
   37.0120   24.0630   42.3090 H   0  0  0  0  0  0  0  0  0  0  0  0
   37.0450   24.3790   39.7300 N   0  0  0  0  0  0  0  0  0  0  0  0
   36.0830   23.5600   38.9810 C   0  0  0  0  0  2  0  0  0  0  0  0
   36.5740   22.1620   39.3000 C   0  0  0  0  0  2  0  0  0  0  0  0
   38.0800   22.3280   39.5120 C   0  0  0  0  0  2  0  0  0  0  0  0
   38.2970   23.8000   39.2270 C   0  0  0  0  0  3  0  0  0  0  0  0
   38.3300   23.9290   38.1280 H   0  0  0  0  0  0  0  0  0  0  0  0
   38.8850   34.5360   40.1530 C   0  0  0  0  0  0  0  0  0  0  0  0
   40.2790   34.3820   40.2580 C   0  0  0  0  0  0  0  0  0  0  0  0
   40.7970   33.1070   40.5070 C   0  0  0  0  0  0  0  0  0  0  0  0
   39.8950   32.1190   40.6260 N   0  0  0  0  0  0  0  0  0  0  0  0
   38.5610   32.2500   40.5270 C   0  0  0  0  0  0  0  0  0  0  0  0
   38.0540   33.4750   40.2870 N   0  0  0  0  0  0  0  0  0  0  0  0
   38.5220   35.5410   39.9580 H   0  0  0  0  0  0  0  0  0  0  0  0
   40.9770   35.1880   40.1610 H   0  0  0  0  0  0  0  0  0  0  0  0
   41.8480   32.8700   40.6080 H   0  0  0  0  0  0  0  0  0  0  0  0
  1  5  2  0  0  0  0
  2  1  1  0  0  0  0
  2  3  2  0  0  0  0
  3  4  1  0  0  0  0
  4 10  1  0  0  0  0
  5  4  1  0  0  0  0
  6  2  1  0  0  0  0
  7  3  1  0  0  0  0
  8  9  1  0  0  0  0
  9 14  2  0  0  0  0
  9 10  1  0  0  0  0
 10 11  2  0  0  0  0
 11 12  1  0  0  0  0
 11 15  1  0  0  0  0
 12 16  1  0  0  0  0
 13 17  1  0  0  0  0
 13 12  2  0  0  0  0
 14 13  1  0  0  0  0
 18 14  1  0  0  0  0
 19 20  1  0  0  0  0
 19 18  1  0  0  0  0
 20 21  1  0  0  0  0
 22 21  1  0  0  0  0
 22 18  1  0  0  0  0
 23 22  1  0  0  0  0
 24 25  2  0  0  0  0
 24 29  1  0  0  0  0
 25 26  1  0  0  0  0
 26 32  1  0  0  0  0
 26 27  2  0  0  0  0
 28 27  1  0  0  0  0
 28  1  1  0  0  0  0
 29 28  2  0  0  0  0
 30 24  1  0  0  0  0
 31 25  1  0  0  0  0
M  END
>  <minimizedAffinity>
-5.42123652

$$$$

 OpenBabel03252501263D

 32 35  0  0  0  0  0  0  0  0999 V2000
   42.0600   32.7730   38.6560 C   0  0  0  0  0  0  0  0  0  0  0  0
   41.4210   32.6820   37.4310 C   0  0  0  0  0  0  0  0  0  0  0  0
   40.1920   32.1310   37.6140 C   0  0  0  0  0  0  0  0  0  0  0  0
   40.0760   31.8890   38.9270 N   0  0  0  0  0  0  0  0  0  0  0  0
   41.1970   32.2770   39.5350 N   0  0  0  0  0  0  0  0  0  0  0  0
   41.8460   33.0040   36.4790 H   0  0  0  0  0  0  0  0  0  0  0  0
   39.4190   31.9080   36.8980 H   0  0  0  0  0  0  0  0  0  0  0  0
   40.2730   29.5620   40.5220 F   0  0  0  0  0  0  0  0  0  0  0  0
   39.0990   30.1960   40.4140 C   0  0  0  0  0  0  0  0  0  0  0  0
   39.0080   31.3290   39.6370 C   0  0  0  0  0  0  0  0  0  0  0  0
   37.7900   31.9890   39.5230 C   0  0  0  0  0  0  0  0  0  0  0  0
   36.6570   31.5600   40.1580 C   0  0  0  0  0  0  0  0  0  0  0  0
   36.7710   30.4360   40.9230 C   0  0  0  0  0  0  0  0  0  0  0  0
   37.9620   29.7570   41.0580 C   0  0  0  0  0  0  0  0  0  0  0  0
   37.6920   32.8950   38.9080 H   0  0  0  0  0  0  0  0  0  0  0  0
   35.6910   32.0570   40.0860 H   0  0  0  0  0  0  0  0  0  0  0  0
   35.8900   30.0670   41.4410 H   0  0  0  0  0  0  0  0  0  0  0  0
   37.9860   28.5940   41.8760 N   0  0  0  0  0  0  0  0  0  0  0  0
   37.7900   27.1490   41.6980 C   0  0  0  0  0  2  0  0  0  0  0  0
   36.7660   26.8560   42.7750 C   0  0  0  0  0  2  0  0  0  0  0  0
   37.0560   27.8890   43.8660 C   0  0  0  0  0  2  0  0  0  0  0  0
   38.2610   28.6230   43.3180 C   0  0  0  0  0  3  0  0  0  0  0  0
   39.1550   28.0010   43.5200 H   0  0  0  0  0  0  0  0  0  0  0  0
   45.0060   34.2570   40.2580 C   0  0  0  0  0  0  0  0  0  0  0  0
   45.9240   34.3190   39.1930 C   0  0  0  0  0  0  0  0  0  0  0  0
   45.5270   33.8510   37.9370 C   0  0  0  0  0  0  0  0  0  0  0  0
   44.2740   33.3740   37.8560 N   0  0  0  0  0  0  0  0  0  0  0  0
   43.3860   33.3090   38.8620 C   0  0  0  0  0  0  0  0  0  0  0  0
   43.7600   33.7580   40.0770 N   0  0  0  0  0  0  0  0  0  0  0  0
   45.3520   34.6310   41.2180 H   0  0  0  0  0  0  0  0  0  0  0  0
   46.9190   34.7040   39.2860 H   0  0  0  0  0  0  0  0  0  0  0  0
   46.1450   33.8480   37.0490 H   0  0  0  0  0  0  0  0  0  0  0  0
  1 28  1  0  0  0  0
  1  5  2  0  0  0  0
  2  3  2  0  0  0  0
  2  1  1  0  0  0  0
  3  4  1  0  0  0  0
  4  5  1  0  0  0  0
  4 10  1  0  0  0  0
  6  2  1  0  0  0  0
  7  3  1  0  0  0  0
  9  8  1  0  0  0  0
  9 14  1  0  0  0  0
 10  9  2  0  0  0  0
 11 10  1  0  0  0  0
 11 12  2  0  0  0  0
 12 13  1  0  0  0  0
 13 14  2  0  0  0  0
 13 17  1  0  0  0  0
 14 18  1  0  0  0  0
 15 11  1  0  0  0  0
 16 12  1  0  0  0  0
 18 22  1  0  0  0  0
 19 18  1  0  0  0  0
 19 20  1  0  0  0  0
 20 21  1  0  0  0  0
 22 23  1  0  0  0  0
 22 21  1  0  0  0  0
 24 30  1  0  0  0  0
 25 31  1  0  0  0  0
 25 24  2  0  0  0  0
 26 25  1  0  0  0  0
 27 26  2  0  0  0  0
 27 28  1  0  0  0  0
 28 29  2  0  0  0  0
 29 24  1  0  0  0  0
 32 26  1  0  0  0  0
M  END
>  <minimizedAffinity>
-5.41571808

$$$$

 OpenBabel03252501263D

 32 35  0  0  0  0  0  0  0  0999 V2000
   38.0570   27.6440   41.8180 C   0  0  0  0  0  0  0  0  0  0  0  0
   38.1760   28.2290   43.0670 C   0  0  0  0  0  0  0  0  0  0  0  0
   38.2950   29.5740   42.9150 C   0  0  0  0  0  0  0  0  0  0  0  0
   38.2470   29.8130   41.5980 N   0  0  0  0  0  0  0  0  0  0  0  0
   38.1050   28.6540   40.9560 N   0  0  0  0  0  0  0  0  0  0  0  0
   38.1760   27.6860   44.0140 H   0  0  0  0  0  0  0  0  0  0  0  0
   38.4060   30.3480   43.6570 H   0  0  0  0  0  0  0  0  0  0  0  0
   40.6690   31.1340   40.9740 F   0  0  0  0  0  0  0  0  0  0  0  0
   39.5020   31.6770   40.6060 C   0  0  0  0  0  0  0  0  0  0  0  0
   38.3260   31.0310   40.9120 C   0  0  0  0  0  0  0  0  0  0  0  0
   37.1130   31.5920   40.5310 C   0  0  0  0  0  0  0  0  0  0  0  0
   37.0310   32.7790   39.8550 C   0  0  0  0  0  0  0  0  0  0  0  0
   38.2080   33.4020   39.5630 C   0  0  0  0  0  0  0  0  0  0  0  0
   39.4280   32.8730   39.9250 C   0  0  0  0  0  0  0  0  0  0  0  0
   36.1600   31.0960   40.7630 H   0  0  0  0  0  0  0  0  0  0  0  0
   36.0950   33.2410   39.5450 H   0  0  0  0  0  0  0  0  0  0  0  0
   38.1800   34.3460   39.0260 H   0  0  0  0  0  0  0  0  0  0  0  0
   40.6050   33.5930   39.5780 N   0  0  0  0  0  0  0  0  0  0  0  0
   41.4960   33.7020   38.4160 C   0  0  0  0  0  2  0  0  0  0  0  0
   42.8480   33.4660   39.0580 C   0  0  0  0  0  2  0  0  0  0  0  0
   42.6880   33.9940   40.4850 C   0  0  0  0  0  2  0  0  0  0  0  0
   41.2740   34.5350   40.4840 C   0  0  0  0  0  3  0  0  0  0  0  0
   41.2950   35.5330   40.0040 H   0  0  0  0  0  0  0  0  0  0  0  0
   36.7360   24.4290   40.6490 C   0  0  0  0  0  0  0  0  0  0  0  0
   37.6850   23.5180   41.1480 C   0  0  0  0  0  0  0  0  0  0  0  0
   38.7690   24.0130   41.8790 C   0  0  0  0  0  0  0  0  0  0  0  0
   38.8090   25.3450   42.0450 N   0  0  0  0  0  0  0  0  0  0  0  0
   37.9100   26.2270   41.5760 C   0  0  0  0  0  0  0  0  0  0  0  0
   36.8620   25.7590   40.8690 N   0  0  0  0  0  0  0  0  0  0  0  0
   35.9080   24.0060   40.0860 H   0  0  0  0  0  0  0  0  0  0  0  0
   37.6300   22.4590   41.0000 H   0  0  0  0  0  0  0  0  0  0  0  0
   39.5580   23.4090   42.3100 H   0  0  0  0  0  0  0  0  0  0  0  0
  1  2  1  0  0  0  0
  2  6  1  0  0  0  0
  3  2  2  0  0  0  0
  3  7  1  0  0  0  0
  4  3  1  0  0  0  0
  5  4  1  0  0  0  0
  5  1  2  0  0  0  0
  9 10  1  0  0  0  0
  9  8  1  0  0  0  0
 10  4  1  0  0  0  0
 11 15  1  0  0  0  0
 11 10  2  0  0  0  0
 12 11  1  0  0  0  0
 13 12  2  0  0  0  0
 13 14  1  0  0  0  0
 14  9  2  0  0  0  0
 16 12  1  0  0  0  0
 17 13  1  0  0  0  0
 18 14  1  0  0  0  0
 18 22  1  0  0  0  0
 19 20  1  0  0  0  0
 19 18  1  0  0  0  0
 20 21  1  0  0  0  0
 22 21  1  0  0  0  0
 23 22  1  0  0  0  0
 24 29  2  0  0  0  0
 24 25  1  0  0  0  0
 25 26  2  0  0  0  0
 26 27  1  0  0  0  0
 26 32  1  0  0  0  0
 28  1  1  0  0  0  0
 28 27  2  0  0  0  0
 29 28  1  0  0  0  0
 30 24  1  0  0  0  0
 31 25  1  0  0  0  0
M  END
>  <minimizedAffinity>
-5.40732861

$$$$

 OpenBabel03252501263D

 32 35  0  0  0  0  0  0  0  0999 V2000
   39.7410   33.1130   39.3600 C   0  0  0  0  0  0  0  0  0  0  0  0
   38.8050   33.9840   39.8910 C   0  0  0  0  0  0  0  0  0  0  0  0
   37.6050   33.3500   39.9660 C   0  0  0  0  0  0  0  0  0  0  0  0
   37.7990   32.1120   39.4920 N   0  0  0  0  0  0  0  0  0  0  0  0
   39.0770   31.9850   39.1350 N   0  0  0  0  0  0  0  0  0  0  0  0
   39.0090   35.0120   40.1950 H   0  0  0  0  0  0  0  0  0  0  0  0
   36.6530   33.7080   40.3240 H   0  0  0  0  0  0  0  0  0  0  0  0
   37.1180   30.9150   37.0220 F   0  0  0  0  0  0  0  0  0  0  0  0
   36.5510   30.4740   38.1530 C   0  0  0  0  0  0  0  0  0  0  0  0
   36.8870   31.0600   39.3530 C   0  0  0  0  0  0  0  0  0  0  0  0
   36.3000   30.6050   40.5280 C   0  0  0  0  0  0  0  0  0  0  0  0
   35.3900   29.5840   40.5500 C   0  0  0  0  0  0  0  0  0  0  0  0
   35.0720   29.0190   39.3490 C   0  0  0  0  0  0  0  0  0  0  0  0
   35.6350   29.4450   38.1660 C   0  0  0  0  0  0  0  0  0  0  0  0
   36.5510   31.0560   41.4990 H   0  0  0  0  0  0  0  0  0  0  0  0
   34.9150   29.2080   41.4540 H   0  0  0  0  0  0  0  0  0  0  0  0
   34.3530   28.2050   39.3300 H   0  0  0  0  0  0  0  0  0  0  0  0
   35.2440   28.7960   36.9620 N   0  0  0  0  0  0  0  0  0  0  0  0
   35.8980   28.0350   35.8890 C   0  0  0  0  0  2  0  0  0  0  0  0
   35.3980   28.7690   34.6610 C   0  0  0  0  0  2  0  0  0  0  0  0
   34.0240   29.3030   35.0710 C   0  0  0  0  0  2  0  0  0  0  0  0
   33.8600   28.7600   36.4740 C   0  0  0  0  0  3  0  0  0  0  0  0
   33.5420   27.7020   36.3910 H   0  0  0  0  0  0  0  0  0  0  0  0
   42.8810   33.9900   37.6800 C   0  0  0  0  0  0  0  0  0  0  0  0
   43.7920   34.0220   38.7510 C   0  0  0  0  0  0  0  0  0  0  0  0
   43.3240   33.7450   40.0400 C   0  0  0  0  0  0  0  0  0  0  0  0
   42.0140   33.4640   40.1420 N   0  0  0  0  0  0  0  0  0  0  0  0
   41.1320   33.4290   39.1290 C   0  0  0  0  0  0  0  0  0  0  0  0
   41.5740   33.6960   37.8840 N   0  0  0  0  0  0  0  0  0  0  0  0
   43.2830   34.2110   36.6960 H   0  0  0  0  0  0  0  0  0  0  0  0
   44.8330   34.2500   38.6420 H   0  0  0  0  0  0  0  0  0  0  0  0
   43.9300   33.7400   40.9360 H   0  0  0  0  0  0  0  0  0  0  0  0
  1  2  1  0  0  0  0
  2  3  2  0  0  0  0
  2  6  1  0  0  0  0
  3  7  1  0  0  0  0
  4  3  1  0  0  0  0
  5  1  2  0  0  0  0
  5  4  1  0  0  0  0
  8  9  1  0  0  0  0
  9 14  2  0  0  0  0
  9 10  1  0  0  0  0
 10  4  1  0  0  0  0
 10 11  2  0  0  0  0
 11 12  1  0  0  0  0
 11 15  1  0  0  0  0
 12 16  1  0  0  0  0
 13 12  2  0  0  0  0
 14 13  1  0  0  0  0
 17 13  1  0  0  0  0
 18 14  1  0  0  0  0
 19 18  1  0  0  0  0
 20 21  1  0  0  0  0
 20 19  1  0  0  0  0
 21 22  1  0  0  0  0
 22 18  1  0  0  0  0
 23 22  1  0  0  0  0
 24 29  2  0  0  0  0
 24 25  1  0  0  0  0
 25 26  2  0  0  0  0
 26 27  1  0  0  0  0
 26 32  1  0  0  0  0
 28  1  1  0  0  0  0
 28 27  2  0  0  0  0
 29 28  1  0  0  0  0
 30 24  1  0  0  0  0
 31 25  1  0  0  0  0
M  END
>  <minimizedAffinity>
-5.33688402

$$$$

 OpenBabel03252501263D

 32 35  0  0  0  0  0  0  0  0999 V2000
   38.1520   29.7510   41.7280 C   0  0  0  0  0  0  0  0  0  0  0  0
   38.1320   29.4750   43.0850 C   0  0  0  0  0  0  0  0  0  0  0  0
   38.0540   28.1300   43.2610 C   0  0  0  0  0  0  0  0  0  0  0  0
   38.0260   27.5870   42.0360 N   0  0  0  0  0  0  0  0  0  0  0  0
   38.0860   28.5650   41.1330 N   0  0  0  0  0  0  0  0  0  0  0  0
   38.1730   30.2260   43.8760 H   0  0  0  0  0  0  0  0  0  0  0  0
   38.0180   27.5510   44.1700 H   0  0  0  0  0  0  0  0  0  0  0  0
   36.1990   26.5680   40.1350 F   0  0  0  0  0  0  0  0  0  0  0  0
   37.0610   25.7400   40.7370 C   0  0  0  0  0  0  0  0  0  0  0  0
   37.9490   26.2410   41.6620 C   0  0  0  0  0  0  0  0  0  0  0  0
   38.8450   25.3840   42.2900 C   0  0  0  0  0  0  0  0  0  0  0  0
   38.8880   24.0420   42.0270 C   0  0  0  0  0  0  0  0  0  0  0  0
   37.9990   23.5680   41.1070 C   0  0  0  0  0  0  0  0  0  0  0  0
   37.0980   24.3900   40.4660 C   0  0  0  0  0  0  0  0  0  0  0  0
   39.5640   25.7590   43.0320 H   0  0  0  0  0  0  0  0  0  0  0  0
   39.5790   23.3480   42.5030 H   0  0  0  0  0  0  0  0  0  0  0  0
   38.0060   22.5070   40.8740 H   0  0  0  0  0  0  0  0  0  0  0  0
   36.2080   23.8070   39.5220 N   0  0  0  0  0  0  0  0  0  0  0  0
   34.8830   23.1730   39.5410 C   0  0  0  0  0  2  0  0  0  0  0  0
   35.1640   21.8790   38.8060 C   0  0  0  0  0  2  0  0  0  0  0  0
   36.2990   22.2290   37.8410 C   0  0  0  0  0  2  0  0  0  0  0  0
   36.5000   23.7100   38.0860 C   0  0  0  0  0  3  0  0  0  0  0  0
   35.7140   24.2540   37.5280 H   0  0  0  0  0  0  0  0  0  0  0  0
   39.3800   33.0810   40.8060 C   0  0  0  0  0  0  0  0  0  0  0  0
   38.3220   33.5820   40.0260 C   0  0  0  0  0  0  0  0  0  0  0  0
   37.1980   32.7750   39.8210 C   0  0  0  0  0  0  0  0  0  0  0  0
   37.2290   31.5650   40.4030 N   0  0  0  0  0  0  0  0  0  0  0  0
   38.2310   31.0720   41.1510 C   0  0  0  0  0  0  0  0  0  0  0  0
   39.3180   31.8430   41.3530 N   0  0  0  0  0  0  0  0  0  0  0  0
   40.2350   33.7370   40.9410 H   0  0  0  0  0  0  0  0  0  0  0  0
   38.3240   34.5520   39.5720 H   0  0  0  0  0  0  0  0  0  0  0  0
   36.3280   33.0550   39.2420 H   0  0  0  0  0  0  0  0  0  0  0  0
  1  2  1  0  0  0  0
  2  3  2  0  0  0  0
  2  6  1  0  0  0  0
  3  7  1  0  0  0  0
  4  3  1  0  0  0  0
  5  1  2  0  0  0  0
  5  4  1  0  0  0  0
  8  9  1  0  0  0  0
  9 10  1  0  0  0  0
 10  4  1  0  0  0  0
 10 11  2  0  0  0  0
 11 15  1  0  0  0  0
 12 11  1  0  0  0  0
 12 16  1  0  0  0  0
 13 12  2  0  0  0  0
 14  9  2  0  0  0  0
 14 13  1  0  0  0  0
 17 13  1  0  0  0  0
 18 19  1  0  0  0  0
 18 14  1  0  0  0  0
 20 19  1  0  0  0  0
 21 22  1  0  0  0  0
 21 20  1  0  0  0  0
 22 18  1  0  0  0  0
 23 22  1  0  0  0  0
 24 30  1  0  0  0  0
 24 29  1  0  0  0  0
 25 24  2  0  0  0  0
 26 25  1  0  0  0  0
 26 27  2  0  0  0  0
 27 28  1  0  0  0  0
 28 29  2  0  0  0  0
 28  1  1  0  0  0  0
 31 25  1  0  0  0  0
 32 26  1  0  0  0  0
M  END
>  <minimizedAffinity>
-5.23778296

$$$$

 OpenBabel03252501263D

 32 35  0  0  0  0  0  0  0  0999 V2000
   38.4580   30.3300   41.4090 C   0  0  0  0  0  0  0  0  0  0  0  0
   39.1340   30.0140   42.5750 C   0  0  0  0  0  0  0  0  0  0  0  0
   39.0750   28.6700   42.7700 C   0  0  0  0  0  0  0  0  0  0  0  0
   38.3770   28.1680   41.7420 N   0  0  0  0  0  0  0  0  0  0  0  0
   38.0160   29.1680   40.9390 N   0  0  0  0  0  0  0  0  0  0  0  0
   39.6300   30.7370   43.2260 H   0  0  0  0  0  0  0  0  0  0  0  0
   39.4830   28.0660   43.5640 H   0  0  0  0  0  0  0  0  0  0  0  0
   39.1750   26.7640   39.4210 F   0  0  0  0  0  0  0  0  0  0  0  0
   38.4160   26.1520   40.3390 C   0  0  0  0  0  0  0  0  0  0  0  0
   38.0300   26.8400   41.4670 C   0  0  0  0  0  0  0  0  0  0  0  0
   37.2410   26.2080   42.4210 C   0  0  0  0  0  0  0  0  0  0  0  0
   36.8230   24.9120   42.2910 C   0  0  0  0  0  0  0  0  0  0  0  0
   37.2180   24.2500   41.1650 C   0  0  0  0  0  0  0  0  0  0  0  0
   38.0000   24.8470   40.2000 C   0  0  0  0  0  0  0  0  0  0  0  0
   36.9200   26.7350   43.3310 H   0  0  0  0  0  0  0  0  0  0  0  0
   36.2050   24.3930   43.0220 H   0  0  0  0  0  0  0  0  0  0  0  0
   36.9040   23.2190   41.0290 H   0  0  0  0  0  0  0  0  0  0  0  0
   38.3630   24.0790   39.0580 N   0  0  0  0  0  0  0  0  0  0  0  0
   37.7280   23.6480   37.8060 C   0  0  0  0  0  2  0  0  0  0  0  0
   37.9880   22.1560   37.8410 C   0  0  0  0  0  2  0  0  0  0  0  0
   39.3000   22.0180   38.6160 C   0  0  0  0  0  2  0  0  0  0  0  0
   39.6820   23.4590   38.8850 C   0  0  0  0  0  3  0  0  0  0  0  0
   40.1450   23.8620   37.9640 H   0  0  0  0  0  0  0  0  0  0  0  0
   37.1960   33.1890   39.4910 C   0  0  0  0  0  0  0  0  0  0  0  0
   38.0700   34.2190   39.8840 C   0  0  0  0  0  0  0  0  0  0  0  0
   39.0830   33.9260   40.8020 C   0  0  0  0  0  0  0  0  0  0  0  0
   39.1330   32.6570   41.2370 N   0  0  0  0  0  0  0  0  0  0  0  0
   38.3070   31.6620   40.8720 C   0  0  0  0  0  0  0  0  0  0  0  0
   37.3270   31.9360   39.9870 N   0  0  0  0  0  0  0  0  0  0  0  0
   36.4230   33.4560   38.7770 H   0  0  0  0  0  0  0  0  0  0  0  0
   38.0070   35.2250   39.5210 H   0  0  0  0  0  0  0  0  0  0  0  0
   39.8100   34.6360   41.1740 H   0  0  0  0  0  0  0  0  0  0  0  0
  1  2  1  0  0  0  0
  2  3  2  0  0  0  0
  2  6  1  0  0  0  0
  3  7  1  0  0  0  0
  4  3  1  0  0  0  0
  5  1  2  0  0  0  0
  5  4  1  0  0  0  0
  8  9  1  0  0  0  0
  9 10  1  0  0  0  0
 10  4  1  0  0  0  0
 10 11  2  0  0  0  0
 11 15  1  0  0  0  0
 12 11  1  0  0  0  0
 12 16  1  0  0  0  0
 13 12  2  0  0  0  0
 14  9  2  0  0  0  0
 14 13  1  0  0  0  0
 17 13  1  0  0  0  0
 18 14  1  0  0  0  0
 19 20  1  0  0  0  0
 19 18  1  0  0  0  0
 20 21  1  0  0  0  0
 21 22  1  0  0  0  0
 22 18  1  0  0  0  0
 23 22  1  0  0  0  0
 24 25  2  0  0  0  0
 24 29  1  0  0  0  0
 25 26  1  0  0  0  0
 26 32  1  0  0  0  0
 26 27  2  0  0  0  0
 28 27  1  0  0  0  0
 28  1  1  0  0  0  0
 29 28  2  0  0  0  0
 30 24  1  0  0  0  0
 31 25  1  0  0  0  0
M  END
>  <minimizedAffinity>
-5.21546125

$$$$

 OpenBabel03252501263D

 32 35  0  0  0  0  0  0  0  0999 V2000
   42.2390   30.7110   37.3930 C   0  0  0  0  0  0  0  0  0  0  0  0
   41.7630   29.5540   36.8010 C   0  0  0  0  0  0  0  0  0  0  0  0
   40.5450   29.2570   37.3270 C   0  0  0  0  0  0  0  0  0  0  0  0
   40.2750   30.2150   38.2240 N   0  0  0  0  0  0  0  0  0  0  0  0
   41.2930   31.0750   38.2530 N   0  0  0  0  0  0  0  0  0  0  0  0
   42.2910   28.9790   36.0370 H   0  0  0  0  0  0  0  0  0  0  0  0
   39.8780   28.4380   37.1120 H   0  0  0  0  0  0  0  0  0  0  0  0
   39.7050   28.6070   40.4790 F   0  0  0  0  0  0  0  0  0  0  0  0
   38.8690   29.5970   40.1400 C   0  0  0  0  0  0  0  0  0  0  0  0
   39.1510   30.3770   39.0420 C   0  0  0  0  0  0  0  0  0  0  0  0
   38.2850   31.4040   38.6870 C   0  0  0  0  0  0  0  0  0  0  0  0
   37.1450   31.6820   39.3900 C   0  0  0  0  0  0  0  0  0  0  0  0
   36.8850   30.8960   40.4740 C   0  0  0  0  0  0  0  0  0  0  0  0
   37.7230   29.8700   40.8540 C   0  0  0  0  0  0  0  0  0  0  0  0
   38.4870   32.0410   37.8140 H   0  0  0  0  0  0  0  0  0  0  0  0
   36.4480   32.4800   39.1350 H   0  0  0  0  0  0  0  0  0  0  0  0
   35.9880   31.0900   41.0560 H   0  0  0  0  0  0  0  0  0  0  0  0
   37.3720   29.1030   41.9990 N   0  0  0  0  0  0  0  0  0  0  0  0
   37.7770   29.0270   43.4090 C   0  0  0  0  0  2  0  0  0  0  0  0
   38.0690   27.5470   43.5530 C   0  0  0  0  0  2  0  0  0  0  0  0
   37.1290   26.8760   42.5500 C   0  0  0  0  0  2  0  0  0  0  0  0
   36.3520   28.0460   41.9850 C   0  0  0  0  0  3  0  0  0  0  0  0
   35.5600   28.3090   42.7130 H   0  0  0  0  0  0  0  0  0  0  0  0
   45.5500   31.3580   35.9560 C   0  0  0  0  0  0  0  0  0  0  0  0
   45.9000   32.5820   36.5550 C   0  0  0  0  0  0  0  0  0  0  0  0
   44.9990   33.1750   37.4450 C   0  0  0  0  0  0  0  0  0  0  0  0
   43.8520   32.5080   37.6540 N   0  0  0  0  0  0  0  0  0  0  0  0
   43.5040   31.3390   37.0900 C   0  0  0  0  0  0  0  0  0  0  0  0
   44.3670   30.7590   36.2310 N   0  0  0  0  0  0  0  0  0  0  0  0
   46.2770   30.9280   35.2720 H   0  0  0  0  0  0  0  0  0  0  0  0
   46.8220   33.0930   36.3700 H   0  0  0  0  0  0  0  0  0  0  0  0
   45.1600   34.1120   37.9620 H   0  0  0  0  0  0  0  0  0  0  0  0
  1  5  2  0  0  0  0
  2  3  2  0  0  0  0
  2  1  1  0  0  0  0
  3  4  1  0  0  0  0
  4  5  1  0  0  0  0
  4 10  1  0  0  0  0
  6  2  1  0  0  0  0
  7  3  1  0  0  0  0
  9  8  1  0  0  0  0
  9 14  1  0  0  0  0
 10  9  2  0  0  0  0
 11 10  1  0  0  0  0
 11 12  2  0  0  0  0
 12 13  1  0  0  0  0
 13 14  2  0  0  0  0
 13 17  1  0  0  0  0
 14 18  1  0  0  0  0
 15 11  1  0  0  0  0
 16 12  1  0  0  0  0
 18 19  1  0  0  0  0
 19 20  1  0  0  0  0
 21 20  1  0  0  0  0
 22 18  1  0  0  0  0
 22 21  1  0  0  0  0
 22 23  1  0  0  0  0
 24 29  2  0  0  0  0
 24 25  1  0  0  0  0
 25 26  2  0  0  0  0
 26 27  1  0  0  0  0
 26 32  1  0  0  0  0
 28  1  1  0  0  0  0
 28 27  2  0  0  0  0
 29 28  1  0  0  0  0
 30 24  1  0  0  0  0
 31 25  1  0  0  0  0
M  END
>  <minimizedAffinity>
-5.07519245

$$$$
