
 OpenBabel03252500203D

 19 20  0  0  0  0  0  0  0  0999 V2000
   45.1300   35.4960   43.9740 C   0  0  0  0  0  0  0  0  0  0  0  0
   46.1730   34.6600   43.6050 C   0  0  0  0  0  0  0  0  0  0  0  0
   46.5720   33.7050   44.5500 C   0  0  0  0  0  0  0  0  0  0  0  0
   45.9360   33.6390   45.7580 N   0  0  0  0  0  0  0  0  0  0  0  0
   44.9330   34.4870   46.0360 C   0  0  0  0  0  0  0  0  0  0  0  0
   44.5260   35.4140   45.1540 N   0  0  0  0  0  0  0  0  0  0  0  0
   44.2500   34.4430   47.2880 N   0  0  0  0  0  0  0  0  0  0  0  0
   44.7840   36.2550   43.2710 H   0  0  0  0  0  0  0  0  0  0  0  0
   43.3900   33.8890   47.5300 H   0  0  0  0  0  0  0  0  0  0  0  0
   44.8170   35.0910   47.8820 H   0  0  0  0  0  0  0  0  0  0  0  0
   46.7540   34.8190   42.3300 N   0  0  0  0  0  0  0  0  0  0  0  0
   46.0900   34.3880   41.1010 C   0  0  0  0  0  0  0  0  0  0  0  0
   47.1470   33.3890   40.6100 C   0  0  0  0  0  0  0  0  0  0  0  0
   48.3960   34.2560   40.7390 C   0  0  0  0  0  0  0  0  0  0  0  0
   47.9830   35.3490   41.7220 C   0  0  0  0  0  0  0  0  0  0  0  0
   47.6920   36.2750   41.1790 H   0  0  0  0  0  0  0  0  0  0  0  0
   47.6410   32.8380   44.1910 N   0  0  0  0  0  0  0  0  0  0  0  0
   47.1230   31.9450   44.0680 H   0  0  0  0  0  0  0  0  0  0  0  0
   48.6650   32.9810   44.0680 H   0  0  0  0  0  0  0  0  0  0  0  0
  1  6  1  0  0  0  0
  2  1  2  0  0  0  0
  2  3  1  0  0  0  0
  3  4  2  0  0  0  0
  4  5  1  0  0  0  0
  5  7  1  0  0  0  0
  6  5  2  0  0  0  0
  7  9  1  0  0  0  0
  7 10  1  0  0  0  0
  8  1  1  0  0  0  0
 11  2  1  0  0  0  0
 12 11  1  0  0  0  0
 13 14  1  0  0  0  0
 13 12  1  0  0  0  0
 14 15  1  0  0  0  0
 15 11  1  0  0  0  0
 16 15  1  0  0  0  0
 17  3  1  0  0  0  0
 18 17  1  0  0  0  0
 19 17  1  0  0  0  0
M  END
>  <minimizedAffinity>
-4.87172127

>  <minimizedRMSD>
2.39406347

$$$$
