
 OpenBabel03252507243D

 24 26  0  0  0  0  0  0  0  0999 V2000
   45.6040   33.9660   45.4840 C   0  0  0  0  0  0  0  0  0  0  0  0
   44.6940   35.0060   45.7300 C   0  0  0  0  0  0  0  0  0  0  0  0
   44.4980   35.9500   44.7160 C   0  0  0  0  0  0  0  0  0  0  0  0
   45.2020   35.8060   43.5490 N   0  0  0  0  0  0  0  0  0  0  0  0
   46.0580   34.7960   43.3630 C   0  0  0  0  0  0  0  0  0  0  0  0
   46.2670   33.8810   44.3080 N   0  0  0  0  0  0  0  0  0  0  0  0
   44.1660   35.0670   46.6760 H   0  0  0  0  0  0  0  0  0  0  0  0
   43.8100   36.7680   44.8580 H   0  0  0  0  0  0  0  0  0  0  0  0
   46.7850   34.6930   42.0890 C   0  0  0  0  0  0  0  0  0  0  0  0
   47.9880   35.3670   41.9260 C   0  0  0  0  0  0  0  0  0  0  0  0
   48.7350   35.3220   40.7600 C   0  0  0  0  0  0  0  0  0  0  0  0
   48.1860   34.5390   39.7400 C   0  0  0  0  0  0  0  0  0  0  0  0
   46.9850   33.8660   39.9030 C   0  0  0  0  0  0  0  0  0  0  0  0
   46.2950   33.9510   41.0800 N   0  0  0  0  0  0  0  0  0  0  0  0
   48.4150   35.9730   42.7150 H   0  0  0  0  0  0  0  0  0  0  0  0
   49.6610   35.8380   40.6260 H   0  0  0  0  0  0  0  0  0  0  0  0
   48.6860   34.4330   38.7820 H   0  0  0  0  0  0  0  0  0  0  0  0
   46.5280   33.2550   39.1470 H   0  0  0  0  0  0  0  0  0  0  0  0
   45.8630   32.9700   46.4470 N   0  0  0  0  0  0  0  0  0  0  0  0
   46.7900   31.8460   46.3940 C   0  0  0  0  0  0  0  0  0  0  0  0
   45.8450   30.7080   46.7940 C   0  0  0  0  0  0  0  0  0  0  0  0
   45.2460   31.3250   48.0600 C   0  0  0  0  0  0  0  0  0  0  0  0
   45.2530   32.8160   47.7700 C   0  0  0  0  0  0  0  0  0  0  0  0
   45.9460   33.3340   48.4940 H   0  0  0  0  0  0  0  0  0  0  0  0
  1  2  1  0  0  0  0
  1 19  1  0  0  0  0
  2  7  1  0  0  0  0
  3  8  1  0  0  0  0
  3  2  2  0  0  0  0
  4  3  1  0  0  0  0
  5  4  2  0  0  0  0
  5  6  1  0  0  0  0
  6  1  2  0  0  0  0
  9  5  1  0  0  0  0
 10  9  1  0  0  0  0
 10 15  1  0  0  0  0
 11 10  2  0  0  0  0
 12 13  2  0  0  0  0
 12 11  1  0  0  0  0
 13 14  1  0  0  0  0
 14  9  2  0  0  0  0
 16 11  1  0  0  0  0
 17 12  1  0  0  0  0
 18 13  1  0  0  0  0
 19 23  1  0  0  0  0
 20 19  1  0  0  0  0
 20 21  1  0  0  0  0
 21 22  1  0  0  0  0
 23 22  1  0  0  0  0
 23 24  1  0  0  0  0
M  END
>  <minimizedAffinity>
-5.83883858

>  <minimizedRMSD>
0.160911977

$$$$
