
 OpenBabel03252507273D

 24 26  0  0  0  0  0  0  0  0999 V2000
   38.1400   28.0870   41.8050 C   0  0  0  0  0  0  0  0  0  0  0  0
   36.8270   27.6140   41.6480 C   0  0  0  0  0  0  0  0  0  0  0  0
   35.8680   28.5080   41.1620 C   0  0  0  0  0  0  0  0  0  0  0  0
   36.2630   29.7870   40.8680 N   0  0  0  0  0  0  0  0  0  0  0  0
   37.5260   30.1900   41.0340 C   0  0  0  0  0  0  0  0  0  0  0  0
   38.4630   29.3630   41.4940 N   0  0  0  0  0  0  0  0  0  0  0  0
   36.5750   26.5880   41.8990 H   0  0  0  0  0  0  0  0  0  0  0  0
   34.8460   28.1920   41.0260 H   0  0  0  0  0  0  0  0  0  0  0  0
   37.8910   31.5760   40.7020 C   0  0  0  0  0  0  0  0  0  0  0  0
   37.0530   32.3340   39.8970 C   0  0  0  0  0  0  0  0  0  0  0  0
   37.3210   33.6440   39.5370 C   0  0  0  0  0  0  0  0  0  0  0  0
   38.5160   34.1610   40.0470 C   0  0  0  0  0  0  0  0  0  0  0  0
   39.3540   33.4030   40.8510 C   0  0  0  0  0  0  0  0  0  0  0  0
   39.0310   32.1130   41.1700 N   0  0  0  0  0  0  0  0  0  0  0  0
   36.1270   31.9370   39.5010 H   0  0  0  0  0  0  0  0  0  0  0  0
   36.6820   34.2360   38.9180 H   0  0  0  0  0  0  0  0  0  0  0  0
   38.8280   35.1780   39.8290 H   0  0  0  0  0  0  0  0  0  0  0  0
   40.2800   33.7590   41.2630 H   0  0  0  0  0  0  0  0  0  0  0  0
   39.1700   27.2560   42.2870 N   0  0  0  0  0  0  0  0  0  0  0  0
   40.2000   26.5310   41.5510 C   0  0  0  0  0  2  0  0  0  0  0  0
   40.0250   25.1370   42.1610 C   0  0  0  0  0  2  0  0  0  0  0  0
   40.0720   25.5140   43.6440 C   0  0  0  0  0  2  0  0  0  0  0  0
   39.4700   26.9080   43.6780 C   0  0  0  0  0  3  0  0  0  0  0  0
   40.2530   27.6450   44.0200 H   0  0  0  0  0  0  0  0  0  0  0  0
  1 19  1  0  0  0  0
  2  1  1  0  0  0  0
  2  7  1  0  0  0  0
  3  2  2  0  0  0  0
  4  5  2  0  0  0  0
  4  3  1  0  0  0  0
  5  6  1  0  0  0  0
  6  1  2  0  0  0  0
  8  3  1  0  0  0  0
  9  5  1  0  0  0  0
  9 14  1  0  0  0  0
 10  9  2  0  0  0  0
 11 10  1  0  0  0  0
 11 12  2  0  0  0  0
 12 13  1  0  0  0  0
 13 14  2  0  0  0  0
 13 18  1  0  0  0  0
 15 10  1  0  0  0  0
 16 11  1  0  0  0  0
 17 12  1  0  0  0  0
 19 23  1  0  0  0  0
 20 21  1  0  0  0  0
 20 19  1  0  0  0  0
 21 22  1  0  0  0  0
 22 23  1  0  0  0  0
 23 24  1  0  0  0  0
M  END
>  <minimizedAffinity>
-4.8931222

$$$$

 OpenBabel03252507273D

 24 26  0  0  0  0  0  0  0  0999 V2000
   37.1610   26.9990   41.8040 C   0  0  0  0  0  0  0  0  0  0  0  0
   37.3430   27.2360   43.1760 C   0  0  0  0  0  0  0  0  0  0  0  0
   37.5240   28.5600   43.5870 C   0  0  0  0  0  0  0  0  0  0  0  0
   37.5130   29.5440   42.6330 N   0  0  0  0  0  0  0  0  0  0  0  0
   37.3350   29.2680   41.3380 C   0  0  0  0  0  0  0  0  0  0  0  0
   37.1590   28.0170   40.9140 N   0  0  0  0  0  0  0  0  0  0  0  0
   37.3420   26.4130   43.8840 H   0  0  0  0  0  0  0  0  0  0  0  0
   37.6690   28.7930   44.6300 H   0  0  0  0  0  0  0  0  0  0  0  0
   37.3320   30.3650   40.3590 C   0  0  0  0  0  0  0  0  0  0  0  0
   37.2990   30.0780   39.0020 C   0  0  0  0  0  0  0  0  0  0  0  0
   37.2950   31.0510   38.0160 C   0  0  0  0  0  0  0  0  0  0  0  0
   37.3270   32.3660   38.4880 C   0  0  0  0  0  0  0  0  0  0  0  0
   37.3600   32.6530   39.8440 C   0  0  0  0  0  0  0  0  0  0  0  0
   37.3630   31.6460   40.7690 N   0  0  0  0  0  0  0  0  0  0  0  0
   37.2740   29.0600   38.6330 H   0  0  0  0  0  0  0  0  0  0  0  0
   37.2690   30.8380   36.9690 H   0  0  0  0  0  0  0  0  0  0  0  0
   37.3270   33.2100   37.8050 H   0  0  0  0  0  0  0  0  0  0  0  0
   37.3860   33.6480   40.2500 H   0  0  0  0  0  0  0  0  0  0  0  0
   36.9700   25.6970   41.3000 N   0  0  0  0  0  0  0  0  0  0  0  0
   36.9600   24.4200   42.0030 C   0  0  0  0  0  2  0  0  0  0  0  0
   37.9480   23.6340   41.1350 C   0  0  0  0  0  2  0  0  0  0  0  0
   37.3350   23.9120   39.7600 C   0  0  0  0  0  2  0  0  0  0  0  0
   36.7280   25.2960   39.9110 C   0  0  0  0  0  3  0  0  0  0  0  0
   35.6070   25.2270   39.7990 H   0  0  0  0  0  0  0  0  0  0  0  0
  1  2  1  0  0  0  0
  2  3  2  0  0  0  0
  2  7  1  0  0  0  0
  3  8  1  0  0  0  0
  4  3  1  0  0  0  0
  5  4  2  0  0  0  0
  6  5  1  0  0  0  0
  6  1  2  0  0  0  0
  9 14  1  0  0  0  0
  9  5  1  0  0  0  0
 10  9  2  0  0  0  0
 11 12  2  0  0  0  0
 11 10  1  0  0  0  0
 12 13  1  0  0  0  0
 13 18  1  0  0  0  0
 13 14  2  0  0  0  0
 15 10  1  0  0  0  0
 16 11  1  0  0  0  0
 17 12  1  0  0  0  0
 19  1  1  0  0  0  0
 19 20  1  0  0  0  0
 21 20  1  0  0  0  0
 22 23  1  0  0  0  0
 22 21  1  0  0  0  0
 23 19  1  0  0  0  0
 24 23  1  0  0  0  0
M  END
>  <minimizedAffinity>
-4.85370302

$$$$

 OpenBabel03252507273D

 24 26  0  0  0  0  0  0  0  0999 V2000
   37.1930   26.9630   41.7830 C   0  0  0  0  0  0  0  0  0  0  0  0
   37.3390   27.2630   43.1470 C   0  0  0  0  0  0  0  0  0  0  0  0
   37.4950   28.6070   43.5030 C   0  0  0  0  0  0  0  0  0  0  0  0
   37.4960   29.5470   42.5060 N   0  0  0  0  0  0  0  0  0  0  0  0
   37.3520   29.2110   41.2200 C   0  0  0  0  0  0  0  0  0  0  0  0
   37.2020   27.9410   40.8480 N   0  0  0  0  0  0  0  0  0  0  0  0
   37.3310   26.4730   43.8910 H   0  0  0  0  0  0  0  0  0  0  0  0
   37.6120   28.8870   44.5380 H   0  0  0  0  0  0  0  0  0  0  0  0
   37.3610   30.2640   40.1930 C   0  0  0  0  0  0  0  0  0  0  0  0
   37.2490   31.5950   40.5710 C   0  0  0  0  0  0  0  0  0  0  0  0
   37.2480   32.6460   39.6700 C   0  0  0  0  0  0  0  0  0  0  0  0
   37.3710   32.2700   38.3290 C   0  0  0  0  0  0  0  0  0  0  0  0
   37.4830   30.9410   37.9520 C   0  0  0  0  0  0  0  0  0  0  0  0
   37.4760   29.9480   38.8910 N   0  0  0  0  0  0  0  0  0  0  0  0
   37.1540   31.8880   41.6090 H   0  0  0  0  0  0  0  0  0  0  0  0
   37.1620   33.6730   39.9520 H   0  0  0  0  0  0  0  0  0  0  0  0
   37.3810   33.0110   37.5350 H   0  0  0  0  0  0  0  0  0  0  0  0
   37.5780   30.6080   36.9340 H   0  0  0  0  0  0  0  0  0  0  0  0
   37.0300   25.6380   41.3330 N   0  0  0  0  0  0  0  0  0  0  0  0
   37.1750   24.3840   42.0630 C   0  0  0  0  0  2  0  0  0  0  0  0
   38.1110   23.6320   41.1110 C   0  0  0  0  0  2  0  0  0  0  0  0
   37.3370   23.8320   39.8050 C   0  0  0  0  0  2  0  0  0  0  0  0
   36.6650   25.1820   39.9890 C   0  0  0  0  0  3  0  0  0  0  0  0
   35.5450   25.0430   40.0020 H   0  0  0  0  0  0  0  0  0  0  0  0
  1  2  1  0  0  0  0
  2  3  2  0  0  0  0
  2  7  1  0  0  0  0
  3  8  1  0  0  0  0
  4  3  1  0  0  0  0
  5  4  2  0  0  0  0
  6  5  1  0  0  0  0
  6  1  2  0  0  0  0
  9 10  1  0  0  0  0
  9  5  1  0  0  0  0
 10 15  1  0  0  0  0
 11 16  1  0  0  0  0
 11 10  2  0  0  0  0
 12 11  1  0  0  0  0
 13 12  2  0  0  0  0
 13 14  1  0  0  0  0
 14  9  2  0  0  0  0
 17 12  1  0  0  0  0
 18 13  1  0  0  0  0
 19  1  1  0  0  0  0
 19 20  1  0  0  0  0
 21 20  1  0  0  0  0
 22 23  1  0  0  0  0
 22 21  1  0  0  0  0
 23 24  1  0  0  0  0
 23 19  1  0  0  0  0
M  END
>  <minimizedAffinity>
-4.84865999

$$$$

 OpenBabel03252507273D

 24 26  0  0  0  0  0  0  0  0999 V2000
   37.3080   30.4610   40.4590 C   0  0  0  0  0  0  0  0  0  0  0  0
   35.9490   30.2100   40.2130 C   0  0  0  0  0  0  0  0  0  0  0  0
   35.4260   28.9880   40.6470 C   0  0  0  0  0  0  0  0  0  0  0  0
   36.2650   28.1100   41.2830 N   0  0  0  0  0  0  0  0  0  0  0  0
   37.5540   28.3960   41.4940 C   0  0  0  0  0  0  0  0  0  0  0  0
   38.0830   29.5510   41.0940 N   0  0  0  0  0  0  0  0  0  0  0  0
   35.3340   30.9460   39.7040 H   0  0  0  0  0  0  0  0  0  0  0  0
   34.3870   28.7480   40.4800 H   0  0  0  0  0  0  0  0  0  0  0  0
   38.4070   27.4150   42.1820 C   0  0  0  0  0  0  0  0  0  0  0  0
   39.4410   27.8540   42.9970 C   0  0  0  0  0  0  0  0  0  0  0  0
   40.2900   26.9980   43.6790 C   0  0  0  0  0  0  0  0  0  0  0  0
   40.0300   25.6370   43.4890 C   0  0  0  0  0  0  0  0  0  0  0  0
   38.9970   25.2000   42.6740 C   0  0  0  0  0  0  0  0  0  0  0  0
   38.1940   26.0960   42.0270 N   0  0  0  0  0  0  0  0  0  0  0  0
   39.6440   28.9070   43.1460 H   0  0  0  0  0  0  0  0  0  0  0  0
   41.0880   27.3270   44.3080 H   0  0  0  0  0  0  0  0  0  0  0  0
   40.6320   24.8760   43.9750 H   0  0  0  0  0  0  0  0  0  0  0  0
   38.7630   24.1650   42.5000 H   0  0  0  0  0  0  0  0  0  0  0  0
   37.9200   31.6650   40.0590 N   0  0  0  0  0  0  0  0  0  0  0  0
   39.3330   32.0230   40.0230 C   0  0  0  0  0  2  0  0  0  0  0  0
   39.2870   33.3540   40.7810 C   0  0  0  0  0  2  0  0  0  0  0  0
   38.1630   34.0380   39.9980 C   0  0  0  0  0  2  0  0  0  0  0  0
   37.2720   32.8850   39.5690 C   0  0  0  0  0  3  0  0  0  0  0  0
   37.2780   32.8070   38.4430 H   0  0  0  0  0  0  0  0  0  0  0  0
  1  6  1  0  0  0  0
  2  1  2  0  0  0  0
  2  3  1  0  0  0  0
  3  4  2  0  0  0  0
  4  5  1  0  0  0  0
  5  9  1  0  0  0  0
  6  5  2  0  0  0  0
  7  2  1  0  0  0  0
  8  3  1  0  0  0  0
  9 10  1  0  0  0  0
 10 15  1  0  0  0  0
 10 11  2  0  0  0  0
 11 16  1  0  0  0  0
 12 11  1  0  0  0  0
 12 17  1  0  0  0  0
 13 12  2  0  0  0  0
 14  9  2  0  0  0  0
 14 13  1  0  0  0  0
 18 13  1  0  0  0  0
 19  1  1  0  0  0  0
 20 19  1  0  0  0  0
 20 21  1  0  0  0  0
 22 21  1  0  0  0  0
 23 22  1  0  0  0  0
 23 19  1  0  0  0  0
 24 23  1  0  0  0  0
M  END
>  <minimizedAffinity>
-4.81006241

$$$$

 OpenBabel03252507273D

 24 26  0  0  0  0  0  0  0  0999 V2000
   38.5570   30.0850   41.5000 C   0  0  0  0  0  0  0  0  0  0  0  0
   39.6930   30.0490   42.3240 C   0  0  0  0  0  0  0  0  0  0  0  0
   40.1390   28.7980   42.7600 C   0  0  0  0  0  0  0  0  0  0  0  0
   39.4460   27.6850   42.3600 N   0  0  0  0  0  0  0  0  0  0  0  0
   38.3690   27.7710   41.5730 C   0  0  0  0  0  0  0  0  0  0  0  0
   37.9190   28.9480   41.1400 N   0  0  0  0  0  0  0  0  0  0  0  0
   40.2000   30.9670   42.6080 H   0  0  0  0  0  0  0  0  0  0  0  0
   41.0070   28.7190   43.3960 H   0  0  0  0  0  0  0  0  0  0  0  0
   37.6660   26.5420   41.1750 C   0  0  0  0  0  0  0  0  0  0  0  0
   37.5120   25.5100   42.0910 C   0  0  0  0  0  0  0  0  0  0  0  0
   36.8640   24.3220   41.7980 C   0  0  0  0  0  0  0  0  0  0  0  0
   36.3660   24.2300   40.4950 C   0  0  0  0  0  0  0  0  0  0  0  0
   36.5190   25.2610   39.5810 C   0  0  0  0  0  0  0  0  0  0  0  0
   37.1710   26.4100   39.9320 N   0  0  0  0  0  0  0  0  0  0  0  0
   37.8970   25.5800   43.1000 H   0  0  0  0  0  0  0  0  0  0  0  0
   36.7410   23.5230   42.4960 H   0  0  0  0  0  0  0  0  0  0  0  0
   35.8400   23.3420   40.1550 H   0  0  0  0  0  0  0  0  0  0  0  0
   36.1530   25.2310   38.5710 H   0  0  0  0  0  0  0  0  0  0  0  0
   38.0380   31.3010   41.0120 N   0  0  0  0  0  0  0  0  0  0  0  0
   36.7200   31.5940   40.4610 C   0  0  0  0  0  2  0  0  0  0  0  0
   37.1290   32.2940   39.1610 C   0  0  0  0  0  2  0  0  0  0  0  0
   38.1130   33.3160   39.7370 C   0  0  0  0  0  2  0  0  0  0  0  0
   38.7080   32.6020   40.9390 C   0  0  0  0  0  3  0  0  0  0  0  0
   38.4200   33.1530   41.8810 H   0  0  0  0  0  0  0  0  0  0  0  0
  1  2  1  0  0  0  0
  2  7  1  0  0  0  0
  2  3  2  0  0  0  0
  3  8  1  0  0  0  0
  4  3  1  0  0  0  0
  5  4  2  0  0  0  0
  6  1  2  0  0  0  0
  6  5  1  0  0  0  0
  9  5  1  0  0  0  0
  9 10  1  0  0  0  0
 10 15  1  0  0  0  0
 11 10  2  0  0  0  0
 11 16  1  0  0  0  0
 12 11  1  0  0  0  0
 13 14  1  0  0  0  0
 13 12  2  0  0  0  0
 14  9  2  0  0  0  0
 17 12  1  0  0  0  0
 18 13  1  0  0  0  0
 19  1  1  0  0  0  0
 20 19  1  0  0  0  0
 21 22  1  0  0  0  0
 21 20  1  0  0  0  0
 22 23  1  0  0  0  0
 23 19  1  0  0  0  0
 23 24  1  0  0  0  0
M  END
>  <minimizedAffinity>
-4.6671257

$$$$

 OpenBabel03252507273D

 24 26  0  0  0  0  0  0  0  0999 V2000
   38.1340   29.9010   41.1280 C   0  0  0  0  0  0  0  0  0  0  0  0
   38.5180   30.0110   42.4750 C   0  0  0  0  0  0  0  0  0  0  0  0
   38.4120   28.8690   43.2750 C   0  0  0  0  0  0  0  0  0  0  0  0
   37.9430   27.7150   42.7020 N   0  0  0  0  0  0  0  0  0  0  0  0
   37.5910   27.6610   41.4140 C   0  0  0  0  0  0  0  0  0  0  0  0
   37.6800   28.7310   40.6250 N   0  0  0  0  0  0  0  0  0  0  0  0
   38.8820   30.9540   42.8710 H   0  0  0  0  0  0  0  0  0  0  0  0
   38.6930   28.9040   44.3160 H   0  0  0  0  0  0  0  0  0  0  0  0
   37.0940   26.3950   40.8540 C   0  0  0  0  0  0  0  0  0  0  0  0
   37.0890   25.2500   41.6390 C   0  0  0  0  0  0  0  0  0  0  0  0
   36.6390   24.0200   41.1900 C   0  0  0  0  0  0  0  0  0  0  0  0
   36.1830   24.0080   39.8690 C   0  0  0  0  0  0  0  0  0  0  0  0
   36.1880   25.1510   39.0850 C   0  0  0  0  0  0  0  0  0  0  0  0
   36.6460   26.3370   39.5880 N   0  0  0  0  0  0  0  0  0  0  0  0
   37.4420   25.2580   42.6630 H   0  0  0  0  0  0  0  0  0  0  0  0
   36.6320   23.1340   41.7870 H   0  0  0  0  0  0  0  0  0  0  0  0
   35.8070   23.0970   39.4120 H   0  0  0  0  0  0  0  0  0  0  0  0
   35.8480   25.1860   38.0670 H   0  0  0  0  0  0  0  0  0  0  0  0
   38.2080   30.9990   40.2490 N   0  0  0  0  0  0  0  0  0  0  0  0
   38.7400   32.3380   40.4760 C   0  0  0  0  0  2  0  0  0  0  0  0
   37.5590   33.1780   39.9790 C   0  0  0  0  0  2  0  0  0  0  0  0
   37.3450   32.5110   38.6180 C   0  0  0  0  0  2  0  0  0  0  0  0
   37.7600   31.0690   38.8560 C   0  0  0  0  0  3  0  0  0  0  0  0
   38.6650   30.8320   38.2260 H   0  0  0  0  0  0  0  0  0  0  0  0
  1  2  1  0  0  0  0
  2  7  1  0  0  0  0
  2  3  2  0  0  0  0
  3  8  1  0  0  0  0
  4  3  1  0  0  0  0
  5  4  2  0  0  0  0
  6  1  2  0  0  0  0
  6  5  1  0  0  0  0
  9  5  1  0  0  0  0
  9 10  1  0  0  0  0
 10 15  1  0  0  0  0
 11 10  2  0  0  0  0
 11 16  1  0  0  0  0
 12 11  1  0  0  0  0
 13 14  1  0  0  0  0
 13 12  2  0  0  0  0
 14  9  2  0  0  0  0
 17 12  1  0  0  0  0
 18 13  1  0  0  0  0
 19 20  1  0  0  0  0
 19  1  1  0  0  0  0
 21 20  1  0  0  0  0
 22 23  1  0  0  0  0
 22 21  1  0  0  0  0
 23 19  1  0  0  0  0
 24 23  1  0  0  0  0
M  END
>  <minimizedAffinity>
-4.5966382

$$$$

 OpenBabel03252507273D

 24 26  0  0  0  0  0  0  0  0999 V2000
   37.6480   26.8090   41.1530 C   0  0  0  0  0  0  0  0  0  0  0  0
   36.9600   25.9410   40.2880 C   0  0  0  0  0  0  0  0  0  0  0  0
   36.3520   26.4980   39.1590 C   0  0  0  0  0  0  0  0  0  0  0  0
   36.4610   27.8510   38.9620 N   0  0  0  0  0  0  0  0  0  0  0  0
   37.1280   28.6350   39.8150 C   0  0  0  0  0  0  0  0  0  0  0  0
   37.7180   28.1360   40.8990 N   0  0  0  0  0  0  0  0  0  0  0  0
   36.9090   24.8780   40.4980 H   0  0  0  0  0  0  0  0  0  0  0  0
   35.8120   25.8730   38.4660 H   0  0  0  0  0  0  0  0  0  0  0  0
   37.2110   30.0790   39.5520 C   0  0  0  0  0  0  0  0  0  0  0  0
   37.2550   30.5390   38.2430 C   0  0  0  0  0  0  0  0  0  0  0  0
   37.3340   31.8810   37.9080 C   0  0  0  0  0  0  0  0  0  0  0  0
   37.3670   32.7570   38.9970 C   0  0  0  0  0  0  0  0  0  0  0  0
   37.3230   32.2970   40.3050 C   0  0  0  0  0  0  0  0  0  0  0  0
   37.2460   30.9590   40.5690 N   0  0  0  0  0  0  0  0  0  0  0  0
   37.2290   29.8630   37.3980 H   0  0  0  0  0  0  0  0  0  0  0  0
   37.3680   32.2440   36.9040 H   0  0  0  0  0  0  0  0  0  0  0  0
   37.4290   33.8320   38.8530 H   0  0  0  0  0  0  0  0  0  0  0  0
   37.3470   32.9350   41.1690 H   0  0  0  0  0  0  0  0  0  0  0  0
   38.2910   26.3360   42.3130 N   0  0  0  0  0  0  0  0  0  0  0  0
   38.6090   27.0380   43.5510 C   0  0  0  0  0  2  0  0  0  0  0  0
   40.0940   26.6840   43.6800 C   0  0  0  0  0  2  0  0  0  0  0  0
   39.9970   25.1670   43.5030 C   0  0  0  0  0  2  0  0  0  0  0  0
   38.8110   24.9900   42.5700 C   0  0  0  0  0  3  0  0  0  0  0  0
   37.9890   24.4380   43.1110 H   0  0  0  0  0  0  0  0  0  0  0  0
  1 19  1  0  0  0  0
  2  7  1  0  0  0  0
  2  1  2  0  0  0  0
  3  2  1  0  0  0  0
  4  3  2  0  0  0  0
  4  5  1  0  0  0  0
  5  6  2  0  0  0  0
  6  1  1  0  0  0  0
  8  3  1  0  0  0  0
  9  5  1  0  0  0  0
  9 14  1  0  0  0  0
 10  9  2  0  0  0  0
 11 10  1  0  0  0  0
 11 12  2  0  0  0  0
 12 13  1  0  0  0  0
 13 14  2  0  0  0  0
 13 18  1  0  0  0  0
 15 10  1  0  0  0  0
 16 11  1  0  0  0  0
 17 12  1  0  0  0  0
 19 23  1  0  0  0  0
 19 20  1  0  0  0  0
 20 21  1  0  0  0  0
 22 21  1  0  0  0  0
 23 24  1  0  0  0  0
 23 22  1  0  0  0  0
M  END
>  <minimizedAffinity>
-4.51865673

$$$$

 OpenBabel03252507273D

 24 26  0  0  0  0  0  0  0  0999 V2000
   40.1800   33.1580   38.8730 C   0  0  0  0  0  0  0  0  0  0  0  0
   40.0260   34.1600   39.8450 C   0  0  0  0  0  0  0  0  0  0  0  0
   38.8690   34.1310   40.6290 C   0  0  0  0  0  0  0  0  0  0  0  0
   37.9550   33.1340   40.4040 N   0  0  0  0  0  0  0  0  0  0  0  0
   38.1470   32.2020   39.4650 C   0  0  0  0  0  0  0  0  0  0  0  0
   39.2400   32.2010   38.7030 N   0  0  0  0  0  0  0  0  0  0  0  0
   40.7860   34.9240   39.9760 H   0  0  0  0  0  0  0  0  0  0  0  0
   38.7050   34.8800   41.3880 H   0  0  0  0  0  0  0  0  0  0  0  0
   37.1320   31.1560   39.2690 C   0  0  0  0  0  0  0  0  0  0  0  0
   36.3920   30.7030   40.3520 C   0  0  0  0  0  0  0  0  0  0  0  0
   35.4190   29.7230   40.2530 C   0  0  0  0  0  0  0  0  0  0  0  0
   35.2290   29.2110   38.9670 C   0  0  0  0  0  0  0  0  0  0  0  0
   35.9680   29.6630   37.8850 C   0  0  0  0  0  0  0  0  0  0  0  0
   36.9160   30.6340   38.0480 N   0  0  0  0  0  0  0  0  0  0  0  0
   36.5370   31.0990   41.3490 H   0  0  0  0  0  0  0  0  0  0  0  0
   34.8440   29.3690   41.0810 H   0  0  0  0  0  0  0  0  0  0  0  0
   34.4920   28.4370   38.7720 H   0  0  0  0  0  0  0  0  0  0  0  0
   35.8550   29.2970   36.8810 H   0  0  0  0  0  0  0  0  0  0  0  0
   41.3140   33.1080   38.0390 N   0  0  0  0  0  0  0  0  0  0  0  0
   41.8040   32.0190   37.2010 C   0  0  0  0  0  2  0  0  0  0  0  0
   43.2630   31.9670   37.6640 C   0  0  0  0  0  2  0  0  0  0  0  0
   43.6170   33.4490   37.5160 C   0  0  0  0  0  2  0  0  0  0  0  0
   42.3050   34.1610   37.8020 C   0  0  0  0  0  3  0  0  0  0  0  0
   41.9650   34.7030   36.8730 H   0  0  0  0  0  0  0  0  0  0  0  0
  1  2  1  0  0  0  0
  2  7  1  0  0  0  0
  2  3  2  0  0  0  0
  3  8  1  0  0  0  0
  4  3  1  0  0  0  0
  5  4  2  0  0  0  0
  6  1  2  0  0  0  0
  6  5  1  0  0  0  0
  9  5  1  0  0  0  0
  9 10  1  0  0  0  0
 10 15  1  0  0  0  0
 11 10  2  0  0  0  0
 11 16  1  0  0  0  0
 12 11  1  0  0  0  0
 13 14  1  0  0  0  0
 13 12  2  0  0  0  0
 14  9  2  0  0  0  0
 17 12  1  0  0  0  0
 18 13  1  0  0  0  0
 19  1  1  0  0  0  0
 20 21  1  0  0  0  0
 20 19  1  0  0  0  0
 22 21  1  0  0  0  0
 22 23  1  0  0  0  0
 23 19  1  0  0  0  0
 24 23  1  0  0  0  0
M  END
>  <minimizedAffinity>
-4.51286983

$$$$

 OpenBabel03252507273D

 24 26  0  0  0  0  0  0  0  0999 V2000
   39.2730   32.2970   40.4240 C   0  0  0  0  0  0  0  0  0  0  0  0
   38.2780   32.9680   39.6950 C   0  0  0  0  0  0  0  0  0  0  0  0
   37.0040   32.3940   39.6550 C   0  0  0  0  0  0  0  0  0  0  0  0
   36.8010   31.2150   40.3250 N   0  0  0  0  0  0  0  0  0  0  0  0
   37.7820   30.6140   41.0070 C   0  0  0  0  0  0  0  0  0  0  0  0
   39.0060   31.1360   41.0650 N   0  0  0  0  0  0  0  0  0  0  0  0
   38.5000   33.9000   39.1840 H   0  0  0  0  0  0  0  0  0  0  0  0
   36.2070   32.8710   39.1070 H   0  0  0  0  0  0  0  0  0  0  0  0
   37.5050   29.3510   41.7060 C   0  0  0  0  0  0  0  0  0  0  0  0
   37.1510   28.2240   40.9780 C   0  0  0  0  0  0  0  0  0  0  0  0
   36.8750   26.9970   41.5580 C   0  0  0  0  0  0  0  0  0  0  0  0
   36.9770   26.9700   42.9520 C   0  0  0  0  0  0  0  0  0  0  0  0
   37.3300   28.0960   43.6800 C   0  0  0  0  0  0  0  0  0  0  0  0
   37.5910   29.2790   43.0470 N   0  0  0  0  0  0  0  0  0  0  0  0
   37.0720   28.2420   39.8990 H   0  0  0  0  0  0  0  0  0  0  0  0
   36.6020   26.1240   41.0060 H   0  0  0  0  0  0  0  0  0  0  0  0
   36.7820   26.0610   43.5140 H   0  0  0  0  0  0  0  0  0  0  0  0
   37.4200   28.1200   44.7500 H   0  0  0  0  0  0  0  0  0  0  0  0
   40.5840   32.8030   40.5200 N   0  0  0  0  0  0  0  0  0  0  0  0
   41.0760   34.1580   40.3010 C   0  0  0  0  0  2  0  0  0  0  0  0
   42.2290   33.8670   39.3360 C   0  0  0  0  0  2  0  0  0  0  0  0
   42.9380   32.7680   40.1310 C   0  0  0  0  0  2  0  0  0  0  0  0
   41.8070   32.0760   40.8720 C   0  0  0  0  0  3  0  0  0  0  0  0
   41.9440   32.2200   41.9830 H   0  0  0  0  0  0  0  0  0  0  0  0
  1 19  1  0  0  0  0
  1  6  1  0  0  0  0
  2  1  2  0  0  0  0
  3  2  1  0  0  0  0
  3  4  2  0  0  0  0
  4  5  1  0  0  0  0
  5  6  2  0  0  0  0
  5  9  1  0  0  0  0
  7  2  1  0  0  0  0
  8  3  1  0  0  0  0
  9 14  1  0  0  0  0
 10 11  1  0  0  0  0
 10  9  2  0  0  0  0
 11 12  2  0  0  0  0
 12 17  1  0  0  0  0
 12 13  1  0  0  0  0
 13 18  1  0  0  0  0
 14 13  2  0  0  0  0
 15 10  1  0  0  0  0
 16 11  1  0  0  0  0
 19 23  1  0  0  0  0
 20 19  1  0  0  0  0
 21 22  1  0  0  0  0
 21 20  1  0  0  0  0
 22 23  1  0  0  0  0
 23 24  1  0  0  0  0
M  END
>  <minimizedAffinity>
-4.51207304

$$$$
