
 OpenBabel03252504253D

 18 19  0  0  0  0  0  0  0  0999 V2000
   37.2590   32.0700   39.9940 C   0  0  0  0  0  0  0  0  0  0  0  0
   38.2660   31.3180   40.6070 C   0  0  0  0  0  0  0  0  0  0  0  0
   39.3850   32.0050   41.0600 C   0  0  0  0  0  0  0  0  0  0  0  0
   39.4370   33.3390   40.8870 N   0  0  0  0  0  0  0  0  0  0  0  0
   38.4540   34.0380   40.2970 C   0  0  0  0  0  0  0  0  0  0  0  0
   37.3360   33.4080   39.8350 N   0  0  0  0  0  0  0  0  0  0  0  0
   36.3710   31.6120   39.6220 H   0  0  0  0  0  0  0  0  0  0  0  0
   40.1420   31.3890   41.5260 H   0  0  0  0  0  0  0  0  0  0  0  0
   38.5370   35.1120   40.1790 H   0  0  0  0  0  0  0  0  0  0  0  0
   38.0120   29.8650   40.6950 C   0  0  0  0  0  0  0  0  0  0  0  0
   38.9900   29.3710   40.4610 H   0  0  0  0  0  0  0  0  0  0  0  0
   37.2690   29.5700   39.9520 H   0  0  0  0  0  0  0  0  0  0  0  0
   37.6000   29.4200   41.9880 N   0  0  0  0  0  0  0  0  0  0  0  0
   38.6170   28.7610   42.7520 C   0  0  0  0  0  2  0  0  0  0  0  0
   37.9150   27.7940   43.6800 C   0  0  0  0  0  2  0  0  0  0  0  0
   36.5940   27.5230   42.9910 C   0  0  0  0  0  2  0  0  0  0  0  0
   36.5400   28.4400   41.7900 C   0  0  0  0  0  3  0  0  0  0  0  0
   35.5750   29.0010   41.7510 H   0  0  0  0  0  0  0  0  0  0  0  0
  1  2  1  0  0  0  0
  2 10  1  0  0  0  0
  2  3  2  0  0  0  0
  3  8  1  0  0  0  0
  4  3  1  0  0  0  0
  5  4  2  0  0  0  0
  6  1  2  0  0  0  0
  6  5  1  0  0  0  0
  7  1  1  0  0  0  0
  9  5  1  0  0  0  0
 10 13  1  0  0  0  0
 11 10  1  0  0  0  0
 12 10  1  0  0  0  0
 13 14  1  0  0  0  0
 14 15  1  0  0  0  0
 16 15  1  0  0  0  0
 17 13  1  0  0  0  0
 17 16  1  0  0  0  0
 18 17  1  0  0  0  0
M  END
>  <minimizedAffinity>
-3.76410413

$$$$

 OpenBabel03252504253D

 18 19  0  0  0  0  0  0  0  0999 V2000
   37.7110   25.5120   42.2820 C   0  0  0  0  0  0  0  0  0  0  0  0
   37.9050   26.7420   42.9190 C   0  0  0  0  0  0  0  0  0  0  0  0
   39.0840   26.9090   43.6330 C   0  0  0  0  0  0  0  0  0  0  0  0
   39.9640   25.8910   43.6720 N   0  0  0  0  0  0  0  0  0  0  0  0
   39.7540   24.7200   43.0500 C   0  0  0  0  0  0  0  0  0  0  0  0
   38.6120   24.5080   42.3370 N   0  0  0  0  0  0  0  0  0  0  0  0
   36.8300   25.3110   41.7160 H   0  0  0  0  0  0  0  0  0  0  0  0
   39.1970   27.8720   44.1110 H   0  0  0  0  0  0  0  0  0  0  0  0
   40.4910   23.9270   43.1070 H   0  0  0  0  0  0  0  0  0  0  0  0
   36.8140   27.7250   42.7510 C   0  0  0  0  0  0  0  0  0  0  0  0
   36.8250   28.3520   43.6790 H   0  0  0  0  0  0  0  0  0  0  0  0
   35.8540   27.2090   42.6750 H   0  0  0  0  0  0  0  0  0  0  0  0
   36.9790   28.5990   41.6340 N   0  0  0  0  0  0  0  0  0  0  0  0
   37.2910   29.9560   41.9710 C   0  0  0  0  0  2  0  0  0  0  0  0
   36.7570   30.8220   40.8530 C   0  0  0  0  0  2  0  0  0  0  0  0
   35.6590   29.9830   40.2350 C   0  0  0  0  0  2  0  0  0  0  0  0
   35.7060   28.6390   40.9250 C   0  0  0  0  0  3  0  0  0  0  0  0
   35.7150   27.8020   40.1840 H   0  0  0  0  0  0  0  0  0  0  0  0
  1  6  2  0  0  0  0
  1  2  1  0  0  0  0
  2  3  2  0  0  0  0
  3  4  1  0  0  0  0
  3  8  1  0  0  0  0
  5  9  1  0  0  0  0
  5  4  2  0  0  0  0
  6  5  1  0  0  0  0
  7  1  1  0  0  0  0
 10  2  1  0  0  0  0
 10 11  1  0  0  0  0
 12 10  1  0  0  0  0
 13 14  1  0  0  0  0
 13 10  1  0  0  0  0
 15 14  1  0  0  0  0
 16 15  1  0  0  0  0
 16 17  1  0  0  0  0
 17 13  1  0  0  0  0
 18 17  1  0  0  0  0
M  END
>  <minimizedAffinity>
-3.75495982

$$$$

 OpenBabel03252504253D

 18 19  0  0  0  0  0  0  0  0999 V2000
   38.3820   29.4450   42.7800 C   0  0  0  0  0  0  0  0  0  0  0  0
   37.8450   29.5920   41.4970 C   0  0  0  0  0  0  0  0  0  0  0  0
   36.7710   28.7800   41.1600 C   0  0  0  0  0  0  0  0  0  0  0  0
   36.3100   27.9070   42.0750 N   0  0  0  0  0  0  0  0  0  0  0  0
   36.8420   27.7860   43.3020 C   0  0  0  0  0  0  0  0  0  0  0  0
   37.8990   28.5610   43.6790 N   0  0  0  0  0  0  0  0  0  0  0  0
   39.2070   30.0340   43.1090 H   0  0  0  0  0  0  0  0  0  0  0  0
   36.3850   28.9220   40.1600 H   0  0  0  0  0  0  0  0  0  0  0  0
   36.4390   27.0700   44.0080 H   0  0  0  0  0  0  0  0  0  0  0  0
   38.4990   30.6080   40.6460 C   0  0  0  0  0  0  0  0  0  0  0  0
   38.4050   30.2310   39.5960 H   0  0  0  0  0  0  0  0  0  0  0  0
   39.5570   30.6900   40.9080 H   0  0  0  0  0  0  0  0  0  0  0  0
   37.8900   31.8980   40.7000 N   0  0  0  0  0  0  0  0  0  0  0  0
   37.1920   32.2870   39.5110 C   0  0  0  0  0  2  0  0  0  0  0  0
   37.2360   33.7970   39.4470 C   0  0  0  0  0  2  0  0  0  0  0  0
   38.4510   34.1610   40.2750 C   0  0  0  0  0  2  0  0  0  0  0  0
   38.9590   32.8730   40.8820 C   0  0  0  0  0  3  0  0  0  0  0  0
   39.1240   32.9810   41.9810 H   0  0  0  0  0  0  0  0  0  0  0  0
  1  7  1  0  0  0  0
  1  6  1  0  0  0  0
  2  1  2  0  0  0  0
  3  2  1  0  0  0  0
  3  4  2  0  0  0  0
  4  5  1  0  0  0  0
  5  6  2  0  0  0  0
  5  9  1  0  0  0  0
  8  3  1  0  0  0  0
 10 13  1  0  0  0  0
 10 12  1  0  0  0  0
 10  2  1  0  0  0  0
 11 10  1  0  0  0  0
 13 17  1  0  0  0  0
 14 13  1  0  0  0  0
 15 14  1  0  0  0  0
 15 16  1  0  0  0  0
 16 17  1  0  0  0  0
 17 18  1  0  0  0  0
M  END
>  <minimizedAffinity>
-3.69674778

$$$$

 OpenBabel03252504253D

 18 19  0  0  0  0  0  0  0  0999 V2000
   38.8420   31.7950   41.0470 C   0  0  0  0  0  0  0  0  0  0  0  0
   38.0280   30.9480   40.2880 C   0  0  0  0  0  0  0  0  0  0  0  0
   37.2130   31.5390   39.3320 C   0  0  0  0  0  0  0  0  0  0  0  0
   37.2500   32.8770   39.1900 N   0  0  0  0  0  0  0  0  0  0  0  0
   38.0410   33.6680   39.9310 C   0  0  0  0  0  0  0  0  0  0  0  0
   38.8600   33.1350   40.8830 N   0  0  0  0  0  0  0  0  0  0  0  0
   39.4940   31.4140   41.7990 H   0  0  0  0  0  0  0  0  0  0  0  0
   36.5980   30.8510   38.7670 H   0  0  0  0  0  0  0  0  0  0  0  0
   38.0400   34.7420   39.7830 H   0  0  0  0  0  0  0  0  0  0  0  0
   38.1380   29.5090   40.6040 C   0  0  0  0  0  0  0  0  0  0  0  0
   39.2200   29.2520   40.4740 H   0  0  0  0  0  0  0  0  0  0  0  0
   37.5410   28.9250   39.9000 H   0  0  0  0  0  0  0  0  0  0  0  0
   37.7690   29.1720   41.9410 N   0  0  0  0  0  0  0  0  0  0  0  0
   38.7420   28.4060   42.6610 C   0  0  0  0  0  2  0  0  0  0  0  0
   37.9880   27.5790   43.6790 C   0  0  0  0  0  2  0  0  0  0  0  0
   36.5940   27.4690   43.0980 C   0  0  0  0  0  2  0  0  0  0  0  0
   36.5740   28.3400   41.8630 C   0  0  0  0  0  3  0  0  0  0  0  0
   35.6930   29.0270   41.8660 H   0  0  0  0  0  0  0  0  0  0  0  0
  1  7  1  0  0  0  0
  2 10  1  0  0  0  0
  2  1  2  0  0  0  0
  3  2  1  0  0  0  0
  4  3  2  0  0  0  0
  4  5  1  0  0  0  0
  5  6  2  0  0  0  0
  6  1  1  0  0  0  0
  8  3  1  0  0  0  0
  9  5  1  0  0  0  0
 10 13  1  0  0  0  0
 11 10  1  0  0  0  0
 12 10  1  0  0  0  0
 13 14  1  0  0  0  0
 14 15  1  0  0  0  0
 16 15  1  0  0  0  0
 17 18  1  0  0  0  0
 17 13  1  0  0  0  0
 17 16  1  0  0  0  0
M  END
>  <minimizedAffinity>
-3.69270825

$$$$

 OpenBabel03252504253D

 18 19  0  0  0  0  0  0  0  0999 V2000
   37.0710   30.0180   39.0480 C   0  0  0  0  0  0  0  0  0  0  0  0
   36.9070   30.9010   40.1200 C   0  0  0  0  0  0  0  0  0  0  0  0
   37.1200   32.2500   39.8700 C   0  0  0  0  0  0  0  0  0  0  0  0
   37.4690   32.6290   38.6260 N   0  0  0  0  0  0  0  0  0  0  0  0
   37.6190   31.7610   37.6140 C   0  0  0  0  0  0  0  0  0  0  0  0
   37.4200   30.4260   37.8090 N   0  0  0  0  0  0  0  0  0  0  0  0
   36.9240   28.9680   39.1630 H   0  0  0  0  0  0  0  0  0  0  0  0
   36.9850   32.9010   40.7230 H   0  0  0  0  0  0  0  0  0  0  0  0
   37.9000   32.1100   36.6260 H   0  0  0  0  0  0  0  0  0  0  0  0
   36.5220   30.2790   41.4040 C   0  0  0  0  0  0  0  0  0  0  0  0
   35.4310   30.0470   41.3140 H   0  0  0  0  0  0  0  0  0  0  0  0
   36.6760   30.9860   42.2220 H   0  0  0  0  0  0  0  0  0  0  0  0
   37.2040   29.0580   41.6910 N   0  0  0  0  0  0  0  0  0  0  0  0
   36.3510   27.9510   42.0060 C   0  0  0  0  0  2  0  0  0  0  0  0
   37.1370   27.0320   42.9150 C   0  0  0  0  0  2  0  0  0  0  0  0
   38.1710   27.9420   43.5440 C   0  0  0  0  0  2  0  0  0  0  0  0
   38.0240   29.2880   42.8730 C   0  0  0  0  0  3  0  0  0  0  0  0
   39.0110   29.6750   42.5200 H   0  0  0  0  0  0  0  0  0  0  0  0
  1  7  1  0  0  0  0
  1  2  1  0  0  0  0
  2 10  1  0  0  0  0
  3  2  2  0  0  0  0
  3  8  1  0  0  0  0
  4  3  1  0  0  0  0
  5  6  1  0  0  0  0
  5  4  2  0  0  0  0
  6  1  2  0  0  0  0
  9  5  1  0  0  0  0
 10 13  1  0  0  0  0
 10 12  1  0  0  0  0
 11 10  1  0  0  0  0
 13 14  1  0  0  0  0
 13 17  1  0  0  0  0
 14 15  1  0  0  0  0
 15 16  1  0  0  0  0
 17 16  1  0  0  0  0
 18 17  1  0  0  0  0
M  END
>  <minimizedAffinity>
-3.65852809

$$$$

 OpenBabel03252504253D

 18 19  0  0  0  0  0  0  0  0999 V2000
   35.8260   28.6810   41.0890 C   0  0  0  0  0  0  0  0  0  0  0  0
   36.9040   28.8050   41.9720 C   0  0  0  0  0  0  0  0  0  0  0  0
   37.6410   29.9800   41.9130 C   0  0  0  0  0  0  0  0  0  0  0  0
   37.2830   30.9230   41.0210 N   0  0  0  0  0  0  0  0  0  0  0  0
   36.2420   30.7800   40.1860 C   0  0  0  0  0  0  0  0  0  0  0  0
   35.4880   29.6440   40.2050 N   0  0  0  0  0  0  0  0  0  0  0  0
   35.2140   27.8080   41.0770 H   0  0  0  0  0  0  0  0  0  0  0  0
   38.4670   30.0380   42.6090 H   0  0  0  0  0  0  0  0  0  0  0  0
   35.9880   31.5660   39.4840 H   0  0  0  0  0  0  0  0  0  0  0  0
   37.1280   27.6540   42.8690 C   0  0  0  0  0  0  0  0  0  0  0  0
   36.2180   27.0090   42.7700 H   0  0  0  0  0  0  0  0  0  0  0  0
   37.2180   27.9970   43.9030 H   0  0  0  0  0  0  0  0  0  0  0  0
   38.2630   26.8570   42.5290 N   0  0  0  0  0  0  0  0  0  0  0  0
   37.9750   25.4800   42.2590 C   0  0  0  0  0  2  0  0  0  0  0  0
   39.2180   24.6920   42.6090 C   0  0  0  0  0  2  0  0  0  0  0  0
   39.9380   25.5740   43.6090 C   0  0  0  0  0  2  0  0  0  0  0  0
   39.1590   26.8680   43.6780 C   0  0  0  0  0  3  0  0  0  0  0  0
   39.8320   27.7520   43.5640 H   0  0  0  0  0  0  0  0  0  0  0  0
  1  2  1  0  0  0  0
  2 10  1  0  0  0  0
  3  2  2  0  0  0  0
  3  8  1  0  0  0  0
  4  3  1  0  0  0  0
  5  6  1  0  0  0  0
  5  4  2  0  0  0  0
  6  1  2  0  0  0  0
  7  1  1  0  0  0  0
  9  5  1  0  0  0  0
 10 12  1  0  0  0  0
 11 10  1  0  0  0  0
 13 10  1  0  0  0  0
 13 17  1  0  0  0  0
 14 13  1  0  0  0  0
 14 15  1  0  0  0  0
 15 16  1  0  0  0  0
 16 17  1  0  0  0  0
 18 17  1  0  0  0  0
M  END
>  <minimizedAffinity>
-3.61079359

$$$$

 OpenBabel03252504253D

 18 19  0  0  0  0  0  0  0  0999 V2000
   38.6470   29.3850   42.4770 C   0  0  0  0  0  0  0  0  0  0  0  0
   37.3090   29.1410   42.1540 C   0  0  0  0  0  0  0  0  0  0  0  0
   36.7800   27.9120   42.5240 C   0  0  0  0  0  0  0  0  0  0  0  0
   37.5740   27.0340   43.1660 N   0  0  0  0  0  0  0  0  0  0  0  0
   38.8560   27.2940   43.4660 C   0  0  0  0  0  0  0  0  0  0  0  0
   39.4220   28.4860   43.1230 N   0  0  0  0  0  0  0  0  0  0  0  0
   39.1220   30.3060   42.2250 H   0  0  0  0  0  0  0  0  0  0  0  0
   35.7430   27.7600   42.2560 H   0  0  0  0  0  0  0  0  0  0  0  0
   39.4600   26.5580   43.9850 H   0  0  0  0  0  0  0  0  0  0  0  0
   36.6150   30.2370   41.4470 C   0  0  0  0  0  0  0  0  0  0  0  0
   36.4390   31.0310   42.2170 H   0  0  0  0  0  0  0  0  0  0  0  0
   35.6540   29.8850   41.0650 H   0  0  0  0  0  0  0  0  0  0  0  0
   37.3690   30.8200   40.3850 N   0  0  0  0  0  0  0  0  0  0  0  0
   37.1530   32.2230   40.1910 C   0  0  0  0  0  2  0  0  0  0  0  0
   37.4150   32.5120   38.7300 C   0  0  0  0  0  2  0  0  0  0  0  0
   37.1900   31.1780   38.0490 C   0  0  0  0  0  2  0  0  0  0  0  0
   36.9510   30.1700   39.1500 C   0  0  0  0  0  3  0  0  0  0  0  0
   37.5950   29.2660   39.0180 H   0  0  0  0  0  0  0  0  0  0  0  0
  1  6  1  0  0  0  0
  2  1  2  0  0  0  0
  2  3  1  0  0  0  0
  3  4  2  0  0  0  0
  4  5  1  0  0  0  0
  5  9  1  0  0  0  0
  6  5  2  0  0  0  0
  7  1  1  0  0  0  0
  8  3  1  0  0  0  0
 10  2  1  0  0  0  0
 10 11  1  0  0  0  0
 12 10  1  0  0  0  0
 13 10  1  0  0  0  0
 14 13  1  0  0  0  0
 15 14  1  0  0  0  0
 16 15  1  0  0  0  0
 16 17  1  0  0  0  0
 17 13  1  0  0  0  0
 18 17  1  0  0  0  0
M  END
>  <minimizedAffinity>
-3.56025553

$$$$

 OpenBabel03252504253D

 18 19  0  0  0  0  0  0  0  0999 V2000
   36.7240   31.3390   40.7470 C   0  0  0  0  0  0  0  0  0  0  0  0
   36.3700   30.2310   39.9710 C   0  0  0  0  0  0  0  0  0  0  0  0
   36.5700   30.3260   38.6000 C   0  0  0  0  0  0  0  0  0  0  0  0
   37.0870   31.4640   38.1010 N   0  0  0  0  0  0  0  0  0  0  0  0
   37.4200   32.5140   38.8680 C   0  0  0  0  0  0  0  0  0  0  0  0
   37.2430   32.4690   40.2200 N   0  0  0  0  0  0  0  0  0  0  0  0
   36.6000   31.3390   41.8060 H   0  0  0  0  0  0  0  0  0  0  0  0
   36.2830   29.4500   38.0340 H   0  0  0  0  0  0  0  0  0  0  0  0
   37.8350   33.4110   38.4240 H   0  0  0  0  0  0  0  0  0  0  0  0
   35.8180   29.0810   40.7160 C   0  0  0  0  0  0  0  0  0  0  0  0
   35.0560   28.6180   40.0400 H   0  0  0  0  0  0  0  0  0  0  0  0
   35.3290   29.4280   41.6300 H   0  0  0  0  0  0  0  0  0  0  0  0
   36.7800   28.0760   41.0390 N   0  0  0  0  0  0  0  0  0  0  0  0
   36.6410   26.8520   40.3080 C   0  0  0  0  0  2  0  0  0  0  0  0
   37.1890   25.7490   41.1860 C   0  0  0  0  0  2  0  0  0  0  0  0
   37.0670   26.3060   42.5890 C   0  0  0  0  0  2  0  0  0  0  0  0
   36.5930   27.7340   42.4440 C   0  0  0  0  0  3  0  0  0  0  0  0
   37.2270   28.4350   43.0410 H   0  0  0  0  0  0  0  0  0  0  0  0
  1  7  1  0  0  0  0
  2 10  1  0  0  0  0
  2  1  2  0  0  0  0
  3  2  1  0  0  0  0
  4  3  2  0  0  0  0
  4  5  1  0  0  0  0
  5  6  2  0  0  0  0
  6  1  1  0  0  0  0
  8  3  1  0  0  0  0
  9  5  1  0  0  0  0
 10 13  1  0  0  0  0
 10 12  1  0  0  0  0
 11 10  1  0  0  0  0
 13 17  1  0  0  0  0
 14 13  1  0  0  0  0
 14 15  1  0  0  0  0
 15 16  1  0  0  0  0
 17 16  1  0  0  0  0
 17 18  1  0  0  0  0
M  END
>  <minimizedAffinity>
-3.55676365

$$$$

 OpenBabel03252504253D

 18 19  0  0  0  0  0  0  0  0999 V2000
   36.6840   27.0390   40.2550 C   0  0  0  0  0  0  0  0  0  0  0  0
   36.3770   28.1230   41.0840 C   0  0  0  0  0  0  0  0  0  0  0  0
   36.5760   27.9560   42.4480 C   0  0  0  0  0  0  0  0  0  0  0  0
   37.0480   26.7760   42.8910 N   0  0  0  0  0  0  0  0  0  0  0  0
   37.3360   25.7510   42.0740 C   0  0  0  0  0  0  0  0  0  0  0  0
   37.1570   25.8660   40.7270 N   0  0  0  0  0  0  0  0  0  0  0  0
   36.5580   27.0940   39.1980 H   0  0  0  0  0  0  0  0  0  0  0  0
   36.3270   28.8160   43.0550 H   0  0  0  0  0  0  0  0  0  0  0  0
   37.7140   24.8170   42.4740 H   0  0  0  0  0  0  0  0  0  0  0  0
   35.8710   29.3280   40.3950 C   0  0  0  0  0  0  0  0  0  0  0  0
   35.1780   29.8240   41.1210 H   0  0  0  0  0  0  0  0  0  0  0  0
   35.3140   29.0410   39.5000 H   0  0  0  0  0  0  0  0  0  0  0  0
   36.8840   30.2730   40.0470 N   0  0  0  0  0  0  0  0  0  0  0  0
   36.8150   31.5180   40.7520 C   0  0  0  0  0  2  0  0  0  0  0  0
   37.4170   32.5710   39.8480 C   0  0  0  0  0  2  0  0  0  0  0  0
   37.2570   31.9920   38.4580 C   0  0  0  0  0  2  0  0  0  0  0  0
   36.7080   30.5940   38.6360 C   0  0  0  0  0  3  0  0  0  0  0  0
   37.3000   29.8490   38.0520 H   0  0  0  0  0  0  0  0  0  0  0  0
  1  6  2  0  0  0  0
  1  2  1  0  0  0  0
  2  3  2  0  0  0  0
  3  4  1  0  0  0  0
  3  8  1  0  0  0  0
  5  9  1  0  0  0  0
  5  4  2  0  0  0  0
  6  5  1  0  0  0  0
  7  1  1  0  0  0  0
 10  2  1  0  0  0  0
 10 11  1  0  0  0  0
 12 10  1  0  0  0  0
 13 10  1  0  0  0  0
 13 14  1  0  0  0  0
 15 14  1  0  0  0  0
 16 17  1  0  0  0  0
 16 15  1  0  0  0  0
 17 13  1  0  0  0  0
 18 17  1  0  0  0  0
M  END
>  <minimizedAffinity>
-3.50512481

$$$$
