
 OpenBabel03252506033D

 25 27  0  0  0  0  0  0  0  0999 V2000
   37.6830   31.9390   36.5180 Cl  0  0  0  0  0  0  0  0  0  0  0  0
   37.7490   31.0020   37.9660 C   0  0  0  0  0  0  0  0  0  0  0  0
   38.9380   30.7990   38.6080 C   0  0  0  0  0  0  0  0  0  0  0  0
   38.9110   30.0330   39.7680 C   0  0  0  0  0  0  0  0  0  0  0  0
   37.7580   29.4720   40.3020 C   0  0  0  0  0  0  0  0  0  0  0  0
   36.5830   29.6940   39.6340 C   0  0  0  0  0  0  0  0  0  0  0  0
   35.1480   28.9680   40.3380 Cl  0  0  0  0  0  0  0  0  0  0  0  0
   36.5800   30.4450   38.4870 C   0  0  0  0  0  0  0  0  0  0  0  0
   39.8880   29.8950   40.2530 H   0  0  0  0  0  0  0  0  0  0  0  0
   35.6300   30.6050   37.9760 H   0  0  0  0  0  0  0  0  0  0  0  0
   41.6520   33.1780   37.9850 C   0  0  0  0  0  0  0  0  0  0  0  0
   42.5510   32.4390   37.2100 C   0  0  0  0  0  0  0  0  0  0  0  0
   42.2250   31.1000   36.8930 C   0  0  0  0  0  0  0  0  0  0  0  0
   41.0540   30.6300   37.3690 N   0  0  0  0  0  0  0  0  0  0  0  0
   40.2010   31.3560   38.1130 C   0  0  0  0  0  0  0  0  0  0  0  0
   40.5060   32.6310   38.4180 N   0  0  0  0  0  0  0  0  0  0  0  0
   41.9340   34.1980   38.2070 H   0  0  0  0  0  0  0  0  0  0  0  0
   43.4870   32.7990   36.8230 H   0  0  0  0  0  0  0  0  0  0  0  0
   42.8130   30.4270   36.3150 H   0  0  0  0  0  0  0  0  0  0  0  0
   37.9430   28.7230   41.4960 N   0  0  0  0  0  0  0  0  0  0  0  0
   38.1460   27.2850   41.6030 C   0  0  0  0  0  2  0  0  0  0  0  0
   37.3300   26.9490   42.8320 C   0  0  0  0  0  2  0  0  0  0  0  0
   37.4240   28.1960   43.6790 C   0  0  0  0  0  2  0  0  0  0  0  0
   37.9590   29.3040   42.8250 C   0  0  0  0  0  3  0  0  0  0  0  0
   39.0230   29.5180   43.0870 H   0  0  0  0  0  0  0  0  0  0  0  0
  1  2  1  0  0  0  0
  2  8  2  0  0  0  0
  2  3  1  0  0  0  0
  3  4  2  0  0  0  0
  4  9  1  0  0  0  0
  4  5  1  0  0  0  0
  5 20  1  0  0  0  0
  6  5  2  0  0  0  0
  6  7  1  0  0  0  0
  8  6  1  0  0  0  0
 10  8  1  0  0  0  0
 11 17  1  0  0  0  0
 11 16  1  0  0  0  0
 12 11  2  0  0  0  0
 13 12  1  0  0  0  0
 13 14  2  0  0  0  0
 14 15  1  0  0  0  0
 15 16  2  0  0  0  0
 15  3  1  0  0  0  0
 18 12  1  0  0  0  0
 19 13  1  0  0  0  0
 20 21  1  0  0  0  0
 20 24  1  0  0  0  0
 21 22  1  0  0  0  0
 22 23  1  0  0  0  0
 24 25  1  0  0  0  0
 24 23  1  0  0  0  0
M  END
>  <minimizedAffinity>
-4.95356321

$$$$

 OpenBabel03252506033D

 25 27  0  0  0  0  0  0  0  0999 V2000
   36.8200   32.1660   40.3060 Cl  0  0  0  0  0  0  0  0  0  0  0  0
   37.5690   30.7080   40.8460 C   0  0  0  0  0  0  0  0  0  0  0  0
   38.8620   30.4240   40.5050 C   0  0  0  0  0  0  0  0  0  0  0  0
   39.3960   29.2310   40.9770 C   0  0  0  0  0  0  0  0  0  0  0  0
   38.6980   28.3250   41.7650 C   0  0  0  0  0  0  0  0  0  0  0  0
   37.4040   28.6390   42.0880 C   0  0  0  0  0  0  0  0  0  0  0  0
   36.5540   27.4690   43.0830 Cl  0  0  0  0  0  0  0  0  0  0  0  0
   36.8510   29.8080   41.6360 C   0  0  0  0  0  0  0  0  0  0  0  0
   40.4380   29.0420   40.6810 H   0  0  0  0  0  0  0  0  0  0  0  0
   35.8200   30.0320   41.9090 H   0  0  0  0  0  0  0  0  0  0  0  0
   41.1840   33.0980   39.5690 C   0  0  0  0  0  0  0  0  0  0  0  0
   41.1970   33.0330   38.1730 C   0  0  0  0  0  0  0  0  0  0  0  0
   40.3970   32.0570   37.5350 C   0  0  0  0  0  0  0  0  0  0  0  0
   39.6710   31.2500   38.3360 N   0  0  0  0  0  0  0  0  0  0  0  0
   39.6700   31.3260   39.6780 C   0  0  0  0  0  0  0  0  0  0  0  0
   40.4310   32.2540   40.2900 N   0  0  0  0  0  0  0  0  0  0  0  0
   41.8080   33.8560   40.0210 H   0  0  0  0  0  0  0  0  0  0  0  0
   41.7700   33.6690   37.5220 H   0  0  0  0  0  0  0  0  0  0  0  0
   40.3110   31.8960   36.4870 H   0  0  0  0  0  0  0  0  0  0  0  0
   39.4250   27.1630   42.1440 N   0  0  0  0  0  0  0  0  0  0  0  0
   39.5540   25.9270   41.3870 C   0  0  0  0  0  2  0  0  0  0  0  0
   39.4730   24.8850   42.4810 C   0  0  0  0  0  2  0  0  0  0  0  0
   40.0800   25.5740   43.6800 C   0  0  0  0  0  2  0  0  0  0  0  0
   40.1680   27.0390   43.3840 C   0  0  0  0  0  3  0  0  0  0  0  0
   41.2250   27.3310   43.1730 H   0  0  0  0  0  0  0  0  0  0  0  0
  1  2  1  0  0  0  0
  2  8  1  0  0  0  0
  3  2  2  0  0  0  0
  3  4  1  0  0  0  0
  4  5  2  0  0  0  0
  5  6  1  0  0  0  0
  5 20  1  0  0  0  0
  6  7  1  0  0  0  0
  8 10  1  0  0  0  0
  8  6  2  0  0  0  0
  9  4  1  0  0  0  0
 11 17  1  0  0  0  0
 11 16  1  0  0  0  0
 12 11  2  0  0  0  0
 13 12  1  0  0  0  0
 13 14  2  0  0  0  0
 14 15  1  0  0  0  0
 15 16  2  0  0  0  0
 15  3  1  0  0  0  0
 18 12  1  0  0  0  0
 19 13  1  0  0  0  0
 20 24  1  0  0  0  0
 21 20  1  0  0  0  0
 21 22  1  0  0  0  0
 22 23  1  0  0  0  0
 24 23  1  0  0  0  0
 25 24  1  0  0  0  0
M  END
>  <minimizedAffinity>
-4.81159973

$$$$

 OpenBabel03252506033D

 25 27  0  0  0  0  0  0  0  0999 V2000
   36.2010   27.7860   42.8940 Cl  0  0  0  0  0  0  0  0  0  0  0  0
   37.2430   28.7540   41.9150 C   0  0  0  0  0  0  0  0  0  0  0  0
   38.5020   28.3230   41.6060 C   0  0  0  0  0  0  0  0  0  0  0  0
   39.2820   29.1570   40.8130 C   0  0  0  0  0  0  0  0  0  0  0  0
   38.8560   30.3870   40.3250 C   0  0  0  0  0  0  0  0  0  0  0  0
   37.5890   30.7890   40.6540 C   0  0  0  0  0  0  0  0  0  0  0  0
   37.0870   32.3470   40.0210 Cl  0  0  0  0  0  0  0  0  0  0  0  0
   36.7980   29.9870   41.4340 C   0  0  0  0  0  0  0  0  0  0  0  0
   40.2870   28.7730   40.5880 H   0  0  0  0  0  0  0  0  0  0  0  0
   35.7940   30.3320   41.6800 H   0  0  0  0  0  0  0  0  0  0  0  0
   39.2410   24.7390   41.7520 C   0  0  0  0  0  0  0  0  0  0  0  0
   39.9950   24.6170   42.9230 C   0  0  0  0  0  0  0  0  0  0  0  0
   40.2580   25.7830   43.6800 C   0  0  0  0  0  0  0  0  0  0  0  0
   39.7530   26.9410   43.2070 N   0  0  0  0  0  0  0  0  0  0  0  0
   39.0290   27.0390   42.0780 C   0  0  0  0  0  0  0  0  0  0  0  0
   38.7760   25.9330   41.3540 N   0  0  0  0  0  0  0  0  0  0  0  0
   39.0600   23.8270   41.2000 H   0  0  0  0  0  0  0  0  0  0  0  0
   40.4030   23.7020   43.3130 H   0  0  0  0  0  0  0  0  0  0  0  0
   40.8150   25.8360   44.5850 H   0  0  0  0  0  0  0  0  0  0  0  0
   39.8060   31.0870   39.5320 N   0  0  0  0  0  0  0  0  0  0  0  0
   40.7440   32.1030   39.9860 C   0  0  0  0  0  2  0  0  0  0  0  0
   40.7090   33.0900   38.8400 C   0  0  0  0  0  2  0  0  0  0  0  0
   40.4350   32.2280   37.6310 C   0  0  0  0  0  2  0  0  0  0  0  0
   39.9820   30.8830   38.1070 C   0  0  0  0  0  3  0  0  0  0  0  0
   40.7950   30.1290   37.9730 H   0  0  0  0  0  0  0  0  0  0  0  0
  2  1  1  0  0  0  0
  3  2  1  0  0  0  0
  3 15  1  0  0  0  0
  4  3  2  0  0  0  0
  5  6  2  0  0  0  0
  5  4  1  0  0  0  0
  6  8  1  0  0  0  0
  7  6  1  0  0  0  0
  8 10  1  0  0  0  0
  8  2  2  0  0  0  0
  9  4  1  0  0  0  0
 11 12  1  0  0  0  0
 12 18  1  0  0  0  0
 12 13  2  0  0  0  0
 13 19  1  0  0  0  0
 14 13  1  0  0  0  0
 15 14  2  0  0  0  0
 16 11  2  0  0  0  0
 16 15  1  0  0  0  0
 17 11  1  0  0  0  0
 20 21  1  0  0  0  0
 20  5  1  0  0  0  0
 22 21  1  0  0  0  0
 23 24  1  0  0  0  0
 23 22  1  0  0  0  0
 24 20  1  0  0  0  0
 25 24  1  0  0  0  0
M  END
>  <minimizedAffinity>
-4.70343637

$$$$

 OpenBabel03252506033D

 25 27  0  0  0  0  0  0  0  0999 V2000
   39.9210   25.7570   43.6650 Cl  0  0  0  0  0  0  0  0  0  0  0  0
   39.4250   27.1060   42.7080 C   0  0  0  0  0  0  0  0  0  0  0  0
   38.6710   26.9200   41.5850 C   0  0  0  0  0  0  0  0  0  0  0  0
   38.3100   28.0550   40.8670 C   0  0  0  0  0  0  0  0  0  0  0  0
   38.6700   29.3480   41.2250 C   0  0  0  0  0  0  0  0  0  0  0  0
   39.4270   29.4990   42.3560 C   0  0  0  0  0  0  0  0  0  0  0  0
   39.8630   31.1470   42.7760 Cl  0  0  0  0  0  0  0  0  0  0  0  0
   39.7970   28.3980   43.0840 C   0  0  0  0  0  0  0  0  0  0  0  0
   37.7030   27.8610   39.9710 H   0  0  0  0  0  0  0  0  0  0  0  0
   40.4000   28.5490   43.9790 H   0  0  0  0  0  0  0  0  0  0  0  0
   36.5720   23.9690   41.0350 C   0  0  0  0  0  0  0  0  0  0  0  0
   37.4110   23.1110   40.3190 C   0  0  0  0  0  0  0  0  0  0  0  0
   38.7220   23.5470   40.0150 C   0  0  0  0  0  0  0  0  0  0  0  0
   39.0670   24.7780   40.4480 N   0  0  0  0  0  0  0  0  0  0  0  0
   38.2470   25.5900   41.1360 C   0  0  0  0  0  0  0  0  0  0  0  0
   36.9980   25.1790   41.4270 N   0  0  0  0  0  0  0  0  0  0  0  0
   35.5780   23.6020   41.2480 H   0  0  0  0  0  0  0  0  0  0  0  0
   37.1510   22.1290   39.9680 H   0  0  0  0  0  0  0  0  0  0  0  0
   39.4620   23.0010   39.4810 H   0  0  0  0  0  0  0  0  0  0  0  0
   38.2010   30.3710   40.3570 N   0  0  0  0  0  0  0  0  0  0  0  0
   38.8540   30.8640   39.1530 C   0  0  0  0  0  2  0  0  0  0  0  0
   38.5890   32.3510   39.2440 C   0  0  0  0  0  2  0  0  0  0  0  0
   37.2590   32.4360   39.9550 C   0  0  0  0  0  2  0  0  0  0  0  0
   36.9600   31.0970   40.5530 C   0  0  0  0  0  3  0  0  0  0  0  0
   36.1680   30.5750   39.9630 H   0  0  0  0  0  0  0  0  0  0  0  0
  2  8  1  0  0  0  0
  2  1  1  0  0  0  0
  3  2  2  0  0  0  0
  4  5  2  0  0  0  0
  4  3  1  0  0  0  0
  5  6  1  0  0  0  0
  6  7  1  0  0  0  0
  6  8  2  0  0  0  0
  8 10  1  0  0  0  0
  9  4  1  0  0  0  0
 11 17  1  0  0  0  0
 11 16  1  0  0  0  0
 12 11  2  0  0  0  0
 13 12  1  0  0  0  0
 13 14  2  0  0  0  0
 14 15  1  0  0  0  0
 15 16  2  0  0  0  0
 15  3  1  0  0  0  0
 18 12  1  0  0  0  0
 19 13  1  0  0  0  0
 20 24  1  0  0  0  0
 20  5  1  0  0  0  0
 21 22  1  0  0  0  0
 21 20  1  0  0  0  0
 22 23  1  0  0  0  0
 23 24  1  0  0  0  0
 25 24  1  0  0  0  0
M  END
>  <minimizedAffinity>
-4.68787718

$$$$

 OpenBabel03252506033D

 25 27  0  0  0  0  0  0  0  0999 V2000
   40.1190   34.1340   39.6480 Cl  0  0  0  0  0  0  0  0  0  0  0  0
   39.5660   32.6580   40.3520 C   0  0  0  0  0  0  0  0  0  0  0  0
   40.4530   31.7740   40.8970 C   0  0  0  0  0  0  0  0  0  0  0  0
   39.9330   30.6070   41.4460 C   0  0  0  0  0  0  0  0  0  0  0  0
   38.5790   30.2970   41.4690 C   0  0  0  0  0  0  0  0  0  0  0  0
   37.7160   31.2040   40.9140 C   0  0  0  0  0  0  0  0  0  0  0  0
   36.0140   30.7770   40.9610 Cl  0  0  0  0  0  0  0  0  0  0  0  0
   38.2010   32.3630   40.3660 C   0  0  0  0  0  0  0  0  0  0  0  0
   40.6800   29.9240   41.8730 H   0  0  0  0  0  0  0  0  0  0  0  0
   37.4920   33.0670   39.9310 H   0  0  0  0  0  0  0  0  0  0  0  0
   43.9830   31.6940   39.9230 C   0  0  0  0  0  0  0  0  0  0  0  0
   44.6030   32.4650   40.9100 C   0  0  0  0  0  0  0  0  0  0  0  0
   43.8010   33.0260   41.9310 C   0  0  0  0  0  0  0  0  0  0  0  0
   42.4780   32.7690   41.8730 N   0  0  0  0  0  0  0  0  0  0  0  0
   41.8980   32.0240   40.9160 C   0  0  0  0  0  0  0  0  0  0  0  0
   42.6580   31.4880   39.9410 N   0  0  0  0  0  0  0  0  0  0  0  0
   44.6280   31.2820   39.1590 H   0  0  0  0  0  0  0  0  0  0  0  0
   45.6550   32.6780   40.9700 H   0  0  0  0  0  0  0  0  0  0  0  0
   44.1380   33.6290   42.7400 H   0  0  0  0  0  0  0  0  0  0  0  0
   38.2510   29.0540   42.0760 N   0  0  0  0  0  0  0  0  0  0  0  0
   38.1510   27.7590   41.4180 C   0  0  0  0  0  2  0  0  0  0  0  0
   36.9500   27.1530   42.1090 C   0  0  0  0  0  2  0  0  0  0  0  0
   37.0000   27.7420   43.4990 C   0  0  0  0  0  2  0  0  0  0  0  0
   37.9600   28.8910   43.4880 C   0  0  0  0  0  3  0  0  0  0  0  0
   38.9120   28.6080   43.9970 H   0  0  0  0  0  0  0  0  0  0  0  0
  1  2  1  0  0  0  0
  2  8  2  0  0  0  0
  2  3  1  0  0  0  0
  3 15  1  0  0  0  0
  3  4  2  0  0  0  0
  4  5  1  0  0  0  0
  4  9  1  0  0  0  0
  5 20  1  0  0  0  0
  6  7  1  0  0  0  0
  6  5  2  0  0  0  0
  8  6  1  0  0  0  0
 10  8  1  0  0  0  0
 11 16  2  0  0  0  0
 11 12  1  0  0  0  0
 12 18  1  0  0  0  0
 12 13  2  0  0  0  0
 13 19  1  0  0  0  0
 14 13  1  0  0  0  0
 15 14  2  0  0  0  0
 16 15  1  0  0  0  0
 17 11  1  0  0  0  0
 20 24  1  0  0  0  0
 21 20  1  0  0  0  0
 21 22  1  0  0  0  0
 22 23  1  0  0  0  0
 24 23  1  0  0  0  0
 24 25  1  0  0  0  0
M  END
>  <minimizedAffinity>
-4.6056695

$$$$

 OpenBabel03252506033D

 25 27  0  0  0  0  0  0  0  0999 V2000
   40.3090   30.5500   42.9490 Cl  0  0  0  0  0  0  0  0  0  0  0  0
   39.7200   28.9950   42.4850 C   0  0  0  0  0  0  0  0  0  0  0  0
   38.8430   28.8670   41.4450 C   0  0  0  0  0  0  0  0  0  0  0  0
   38.4140   27.5830   41.1300 C   0  0  0  0  0  0  0  0  0  0  0  0
   38.8220   26.4400   41.8060 C   0  0  0  0  0  0  0  0  0  0  0  0
   39.7020   26.6030   42.8430 C   0  0  0  0  0  0  0  0  0  0  0  0
   40.1940   25.1360   43.6720 Cl  0  0  0  0  0  0  0  0  0  0  0  0
   40.1420   27.8570   43.1760 C   0  0  0  0  0  0  0  0  0  0  0  0
   37.7090   27.5250   40.2880 H   0  0  0  0  0  0  0  0  0  0  0  0
   40.8410   27.9570   44.0050 H   0  0  0  0  0  0  0  0  0  0  0  0
   36.8060   31.7440   40.4510 C   0  0  0  0  0  0  0  0  0  0  0  0
   37.4270   32.1840   39.2790 C   0  0  0  0  0  0  0  0  0  0  0  0
   38.5670   31.4850   38.8160 C   0  0  0  0  0  0  0  0  0  0  0  0
   38.9720   30.4310   39.5530 N   0  0  0  0  0  0  0  0  0  0  0  0
   38.3620   30.0210   40.6790 C   0  0  0  0  0  0  0  0  0  0  0  0
   37.2770   30.6840   41.1240 N   0  0  0  0  0  0  0  0  0  0  0  0
   35.9380   32.3030   40.7740 H   0  0  0  0  0  0  0  0  0  0  0  0
   37.1160   33.0210   38.6810 H   0  0  0  0  0  0  0  0  0  0  0  0
   39.1340   31.7090   37.9440 H   0  0  0  0  0  0  0  0  0  0  0  0
   38.2660   25.2210   41.3290 N   0  0  0  0  0  0  0  0  0  0  0  0
   38.8330   24.3380   40.3210 C   0  0  0  0  0  2  0  0  0  0  0  0
   37.6000   23.9140   39.5530 C   0  0  0  0  0  2  0  0  0  0  0  0
   36.5050   23.9280   40.5940 C   0  0  0  0  0  2  0  0  0  0  0  0
   37.0110   24.6640   41.7960 C   0  0  0  0  0  3  0  0  0  0  0  0
   37.2470   23.9470   42.6200 H   0  0  0  0  0  0  0  0  0  0  0  0
  2  1  1  0  0  0  0
  2  8  1  0  0  0  0
  3  2  2  0  0  0  0
  4  3  1  0  0  0  0
  4  5  2  0  0  0  0
  5  6  1  0  0  0  0
  6  8  2  0  0  0  0
  6  7  1  0  0  0  0
  8 10  1  0  0  0  0
  9  4  1  0  0  0  0
 11 17  1  0  0  0  0
 11 16  1  0  0  0  0
 12 11  2  0  0  0  0
 13 12  1  0  0  0  0
 13 14  2  0  0  0  0
 14 15  1  0  0  0  0
 15 16  2  0  0  0  0
 15  3  1  0  0  0  0
 18 12  1  0  0  0  0
 19 13  1  0  0  0  0
 20 24  1  0  0  0  0
 20  5  1  0  0  0  0
 21 20  1  0  0  0  0
 22 21  1  0  0  0  0
 22 23  1  0  0  0  0
 23 24  1  0  0  0  0
 24 25  1  0  0  0  0
M  END
>  <minimizedAffinity>
-4.59082413

$$$$

 OpenBabel03252506033D

 25 27  0  0  0  0  0  0  0  0999 V2000
   35.1730   28.9140   40.7310 Cl  0  0  0  0  0  0  0  0  0  0  0  0
   36.5720   29.8860   40.4500 C   0  0  0  0  0  0  0  0  0  0  0  0
   37.8200   29.3290   40.4720 C   0  0  0  0  0  0  0  0  0  0  0  0
   38.8980   30.1750   40.2370 C   0  0  0  0  0  0  0  0  0  0  0  0
   38.7770   31.5360   39.9850 C   0  0  0  0  0  0  0  0  0  0  0  0
   37.5120   32.0630   39.9720 C   0  0  0  0  0  0  0  0  0  0  0  0
   37.4000   33.7850   39.6520 Cl  0  0  0  0  0  0  0  0  0  0  0  0
   36.4310   31.2520   40.2000 C   0  0  0  0  0  0  0  0  0  0  0  0
   39.8820   29.6860   40.2620 H   0  0  0  0  0  0  0  0  0  0  0  0
   35.4370   31.6980   40.1830 H   0  0  0  0  0  0  0  0  0  0  0  0
   38.4400   26.2000   42.2720 C   0  0  0  0  0  0  0  0  0  0  0  0
   38.4460   25.2430   41.2540 C   0  0  0  0  0  0  0  0  0  0  0  0
   38.2340   25.6720   39.9230 C   0  0  0  0  0  0  0  0  0  0  0  0
   38.0390   26.9940   39.7350 N   0  0  0  0  0  0  0  0  0  0  0  0
   38.0370   27.9010   40.7280 C   0  0  0  0  0  0  0  0  0  0  0  0
   38.2380   27.4970   41.9960 N   0  0  0  0  0  0  0  0  0  0  0  0
   38.6060   25.8350   43.2760 H   0  0  0  0  0  0  0  0  0  0  0  0
   38.6000   24.1870   41.3870 H   0  0  0  0  0  0  0  0  0  0  0  0
   38.2130   25.0560   39.0560 H   0  0  0  0  0  0  0  0  0  0  0  0
   40.0010   32.2250   39.7710 N   0  0  0  0  0  0  0  0  0  0  0  0
   40.9100   32.7310   40.7900 C   0  0  0  0  0  2  0  0  0  0  0  0
   41.3410   34.0510   40.1910 C   0  0  0  0  0  2  0  0  0  0  0  0
   41.2980   33.8020   38.7020 C   0  0  0  0  0  2  0  0  0  0  0  0
   40.5410   32.5330   38.4600 C   0  0  0  0  0  3  0  0  0  0  0  0
   41.2410   31.7090   38.1820 H   0  0  0  0  0  0  0  0  0  0  0  0
  2  3  1  0  0  0  0
  2  1  1  0  0  0  0
  3 15  1  0  0  0  0
  4  9  1  0  0  0  0
  4  3  2  0  0  0  0
  5  4  1  0  0  0  0
  6  5  2  0  0  0  0
  6  8  1  0  0  0  0
  7  6  1  0  0  0  0
  8  2  2  0  0  0  0
 10  8  1  0  0  0  0
 11 17  1  0  0  0  0
 12 18  1  0  0  0  0
 12 11  2  0  0  0  0
 13 12  1  0  0  0  0
 14 13  2  0  0  0  0
 14 15  1  0  0  0  0
 15 16  2  0  0  0  0
 16 11  1  0  0  0  0
 19 13  1  0  0  0  0
 20  5  1  0  0  0  0
 20 21  1  0  0  0  0
 22 21  1  0  0  0  0
 23 22  1  0  0  0  0
 24 23  1  0  0  0  0
 24 20  1  0  0  0  0
 25 24  1  0  0  0  0
M  END
>  <minimizedAffinity>
-4.56825018

$$$$

 OpenBabel03252506033D

 25 27  0  0  0  0  0  0  0  0999 V2000
   36.9940   32.0620   38.8150 Cl  0  0  0  0  0  0  0  0  0  0  0  0
   37.2570   30.5540   39.6130 C   0  0  0  0  0  0  0  0  0  0  0  0
   36.8860   29.3810   39.0200 C   0  0  0  0  0  0  0  0  0  0  0  0
   37.1310   28.2080   39.7240 C   0  0  0  0  0  0  0  0  0  0  0  0
   37.7230   28.1640   40.9800 C   0  0  0  0  0  0  0  0  0  0  0  0
   38.0830   29.3580   41.5470 C   0  0  0  0  0  0  0  0  0  0  0  0
   38.8270   29.2630   43.1340 Cl  0  0  0  0  0  0  0  0  0  0  0  0
   37.8540   30.5310   40.8760 C   0  0  0  0  0  0  0  0  0  0  0  0
   36.8170   27.2870   39.2110 H   0  0  0  0  0  0  0  0  0  0  0  0
   38.1500   31.4660   41.3510 H   0  0  0  0  0  0  0  0  0  0  0  0
   34.3170   29.0690   36.4290 C   0  0  0  0  0  0  0  0  0  0  0  0
   35.0360   29.2460   35.2440 C   0  0  0  0  0  0  0  0  0  0  0  0
   36.4290   29.4780   35.3290 C   0  0  0  0  0  0  0  0  0  0  0  0
   36.9650   29.5100   36.5670 N   0  0  0  0  0  0  0  0  0  0  0  0
   36.2560   29.3370   37.6970 C   0  0  0  0  0  0  0  0  0  0  0  0
   34.9300   29.1170   37.6210 N   0  0  0  0  0  0  0  0  0  0  0  0
   33.2550   28.8940   36.3240 H   0  0  0  0  0  0  0  0  0  0  0  0
   34.6250   29.2230   34.2510 H   0  0  0  0  0  0  0  0  0  0  0  0
   37.0960   29.6290   34.5130 H   0  0  0  0  0  0  0  0  0  0  0  0
   37.8840   26.8640   41.5310 N   0  0  0  0  0  0  0  0  0  0  0  0
   38.9780   25.9370   41.2790 C   0  0  0  0  0  2  0  0  0  0  0  0
   38.2500   24.6120   41.2090 C   0  0  0  0  0  2  0  0  0  0  0  0
   37.0830   24.7930   42.1500 C   0  0  0  0  0  2  0  0  0  0  0  0
   36.9500   26.2530   42.4570 C   0  0  0  0  0  3  0  0  0  0  0  0
   37.3110   26.4680   43.4920 H   0  0  0  0  0  0  0  0  0  0  0  0
  1  2  1  0  0  0  0
  2  8  1  0  0  0  0
  3  2  2  0  0  0  0
  3  4  1  0  0  0  0
  4  5  2  0  0  0  0
  5 20  1  0  0  0  0
  5  6  1  0  0  0  0
  6  7  1  0  0  0  0
  8 10  1  0  0  0  0
  8  6  2  0  0  0  0
  9  4  1  0  0  0  0
 11 16  1  0  0  0  0
 12 13  1  0  0  0  0
 12 11  2  0  0  0  0
 13 14  2  0  0  0  0
 14 15  1  0  0  0  0
 15  3  1  0  0  0  0
 16 15  2  0  0  0  0
 17 11  1  0  0  0  0
 18 12  1  0  0  0  0
 19 13  1  0  0  0  0
 20 24  1  0  0  0  0
 21 20  1  0  0  0  0
 22 21  1  0  0  0  0
 22 23  1  0  0  0  0
 23 24  1  0  0  0  0
 24 25  1  0  0  0  0
M  END
>  <minimizedAffinity>
-4.51213694

$$$$

 OpenBabel03252506033D

 25 27  0  0  0  0  0  0  0  0999 V2000
   36.0250   27.0860   38.2620 Cl  0  0  0  0  0  0  0  0  0  0  0  0
   36.7570   28.6280   38.5210 C   0  0  0  0  0  0  0  0  0  0  0  0
   37.2870   28.9480   39.7390 C   0  0  0  0  0  0  0  0  0  0  0  0
   37.8600   30.2080   39.8710 C   0  0  0  0  0  0  0  0  0  0  0  0
   37.9220   31.1440   38.8470 C   0  0  0  0  0  0  0  0  0  0  0  0
   37.3810   30.7920   37.6390 C   0  0  0  0  0  0  0  0  0  0  0  0
   37.4780   32.0010   36.3700 Cl  0  0  0  0  0  0  0  0  0  0  0  0
   36.8100   29.5560   37.4800 C   0  0  0  0  0  0  0  0  0  0  0  0
   38.2750   30.4250   40.8660 H   0  0  0  0  0  0  0  0  0  0  0  0
   36.3870   29.3030   36.5080 H   0  0  0  0  0  0  0  0  0  0  0  0
   38.0860   26.0710   41.8600 C   0  0  0  0  0  0  0  0  0  0  0  0
   37.2560   26.2540   42.9700 C   0  0  0  0  0  0  0  0  0  0  0  0
   36.4050   27.3830   42.9970 C   0  0  0  0  0  0  0  0  0  0  0  0
   36.4600   28.2100   41.9330 N   0  0  0  0  0  0  0  0  0  0  0  0
   37.2650   28.0190   40.8730 C   0  0  0  0  0  0  0  0  0  0  0  0
   38.0770   26.9450   40.8430 N   0  0  0  0  0  0  0  0  0  0  0  0
   38.7220   25.1970   41.8750 H   0  0  0  0  0  0  0  0  0  0  0  0
   37.2010   25.6040   43.8250 H   0  0  0  0  0  0  0  0  0  0  0  0
   35.7260   27.6440   43.7730 H   0  0  0  0  0  0  0  0  0  0  0  0
   38.5490   32.3750   39.1860 N   0  0  0  0  0  0  0  0  0  0  0  0
   39.9540   32.7150   39.0170 C   0  0  0  0  0  2  0  0  0  0  0  0
   40.2360   33.4970   40.2820 C   0  0  0  0  0  2  0  0  0  0  0  0
   38.9160   34.1600   40.5960 C   0  0  0  0  0  2  0  0  0  0  0  0
   37.8540   33.5070   39.7670 C   0  0  0  0  0  3  0  0  0  0  0  0
   37.5450   34.1790   38.9300 H   0  0  0  0  0  0  0  0  0  0  0  0
  1  2  1  0  0  0  0
  2  3  1  0  0  0  0
  3  4  2  0  0  0  0
  3 15  1  0  0  0  0
  4  9  1  0  0  0  0
  5 20  1  0  0  0  0
  5  4  1  0  0  0  0
  6  5  2  0  0  0  0
  7  6  1  0  0  0  0
  8  6  1  0  0  0  0
  8  2  2  0  0  0  0
 10  8  1  0  0  0  0
 11 17  1  0  0  0  0
 11 12  1  0  0  0  0
 12 13  2  0  0  0  0
 12 18  1  0  0  0  0
 13 19  1  0  0  0  0
 14 13  1  0  0  0  0
 15 14  2  0  0  0  0
 16 15  1  0  0  0  0
 16 11  2  0  0  0  0
 20 24  1  0  0  0  0
 21 20  1  0  0  0  0
 21 22  1  0  0  0  0
 22 23  1  0  0  0  0
 24 23  1  0  0  0  0
 25 24  1  0  0  0  0
M  END
>  <minimizedAffinity>
-4.48987675

$$$$
