
 OpenBabel03252507013D

 34 36  0  0  0  0  0  0  0  0999 V2000
   37.2870   31.3730   40.1450 N   0  0  0  0  0  0  0  0  0  0  0  0
   37.1460   32.1230   38.9520 C   0  0  0  0  0  0  0  0  0  0  0  0
   37.1880   33.5590   39.4990 C   0  0  0  0  0  0  0  0  0  0  0  0
   38.4140   33.8930   40.2280 C   0  0  0  0  0  0  0  0  0  0  0  0
   39.2370   32.7640   40.6990 C   0  0  0  0  0  0  0  0  0  0  0  0
   38.6430   31.4000   40.6920 C   0  0  0  0  0  0  0  0  0  0  0  0
   38.0100   32.0250   38.3020 H   0  0  0  0  0  0  0  0  0  0  0  0
   36.2670   32.0020   38.3380 H   0  0  0  0  0  0  0  0  0  0  0  0
   36.2630   33.6930   40.0990 H   0  0  0  0  0  0  0  0  0  0  0  0
   37.0500   34.2210   38.6170 H   0  0  0  0  0  0  0  0  0  0  0  0
   38.1260   34.4740   41.1500 H   0  0  0  0  0  0  0  0  0  0  0  0
   39.0770   34.5320   39.6230 H   0  0  0  0  0  0  0  0  0  0  0  0
   40.2270   32.8260   41.0850 H   0  0  0  0  0  0  0  0  0  0  0  0
   39.3360   30.2820   41.2250 N   0  0  0  0  0  0  0  0  0  0  0  0
   39.9320   29.1940   40.4380 C   0  0  0  0  0  2  0  0  0  0  0  0
   40.2020   28.0850   41.3950 C   0  0  0  0  0  2  0  0  0  0  0  0
   40.2930   28.7540   42.7260 C   0  0  0  0  0  2  0  0  0  0  0  0
   39.5520   30.0640   42.6180 C   0  0  0  0  0  3  0  0  0  0  0  0
   40.2190   30.8800   43.0050 H   0  0  0  0  0  0  0  0  0  0  0  0
   36.3090   30.8470   40.9140 C   0  0  0  0  0  0  0  0  0  0  0  0
   36.7280   30.4140   41.8740 H   0  0  0  0  0  0  0  0  0  0  0  0
   35.4830   31.5170   41.2700 H   0  0  0  0  0  0  0  0  0  0  0  0
   35.6430   29.6920   40.2100 C   0  0  0  0  0  0  0  0  0  0  0  0
   35.5680   29.7330   39.1410 H   0  0  0  0  0  0  0  0  0  0  0  0
   34.5760   29.7050   40.5660 H   0  0  0  0  0  0  0  0  0  0  0  0
   36.1820   28.4480   40.7990 C   0  0  0  0  0  0  0  0  0  0  0  0
   36.5060   27.3550   40.0100 C   0  0  0  0  0  0  0  0  0  0  0  0
   37.0160   26.2030   40.6150 C   0  0  0  0  0  0  0  0  0  0  0  0
   37.1660   26.2240   41.9650 N   0  0  0  0  0  0  0  0  0  0  0  0
   36.8420   27.2940   42.6910 C   0  0  0  0  0  0  0  0  0  0  0  0
   36.3570   28.3850   42.1000 N   0  0  0  0  0  0  0  0  0  0  0  0
   36.3760   27.3740   38.9540 H   0  0  0  0  0  0  0  0  0  0  0  0
   37.2900   25.3220   40.0900 H   0  0  0  0  0  0  0  0  0  0  0  0
   36.9570   27.3280   43.7820 H   0  0  0  0  0  0  0  0  0  0  0  0
  1  6  1  0  0  0  0
  1 20  1  0  0  0  0
  2  3  1  0  0  0  0
  2  1  1  0  0  0  0
  3  9  1  0  0  0  0
  3  4  1  0  0  0  0
  4  5  1  0  0  0  0
  4 11  1  0  0  0  0
  5 13  1  0  0  0  0
  6  5  2  0  0  0  0
  6 14  1  0  0  0  0
  7  2  1  0  0  0  0
  8  2  1  0  0  0  0
 10  3  1  0  0  0  0
 12  4  1  0  0  0  0
 14 18  1  0  0  0  0
 15 14  1  0  0  0  0
 15 16  1  0  0  0  0
 16 17  1  0  0  0  0
 18 17  1  0  0  0  0
 18 19  1  0  0  0  0
 20 22  1  0  0  0  0
 20 21  1  0  0  0  0
 23 25  1  0  0  0  0
 23 26  1  0  0  0  0
 23 20  1  0  0  0  0
 24 23  1  0  0  0  0
 26 31  1  0  0  0  0
 27 28  1  0  0  0  0
 27 26  2  0  0  0  0
 28 29  2  0  0  0  0
 29 30  1  0  0  0  0
 30 34  1  0  0  0  0
 31 30  2  0  0  0  0
 32 27  1  0  0  0  0
 33 28  1  0  0  0  0
M  END
>  <minimizedAffinity>
-4.78079891

$$$$

 OpenBabel03252507013D

 34 36  0  0  0  0  0  0  0  0999 V2000
   36.8510   29.7160   39.1670 N   0  0  0  0  0  0  0  0  0  0  0  0
   37.2440   28.4910   38.5750 C   0  0  0  0  0  0  0  0  0  0  0  0
   36.4220   28.5130   37.2770 C   0  0  0  0  0  0  0  0  0  0  0  0
   36.6880   29.6640   36.4110 C   0  0  0  0  0  0  0  0  0  0  0  0
   37.3560   30.8230   37.0310 C   0  0  0  0  0  0  0  0  0  0  0  0
   37.4310   30.8890   38.5160 C   0  0  0  0  0  0  0  0  0  0  0  0
   38.2860   28.5000   38.2690 H   0  0  0  0  0  0  0  0  0  0  0  0
   37.0690   27.5600   39.0900 H   0  0  0  0  0  0  0  0  0  0  0  0
   35.3570   28.4210   37.5790 H   0  0  0  0  0  0  0  0  0  0  0  0
   36.6510   27.5560   36.7580 H   0  0  0  0  0  0  0  0  0  0  0  0
   35.7010   30.0450   36.0210 H   0  0  0  0  0  0  0  0  0  0  0  0
   37.3030   29.3770   35.5430 H   0  0  0  0  0  0  0  0  0  0  0  0
   37.7730   31.6580   36.5180 H   0  0  0  0  0  0  0  0  0  0  0  0
   37.9660   32.0200   39.1850 N   0  0  0  0  0  0  0  0  0  0  0  0
   39.2810   32.0830   39.8370 C   0  0  0  0  0  2  0  0  0  0  0  0
   39.2580   33.2880   40.7110 C   0  0  0  0  0  2  0  0  0  0  0  0
   38.2020   34.1600   40.1190 C   0  0  0  0  0  2  0  0  0  0  0  0
   37.2870   33.2690   39.3150 C   0  0  0  0  0  3  0  0  0  0  0  0
   37.1680   33.7150   38.2920 H   0  0  0  0  0  0  0  0  0  0  0  0
   35.8760   29.9190   40.0780 C   0  0  0  0  0  0  0  0  0  0  0  0
   35.1630   30.7340   39.7420 H   0  0  0  0  0  0  0  0  0  0  0  0
   35.1940   29.0680   40.3390 H   0  0  0  0  0  0  0  0  0  0  0  0
   36.4580   30.4090   41.3800 C   0  0  0  0  0  0  0  0  0  0  0  0
   35.8440   31.0340   42.0000 H   0  0  0  0  0  0  0  0  0  0  0  0
   37.3210   31.0700   41.0870 H   0  0  0  0  0  0  0  0  0  0  0  0
   37.1180   29.2580   42.0290 C   0  0  0  0  0  0  0  0  0  0  0  0
   38.4290   29.3310   42.4730 C   0  0  0  0  0  0  0  0  0  0  0  0
   39.0070   28.2140   43.0850 C   0  0  0  0  0  0  0  0  0  0  0  0
   38.2340   27.1040   43.2100 N   0  0  0  0  0  0  0  0  0  0  0  0
   36.9760   27.0720   42.7700 C   0  0  0  0  0  0  0  0  0  0  0  0
   36.4390   28.1440   42.1890 N   0  0  0  0  0  0  0  0  0  0  0  0
   39.0060   30.2180   42.3590 H   0  0  0  0  0  0  0  0  0  0  0  0
   40.0020   28.1810   43.4530 H   0  0  0  0  0  0  0  0  0  0  0  0
   36.3370   26.1840   42.8630 H   0  0  0  0  0  0  0  0  0  0  0  0
  1 20  1  0  0  0  0
  2  8  1  0  0  0  0
  2  1  1  0  0  0  0
  3  9  1  0  0  0  0
  3  2  1  0  0  0  0
  4  5  1  0  0  0  0
  4  3  1  0  0  0  0
  5  6  2  0  0  0  0
  6  1  1  0  0  0  0
  6 14  1  0  0  0  0
  7  2  1  0  0  0  0
 10  3  1  0  0  0  0
 11  4  1  0  0  0  0
 12  4  1  0  0  0  0
 13  5  1  0  0  0  0
 14 18  1  0  0  0  0
 14 15  1  0  0  0  0
 15 16  1  0  0  0  0
 17 16  1  0  0  0  0
 18 17  1  0  0  0  0
 19 18  1  0  0  0  0
 20 22  1  0  0  0  0
 20 23  1  0  0  0  0
 21 20  1  0  0  0  0
 23 24  1  0  0  0  0
 23 26  1  0  0  0  0
 25 23  1  0  0  0  0
 26 31  2  0  0  0  0
 26 27  1  0  0  0  0
 27 28  2  0  0  0  0
 28 29  1  0  0  0  0
 28 33  1  0  0  0  0
 30 34  1  0  0  0  0
 30 29  2  0  0  0  0
 31 30  1  0  0  0  0
 32 27  1  0  0  0  0
M  END
>  <minimizedAffinity>
-4.68337917

$$$$

 OpenBabel03252507013D

 34 36  0  0  0  0  0  0  0  0999 V2000
   37.3330   26.6960   41.6310 N   0  0  0  0  0  0  0  0  0  0  0  0
   38.2250   25.6750   42.0400 C   0  0  0  0  0  0  0  0  0  0  0  0
   37.2690   24.4760   42.1510 C   0  0  0  0  0  0  0  0  0  0  0  0
   36.5680   24.1430   40.9090 C   0  0  0  0  0  0  0  0  0  0  0  0
   36.5290   25.1850   39.8670 C   0  0  0  0  0  0  0  0  0  0  0  0
   36.9080   26.5760   40.2370 C   0  0  0  0  0  0  0  0  0  0  0  0
   38.9370   25.4190   41.2610 H   0  0  0  0  0  0  0  0  0  0  0  0
   38.7770   25.7760   42.9600 H   0  0  0  0  0  0  0  0  0  0  0  0
   36.5890   24.6960   43.0010 H   0  0  0  0  0  0  0  0  0  0  0  0
   37.8930   23.6260   42.5030 H   0  0  0  0  0  0  0  0  0  0  0  0
   35.4930   23.9170   41.1630 H   0  0  0  0  0  0  0  0  0  0  0  0
   36.9970   23.2450   40.4360 H   0  0  0  0  0  0  0  0  0  0  0  0
   36.2190   25.0540   38.8570 H   0  0  0  0  0  0  0  0  0  0  0  0
   36.7970   27.6490   39.3170 N   0  0  0  0  0  0  0  0  0  0  0  0
   35.5380   28.2280   38.8290 C   0  0  0  0  0  2  0  0  0  0  0  0
   35.8860   29.0380   37.6290 C   0  0  0  0  0  2  0  0  0  0  0  0
   37.3330   29.3600   37.8020 C   0  0  0  0  0  2  0  0  0  0  0  0
   37.9120   28.3240   38.7340 C   0  0  0  0  0  3  0  0  0  0  0  0
   38.4700   28.8540   39.5500 H   0  0  0  0  0  0  0  0  0  0  0  0
   36.6900   27.5940   42.4090 C   0  0  0  0  0  0  0  0  0  0  0  0
   35.9650   28.2200   41.8020 H   0  0  0  0  0  0  0  0  0  0  0  0
   36.0610   27.2200   43.2590 H   0  0  0  0  0  0  0  0  0  0  0  0
   37.6660   28.5770   43.0040 C   0  0  0  0  0  0  0  0  0  0  0  0
   38.6120   28.2000   43.3440 H   0  0  0  0  0  0  0  0  0  0  0  0
   37.1670   28.9610   43.9370 H   0  0  0  0  0  0  0  0  0  0  0  0
   37.6920   29.7620   42.1220 C   0  0  0  0  0  0  0  0  0  0  0  0
   38.8810   30.3970   41.7980 C   0  0  0  0  0  0  0  0  0  0  0  0
   38.8530   31.5130   40.9560 C   0  0  0  0  0  0  0  0  0  0  0  0
   37.6390   31.9150   40.4970 N   0  0  0  0  0  0  0  0  0  0  0  0
   36.5160   31.2790   40.8320 C   0  0  0  0  0  0  0  0  0  0  0  0
   36.5590   30.2170   41.6360 N   0  0  0  0  0  0  0  0  0  0  0  0
   39.8160   30.0540   42.1750 H   0  0  0  0  0  0  0  0  0  0  0  0
   39.7120   32.0590   40.6560 H   0  0  0  0  0  0  0  0  0  0  0  0
   35.5280   31.5900   40.4710 H   0  0  0  0  0  0  0  0  0  0  0  0
  1  2  1  0  0  0  0
  1 20  1  0  0  0  0
  2  3  1  0  0  0  0
  2  8  1  0  0  0  0
  3 10  1  0  0  0  0
  3  9  1  0  0  0  0
  4 11  1  0  0  0  0
  4  3  1  0  0  0  0
  5  6  2  0  0  0  0
  5  4  1  0  0  0  0
  6  1  1  0  0  0  0
  7  2  1  0  0  0  0
 12  4  1  0  0  0  0
 13  5  1  0  0  0  0
 14  6  1  0  0  0  0
 15 14  1  0  0  0  0
 16 17  1  0  0  0  0
 16 15  1  0  0  0  0
 17 18  1  0  0  0  0
 18 14  1  0  0  0  0
 18 19  1  0  0  0  0
 20 23  1  0  0  0  0
 20 22  1  0  0  0  0
 21 20  1  0  0  0  0
 23 24  1  0  0  0  0
 23 25  1  0  0  0  0
 26 23  1  0  0  0  0
 27 26  1  0  0  0  0
 27 32  1  0  0  0  0
 28 27  2  0  0  0  0
 29 30  2  0  0  0  0
 29 28  1  0  0  0  0
 30 31  1  0  0  0  0
 31 26  2  0  0  0  0
 33 28  1  0  0  0  0
 34 30  1  0  0  0  0
M  END
>  <minimizedAffinity>
-4.67135668

$$$$

 OpenBabel03252507013D

 34 36  0  0  0  0  0  0  0  0999 V2000
   39.0910   31.1630   40.9200 N   0  0  0  0  0  0  0  0  0  0  0  0
   39.1450   32.5760   40.9990 C   0  0  0  0  0  0  0  0  0  0  0  0
   38.3810   32.9720   39.7260 C   0  0  0  0  0  0  0  0  0  0  0  0
   37.0080   32.4680   39.6600 C   0  0  0  0  0  0  0  0  0  0  0  0
   36.6660   31.3510   40.5600 C   0  0  0  0  0  0  0  0  0  0  0  0
   37.7720   30.6130   41.2280 C   0  0  0  0  0  0  0  0  0  0  0  0
   38.5610   32.9610   41.8300 H   0  0  0  0  0  0  0  0  0  0  0  0
   40.0970   33.0810   41.0150 H   0  0  0  0  0  0  0  0  0  0  0  0
   39.0140   32.6540   38.8700 H   0  0  0  0  0  0  0  0  0  0  0  0
   38.4050   34.0840   39.6940 H   0  0  0  0  0  0  0  0  0  0  0  0
   36.8220   32.0930   38.6140 H   0  0  0  0  0  0  0  0  0  0  0  0
   36.2780   33.2680   39.8640 H   0  0  0  0  0  0  0  0  0  0  0  0
   35.6880   30.9840   40.7640 H   0  0  0  0  0  0  0  0  0  0  0  0
   37.5270   29.4650   42.0250 N   0  0  0  0  0  0  0  0  0  0  0  0
   38.1620   29.1720   43.3170 C   0  0  0  0  0  2  0  0  0  0  0  0
   37.9060   27.7310   43.5930 C   0  0  0  0  0  2  0  0  0  0  0  0
   36.6990   27.4030   42.7800 C   0  0  0  0  0  2  0  0  0  0  0  0
   36.6150   28.4250   41.6740 C   0  0  0  0  0  3  0  0  0  0  0  0
   35.5770   28.8530   41.6650 H   0  0  0  0  0  0  0  0  0  0  0  0
   40.0160   30.3270   40.4000 C   0  0  0  0  0  0  0  0  0  0  0  0
   40.9810   30.8760   40.1670 H   0  0  0  0  0  0  0  0  0  0  0  0
   40.3560   29.4510   41.0120 H   0  0  0  0  0  0  0  0  0  0  0  0
   39.5450   29.7660   39.0830 C   0  0  0  0  0  0  0  0  0  0  0  0
   38.5390   29.9810   38.7770 H   0  0  0  0  0  0  0  0  0  0  0  0
   39.5650   28.6490   39.2130 H   0  0  0  0  0  0  0  0  0  0  0  0
   40.6150   30.0110   38.0920 C   0  0  0  0  0  0  0  0  0  0  0  0
   41.0890   31.2880   37.8400 C   0  0  0  0  0  0  0  0  0  0  0  0
   42.1040   31.4670   36.8960 C   0  0  0  0  0  0  0  0  0  0  0  0
   42.5750   30.3560   36.2710 N   0  0  0  0  0  0  0  0  0  0  0  0
   42.0930   29.1420   36.5400 C   0  0  0  0  0  0  0  0  0  0  0  0
   41.1240   28.9880   37.4420 N   0  0  0  0  0  0  0  0  0  0  0  0
   40.6980   32.1380   38.3490 H   0  0  0  0  0  0  0  0  0  0  0  0
   42.5270   32.4060   36.6400 H   0  0  0  0  0  0  0  0  0  0  0  0
   42.4610   28.2350   36.0450 H   0  0  0  0  0  0  0  0  0  0  0  0
  1  2  1  0  0  0  0
  1  6  1  0  0  0  0
  2  8  1  0  0  0  0
  2  7  1  0  0  0  0
  3  2  1  0  0  0  0
  4  3  1  0  0  0  0
  4 12  1  0  0  0  0
  4  5  1  0  0  0  0
  5 13  1  0  0  0  0
  5  6  2  0  0  0  0
  6 14  1  0  0  0  0
  9  3  1  0  0  0  0
 10  3  1  0  0  0  0
 11  4  1  0  0  0  0
 14 15  1  0  0  0  0
 15 16  1  0  0  0  0
 17 16  1  0  0  0  0
 18 14  1  0  0  0  0
 18 17  1  0  0  0  0
 19 18  1  0  0  0  0
 20  1  1  0  0  0  0
 20 22  1  0  0  0  0
 21 20  1  0  0  0  0
 23 25  1  0  0  0  0
 23 20  1  0  0  0  0
 24 23  1  0  0  0  0
 26 23  1  0  0  0  0
 27 26  1  0  0  0  0
 27 32  1  0  0  0  0
 28 27  2  0  0  0  0
 29 30  2  0  0  0  0
 29 28  1  0  0  0  0
 30 31  1  0  0  0  0
 31 26  2  0  0  0  0
 33 28  1  0  0  0  0
 34 30  1  0  0  0  0
M  END
>  <minimizedAffinity>
-4.65317249

$$$$

 OpenBabel03252507013D

 34 36  0  0  0  0  0  0  0  0999 V2000
   38.8050   29.0080   42.1990 N   0  0  0  0  0  0  0  0  0  0  0  0
   39.1770   27.7440   42.7190 C   0  0  0  0  0  0  0  0  0  0  0  0
   38.0100   27.4660   43.6800 C   0  0  0  0  0  0  0  0  0  0  0  0
   36.6920   27.4430   43.0410 C   0  0  0  0  0  0  0  0  0  0  0  0
   36.5860   28.0710   41.7120 C   0  0  0  0  0  0  0  0  0  0  0  0
   37.6980   28.9430   41.2470 C   0  0  0  0  0  0  0  0  0  0  0  0
   39.1360   26.9640   41.9650 H   0  0  0  0  0  0  0  0  0  0  0  0
   40.1090   27.6300   43.2490 H   0  0  0  0  0  0  0  0  0  0  0  0
   38.0940   28.2110   44.4990 H   0  0  0  0  0  0  0  0  0  0  0  0
   38.2420   26.4910   44.1610 H   0  0  0  0  0  0  0  0  0  0  0  0
   35.9700   27.9980   43.7060 H   0  0  0  0  0  0  0  0  0  0  0  0
   36.3190   26.4110   42.9300 H   0  0  0  0  0  0  0  0  0  0  0  0
   35.7610   27.9930   41.0430 H   0  0  0  0  0  0  0  0  0  0  0  0
   37.6210   29.6620   40.0260 N   0  0  0  0  0  0  0  0  0  0  0  0
   38.4940   29.4610   38.8610 C   0  0  0  0  0  2  0  0  0  0  0  0
   38.3110   30.6540   37.9890 C   0  0  0  0  0  2  0  0  0  0  0  0
   36.9730   31.1940   38.3710 C   0  0  0  0  0  2  0  0  0  0  0  0
   36.6690   30.6910   39.7610 C   0  0  0  0  0  3  0  0  0  0  0  0
   35.6450   30.2330   39.7550 H   0  0  0  0  0  0  0  0  0  0  0  0
   39.1930   30.2270   42.6320 C   0  0  0  0  0  0  0  0  0  0  0  0
   38.4520   31.0280   42.3220 H   0  0  0  0  0  0  0  0  0  0  0  0
   39.3130   30.3970   43.7340 H   0  0  0  0  0  0  0  0  0  0  0  0
   40.5010   30.6250   41.9970 C   0  0  0  0  0  0  0  0  0  0  0  0
   41.1110   29.8490   41.5780 H   0  0  0  0  0  0  0  0  0  0  0  0
   41.1210   31.0450   42.8370 H   0  0  0  0  0  0  0  0  0  0  0  0
   40.2380   31.8060   41.1480 C   0  0  0  0  0  0  0  0  0  0  0  0
   41.0820   32.1470   40.1030 C   0  0  0  0  0  0  0  0  0  0  0  0
   40.7880   33.2720   39.3260 C   0  0  0  0  0  0  0  0  0  0  0  0
   39.6710   33.9750   39.6480 N   0  0  0  0  0  0  0  0  0  0  0  0
   38.8840   33.6160   40.6610 C   0  0  0  0  0  0  0  0  0  0  0  0
   39.1780   32.5410   41.3940 N   0  0  0  0  0  0  0  0  0  0  0  0
   41.9500   31.5720   39.8770 H   0  0  0  0  0  0  0  0  0  0  0  0
   41.3770   33.6060   38.5080 H   0  0  0  0  0  0  0  0  0  0  0  0
   37.9780   34.1720   40.9360 H   0  0  0  0  0  0  0  0  0  0  0  0
  1 20  1  0  0  0  0
  1  2  1  0  0  0  0
  2  8  1  0  0  0  0
  2  3  1  0  0  0  0
  3 10  1  0  0  0  0
  3  9  1  0  0  0  0
  4  3  1  0  0  0  0
  4 11  1  0  0  0  0
  5  4  1  0  0  0  0
  6  5  2  0  0  0  0
  6  1  1  0  0  0  0
  7  2  1  0  0  0  0
 12  4  1  0  0  0  0
 13  5  1  0  0  0  0
 14  6  1  0  0  0  0
 15 14  1  0  0  0  0
 16 17  1  0  0  0  0
 16 15  1  0  0  0  0
 17 18  1  0  0  0  0
 18 14  1  0  0  0  0
 19 18  1  0  0  0  0
 20 22  1  0  0  0  0
 21 20  1  0  0  0  0
 23 20  1  0  0  0  0
 23 25  1  0  0  0  0
 24 23  1  0  0  0  0
 26 31  1  0  0  0  0
 26 23  1  0  0  0  0
 27 26  2  0  0  0  0
 28 29  2  0  0  0  0
 28 27  1  0  0  0  0
 29 30  1  0  0  0  0
 30 34  1  0  0  0  0
 30 31  2  0  0  0  0
 32 27  1  0  0  0  0
 33 28  1  0  0  0  0
M  END
>  <minimizedAffinity>
-4.62941313

$$$$

 OpenBabel03252507013D

 34 36  0  0  0  0  0  0  0  0999 V2000
   37.2550   28.4800   42.2100 N   0  0  0  0  0  0  0  0  0  0  0  0
   37.2710   28.1660   43.5900 C   0  0  0  0  0  0  0  0  0  0  0  0
   38.5260   27.2820   43.6760 C   0  0  0  0  0  0  0  0  0  0  0  0
   39.7590   27.9380   43.2370 C   0  0  0  0  0  0  0  0  0  0  0  0
   39.6110   29.1490   42.4110 C   0  0  0  0  0  0  0  0  0  0  0  0
   38.2780   29.4490   41.8210 C   0  0  0  0  0  0  0  0  0  0  0  0
   37.4760   29.0370   44.2050 H   0  0  0  0  0  0  0  0  0  0  0  0
   36.4380   27.6460   44.0370 H   0  0  0  0  0  0  0  0  0  0  0  0
   38.2920   26.3520   43.1170 H   0  0  0  0  0  0  0  0  0  0  0  0
   38.5950   26.9610   44.7390 H   0  0  0  0  0  0  0  0  0  0  0  0
   40.3430   27.2030   42.6110 H   0  0  0  0  0  0  0  0  0  0  0  0
   40.3900   28.2210   44.0960 H   0  0  0  0  0  0  0  0  0  0  0  0
   40.3850   29.8360   42.1550 H   0  0  0  0  0  0  0  0  0  0  0  0
   38.0840   30.5380   40.9330 N   0  0  0  0  0  0  0  0  0  0  0  0
   36.8290   31.2810   40.7550 C   0  0  0  0  0  2  0  0  0  0  0  0
   36.9740   32.0530   39.4900 C   0  0  0  0  0  2  0  0  0  0  0  0
   38.4480   32.1820   39.2980 C   0  0  0  0  0  2  0  0  0  0  0  0
   39.0990   31.0690   40.0810 C   0  0  0  0  0  3  0  0  0  0  0  0
   39.9040   31.5130   40.7250 H   0  0  0  0  0  0  0  0  0  0  0  0
   36.5780   27.8500   41.2250 C   0  0  0  0  0  0  0  0  0  0  0  0
   36.0550   26.9230   41.6140 H   0  0  0  0  0  0  0  0  0  0  0  0
   35.7630   28.4040   40.6890 H   0  0  0  0  0  0  0  0  0  0  0  0
   37.5260   27.3570   40.1600 C   0  0  0  0  0  0  0  0  0  0  0  0
   38.3780   27.9670   39.9270 H   0  0  0  0  0  0  0  0  0  0  0  0
   36.9220   27.3460   39.2100 H   0  0  0  0  0  0  0  0  0  0  0  0
   37.7750   25.9250   40.4210 C   0  0  0  0  0  0  0  0  0  0  0  0
   36.7340   25.0140   40.5100 C   0  0  0  0  0  0  0  0  0  0  0  0
   37.0230   23.6670   40.7540 C   0  0  0  0  0  0  0  0  0  0  0  0
   38.3310   23.3270   40.8910 N   0  0  0  0  0  0  0  0  0  0  0  0
   39.3050   24.2320   40.8000 C   0  0  0  0  0  0  0  0  0  0  0  0
   39.0140   25.5120   40.5670 N   0  0  0  0  0  0  0  0  0  0  0  0
   35.7200   25.3150   40.3960 H   0  0  0  0  0  0  0  0  0  0  0  0
   36.2910   22.9030   40.8370 H   0  0  0  0  0  0  0  0  0  0  0  0
   40.3660   23.9750   40.9080 H   0  0  0  0  0  0  0  0  0  0  0  0
  1  2  1  0  0  0  0
  2  3  1  0  0  0  0
  2  8  1  0  0  0  0
  2  7  1  0  0  0  0
  3 10  1  0  0  0  0
  4  3  1  0  0  0  0
  4 12  1  0  0  0  0
  5  4  1  0  0  0  0
  6  1  1  0  0  0  0
  6  5  2  0  0  0  0
  9  3  1  0  0  0  0
 11  4  1  0  0  0  0
 13  5  1  0  0  0  0
 14  6  1  0  0  0  0
 15 14  1  0  0  0  0
 16 15  1  0  0  0  0
 17 16  1  0  0  0  0
 17 18  1  0  0  0  0
 18 19  1  0  0  0  0
 18 14  1  0  0  0  0
 20 21  1  0  0  0  0
 20  1  1  0  0  0  0
 22 20  1  0  0  0  0
 23 26  1  0  0  0  0
 23 20  1  0  0  0  0
 24 23  1  0  0  0  0
 25 23  1  0  0  0  0
 26 27  2  0  0  0  0
 26 31  1  0  0  0  0
 27 28  1  0  0  0  0
 28 33  1  0  0  0  0
 28 29  2  0  0  0  0
 30 29  1  0  0  0  0
 30 34  1  0  0  0  0
 31 30  2  0  0  0  0
 32 27  1  0  0  0  0
M  END
>  <minimizedAffinity>
-4.60774088

$$$$

 OpenBabel03252507013D

 34 36  0  0  0  0  0  0  0  0999 V2000
   36.2950   29.6600   40.1960 N   0  0  0  0  0  0  0  0  0  0  0  0
   36.2450   30.7850   41.0550 C   0  0  0  0  0  0  0  0  0  0  0  0
   37.6200   31.4190   40.7890 C   0  0  0  0  0  0  0  0  0  0  0  0
   37.8560   31.7900   39.3930 C   0  0  0  0  0  0  0  0  0  0  0  0
   36.9820   31.1680   38.3810 C   0  0  0  0  0  0  0  0  0  0  0  0
   36.1530   30.0000   38.7820 C   0  0  0  0  0  0  0  0  0  0  0  0
   35.5110   31.5160   40.7290 H   0  0  0  0  0  0  0  0  0  0  0  0
   36.1150   30.6500   42.1160 H   0  0  0  0  0  0  0  0  0  0  0  0
   38.3740   30.7130   41.1960 H   0  0  0  0  0  0  0  0  0  0  0  0
   37.6770   32.3060   41.4580 H   0  0  0  0  0  0  0  0  0  0  0  0
   38.9090   31.4890   39.1230 H   0  0  0  0  0  0  0  0  0  0  0  0
   37.7730   32.8800   39.2490 H   0  0  0  0  0  0  0  0  0  0  0  0
   36.9030   31.4520   37.3580 H   0  0  0  0  0  0  0  0  0  0  0  0
   35.3670   29.2860   37.8400 N   0  0  0  0  0  0  0  0  0  0  0  0
   35.8240   28.8260   36.5220 C   0  0  0  0  0  2  0  0  0  0  0  0
   34.5980   28.4800   35.7510 C   0  0  0  0  0  2  0  0  0  0  0  0
   33.5650   28.2080   36.7930 C   0  0  0  0  0  2  0  0  0  0  0  0
   34.0060   28.9110   38.0530 C   0  0  0  0  0  3  0  0  0  0  0  0
   33.9700   28.1750   38.9000 H   0  0  0  0  0  0  0  0  0  0  0  0
   36.6630   28.3970   40.5060 C   0  0  0  0  0  0  0  0  0  0  0  0
   36.0260   27.6370   39.9580 H   0  0  0  0  0  0  0  0  0  0  0  0
   37.7120   28.0700   40.2800 H   0  0  0  0  0  0  0  0  0  0  0  0
   36.4410   28.1240   41.9720 C   0  0  0  0  0  0  0  0  0  0  0  0
   35.4560   27.8350   42.2840 H   0  0  0  0  0  0  0  0  0  0  0  0
   36.6200   29.1090   42.4870 H   0  0  0  0  0  0  0  0  0  0  0  0
   37.5660   27.2880   42.4400 C   0  0  0  0  0  0  0  0  0  0  0  0
   38.5570   27.8030   43.2600 C   0  0  0  0  0  0  0  0  0  0  0  0
   39.5990   26.9690   43.6800 C   0  0  0  0  0  0  0  0  0  0  0  0
   39.5760   25.6810   43.2500 N   0  0  0  0  0  0  0  0  0  0  0  0
   38.6050   25.2220   42.4600 C   0  0  0  0  0  0  0  0  0  0  0  0
   37.6190   26.0290   42.0690 N   0  0  0  0  0  0  0  0  0  0  0  0
   38.5440   28.8180   43.5800 H   0  0  0  0  0  0  0  0  0  0  0  0
   40.3980   27.2780   44.3070 H   0  0  0  0  0  0  0  0  0  0  0  0
   38.5700   24.1850   42.1040 H   0  0  0  0  0  0  0  0  0  0  0  0
  1 20  1  0  0  0  0
  1  2  1  0  0  0  0
  2  8  1  0  0  0  0
  3  2  1  0  0  0  0
  3  9  1  0  0  0  0
  3 10  1  0  0  0  0
  4  3  1  0  0  0  0
  5  6  2  0  0  0  0
  5  4  1  0  0  0  0
  6  1  1  0  0  0  0
  7  2  1  0  0  0  0
 11  4  1  0  0  0  0
 12  4  1  0  0  0  0
 13  5  1  0  0  0  0
 14 18  1  0  0  0  0
 14  6  1  0  0  0  0
 15 14  1  0  0  0  0
 16 15  1  0  0  0  0
 16 17  1  0  0  0  0
 17 18  1  0  0  0  0
 18 19  1  0  0  0  0
 20 23  1  0  0  0  0
 21 20  1  0  0  0  0
 22 20  1  0  0  0  0
 23 24  1  0  0  0  0
 23 26  1  0  0  0  0
 23 25  1  0  0  0  0
 26 27  1  0  0  0  0
 27 32  1  0  0  0  0
 27 28  2  0  0  0  0
 28 33  1  0  0  0  0
 29 28  1  0  0  0  0
 30 29  2  0  0  0  0
 31 26  2  0  0  0  0
 31 30  1  0  0  0  0
 34 30  1  0  0  0  0
M  END
>  <minimizedAffinity>
-4.53928947

$$$$

 OpenBabel03252507013D

 34 36  0  0  0  0  0  0  0  0999 V2000
   37.3400   29.1460   41.2680 N   0  0  0  0  0  0  0  0  0  0  0  0
   36.4790   30.2620   41.4030 C   0  0  0  0  0  0  0  0  0  0  0  0
   36.4470   30.7860   39.9580 C   0  0  0  0  0  0  0  0  0  0  0  0
   35.9580   29.8190   38.9740 C   0  0  0  0  0  0  0  0  0  0  0  0
   35.9550   28.4010   39.3780 C   0  0  0  0  0  0  0  0  0  0  0  0
   36.7160   28.0080   40.5950 C   0  0  0  0  0  0  0  0  0  0  0  0
   35.4610   29.9670   41.6370 H   0  0  0  0  0  0  0  0  0  0  0  0
   36.7400   31.0690   42.0680 H   0  0  0  0  0  0  0  0  0  0  0  0
   37.4670   31.1660   39.7410 H   0  0  0  0  0  0  0  0  0  0  0  0
   35.8070   31.6960   39.9820 H   0  0  0  0  0  0  0  0  0  0  0  0
   36.6200   29.8810   38.0630 H   0  0  0  0  0  0  0  0  0  0  0  0
   34.9290   30.0550   38.6570 H   0  0  0  0  0  0  0  0  0  0  0  0
   35.4800   27.6000   38.8620 H   0  0  0  0  0  0  0  0  0  0  0  0
   36.8440   26.6500   40.9880 N   0  0  0  0  0  0  0  0  0  0  0  0
   37.0930   26.1780   42.3570 C   0  0  0  0  0  2  0  0  0  0  0  0
   37.5250   24.7580   42.2380 C   0  0  0  0  0  2  0  0  0  0  0  0
   36.9750   24.3080   40.9260 C   0  0  0  0  0  2  0  0  0  0  0  0
   36.7440   25.5440   40.0920 C   0  0  0  0  0  3  0  0  0  0  0  0
   35.6970   25.5080   39.6890 H   0  0  0  0  0  0  0  0  0  0  0  0
   38.6730   29.0980   41.4810 C   0  0  0  0  0  0  0  0  0  0  0  0
   39.0090   28.0490   41.7490 H   0  0  0  0  0  0  0  0  0  0  0  0
   39.3640   29.3870   40.6460 H   0  0  0  0  0  0  0  0  0  0  0  0
   39.0540   29.9540   42.6620 C   0  0  0  0  0  0  0  0  0  0  0  0
   39.2180   29.4660   43.6030 H   0  0  0  0  0  0  0  0  0  0  0  0
   38.1640   30.6190   42.8440 H   0  0  0  0  0  0  0  0  0  0  0  0
   40.0940   30.8990   42.2050 C   0  0  0  0  0  0  0  0  0  0  0  0
   41.3520   30.9260   42.7860 C   0  0  0  0  0  0  0  0  0  0  0  0
   42.3030   31.8370   42.3150 C   0  0  0  0  0  0  0  0  0  0  0  0
   41.9300   32.6540   41.2960 N   0  0  0  0  0  0  0  0  0  0  0  0
   40.7090   32.5990   40.7630 C   0  0  0  0  0  0  0  0  0  0  0  0
   39.8130   31.7260   41.2230 N   0  0  0  0  0  0  0  0  0  0  0  0
   41.6110   30.2700   43.5830 H   0  0  0  0  0  0  0  0  0  0  0  0
   43.2880   31.9270   42.6990 H   0  0  0  0  0  0  0  0  0  0  0  0
   40.3910   33.2520   39.9400 H   0  0  0  0  0  0  0  0  0  0  0  0
  1  2  1  0  0  0  0
  1 20  1  0  0  0  0
  2  7  1  0  0  0  0
  2  8  1  0  0  0  0
  3 10  1  0  0  0  0
  3  2  1  0  0  0  0
  4  5  1  0  0  0  0
  4  3  1  0  0  0  0
  5  6  2  0  0  0  0
  6 14  1  0  0  0  0
  6  1  1  0  0  0  0
  9  3  1  0  0  0  0
 11  4  1  0  0  0  0
 12  4  1  0  0  0  0
 13  5  1  0  0  0  0
 14 15  1  0  0  0  0
 16 15  1  0  0  0  0
 17 16  1  0  0  0  0
 18 17  1  0  0  0  0
 18 14  1  0  0  0  0
 19 18  1  0  0  0  0
 20 21  1  0  0  0  0
 20 23  1  0  0  0  0
 22 20  1  0  0  0  0
 23 25  1  0  0  0  0
 23 24  1  0  0  0  0
 26 23  1  0  0  0  0
 26 27  1  0  0  0  0
 27 32  1  0  0  0  0
 28 33  1  0  0  0  0
 28 27  2  0  0  0  0
 29 28  1  0  0  0  0
 30 31  1  0  0  0  0
 30 29  2  0  0  0  0
 31 26  2  0  0  0  0
 34 30  1  0  0  0  0
M  END
>  <minimizedAffinity>
-4.52153635

$$$$

 OpenBabel03252507013D

 34 36  0  0  0  0  0  0  0  0999 V2000
   39.0360   31.0890   40.7410 N   0  0  0  0  0  0  0  0  0  0  0  0
   39.2300   32.4890   40.8390 C   0  0  0  0  0  0  0  0  0  0  0  0
   38.3610   32.9880   39.6740 C   0  0  0  0  0  0  0  0  0  0  0  0
   36.9490   32.6100   39.7650 C   0  0  0  0  0  0  0  0  0  0  0  0
   36.6140   31.5030   40.6800 C   0  0  0  0  0  0  0  0  0  0  0  0
   37.7180   30.6500   41.1970 C   0  0  0  0  0  0  0  0  0  0  0  0
   38.7860   32.9010   41.7400 H   0  0  0  0  0  0  0  0  0  0  0  0
   40.2200   32.9060   40.7480 H   0  0  0  0  0  0  0  0  0  0  0  0
   38.8560   32.6390   38.7430 H   0  0  0  0  0  0  0  0  0  0  0  0
   38.4830   34.0930   39.6590 H   0  0  0  0  0  0  0  0  0  0  0  0
   36.6060   32.2830   38.7420 H   0  0  0  0  0  0  0  0  0  0  0  0
   36.3250   33.4660   40.0700 H   0  0  0  0  0  0  0  0  0  0  0  0
   35.6370   31.2200   40.9930 H   0  0  0  0  0  0  0  0  0  0  0  0
   37.4640   29.5060   41.9970 N   0  0  0  0  0  0  0  0  0  0  0  0
   38.0740   29.2270   43.3040 C   0  0  0  0  0  2  0  0  0  0  0  0
   37.8220   27.7870   43.5850 C   0  0  0  0  0  2  0  0  0  0  0  0
   36.6340   27.4450   42.7500 C   0  0  0  0  0  2  0  0  0  0  0  0
   36.5670   28.4580   41.6340 C   0  0  0  0  0  3  0  0  0  0  0  0
   35.5260   28.8790   41.6000 H   0  0  0  0  0  0  0  0  0  0  0  0
   39.8130   30.1890   40.1000 C   0  0  0  0  0  0  0  0  0  0  0  0
   40.8350   30.1100   40.5830 H   0  0  0  0  0  0  0  0  0  0  0  0
   39.4690   29.1230   40.0430 H   0  0  0  0  0  0  0  0  0  0  0  0
   40.0730   30.6270   38.6810 C   0  0  0  0  0  0  0  0  0  0  0  0
   41.0870   30.8340   38.3990 H   0  0  0  0  0  0  0  0  0  0  0  0
   39.5460   31.6150   38.5760 H   0  0  0  0  0  0  0  0  0  0  0  0
   39.2980   29.7330   37.7950 C   0  0  0  0  0  0  0  0  0  0  0  0
   38.0040   30.0450   37.4060 C   0  0  0  0  0  0  0  0  0  0  0  0
   37.3150   29.1680   36.5630 C   0  0  0  0  0  0  0  0  0  0  0  0
   37.9660   28.0440   36.1680 N   0  0  0  0  0  0  0  0  0  0  0  0
   39.2110   27.7780   36.5630 C   0  0  0  0  0  0  0  0  0  0  0  0
   39.8560   28.6230   37.3680 N   0  0  0  0  0  0  0  0  0  0  0  0
   37.5240   30.9360   37.7340 H   0  0  0  0  0  0  0  0  0  0  0  0
   36.3240   29.3260   36.2160 H   0  0  0  0  0  0  0  0  0  0  0  0
   39.7520   26.8750   36.2540 H   0  0  0  0  0  0  0  0  0  0  0  0
  1  2  1  0  0  0  0
  1  6  1  0  0  0  0
  2  7  1  0  0  0  0
  3  4  1  0  0  0  0
  3  2  1  0  0  0  0
  4 12  1  0  0  0  0
  4  5  1  0  0  0  0
  5 13  1  0  0  0  0
  5  6  2  0  0  0  0
  6 14  1  0  0  0  0
  8  2  1  0  0  0  0
  9  3  1  0  0  0  0
 10  3  1  0  0  0  0
 11  4  1  0  0  0  0
 14 15  1  0  0  0  0
 15 16  1  0  0  0  0
 17 16  1  0  0  0  0
 18 14  1  0  0  0  0
 18 17  1  0  0  0  0
 19 18  1  0  0  0  0
 20 21  1  0  0  0  0
 20  1  1  0  0  0  0
 22 20  1  0  0  0  0
 23 20  1  0  0  0  0
 24 23  1  0  0  0  0
 25 23  1  0  0  0  0
 26 23  1  0  0  0  0
 27 32  1  0  0  0  0
 27 26  1  0  0  0  0
 28 27  2  0  0  0  0
 29 28  1  0  0  0  0
 29 30  2  0  0  0  0
 30 31  1  0  0  0  0
 31 26  2  0  0  0  0
 33 28  1  0  0  0  0
 34 30  1  0  0  0  0
M  END
>  <minimizedAffinity>
-4.50913429

$$$$
