
 OpenBabel03252502063D

 45 49  0  0  0  0  0  0  0  0999 V2000
   47.5100   32.0320   47.8800 C   0  0  0  0  0  0  0  0  0  0  0  0
   47.0060   30.7260   47.8750 C   0  0  0  0  0  0  0  0  0  0  0  0
   46.0150   30.4590   46.9720 C   0  0  0  0  0  0  0  0  0  0  0  0
   45.5830   31.4180   46.1540 N   0  0  0  0  0  0  0  0  0  0  0  0
   46.0490   32.6550   46.1440 C   0  0  0  0  0  0  0  0  0  0  0  0
   47.0220   32.9420   47.0260 N   0  0  0  0  0  0  0  0  0  0  0  0
   45.4570   29.2030   46.9310 N   0  0  0  0  0  0  0  0  0  0  0  0
   44.2580   28.8480   46.1170 C   0  0  0  0  0  0  0  0  0  0  0  0
   44.1860   27.3440   46.1330 C   0  0  0  0  0  0  0  0  0  0  0  0
   44.8180   27.0030   47.4410 C   0  0  0  0  0  0  0  0  0  0  0  0
   45.8860   28.0300   47.6370 C   0  0  0  0  0  0  0  0  0  0  0  0
   48.3050   32.2990   48.5890 H   0  0  0  0  0  0  0  0  0  0  0  0
   43.3780   29.3030   46.6480 H   0  0  0  0  0  0  0  0  0  0  0  0
   44.3840   29.2370   45.0870 H   0  0  0  0  0  0  0  0  0  0  0  0
   44.7970   26.9290   45.3070 H   0  0  0  0  0  0  0  0  0  0  0  0
   43.1240   27.0120   46.0630 H   0  0  0  0  0  0  0  0  0  0  0  0
   45.2190   25.9760   47.4500 H   0  0  0  0  0  0  0  0  0  0  0  0
   44.0160   27.0470   48.2080 H   0  0  0  0  0  0  0  0  0  0  0  0
   46.8730   27.6400   47.3490 H   0  0  0  0  0  0  0  0  0  0  0  0
   45.8560   28.2330   48.7290 H   0  0  0  0  0  0  0  0  0  0  0  0
   45.7220   33.8280   45.3000 C   0  0  0  0  0  0  0  0  0  0  0  0
   44.8100   34.7480   45.6190 N   0  0  0  0  0  0  0  0  0  0  0  0
   44.4980   35.8060   44.8820 C   0  0  0  0  0  0  0  0  0  0  0  0
   45.1180   36.0190   43.7040 N   0  0  0  0  0  0  0  0  0  0  0  0
   46.0590   35.1650   43.2670 C   0  0  0  0  0  0  0  0  0  0  0  0
   46.7210   35.3720   42.0680 C   0  0  0  0  0  0  0  0  0  0  0  0
   47.6870   34.5270   41.6220 C   0  0  0  0  0  0  0  0  0  0  0  0
   47.9870   33.4450   42.4080 C   0  0  0  0  0  0  0  0  0  0  0  0
   47.3010   33.2670   43.6060 C   0  0  0  0  0  0  0  0  0  0  0  0
   46.3380   34.0850   44.0810 C   0  0  0  0  0  0  0  0  0  0  0  0
   43.7450   36.5270   45.1900 H   0  0  0  0  0  0  0  0  0  0  0  0
   46.4550   36.2370   41.4730 H   0  0  0  0  0  0  0  0  0  0  0  0
   48.1650   34.7370   40.6880 H   0  0  0  0  0  0  0  0  0  0  0  0
   49.0100   32.5840   41.9120 N   0  0  0  0  0  0  0  0  0  0  0  0
   49.0120   31.3210   41.1950 C   0  0  0  0  0  0  0  0  0  0  0  0
   50.3960   31.2550   40.5650 C   0  0  0  0  0  0  0  0  0  0  0  0
   51.2150   31.8340   41.7260 C   0  0  0  0  0  0  0  0  0  0  0  0
   50.3860   33.0060   42.1370 C   0  0  0  0  0  0  0  0  0  0  0  0
   50.6250   33.8280   41.4070 H   0  0  0  0  0  0  0  0  0  0  0  0
   47.7270   32.0700   44.2630 N   0  0  0  0  0  0  0  0  0  0  0  0
   48.4200   31.8220   44.9770 H   0  0  0  0  0  0  0  0  0  0  0  0
   47.1200   31.3170   43.8270 H   0  0  0  0  0  0  0  0  0  0  0  0
   47.5720   29.8220   48.7300 N   0  0  0  0  0  0  0  0  0  0  0  0
   47.0900   30.0480   49.6510 H   0  0  0  0  0  0  0  0  0  0  0  0
   48.2900   29.0770   48.6050 H   0  0  0  0  0  0  0  0  0  0  0  0
  1 12  1  0  0  0  0
  2  1  1  0  0  0  0
  2 43  1  0  0  0  0
  3  2  2  0  0  0  0
  4  3  1  0  0  0  0
  5  4  2  0  0  0  0
  5  6  1  0  0  0  0
  6  1  2  0  0  0  0
  7  3  1  0  0  0  0
  7 11  1  0  0  0  0
  8  9  1  0  0  0  0
  8 13  1  0  0  0  0
  8  7  1  0  0  0  0
  9 10  1  0  0  0  0
 10 17  1  0  0  0  0
 10 11  1  0  0  0  0
 10 18  1  0  0  0  0
 11 20  1  0  0  0  0
 14  8  1  0  0  0  0
 15  9  1  0  0  0  0
 16  9  1  0  0  0  0
 19 11  1  0  0  0  0
 21 22  1  0  0  0  0
 21  5  1  0  0  0  0
 23 31  1  0  0  0  0
 23 22  2  0  0  0  0
 24 23  1  0  0  0  0
 25 24  2  0  0  0  0
 25 30  1  0  0  0  0
 26 25  1  0  0  0  0
 27 26  2  0  0  0  0
 27 28  1  0  0  0  0
 28 29  2  0  0  0  0
 29 30  1  0  0  0  0
 29 40  1  0  0  0  0
 30 21  2  0  0  0  0
 32 26  1  0  0  0  0
 33 27  1  0  0  0  0
 34 38  1  0  0  0  0
 34 28  1  0  0  0  0
 35 34  1  0  0  0  0
 36 35  1  0  0  0  0
 36 37  1  0  0  0  0
 37 38  1  0  0  0  0
 39 38  1  0  0  0  0
 40 41  1  0  0  0  0
 42 40  1  0  0  0  0
 43 44  1  0  0  0  0
 45 43  1  0  0  0  0
M  END
>  <minimizedAffinity>
-6.94980669

>  <minimizedRMSD>
0.265784115

$$$$
