
 OpenBabel03252508533D

 40 43  0  0  1  0  0  0  0  0999 V2000
   43.3190   34.4520   40.7090 C   0  0  0  0  0  0  0  0  0  0  0  0
   43.2930   35.6290   40.2250 O   0  0  0  0  0  0  0  0  0  0  0  0
   41.9380   34.0580   40.4950 N   0  0  0  0  0  0  0  0  0  0  0  0
   41.5130   34.0570   39.1170 C   0  0  0  0  0  0  0  0  0  0  0  0
   40.7470   35.3840   38.9330 C   0  0  0  0  0  0  0  0  0  0  0  0
   40.0140   35.6380   40.2500 C   0  0  0  0  0  0  0  0  0  0  0  0
   39.6450   34.3340   40.9250 C   0  0  0  0  0  0  0  0  0  0  0  0
   40.9230   33.6660   41.4530 C   0  0  1  0  0  0  0  0  0  0  0  0
   42.3270   34.0880   38.3860 H   0  0  0  0  0  0  0  0  0  0  0  0
   40.8420   33.2150   38.8710 H   0  0  0  0  0  0  0  0  0  0  0  0
   40.0390   35.2910   38.0820 H   0  0  0  0  0  0  0  0  0  0  0  0
   41.4420   36.2120   38.7480 H   0  0  0  0  0  0  0  0  0  0  0  0
   40.6660   36.2680   40.9150 H   0  0  0  0  0  0  0  0  0  0  0  0
   39.1040   36.2480   40.0850 H   0  0  0  0  0  0  0  0  0  0  0  0
   39.2480   33.6730   40.1270 H   0  0  0  0  0  0  0  0  0  0  0  0
   38.9320   34.5570   41.7350 H   0  0  0  0  0  0  0  0  0  0  0  0
   41.1640   34.1590   42.4150 H   0  0  0  0  0  0  0  0  0  0  0  0
   40.7810   32.2400   41.5410 N   0  0  1  0  0  0  0  0  0  0  0  0
   39.3700   31.9250   41.4520 C   0  0  0  0  0  2  0  0  0  0  0  0
   39.3600   30.4510   41.0630 C   0  0  0  0  0  2  0  0  0  0  0  0
   40.5830   30.2630   40.2130 C   0  0  0  0  0  2  0  0  0  0  0  0
   41.3600   31.5100   40.4760 C   0  0  0  0  0  3  0  0  0  0  0  0
   41.5910   32.0990   39.5670 H   0  0  0  0  0  0  0  0  0  0  0  0
   44.3890   33.8190   41.2560 O   0  0  0  0  0  0  0  0  0  0  0  0
   45.7160   34.1230   41.1010 C   0  0  0  0  0  0  0  0  0  0  0  0
   46.3620   34.7390   42.1820 C   0  0  0  0  0  0  0  0  0  0  0  0
   47.7200   35.0470   42.0130 C   0  0  0  0  0  0  0  0  0  0  0  0
   48.3170   34.7320   40.8240 N   0  0  0  0  0  0  0  0  0  0  0  0
   47.6530   34.1480   39.8350 C   0  0  0  0  0  0  0  0  0  0  0  0
   46.3500   33.8400   39.9670 N   0  0  0  0  0  0  0  0  0  0  0  0
   48.2260   35.5240   42.8490 H   0  0  0  0  0  0  0  0  0  0  0  0
   48.2060   33.9320   38.9240 H   0  0  0  0  0  0  0  0  0  0  0  0
   45.6310   35.0300   43.4030 C   0  0  0  0  0  0  0  0  0  0  0  0
   45.0060   36.2600   43.6350 C   0  0  0  0  0  0  0  0  0  0  0  0
   44.4490   36.1030   44.8770 C   0  0  0  0  0  0  0  0  0  0  0  0
   44.7090   34.8840   45.3670 N   0  0  0  0  0  0  0  0  0  0  0  0
   45.4280   34.2470   44.4580 N   0  0  0  0  0  0  0  0  0  0  0  0
   44.9340   37.1530   43.0400 H   0  0  0  0  0  0  0  0  0  0  0  0
   43.8660   36.8820   45.3960 H   0  0  0  0  0  0  0  0  0  0  0  0
   44.3780   34.5560   46.3000 H   0  0  0  0  0  0  0  0  0  0  0  0
  1 24  1  0  0  0  0
  2  1  2  0  0  0  0
  3  1  1  0  0  0  0
  3  8  1  0  0  0  0
  4  3  1  0  0  0  0
  5  4  1  0  0  0  0
  5  6  1  0  0  0  0
  6 13  1  0  0  0  0
  6  7  1  0  0  0  0
  7  8  1  0  0  0  0
  7 16  1  0  0  0  0
  8 18  1  0  0  0  0
  8 17  1  1  0  0  0
  9  4  1  0  0  0  0
 10  4  1  0  0  0  0
 11  5  1  0  0  0  0
 12  5  1  0  0  0  0
 14  6  1  0  0  0  0
 15  7  1  0  0  0  0
 18 19  1  6  0  0  0
 20 19  1  0  0  0  0
 21 22  1  0  0  0  0
 21 20  1  0  0  0  0
 22 18  1  0  0  0  0
 23 22  1  0  0  0  0
 25 24  1  0  0  0  0
 25 26  1  0  0  0  0
 26 33  1  0  0  0  0
 27 26  2  0  0  0  0
 27 31  1  0  0  0  0
 28 27  1  0  0  0  0
 29 30  1  0  0  0  0
 29 28  2  0  0  0  0
 30 25  2  0  0  0  0
 32 29  1  0  0  0  0
 33 34  1  0  0  0  0
 33 37  2  0  0  0  0
 34 35  2  0  0  0  0
 35 36  1  0  0  0  0
 35 39  1  0  0  0  0
 36 40  1  0  0  0  0
 37 36  1  0  0  0  0
 38 34  1  0  0  0  0
M  END
>  <minimizedAffinity>
-6.53818178

>  <minimizedRMSD>
0.905799031

$$$$
