
 OpenBabel03252508133D

 34 37  0  0  1  0  0  0  0  0999 V2000
   46.1310   30.8910   46.8780 C   0  0  0  0  0  0  0  0  0  0  0  0
   45.3650   30.1330   46.6960 H   0  0  0  0  0  0  0  0  0  0  0  0
   47.1440   30.4820   46.8210 H   0  0  0  0  0  0  0  0  0  0  0  0
   45.9390   31.5420   48.2290 C   0  0  1  0  0  0  0  0  0  0  0  0
   45.7030   30.6270   49.3790 C   0  0  0  0  0  0  0  0  0  0  0  0
   46.9610   31.3390   49.2800 C   0  0  1  0  0  0  0  0  0  0  0  0
   45.3860   32.5010   48.2240 H   0  0  0  0  0  0  0  0  0  0  0  0
   45.6860   29.5230   49.1580 H   0  0  0  0  0  0  0  0  0  0  0  0
   44.9860   30.8930   50.1840 H   0  0  0  0  0  0  0  0  0  0  0  0
   47.0820   32.2160   49.9890 H   0  0  0  0  0  0  0  0  0  0  0  0
   48.2590   30.7480   48.8850 C   0  0  0  0  0  0  0  0  0  0  0  0
   49.2030   30.4270   50.0740 C   0  0  0  0  0  0  0  0  0  0  0  0
   49.5040   31.5980   49.2150 C   0  0  0  0  0  0  0  0  0  0  0  0
   48.3760   30.1300   47.9840 H   0  0  0  0  0  0  0  0  0  0  0  0
   48.7790   30.5080   51.0850 H   0  0  0  0  0  0  0  0  0  0  0  0
   49.8880   29.5510   49.9210 H   0  0  0  0  0  0  0  0  0  0  0  0
   49.3350   32.5810   49.7240 H   0  0  0  0  0  0  0  0  0  0  0  0
   50.3600   31.5550   48.5240 H   0  0  0  0  0  0  0  0  0  0  0  0
   45.6940   33.1150   46.1880 C   0  0  0  0  0  0  0  0  0  0  0  0
   45.9950   31.9430   45.7820 C   0  0  0  0  0  0  0  0  0  0  0  0
   44.5630   36.1520   44.4270 C   0  0  0  0  0  0  0  0  0  0  0  0
   45.2620   36.0960   43.2300 C   0  0  0  0  0  0  0  0  0  0  0  0
   46.1070   35.0430   43.0460 C   0  0  0  0  0  0  0  0  0  0  0  0
   46.2120   34.1250   44.0300 N   0  0  0  0  0  0  0  0  0  0  0  0
   45.5380   34.1700   45.1940 C   0  0  0  0  0  0  0  0  0  0  0  0
   44.7210   35.2080   45.3480 N   0  0  0  0  0  0  0  0  0  0  0  0
   43.8730   36.9570   44.6490 H   0  0  0  0  0  0  0  0  0  0  0  0
   45.1270   36.8680   42.4860 H   0  0  0  0  0  0  0  0  0  0  0  0
   46.8670   34.8960   41.8520 N   0  0  0  0  0  0  0  0  0  0  0  0
   46.4030   34.2300   40.6480 C   0  0  0  0  0  0  0  0  0  0  0  0
   47.6780   33.7530   40.0380 C   0  0  0  0  0  0  0  0  0  0  0  0
   48.8280   34.2040   40.9120 C   0  0  0  0  0  0  0  0  0  0  0  0
   48.2220   35.3830   41.6450 C   0  0  0  0  0  0  0  0  0  0  0  0
   48.2330   36.2790   40.9900 H   0  0  0  0  0  0  0  0  0  0  0  0
  1  4  1  0  0  0  0
  2  1  1  0  0  0  0
  3  1  1  0  0  0  0
  4  7  1  1  0  0  0
  4  6  1  0  0  0  0
  4  5  1  0  0  0  0
  5  9  1  0  0  0  0
  6  5  1  0  0  0  0
  6 10  1  1  0  0  0
  8  5  1  0  0  0  0
 11 13  1  0  0  0  0
 11  6  1  0  0  0  0
 11 12  1  0  0  0  0
 12 15  1  0  0  0  0
 13 17  1  0  0  0  0
 13 12  1  0  0  0  0
 14 11  1  0  0  0  0
 16 12  1  0  0  0  0
 18 13  1  0  0  0  0
 20 19  2  0  0  0  0
 20  1  1  0  0  0  0
 21 27  1  0  0  0  0
 21 26  1  0  0  0  0
 22 21  2  0  0  0  0
 23 22  1  0  0  0  0
 23 24  2  0  0  0  0
 24 25  1  0  0  0  0
 25 26  2  0  0  0  0
 25 19  1  0  0  0  0
 28 22  1  0  0  0  0
 29 23  1  0  0  0  0
 30 29  1  0  0  0  0
 31 30  1  0  0  0  0
 31 32  1  0  0  0  0
 32 33  1  0  0  0  0
 33 29  1  0  0  0  0
 34 33  1  0  0  0  0
M  END
>  <minimizedAffinity>
-5.50430632

>  <minimizedRMSD>
0.71923548

$$$$
