
 OpenBabel03252501523D

 42 45  0  0  1  0  0  0  0  0999 V2000
   33.5670   28.9620   36.8900 C   0  0  0  0  0  3  0  0  0  0  0  0
   32.3160   29.3930   37.0730 C   0  0  0  0  0  3  0  0  0  0  0  0
   35.7380   28.1000   37.9280 C   0  0  0  0  0  0  0  0  0  0  0  0
   34.4770   28.7260   38.0340 C   0  0  0  0  0  0  0  0  0  0  0  0
   34.0330   29.1640   39.2980 C   0  0  0  0  0  0  0  0  0  0  0  0
   34.8550   28.9580   40.3690 N   0  0  0  0  0  0  0  0  0  0  0  0
   36.0420   28.3580   40.2180 C   0  0  0  0  0  0  0  0  0  0  0  0
   36.4670   27.9400   39.0080 N   0  0  0  0  0  0  0  0  0  0  0  0
   35.9990   27.7960   36.9260 H   0  0  0  0  0  0  0  0  0  0  0  0
   33.0690   29.6450   39.3900 H   0  0  0  0  0  0  0  0  0  0  0  0
   37.0640   30.4810   41.6700 F   0  0  0  0  0  0  0  0  0  0  0  0
   37.3800   29.2400   42.1010 C   0  0  0  0  0  0  0  0  0  0  0  0
   36.8840   28.1620   41.3960 C   0  0  0  0  0  0  0  0  0  0  0  0
   37.1560   26.8430   41.7670 C   0  0  0  0  0  0  0  0  0  0  0  0
   37.9560   26.6450   42.8870 C   0  0  0  0  0  0  0  0  0  0  0  0
   38.4700   27.7200   43.6170 C   0  0  0  0  0  0  0  0  0  0  0  0
   38.1750   29.0150   43.2130 C   0  0  0  0  0  0  0  0  0  0  0  0
   36.7680   25.9880   41.2130 H   0  0  0  0  0  0  0  0  0  0  0  0
   38.1580   25.6180   43.1610 H   0  0  0  0  0  0  0  0  0  0  0  0
   39.0830   27.5060   44.4750 H   0  0  0  0  0  0  0  0  0  0  0  0
   38.5490   29.8550   43.7470 H   0  0  0  0  0  0  0  0  0  0  0  0
   31.4020   29.6300   35.9090 C   0  0  0  0  0  0  0  0  0  0  0  0
   31.9610   30.2100   35.1190 H   0  0  0  0  0  0  0  0  0  0  0  0
   31.1550   28.6640   35.4410 H   0  0  0  0  0  0  0  0  0  0  0  0
   30.1880   30.2880   36.2700 N   0  0  0  0  0  0  0  0  0  0  0  0
   29.4850   29.5790   37.2810 C   0  0  0  0  0  0  0  0  0  0  0  0
   28.8110   30.5680   38.1840 C   0  0  0  0  0  0  0  0  0  0  0  0
   29.5960   31.8310   37.9490 C   0  0  0  0  0  0  0  0  0  0  0  0
   30.4280   31.6170   36.7200 C   0  0  2  0  0  0  0  0  0  0  0  0
   28.6800   28.9550   36.7990 H   0  0  0  0  0  0  0  0  0  0  0  0
   30.1250   28.8350   37.8260 H   0  0  0  0  0  0  0  0  0  0  0  0
   28.8520   30.2330   39.2460 H   0  0  0  0  0  0  0  0  0  0  0  0
   27.7390   30.6750   37.9340 H   0  0  0  0  0  0  0  0  0  0  0  0
   30.1770   32.1180   38.8480 H   0  0  0  0  0  0  0  0  0  0  0  0
   28.8710   32.6500   37.7690 H   0  0  0  0  0  0  0  0  0  0  0  0
   31.4920   31.6970   37.0290 H   0  0  0  0  0  0  0  0  0  0  0  0
   30.2110   32.6040   35.6970 N   0  0  1  0  0  0  0  0  0  0  0  0
   31.0960   32.4760   34.5720 C   0  0  0  0  0  2  0  0  0  0  0  0
   30.2930   32.4480   33.3150 C   0  0  0  0  0  2  0  0  0  0  0  0
   28.8550   32.3440   33.7490 C   0  0  0  0  0  2  0  0  0  0  0  0
   28.8670   32.6340   35.2280 C   0  0  0  0  0  3  0  0  0  0  0  0
   28.1720   31.9380   35.7430 H   0  0  0  0  0  0  0  0  0  0  0  0
  1  2  2  0  0  0  0
  1  4  1  0  0  0  0
  3  4  2  0  0  0  0
  3  8  1  0  0  0  0
  4  5  1  0  0  0  0
  5 10  1  0  0  0  0
  5  6  2  0  0  0  0
  7  6  1  0  0  0  0
  7 13  1  0  0  0  0
  8  7  2  0  0  0  0
  9  3  1  0  0  0  0
 11 12  1  0  0  0  0
 12 17  1  0  0  0  0
 13 14  1  0  0  0  0
 13 12  2  0  0  0  0
 14 15  2  0  0  0  0
 15 19  1  0  0  0  0
 15 16  1  0  0  0  0
 16 20  1  0  0  0  0
 17 16  2  0  0  0  0
 17 21  1  0  0  0  0
 18 14  1  0  0  0  0
 22 25  1  0  0  0  0
 22  2  1  0  0  0  0
 23 22  1  0  0  0  0
 24 22  1  0  0  0  0
 25 29  1  0  0  0  0
 25 26  1  0  0  0  0
 26 31  1  0  0  0  0
 26 27  1  0  0  0  0
 27 32  1  0  0  0  0
 28 27  1  0  0  0  0
 28 34  1  0  0  0  0
 29 36  1  1  0  0  0
 29 28  1  0  0  0  0
 30 26  1  0  0  0  0
 33 27  1  0  0  0  0
 35 28  1  0  0  0  0
 37 38  1  6  0  0  0
 37 29  1  0  0  0  0
 39 40  1  0  0  0  0
 39 38  1  0  0  0  0
 40 41  1  0  0  0  0
 41 37  1  0  0  0  0
 41 42  1  0  0  0  0
M  END
>  <minimizedAffinity>
-6.51312685

$$$$

 OpenBabel03252501523D

 42 45  0  0  1  0  0  0  0  0999 V2000
   34.5360   28.4600   37.5460 C   0  0  0  0  0  3  0  0  0  0  0  0
   35.7610   28.9780   37.6750 C   0  0  0  0  0  3  0  0  0  0  0  0
   32.2160   29.3770   36.9890 C   0  0  0  0  0  0  0  0  0  0  0  0
   33.5410   29.0540   36.6240 C   0  0  0  0  0  0  0  0  0  0  0  0
   33.9690   29.3020   35.3040 C   0  0  0  0  0  0  0  0  0  0  0  0
   33.0700   29.8490   34.4340 N   0  0  0  0  0  0  0  0  0  0  0  0
   31.8230   30.1380   34.8270 C   0  0  0  0  0  0  0  0  0  0  0  0
   31.4140   29.9020   36.0910 N   0  0  0  0  0  0  0  0  0  0  0  0
   31.9730   29.1550   38.0160 H   0  0  0  0  0  0  0  0  0  0  0  0
   34.9820   29.0570   35.0140 H   0  0  0  0  0  0  0  0  0  0  0  0
   31.2290   32.8400   34.8030 F   0  0  0  0  0  0  0  0  0  0  0  0
   30.6220   32.0750   33.8700 C   0  0  0  0  0  0  0  0  0  0  0  0
   30.8990   30.7230   33.8580 C   0  0  0  0  0  0  0  0  0  0  0  0
   30.3210   29.8530   32.9310 C   0  0  0  0  0  0  0  0  0  0  0  0
   29.4400   30.4000   32.0030 C   0  0  0  0  0  0  0  0  0  0  0  0
   29.1420   31.7650   31.9950 C   0  0  0  0  0  0  0  0  0  0  0  0
   29.7400   32.5940   32.9350 C   0  0  0  0  0  0  0  0  0  0  0  0
   30.5360   28.7850   32.9180 H   0  0  0  0  0  0  0  0  0  0  0  0
   29.0000   29.7140   31.2930 H   0  0  0  0  0  0  0  0  0  0  0  0
   28.4540   32.1310   31.2540 H   0  0  0  0  0  0  0  0  0  0  0  0
   29.5360   33.6370   32.9550 H   0  0  0  0  0  0  0  0  0  0  0  0
   36.7620   28.3700   38.6110 C   0  0  0  0  0  0  0  0  0  0  0  0
   36.2770   27.5080   39.1540 H   0  0  0  0  0  0  0  0  0  0  0  0
   37.5790   27.9220   38.0250 H   0  0  0  0  0  0  0  0  0  0  0  0
   37.3190   29.3110   39.5290 N   0  0  0  0  0  0  0  0  0  0  0  0
   37.2320   30.6410   39.0360 C   0  0  0  0  0  0  0  0  0  0  0  0
   36.9900   31.5670   40.1910 C   0  0  0  0  0  0  0  0  0  0  0  0
   36.4240   30.6530   41.2450 C   0  0  0  0  0  0  0  0  0  0  0  0
   36.6770   29.2450   40.7970 C   0  0  2  0  0  0  0  0  0  0  0  0
   38.2200   30.9250   38.5750 H   0  0  0  0  0  0  0  0  0  0  0  0
   36.4910   30.7560   38.2030 H   0  0  0  0  0  0  0  0  0  0  0  0
   36.2830   32.3810   39.9090 H   0  0  0  0  0  0  0  0  0  0  0  0
   37.9240   32.0640   40.5100 H   0  0  0  0  0  0  0  0  0  0  0  0
   35.3580   30.8830   41.4470 H   0  0  0  0  0  0  0  0  0  0  0  0
   36.9710   30.8480   42.1890 H   0  0  0  0  0  0  0  0  0  0  0  0
   35.6850   28.7610   40.6660 H   0  0  0  0  0  0  0  0  0  0  0  0
   37.4050   28.4570   41.7550 N   0  0  1  0  0  0  0  0  0  0  0  0
   37.7380   29.1680   42.9570 C   0  0  0  0  0  2  0  0  0  0  0  0
   37.2920   28.3740   44.1390 C   0  0  0  0  0  2  0  0  0  0  0  0
   36.4700   27.2410   43.5840 C   0  0  0  0  0  2  0  0  0  0  0  0
   36.7390   27.2480   42.1010 C   0  0  0  0  0  3  0  0  0  0  0  0
   35.7900   27.0580   41.5580 H   0  0  0  0  0  0  0  0  0  0  0  0
  1  2  2  0  0  0  0
  2 22  1  0  0  0  0
  3  9  1  0  0  0  0
  4  3  1  0  0  0  0
  4  1  1  0  0  0  0
  5  4  2  0  0  0  0
  6  7  2  0  0  0  0
  6  5  1  0  0  0  0
  7  8  1  0  0  0  0
  8  3  2  0  0  0  0
 10  5  1  0  0  0  0
 12 11  1  0  0  0  0
 13 12  1  0  0  0  0
 13  7  1  0  0  0  0
 14 13  2  0  0  0  0
 15 14  1  0  0  0  0
 16 15  2  0  0  0  0
 16 17  1  0  0  0  0
 17 21  1  0  0  0  0
 17 12  2  0  0  0  0
 18 14  1  0  0  0  0
 19 15  1  0  0  0  0
 20 16  1  0  0  0  0
 22 23  1  0  0  0  0
 22 25  1  0  0  0  0
 24 22  1  0  0  0  0
 25 29  1  0  0  0  0
 26 25  1  0  0  0  0
 26 27  1  0  0  0  0
 27 33  1  0  0  0  0
 27 28  1  0  0  0  0
 28 34  1  0  0  0  0
 28 35  1  0  0  0  0
 29 36  1  6  0  0  0
 29 28  1  0  0  0  0
 29 37  1  0  0  0  0
 30 26  1  0  0  0  0
 31 26  1  0  0  0  0
 32 27  1  0  0  0  0
 37 41  1  0  0  0  0
 37 38  1  1  0  0  0
 38 39  1  0  0  0  0
 40 39  1  0  0  0  0
 41 40  1  0  0  0  0
 42 41  1  0  0  0  0
M  END
>  <minimizedAffinity>
-6.150177

$$$$

 OpenBabel03252501523D

 42 45  0  0  1  0  0  0  0  0999 V2000
   35.0080   28.1360   38.1960 C   0  0  0  0  0  3  0  0  0  0  0  0
   36.1330   27.5680   37.7520 C   0  0  0  0  0  3  0  0  0  0  0  0
   32.7280   29.1450   37.6310 C   0  0  0  0  0  0  0  0  0  0  0  0
   34.0300   28.7410   37.2630 C   0  0  0  0  0  0  0  0  0  0  0  0
   34.4500   28.9150   35.9290 C   0  0  0  0  0  0  0  0  0  0  0  0
   33.5660   29.4710   35.0490 N   0  0  0  0  0  0  0  0  0  0  0  0
   32.3410   29.8380   35.4470 C   0  0  0  0  0  0  0  0  0  0  0  0
   31.9390   29.6730   36.7240 N   0  0  0  0  0  0  0  0  0  0  0  0
   32.4900   28.9770   38.6700 H   0  0  0  0  0  0  0  0  0  0  0  0
   35.4450   28.6080   35.6360 H   0  0  0  0  0  0  0  0  0  0  0  0
   30.9410   28.3010   33.6210 F   0  0  0  0  0  0  0  0  0  0  0  0
   30.7470   29.6360   33.5670 C   0  0  0  0  0  0  0  0  0  0  0  0
   31.4320   30.4290   34.4660 C   0  0  0  0  0  0  0  0  0  0  0  0
   31.2960   31.8190   34.4870 C   0  0  0  0  0  0  0  0  0  0  0  0
   30.4330   32.3910   33.5570 C   0  0  0  0  0  0  0  0  0  0  0  0
   29.7290   31.6100   32.6370 C   0  0  0  0  0  0  0  0  0  0  0  0
   29.8950   30.2320   32.6520 C   0  0  0  0  0  0  0  0  0  0  0  0
   31.8350   32.4480   35.1940 H   0  0  0  0  0  0  0  0  0  0  0  0
   30.3390   33.4680   33.5860 H   0  0  0  0  0  0  0  0  0  0  0  0
   29.0760   32.1080   31.9420 H   0  0  0  0  0  0  0  0  0  0  0  0
   29.3730   29.6090   31.9660 H   0  0  0  0  0  0  0  0  0  0  0  0
   37.1180   26.9580   38.7040 C   0  0  0  0  0  0  0  0  0  0  0  0
   37.7770   26.2400   38.1340 H   0  0  0  0  0  0  0  0  0  0  0  0
   37.7950   27.7430   39.0750 H   0  0  0  0  0  0  0  0  0  0  0  0
   36.5010   26.3180   39.8200 N   0  0  0  0  0  0  0  0  0  0  0  0
   36.3260   24.9250   39.5960 C   0  0  0  0  0  0  0  0  0  0  0  0
   36.5180   24.2010   40.8960 C   0  0  0  0  0  0  0  0  0  0  0  0
   37.3160   25.1800   41.7150 C   0  0  0  0  0  0  0  0  0  0  0  0
   37.2550   26.5030   41.0120 C   0  0  2  0  0  0  0  0  0  0  0  0
   35.2690   24.7380   39.2570 H   0  0  0  0  0  0  0  0  0  0  0  0
   36.9620   24.5280   38.7620 H   0  0  0  0  0  0  0  0  0  0  0  0
   37.0550   23.2380   40.7410 H   0  0  0  0  0  0  0  0  0  0  0  0
   35.5470   23.9440   41.3590 H   0  0  0  0  0  0  0  0  0  0  0  0
   38.3440   24.8080   41.8980 H   0  0  0  0  0  0  0  0  0  0  0  0
   36.8310   25.2640   42.7070 H   0  0  0  0  0  0  0  0  0  0  0  0
   38.2970   26.7720   40.7310 H   0  0  0  0  0  0  0  0  0  0  0  0
   36.7530   27.5710   41.8340 N   0  0  1  0  0  0  0  0  0  0  0  0
   36.4540   27.1730   43.1810 C   0  0  0  0  0  2  0  0  0  0  0  0
   37.1320   28.1030   44.1310 C   0  0  0  0  0  2  0  0  0  0  0  0
   38.0410   28.9580   43.2890 C   0  0  0  0  0  2  0  0  0  0  0  0
   37.6170   28.7020   41.8650 C   0  0  0  0  0  3  0  0  0  0  0  0
   38.5190   28.6260   41.2230 H   0  0  0  0  0  0  0  0  0  0  0  0
  2  1  2  0  0  0  0
  2 22  1  0  0  0  0
  3  9  1  0  0  0  0
  4  3  1  0  0  0  0
  4  1  1  0  0  0  0
  5  4  2  0  0  0  0
  6  7  2  0  0  0  0
  6  5  1  0  0  0  0
  7  8  1  0  0  0  0
  8  3  2  0  0  0  0
 10  5  1  0  0  0  0
 12 11  1  0  0  0  0
 12 13  1  0  0  0  0
 13 14  2  0  0  0  0
 13  7  1  0  0  0  0
 14 18  1  0  0  0  0
 15 19  1  0  0  0  0
 15 14  1  0  0  0  0
 16 17  1  0  0  0  0
 16 15  2  0  0  0  0
 17 12  2  0  0  0  0
 20 16  1  0  0  0  0
 21 17  1  0  0  0  0
 22 24  1  0  0  0  0
 22 25  1  0  0  0  0
 23 22  1  0  0  0  0
 25 29  1  0  0  0  0
 26 25  1  0  0  0  0
 26 27  1  0  0  0  0
 27 33  1  0  0  0  0
 27 28  1  0  0  0  0
 28 34  1  0  0  0  0
 28 35  1  0  0  0  0
 29 36  1  6  0  0  0
 29 28  1  0  0  0  0
 29 37  1  0  0  0  0
 30 26  1  0  0  0  0
 31 26  1  0  0  0  0
 32 27  1  0  0  0  0
 37 41  1  0  0  0  0
 37 38  1  1  0  0  0
 38 39  1  0  0  0  0
 40 39  1  0  0  0  0
 41 40  1  0  0  0  0
 42 41  1  0  0  0  0
M  END
>  <minimizedAffinity>
-5.90948439

$$$$

 OpenBabel03252501523D

 42 45  0  0  1  0  0  0  0  0999 V2000
   33.4190   28.4800   36.7590 C   0  0  0  0  0  3  0  0  0  0  0  0
   32.5440   29.4760   36.6000 C   0  0  0  0  0  3  0  0  0  0  0  0
   35.5120   27.6750   37.9870 C   0  0  0  0  0  0  0  0  0  0  0  0
   34.3130   28.4180   37.9390 C   0  0  0  0  0  0  0  0  0  0  0  0
   33.9180   29.1580   39.0710 C   0  0  0  0  0  0  0  0  0  0  0  0
   34.7240   29.1170   40.1730 N   0  0  0  0  0  0  0  0  0  0  0  0
   35.8530   28.3970   40.1710 C   0  0  0  0  0  0  0  0  0  0  0  0
   36.2310   27.6900   39.0860 N   0  0  0  0  0  0  0  0  0  0  0  0
   35.7380   27.1400   37.0780 H   0  0  0  0  0  0  0  0  0  0  0  0
   33.0000   29.7300   39.0450 H   0  0  0  0  0  0  0  0  0  0  0  0
   37.3290   30.6000   40.9610 F   0  0  0  0  0  0  0  0  0  0  0  0
   37.4080   29.5020   41.7440 C   0  0  0  0  0  0  0  0  0  0  0  0
   36.6820   28.3870   41.3740 C   0  0  0  0  0  0  0  0  0  0  0  0
   36.7000   27.2070   42.1210 C   0  0  0  0  0  0  0  0  0  0  0  0
   37.4860   27.1880   43.2680 C   0  0  0  0  0  0  0  0  0  0  0  0
   38.2290   28.3030   43.6630 C   0  0  0  0  0  0  0  0  0  0  0  0
   38.1820   29.4560   42.8910 C   0  0  0  0  0  0  0  0  0  0  0  0
   36.1290   26.3250   41.8320 H   0  0  0  0  0  0  0  0  0  0  0  0
   37.4890   26.2670   43.8350 H   0  0  0  0  0  0  0  0  0  0  0  0
   38.8190   28.2290   44.5600 H   0  0  0  0  0  0  0  0  0  0  0  0
   38.7350   30.3220   43.1640 H   0  0  0  0  0  0  0  0  0  0  0  0
   31.6440   29.5300   35.4030 C   0  0  0  0  0  0  0  0  0  0  0  0
   32.2620   29.3580   34.4740 H   0  0  0  0  0  0  0  0  0  0  0  0
   30.9370   28.6870   35.4430 H   0  0  0  0  0  0  0  0  0  0  0  0
   30.9020   30.7460   35.3100 N   0  0  0  0  0  0  0  0  0  0  0  0
   31.3950   31.5850   34.2740 C   0  0  0  0  0  0  0  0  0  0  0  0
   30.2390   32.3090   33.6500 C   0  0  0  0  0  0  0  0  0  0  0  0
   29.0600   31.4490   34.0200 C   0  0  0  0  0  0  0  0  0  0  0  0
   29.5190   30.4990   35.0840 C   0  0  2  0  0  0  0  0  0  0  0  0
   32.0780   32.3590   34.7250 H   0  0  0  0  0  0  0  0  0  0  0  0
   32.0390   31.0420   33.5340 H   0  0  0  0  0  0  0  0  0  0  0  0
   30.3720   32.3990   32.5480 H   0  0  0  0  0  0  0  0  0  0  0  0
   30.1560   33.3420   34.0380 H   0  0  0  0  0  0  0  0  0  0  0  0
   28.6250   30.9570   33.1260 H   0  0  0  0  0  0  0  0  0  0  0  0
   28.2730   32.1140   34.4280 H   0  0  0  0  0  0  0  0  0  0  0  0
   29.4070   29.4710   34.6750 H   0  0  0  0  0  0  0  0  0  0  0  0
   28.7340   30.5590   36.2880 N   0  0  1  0  0  0  0  0  0  0  0  0
   28.7130   29.3280   37.0280 C   0  0  0  0  0  2  0  0  0  0  0  0
   29.0850   29.5990   38.4470 C   0  0  0  0  0  2  0  0  0  0  0  0
   29.5490   31.0310   38.4820 C   0  0  0  0  0  2  0  0  0  0  0  0
   29.1290   31.6150   37.1570 C   0  0  0  0  0  3  0  0  0  0  0  0
   29.9410   32.2660   36.7720 H   0  0  0  0  0  0  0  0  0  0  0  0
  1  4  1  0  0  0  0
  2  1  2  0  0  0  0
  3  8  1  0  0  0  0
  4  3  2  0  0  0  0
  4  5  1  0  0  0  0
  5  6  2  0  0  0  0
  7  6  1  0  0  0  0
  7 13  1  0  0  0  0
  8  7  2  0  0  0  0
  9  3  1  0  0  0  0
 10  5  1  0  0  0  0
 11 12  1  0  0  0  0
 12 17  1  0  0  0  0
 13 12  2  0  0  0  0
 13 14  1  0  0  0  0
 14 15  2  0  0  0  0
 15 16  1  0  0  0  0
 15 19  1  0  0  0  0
 16 20  1  0  0  0  0
 17 21  1  0  0  0  0
 17 16  2  0  0  0  0
 18 14  1  0  0  0  0
 22 24  1  0  0  0  0
 22  2  1  0  0  0  0
 23 22  1  0  0  0  0
 25 22  1  0  0  0  0
 26 30  1  0  0  0  0
 26 25  1  0  0  0  0
 27 28  1  0  0  0  0
 27 33  1  0  0  0  0
 27 26  1  0  0  0  0
 28 35  1  0  0  0  0
 28 29  1  0  0  0  0
 29 36  1  6  0  0  0
 29 25  1  0  0  0  0
 29 37  1  0  0  0  0
 31 26  1  0  0  0  0
 32 27  1  0  0  0  0
 34 28  1  0  0  0  0
 37 38  1  1  0  0  0
 37 41  1  0  0  0  0
 38 39  1  0  0  0  0
 39 40  1  0  0  0  0
 41 40  1  0  0  0  0
 42 41  1  0  0  0  0
M  END
>  <minimizedAffinity>
-5.8031168

$$$$

 OpenBabel03252501523D

 42 45  0  0  1  0  0  0  0  0999 V2000
   34.3870   28.3550   37.9070 C   0  0  0  0  0  3  0  0  0  0  0  0
   34.8520   29.0430   38.9540 C   0  0  0  0  0  3  0  0  0  0  0  0
   32.1510   29.4040   37.2480 C   0  0  0  0  0  0  0  0  0  0  0  0
   33.4560   28.9690   36.9320 C   0  0  0  0  0  0  0  0  0  0  0  0
   33.9290   29.1190   35.6130 C   0  0  0  0  0  0  0  0  0  0  0  0
   33.0890   29.6830   34.6950 N   0  0  0  0  0  0  0  0  0  0  0  0
   31.8590   30.0790   35.0420 C   0  0  0  0  0  0  0  0  0  0  0  0
   31.4070   29.9370   36.3050 N   0  0  0  0  0  0  0  0  0  0  0  0
   31.8710   29.2530   38.2790 H   0  0  0  0  0  0  0  0  0  0  0  0
   34.9270   28.7890   35.3610 H   0  0  0  0  0  0  0  0  0  0  0  0
   31.3220   32.7920   34.9750 F   0  0  0  0  0  0  0  0  0  0  0  0
   30.7490   32.0350   34.0140 C   0  0  0  0  0  0  0  0  0  0  0  0
   31.0000   30.6770   34.0220 C   0  0  0  0  0  0  0  0  0  0  0  0
   30.4530   29.8140   33.0700 C   0  0  0  0  0  0  0  0  0  0  0  0
   29.6340   30.3730   32.0940 C   0  0  0  0  0  0  0  0  0  0  0  0
   29.3660   31.7440   32.0650 C   0  0  0  0  0  0  0  0  0  0  0  0
   29.9300   32.5650   33.0310 C   0  0  0  0  0  0  0  0  0  0  0  0
   30.6470   28.7420   33.0730 H   0  0  0  0  0  0  0  0  0  0  0  0
   29.2190   29.6920   31.3640 H   0  0  0  0  0  0  0  0  0  0  0  0
   28.7250   32.1200   31.2860 H   0  0  0  0  0  0  0  0  0  0  0  0
   29.7460   33.6120   33.0360 H   0  0  0  0  0  0  0  0  0  0  0  0
   35.7930   28.4130   39.9350 C   0  0  0  0  0  0  0  0  0  0  0  0
   35.2070   27.7290   40.6150 H   0  0  0  0  0  0  0  0  0  0  0  0
   36.4920   27.7560   39.3950 H   0  0  0  0  0  0  0  0  0  0  0  0
   36.5450   29.3660   40.6860 N   0  0  0  0  0  0  0  0  0  0  0  0
   36.7970   28.9120   42.0090 C   0  0  0  0  0  0  0  0  0  0  0  0
   38.1530   29.3930   42.4330 C   0  0  0  0  0  0  0  0  0  0  0  0
   38.8410   29.6680   41.1220 C   0  0  0  0  0  0  0  0  0  0  0  0
   37.7860   29.6660   40.0570 C   0  0  2  0  0  0  0  0  0  0  0  0
   36.0410   29.3730   42.7050 H   0  0  0  0  0  0  0  0  0  0  0  0
   36.6520   27.8070   42.1320 H   0  0  0  0  0  0  0  0  0  0  0  0
   38.6810   28.6190   43.0370 H   0  0  0  0  0  0  0  0  0  0  0  0
   38.0780   30.2900   43.0750 H   0  0  0  0  0  0  0  0  0  0  0  0
   39.6690   28.9520   40.9440 H   0  0  0  0  0  0  0  0  0  0  0  0
   39.3020   30.6730   41.1880 H   0  0  0  0  0  0  0  0  0  0  0  0
   38.0330   28.8410   39.3540 H   0  0  0  0  0  0  0  0  0  0  0  0
   37.7440   30.8780   39.2840 N   0  0  1  0  0  0  0  0  0  0  0  0
   36.9700   31.9250   39.8900 C   0  0  0  0  0  2  0  0  0  0  0  0
   37.7880   33.1720   39.9470 C   0  0  0  0  0  2  0  0  0  0  0  0
   39.1810   32.7670   39.5420 C   0  0  0  0  0  2  0  0  0  0  0  0
   39.0380   31.3810   38.9680 C   0  0  0  0  0  3  0  0  0  0  0  0
   39.8860   30.7530   39.3130 H   0  0  0  0  0  0  0  0  0  0  0  0
  1  2  2  0  0  0  0
  2 22  1  0  0  0  0
  3  9  1  0  0  0  0
  4  3  1  0  0  0  0
  4  1  1  0  0  0  0
  5  4  2  0  0  0  0
  6  7  2  0  0  0  0
  6  5  1  0  0  0  0
  7  8  1  0  0  0  0
  8  3  2  0  0  0  0
 10  5  1  0  0  0  0
 12 13  1  0  0  0  0
 12 11  1  0  0  0  0
 13  7  1  0  0  0  0
 14 18  1  0  0  0  0
 14 13  2  0  0  0  0
 15 14  1  0  0  0  0
 16 15  2  0  0  0  0
 16 17  1  0  0  0  0
 17 21  1  0  0  0  0
 17 12  2  0  0  0  0
 19 15  1  0  0  0  0
 20 16  1  0  0  0  0
 22 23  1  0  0  0  0
 22 25  1  0  0  0  0
 24 22  1  0  0  0  0
 25 26  1  0  0  0  0
 26 31  1  0  0  0  0
 26 27  1  0  0  0  0
 26 30  1  0  0  0  0
 27 32  1  0  0  0  0
 27 33  1  0  0  0  0
 28 35  1  0  0  0  0
 28 27  1  0  0  0  0
 29 36  1  6  0  0  0
 29 25  1  0  0  0  0
 29 28  1  0  0  0  0
 34 28  1  0  0  0  0
 37 38  1  1  0  0  0
 37 29  1  0  0  0  0
 38 39  1  0  0  0  0
 40 39  1  0  0  0  0
 41 37  1  0  0  0  0
 41 42  1  0  0  0  0
 41 40  1  0  0  0  0
M  END
>  <minimizedAffinity>
-5.75983334

$$$$

 OpenBabel03252501523D

 42 45  0  0  1  0  0  0  0  0999 V2000
   35.0550   26.3300   37.7200 C   0  0  0  0  0  3  0  0  0  0  0  0
   35.9710   26.5900   38.6570 C   0  0  0  0  0  3  0  0  0  0  0  0
   33.1550   27.1810   36.2380 C   0  0  0  0  0  0  0  0  0  0  0  0
   34.0690   27.3510   37.3000 C   0  0  0  0  0  0  0  0  0  0  0  0
   34.0620   28.5610   38.0240 C   0  0  0  0  0  0  0  0  0  0  0  0
   33.1620   29.5190   37.6560 N   0  0  0  0  0  0  0  0  0  0  0  0
   32.3140   29.3110   36.6390 C   0  0  0  0  0  0  0  0  0  0  0  0
   32.3210   28.1530   35.9480 N   0  0  0  0  0  0  0  0  0  0  0  0
   33.2280   26.2270   35.7390 H   0  0  0  0  0  0  0  0  0  0  0  0
   34.7580   28.7010   38.8390 H   0  0  0  0  0  0  0  0  0  0  0  0
   32.4460   30.6560   34.2260 F   0  0  0  0  0  0  0  0  0  0  0  0
   31.4600   31.0230   35.0730 C   0  0  0  0  0  0  0  0  0  0  0  0
   31.3700   30.3690   36.2860 C   0  0  0  0  0  0  0  0  0  0  0  0
   30.3850   30.6780   37.2260 C   0  0  0  0  0  0  0  0  0  0  0  0
   29.4800   31.6830   36.8980 C   0  0  0  0  0  0  0  0  0  0  0  0
   29.5510   32.3600   35.6780 C   0  0  0  0  0  0  0  0  0  0  0  0
   30.5470   32.0200   34.7720 C   0  0  0  0  0  0  0  0  0  0  0  0
   30.3100   30.1650   38.1840 H   0  0  0  0  0  0  0  0  0  0  0  0
   28.7240   31.9110   37.6360 H   0  0  0  0  0  0  0  0  0  0  0  0
   28.8250   33.1280   35.4800 H   0  0  0  0  0  0  0  0  0  0  0  0
   30.6280   32.5150   33.8350 H   0  0  0  0  0  0  0  0  0  0  0  0
   36.9650   25.5500   39.0770 C   0  0  0  0  0  0  0  0  0  0  0  0
   36.7630   24.6000   38.5020 H   0  0  0  0  0  0  0  0  0  0  0  0
   37.9730   25.8680   38.7670 H   0  0  0  0  0  0  0  0  0  0  0  0
   36.9710   25.3100   40.4830 N   0  0  0  0  0  0  0  0  0  0  0  0
   37.2960   23.9600   40.7850 C   0  0  0  0  0  0  0  0  0  0  0  0
   38.0960   23.9290   42.0530 C   0  0  0  0  0  0  0  0  0  0  0  0
   38.6430   25.3290   42.1440 C   0  0  0  0  0  0  0  0  0  0  0  0
   37.8870   26.1660   41.1560 C   0  0  2  0  0  0  0  0  0  0  0  0
   36.3430   23.3870   40.9710 H   0  0  0  0  0  0  0  0  0  0  0  0
   37.7830   23.4210   39.9310 H   0  0  0  0  0  0  0  0  0  0  0  0
   38.9010   23.1600   41.9990 H   0  0  0  0  0  0  0  0  0  0  0  0
   37.4650   23.6570   42.9200 H   0  0  0  0  0  0  0  0  0  0  0  0
   39.7430   25.3410   42.0040 H   0  0  0  0  0  0  0  0  0  0  0  0
   38.4510   25.6990   43.1700 H   0  0  0  0  0  0  0  0  0  0  0  0
   38.6260   26.5430   40.4160 H   0  0  0  0  0  0  0  0  0  0  0  0
   37.2540   27.3170   41.7410 N   0  0  1  0  0  0  0  0  0  0  0  0
   36.7010   27.0750   43.0440 C   0  0  0  0  0  2  0  0  0  0  0  0
   37.2010   28.1130   43.9930 C   0  0  0  0  0  2  0  0  0  0  0  0
   38.2640   28.8730   43.2450 C   0  0  0  0  0  2  0  0  0  0  0  0
   38.1120   28.4520   41.8050 C   0  0  0  0  0  3  0  0  0  0  0  0
   39.1180   28.3100   41.3580 H   0  0  0  0  0  0  0  0  0  0  0  0
  1  2  2  0  0  0  0
  2 22  1  0  0  0  0
  3  4  1  0  0  0  0
  4  1  1  0  0  0  0
  4  5  2  0  0  0  0
  5 10  1  0  0  0  0
  6  5  1  0  0  0  0
  7  6  2  0  0  0  0
  8  3  2  0  0  0  0
  8  7  1  0  0  0  0
  9  3  1  0  0  0  0
 11 12  1  0  0  0  0
 12 13  1  0  0  0  0
 13  7  1  0  0  0  0
 13 14  2  0  0  0  0
 14 18  1  0  0  0  0
 15 14  1  0  0  0  0
 15 19  1  0  0  0  0
 16 15  2  0  0  0  0
 17 12  2  0  0  0  0
 17 16  1  0  0  0  0
 20 16  1  0  0  0  0
 21 17  1  0  0  0  0
 22 25  1  0  0  0  0
 23 22  1  0  0  0  0
 24 22  1  0  0  0  0
 25 26  1  0  0  0  0
 25 29  1  0  0  0  0
 26 30  1  0  0  0  0
 26 27  1  0  0  0  0
 27 28  1  0  0  0  0
 27 33  1  0  0  0  0
 28 35  1  0  0  0  0
 29 36  1  6  0  0  0
 29 37  1  0  0  0  0
 29 28  1  0  0  0  0
 31 26  1  0  0  0  0
 32 27  1  0  0  0  0
 34 28  1  0  0  0  0
 37 41  1  0  0  0  0
 37 38  1  1  0  0  0
 38 39  1  0  0  0  0
 40 39  1  0  0  0  0
 41 40  1  0  0  0  0
 42 41  1  0  0  0  0
M  END
>  <minimizedAffinity>
-5.75391531

$$$$

 OpenBabel03252501523D

 42 45  0  0  1  0  0  0  0  0999 V2000
   33.6500   28.4440   37.6690 C   0  0  0  0  0  3  0  0  0  0  0  0
   32.7730   29.3710   37.2760 C   0  0  0  0  0  3  0  0  0  0  0  0
   36.1600   28.8170   37.9730 C   0  0  0  0  0  0  0  0  0  0  0  0
   34.8410   28.7990   38.4740 C   0  0  0  0  0  0  0  0  0  0  0  0
   34.6150   29.1370   39.8240 C   0  0  0  0  0  0  0  0  0  0  0  0
   35.6970   29.4690   40.5880 N   0  0  0  0  0  0  0  0  0  0  0  0
   36.9310   29.4710   40.0660 C   0  0  0  0  0  0  0  0  0  0  0  0
   37.1460   29.1480   38.7750 N   0  0  0  0  0  0  0  0  0  0  0  0
   36.2420   28.5460   36.9320 H   0  0  0  0  0  0  0  0  0  0  0  0
   33.6080   29.1260   40.2180 H   0  0  0  0  0  0  0  0  0  0  0  0
   37.7510   32.0930   40.3900 F   0  0  0  0  0  0  0  0  0  0  0  0
   38.4420   31.1520   41.0680 C   0  0  0  0  0  0  0  0  0  0  0  0
   38.0550   29.8340   40.9260 C   0  0  0  0  0  0  0  0  0  0  0  0
   38.7090   28.7920   41.5870 C   0  0  0  0  0  0  0  0  0  0  0  0
   39.7800   29.1270   42.4080 C   0  0  0  0  0  0  0  0  0  0  0  0
   40.1910   30.4530   42.5680 C   0  0  0  0  0  0  0  0  0  0  0  0
   39.5130   31.4580   41.8920 C   0  0  0  0  0  0  0  0  0  0  0  0
   38.4070   27.7500   41.4770 H   0  0  0  0  0  0  0  0  0  0  0  0
   40.2760   28.3090   42.9130 H   0  0  0  0  0  0  0  0  0  0  0  0
   41.0270   30.6510   43.2160 H   0  0  0  0  0  0  0  0  0  0  0  0
   39.8000   32.4760   41.9930 H   0  0  0  0  0  0  0  0  0  0  0  0
   31.5700   29.0030   36.4620 C   0  0  0  0  0  0  0  0  0  0  0  0
   31.8590   28.9880   35.3710 H   0  0  0  0  0  0  0  0  0  0  0  0
   31.2770   27.9680   36.6980 H   0  0  0  0  0  0  0  0  0  0  0  0
   30.4510   29.8600   36.6880 N   0  0  0  0  0  0  0  0  0  0  0  0
   30.3090   30.1880   38.0630 C   0  0  0  0  0  0  0  0  0  0  0  0
   29.8050   31.5960   38.1720 C   0  0  0  0  0  0  0  0  0  0  0  0
   30.1790   32.1950   36.8430 C   0  0  0  0  0  0  0  0  0  0  0  0
   30.5540   31.0620   35.9340 C   0  0  2  0  0  0  0  0  0  0  0  0
   29.5340   29.5130   38.5220 H   0  0  0  0  0  0  0  0  0  0  0  0
   31.2380   29.9940   38.6620 H   0  0  0  0  0  0  0  0  0  0  0  0
   30.2830   32.1260   39.0280 H   0  0  0  0  0  0  0  0  0  0  0  0
   28.7160   31.6190   38.3630 H   0  0  0  0  0  0  0  0  0  0  0  0
   30.9660   32.9680   36.9560 H   0  0  0  0  0  0  0  0  0  0  0  0
   29.2850   32.7120   36.4430 H   0  0  0  0  0  0  0  0  0  0  0  0
   31.6180   31.2100   35.6500 H   0  0  0  0  0  0  0  0  0  0  0  0
   29.7940   31.0270   34.7130 N   0  0  1  0  0  0  0  0  0  0  0  0
   28.7000   31.9570   34.6840 C   0  0  0  0  0  2  0  0  0  0  0  0
   28.7790   32.7720   33.4370 C   0  0  0  0  0  2  0  0  0  0  0  0
   30.1090   32.4370   32.8130 C   0  0  0  0  0  2  0  0  0  0  0  0
   30.5960   31.2180   33.5530 C   0  0  0  0  0  3  0  0  0  0  0  0
   31.6860   31.3180   33.7430 H   0  0  0  0  0  0  0  0  0  0  0  0
  1  4  1  0  0  0  0
  2  1  2  0  0  0  0
  3  4  2  0  0  0  0
  3  8  1  0  0  0  0
  4  5  1  0  0  0  0
  5 10  1  0  0  0  0
  5  6  2  0  0  0  0
  7  6  1  0  0  0  0
  7 13  1  0  0  0  0
  8  7  2  0  0  0  0
  9  3  1  0  0  0  0
 11 12  1  0  0  0  0
 12 17  1  0  0  0  0
 13 12  2  0  0  0  0
 13 14  1  0  0  0  0
 14 15  2  0  0  0  0
 15 16  1  0  0  0  0
 15 19  1  0  0  0  0
 16 20  1  0  0  0  0
 17 21  1  0  0  0  0
 17 16  2  0  0  0  0
 18 14  1  0  0  0  0
 22 25  1  0  0  0  0
 22 24  1  0  0  0  0
 22  2  1  0  0  0  0
 23 22  1  0  0  0  0
 25 26  1  0  0  0  0
 26 27  1  0  0  0  0
 26 30  1  0  0  0  0
 26 31  1  0  0  0  0
 27 33  1  0  0  0  0
 27 32  1  0  0  0  0
 28 34  1  0  0  0  0
 28 27  1  0  0  0  0
 29 36  1  6  0  0  0
 29 25  1  0  0  0  0
 29 28  1  0  0  0  0
 35 28  1  0  0  0  0
 37 38  1  1  0  0  0
 37 29  1  0  0  0  0
 39 38  1  0  0  0  0
 40 39  1  0  0  0  0
 40 41  1  0  0  0  0
 41 42  1  0  0  0  0
 41 37  1  0  0  0  0
M  END
>  <minimizedAffinity>
-5.59794998

$$$$

 OpenBabel03252501523D

 42 45  0  0  1  0  0  0  0  0999 V2000
   34.6070   28.2340   37.5900 C   0  0  0  0  0  3  0  0  0  0  0  0
   35.0200   28.8350   38.7100 C   0  0  0  0  0  3  0  0  0  0  0  0
   32.3120   29.2240   37.0540 C   0  0  0  0  0  0  0  0  0  0  0  0
   33.6300   28.8790   36.6840 C   0  0  0  0  0  0  0  0  0  0  0  0
   34.0680   29.1560   35.3730 C   0  0  0  0  0  0  0  0  0  0  0  0
   33.1850   29.7500   34.5170 N   0  0  0  0  0  0  0  0  0  0  0  0
   31.9450   30.0580   34.9160 C   0  0  0  0  0  0  0  0  0  0  0  0
   31.5260   29.7940   36.1700 N   0  0  0  0  0  0  0  0  0  0  0  0
   32.0600   28.9770   38.0740 H   0  0  0  0  0  0  0  0  0  0  0  0
   35.0760   28.8950   35.0790 H   0  0  0  0  0  0  0  0  0  0  0  0
   30.6290   28.6200   32.9520 F   0  0  0  0  0  0  0  0  0  0  0  0
   30.3950   29.9500   32.9920 C   0  0  0  0  0  0  0  0  0  0  0  0
   31.0380   30.6930   33.9610 C   0  0  0  0  0  0  0  0  0  0  0  0
   30.8600   32.0730   34.0810 C   0  0  0  0  0  0  0  0  0  0  0  0
   29.9990   32.6870   33.1770 C   0  0  0  0  0  0  0  0  0  0  0  0
   29.3370   31.9570   32.1870 C   0  0  0  0  0  0  0  0  0  0  0  0
   29.5440   30.5870   32.1040 C   0  0  0  0  0  0  0  0  0  0  0  0
   31.3650   32.6640   34.8440 H   0  0  0  0  0  0  0  0  0  0  0  0
   29.8710   33.7560   33.2830 H   0  0  0  0  0  0  0  0  0  0  0  0
   28.6830   32.4860   31.5170 H   0  0  0  0  0  0  0  0  0  0  0  0
   29.0550   30.0020   31.3640 H   0  0  0  0  0  0  0  0  0  0  0  0
   36.0100   28.1760   39.6210 C   0  0  0  0  0  0  0  0  0  0  0  0
   35.4580   27.7400   40.5040 H   0  0  0  0  0  0  0  0  0  0  0  0
   36.4590   27.3140   39.1040 H   0  0  0  0  0  0  0  0  0  0  0  0
   37.0550   29.0500   40.0470 N   0  0  0  0  0  0  0  0  0  0  0  0
   37.3870   30.0000   39.0440 C   0  0  0  0  0  0  0  0  0  0  0  0
   37.7520   31.2940   39.7080 C   0  0  0  0  0  0  0  0  0  0  0  0
   37.1030   31.1760   41.0610 C   0  0  0  0  0  0  0  0  0  0  0  0
   36.7040   29.7420   41.2400 C   0  0  2  0  0  0  0  0  0  0  0  0
   38.2950   29.6380   38.4830 H   0  0  0  0  0  0  0  0  0  0  0  0
   36.5960   30.1060   38.2560 H   0  0  0  0  0  0  0  0  0  0  0  0
   37.3690   32.1640   39.1260 H   0  0  0  0  0  0  0  0  0  0  0  0
   38.8490   31.4190   39.7680 H   0  0  0  0  0  0  0  0  0  0  0  0
   36.2690   31.8980   41.1720 H   0  0  0  0  0  0  0  0  0  0  0  0
   37.8590   31.4490   41.8230 H   0  0  0  0  0  0  0  0  0  0  0  0
   35.5980   29.7220   41.3460 H   0  0  0  0  0  0  0  0  0  0  0  0
   37.2500   29.1340   42.4230 N   0  0  1  0  0  0  0  0  0  0  0  0
   36.5390   27.9630   42.8540 C   0  0  0  0  0  2  0  0  0  0  0  0
   37.5040   26.8410   43.0430 C   0  0  0  0  0  2  0  0  0  0  0  0
   38.8160   27.3320   42.4900 C   0  0  0  0  0  2  0  0  0  0  0  0
   38.6320   28.8160   42.2970 C   0  0  0  0  0  3  0  0  0  0  0  0
   39.1020   29.1210   41.3390 H   0  0  0  0  0  0  0  0  0  0  0  0
  1  2  2  0  0  0  0
  2 22  1  0  0  0  0
  3  9  1  0  0  0  0
  4  3  1  0  0  0  0
  4  1  1  0  0  0  0
  5  4  2  0  0  0  0
  6  7  2  0  0  0  0
  6  5  1  0  0  0  0
  7  8  1  0  0  0  0
  8  3  2  0  0  0  0
 10  5  1  0  0  0  0
 11 12  1  0  0  0  0
 12 13  1  0  0  0  0
 13 14  2  0  0  0  0
 13  7  1  0  0  0  0
 14 18  1  0  0  0  0
 15 19  1  0  0  0  0
 15 14  1  0  0  0  0
 16 15  2  0  0  0  0
 17 16  1  0  0  0  0
 17 12  2  0  0  0  0
 20 16  1  0  0  0  0
 21 17  1  0  0  0  0
 22 25  1  0  0  0  0
 22 23  1  0  0  0  0
 24 22  1  0  0  0  0
 25 29  1  0  0  0  0
 26 27  1  0  0  0  0
 26 25  1  0  0  0  0
 27 33  1  0  0  0  0
 27 28  1  0  0  0  0
 28 34  1  0  0  0  0
 28 29  1  0  0  0  0
 28 35  1  0  0  0  0
 29 36  1  1  0  0  0
 29 37  1  0  0  0  0
 30 26  1  0  0  0  0
 31 26  1  0  0  0  0
 32 27  1  0  0  0  0
 37 38  1  6  0  0  0
 38 39  1  0  0  0  0
 40 39  1  0  0  0  0
 41 37  1  0  0  0  0
 41 40  1  0  0  0  0
 42 41  1  0  0  0  0
M  END
>  <minimizedAffinity>
-5.55768871

$$$$

 OpenBabel03252501523D

 42 45  0  0  1  0  0  0  0  0999 V2000
   35.3510   28.1890   37.8360 C   0  0  0  0  0  3  0  0  0  0  0  0
   35.3620   28.3870   39.1570 C   0  0  0  0  0  3  0  0  0  0  0  0
   33.0000   29.1020   37.4160 C   0  0  0  0  0  0  0  0  0  0  0  0
   34.3020   28.7830   36.9750 C   0  0  0  0  0  0  0  0  0  0  0  0
   34.6530   29.0370   35.6340 C   0  0  0  0  0  0  0  0  0  0  0  0
   33.7040   29.5850   34.8190 N   0  0  0  0  0  0  0  0  0  0  0  0
   32.4810   29.8700   35.2850 C   0  0  0  0  0  0  0  0  0  0  0  0
   32.1460   29.6280   36.5680 N   0  0  0  0  0  0  0  0  0  0  0  0
   32.8170   28.8760   38.4560 H   0  0  0  0  0  0  0  0  0  0  0  0
   35.6480   28.7950   35.2850 H   0  0  0  0  0  0  0  0  0  0  0  0
   30.9730   28.3270   33.5530 F   0  0  0  0  0  0  0  0  0  0  0  0
   30.7630   29.6600   33.5190 C   0  0  0  0  0  0  0  0  0  0  0  0
   31.5020   30.4560   34.3720 C   0  0  0  0  0  0  0  0  0  0  0  0
   31.3540   31.8440   34.4090 C   0  0  0  0  0  0  0  0  0  0  0  0
   30.4240   32.4120   33.5440 C   0  0  0  0  0  0  0  0  0  0  0  0
   29.6650   31.6280   32.6710 C   0  0  0  0  0  0  0  0  0  0  0  0
   29.8440   30.2520   32.6680 C   0  0  0  0  0  0  0  0  0  0  0  0
   31.9350   32.4760   35.0800 H   0  0  0  0  0  0  0  0  0  0  0  0
   30.3210   33.4880   33.5840 H   0  0  0  0  0  0  0  0  0  0  0  0
   28.9610   32.1230   32.0250 H   0  0  0  0  0  0  0  0  0  0  0  0
   29.2820   29.6270   32.0170 H   0  0  0  0  0  0  0  0  0  0  0  0
   36.4270   27.7820   40.0200 C   0  0  0  0  0  0  0  0  0  0  0  0
   36.0680   26.7780   40.3910 H   0  0  0  0  0  0  0  0  0  0  0  0
   37.3120   27.5640   39.4030 H   0  0  0  0  0  0  0  0  0  0  0  0
   36.8190   28.6230   41.1050 N   0  0  0  0  0  0  0  0  0  0  0  0
   36.5290   28.0280   42.3620 C   0  0  0  0  0  0  0  0  0  0  0  0
   37.6060   28.4080   43.3340 C   0  0  0  0  0  0  0  0  0  0  0  0
   38.7550   28.7850   42.4380 C   0  0  0  0  0  0  0  0  0  0  0  0
   38.2070   28.9330   41.0500 C   0  0  2  0  0  0  0  0  0  0  0  0
   35.5580   28.4480   42.7500 H   0  0  0  0  0  0  0  0  0  0  0  0
   36.3490   26.9230   42.2980 H   0  0  0  0  0  0  0  0  0  0  0  0
   37.8530   27.5570   44.0090 H   0  0  0  0  0  0  0  0  0  0  0  0
   37.2820   29.2390   43.9890 H   0  0  0  0  0  0  0  0  0  0  0  0
   39.5870   28.0570   42.5230 H   0  0  0  0  0  0  0  0  0  0  0  0
   39.1500   29.7580   42.7880 H   0  0  0  0  0  0  0  0  0  0  0  0
   38.7130   28.1740   40.4160 H   0  0  0  0  0  0  0  0  0  0  0  0
   38.4720   30.2170   40.4600 N   0  0  1  0  0  0  0  0  0  0  0  0
   38.6530   30.1740   39.0360 C   0  0  0  0  0  2  0  0  0  0  0  0
   37.7570   31.1800   38.3940 C   0  0  0  0  0  2  0  0  0  0  0  0
   36.8580   31.6860   39.4900 C   0  0  0  0  0  2  0  0  0  0  0  0
   37.4790   31.1880   40.7710 C   0  0  0  0  0  3  0  0  0  0  0  0
   36.6760   30.8420   41.4550 H   0  0  0  0  0  0  0  0  0  0  0  0
  1  2  2  0  0  0  0
  2 22  1  0  0  0  0
  3  9  1  0  0  0  0
  4  3  1  0  0  0  0
  4  1  1  0  0  0  0
  5  4  2  0  0  0  0
  6  7  2  0  0  0  0
  6  5  1  0  0  0  0
  7  8  1  0  0  0  0
  8  3  2  0  0  0  0
 10  5  1  0  0  0  0
 12 11  1  0  0  0  0
 12 13  1  0  0  0  0
 13 14  2  0  0  0  0
 13  7  1  0  0  0  0
 14 18  1  0  0  0  0
 15 19  1  0  0  0  0
 15 14  1  0  0  0  0
 16 15  2  0  0  0  0
 17 16  1  0  0  0  0
 17 12  2  0  0  0  0
 20 16  1  0  0  0  0
 21 17  1  0  0  0  0
 22 23  1  0  0  0  0
 22 25  1  0  0  0  0
 24 22  1  0  0  0  0
 25 26  1  0  0  0  0
 26 30  1  0  0  0  0
 26 27  1  0  0  0  0
 27 33  1  0  0  0  0
 27 32  1  0  0  0  0
 28 34  1  0  0  0  0
 28 35  1  0  0  0  0
 28 27  1  0  0  0  0
 29 36  1  6  0  0  0
 29 25  1  0  0  0  0
 29 28  1  0  0  0  0
 31 26  1  0  0  0  0
 37 38  1  6  0  0  0
 37 41  1  0  0  0  0
 37 29  1  0  0  0  0
 39 38  1  0  0  0  0
 39 40  1  0  0  0  0
 40 41  1  0  0  0  0
 41 42  1  0  0  0  0
M  END
>  <minimizedAffinity>
-5.50838566

$$$$
