
 OpenBabel03252504233D

 18 19  0  0  0  0  0  0  0  0999 V2000
   44.3190   35.8790   43.7290 C   0  0  0  0  0  0  0  0  0  0  0  0
   44.2040   35.0410   42.6150 C   0  0  0  0  0  0  0  0  0  0  0  0
   44.6580   33.7360   42.7520 C   0  0  0  0  0  0  0  0  0  0  0  0
   45.1770   33.3550   43.9340 N   0  0  0  0  0  0  0  0  0  0  0  0
   45.2750   34.1790   44.9890 C   0  0  0  0  0  0  0  0  0  0  0  0
   44.8430   35.4690   44.9040 N   0  0  0  0  0  0  0  0  0  0  0  0
   43.9920   36.8940   43.6990 H   0  0  0  0  0  0  0  0  0  0  0  0
   44.5530   33.1200   41.8700 H   0  0  0  0  0  0  0  0  0  0  0  0
   45.6990   33.8290   45.9230 H   0  0  0  0  0  0  0  0  0  0  0  0
   43.6060   35.6590   41.4130 C   0  0  0  0  0  0  0  0  0  0  0  0
   44.3850   35.5800   40.6130 H   0  0  0  0  0  0  0  0  0  0  0  0
   43.3860   36.7110   41.6040 H   0  0  0  0  0  0  0  0  0  0  0  0
   42.4300   35.0010   40.9410 N   0  0  0  0  0  0  0  0  0  0  0  0
   42.2430   35.0450   39.5210 C   0  0  0  0  0  0  0  0  0  0  0  0
   40.7540   34.9720   39.2690 C   0  0  0  0  0  0  0  0  0  0  0  0
   40.1420   35.4850   40.5560 C   0  0  0  0  0  0  0  0  0  0  0  0
   41.2850   35.6920   41.5220 C   0  0  0  0  0  0  0  0  0  0  0  0
   41.0750   35.2100   42.5080 H   0  0  0  0  0  0  0  0  0  0  0  0
  1  6  1  0  0  0  0
  2  3  1  0  0  0  0
  2  1  2  0  0  0  0
  3  4  2  0  0  0  0
  4  5  1  0  0  0  0
  5  9  1  0  0  0  0
  6  5  2  0  0  0  0
  7  1  1  0  0  0  0
  8  3  1  0  0  0  0
 10 12  1  0  0  0  0
 10  2  1  0  0  0  0
 11 10  1  0  0  0  0
 13 10  1  0  0  0  0
 13 17  1  0  0  0  0
 14 13  1  0  0  0  0
 15 14  1  0  0  0  0
 15 16  1  0  0  0  0
 16 17  1  0  0  0  0
 17 18  1  0  0  0  0
M  END
>  <minimizedAffinity>
-3.9265213

>  <minimizedRMSD>
0.937151611

$$$$
