
 OpenBabel03252508533D

 40 43  0  0  1  0  0  0  0  0999 V2000
   43.3460   34.4870   40.7830 C   0  0  0  0  0  0  0  0  0  0  0  0
   43.2790   35.7360   40.5450 O   0  0  0  0  0  0  0  0  0  0  0  0
   42.0000   34.0860   40.4140 N   0  0  0  0  0  0  0  0  0  0  0  0
   41.6430   34.3480   39.0420 C   0  0  0  0  0  0  0  0  0  0  0  0
   40.8140   35.6490   39.0860 C   0  0  0  0  0  0  0  0  0  0  0  0
   40.0070   35.5970   40.3820 C   0  0  0  0  0  0  0  0  0  0  0  0
   39.6780   34.1680   40.7580 C   0  0  0  0  0  0  0  0  0  0  0  0
   40.9640   33.4620   41.2140 C   0  0  1  0  0  0  0  0  0  0  0  0
   42.4870   34.5630   38.3800 H   0  0  0  0  0  0  0  0  0  0  0  0
   41.0310   33.5450   38.5930 H   0  0  0  0  0  0  0  0  0  0  0  0
   40.1550   35.7020   38.1940 H   0  0  0  0  0  0  0  0  0  0  0  0
   41.4720   36.5280   39.1110 H   0  0  0  0  0  0  0  0  0  0  0  0
   40.5910   36.1060   41.1960 H   0  0  0  0  0  0  0  0  0  0  0  0
   39.0740   36.1880   40.2910 H   0  0  0  0  0  0  0  0  0  0  0  0
   39.3560   33.6670   39.8220 H   0  0  0  0  0  0  0  0  0  0  0  0
   38.9160   34.1890   41.5540 H   0  0  0  0  0  0  0  0  0  0  0  0
   41.1320   33.7590   42.2680 H   0  0  0  0  0  0  0  0  0  0  0  0
   40.8960   32.0440   41.0050 N   0  0  1  0  0  0  0  0  0  0  0  0
   40.8980   31.4000   42.3020 C   0  0  0  0  0  2  0  0  0  0  0  0
   40.3380   30.0120   42.0090 C   0  0  0  0  0  2  0  0  0  0  0  0
   39.3650   30.2130   40.8850 C   0  0  0  0  0  2  0  0  0  0  0  0
   39.7020   31.5820   40.3980 C   0  0  0  0  0  3  0  0  0  0  0  0
   38.8530   32.2920   40.4210 H   0  0  0  0  0  0  0  0  0  0  0  0
   44.4220   33.8040   41.2520 O   0  0  0  0  0  0  0  0  0  0  0  0
   45.7480   34.1140   41.0980 C   0  0  0  0  0  0  0  0  0  0  0  0
   46.3910   34.7270   42.1830 C   0  0  0  0  0  0  0  0  0  0  0  0
   47.7480   35.0410   42.0160 C   0  0  0  0  0  0  0  0  0  0  0  0
   48.3470   34.7340   40.8260 N   0  0  0  0  0  0  0  0  0  0  0  0
   47.6860   34.1530   39.8330 C   0  0  0  0  0  0  0  0  0  0  0  0
   46.3840   33.8390   39.9630 N   0  0  0  0  0  0  0  0  0  0  0  0
   48.2520   35.5150   42.8540 H   0  0  0  0  0  0  0  0  0  0  0  0
   48.2400   33.9440   38.9210 H   0  0  0  0  0  0  0  0  0  0  0  0
   45.6590   35.0090   43.4050 C   0  0  0  0  0  0  0  0  0  0  0  0
   45.0160   36.2300   43.6370 C   0  0  0  0  0  0  0  0  0  0  0  0
   44.4640   36.0670   44.8800 C   0  0  0  0  0  0  0  0  0  0  0  0
   44.7420   34.8520   45.3710 N   0  0  0  0  0  0  0  0  0  0  0  0
   45.4690   34.2240   44.4610 N   0  0  0  0  0  0  0  0  0  0  0  0
   44.9310   37.1220   43.0410 H   0  0  0  0  0  0  0  0  0  0  0  0
   43.8720   36.8380   45.4000 H   0  0  0  0  0  0  0  0  0  0  0  0
   44.4180   34.5200   46.3050 H   0  0  0  0  0  0  0  0  0  0  0  0
  1 24  1  0  0  0  0
  2  1  2  0  0  0  0
  3  1  1  0  0  0  0
  3  8  1  0  0  0  0
  4  5  1  0  0  0  0
  4  3  1  0  0  0  0
  5 12  1  0  0  0  0
  5  6  1  0  0  0  0
  6  7  1  0  0  0  0
  6 13  1  0  0  0  0
  7  8  1  0  0  0  0
  7 16  1  0  0  0  0
  8 17  1  1  0  0  0
  9  4  1  0  0  0  0
 10  4  1  0  0  0  0
 11  5  1  0  0  0  0
 14  6  1  0  0  0  0
 15  7  1  0  0  0  0
 18  8  1  0  0  0  0
 18 19  1  1  0  0  0
 20 19  1  0  0  0  0
 21 20  1  0  0  0  0
 22 23  1  0  0  0  0
 22 21  1  0  0  0  0
 22 18  1  0  0  0  0
 25 24  1  0  0  0  0
 25 26  1  0  0  0  0
 26 33  1  0  0  0  0
 27 26  2  0  0  0  0
 27 31  1  0  0  0  0
 28 27  1  0  0  0  0
 29 30  1  0  0  0  0
 29 28  2  0  0  0  0
 30 25  2  0  0  0  0
 32 29  1  0  0  0  0
 33 34  1  0  0  0  0
 33 37  2  0  0  0  0
 34 35  2  0  0  0  0
 35 36  1  0  0  0  0
 35 39  1  0  0  0  0
 36 40  1  0  0  0  0
 37 36  1  0  0  0  0
 38 34  1  0  0  0  0
M  END
>  <minimizedAffinity>
-6.63975048

>  <minimizedRMSD>
0.513275981

$$$$
