
 OpenBabel03252508313D

 29 31  0  0  1  0  0  0  0  0999 V2000
   44.6320   34.5710   42.0930 N   0  0  0  0  0  0  0  0  0  0  0  0
   45.2210   33.6460   41.1860 C   0  0  1  0  0  0  0  0  0  0  0  0
   44.8410   33.8140   39.7650 C   0  0  0  0  0  0  0  0  0  0  0  0
   43.5320   34.2440   39.5020 N   0  0  0  0  0  0  0  0  0  0  0  0
   42.9200   35.1010   40.4180 C   0  0  0  0  0  0  0  0  0  0  0  0
   43.8900   35.6220   41.4670 C   0  0  0  0  0  0  0  0  0  0  0  0
   44.8650   32.6300   41.5040 H   0  0  0  0  0  0  0  0  0  0  0  0
   45.5440   34.5670   39.3020 H   0  0  0  0  0  0  0  0  0  0  0  0
   44.9740   32.8410   39.2120 H   0  0  0  0  0  0  0  0  0  0  0  0
   43.3660   34.3960   38.5070 H   0  0  0  0  0  0  0  0  0  0  0  0
   42.0270   34.6760   40.9370 H   0  0  0  0  0  0  0  0  0  0  0  0
   42.5480   36.0200   39.8850 H   0  0  0  0  0  0  0  0  0  0  0  0
   43.3320   36.2890   42.1200 H   0  0  0  0  0  0  0  0  0  0  0  0
   44.5670   36.3150   40.8760 H   0  0  0  0  0  0  0  0  0  0  0  0
   44.4480   35.4470   44.3040 C   0  0  0  0  0  0  0  0  0  0  0  0
   44.8270   34.3970   43.4740 C   0  0  0  0  0  0  0  0  0  0  0  0
   45.3770   33.2770   44.0790 C   0  0  0  0  0  0  0  0  0  0  0  0
   45.5320   33.2270   45.4290 N   0  0  0  0  0  0  0  0  0  0  0  0
   45.1490   34.2780   46.1990 C   0  0  0  0  0  0  0  0  0  0  0  0
   44.6160   35.3690   45.6550 N   0  0  0  0  0  0  0  0  0  0  0  0
   44.0070   36.3950   44.0430 H   0  0  0  0  0  0  0  0  0  0  0  0
   45.6730   32.4530   43.4770 H   0  0  0  0  0  0  0  0  0  0  0  0
   45.3370   34.0870   47.2490 H   0  0  0  0  0  0  0  0  0  0  0  0
   46.6560   33.6090   41.3510 N   0  0  2  0  0  0  0  0  0  0  0  0
   47.3450   34.8280   41.1660 C   0  0  0  0  0  0  0  0  0  0  0  0
   48.3580   34.5850   40.0400 C   0  0  0  0  0  0  0  0  0  0  0  0
   48.6570   33.1030   40.1790 C   0  0  0  0  0  0  0  0  0  0  0  0
   47.2950   32.5770   40.5860 C   0  0  0  0  0  0  0  0  0  0  0  0
   47.4490   31.6250   41.1200 H   0  0  0  0  0  0  0  0  0  0  0  0
  1 16  1  0  0  0  0
  2 24  1  0  0  0  0
  2  7  1  1  0  0  0
  2  1  1  0  0  0  0
  3  2  1  0  0  0  0
  4  3  1  0  0  0  0
  4  5  1  0  0  0  0
  5 11  1  0  0  0  0
  5  6  1  0  0  0  0
  6  1  1  0  0  0  0
  6 13  1  0  0  0  0
  8  3  1  0  0  0  0
  9  3  1  0  0  0  0
 10  4  1  0  0  0  0
 12  5  1  0  0  0  0
 14  6  1  0  0  0  0
 15 20  1  0  0  0  0
 16 17  1  0  0  0  0
 16 15  2  0  0  0  0
 17 18  2  0  0  0  0
 18 19  1  0  0  0  0
 19 23  1  0  0  0  0
 20 19  2  0  0  0  0
 21 15  1  0  0  0  0
 22 17  1  0  0  0  0
 24 25  1  6  0  0  0
 26 27  1  0  0  0  0
 26 25  1  0  0  0  0
 27 28  1  0  0  0  0
 28 29  1  0  0  0  0
 28 24  1  0  0  0  0
M  END
>  <minimizedAffinity>
-4.27282286

>  <minimizedRMSD>
1.05632436

$$$$
