
 OpenBabel03252505223D

 25 27  0  0  0  0  0  0  0  0999 V2000
   39.1090   29.9170   41.7430 F   0  0  0  0  0  0  0  0  0  0  0  0
   37.9040   29.8790   41.1190 C   0  0  0  0  0  0  0  0  0  0  0  0
   37.5790   30.8950   40.2550 C   0  0  0  0  0  0  0  0  0  0  0  0
   36.3600   30.8460   39.6320 C   0  0  0  0  0  0  0  0  0  0  0  0
   35.5030   29.7890   39.8870 C   0  0  0  0  0  0  0  0  0  0  0  0
   35.8200   28.7680   40.7490 C   0  0  0  0  0  0  0  0  0  0  0  0
   37.0620   28.8320   41.3740 C   0  0  0  0  0  0  0  0  0  0  0  0
   36.1200   31.6530   38.9560 H   0  0  0  0  0  0  0  0  0  0  0  0
   34.5570   29.8310   39.3490 H   0  0  0  0  0  0  0  0  0  0  0  0
   35.0800   27.9980   40.8720 H   0  0  0  0  0  0  0  0  0  0  0  0
   39.2400   34.1580   40.4850 C   0  0  0  0  0  0  0  0  0  0  0  0
   40.3160   34.0220   39.5670 C   0  0  0  0  0  0  0  0  0  0  0  0
   40.4320   32.7910   38.8910 C   0  0  0  0  0  0  0  0  0  0  0  0
   39.5180   31.8180   39.1550 N   0  0  0  0  0  0  0  0  0  0  0  0
   38.5200   31.9830   40.0250 C   0  0  0  0  0  0  0  0  0  0  0  0
   38.3800   33.1480   40.6870 N   0  0  0  0  0  0  0  0  0  0  0  0
   39.1590   35.1110   41.0020 H   0  0  0  0  0  0  0  0  0  0  0  0
   41.0290   34.8200   39.3810 H   0  0  0  0  0  0  0  0  0  0  0  0
   41.2330   32.6350   38.1820 H   0  0  0  0  0  0  0  0  0  0  0  0
   37.3570   27.7600   42.2600 N   0  0  0  0  0  0  0  0  0  0  0  0
   37.4220   26.3360   42.0230 C   0  0  0  0  0  2  0  0  0  0  0  0
   38.7720   25.9530   42.6440 C   0  0  0  0  0  2  0  0  0  0  0  0
   39.0260   27.0480   43.6470 C   0  0  0  0  0  2  0  0  0  0  0  0
   37.6860   27.7570   43.6790 C   0  0  0  0  0  3  0  0  0  0  0  0
   37.7730   28.7760   44.0980 H   0  0  0  0  0  0  0  0  0  0  0  0
  2  7  1  0  0  0  0
  2  1  1  0  0  0  0
  3  2  2  0  0  0  0
  4  5  2  0  0  0  0
  4  3  1  0  0  0  0
  5  6  1  0  0  0  0
  6 10  1  0  0  0  0
  6  7  2  0  0  0  0
  7 20  1  0  0  0  0
  8  4  1  0  0  0  0
  9  5  1  0  0  0  0
 11 16  1  0  0  0  0
 11 17  1  0  0  0  0
 12 11  2  0  0  0  0
 13 14  2  0  0  0  0
 13 12  1  0  0  0  0
 14 15  1  0  0  0  0
 15  3  1  0  0  0  0
 15 16  2  0  0  0  0
 18 12  1  0  0  0  0
 19 13  1  0  0  0  0
 20 24  1  0  0  0  0
 21 20  1  0  0  0  0
 21 22  1  0  0  0  0
 22 23  1  0  0  0  0
 23 24  1  0  0  0  0
 24 25  1  0  0  0  0
M  END
>  <minimizedAffinity>
-5.00642776

$$$$

 OpenBabel03252505223D

 25 27  0  0  0  0  0  0  0  0999 V2000
   38.1000   28.2040   39.8050 F   0  0  0  0  0  0  0  0  0  0  0  0
   37.7450   28.0190   41.1020 C   0  0  0  0  0  0  0  0  0  0  0  0
   37.6830   29.1120   41.9300 C   0  0  0  0  0  0  0  0  0  0  0  0
   37.3250   28.9130   43.2360 C   0  0  0  0  0  0  0  0  0  0  0  0
   37.0400   27.6320   43.6800 C   0  0  0  0  0  0  0  0  0  0  0  0
   37.0980   26.5330   42.8590 C   0  0  0  0  0  0  0  0  0  0  0  0
   37.4640   26.7520   41.5350 C   0  0  0  0  0  0  0  0  0  0  0  0
   37.2810   29.7830   43.8730 H   0  0  0  0  0  0  0  0  0  0  0  0
   36.7640   27.5670   44.7310 H   0  0  0  0  0  0  0  0  0  0  0  0
   36.8570   25.5860   43.3090 H   0  0  0  0  0  0  0  0  0  0  0  0
   37.3240   32.3640   40.2700 C   0  0  0  0  0  0  0  0  0  0  0  0
   38.6130   32.9380   40.4340 C   0  0  0  0  0  0  0  0  0  0  0  0
   39.5750   32.1720   41.1220 C   0  0  0  0  0  0  0  0  0  0  0  0
   39.2160   30.9430   41.5820 N   0  0  0  0  0  0  0  0  0  0  0  0
   37.9940   30.4370   41.4080 C   0  0  0  0  0  0  0  0  0  0  0  0
   37.0510   31.1430   40.7550 N   0  0  0  0  0  0  0  0  0  0  0  0
   36.5890   32.9630   39.7390 H   0  0  0  0  0  0  0  0  0  0  0  0
   38.8650   33.9240   40.0540 H   0  0  0  0  0  0  0  0  0  0  0  0
   40.5720   32.5630   41.2740 H   0  0  0  0  0  0  0  0  0  0  0  0
   37.5160   25.5920   40.7140 N   0  0  0  0  0  0  0  0  0  0  0  0
   38.5240   24.5630   40.6060 C   0  0  0  0  0  2  0  0  0  0  0  0
   37.7020   23.2720   40.7200 C   0  0  0  0  0  2  0  0  0  0  0  0
   36.3180   23.6920   40.2950 C   0  0  0  0  0  2  0  0  0  0  0  0
   36.5740   25.0760   39.7290 C   0  0  0  0  0  3  0  0  0  0  0  0
   35.6460   25.6730   39.6730 H   0  0  0  0  0  0  0  0  0  0  0  0
  1  2  1  0  0  0  0
  2  7  2  0  0  0  0
  2  3  1  0  0  0  0
  3  4  2  0  0  0  0
  4  5  1  0  0  0  0
  4  8  1  0  0  0  0
  5  9  1  0  0  0  0
  6 10  1  0  0  0  0
  6  5  2  0  0  0  0
  7  6  1  0  0  0  0
 11 12  2  0  0  0  0
 11 16  1  0  0  0  0
 12 13  1  0  0  0  0
 13 19  1  0  0  0  0
 13 14  2  0  0  0  0
 15 14  1  0  0  0  0
 15  3  1  0  0  0  0
 16 15  2  0  0  0  0
 17 11  1  0  0  0  0
 18 12  1  0  0  0  0
 20  7  1  0  0  0  0
 21 20  1  0  0  0  0
 21 22  1  0  0  0  0
 23 22  1  0  0  0  0
 24 23  1  0  0  0  0
 24 20  1  0  0  0  0
 25 24  1  0  0  0  0
M  END
>  <minimizedAffinity>
-4.97772694

$$$$

 OpenBabel03252505223D

 25 27  0  0  0  0  0  0  0  0999 V2000
   40.2760   30.1090   40.3950 F   0  0  0  0  0  0  0  0  0  0  0  0
   39.0420   30.6680   40.3140 C   0  0  0  0  0  0  0  0  0  0  0  0
   38.8790   31.7950   39.5480 C   0  0  0  0  0  0  0  0  0  0  0  0
   37.6290   32.3510   39.4750 C   0  0  0  0  0  0  0  0  0  0  0  0
   36.5800   31.7680   40.1670 C   0  0  0  0  0  0  0  0  0  0  0  0
   36.7340   30.6410   40.9340 C   0  0  0  0  0  0  0  0  0  0  0  0
   38.0090   30.0880   40.9980 C   0  0  0  0  0  0  0  0  0  0  0  0
   37.5180   33.2370   38.8680 H   0  0  0  0  0  0  0  0  0  0  0  0
   35.6230   32.2750   40.0520 H   0  0  0  0  0  0  0  0  0  0  0  0
   35.8510   30.2740   41.4280 H   0  0  0  0  0  0  0  0  0  0  0  0
   41.7170   33.9660   38.7140 C   0  0  0  0  0  0  0  0  0  0  0  0
   42.1700   33.4220   37.4830 C   0  0  0  0  0  0  0  0  0  0  0  0
   41.4700   32.3080   36.9760 C   0  0  0  0  0  0  0  0  0  0  0  0
   40.4150   31.8270   37.6870 N   0  0  0  0  0  0  0  0  0  0  0  0
   40.0190   32.3660   38.8420 C   0  0  0  0  0  0  0  0  0  0  0  0
   40.6650   33.4310   39.3540 N   0  0  0  0  0  0  0  0  0  0  0  0
   42.2630   34.8240   39.0970 H   0  0  0  0  0  0  0  0  0  0  0  0
   43.0180   33.8310   36.9400 H   0  0  0  0  0  0  0  0  0  0  0  0
   41.7740   31.8560   36.0420 H   0  0  0  0  0  0  0  0  0  0  0  0
   38.1320   28.9220   41.8030 N   0  0  0  0  0  0  0  0  0  0  0  0
   38.4060   28.7800   43.2150 C   0  0  0  0  0  2  0  0  0  0  0  0
   37.3050   27.8160   43.6770 C   0  0  0  0  0  2  0  0  0  0  0  0
   36.9210   27.0860   42.4160 C   0  0  0  0  0  2  0  0  0  0  0  0
   38.0200   27.5100   41.4630 C   0  0  0  0  0  3  0  0  0  0  0  0
   37.7330   27.3480   40.4070 H   0  0  0  0  0  0  0  0  0  0  0  0
  2  1  1  0  0  0  0
  2  7  1  0  0  0  0
  3  2  2  0  0  0  0
  4  3  1  0  0  0  0
  4  5  2  0  0  0  0
  5  6  1  0  0  0  0
  6  7  2  0  0  0  0
  6 10  1  0  0  0  0
  7 20  1  0  0  0  0
  8  4  1  0  0  0  0
  9  5  1  0  0  0  0
 11 17  1  0  0  0  0
 11 16  1  0  0  0  0
 12 11  2  0  0  0  0
 13 12  1  0  0  0  0
 13 14  2  0  0  0  0
 14 15  1  0  0  0  0
 15 16  2  0  0  0  0
 15  3  1  0  0  0  0
 18 12  1  0  0  0  0
 19 13  1  0  0  0  0
 20 21  1  0  0  0  0
 21 22  1  0  0  0  0
 23 22  1  0  0  0  0
 24 20  1  0  0  0  0
 24 23  1  0  0  0  0
 25 24  1  0  0  0  0
M  END
>  <minimizedAffinity>
-4.81404448

$$$$

 OpenBabel03252505223D

 25 27  0  0  0  0  0  0  0  0999 V2000
   37.3800   30.9120   37.4340 F   0  0  0  0  0  0  0  0  0  0  0  0
   36.5650   30.3570   38.3670 C   0  0  0  0  0  0  0  0  0  0  0  0
   36.6460   30.8060   39.6620 C   0  0  0  0  0  0  0  0  0  0  0  0
   35.8200   30.2390   40.5950 C   0  0  0  0  0  0  0  0  0  0  0  0
   34.9390   29.2410   40.2120 C   0  0  0  0  0  0  0  0  0  0  0  0
   34.8500   28.7870   38.9190 C   0  0  0  0  0  0  0  0  0  0  0  0
   35.6960   29.3730   37.9830 C   0  0  0  0  0  0  0  0  0  0  0  0
   35.8970   30.6030   41.6080 H   0  0  0  0  0  0  0  0  0  0  0  0
   34.3200   28.8480   41.0170 H   0  0  0  0  0  0  0  0  0  0  0  0
   34.1310   28.0090   38.7340 H   0  0  0  0  0  0  0  0  0  0  0  0
   39.6400   32.5060   40.9300 C   0  0  0  0  0  0  0  0  0  0  0  0
   39.3620   33.8700   40.6520 C   0  0  0  0  0  0  0  0  0  0  0  0
   38.1320   34.1610   40.0280 C   0  0  0  0  0  0  0  0  0  0  0  0
   37.2960   33.1290   39.7320 N   0  0  0  0  0  0  0  0  0  0  0  0
   37.5930   31.8590   40.0090 C   0  0  0  0  0  0  0  0  0  0  0  0
   38.7600   31.5460   40.6060 N   0  0  0  0  0  0  0  0  0  0  0  0
   40.5920   32.2910   41.4120 H   0  0  0  0  0  0  0  0  0  0  0  0
   40.0540   34.6700   40.9020 H   0  0  0  0  0  0  0  0  0  0  0  0
   37.8710   35.1840   39.7940 H   0  0  0  0  0  0  0  0  0  0  0  0
   35.5780   28.8780   36.6560 N   0  0  0  0  0  0  0  0  0  0  0  0
   34.5170   29.0290   35.6870 C   0  0  0  0  0  2  0  0  0  0  0  0
   35.2700   29.4790   34.4290 C   0  0  0  0  0  2  0  0  0  0  0  0
   36.6710   28.9710   34.6530 C   0  0  0  0  0  2  0  0  0  0  0  0
   36.4860   28.0670   35.8550 C   0  0  0  0  0  3  0  0  0  0  0  0
   37.4440   27.8680   36.3690 H   0  0  0  0  0  0  0  0  0  0  0  0
  1  2  1  0  0  0  0
  2  3  1  0  0  0  0
  3 15  1  0  0  0  0
  3  4  2  0  0  0  0
  4  8  1  0  0  0  0
  5  4  1  0  0  0  0
  5  9  1  0  0  0  0
  6  5  2  0  0  0  0
  7  2  2  0  0  0  0
  7  6  1  0  0  0  0
 10  6  1  0  0  0  0
 11 17  1  0  0  0  0
 12 18  1  0  0  0  0
 12 11  1  0  0  0  0
 13 12  2  0  0  0  0
 14 15  2  0  0  0  0
 14 13  1  0  0  0  0
 15 16  1  0  0  0  0
 16 11  2  0  0  0  0
 19 13  1  0  0  0  0
 20  7  1  0  0  0  0
 21 20  1  0  0  0  0
 22 23  1  0  0  0  0
 22 21  1  0  0  0  0
 23 24  1  0  0  0  0
 24 25  1  0  0  0  0
 24 20  1  0  0  0  0
M  END
>  <minimizedAffinity>
-4.80052328

$$$$

 OpenBabel03252505223D

 25 27  0  0  0  0  0  0  0  0999 V2000
   39.5920   29.8820   40.9950 F   0  0  0  0  0  0  0  0  0  0  0  0
   38.2470   29.7510   40.8670 C   0  0  0  0  0  0  0  0  0  0  0  0
   37.6560   28.5870   41.2890 C   0  0  0  0  0  0  0  0  0  0  0  0
   36.2980   28.4660   41.1540 C   0  0  0  0  0  0  0  0  0  0  0  0
   35.5710   29.5070   40.6020 C   0  0  0  0  0  0  0  0  0  0  0  0
   36.1530   30.6760   40.1780 C   0  0  0  0  0  0  0  0  0  0  0  0
   37.5330   30.7830   40.3220 C   0  0  0  0  0  0  0  0  0  0  0  0
   35.8500   27.5440   41.4910 H   0  0  0  0  0  0  0  0  0  0  0  0
   34.4990   29.3260   40.5330 H   0  0  0  0  0  0  0  0  0  0  0  0
   35.4930   31.4180   39.7660 H   0  0  0  0  0  0  0  0  0  0  0  0
   39.6620   26.6480   43.6720 C   0  0  0  0  0  0  0  0  0  0  0  0
   40.0120   25.4980   42.9160 C   0  0  0  0  0  0  0  0  0  0  0  0
   39.5370   25.4300   41.5910 C   0  0  0  0  0  0  0  0  0  0  0  0
   38.7800   26.4580   41.1210 N   0  0  0  0  0  0  0  0  0  0  0  0
   38.4720   27.5230   41.8620 C   0  0  0  0  0  0  0  0  0  0  0  0
   38.9100   27.6200   43.1320 N   0  0  0  0  0  0  0  0  0  0  0  0
   40.0330   26.6910   44.6930 H   0  0  0  0  0  0  0  0  0  0  0  0
   40.6190   24.6940   43.3240 H   0  0  0  0  0  0  0  0  0  0  0  0
   39.7760   24.5760   40.9720 H   0  0  0  0  0  0  0  0  0  0  0  0
   38.1030   32.0060   39.8720 N   0  0  0  0  0  0  0  0  0  0  0  0
   37.6060   33.3600   39.9550 C   0  0  0  0  0  2  0  0  0  0  0  0
   38.8070   34.1250   40.5290 C   0  0  0  0  0  2  0  0  0  0  0  0
   39.9870   33.2640   40.1550 C   0  0  0  0  0  2  0  0  0  0  0  0
   39.3600   32.2790   39.1890 C   0  0  0  0  0  3  0  0  0  0  0  0
   39.9830   31.3740   39.0660 H   0  0  0  0  0  0  0  0  0  0  0  0
  2  1  1  0  0  0  0
  2  3  1  0  0  0  0
  3 15  1  0  0  0  0
  4  3  2  0  0  0  0
  4  8  1  0  0  0  0
  5  4  1  0  0  0  0
  6  7  1  0  0  0  0
  6  5  2  0  0  0  0
  7  2  2  0  0  0  0
  9  5  1  0  0  0  0
 10  6  1  0  0  0  0
 11 17  1  0  0  0  0
 12 18  1  0  0  0  0
 12 11  2  0  0  0  0
 13 12  1  0  0  0  0
 14 13  2  0  0  0  0
 14 15  1  0  0  0  0
 15 16  2  0  0  0  0
 16 11  1  0  0  0  0
 19 13  1  0  0  0  0
 20 21  1  0  0  0  0
 20  7  1  0  0  0  0
 21 22  1  0  0  0  0
 23 22  1  0  0  0  0
 24 20  1  0  0  0  0
 24 23  1  0  0  0  0
 25 24  1  0  0  0  0
M  END
>  <minimizedAffinity>
-4.72795916

$$$$

 OpenBabel03252505223D

 25 27  0  0  0  0  0  0  0  0999 V2000
   38.1470   27.1450   39.8470 F   0  0  0  0  0  0  0  0  0  0  0  0
   38.0410   27.7070   41.0770 C   0  0  0  0  0  0  0  0  0  0  0  0
   38.0120   29.0760   41.1750 C   0  0  0  0  0  0  0  0  0  0  0  0
   37.9060   29.6320   42.4230 C   0  0  0  0  0  0  0  0  0  0  0  0
   37.8320   28.8090   43.5340 C   0  0  0  0  0  0  0  0  0  0  0  0
   37.8590   27.4390   43.4460 C   0  0  0  0  0  0  0  0  0  0  0  0
   37.9680   26.8900   42.1720 C   0  0  0  0  0  0  0  0  0  0  0  0
   37.8840   30.7090   42.4820 H   0  0  0  0  0  0  0  0  0  0  0  0
   37.7490   29.3350   44.4840 H   0  0  0  0  0  0  0  0  0  0  0  0
   37.7960   26.8980   44.3730 H   0  0  0  0  0  0  0  0  0  0  0  0
   37.0300   30.9990   38.2090 C   0  0  0  0  0  0  0  0  0  0  0  0
   38.2800   31.4370   37.6970 C   0  0  0  0  0  0  0  0  0  0  0  0
   39.4360   31.0480   38.4040 C   0  0  0  0  0  0  0  0  0  0  0  0
   39.2860   30.2850   39.5210 N   0  0  0  0  0  0  0  0  0  0  0  0
   38.0940   29.8930   39.9710 C   0  0  0  0  0  0  0  0  0  0  0  0
   36.9690   30.2460   39.3190 N   0  0  0  0  0  0  0  0  0  0  0  0
   36.1440   31.3040   37.6570 H   0  0  0  0  0  0  0  0  0  0  0  0
   38.3630   32.0470   36.8020 H   0  0  0  0  0  0  0  0  0  0  0  0
   40.4130   31.3550   38.0570 H   0  0  0  0  0  0  0  0  0  0  0  0
   37.9940   25.4690   42.1180 N   0  0  0  0  0  0  0  0  0  0  0  0
   36.9140   24.5110   42.0660 C   0  0  0  0  0  2  0  0  0  0  0  0
   37.3220   23.6060   40.8950 C   0  0  0  0  0  2  0  0  0  0  0  0
   38.8160   23.7860   40.8110 C   0  0  0  0  0  2  0  0  0  0  0  0
   39.1120   24.5350   42.0950 C   0  0  0  0  0  3  0  0  0  0  0  0
   40.0920   25.0450   42.0550 H   0  0  0  0  0  0  0  0  0  0  0  0
  1  2  1  0  0  0  0
  2  3  2  0  0  0  0
  2  7  1  0  0  0  0
  3  4  1  0  0  0  0
  4  8  1  0  0  0  0
  4  5  2  0  0  0  0
  5  9  1  0  0  0  0
  6  5  1  0  0  0  0
  6 10  1  0  0  0  0
  7  6  2  0  0  0  0
 11 16  1  0  0  0  0
 12 11  2  0  0  0  0
 12 13  1  0  0  0  0
 13 14  2  0  0  0  0
 14 15  1  0  0  0  0
 15  3  1  0  0  0  0
 16 15  2  0  0  0  0
 17 11  1  0  0  0  0
 18 12  1  0  0  0  0
 19 13  1  0  0  0  0
 20  7  1  0  0  0  0
 21 20  1  0  0  0  0
 22 21  1  0  0  0  0
 23 22  1  0  0  0  0
 23 24  1  0  0  0  0
 24 20  1  0  0  0  0
 25 24  1  0  0  0  0
M  END
>  <minimizedAffinity>
-4.70106506

$$$$

 OpenBabel03252505223D

 25 27  0  0  0  0  0  0  0  0999 V2000
   36.5580   27.8950   39.4530 F   0  0  0  0  0  0  0  0  0  0  0  0
   36.8760   29.1990   39.6570 C   0  0  0  0  0  0  0  0  0  0  0  0
   36.6510   30.0980   38.6450 C   0  0  0  0  0  0  0  0  0  0  0  0
   36.9760   31.4100   38.8630 C   0  0  0  0  0  0  0  0  0  0  0  0
   37.5150   31.7880   40.0810 C   0  0  0  0  0  0  0  0  0  0  0  0
   37.7430   30.8960   41.1000 C   0  0  0  0  0  0  0  0  0  0  0  0
   37.4070   29.5670   40.8630 C   0  0  0  0  0  0  0  0  0  0  0  0
   36.7920   32.1040   38.0560 H   0  0  0  0  0  0  0  0  0  0  0  0
   37.7430   32.8490   40.1670 H   0  0  0  0  0  0  0  0  0  0  0  0
   38.1660   31.2990   42.0030 H   0  0  0  0  0  0  0  0  0  0  0  0
   36.3360   29.1710   35.1090 C   0  0  0  0  0  0  0  0  0  0  0  0
   34.9740   28.7820   35.0120 C   0  0  0  0  0  0  0  0  0  0  0  0
   34.1990   28.8540   36.1870 C   0  0  0  0  0  0  0  0  0  0  0  0
   34.7960   29.2860   37.3310 N   0  0  0  0  0  0  0  0  0  0  0  0
   36.0800   29.6440   37.3830 C   0  0  0  0  0  0  0  0  0  0  0  0
   36.8480   29.5880   36.2770 N   0  0  0  0  0  0  0  0  0  0  0  0
   36.9250   29.1120   34.1970 H   0  0  0  0  0  0  0  0  0  0  0  0
   34.5290   28.4400   34.0810 H   0  0  0  0  0  0  0  0  0  0  0  0
   33.1560   28.5690   36.1680 H   0  0  0  0  0  0  0  0  0  0  0  0
   37.6580   28.6710   41.9380 N   0  0  0  0  0  0  0  0  0  0  0  0
   37.3200   28.7680   43.3400 C   0  0  0  0  0  2  0  0  0  0  0  0
   36.6660   27.4100   43.6250 C   0  0  0  0  0  2  0  0  0  0  0  0
   37.2280   26.5130   42.5510 C   0  0  0  0  0  2  0  0  0  0  0  0
   38.3280   27.3780   41.9680 C   0  0  0  0  0  3  0  0  0  0  0  0
   38.6300   27.0320   40.9620 H   0  0  0  0  0  0  0  0  0  0  0  0
  1  2  1  0  0  0  0
  2  7  1  0  0  0  0
  3  4  1  0  0  0  0
  3  2  2  0  0  0  0
  4  5  2  0  0  0  0
  5  9  1  0  0  0  0
  5  6  1  0  0  0  0
  6 10  1  0  0  0  0
  7  6  2  0  0  0  0
  7 20  1  0  0  0  0
  8  4  1  0  0  0  0
 11 16  1  0  0  0  0
 12 11  2  0  0  0  0
 12 13  1  0  0  0  0
 13 14  2  0  0  0  0
 14 15  1  0  0  0  0
 15  3  1  0  0  0  0
 16 15  2  0  0  0  0
 17 11  1  0  0  0  0
 18 12  1  0  0  0  0
 19 13  1  0  0  0  0
 20 24  1  0  0  0  0
 20 21  1  0  0  0  0
 21 22  1  0  0  0  0
 23 22  1  0  0  0  0
 24 23  1  0  0  0  0
 25 24  1  0  0  0  0
M  END
>  <minimizedAffinity>
-4.69668531

$$$$

 OpenBabel03252505223D

 25 27  0  0  0  0  0  0  0  0999 V2000
   40.0060   29.7580   40.2610 F   0  0  0  0  0  0  0  0  0  0  0  0
   39.0650   30.7280   40.1350 C   0  0  0  0  0  0  0  0  0  0  0  0
   37.8560   30.5570   40.7630 C   0  0  0  0  0  0  0  0  0  0  0  0
   36.9140   31.5420   40.6290 C   0  0  0  0  0  0  0  0  0  0  0  0
   37.2030   32.6670   39.8740 C   0  0  0  0  0  0  0  0  0  0  0  0
   38.4100   32.8470   39.2440 C   0  0  0  0  0  0  0  0  0  0  0  0
   39.3560   31.8380   39.3900 C   0  0  0  0  0  0  0  0  0  0  0  0
   35.9690   31.3920   41.1280 H   0  0  0  0  0  0  0  0  0  0  0  0
   36.3980   33.3980   39.8220 H   0  0  0  0  0  0  0  0  0  0  0  0
   38.5260   33.7580   38.6840 H   0  0  0  0  0  0  0  0  0  0  0  0
   37.5340   28.2700   43.6140 C   0  0  0  0  0  0  0  0  0  0  0  0
   37.1270   27.0590   42.9940 C   0  0  0  0  0  0  0  0  0  0  0  0
   36.9760   27.0740   41.5920 C   0  0  0  0  0  0  0  0  0  0  0  0
   37.2250   28.2340   40.9260 N   0  0  0  0  0  0  0  0  0  0  0  0
   37.6060   29.3520   41.5440 C   0  0  0  0  0  0  0  0  0  0  0  0
   37.7610   29.3730   42.8820 N   0  0  0  0  0  0  0  0  0  0  0  0
   37.6480   28.2500   44.6950 H   0  0  0  0  0  0  0  0  0  0  0  0
   36.9360   26.1500   43.5570 H   0  0  0  0  0  0  0  0  0  0  0  0
   36.6680   26.1780   41.0710 H   0  0  0  0  0  0  0  0  0  0  0  0
   40.5930   32.0560   38.7230 N   0  0  0  0  0  0  0  0  0  0  0  0
   41.9250   32.2370   39.2510 C   0  0  0  0  0  2  0  0  0  0  0  0
   42.7540   31.2450   38.4240 C   0  0  0  0  0  2  0  0  0  0  0  0
   41.9390   31.0620   37.1690 C   0  0  0  0  0  2  0  0  0  0  0  0
   40.9070   32.1630   37.3040 C   0  0  0  0  0  3  0  0  0  0  0  0
   40.0280   31.9820   36.6580 H   0  0  0  0  0  0  0  0  0  0  0  0
  2  1  1  0  0  0  0
  2  3  1  0  0  0  0
  3 15  1  0  0  0  0
  4  3  2  0  0  0  0
  4  8  1  0  0  0  0
  5  4  1  0  0  0  0
  6  7  1  0  0  0  0
  6  5  2  0  0  0  0
  7  2  2  0  0  0  0
  9  5  1  0  0  0  0
 10  6  1  0  0  0  0
 11 17  1  0  0  0  0
 12 18  1  0  0  0  0
 12 11  1  0  0  0  0
 13 12  2  0  0  0  0
 14 15  2  0  0  0  0
 14 13  1  0  0  0  0
 15 16  1  0  0  0  0
 16 11  2  0  0  0  0
 19 13  1  0  0  0  0
 20 21  1  0  0  0  0
 20  7  1  0  0  0  0
 22 21  1  0  0  0  0
 23 24  1  0  0  0  0
 23 22  1  0  0  0  0
 24 20  1  0  0  0  0
 25 24  1  0  0  0  0
M  END
>  <minimizedAffinity>
-4.60276365

$$$$

 OpenBabel03252505223D

 25 27  0  0  0  0  0  0  0  0999 V2000
   37.7030   27.8390   39.6280 F   0  0  0  0  0  0  0  0  0  0  0  0
   37.7120   27.9070   40.9830 C   0  0  0  0  0  0  0  0  0  0  0  0
   37.7560   26.7380   41.7010 C   0  0  0  0  0  0  0  0  0  0  0  0
   37.7640   26.8190   43.0680 C   0  0  0  0  0  0  0  0  0  0  0  0
   37.7290   28.0610   43.6790 C   0  0  0  0  0  0  0  0  0  0  0  0
   37.6860   29.2360   42.9700 C   0  0  0  0  0  0  0  0  0  0  0  0
   37.6780   29.1370   41.5820 C   0  0  0  0  0  0  0  0  0  0  0  0
   37.7990   25.8900   43.6160 H   0  0  0  0  0  0  0  0  0  0  0  0
   37.7390   28.0320   44.7680 H   0  0  0  0  0  0  0  0  0  0  0  0
   37.6600   30.1430   43.5470 H   0  0  0  0  0  0  0  0  0  0  0  0
   36.6740   23.5850   40.1690 C   0  0  0  0  0  0  0  0  0  0  0  0
   37.8930   23.0430   39.6830 C   0  0  0  0  0  0  0  0  0  0  0  0
   39.0640   23.7950   39.9050 C   0  0  0  0  0  0  0  0  0  0  0  0
   38.9570   24.9810   40.5630 N   0  0  0  0  0  0  0  0  0  0  0  0
   37.7920   25.4580   41.0030 C   0  0  0  0  0  0  0  0  0  0  0  0
   36.6540   24.7640   40.8090 N   0  0  0  0  0  0  0  0  0  0  0  0
   35.7760   22.9970   39.9920 H   0  0  0  0  0  0  0  0  0  0  0  0
   37.9420   22.0910   39.1610 H   0  0  0  0  0  0  0  0  0  0  0  0
   40.0190   23.4270   39.5560 H   0  0  0  0  0  0  0  0  0  0  0  0
   37.6310   30.3720   40.8800 N   0  0  0  0  0  0  0  0  0  0  0  0
   38.6960   31.2500   40.4520 C   0  0  0  0  0  2  0  0  0  0  0  0
   38.3550   31.4990   38.9760 C   0  0  0  0  0  2  0  0  0  0  0  0
   36.8740   31.2320   38.9040 C   0  0  0  0  0  2  0  0  0  0  0  0
   36.5020   31.1400   40.3710 C   0  0  0  0  0  3  0  0  0  0  0  0
   35.5360   30.6240   40.5170 H   0  0  0  0  0  0  0  0  0  0  0  0
  1  2  1  0  0  0  0
  2  7  2  0  0  0  0
  2  3  1  0  0  0  0
  3  4  2  0  0  0  0
  4  8  1  0  0  0  0
  4  5  1  0  0  0  0
  5  9  1  0  0  0  0
  6 10  1  0  0  0  0
  6  5  2  0  0  0  0
  7  6  1  0  0  0  0
 11 16  1  0  0  0  0
 12 13  1  0  0  0  0
 12 11  2  0  0  0  0
 13 14  2  0  0  0  0
 14 15  1  0  0  0  0
 15  3  1  0  0  0  0
 16 15  2  0  0  0  0
 17 11  1  0  0  0  0
 18 12  1  0  0  0  0
 19 13  1  0  0  0  0
 20  7  1  0  0  0  0
 21 20  1  0  0  0  0
 22 21  1  0  0  0  0
 23 22  1  0  0  0  0
 23 24  1  0  0  0  0
 24 25  1  0  0  0  0
 24 20  1  0  0  0  0
M  END
>  <minimizedAffinity>
-4.583076

$$$$
