
 OpenBabel03252509283D

 18 19  0  0  0  0  0  0  0  0999 V2000
   44.6760   36.0930   44.1180 C   0  0  0  0  0  0  0  0  0  0  0  0
   45.5980   35.6160   43.1640 C   0  0  0  0  0  0  0  0  0  0  0  0
   46.3350   34.4850   43.4770 C   0  0  0  0  0  0  0  0  0  0  0  0
   46.1320   33.8880   44.6890 N   0  0  0  0  0  0  0  0  0  0  0  0
   45.2300   34.3780   45.5870 C   0  0  0  0  0  0  0  0  0  0  0  0
   44.5130   35.4680   45.2990 N   0  0  0  0  0  0  0  0  0  0  0  0
   44.1070   36.9820   43.8550 H   0  0  0  0  0  0  0  0  0  0  0  0
   45.7500   36.0990   42.2050 H   0  0  0  0  0  0  0  0  0  0  0  0
   45.1020   33.8710   46.5380 H   0  0  0  0  0  0  0  0  0  0  0  0
   47.2910   33.9910   42.4890 C   0  0  0  0  0  0  0  0  0  0  0  0
   46.7720   33.2290   41.8780 H   0  0  0  0  0  0  0  0  0  0  0  0
   47.6030   34.8220   41.8260 H   0  0  0  0  0  0  0  0  0  0  0  0
   48.5060   33.4690   43.0810 N   0  0  0  0  0  0  0  0  0  0  0  0
   48.7580   32.0950   42.8250 C   0  0  0  0  0  3  0  0  0  0  0  0
   50.0500   31.9930   42.0510 C   0  0  0  0  0  3  0  0  0  0  0  0
   50.6710   33.3590   42.1000 C   0  0  0  0  0  2  0  0  0  0  0  0
   49.6560   34.2410   42.7680 C   0  0  0  0  0  3  0  0  0  0  0  0
   49.4430   35.1430   42.1600 H   0  0  0  0  0  0  0  0  0  0  0  0
  1  6  1  0  0  0  0
  2  3  1  0  0  0  0
  2  1  2  0  0  0  0
  3  4  2  0  0  0  0
  4  5  1  0  0  0  0
  5  9  1  0  0  0  0
  6  5  2  0  0  0  0
  7  1  1  0  0  0  0
  8  2  1  0  0  0  0
 10 13  1  0  0  0  0
 10  3  1  0  0  0  0
 11 10  1  0  0  0  0
 12 10  1  0  0  0  0
 14 13  1  0  0  0  0
 15 16  1  0  0  0  0
 15 14  2  0  0  0  0
 16 17  1  0  0  0  0
 17 13  1  0  0  0  0
 18 17  1  0  0  0  0
M  END
>  <minimizedAffinity>
-3.77832198

>  <minimizedRMSD>
2.2496984

$$$$
