
 OpenBabel03252509283D

 18 19  0  0  0  0  0  0  0  0999 V2000
   44.4550   35.9660   44.6550 C   0  0  0  0  0  0  0  0  0  0  0  0
   44.7010   35.6650   43.3000 C   0  0  0  0  0  0  0  0  0  0  0  0
   45.3210   34.4610   43.0000 C   0  0  0  0  0  0  0  0  0  0  0  0
   45.6610   33.6290   44.0290 N   0  0  0  0  0  0  0  0  0  0  0  0
   45.4070   33.9540   45.3290 C   0  0  0  0  0  0  0  0  0  0  0  0
   44.8110   35.1100   45.6320 N   0  0  0  0  0  0  0  0  0  0  0  0
   43.9690   36.9140   44.8710 H   0  0  0  0  0  0  0  0  0  0  0  0
   44.4260   36.3350   42.4930 H   0  0  0  0  0  0  0  0  0  0  0  0
   45.6950   33.2620   46.1130 H   0  0  0  0  0  0  0  0  0  0  0  0
   45.5750   34.1500   41.5970 C   0  0  0  0  0  0  0  0  0  0  0  0
   45.4960   33.0520   41.4800 H   0  0  0  0  0  0  0  0  0  0  0  0
   44.8030   34.6290   40.9620 H   0  0  0  0  0  0  0  0  0  0  0  0
   46.8510   34.6470   41.1230 N   0  0  0  0  0  0  0  0  0  0  0  0
   47.7210   35.1340   42.1350 C   0  0  0  0  0  3  0  0  0  0  0  0
   48.9650   34.2790   42.1320 C   0  0  0  0  0  3  0  0  0  0  0  0
   48.8880   33.4390   40.8910 C   0  0  0  0  0  2  0  0  0  0  0  0
   47.5380   33.7220   40.2950 C   0  0  0  0  0  3  0  0  0  0  0  0
   46.9790   32.7830   40.1020 H   0  0  0  0  0  0  0  0  0  0  0  0
  1  7  1  0  0  0  0
  1  6  1  0  0  0  0
  2  1  2  0  0  0  0
  3  2  1  0  0  0  0
  3  4  2  0  0  0  0
  4  5  1  0  0  0  0
  5  6  2  0  0  0  0
  5  9  1  0  0  0  0
  8  2  1  0  0  0  0
 10  3  1  0  0  0  0
 11 10  1  0  0  0  0
 12 10  1  0  0  0  0
 13 10  1  0  0  0  0
 13 14  1  0  0  0  0
 15 14  2  0  0  0  0
 16 15  1  0  0  0  0
 17 16  1  0  0  0  0
 17 13  1  0  0  0  0
 18 17  1  0  0  0  0
M  END
>  <minimizedAffinity>
-3.6902411

>  <minimizedRMSD>
1.4403429

$$$$
