
 OpenBabel03252503393D

 38 41  0  0  1  0  0  0  0  0999 V2000
   36.6870   28.0910   41.3120 C   0  0  1  0  0  0  0  0  0  0  0  0
   36.8050   27.1040   42.5510 C   0  0  0  0  0  0  0  0  0  0  0  0
   37.4940   27.8300   43.6710 C   0  0  0  0  0  0  0  0  0  0  0  0
   38.9530   28.1000   43.3720 C   0  0  0  0  0  0  0  0  0  0  0  0
   39.1230   28.2470   41.8750 C   0  0  0  0  0  0  0  0  0  0  0  0
   37.9200   28.9010   41.2530 C   0  0  2  0  0  0  0  0  0  0  0  0
   35.7590   28.6200   41.6090 H   0  0  0  0  0  0  0  0  0  0  0  0
   35.8060   26.8120   42.8690 H   0  0  0  0  0  0  0  0  0  0  0  0
   37.4520   26.2640   42.2370 H   0  0  0  0  0  0  0  0  0  0  0  0
   36.9390   28.7930   43.8170 H   0  0  0  0  0  0  0  0  0  0  0  0
   37.3300   27.2470   44.5880 H   0  0  0  0  0  0  0  0  0  0  0  0
   39.5490   27.2300   43.7220 H   0  0  0  0  0  0  0  0  0  0  0  0
   39.3160   29.0010   43.9150 H   0  0  0  0  0  0  0  0  0  0  0  0
   39.1360   27.2050   41.4800 H   0  0  0  0  0  0  0  0  0  0  0  0
   40.0600   28.7090   41.5790 H   0  0  0  0  0  0  0  0  0  0  0  0
   38.1820   28.9980   40.1580 H   0  0  0  0  0  0  0  0  0  0  0  0
   36.4680   27.1960   40.1310 C   0  0  0  0  0  0  0  0  0  0  0  0
   35.7750   27.4670   38.9790 C   0  0  0  0  0  0  0  0  0  0  0  0
   35.7800   26.4520   38.0200 C   0  0  0  0  0  0  0  0  0  0  0  0
   36.4490   25.2800   38.2590 N   0  0  0  0  0  0  0  0  0  0  0  0
   37.1110   25.0770   39.4070 C   0  0  0  0  0  0  0  0  0  0  0  0
   37.1070   26.0600   40.3390 N   0  0  0  0  0  0  0  0  0  0  0  0
   35.2340   26.6510   37.1020 H   0  0  0  0  0  0  0  0  0  0  0  0
   37.6010   24.1120   39.4740 H   0  0  0  0  0  0  0  0  0  0  0  0
   34.9620   28.6980   38.7380 C   0  0  0  0  0  0  0  0  0  0  0  0
   35.1230   29.2850   37.3770 C   0  0  0  0  0  0  0  0  0  0  0  0
   33.8200   28.6110   37.7510 C   0  0  0  0  0  0  0  0  0  0  0  0
   35.1900   29.5020   39.4480 H   0  0  0  0  0  0  0  0  0  0  0  0
   35.0210   30.3720   37.2760 H   0  0  0  0  0  0  0  0  0  0  0  0
   35.8210   28.8170   36.6640 H   0  0  0  0  0  0  0  0  0  0  0  0
   33.6890   27.6540   37.1940 H   0  0  0  0  0  0  0  0  0  0  0  0
   32.9220   29.2430   37.9140 H   0  0  0  0  0  0  0  0  0  0  0  0
   37.7030   30.2600   41.6910 N   0  0  2  0  0  0  0  0  0  0  0  0
   36.4280   30.6710   41.0850 C   0  0  0  0  0  2  0  0  0  0  0  0
   36.8190   31.5860   39.9160 C   0  0  0  0  0  2  0  0  0  0  0  0
   37.9840   32.3180   40.5230 C   0  0  0  0  0  2  0  0  0  0  0  0
   38.7010   31.1660   41.2320 C   0  0  0  0  0  3  0  0  0  0  0  0
   39.2370   31.6550   42.0940 H   0  0  0  0  0  0  0  0  0  0  0  0
  1  7  1  1  0  0  0
  1  2  1  0  0  0  0
  2  8  1  0  0  0  0
  2  3  1  0  0  0  0
  3 10  1  0  0  0  0
  3 11  1  0  0  0  0
  4  3  1  0  0  0  0
  4 12  1  0  0  0  0
  4 13  1  0  0  0  0
  5  4  1  0  0  0  0
  6 16  1  6  0  0  0
  6  1  1  0  0  0  0
  6 33  1  0  0  0  0
  6  5  1  0  0  0  0
  9  2  1  0  0  0  0
 14  5  1  0  0  0  0
 15  5  1  0  0  0  0
 17 22  1  0  0  0  0
 17  1  1  0  0  0  0
 18 17  2  0  0  0  0
 19 20  2  0  0  0  0
 19 18  1  0  0  0  0
 20 21  1  0  0  0  0
 21 24  1  0  0  0  0
 21 22  2  0  0  0  0
 23 19  1  0  0  0  0
 25 18  1  0  0  0  0
 25 28  1  0  0  0  0
 26 27  1  0  0  0  0
 26 25  1  0  0  0  0
 27 32  1  0  0  0  0
 27 25  1  0  0  0  0
 29 26  1  0  0  0  0
 30 26  1  0  0  0  0
 31 27  1  0  0  0  0
 33 34  1  6  0  0  0
 35 36  1  0  0  0  0
 35 34  1  0  0  0  0
 36 37  1  0  0  0  0
 37 33  1  0  0  0  0
 37 38  1  0  0  0  0
M  END
>  <minimizedAffinity>
-5.36154556

$$$$

 OpenBabel03252503393D

 38 41  0  0  1  0  0  0  0  0999 V2000
   36.5550   28.3930   41.2240 C   0  0  1  0  0  0  0  0  0  0  0  0
   36.5540   27.4460   42.5000 C   0  0  0  0  0  0  0  0  0  0  0  0
   37.2600   28.1580   43.6180 C   0  0  0  0  0  0  0  0  0  0  0  0
   38.7450   28.3030   43.3640 C   0  0  0  0  0  0  0  0  0  0  0  0
   38.9760   28.3810   41.8700 C   0  0  0  0  0  0  0  0  0  0  0  0
   37.8490   29.1020   41.1820 C   0  0  2  0  0  0  0  0  0  0  0  0
   35.6620   29.0010   41.4680 H   0  0  0  0  0  0  0  0  0  0  0  0
   35.5260   27.2440   42.7910 H   0  0  0  0  0  0  0  0  0  0  0  0
   37.1430   26.5480   42.2390 H   0  0  0  0  0  0  0  0  0  0  0  0
   36.7760   29.1650   43.7110 H   0  0  0  0  0  0  0  0  0  0  0  0
   37.0200   27.6240   44.5480 H   0  0  0  0  0  0  0  0  0  0  0  0
   39.2590   27.4040   43.7650 H   0  0  0  0  0  0  0  0  0  0  0  0
   39.1580   29.1940   43.8880 H   0  0  0  0  0  0  0  0  0  0  0  0
   38.9210   27.3270   41.5120 H   0  0  0  0  0  0  0  0  0  0  0  0
   39.9550   28.7580   41.5930 H   0  0  0  0  0  0  0  0  0  0  0  0
   38.1550   29.1380   40.0940 H   0  0  0  0  0  0  0  0  0  0  0  0
   36.3070   27.4730   40.0680 C   0  0  0  0  0  0  0  0  0  0  0  0
   36.6520   26.1500   39.9490 C   0  0  0  0  0  0  0  0  0  0  0  0
   36.2440   25.5250   38.7680 C   0  0  0  0  0  0  0  0  0  0  0  0
   35.5470   26.2290   37.8210 N   0  0  0  0  0  0  0  0  0  0  0  0
   35.2380   27.5210   37.9990 C   0  0  0  0  0  0  0  0  0  0  0  0
   35.6330   28.1290   39.1430 N   0  0  0  0  0  0  0  0  0  0  0  0
   36.5110   24.4780   38.6580 H   0  0  0  0  0  0  0  0  0  0  0  0
   34.6830   27.9630   37.1790 H   0  0  0  0  0  0  0  0  0  0  0  0
   37.4920   25.3930   40.9260 C   0  0  0  0  0  0  0  0  0  0  0  0
   36.9770   24.0320   41.2560 C   0  0  0  0  0  0  0  0  0  0  0  0
   38.2360   24.1750   40.4260 C   0  0  0  0  0  0  0  0  0  0  0  0
   37.6070   25.9170   41.8820 H   0  0  0  0  0  0  0  0  0  0  0  0
   37.1770   23.6420   42.2610 H   0  0  0  0  0  0  0  0  0  0  0  0
   36.0340   23.6860   40.8030 H   0  0  0  0  0  0  0  0  0  0  0  0
   38.0590   23.8570   39.3720 H   0  0  0  0  0  0  0  0  0  0  0  0
   39.2100   23.9140   40.8900 H   0  0  0  0  0  0  0  0  0  0  0  0
   37.7250   30.4890   41.5640 N   0  0  2  0  0  0  0  0  0  0  0  0
   36.4730   30.9570   40.9500 C   0  0  0  0  0  2  0  0  0  0  0  0
   36.9130   31.7960   39.7410 C   0  0  0  0  0  2  0  0  0  0  0  0
   38.1280   32.4750   40.3100 C   0  0  0  0  0  2  0  0  0  0  0  0
   38.7750   31.3090   41.0630 C   0  0  0  0  0  3  0  0  0  0  0  0
   39.3490   31.7970   41.9000 H   0  0  0  0  0  0  0  0  0  0  0  0
  1  7  1  1  0  0  0
  1  2  1  0  0  0  0
  2  8  1  0  0  0  0
  2  3  1  0  0  0  0
  3 10  1  0  0  0  0
  3 11  1  0  0  0  0
  4  3  1  0  0  0  0
  4 12  1  0  0  0  0
  4 13  1  0  0  0  0
  5  4  1  0  0  0  0
  6 16  1  6  0  0  0
  6  1  1  0  0  0  0
  6 33  1  0  0  0  0
  6  5  1  0  0  0  0
  9  2  1  0  0  0  0
 14  5  1  0  0  0  0
 15  5  1  0  0  0  0
 17  1  1  0  0  0  0
 18 17  1  0  0  0  0
 18 25  1  0  0  0  0
 19 18  2  0  0  0  0
 20 21  2  0  0  0  0
 20 19  1  0  0  0  0
 21 22  1  0  0  0  0
 22 17  2  0  0  0  0
 23 19  1  0  0  0  0
 24 21  1  0  0  0  0
 25 26  1  0  0  0  0
 25 28  1  0  0  0  0
 26 29  1  0  0  0  0
 27 32  1  0  0  0  0
 27 25  1  0  0  0  0
 27 26  1  0  0  0  0
 30 26  1  0  0  0  0
 31 27  1  0  0  0  0
 33 34  1  6  0  0  0
 35 36  1  0  0  0  0
 35 34  1  0  0  0  0
 36 37  1  0  0  0  0
 37 33  1  0  0  0  0
 37 38  1  0  0  0  0
M  END
>  <minimizedAffinity>
-5.34758949

$$$$

 OpenBabel03252503393D

 38 41  0  0  1  0  0  0  0  0999 V2000
   36.8540   29.1640   41.1900 C   0  0  1  0  0  0  0  0  0  0  0  0
   35.5980   29.9850   40.6670 C   0  0  0  0  0  0  0  0  0  0  0  0
   34.6360   29.0240   40.0300 C   0  0  0  0  0  0  0  0  0  0  0  0
   35.1670   28.4470   38.7360 C   0  0  0  0  0  0  0  0  0  0  0  0
   36.6780   28.3940   38.8130 C   0  0  0  0  0  0  0  0  0  0  0  0
   37.1420   28.0970   40.2120 C   0  0  2  0  0  0  0  0  0  0  0  0
   36.4460   28.8440   42.1690 H   0  0  0  0  0  0  0  0  0  0  0  0
   35.1170   30.4740   41.5110 H   0  0  0  0  0  0  0  0  0  0  0  0
   35.9640   30.6740   39.8830 H   0  0  0  0  0  0  0  0  0  0  0  0
   34.4560   28.2090   40.7800 H   0  0  0  0  0  0  0  0  0  0  0  0
   33.6760   29.5480   39.9210 H   0  0  0  0  0  0  0  0  0  0  0  0
   34.8680   29.1190   37.9040 H   0  0  0  0  0  0  0  0  0  0  0  0
   34.7320   27.4420   38.5350 H   0  0  0  0  0  0  0  0  0  0  0  0
   37.0170   29.4340   38.5980 H   0  0  0  0  0  0  0  0  0  0  0  0
   37.1360   27.7520   38.0660 H   0  0  0  0  0  0  0  0  0  0  0  0
   38.2680   28.0350   40.1320 H   0  0  0  0  0  0  0  0  0  0  0  0
   37.9400   30.1840   41.3410 C   0  0  0  0  0  0  0  0  0  0  0  0
   38.0050   31.4400   40.7910 C   0  0  0  0  0  0  0  0  0  0  0  0
   39.1230   32.1970   41.1490 C   0  0  0  0  0  0  0  0  0  0  0  0
   40.0650   31.6780   41.9980 N   0  0  0  0  0  0  0  0  0  0  0  0
   39.9410   30.4430   42.5040 C   0  0  0  0  0  0  0  0  0  0  0  0
   38.8590   29.7060   42.1590 N   0  0  0  0  0  0  0  0  0  0  0  0
   39.1890   33.1930   40.7200 H   0  0  0  0  0  0  0  0  0  0  0  0
   40.7500   30.1490   43.1650 H   0  0  0  0  0  0  0  0  0  0  0  0
   37.0390   31.9880   39.7900 C   0  0  0  0  0  0  0  0  0  0  0  0
   37.3510   33.3700   39.3270 C   0  0  0  0  0  0  0  0  0  0  0  0
   37.5290   32.2050   38.3770 C   0  0  0  0  0  0  0  0  0  0  0  0
   36.0100   32.0150   40.1670 H   0  0  0  0  0  0  0  0  0  0  0  0
   36.5100   34.0160   39.0480 H   0  0  0  0  0  0  0  0  0  0  0  0
   38.2220   33.8990   39.7480 H   0  0  0  0  0  0  0  0  0  0  0  0
   38.6100   32.0190   38.1690 H   0  0  0  0  0  0  0  0  0  0  0  0
   36.8130   32.0890   37.5370 H   0  0  0  0  0  0  0  0  0  0  0  0
   36.7460   26.7930   40.6930 N   0  0  2  0  0  0  0  0  0  0  0  0
   37.0130   26.8080   42.1390 C   0  0  0  0  0  2  0  0  0  0  0  0
   38.2980   25.9860   42.3150 C   0  0  0  0  0  2  0  0  0  0  0  0
   38.0700   24.9050   41.2950 C   0  0  0  0  0  2  0  0  0  0  0  0
   37.5080   25.7300   40.1330 C   0  0  0  0  0  3  0  0  0  0  0  0
   36.8530   25.0090   39.5660 H   0  0  0  0  0  0  0  0  0  0  0  0
  1 17  1  0  0  0  0
  1  7  1  1  0  0  0
  2  1  1  0  0  0  0
  2  8  1  0  0  0  0
  3  2  1  0  0  0  0
  3 10  1  0  0  0  0
  4  5  1  0  0  0  0
  4  3  1  0  0  0  0
  5  6  1  0  0  0  0
  6 16  1  6  0  0  0
  6 33  1  0  0  0  0
  6  1  1  0  0  0  0
  9  2  1  0  0  0  0
 11  3  1  0  0  0  0
 12  4  1  0  0  0  0
 13  4  1  0  0  0  0
 14  5  1  0  0  0  0
 15  5  1  0  0  0  0
 17 22  1  0  0  0  0
 18 19  1  0  0  0  0
 18 17  2  0  0  0  0
 19 20  2  0  0  0  0
 20 21  1  0  0  0  0
 21 24  1  0  0  0  0
 22 21  2  0  0  0  0
 23 19  1  0  0  0  0
 25 28  1  0  0  0  0
 25 18  1  0  0  0  0
 26 30  1  0  0  0  0
 26 25  1  0  0  0  0
 27 26  1  0  0  0  0
 27 25  1  0  0  0  0
 29 26  1  0  0  0  0
 31 27  1  0  0  0  0
 32 27  1  0  0  0  0
 33 34  1  1  0  0  0
 34 35  1  0  0  0  0
 36 35  1  0  0  0  0
 37 33  1  0  0  0  0
 37 36  1  0  0  0  0
 38 37  1  0  0  0  0
M  END
>  <minimizedAffinity>
-5.16018438

$$$$

 OpenBabel03252503393D

 38 41  0  0  1  0  0  0  0  0999 V2000
   36.7170   27.6710   39.3680 C   0  0  1  0  0  0  0  0  0  0  0  0
   35.7140   27.2060   38.2270 C   0  0  0  0  0  0  0  0  0  0  0  0
   35.1440   28.4300   37.5700 C   0  0  0  0  0  0  0  0  0  0  0  0
   34.2110   29.1950   38.4840 C   0  0  0  0  0  0  0  0  0  0  0  0
   34.6550   28.9830   39.9160 C   0  0  0  0  0  0  0  0  0  0  0  0
   36.1520   28.8730   40.0120 C   0  0  2  0  0  0  0  0  0  0  0  0
   37.6210   27.8200   38.7440 H   0  0  0  0  0  0  0  0  0  0  0  0
   36.2610   26.6210   37.4910 H   0  0  0  0  0  0  0  0  0  0  0  0
   34.8870   26.6650   38.7220 H   0  0  0  0  0  0  0  0  0  0  0  0
   36.0160   29.0690   37.2740 H   0  0  0  0  0  0  0  0  0  0  0  0
   34.6760   28.1080   36.6290 H   0  0  0  0  0  0  0  0  0  0  0  0
   33.1850   28.7880   38.3580 H   0  0  0  0  0  0  0  0  0  0  0  0
   34.1840   30.2750   38.2200 H   0  0  0  0  0  0  0  0  0  0  0  0
   34.2610   27.9790   40.1980 H   0  0  0  0  0  0  0  0  0  0  0  0
   34.2340   29.6950   40.6190 H   0  0  0  0  0  0  0  0  0  0  0  0
   36.3600   28.7680   41.1180 H   0  0  0  0  0  0  0  0  0  0  0  0
   36.8470   26.4810   40.2690 C   0  0  0  0  0  0  0  0  0  0  0  0
   37.1920   26.4570   41.5960 C   0  0  0  0  0  0  0  0  0  0  0  0
   37.1830   25.1970   42.1980 C   0  0  0  0  0  0  0  0  0  0  0  0
   36.8450   24.0860   41.4690 N   0  0  0  0  0  0  0  0  0  0  0  0
   36.5160   24.1780   40.1740 C   0  0  0  0  0  0  0  0  0  0  0  0
   36.5230   25.3980   39.5870 N   0  0  0  0  0  0  0  0  0  0  0  0
   37.4550   25.1610   43.2500 H   0  0  0  0  0  0  0  0  0  0  0  0
   36.2660   23.2290   39.7100 H   0  0  0  0  0  0  0  0  0  0  0  0
   37.6540   27.6420   42.3830 C   0  0  0  0  0  0  0  0  0  0  0  0
   36.9430   27.8350   43.6800 C   0  0  0  0  0  0  0  0  0  0  0  0
   38.3900   27.3880   43.6790 C   0  0  0  0  0  0  0  0  0  0  0  0
   37.5480   28.5830   41.8320 H   0  0  0  0  0  0  0  0  0  0  0  0
   36.8190   28.8610   44.0450 H   0  0  0  0  0  0  0  0  0  0  0  0
   36.1340   27.1410   43.9620 H   0  0  0  0  0  0  0  0  0  0  0  0
   38.4830   26.3310   44.0230 H   0  0  0  0  0  0  0  0  0  0  0  0
   39.1690   28.1090   44.0030 H   0  0  0  0  0  0  0  0  0  0  0  0
   36.8510   30.0780   39.6290 N   0  0  2  0  0  0  0  0  0  0  0  0
   38.2390   29.6650   39.3750 C   0  0  0  0  0  2  0  0  0  0  0  0
   39.0260   30.1370   40.6060 C   0  0  0  0  0  2  0  0  0  0  0  0
   38.3480   31.4520   40.8740 C   0  0  0  0  0  2  0  0  0  0  0  0
   36.8830   31.0620   40.6570 C   0  0  0  0  0  3  0  0  0  0  0  0
   36.3830   32.0160   40.3280 H   0  0  0  0  0  0  0  0  0  0  0  0
  1  7  1  6  0  0  0
  1  6  1  0  0  0  0
  1 17  1  0  0  0  0
  2  9  1  0  0  0  0
  2  1  1  0  0  0  0
  3  2  1  0  0  0  0
  3  4  1  0  0  0  0
  4  5  1  0  0  0  0
  5  6  1  0  0  0  0
  5 14  1  0  0  0  0
  5 15  1  0  0  0  0
  6 16  1  1  0  0  0
  8  2  1  0  0  0  0
 10  3  1  0  0  0  0
 11  3  1  0  0  0  0
 12  4  1  0  0  0  0
 13  4  1  0  0  0  0
 17 18  1  0  0  0  0
 18 19  2  0  0  0  0
 18 25  1  0  0  0  0
 19 23  1  0  0  0  0
 20 19  1  0  0  0  0
 21 20  2  0  0  0  0
 22 21  1  0  0  0  0
 22 17  2  0  0  0  0
 24 21  1  0  0  0  0
 25 27  1  0  0  0  0
 25 26  1  0  0  0  0
 26 30  1  0  0  0  0
 26 29  1  0  0  0  0
 27 26  1  0  0  0  0
 27 32  1  0  0  0  0
 27 31  1  0  0  0  0
 28 25  1  0  0  0  0
 33 34  1  1  0  0  0
 33  6  1  0  0  0  0
 33 37  1  0  0  0  0
 34 35  1  0  0  0  0
 35 36  1  0  0  0  0
 37 36  1  0  0  0  0
 38 37  1  0  0  0  0
M  END
>  <minimizedAffinity>
-5.12156391

$$$$

 OpenBabel03252503393D

 38 41  0  0  1  0  0  0  0  0999 V2000
   36.9550   29.9490   41.1170 C   0  0  1  0  0  0  0  0  0  0  0  0
   35.6320   30.2260   40.2820 C   0  0  0  0  0  0  0  0  0  0  0  0
   34.9700   28.9090   39.9930 C   0  0  0  0  0  0  0  0  0  0  0  0
   35.7620   28.0670   39.0150 C   0  0  0  0  0  0  0  0  0  0  0  0
   37.2310   28.3980   39.1690 C   0  0  0  0  0  0  0  0  0  0  0  0
   37.5720   28.7120   40.6000 C   0  0  2  0  0  0  0  0  0  0  0  0
   36.5050   29.8950   42.1280 H   0  0  0  0  0  0  0  0  0  0  0  0
   34.9620   30.8460   40.8740 H   0  0  0  0  0  0  0  0  0  0  0  0
   35.9420   30.6720   39.3190 H   0  0  0  0  0  0  0  0  0  0  0  0
   34.8700   28.3800   40.9760 H   0  0  0  0  0  0  0  0  0  0  0  0
   33.9450   29.1250   39.6630 H   0  0  0  0  0  0  0  0  0  0  0  0
   35.4360   28.3270   37.9860 H   0  0  0  0  0  0  0  0  0  0  0  0
   35.5690   26.9820   39.1700 H   0  0  0  0  0  0  0  0  0  0  0  0
   37.3740   29.3520   38.6100 H   0  0  0  0  0  0  0  0  0  0  0  0
   37.8980   27.6670   38.7220 H   0  0  0  0  0  0  0  0  0  0  0  0
   38.6870   28.8920   40.5950 H   0  0  0  0  0  0  0  0  0  0  0  0
   37.7840   31.1840   40.9370 C   0  0  0  0  0  0  0  0  0  0  0  0
   39.0560   31.4240   41.3910 C   0  0  0  0  0  0  0  0  0  0  0  0
   39.6030   32.6560   41.0270 C   0  0  0  0  0  0  0  0  0  0  0  0
   38.8790   33.5340   40.2640 N   0  0  0  0  0  0  0  0  0  0  0  0
   37.6390   33.2380   39.8490 C   0  0  0  0  0  0  0  0  0  0  0  0
   37.1050   32.0440   40.2010 N   0  0  0  0  0  0  0  0  0  0  0  0
   40.6100   32.8620   41.3810 H   0  0  0  0  0  0  0  0  0  0  0  0
   37.1730   34.0140   39.2500 H   0  0  0  0  0  0  0  0  0  0  0  0
   39.8250   30.5210   42.3020 C   0  0  0  0  0  0  0  0  0  0  0  0
   41.0040   29.8660   41.6660 C   0  0  0  0  0  0  0  0  0  0  0  0
   41.2190   30.9440   42.7070 C   0  0  0  0  0  0  0  0  0  0  0  0
   39.2110   29.7130   42.7140 H   0  0  0  0  0  0  0  0  0  0  0  0
   41.2890   28.8710   42.0260 H   0  0  0  0  0  0  0  0  0  0  0  0
   41.2190   30.0530   40.6010 H   0  0  0  0  0  0  0  0  0  0  0  0
   41.6340   31.8710   42.2440 H   0  0  0  0  0  0  0  0  0  0  0  0
   41.5990   30.6500   43.7070 H   0  0  0  0  0  0  0  0  0  0  0  0
   37.3940   27.5950   41.5000 N   0  0  2  0  0  0  0  0  0  0  0  0
   37.0360   28.1870   42.7970 C   0  0  0  0  0  2  0  0  0  0  0  0
   38.3120   28.0880   43.6450 C   0  0  0  0  0  2  0  0  0  0  0  0
   38.8280   26.7460   43.2040 C   0  0  0  0  0  2  0  0  0  0  0  0
   38.5800   26.8340   41.6950 C   0  0  0  0  0  3  0  0  0  0  0  0
   38.4390   25.7640   41.3690 H   0  0  0  0  0  0  0  0  0  0  0  0
  1  7  1  1  0  0  0
  2  8  1  0  0  0  0
  2  1  1  0  0  0  0
  3  2  1  0  0  0  0
  3 10  1  0  0  0  0
  4  5  1  0  0  0  0
  4 13  1  0  0  0  0
  4  3  1  0  0  0  0
  5  6  1  0  0  0  0
  6 16  1  6  0  0  0
  6  1  1  0  0  0  0
  6 33  1  0  0  0  0
  9  2  1  0  0  0  0
 11  3  1  0  0  0  0
 12  4  1  0  0  0  0
 14  5  1  0  0  0  0
 15  5  1  0  0  0  0
 17  1  1  0  0  0  0
 17 18  1  0  0  0  0
 18 25  1  0  0  0  0
 19 23  1  0  0  0  0
 19 18  2  0  0  0  0
 20 19  1  0  0  0  0
 21 22  1  0  0  0  0
 21 20  2  0  0  0  0
 22 17  2  0  0  0  0
 24 21  1  0  0  0  0
 25 27  1  0  0  0  0
 25 28  1  0  0  0  0
 26 29  1  0  0  0  0
 26 25  1  0  0  0  0
 26 27  1  0  0  0  0
 27 32  1  0  0  0  0
 30 26  1  0  0  0  0
 31 27  1  0  0  0  0
 33 37  1  0  0  0  0
 33 34  1  1  0  0  0
 34 35  1  0  0  0  0
 36 35  1  0  0  0  0
 37 36  1  0  0  0  0
 38 37  1  0  0  0  0
M  END
>  <minimizedAffinity>
-5.11029387

$$$$

 OpenBabel03252503393D

 38 41  0  0  1  0  0  0  0  0999 V2000
   37.4990   29.1940   41.3720 C   0  0  1  0  0  0  0  0  0  0  0  0
   36.2790   28.2590   41.7750 C   0  0  0  0  0  0  0  0  0  0  0  0
   36.6930   27.4170   42.9470 C   0  0  0  0  0  0  0  0  0  0  0  0
   37.7400   26.3880   42.5770 C   0  0  0  0  0  0  0  0  0  0  0  0
   38.5710   26.9300   41.4340 C   0  0  0  0  0  0  0  0  0  0  0  0
   38.7440   28.4200   41.5460 C   0  0  2  0  0  0  0  0  0  0  0  0
   37.3210   30.0170   42.0920 H   0  0  0  0  0  0  0  0  0  0  0  0
   35.4330   28.8820   42.0560 H   0  0  0  0  0  0  0  0  0  0  0  0
   36.0890   27.5860   40.9180 H   0  0  0  0  0  0  0  0  0  0  0  0
   37.0920   28.1230   43.7210 H   0  0  0  0  0  0  0  0  0  0  0  0
   35.7790   26.9850   43.3780 H   0  0  0  0  0  0  0  0  0  0  0  0
   37.2210   25.4650   42.2440 H   0  0  0  0  0  0  0  0  0  0  0  0
   38.3730   26.1240   43.4540 H   0  0  0  0  0  0  0  0  0  0  0  0
   37.9520   26.7670   40.5220 H   0  0  0  0  0  0  0  0  0  0  0  0
   39.5070   26.4020   41.2790 H   0  0  0  0  0  0  0  0  0  0  0  0
   39.4120   28.6960   40.6770 H   0  0  0  0  0  0  0  0  0  0  0  0
   37.2120   29.6090   39.9620 C   0  0  0  0  0  0  0  0  0  0  0  0
   37.1890   30.8780   39.4420 C   0  0  0  0  0  0  0  0  0  0  0  0
   36.9390   30.9620   38.0700 C   0  0  0  0  0  0  0  0  0  0  0  0
   36.7380   29.8230   37.3350 N   0  0  0  0  0  0  0  0  0  0  0  0
   36.7760   28.6100   37.9040 C   0  0  0  0  0  0  0  0  0  0  0  0
   37.0170   28.5260   39.2340 N   0  0  0  0  0  0  0  0  0  0  0  0
   36.9160   31.9610   37.6430 H   0  0  0  0  0  0  0  0  0  0  0  0
   36.6040   27.7900   37.2160 H   0  0  0  0  0  0  0  0  0  0  0  0
   37.3120   32.1350   40.2420 C   0  0  0  0  0  0  0  0  0  0  0  0
   38.5800   32.8870   40.0160 C   0  0  0  0  0  0  0  0  0  0  0  0
   37.2730   33.4530   39.5010 C   0  0  0  0  0  0  0  0  0  0  0  0
   37.2480   31.9570   41.3210 H   0  0  0  0  0  0  0  0  0  0  0  0
   38.9870   33.4620   40.8550 H   0  0  0  0  0  0  0  0  0  0  0  0
   39.3350   32.4800   39.3240 H   0  0  0  0  0  0  0  0  0  0  0  0
   37.2330   33.4200   38.3870 H   0  0  0  0  0  0  0  0  0  0  0  0
   36.8420   34.3400   40.0090 H   0  0  0  0  0  0  0  0  0  0  0  0
   39.4870   28.8340   42.7140 N   0  0  2  0  0  0  0  0  0  0  0  0
   39.3870   30.3010   42.7450 C   0  0  0  0  0  2  0  0  0  0  0  0
   40.7530   30.8030   42.2520 C   0  0  0  0  0  2  0  0  0  0  0  0
   41.6610   29.7940   42.8960 C   0  0  0  0  0  2  0  0  0  0  0  0
   40.8700   28.5060   42.6480 C   0  0  0  0  0  3  0  0  0  0  0  0
   41.1700   27.8230   43.4920 H   0  0  0  0  0  0  0  0  0  0  0  0
  1  6  1  0  0  0  0
  1  2  1  0  0  0  0
  1  7  1  1  0  0  0
  2  8  1  0  0  0  0
  2  3  1  0  0  0  0
  3 11  1  0  0  0  0
  3 10  1  0  0  0  0
  4  3  1  0  0  0  0
  4 13  1  0  0  0  0
  5  6  1  0  0  0  0
  5  4  1  0  0  0  0
  6 16  1  6  0  0  0
  6 33  1  0  0  0  0
  9  2  1  0  0  0  0
 12  4  1  0  0  0  0
 14  5  1  0  0  0  0
 15  5  1  0  0  0  0
 17  1  1  0  0  0  0
 18 17  1  0  0  0  0
 18 25  1  0  0  0  0
 19 18  2  0  0  0  0
 20 21  2  0  0  0  0
 20 19  1  0  0  0  0
 21 22  1  0  0  0  0
 22 17  2  0  0  0  0
 23 19  1  0  0  0  0
 24 21  1  0  0  0  0
 25 28  1  0  0  0  0
 26 25  1  0  0  0  0
 26 29  1  0  0  0  0
 27 32  1  0  0  0  0
 27 26  1  0  0  0  0
 27 25  1  0  0  0  0
 30 26  1  0  0  0  0
 31 27  1  0  0  0  0
 33 34  1  6  0  0  0
 35 34  1  0  0  0  0
 35 36  1  0  0  0  0
 37 33  1  0  0  0  0
 37 36  1  0  0  0  0
 37 38  1  0  0  0  0
M  END
>  <minimizedAffinity>
-5.10654879

$$$$

 OpenBabel03252503393D

 38 41  0  0  1  0  0  0  0  0999 V2000
   38.2700   30.7210   41.1360 C   0  0  1  0  0  0  0  0  0  0  0  0
   39.1670   32.0300   41.2130 C   0  0  0  0  0  0  0  0  0  0  0  0
   38.7730   32.9420   40.0870 C   0  0  0  0  0  0  0  0  0  0  0  0
   39.1720   32.3940   38.7340 C   0  0  0  0  0  0  0  0  0  0  0  0
   39.1650   30.8820   38.8010 C   0  0  0  0  0  0  0  0  0  0  0  0
   38.0760   30.3830   39.7120 C   0  0  2  0  0  0  0  0  0  0  0  0
   37.3820   31.0970   41.6820 H   0  0  0  0  0  0  0  0  0  0  0  0
   38.9870   32.5280   42.1630 H   0  0  0  0  0  0  0  0  0  0  0  0
   40.2150   31.7160   41.0500 H   0  0  0  0  0  0  0  0  0  0  0  0
   37.6610   33.0640   40.1500 H   0  0  0  0  0  0  0  0  0  0  0  0
   39.1960   33.9320   40.3060 H   0  0  0  0  0  0  0  0  0  0  0  0
   40.2010   32.7430   38.5040 H   0  0  0  0  0  0  0  0  0  0  0  0
   38.4990   32.7710   37.9320 H   0  0  0  0  0  0  0  0  0  0  0  0
   40.1230   30.6080   39.3000 H   0  0  0  0  0  0  0  0  0  0  0  0
   39.1640   30.3960   37.8310 H   0  0  0  0  0  0  0  0  0  0  0  0
   38.1400   29.2570   39.6420 H   0  0  0  0  0  0  0  0  0  0  0  0
   39.0220   29.6960   41.9260 C   0  0  0  0  0  0  0  0  0  0  0  0
   38.5550   28.5150   42.4450 C   0  0  0  0  0  0  0  0  0  0  0  0
   39.5040   27.7260   43.0990 C   0  0  0  0  0  0  0  0  0  0  0  0
   40.8050   28.1470   43.1910 N   0  0  0  0  0  0  0  0  0  0  0  0
   41.2000   29.3120   42.6600 C   0  0  0  0  0  0  0  0  0  0  0  0
   40.2820   30.0790   42.0250 N   0  0  0  0  0  0  0  0  0  0  0  0
   39.1480   26.7880   43.5170 H   0  0  0  0  0  0  0  0  0  0  0  0
   42.2540   29.5300   42.7970 H   0  0  0  0  0  0  0  0  0  0  0  0
   37.1230   28.0840   42.4380 C   0  0  0  0  0  0  0  0  0  0  0  0
   36.9260   26.6050   42.4480 C   0  0  0  0  0  0  0  0  0  0  0  0
   36.5790   27.4150   43.6800 C   0  0  0  0  0  0  0  0  0  0  0  0
   36.5720   28.4610   41.5690 H   0  0  0  0  0  0  0  0  0  0  0  0
   36.0390   26.2070   41.9420 H   0  0  0  0  0  0  0  0  0  0  0  0
   37.8060   25.9410   42.4330 H   0  0  0  0  0  0  0  0  0  0  0  0
   37.2930   27.2060   44.5110 H   0  0  0  0  0  0  0  0  0  0  0  0
   35.5090   27.5560   43.9390 H   0  0  0  0  0  0  0  0  0  0  0  0
   36.7430   30.6950   39.2520 N   0  0  2  0  0  0  0  0  0  0  0  0
   35.8390   30.2190   40.3100 C   0  0  0  0  0  2  0  0  0  0  0  0
   35.2380   28.9160   39.7630 C   0  0  0  0  0  2  0  0  0  0  0  0
   35.0660   29.2830   38.3160 C   0  0  0  0  0  2  0  0  0  0  0  0
   36.3860   30.0150   38.0540 C   0  0  0  0  0  3  0  0  0  0  0  0
   36.1470   30.7410   37.2260 H   0  0  0  0  0  0  0  0  0  0  0  0
  1  2  1  0  0  0  0
  1  7  1  1  0  0  0
  1 17  1  0  0  0  0
  2  8  1  0  0  0  0
  3 10  1  0  0  0  0
  3 11  1  0  0  0  0
  3  2  1  0  0  0  0
  4  5  1  0  0  0  0
  4  3  1  0  0  0  0
  5 14  1  0  0  0  0
  5  6  1  0  0  0  0
  6 16  1  6  0  0  0
  6  1  1  0  0  0  0
  9  2  1  0  0  0  0
 12  4  1  0  0  0  0
 13  4  1  0  0  0  0
 15  5  1  0  0  0  0
 17 22  2  0  0  0  0
 17 18  1  0  0  0  0
 18 19  2  0  0  0  0
 19 20  1  0  0  0  0
 19 23  1  0  0  0  0
 21 24  1  0  0  0  0
 21 20  2  0  0  0  0
 22 21  1  0  0  0  0
 25 18  1  0  0  0  0
 25 26  1  0  0  0  0
 25 27  1  0  0  0  0
 26 27  1  0  0  0  0
 27 32  1  0  0  0  0
 27 31  1  0  0  0  0
 28 25  1  0  0  0  0
 29 26  1  0  0  0  0
 30 26  1  0  0  0  0
 33  6  1  0  0  0  0
 33 34  1  1  0  0  0
 35 34  1  0  0  0  0
 36 35  1  0  0  0  0
 37 36  1  0  0  0  0
 37 33  1  0  0  0  0
 38 37  1  0  0  0  0
M  END
>  <minimizedAffinity>
-5.09296608

$$$$

 OpenBabel03252503393D

 38 41  0  0  1  0  0  0  0  0999 V2000
   37.2640   29.8930   39.6470 C   0  0  1  0  0  0  0  0  0  0  0  0
   36.3140   29.8000   38.3760 C   0  0  0  0  0  0  0  0  0  0  0  0
   35.2680   28.7560   38.6430 C   0  0  0  0  0  0  0  0  0  0  0  0
   35.8450   27.3570   38.6800 C   0  0  0  0  0  0  0  0  0  0  0  0
   37.2780   27.4360   39.1620 C   0  0  0  0  0  0  0  0  0  0  0  0
   37.4510   28.5300   40.1790 C   0  0  2  0  0  0  0  0  0  0  0  0
   36.6550   30.5870   40.2590 H   0  0  0  0  0  0  0  0  0  0  0  0
   35.8340   30.7640   38.2210 H   0  0  0  0  0  0  0  0  0  0  0  0
   36.9360   29.4540   37.5300 H   0  0  0  0  0  0  0  0  0  0  0  0
   34.8030   29.0150   39.6300 H   0  0  0  0  0  0  0  0  0  0  0  0
   34.4760   28.8890   37.8940 H   0  0  0  0  0  0  0  0  0  0  0  0
   35.8300   26.9450   37.6490 H   0  0  0  0  0  0  0  0  0  0  0  0
   35.2330   26.6860   39.3240 H   0  0  0  0  0  0  0  0  0  0  0  0
   37.8670   27.7570   38.2720 H   0  0  0  0  0  0  0  0  0  0  0  0
   37.6880   26.4840   39.4850 H   0  0  0  0  0  0  0  0  0  0  0  0
   38.5340   28.4580   40.4940 H   0  0  0  0  0  0  0  0  0  0  0  0
   38.5150   30.5440   39.1400 C   0  0  0  0  0  0  0  0  0  0  0  0
   39.0340   31.7660   39.4860 C   0  0  0  0  0  0  0  0  0  0  0  0
   40.2510   32.0950   38.8850 C   0  0  0  0  0  0  0  0  0  0  0  0
   40.8500   31.2210   38.0150 N   0  0  0  0  0  0  0  0  0  0  0  0
   40.2910   30.0390   37.7200 C   0  0  0  0  0  0  0  0  0  0  0  0
   39.1100   29.7180   38.3000 N   0  0  0  0  0  0  0  0  0  0  0  0
   40.6750   33.0600   39.1480 H   0  0  0  0  0  0  0  0  0  0  0  0
   40.8630   29.4380   37.0210 H   0  0  0  0  0  0  0  0  0  0  0  0
   38.3520   32.7710   40.3580 C   0  0  0  0  0  0  0  0  0  0  0  0
   38.8800   34.1590   40.2250 C   0  0  0  0  0  0  0  0  0  0  0  0
   37.5030   33.8280   39.6890 C   0  0  0  0  0  0  0  0  0  0  0  0
   38.4140   32.5190   41.4220 H   0  0  0  0  0  0  0  0  0  0  0  0
   38.8430   34.8040   41.1100 H   0  0  0  0  0  0  0  0  0  0  0  0
   39.7230   34.3550   39.5430 H   0  0  0  0  0  0  0  0  0  0  0  0
   37.4900   33.8530   38.5740 H   0  0  0  0  0  0  0  0  0  0  0  0
   36.6150   34.2210   40.2260 H   0  0  0  0  0  0  0  0  0  0  0  0
   36.7080   28.3130   41.4000 N   0  0  2  0  0  0  0  0  0  0  0  0
   37.0070   29.4720   42.2540 C   0  0  0  0  0  2  0  0  0  0  0  0
   38.0050   28.9490   43.2980 C   0  0  0  0  0  2  0  0  0  0  0  0
   37.4470   27.5750   43.5420 C   0  0  0  0  0  2  0  0  0  0  0  0
   37.1160   27.1480   42.1090 C   0  0  0  0  0  3  0  0  0  0  0  0
   36.2660   26.4180   42.2210 H   0  0  0  0  0  0  0  0  0  0  0  0
  1  6  1  0  0  0  0
  1  7  1  1  0  0  0
  2  3  1  0  0  0  0
  2  1  1  0  0  0  0
  3  4  1  0  0  0  0
  3 10  1  0  0  0  0
  4  5  1  0  0  0  0
  4 13  1  0  0  0  0
  5 15  1  0  0  0  0
  5  6  1  0  0  0  0
  6 16  1  1  0  0  0
  6 33  1  0  0  0  0
  8  2  1  0  0  0  0
  9  2  1  0  0  0  0
 11  3  1  0  0  0  0
 12  4  1  0  0  0  0
 14  5  1  0  0  0  0
 17 18  1  0  0  0  0
 17  1  1  0  0  0  0
 18 25  1  0  0  0  0
 19 23  1  0  0  0  0
 19 18  2  0  0  0  0
 20 19  1  0  0  0  0
 21 20  2  0  0  0  0
 21 22  1  0  0  0  0
 22 17  2  0  0  0  0
 24 21  1  0  0  0  0
 25 28  1  0  0  0  0
 26 25  1  0  0  0  0
 26 29  1  0  0  0  0
 27 26  1  0  0  0  0
 27 32  1  0  0  0  0
 27 25  1  0  0  0  0
 30 26  1  0  0  0  0
 31 27  1  0  0  0  0
 33 37  1  0  0  0  0
 33 34  1  1  0  0  0
 34 35  1  0  0  0  0
 35 36  1  0  0  0  0
 37 38  1  0  0  0  0
 37 36  1  0  0  0  0
M  END
>  <minimizedAffinity>
-5.02267504

$$$$

 OpenBabel03252503393D

 38 41  0  0  1  0  0  0  0  0999 V2000
   38.7370   29.6420   40.2620 C   0  0  1  0  0  0  0  0  0  0  0  0
   37.7920   28.5640   39.5760 C   0  0  0  0  0  0  0  0  0  0  0  0
   36.8210   29.2850   38.6850 C   0  0  0  0  0  0  0  0  0  0  0  0
   35.8140   30.1000   39.4670 C   0  0  0  0  0  0  0  0  0  0  0  0
   36.4560   30.5510   40.7620 C   0  0  0  0  0  0  0  0  0  0  0  0
   37.9220   30.8320   40.5740 C   0  0  2  0  0  0  0  0  0  0  0  0
   39.4830   29.7490   39.4500 H   0  0  0  0  0  0  0  0  0  0  0  0
   38.4000   27.8880   38.9790 H   0  0  0  0  0  0  0  0  0  0  0  0
   37.2180   28.0740   40.3840 H   0  0  0  0  0  0  0  0  0  0  0  0
   37.4320   29.9480   38.0190 H   0  0  0  0  0  0  0  0  0  0  0  0
   36.3660   28.5340   38.0240 H   0  0  0  0  0  0  0  0  0  0  0  0
   34.9430   29.4510   39.7000 H   0  0  0  0  0  0  0  0  0  0  0  0
   35.4450   30.9640   38.8710 H   0  0  0  0  0  0  0  0  0  0  0  0
   36.4050   29.6650   41.4360 H   0  0  0  0  0  0  0  0  0  0  0  0
   35.9280   31.3570   41.2600 H   0  0  0  0  0  0  0  0  0  0  0  0
   38.2730   31.2020   41.5820 H   0  0  0  0  0  0  0  0  0  0  0  0
   39.3060   28.9430   41.4580 C   0  0  0  0  0  0  0  0  0  0  0  0
   38.6800   28.0570   42.2990 C   0  0  0  0  0  0  0  0  0  0  0  0
   39.4800   27.5190   43.3100 C   0  0  0  0  0  0  0  0  0  0  0  0
   40.7980   27.8810   43.4140 N   0  0  0  0  0  0  0  0  0  0  0  0
   41.3510   28.7510   42.5580 C   0  0  0  0  0  0  0  0  0  0  0  0
   40.5780   29.2750   41.5760 N   0  0  0  0  0  0  0  0  0  0  0  0
   38.9980   26.8170   43.9860 H   0  0  0  0  0  0  0  0  0  0  0  0
   42.4000   28.9530   42.7440 H   0  0  0  0  0  0  0  0  0  0  0  0
   37.2240   27.7230   42.2610 C   0  0  0  0  0  0  0  0  0  0  0  0
   36.9120   26.2960   42.5610 C   0  0  0  0  0  0  0  0  0  0  0  0
   36.5440   27.3690   43.5640 C   0  0  0  0  0  0  0  0  0  0  0  0
   36.7660   27.9390   41.2890 H   0  0  0  0  0  0  0  0  0  0  0  0
   36.0340   25.8530   42.0760 H   0  0  0  0  0  0  0  0  0  0  0  0
   37.7370   25.5910   42.7600 H   0  0  0  0  0  0  0  0  0  0  0  0
   37.1800   27.2990   44.4780 H   0  0  0  0  0  0  0  0  0  0  0  0
   35.4720   27.6270   43.6970 H   0  0  0  0  0  0  0  0  0  0  0  0
   38.1940   31.9310   39.6760 N   0  0  2  0  0  0  0  0  0  0  0  0
   39.6590   32.0220   39.5950 C   0  0  0  0  0  2  0  0  0  0  0  0
   40.0320   33.2300   40.4660 C   0  0  0  0  0  2  0  0  0  0  0  0
   38.8970   34.1610   40.1380 C   0  0  0  0  0  2  0  0  0  0  0  0
   37.7180   33.1830   40.1570 C   0  0  0  0  0  3  0  0  0  0  0  0
   36.9660   33.6350   39.4500 H   0  0  0  0  0  0  0  0  0  0  0  0
  1  7  1  6  0  0  0
  1  6  1  0  0  0  0
  1 17  1  0  0  0  0
  2  1  1  0  0  0  0
  2  9  1  0  0  0  0
  3  4  1  0  0  0  0
  3  2  1  0  0  0  0
  4 12  1  0  0  0  0
  4  5  1  0  0  0  0
  5 15  1  0  0  0  0
  5 14  1  0  0  0  0
  6  5  1  0  0  0  0
  6 16  1  1  0  0  0
  8  2  1  0  0  0  0
 10  3  1  0  0  0  0
 11  3  1  0  0  0  0
 13  4  1  0  0  0  0
 17 22  2  0  0  0  0
 17 18  1  0  0  0  0
 18 19  2  0  0  0  0
 19 20  1  0  0  0  0
 19 23  1  0  0  0  0
 21 24  1  0  0  0  0
 21 20  2  0  0  0  0
 22 21  1  0  0  0  0
 25 18  1  0  0  0  0
 25 26  1  0  0  0  0
 25 27  1  0  0  0  0
 26 30  1  0  0  0  0
 26 27  1  0  0  0  0
 27 32  1  0  0  0  0
 27 31  1  0  0  0  0
 28 25  1  0  0  0  0
 29 26  1  0  0  0  0
 33 34  1  1  0  0  0
 33 37  1  0  0  0  0
 33  6  1  0  0  0  0
 34 35  1  0  0  0  0
 36 37  1  0  0  0  0
 36 35  1  0  0  0  0
 38 37  1  0  0  0  0
M  END
>  <minimizedAffinity>
-5.00726652

$$$$
