
 OpenBabel03252508533D

 40 43  0  0  1  0  0  0  0  0999 V2000
   43.3610   34.4870   40.7660 C   0  0  0  0  0  0  0  0  0  0  0  0
   43.3060   35.7270   40.4830 O   0  0  0  0  0  0  0  0  0  0  0  0
   42.0010   34.0930   40.4430 N   0  0  0  0  0  0  0  0  0  0  0  0
   41.6150   34.3100   39.0700 C   0  0  0  0  0  0  0  0  0  0  0  0
   40.8070   35.6250   39.0840 C   0  0  0  0  0  0  0  0  0  0  0  0
   40.0290   35.6320   40.4000 C   0  0  0  0  0  0  0  0  0  0  0  0
   39.6880   34.2230   40.8360 C   0  0  0  0  0  0  0  0  0  0  0  0
   40.9740   33.5160   41.2880 C   0  0  1  0  0  0  0  0  0  0  0  0
   42.4470   34.4870   38.3820 H   0  0  0  0  0  0  0  0  0  0  0  0
   40.9810   33.5010   38.6650 H   0  0  0  0  0  0  0  0  0  0  0  0
   40.1280   35.6550   38.2060 H   0  0  0  0  0  0  0  0  0  0  0  0
   41.4780   36.4930   39.0630 H   0  0  0  0  0  0  0  0  0  0  0  0
   40.6400   36.1630   41.1810 H   0  0  0  0  0  0  0  0  0  0  0  0
   39.1030   36.2340   40.3080 H   0  0  0  0  0  0  0  0  0  0  0  0
   39.3370   33.6940   39.9270 H   0  0  0  0  0  0  0  0  0  0  0  0
   38.9450   34.2860   41.6470 H   0  0  0  0  0  0  0  0  0  0  0  0
   41.1710   33.8480   42.3260 H   0  0  0  0  0  0  0  0  0  0  0  0
   40.8810   32.0920   41.1330 N   0  0  1  0  0  0  0  0  0  0  0  0
   41.7200   31.4760   42.1400 C   0  0  0  0  0  0  0  0  0  0  0  0
   41.1860   30.0500   42.2210 C   0  0  0  0  0  0  0  0  0  0  0  0
   39.7160   30.1650   41.9370 C   0  0  0  0  0  0  0  0  0  0  0  0
   39.5970   31.5430   41.3780 C   0  0  0  0  0  0  0  0  0  0  0  0
   38.8990   32.1990   41.9330 H   0  0  0  0  0  0  0  0  0  0  0  0
   44.4370   33.8050   41.2350 O   0  0  0  0  0  0  0  0  0  0  0  0
   45.7620   34.1170   41.0840 C   0  0  0  0  0  0  0  0  0  0  0  0
   46.4010   34.7360   42.1690 C   0  0  0  0  0  0  0  0  0  0  0  0
   47.7570   35.0530   42.0040 C   0  0  0  0  0  0  0  0  0  0  0  0
   48.3610   34.7430   40.8170 N   0  0  0  0  0  0  0  0  0  0  0  0
   47.7030   34.1560   39.8250 C   0  0  0  0  0  0  0  0  0  0  0  0
   46.4020   33.8400   39.9520 N   0  0  0  0  0  0  0  0  0  0  0  0
   48.2570   35.5320   42.8420 H   0  0  0  0  0  0  0  0  0  0  0  0
   48.2610   33.9450   38.9150 H   0  0  0  0  0  0  0  0  0  0  0  0
   45.6650   35.0210   43.3870 C   0  0  0  0  0  0  0  0  0  0  0  0
   45.0290   36.2460   43.6180 C   0  0  0  0  0  0  0  0  0  0  0  0
   44.4700   36.0850   44.8580 C   0  0  0  0  0  0  0  0  0  0  0  0
   44.7370   34.8670   45.3480 N   0  0  0  0  0  0  0  0  0  0  0  0
   45.4640   34.2360   44.4410 N   0  0  0  0  0  0  0  0  0  0  0  0
   44.9520   37.1390   43.0230 H   0  0  0  0  0  0  0  0  0  0  0  0
   43.8790   36.8590   45.3760 H   0  0  0  0  0  0  0  0  0  0  0  0
   44.4060   34.5360   46.2810 H   0  0  0  0  0  0  0  0  0  0  0  0
  1 24  1  0  0  0  0
  2  1  2  0  0  0  0
  3  1  1  0  0  0  0
  3  8  1  0  0  0  0
  4  5  1  0  0  0  0
  4  3  1  0  0  0  0
  5  6  1  0  0  0  0
  6  7  1  0  0  0  0
  6 13  1  0  0  0  0
  7  8  1  0  0  0  0
  7 16  1  0  0  0  0
  8 17  1  1  0  0  0
  9  4  1  0  0  0  0
 10  4  1  0  0  0  0
 11  5  1  0  0  0  0
 12  5  1  0  0  0  0
 14  6  1  0  0  0  0
 15  7  1  0  0  0  0
 18  8  1  0  0  0  0
 18 22  1  0  0  0  0
 18 19  1  1  0  0  0
 19 20  1  0  0  0  0
 21 20  1  0  0  0  0
 22 23  1  0  0  0  0
 22 21  1  0  0  0  0
 25 24  1  0  0  0  0
 25 26  1  0  0  0  0
 26 33  1  0  0  0  0
 27 26  2  0  0  0  0
 27 31  1  0  0  0  0
 28 27  1  0  0  0  0
 29 30  1  0  0  0  0
 29 28  2  0  0  0  0
 30 25  2  0  0  0  0
 32 29  1  0  0  0  0
 33 34  1  0  0  0  0
 33 37  2  0  0  0  0
 34 35  2  0  0  0  0
 35 36  1  0  0  0  0
 35 39  1  0  0  0  0
 36 40  1  0  0  0  0
 37 36  1  0  0  0  0
 38 34  1  0  0  0  0
M  END
>  <minimizedAffinity>
-6.65247059

>  <minimizedRMSD>
0.148730218

$$$$
