
 OpenBabel03252502503D

 31 33  0  0  0  0  0  0  0  0999 V2000
   44.6150   36.3240   44.0040 C   0  0  0  0  0  0  0  0  0  0  0  0
   44.7580   35.5130   45.1380 C   0  0  0  0  0  0  0  0  0  0  0  0
   45.4400   34.2940   44.9850 C   0  0  0  0  0  0  0  0  0  0  0  0
   45.9160   33.9730   43.7660 N   0  0  0  0  0  0  0  0  0  0  0  0
   45.7590   34.7840   42.6850 C   0  0  0  0  0  0  0  0  0  0  0  0
   45.1120   35.9530   42.8040 N   0  0  0  0  0  0  0  0  0  0  0  0
   44.0840   37.2660   44.1410 H   0  0  0  0  0  0  0  0  0  0  0  0
   44.3600   35.8130   46.0930 H   0  0  0  0  0  0  0  0  0  0  0  0
   48.5380   35.6800   42.1150 Cl  0  0  0  0  0  0  0  0  0  0  0  0
   47.5740   34.7170   41.0350 C   0  0  0  0  0  0  0  0  0  0  0  0
   46.3090   34.3580   41.3900 C   0  0  0  0  0  0  0  0  0  0  0  0
   45.4960   33.5800   40.5450 C   0  0  0  0  0  0  0  0  0  0  0  0
   46.0560   33.2040   39.3410 C   0  0  0  0  0  0  0  0  0  0  0  0
   47.3270   33.5660   38.9870 C   0  0  0  0  0  0  0  0  0  0  0  0
   48.0950   34.3180   39.8210 C   0  0  0  0  0  0  0  0  0  0  0  0
   44.4900   33.3210   40.8780 H   0  0  0  0  0  0  0  0  0  0  0  0
   45.4050   32.6080   38.7160 H   0  0  0  0  0  0  0  0  0  0  0  0
   47.7340   33.2550   38.0370 H   0  0  0  0  0  0  0  0  0  0  0  0
   49.0960   34.5850   39.5070 H   0  0  0  0  0  0  0  0  0  0  0  0
   45.5910   33.4340   46.1890 C   0  0  0  0  0  0  0  0  0  0  0  0
   44.5840   33.0840   46.4690 H   0  0  0  0  0  0  0  0  0  0  0  0
   45.8760   34.1480   47.0150 H   0  0  0  0  0  0  0  0  0  0  0  0
   46.6210   32.3650   46.0100 C   0  0  0  0  0  0  0  0  0  0  0  0
   46.2950   31.6510   45.2260 H   0  0  0  0  0  0  0  0  0  0  0  0
   47.5420   32.8560   45.5800 H   0  0  0  0  0  0  0  0  0  0  0  0
   46.9130   31.7440   47.2570 N   0  0  0  0  0  0  0  0  0  0  0  0
   46.2140   32.3460   48.3740 C   0  0  0  0  0  0  0  0  0  0  0  0
   45.5150   31.2310   49.1170 C   0  0  0  0  0  0  0  0  0  0  0  0
   45.3410   30.2300   47.9940 C   0  0  0  0  0  0  0  0  0  0  0  0
   46.7280   30.3390   47.3400 C   0  0  0  0  0  0  0  0  0  0  0  0
   46.7240   29.7870   46.4000 H   0  0  0  0  0  0  0  0  0  0  0  0
  1  7  1  0  0  0  0
  1  2  1  0  0  0  0
  2  8  1  0  0  0  0
  3  2  2  0  0  0  0
  3 20  1  0  0  0  0
  4  3  1  0  0  0  0
  5  6  1  0  0  0  0
  5  4  2  0  0  0  0
  6  1  2  0  0  0  0
 10 11  1  0  0  0  0
 10  9  1  0  0  0  0
 11  5  1  0  0  0  0
 12 16  1  0  0  0  0
 12 11  2  0  0  0  0
 13 12  1  0  0  0  0
 14 13  2  0  0  0  0
 14 15  1  0  0  0  0
 15 10  2  0  0  0  0
 17 13  1  0  0  0  0
 18 14  1  0  0  0  0
 19 15  1  0  0  0  0
 20 21  1  0  0  0  0
 20 22  1  0  0  0  0
 23 20  1  0  0  0  0
 23 26  1  0  0  0  0
 24 23  1  0  0  0  0
 25 23  1  0  0  0  0
 26 30  1  0  0  0  0
 26 27  1  0  0  0  0
 27 28  1  0  0  0  0
 29 28  1  0  0  0  0
 30 29  1  0  0  0  0
 31 30  1  0  0  0  0
M  END
>  <minimizedAffinity>
-5.71480656

>  <minimizedRMSD>
2.24583387

$$$$
