
 OpenBabel03252509103D

 38 41  0  0  1  0  0  0  0  0999 V2000
   41.6450   32.3740   40.4300 Cl  0  0  0  0  0  0  0  0  0  0  0  0
   39.9760   32.5740   39.9750 C   0  0  0  0  0  0  0  0  0  0  0  0
   39.3200   31.6140   39.2880 C   0  0  0  0  0  0  0  0  0  0  0  0
   37.9900   31.8730   38.9740 C   0  0  0  0  0  0  0  0  0  0  0  0
   37.3610   33.0390   39.3370 C   0  0  0  0  0  0  0  0  0  0  0  0
   38.0430   33.9880   40.0280 C   0  0  0  0  0  0  0  0  0  0  0  0
   39.3600   33.7460   40.3470 C   0  0  0  0  0  0  0  0  0  0  0  0
   36.3270   33.2350   39.0900 H   0  0  0  0  0  0  0  0  0  0  0  0
   37.5770   34.9240   40.3320 H   0  0  0  0  0  0  0  0  0  0  0  0
   39.9070   34.5100   40.9020 H   0  0  0  0  0  0  0  0  0  0  0  0
   36.4490   29.9150   38.8290 C   0  0  0  0  0  0  0  0  0  0  0  0
   37.2310   30.8680   38.2480 C   0  0  0  0  0  0  0  0  0  0  0  0
   37.3210   30.9000   36.8700 C   0  0  0  0  0  0  0  0  0  0  0  0
   36.6370   29.9900   36.1010 C   0  0  0  0  0  0  0  0  0  0  0  0
   35.8340   29.0120   36.6750 C   0  0  0  0  0  0  0  0  0  0  0  0
   35.7470   28.9840   38.0620 C   0  0  0  0  0  0  0  0  0  0  0  0
   37.9440   31.6550   36.3750 H   0  0  0  0  0  0  0  0  0  0  0  0
   36.7490   30.0670   35.0290 H   0  0  0  0  0  0  0  0  0  0  0  0
   35.3000   28.3050   36.0830 H   0  0  0  0  0  0  0  0  0  0  0  0
   35.1250   28.2290   38.5140 H   0  0  0  0  0  0  0  0  0  0  0  0
   36.2630   29.8280   40.5030 S   0  0  0  0  0  0  0  0  0  0  0  0
   35.8990   31.1540   41.1280 O   0  0  0  0  0  0  0  0  0  0  0  0
   34.9720   28.9730   40.6910 O   0  0  0  0  0  0  0  0  0  0  0  0
   35.9450   28.9740   43.1500 H   0  0  0  0  0  0  0  0  0  0  0  0
   36.9380   29.2770   43.0590 N   0  0  0  0  0  0  0  0  0  0  0  0
   37.8660   28.3230   43.6350 C   0  0  0  0  0  2  0  0  0  0  0  0
   37.4580   27.0840   42.8930 C   0  0  0  0  0  2  0  0  0  0  0  0
   36.8150   27.6040   41.6530 C   0  0  0  0  0  2  0  0  0  0  0  0
   37.2780   29.1050   41.6300 C   0  0  1  0  0  3  0  0  0  0  0  0
   40.7110   28.1080   39.3770 C   0  0  0  0  0  0  0  0  0  0  0  0
   40.0400   29.2800   39.7430 C   0  0  0  0  0  0  0  0  0  0  0  0
   40.0100   30.4000   38.9290 C   0  0  0  0  0  0  0  0  0  0  0  0
   40.6810   30.2750   37.7540 N   0  0  0  0  0  0  0  0  0  0  0  0
   41.3240   29.1510   37.4040 C   0  0  0  0  0  0  0  0  0  0  0  0
   41.3370   28.0820   38.2070 N   0  0  0  0  0  0  0  0  0  0  0  0
   40.6500   27.3000   40.1190 H   0  0  0  0  0  0  0  0  0  0  0  0
   39.5110   29.3620   40.6830 H   0  0  0  0  0  0  0  0  0  0  0  0
   41.8650   29.0220   36.4760 H   0  0  0  0  0  0  0  0  0  0  0  0
  2  7  1  0  0  0  0
  2  1  1  0  0  0  0
  3  2  2  0  0  0  0
  4  3  1  0  0  0  0
  4  5  2  0  0  0  0
  5  6  1  0  0  0  0
  6  9  1  0  0  0  0
  6  7  2  0  0  0  0
  7 10  1  0  0  0  0
  8  5  1  0  0  0  0
 11 21  1  0  0  0  0
 12 11  1  0  0  0  0
 12  4  1  0  0  0  0
 13 12  2  0  0  0  0
 14 15  2  0  0  0  0
 14 13  1  0  0  0  0
 15 16  1  0  0  0  0
 16 20  1  0  0  0  0
 16 11  2  0  0  0  0
 17 13  1  0  0  0  0
 18 14  1  0  0  0  0
 19 15  1  0  0  0  0
 21 23  2  0  0  0  0
 21 22  2  0  0  0  0
 25 24  1  0  0  0  0
 25 26  1  0  0  0  0
 27 26  1  0  0  0  0
 28 27  1  0  0  0  0
 29 21  1  6  0  0  0
 29 28  1  0  0  0  0
 29 25  1  0  0  0  0
 30 31  1  0  0  0  0
 30 36  1  0  0  0  0
 31 37  1  0  0  0  0
 32  3  1  0  0  0  0
 32 31  2  0  0  0  0
 33 32  1  0  0  0  0
 34 33  2  0  0  0  0
 34 35  1  0  0  0  0
 35 30  2  0  0  0  0
 38 34  1  0  0  0  0
M  END
>  <minimizedAffinity>
-6.598979

$$$$

 OpenBabel03252509103D

 38 41  0  0  1  0  0  0  0  0999 V2000
   39.5550   30.7320   42.7580 Cl  0  0  0  0  0  0  0  0  0  0  0  0
   38.2930   29.5460   42.5640 C   0  0  0  0  0  0  0  0  0  0  0  0
   37.6260   29.4210   41.3960 C   0  0  0  0  0  0  0  0  0  0  0  0
   36.6380   28.4440   41.3460 C   0  0  0  0  0  0  0  0  0  0  0  0
   36.3420   27.6410   42.4200 C   0  0  0  0  0  0  0  0  0  0  0  0
   37.0280   27.7860   43.5830 C   0  0  0  0  0  0  0  0  0  0  0  0
   38.0100   28.7480   43.6470 C   0  0  0  0  0  0  0  0  0  0  0  0
   35.5720   26.8830   42.3750 H   0  0  0  0  0  0  0  0  0  0  0  0
   36.8200   27.1660   44.4540 H   0  0  0  0  0  0  0  0  0  0  0  0
   38.5600   28.8630   44.5830 H   0  0  0  0  0  0  0  0  0  0  0  0
   36.1620   27.2910   39.1840 C   0  0  0  0  0  0  0  0  0  0  0  0
   35.8980   28.2560   40.1080 C   0  0  0  0  0  0  0  0  0  0  0  0
   34.8540   29.1300   39.8730 C   0  0  0  0  0  0  0  0  0  0  0  0
   34.0980   29.0270   38.7300 C   0  0  0  0  0  0  0  0  0  0  0  0
   34.3520   28.0470   37.7770 C   0  0  0  0  0  0  0  0  0  0  0  0
   35.4030   27.1720   38.0200 C   0  0  0  0  0  0  0  0  0  0  0  0
   34.6190   29.9180   40.5990 H   0  0  0  0  0  0  0  0  0  0  0  0
   33.2960   29.7390   38.6040 H   0  0  0  0  0  0  0  0  0  0  0  0
   33.7680   27.9630   36.8900 H   0  0  0  0  0  0  0  0  0  0  0  0
   35.6060   26.4100   37.2850 H   0  0  0  0  0  0  0  0  0  0  0  0
   37.4010   26.1680   39.4130 S   0  0  0  0  0  0  0  0  0  0  0  0
   37.0110   25.0350   40.3310 O   0  0  0  0  0  0  0  0  0  0  0  0
   37.5380   25.4770   38.0220 O   0  0  0  0  0  0  0  0  0  0  0  0
   39.1490   25.2440   41.3950 H   0  0  0  0  0  0  0  0  0  0  0  0
   39.4520   26.2150   41.1680 N   0  0  0  0  0  0  0  0  0  0  0  0
   40.8870   26.3220   40.9840 C   0  0  0  0  0  2  0  0  0  0  0  0
   41.0910   25.2770   39.9260 C   0  0  0  0  0  2  0  0  0  0  0  0
   39.7550   25.1630   39.2730 C   0  0  0  0  0  2  0  0  0  0  0  0
   39.0160   26.4550   39.7760 C   0  0  1  0  0  3  0  0  0  0  0  0
   39.2070   30.7700   38.2470 C   0  0  0  0  0  0  0  0  0  0  0  0
   38.8910   29.9270   39.3180 C   0  0  0  0  0  0  0  0  0  0  0  0
   37.9680   30.2790   40.2890 C   0  0  0  0  0  0  0  0  0  0  0  0
   37.3960   31.5010   40.1220 N   0  0  0  0  0  0  0  0  0  0  0  0
   37.7000   32.3080   39.0950 C   0  0  0  0  0  0  0  0  0  0  0  0
   38.5950   31.9450   38.1700 N   0  0  0  0  0  0  0  0  0  0  0  0
   39.9560   30.3610   37.5540 H   0  0  0  0  0  0  0  0  0  0  0  0
   39.3570   28.9580   39.4340 H   0  0  0  0  0  0  0  0  0  0  0  0
   37.2610   33.2840   38.9360 H   0  0  0  0  0  0  0  0  0  0  0  0
  2  1  1  0  0  0  0
  2  7  1  0  0  0  0
  3  2  2  0  0  0  0
  4  3  1  0  0  0  0
  4  5  2  0  0  0  0
  5  6  1  0  0  0  0
  6  7  2  0  0  0  0
  6  9  1  0  0  0  0
  7 10  1  0  0  0  0
  8  5  1  0  0  0  0
 11 21  1  0  0  0  0
 11 12  1  0  0  0  0
 12  4  1  0  0  0  0
 13 12  2  0  0  0  0
 13 17  1  0  0  0  0
 14 13  1  0  0  0  0
 15 16  1  0  0  0  0
 15 14  2  0  0  0  0
 16 11  2  0  0  0  0
 18 14  1  0  0  0  0
 19 15  1  0  0  0  0
 20 16  1  0  0  0  0
 21 22  2  0  0  0  0
 23 21  2  0  0  0  0
 25 24  1  0  0  0  0
 26 25  1  0  0  0  0
 27 26  1  0  0  0  0
 28 29  1  0  0  0  0
 28 27  1  0  0  0  0
 29 21  1  1  0  0  0
 29 25  1  0  0  0  0
 30 31  1  0  0  0  0
 31 37  1  0  0  0  0
 31 32  2  0  0  0  0
 32  3  1  0  0  0  0
 33 32  1  0  0  0  0
 34 33  2  0  0  0  0
 35 30  2  0  0  0  0
 35 34  1  0  0  0  0
 36 30  1  0  0  0  0
 38 34  1  0  0  0  0
M  END
>  <minimizedAffinity>
-6.01590014

$$$$

 OpenBabel03252509103D

 38 41  0  0  1  0  0  0  0  0999 V2000
   39.1430   25.5640   42.8250 Cl  0  0  0  0  0  0  0  0  0  0  0  0
   38.4160   27.1050   42.4620 C   0  0  0  0  0  0  0  0  0  0  0  0
   37.8250   27.3340   41.2700 C   0  0  0  0  0  0  0  0  0  0  0  0
   37.2750   28.5980   41.0820 C   0  0  0  0  0  0  0  0  0  0  0  0
   37.3230   29.5730   42.0470 C   0  0  0  0  0  0  0  0  0  0  0  0
   37.9230   29.3170   43.2380 C   0  0  0  0  0  0  0  0  0  0  0  0
   38.4710   28.0710   43.4400 C   0  0  0  0  0  0  0  0  0  0  0  0
   36.8950   30.5540   41.8940 H   0  0  0  0  0  0  0  0  0  0  0  0
   37.9790   30.0660   44.0270 H   0  0  0  0  0  0  0  0  0  0  0  0
   38.9530   27.8660   44.3980 H   0  0  0  0  0  0  0  0  0  0  0  0
   37.1410   29.6650   38.8290 C   0  0  0  0  0  0  0  0  0  0  0  0
   36.6130   28.8950   39.8210 C   0  0  0  0  0  0  0  0  0  0  0  0
   35.3600   28.3450   39.6370 C   0  0  0  0  0  0  0  0  0  0  0  0
   34.6600   28.5700   38.4760 C   0  0  0  0  0  0  0  0  0  0  0  0
   35.1830   29.3510   37.4520 C   0  0  0  0  0  0  0  0  0  0  0  0
   36.4440   29.9010   37.6440 C   0  0  0  0  0  0  0  0  0  0  0  0
   34.9090   27.7220   40.4190 H   0  0  0  0  0  0  0  0  0  0  0  0
   33.6850   28.1130   38.3910 H   0  0  0  0  0  0  0  0  0  0  0  0
   34.6450   29.5270   36.5500 H   0  0  0  0  0  0  0  0  0  0  0  0
   36.8560   30.5080   36.8540 H   0  0  0  0  0  0  0  0  0  0  0  0
   38.6790   30.3470   38.9660 S   0  0  0  0  0  0  0  0  0  0  0  0
   39.7300   29.3540   39.4000 O   0  0  0  0  0  0  0  0  0  0  0  0
   39.0730   30.6730   37.4940 O   0  0  0  0  0  0  0  0  0  0  0  0
   39.0360   32.9870   38.1070 H   0  0  0  0  0  0  0  0  0  0  0  0
   39.7100   32.8410   38.8890 N   0  0  0  0  0  0  0  0  0  0  0  0
   39.6950   33.9290   39.8470 C   0  0  0  0  0  2  0  0  0  0  0  0
   38.2350   33.9470   40.1960 C   0  0  0  0  0  2  0  0  0  0  0  0
   37.7720   32.5680   39.8680 C   0  0  0  0  0  2  0  0  0  0  0  0
   39.1220   31.7760   39.7300 C   0  0  1  0  0  3  0  0  0  0  0  0
   36.8010   24.2820   39.3020 C   0  0  0  0  0  0  0  0  0  0  0  0
   36.8240   25.2910   40.2720 C   0  0  0  0  0  0  0  0  0  0  0  0
   37.7890   26.2850   40.2820 C   0  0  0  0  0  0  0  0  0  0  0  0
   38.7080   26.2040   39.2840 N   0  0  0  0  0  0  0  0  0  0  0  0
   38.6850   25.2360   38.3550 C   0  0  0  0  0  0  0  0  0  0  0  0
   37.7420   24.2880   38.3660 N   0  0  0  0  0  0  0  0  0  0  0  0
   35.9790   23.5620   39.4170 H   0  0  0  0  0  0  0  0  0  0  0  0
   36.0840   25.3390   41.0590 H   0  0  0  0  0  0  0  0  0  0  0  0
   39.4020   25.1480   37.5500 H   0  0  0  0  0  0  0  0  0  0  0  0
  2  1  1  0  0  0  0
  2  7  1  0  0  0  0
  3  2  2  0  0  0  0
  4  3  1  0  0  0  0
  4  5  2  0  0  0  0
  5  6  1  0  0  0  0
  6  7  2  0  0  0  0
  6  9  1  0  0  0  0
  7 10  1  0  0  0  0
  8  5  1  0  0  0  0
 11 21  1  0  0  0  0
 11 12  1  0  0  0  0
 12  4  1  0  0  0  0
 13 12  2  0  0  0  0
 13 17  1  0  0  0  0
 14 13  1  0  0  0  0
 15 16  1  0  0  0  0
 15 14  2  0  0  0  0
 16 11  2  0  0  0  0
 18 14  1  0  0  0  0
 19 15  1  0  0  0  0
 20 16  1  0  0  0  0
 21 22  2  0  0  0  0
 23 21  2  0  0  0  0
 24 25  1  0  0  0  0
 25 29  1  0  0  0  0
 25 26  1  0  0  0  0
 26 27  1  0  0  0  0
 28 27  1  0  0  0  0
 29 21  1  6  0  0  0
 29 28  1  0  0  0  0
 30 36  1  0  0  0  0
 30 31  1  0  0  0  0
 31 32  2  0  0  0  0
 31 37  1  0  0  0  0
 32  3  1  0  0  0  0
 33 32  1  0  0  0  0
 34 35  1  0  0  0  0
 34 33  2  0  0  0  0
 35 30  2  0  0  0  0
 38 34  1  0  0  0  0
M  END
>  <minimizedAffinity>
-5.92822981

$$$$

 OpenBabel03252509103D

 38 41  0  0  1  0  0  0  0  0999 V2000
   37.2570   25.4340   37.1360 Cl  0  0  0  0  0  0  0  0  0  0  0  0
   37.2380   25.0780   38.8410 C   0  0  0  0  0  0  0  0  0  0  0  0
   38.2100   25.5340   39.6610 C   0  0  0  0  0  0  0  0  0  0  0  0
   38.1010   25.1920   41.0050 C   0  0  0  0  0  0  0  0  0  0  0  0
   37.0660   24.4320   41.4890 C   0  0  0  0  0  0  0  0  0  0  0  0
   36.1000   23.9870   40.6450 C   0  0  0  0  0  0  0  0  0  0  0  0
   36.1930   24.3170   39.3120 C   0  0  0  0  0  0  0  0  0  0  0  0
   36.9860   24.1700   42.5360 H   0  0  0  0  0  0  0  0  0  0  0  0
   35.2640   23.3820   40.9950 H   0  0  0  0  0  0  0  0  0  0  0  0
   35.4170   23.9580   38.6350 H   0  0  0  0  0  0  0  0  0  0  0  0
   39.0000   26.7930   42.6950 C   0  0  0  0  0  0  0  0  0  0  0  0
   39.1130   25.6690   41.9340 C   0  0  0  0  0  0  0  0  0  0  0  0
   40.2620   24.9100   42.0400 C   0  0  0  0  0  0  0  0  0  0  0  0
   41.2710   25.2830   42.8950 C   0  0  0  0  0  0  0  0  0  0  0  0
   41.1740   26.4250   43.6800 C   0  0  0  0  0  0  0  0  0  0  0  0
   40.0160   27.1840   43.5690 C   0  0  0  0  0  0  0  0  0  0  0  0
   40.3800   24.0010   41.4390 H   0  0  0  0  0  0  0  0  0  0  0  0
   42.1450   24.6480   42.9320 H   0  0  0  0  0  0  0  0  0  0  0  0
   41.9540   26.7170   44.3450 H   0  0  0  0  0  0  0  0  0  0  0  0
   39.9340   28.0710   44.1750 H   0  0  0  0  0  0  0  0  0  0  0  0
   37.6160   27.7570   42.6450 S   0  0  0  0  0  0  0  0  0  0  0  0
   36.4340   27.1310   43.3470 O   0  0  0  0  0  0  0  0  0  0  0  0
   37.9750   28.9720   43.5530 O   0  0  0  0  0  0  0  0  0  0  0  0
   35.3030   29.2870   42.2600 H   0  0  0  0  0  0  0  0  0  0  0  0
   35.4850   28.8000   41.3570 N   0  0  0  0  0  0  0  0  0  0  0  0
   35.3780   29.6880   40.2150 C   0  0  0  0  0  2  0  0  0  0  0  0
   36.3510   30.7550   40.6240 C   0  0  0  0  0  2  0  0  0  0  0  0
   37.2570   30.0630   41.5850 C   0  0  0  0  0  2  0  0  0  0  0  0
   36.9410   28.5460   41.3250 C   0  0  1  0  0  3  0  0  0  0  0  0
   40.2780   28.4770   38.5250 C   0  0  0  0  0  0  0  0  0  0  0  0
   39.2300   27.7160   39.0520 C   0  0  0  0  0  0  0  0  0  0  0  0
   39.2790   26.3330   39.1170 C   0  0  0  0  0  0  0  0  0  0  0  0
   40.4190   25.7750   38.6310 N   0  0  0  0  0  0  0  0  0  0  0  0
   41.4250   26.5070   38.1260 C   0  0  0  0  0  0  0  0  0  0  0  0
   41.3530   27.8410   38.0750 N   0  0  0  0  0  0  0  0  0  0  0  0
   40.1020   29.5620   38.5370 H   0  0  0  0  0  0  0  0  0  0  0  0
   38.3290   28.1770   39.4340 H   0  0  0  0  0  0  0  0  0  0  0  0
   42.3430   26.0910   37.7340 H   0  0  0  0  0  0  0  0  0  0  0  0
  1  2  1  0  0  0  0
  2  7  2  0  0  0  0
  2  3  1  0  0  0  0
  3  4  2  0  0  0  0
  4  5  1  0  0  0  0
  4 12  1  0  0  0  0
  5  8  1  0  0  0  0
  6  9  1  0  0  0  0
  6  5  2  0  0  0  0
  7  6  1  0  0  0  0
 10  7  1  0  0  0  0
 11 16  1  0  0  0  0
 12 13  1  0  0  0  0
 12 11  2  0  0  0  0
 13 14  2  0  0  0  0
 14 18  1  0  0  0  0
 14 15  1  0  0  0  0
 15 19  1  0  0  0  0
 16 15  2  0  0  0  0
 16 20  1  0  0  0  0
 17 13  1  0  0  0  0
 21 11  1  0  0  0  0
 21 22  2  0  0  0  0
 21 23  2  0  0  0  0
 25 24  1  0  0  0  0
 26 27  1  0  0  0  0
 26 25  1  0  0  0  0
 27 28  1  0  0  0  0
 29 25  1  0  0  0  0
 29 28  1  0  0  0  0
 29 21  1  1  0  0  0
 30 36  1  0  0  0  0
 30 31  1  0  0  0  0
 31 32  2  0  0  0  0
 31 37  1  0  0  0  0
 32  3  1  0  0  0  0
 33 32  1  0  0  0  0
 34 33  2  0  0  0  0
 35 34  1  0  0  0  0
 35 30  2  0  0  0  0
 38 34  1  0  0  0  0
M  END
>  <minimizedAffinity>
-5.72589922

$$$$

 OpenBabel03252509103D

 38 41  0  0  1  0  0  0  0  0999 V2000
   35.8640   26.9340   36.5080 Cl  0  0  0  0  0  0  0  0  0  0  0  0
   35.4760   27.8070   37.9640 C   0  0  0  0  0  0  0  0  0  0  0  0
   36.2870   27.7620   39.0430 C   0  0  0  0  0  0  0  0  0  0  0  0
   35.8840   28.4950   40.1540 C   0  0  0  0  0  0  0  0  0  0  0  0
   34.7260   29.2320   40.1700 C   0  0  0  0  0  0  0  0  0  0  0  0
   33.9280   29.2620   39.0720 C   0  0  0  0  0  0  0  0  0  0  0  0
   34.3130   28.5420   37.9640 C   0  0  0  0  0  0  0  0  0  0  0  0
   34.4180   29.8000   41.0380 H   0  0  0  0  0  0  0  0  0  0  0  0
   33.0030   29.8360   39.0490 H   0  0  0  0  0  0  0  0  0  0  0  0
   33.6710   28.5680   37.0820 H   0  0  0  0  0  0  0  0  0  0  0  0
   37.6280   29.4660   41.6540 C   0  0  0  0  0  0  0  0  0  0  0  0
   36.7270   28.4930   41.3390 C   0  0  0  0  0  0  0  0  0  0  0  0
   36.5880   27.4190   42.1960 C   0  0  0  0  0  0  0  0  0  0  0  0
   37.3420   27.3330   43.3410 C   0  0  0  0  0  0  0  0  0  0  0  0
   38.2640   28.3170   43.6800 C   0  0  0  0  0  0  0  0  0  0  0  0
   38.3990   29.3950   42.8140 C   0  0  0  0  0  0  0  0  0  0  0  0
   35.8720   26.6200   41.9670 H   0  0  0  0  0  0  0  0  0  0  0  0
   37.1870   26.4680   43.9700 H   0  0  0  0  0  0  0  0  0  0  0  0
   38.8500   28.2550   44.5670 H   0  0  0  0  0  0  0  0  0  0  0  0
   39.1120   30.1610   43.0700 H   0  0  0  0  0  0  0  0  0  0  0  0
   37.8350   30.8250   40.6740 S   0  0  0  0  0  0  0  0  0  0  0  0
   36.6140   31.7120   40.6270 O   0  0  0  0  0  0  0  0  0  0  0  0
   38.8790   31.6850   41.4480 O   0  0  0  0  0  0  0  0  0  0  0  0
   39.1540   32.8060   39.2010 H   0  0  0  0  0  0  0  0  0  0  0  0
   38.6100   32.2440   38.5120 N   0  0  0  0  0  0  0  0  0  0  0  0
   39.3920   31.8860   37.3440 C   0  0  0  0  0  2  0  0  0  0  0  0
   40.5580   31.2130   38.0080 C   0  0  0  0  0  2  0  0  0  0  0  0
   40.0150   30.7760   39.3260 C   0  0  0  0  0  2  0  0  0  0  0  0
   38.4630   30.9030   39.1180 C   0  0  1  0  0  3  0  0  0  0  0  0
   39.8860   26.7390   38.5620 C   0  0  0  0  0  0  0  0  0  0  0  0
   38.7190   27.5100   38.6050 C   0  0  0  0  0  0  0  0  0  0  0  0
   37.4980   26.9810   38.9880 C   0  0  0  0  0  0  0  0  0  0  0  0
   37.5190   25.6630   39.3160 N   0  0  0  0  0  0  0  0  0  0  0  0
   38.6390   24.9240   39.2740 C   0  0  0  0  0  0  0  0  0  0  0  0
   39.8060   25.4580   38.9010 N   0  0  0  0  0  0  0  0  0  0  0  0
   40.7810   27.2890   38.2390 H   0  0  0  0  0  0  0  0  0  0  0  0
   38.7210   28.5580   38.3390 H   0  0  0  0  0  0  0  0  0  0  0  0
   38.6860   23.8750   39.5300 H   0  0  0  0  0  0  0  0  0  0  0  0
  1  2  1  0  0  0  0
  2  7  2  0  0  0  0
  2  3  1  0  0  0  0
  3  4  2  0  0  0  0
  4  5  1  0  0  0  0
  4 12  1  0  0  0  0
  5  8  1  0  0  0  0
  6  5  2  0  0  0  0
  7  6  1  0  0  0  0
  9  6  1  0  0  0  0
 10  7  1  0  0  0  0
 11 16  1  0  0  0  0
 12 11  2  0  0  0  0
 12 13  1  0  0  0  0
 13 14  2  0  0  0  0
 14 15  1  0  0  0  0
 14 18  1  0  0  0  0
 15 19  1  0  0  0  0
 16 20  1  0  0  0  0
 16 15  2  0  0  0  0
 17 13  1  0  0  0  0
 21 23  2  0  0  0  0
 21 11  1  0  0  0  0
 22 21  2  0  0  0  0
 25 29  1  0  0  0  0
 25 24  1  0  0  0  0
 26 27  1  0  0  0  0
 26 25  1  0  0  0  0
 27 28  1  0  0  0  0
 29 28  1  0  0  0  0
 29 21  1  1  0  0  0
 30 31  2  0  0  0  0
 30 35  1  0  0  0  0
 31 32  1  0  0  0  0
 32  3  1  0  0  0  0
 32 33  2  0  0  0  0
 34 33  1  0  0  0  0
 34 38  1  0  0  0  0
 35 34  2  0  0  0  0
 36 30  1  0  0  0  0
 37 31  1  0  0  0  0
M  END
>  <minimizedAffinity>
-5.72473145

$$$$

 OpenBabel03252509103D

 38 41  0  0  1  0  0  0  0  0999 V2000
   40.9610   32.9180   40.0250 Cl  0  0  0  0  0  0  0  0  0  0  0  0
   39.3640   32.2570   40.2380 C   0  0  0  0  0  0  0  0  0  0  0  0
   39.1790   31.0470   40.8090 C   0  0  0  0  0  0  0  0  0  0  0  0
   37.8640   30.6120   40.9320 C   0  0  0  0  0  0  0  0  0  0  0  0
   36.7970   31.3610   40.5000 C   0  0  0  0  0  0  0  0  0  0  0  0
   37.0090   32.5750   39.9300 C   0  0  0  0  0  0  0  0  0  0  0  0
   38.3050   33.0200   39.8020 C   0  0  0  0  0  0  0  0  0  0  0  0
   35.7770   31.0170   40.5970 H   0  0  0  0  0  0  0  0  0  0  0  0
   36.1880   33.1970   39.5760 H   0  0  0  0  0  0  0  0  0  0  0  0
   38.4750   33.9960   39.3430 H   0  0  0  0  0  0  0  0  0  0  0  0
   37.3510   28.1700   40.8720 C   0  0  0  0  0  0  0  0  0  0  0  0
   37.6060   29.3230   41.5530 C   0  0  0  0  0  0  0  0  0  0  0  0
   37.6260   29.2860   42.9330 C   0  0  0  0  0  0  0  0  0  0  0  0
   37.3950   28.1110   43.6060 C   0  0  0  0  0  0  0  0  0  0  0  0
   37.1360   26.9250   42.9300 C   0  0  0  0  0  0  0  0  0  0  0  0
   37.1160   26.9680   41.5410 C   0  0  0  0  0  0  0  0  0  0  0  0
   37.8270   30.1990   43.5070 H   0  0  0  0  0  0  0  0  0  0  0  0
   37.4240   28.1470   44.6860 H   0  0  0  0  0  0  0  0  0  0  0  0
   36.9570   26.0110   43.4470 H   0  0  0  0  0  0  0  0  0  0  0  0
   36.9160   26.0530   41.0100 H   0  0  0  0  0  0  0  0  0  0  0  0
   37.3390   28.1270   39.1860 S   0  0  0  0  0  0  0  0  0  0  0  0
   38.6890   28.4170   38.5750 O   0  0  0  0  0  0  0  0  0  0  0  0
   37.1060   26.6210   38.8540 O   0  0  0  0  0  0  0  0  0  0  0  0
   35.5280   27.1520   37.2860 H   0  0  0  0  0  0  0  0  0  0  0  0
   35.8520   28.0780   36.9320 N   0  0  0  0  0  0  0  0  0  0  0  0
   34.7580   28.9110   36.4720 C   0  0  0  0  0  2  0  0  0  0  0  0
   33.8960   28.9110   37.7000 C   0  0  0  0  0  2  0  0  0  0  0  0
   34.8490   28.6030   38.8050 C   0  0  0  0  0  2  0  0  0  0  0  0
   36.2470   28.8480   38.1310 C   0  0  1  0  0  3  0  0  0  0  0  0
   41.9930   29.7010   42.9300 C   0  0  0  0  0  0  0  0  0  0  0  0
   40.8860   30.4470   42.5110 C   0  0  0  0  0  0  0  0  0  0  0  0
   40.3220   30.2910   41.2550 C   0  0  0  0  0  0  0  0  0  0  0  0
   40.9250   29.3650   40.4650 N   0  0  0  0  0  0  0  0  0  0  0  0
   41.9870   28.6500   40.8680 C   0  0  0  0  0  0  0  0  0  0  0  0
   42.5130   28.8180   42.0860 N   0  0  0  0  0  0  0  0  0  0  0  0
   42.3340   29.9290   43.9500 H   0  0  0  0  0  0  0  0  0  0  0  0
   40.4200   31.1800   43.1540 H   0  0  0  0  0  0  0  0  0  0  0  0
   42.4860   27.9060   40.2620 H   0  0  0  0  0  0  0  0  0  0  0  0
  1  2  1  0  0  0  0
  2  3  1  0  0  0  0
  3  4  2  0  0  0  0
  3 32  1  0  0  0  0
  4 12  1  0  0  0  0
  5  8  1  0  0  0  0
  5  4  1  0  0  0  0
  6  5  2  0  0  0  0
  7  6  1  0  0  0  0
  7  2  2  0  0  0  0
  9  6  1  0  0  0  0
 10  7  1  0  0  0  0
 11 16  2  0  0  0  0
 11 12  1  0  0  0  0
 12 13  2  0  0  0  0
 13 17  1  0  0  0  0
 13 14  1  0  0  0  0
 14 18  1  0  0  0  0
 15 19  1  0  0  0  0
 15 14  2  0  0  0  0
 16 15  1  0  0  0  0
 20 16  1  0  0  0  0
 21 11  1  0  0  0  0
 22 21  2  0  0  0  0
 23 21  2  0  0  0  0
 25 24  1  0  0  0  0
 25 29  1  0  0  0  0
 26 25  1  0  0  0  0
 26 27  1  0  0  0  0
 27 28  1  0  0  0  0
 29 28  1  0  0  0  0
 29 21  1  1  0  0  0
 30 36  1  0  0  0  0
 31 30  1  0  0  0  0
 31 37  1  0  0  0  0
 32 31  2  0  0  0  0
 33 34  2  0  0  0  0
 33 32  1  0  0  0  0
 34 35  1  0  0  0  0
 35 30  2  0  0  0  0
 38 34  1  0  0  0  0
M  END
>  <minimizedAffinity>
-5.69748354

$$$$

 OpenBabel03252509103D

 38 41  0  0  1  0  0  0  0  0999 V2000
   41.7430   31.4470   38.6560 Cl  0  0  0  0  0  0  0  0  0  0  0  0
   40.7200   30.0370   38.6310 C   0  0  0  0  0  0  0  0  0  0  0  0
   39.4110   30.1190   38.9510 C   0  0  0  0  0  0  0  0  0  0  0  0
   38.6830   28.9340   38.9000 C   0  0  0  0  0  0  0  0  0  0  0  0
   39.2520   27.7360   38.5440 C   0  0  0  0  0  0  0  0  0  0  0  0
   40.5700   27.6810   38.2250 C   0  0  0  0  0  0  0  0  0  0  0  0
   41.3040   28.8450   38.2710 C   0  0  0  0  0  0  0  0  0  0  0  0
   38.6810   26.8190   38.5060 H   0  0  0  0  0  0  0  0  0  0  0  0
   41.0540   26.7480   37.9380 H   0  0  0  0  0  0  0  0  0  0  0  0
   42.3640   28.7990   38.0140 H   0  0  0  0  0  0  0  0  0  0  0  0
   36.7490   28.8150   40.4720 C   0  0  0  0  0  0  0  0  0  0  0  0
   37.2660   28.9670   39.2210 C   0  0  0  0  0  0  0  0  0  0  0  0
   36.3970   29.1690   38.1660 C   0  0  0  0  0  0  0  0  0  0  0  0
   35.0400   29.2160   38.3760 C   0  0  0  0  0  0  0  0  0  0  0  0
   34.4940   29.0650   39.6450 C   0  0  0  0  0  0  0  0  0  0  0  0
   35.3740   28.8620   40.7020 C   0  0  0  0  0  0  0  0  0  0  0  0
   36.7840   29.2930   37.1480 H   0  0  0  0  0  0  0  0  0  0  0  0
   34.4130   29.3770   37.5100 H   0  0  0  0  0  0  0  0  0  0  0  0
   33.4430   29.1030   39.8120 H   0  0  0  0  0  0  0  0  0  0  0  0
   34.9580   28.7450   41.6890 H   0  0  0  0  0  0  0  0  0  0  0  0
   37.7450   28.5940   41.8160 S   0  0  0  0  0  0  0  0  0  0  0  0
   38.1950   29.8940   42.4400 O   0  0  0  0  0  0  0  0  0  0  0  0
   36.7920   27.9880   42.8900 O   0  0  0  0  0  0  0  0  0  0  0  0
   40.3350   28.9140   42.8320 H   0  0  0  0  0  0  0  0  0  0  0  0
   40.4070   28.2140   42.0630 N   0  0  0  0  0  0  0  0  0  0  0  0
   41.1920   27.0540   42.4390 C   0  0  0  0  0  2  0  0  0  0  0  0
   40.4590   26.6350   43.6800 C   0  0  0  0  0  2  0  0  0  0  0  0
   39.0960   27.2130   43.5020 C   0  0  0  0  0  2  0  0  0  0  0  0
   39.0750   27.5790   41.9740 C   0  0  1  0  0  3  0  0  0  0  0  0
   37.3200   33.2590   38.9440 C   0  0  0  0  0  0  0  0  0  0  0  0
   37.8600   32.0220   38.5740 C   0  0  0  0  0  0  0  0  0  0  0  0
   38.8480   31.3950   39.3150 C   0  0  0  0  0  0  0  0  0  0  0  0
   39.2520   32.0700   40.4230 N   0  0  0  0  0  0  0  0  0  0  0  0
   38.7340   33.2570   40.7770 C   0  0  0  0  0  0  0  0  0  0  0  0
   37.7800   33.8420   40.0450 N   0  0  0  0  0  0  0  0  0  0  0  0
   36.5450   33.6380   38.2640 H   0  0  0  0  0  0  0  0  0  0  0  0
   37.5260   31.5000   37.6880 H   0  0  0  0  0  0  0  0  0  0  0  0
   39.0350   33.8160   41.6520 H   0  0  0  0  0  0  0  0  0  0  0  0
  2  1  1  0  0  0  0
  2  3  1  0  0  0  0
  3 32  1  0  0  0  0
  4  3  2  0  0  0  0
  4 12  1  0  0  0  0
  5  4  1  0  0  0  0
  6  7  1  0  0  0  0
  6  5  2  0  0  0  0
  7  2  2  0  0  0  0
  8  5  1  0  0  0  0
  9  6  1  0  0  0  0
 10  7  1  0  0  0  0
 11 16  1  0  0  0  0
 11 21  1  0  0  0  0
 12 11  2  0  0  0  0
 13 14  2  0  0  0  0
 13 12  1  0  0  0  0
 14 15  1  0  0  0  0
 15 19  1  0  0  0  0
 15 16  2  0  0  0  0
 16 20  1  0  0  0  0
 17 13  1  0  0  0  0
 18 14  1  0  0  0  0
 21 22  2  0  0  0  0
 21 23  2  0  0  0  0
 25 26  1  0  0  0  0
 25 24  1  0  0  0  0
 26 27  1  0  0  0  0
 28 27  1  0  0  0  0
 29 21  1  1  0  0  0
 29 25  1  0  0  0  0
 29 28  1  0  0  0  0
 30 35  1  0  0  0  0
 31 30  2  0  0  0  0
 31 32  1  0  0  0  0
 32 33  2  0  0  0  0
 33 34  1  0  0  0  0
 34 38  1  0  0  0  0
 35 34  2  0  0  0  0
 36 30  1  0  0  0  0
 37 31  1  0  0  0  0
M  END
>  <minimizedAffinity>
-5.61557484

$$$$

 OpenBabel03252509103D

 38 41  0  0  1  0  0  0  0  0999 V2000
   36.3070   27.8500   36.5510 Cl  0  0  0  0  0  0  0  0  0  0  0  0
   36.0790   28.2350   38.2340 C   0  0  0  0  0  0  0  0  0  0  0  0
   36.9820   27.8590   39.1650 C   0  0  0  0  0  0  0  0  0  0  0  0
   36.7050   28.2170   40.4800 C   0  0  0  0  0  0  0  0  0  0  0  0
   35.5760   28.9160   40.8300 C   0  0  0  0  0  0  0  0  0  0  0  0
   34.6840   29.2840   39.8750 C   0  0  0  0  0  0  0  0  0  0  0  0
   34.9440   28.9380   38.5690 C   0  0  0  0  0  0  0  0  0  0  0  0
   35.3660   29.1910   41.8550 H   0  0  0  0  0  0  0  0  0  0  0  0
   33.7790   29.8390   40.1170 H   0  0  0  0  0  0  0  0  0  0  0  0
   34.2260   29.2340   37.8020 H   0  0  0  0  0  0  0  0  0  0  0  0
   38.6520   28.6510   41.9790 C   0  0  0  0  0  0  0  0  0  0  0  0
   37.6500   27.8490   41.5220 C   0  0  0  0  0  0  0  0  0  0  0  0
   37.5030   26.5920   42.0760 C   0  0  0  0  0  0  0  0  0  0  0  0
   38.3500   26.1600   43.0680 C   0  0  0  0  0  0  0  0  0  0  0  0
   39.3770   26.9640   43.5480 C   0  0  0  0  0  0  0  0  0  0  0  0
   39.5200   28.2280   42.9870 C   0  0  0  0  0  0  0  0  0  0  0  0
   36.7060   25.9250   41.7260 H   0  0  0  0  0  0  0  0  0  0  0  0
   38.1830   25.1670   43.4600 H   0  0  0  0  0  0  0  0  0  0  0  0
   40.0350   26.6340   44.3180 H   0  0  0  0  0  0  0  0  0  0  0  0
   40.3130   28.8560   43.3540 H   0  0  0  0  0  0  0  0  0  0  0  0
   38.8790   30.2100   41.3750 S   0  0  0  0  0  0  0  0  0  0  0  0
   39.5450   31.1370   42.3630 O   0  0  0  0  0  0  0  0  0  0  0  0
   39.9590   30.0260   40.2660 O   0  0  0  0  0  0  0  0  0  0  0  0
   38.9550   32.8230   40.3730 H   0  0  0  0  0  0  0  0  0  0  0  0
   37.9690   32.6510   40.6640 N   0  0  0  0  0  0  0  0  0  0  0  0
   37.0110   33.0770   39.6630 C   0  0  0  0  0  2  0  0  0  0  0  0
   37.5170   32.3110   38.4760 C   0  0  0  0  0  2  0  0  0  0  0  0
   38.2670   31.1720   39.0790 C   0  0  0  0  0  2  0  0  0  0  0  0
   37.7750   31.1880   40.5700 C   0  0  1  0  0  3  0  0  0  0  0  0
   39.3660   25.0550   38.3390 C   0  0  0  0  0  0  0  0  0  0  0  0
   38.2190   25.7460   38.7400 C   0  0  0  0  0  0  0  0  0  0  0  0
   38.1570   27.1300   38.7590 C   0  0  0  0  0  0  0  0  0  0  0  0
   39.2930   27.7610   38.3610 N   0  0  0  0  0  0  0  0  0  0  0  0
   40.3940   27.0970   37.9760 C   0  0  0  0  0  0  0  0  0  0  0  0
   40.4270   25.7600   37.9660 N   0  0  0  0  0  0  0  0  0  0  0  0
   39.2720   23.9600   38.3740 H   0  0  0  0  0  0  0  0  0  0  0  0
   37.3240   25.2270   39.0550 H   0  0  0  0  0  0  0  0  0  0  0  0
   41.3100   27.5710   37.6540 H   0  0  0  0  0  0  0  0  0  0  0  0
  1  2  1  0  0  0  0
  2  7  2  0  0  0  0
  2  3  1  0  0  0  0
  3  4  2  0  0  0  0
  4  5  1  0  0  0  0
  4 12  1  0  0  0  0
  5  8  1  0  0  0  0
  6  9  1  0  0  0  0
  6  5  2  0  0  0  0
  7  6  1  0  0  0  0
 10  7  1  0  0  0  0
 11 16  1  0  0  0  0
 12 11  2  0  0  0  0
 12 13  1  0  0  0  0
 13 14  2  0  0  0  0
 14 18  1  0  0  0  0
 14 15  1  0  0  0  0
 15 19  1  0  0  0  0
 16 20  1  0  0  0  0
 16 15  2  0  0  0  0
 17 13  1  0  0  0  0
 21 11  1  0  0  0  0
 21 22  2  0  0  0  0
 23 21  2  0  0  0  0
 24 25  1  0  0  0  0
 26 25  1  0  0  0  0
 27 28  1  0  0  0  0
 27 26  1  0  0  0  0
 28 29  1  0  0  0  0
 29 25  1  0  0  0  0
 29 21  1  1  0  0  0
 30 36  1  0  0  0  0
 30 31  1  0  0  0  0
 31 32  2  0  0  0  0
 31 37  1  0  0  0  0
 32  3  1  0  0  0  0
 33 32  1  0  0  0  0
 34 33  2  0  0  0  0
 35 34  1  0  0  0  0
 35 30  2  0  0  0  0
 38 34  1  0  0  0  0
M  END
>  <minimizedAffinity>
-5.59928894

$$$$

 OpenBabel03252509103D

 38 41  0  0  1  0  0  0  0  0999 V2000
   37.9540   24.7090   41.1020 Cl  0  0  0  0  0  0  0  0  0  0  0  0
   37.7780   26.2440   41.9060 C   0  0  0  0  0  0  0  0  0  0  0  0
   38.5480   27.3010   41.5680 C   0  0  0  0  0  0  0  0  0  0  0  0
   38.3270   28.4810   42.2720 C   0  0  0  0  0  0  0  0  0  0  0  0
   37.3800   28.5820   43.2600 C   0  0  0  0  0  0  0  0  0  0  0  0
   36.6170   27.5050   43.5800 C   0  0  0  0  0  0  0  0  0  0  0  0
   36.8230   26.3310   42.8920 C   0  0  0  0  0  0  0  0  0  0  0  0
   37.2130   29.5020   43.8040 H   0  0  0  0  0  0  0  0  0  0  0  0
   35.8560   27.5490   44.3580 H   0  0  0  0  0  0  0  0  0  0  0  0
   36.2100   25.4650   43.1500 H   0  0  0  0  0  0  0  0  0  0  0  0
   38.7080   30.6610   41.1180 C   0  0  0  0  0  0  0  0  0  0  0  0
   39.1180   29.6550   41.9400 C   0  0  0  0  0  0  0  0  0  0  0  0
   40.3730   29.7370   42.5120 C   0  0  0  0  0  0  0  0  0  0  0  0
   41.1900   30.8120   42.2570 C   0  0  0  0  0  0  0  0  0  0  0  0
   40.7890   31.8480   41.4230 C   0  0  0  0  0  0  0  0  0  0  0  0
   39.5260   31.7600   40.8510 C   0  0  0  0  0  0  0  0  0  0  0  0
   40.7300   28.9410   43.1760 H   0  0  0  0  0  0  0  0  0  0  0  0
   42.1600   30.8180   42.7340 H   0  0  0  0  0  0  0  0  0  0  0  0
   41.4180   32.6840   41.2230 H   0  0  0  0  0  0  0  0  0  0  0  0
   39.2080   32.5600   40.2030 H   0  0  0  0  0  0  0  0  0  0  0  0
   37.1790   30.6490   40.4060 S   0  0  0  0  0  0  0  0  0  0  0  0
   36.0770   31.0400   41.3610 O   0  0  0  0  0  0  0  0  0  0  0  0
   37.2270   31.8400   39.4010 O   0  0  0  0  0  0  0  0  0  0  0  0
   34.6480   30.2940   39.2620 H   0  0  0  0  0  0  0  0  0  0  0  0
   35.0120   29.3390   39.4670 N   0  0  0  0  0  0  0  0  0  0  0  0
   34.8360   28.4260   38.3540 C   0  0  0  0  0  2  0  0  0  0  0  0
   35.5230   29.2020   37.2690 C   0  0  0  0  0  2  0  0  0  0  0  0
   36.4560   30.1000   38.0080 C   0  0  0  0  0  2  0  0  0  0  0  0
   36.4860   29.4600   39.4420 C   0  0  1  0  0  3  0  0  0  0  0  0
   40.2320   27.3180   38.1930 C   0  0  0  0  0  0  0  0  0  0  0  0
   39.2660   27.4570   39.1950 C   0  0  0  0  0  0  0  0  0  0  0  0
   39.5290   27.1600   40.5220 C   0  0  0  0  0  0  0  0  0  0  0  0
   40.7910   26.7230   40.7740 N   0  0  0  0  0  0  0  0  0  0  0  0
   41.7170   26.5900   39.8110 C   0  0  0  0  0  0  0  0  0  0  0  0
   41.4380   26.8850   38.5370 N   0  0  0  0  0  0  0  0  0  0  0  0
   39.8840   27.5910   37.1860 H   0  0  0  0  0  0  0  0  0  0  0  0
   38.2660   27.8060   38.9760 H   0  0  0  0  0  0  0  0  0  0  0  0
   42.7280   26.2460   39.9820 H   0  0  0  0  0  0  0  0  0  0  0  0
  1  2  1  0  0  0  0
  2  7  1  0  0  0  0
  3  2  2  0  0  0  0
  3  4  1  0  0  0  0
  4  5  2  0  0  0  0
  5  6  1  0  0  0  0
  5  8  1  0  0  0  0
  6  9  1  0  0  0  0
  7 10  1  0  0  0  0
  7  6  2  0  0  0  0
 11 12  1  0  0  0  0
 12  4  1  0  0  0  0
 12 13  2  0  0  0  0
 13 17  1  0  0  0  0
 14 13  1  0  0  0  0
 14 18  1  0  0  0  0
 15 14  2  0  0  0  0
 16 11  2  0  0  0  0
 16 15  1  0  0  0  0
 19 15  1  0  0  0  0
 20 16  1  0  0  0  0
 21 11  1  0  0  0  0
 21 22  2  0  0  0  0
 23 21  2  0  0  0  0
 24 25  1  0  0  0  0
 26 25  1  0  0  0  0
 27 28  1  0  0  0  0
 27 26  1  0  0  0  0
 28 29  1  0  0  0  0
 29 25  1  0  0  0  0
 29 21  1  1  0  0  0
 30 35  2  0  0  0  0
 30 31  1  0  0  0  0
 31 32  2  0  0  0  0
 32 33  1  0  0  0  0
 32  3  1  0  0  0  0
 34 38  1  0  0  0  0
 34 33  2  0  0  0  0
 35 34  1  0  0  0  0
 36 30  1  0  0  0  0
 37 31  1  0  0  0  0
M  END
>  <minimizedAffinity>
-5.59732533

$$$$
