
 OpenBabel03252507513D

 28 30  0  0  1  0  0  0  0  0999 V2000
   46.5820   34.9410   42.0410 C   0  0  2  0  0  0  0  0  0  0  0  0
   46.1730   33.7730   41.1970 C   0  0  0  0  0  0  0  0  0  0  0  0
   47.2050   33.9320   40.0710 C   0  0  0  0  0  0  0  0  0  0  0  0
   48.4700   34.3810   40.7900 C   0  0  1  0  0  0  0  0  0  0  0  0
   48.0730   34.6290   42.2280 C   0  0  0  0  0  0  0  0  0  0  0  0
   46.4800   35.9110   41.5280 H   0  0  0  0  0  0  0  0  0  0  0  0
   45.1430   33.8090   40.8180 H   0  0  0  0  0  0  0  0  0  0  0  0
   46.4210   32.8410   41.7240 H   0  0  0  0  0  0  0  0  0  0  0  0
   47.3230   33.0160   39.4960 H   0  0  0  0  0  0  0  0  0  0  0  0
   46.8620   34.7960   39.4650 H   0  0  0  0  0  0  0  0  0  0  0  0
   48.8450   35.3390   40.3920 H   0  0  0  0  0  0  0  0  0  0  0  0
   48.1970   33.7770   42.8920 H   0  0  0  0  0  0  0  0  0  0  0  0
   48.5710   35.5170   42.6600 H   0  0  0  0  0  0  0  0  0  0  0  0
   44.4090   36.0740   44.9180 C   0  0  0  0  0  0  0  0  0  0  0  0
   45.0190   36.1030   43.6480 C   0  0  0  0  0  0  0  0  0  0  0  0
   45.8830   35.0360   43.3400 C   0  0  0  0  0  0  0  0  0  0  0  0
   46.0850   34.0370   44.2720 N   0  0  0  0  0  0  0  0  0  0  0  0
   45.4640   34.0780   45.4690 C   0  0  0  0  0  0  0  0  0  0  0  0
   44.6370   35.0810   45.7910 N   0  0  0  0  0  0  0  0  0  0  0  0
   43.7420   36.8850   45.1730 H   0  0  0  0  0  0  0  0  0  0  0  0
   44.8570   36.8880   42.9220 H   0  0  0  0  0  0  0  0  0  0  0  0
   45.7230   33.2260   46.0900 H   0  0  0  0  0  0  0  0  0  0  0  0
   49.4530   33.3960   40.5750 N   0  0  2  0  0  0  0  0  0  0  0  0
   49.0910   32.3000   39.7380 C   0  0  0  0  0  0  0  0  0  0  0  0
   50.2830   31.3730   39.8840 C   0  0  0  0  0  0  0  0  0  0  0  0
   51.0650   31.8780   41.0760 C   0  0  0  0  0  0  0  0  0  0  0  0
   50.0610   32.8280   41.7450 C   0  0  0  0  0  0  0  0  0  0  0  0
   50.6240   33.6030   42.2690 H   0  0  0  0  0  0  0  0  0  0  0  0
  1  6  1  6  0  0  0
  1  5  1  0  0  0  0
  1 16  1  0  0  0  0
  2  8  1  0  0  0  0
  2  1  1  0  0  0  0
  3  4  1  0  0  0  0
  3  2  1  0  0  0  0
  4 11  1  6  0  0  0
  4  5  1  0  0  0  0
  5 13  1  0  0  0  0
  5 12  1  0  0  0  0
  7  2  1  0  0  0  0
  9  3  1  0  0  0  0
 10  3  1  0  0  0  0
 14 20  1  0  0  0  0
 14 19  1  0  0  0  0
 15 14  2  0  0  0  0
 16 15  1  0  0  0  0
 16 17  2  0  0  0  0
 17 18  1  0  0  0  0
 18 19  2  0  0  0  0
 18 22  1  0  0  0  0
 21 15  1  0  0  0  0
 23 24  1  1  0  0  0
 23  4  1  0  0  0  0
 23 27  1  0  0  0  0
 24 25  1  0  0  0  0
 25 26  1  0  0  0  0
 26 27  1  0  0  0  0
 27 28  1  0  0  0  0
M  END
>  <minimizedAffinity>
-4.62018108

>  <minimizedRMSD>
1.12826765

$$$$
