
 OpenBabel03252504553D

 28 30  0  0  1  0  0  0  0  0999 V2000
   45.8080   33.8960   40.2580 N   0  0  0  0  0  0  0  0  0  0  0  0
   45.8060   33.0770   39.0950 C   0  0  0  0  0  0  0  0  0  0  0  0
   47.1220   33.3570   38.4690 C   0  0  0  0  0  0  0  0  0  0  0  0
   47.8700   34.3230   39.3710 C   0  0  0  0  0  0  0  0  0  0  0  0
   47.0920   34.1290   40.6840 C   0  0  1  0  0  0  0  0  0  0  0  0
   45.1410   32.3930   38.6410 H   0  0  0  0  0  0  0  0  0  0  0  0
   47.5050   32.9160   37.5390 H   0  0  0  0  0  0  0  0  0  0  0  0
   47.7580   35.2940   38.9220 H   0  0  0  0  0  0  0  0  0  0  0  0
   48.9030   34.0050   39.4400 H   0  0  0  0  0  0  0  0  0  0  0  0
   47.4810   33.0850   40.9710 H   0  0  0  0  0  0  0  0  0  0  0  0
   47.4990   34.9550   41.7210 N   0  0  1  0  0  0  0  0  0  0  0  0
   47.6680   34.2320   42.9750 C   0  0  0  0  0  0  0  0  0  0  0  0
   49.0950   33.9380   43.2170 C   0  0  0  0  0  0  0  0  0  0  0  0
   49.8350   34.7940   42.2380 C   0  0  0  0  0  0  0  0  0  0  0  0
   48.7810   35.6050   41.5790 C   0  0  0  0  0  0  0  0  0  0  0  0
   49.0030   35.9000   40.5360 H   0  0  0  0  0  0  0  0  0  0  0  0
   44.6520   34.4000   40.7450 C   0  0  0  0  0  0  0  0  0  0  0  0
   44.7000   35.1550   41.5800 H   0  0  0  0  0  0  0  0  0  0  0  0
   44.1610   35.0320   39.9320 H   0  0  0  0  0  0  0  0  0  0  0  0
   42.6940   31.5500   42.2380 C   0  0  0  0  0  0  0  0  0  0  0  0
   43.7970   32.3660   41.9730 C   0  0  0  0  0  0  0  0  0  0  0  0
   43.6150   33.4370   41.1000 C   0  0  0  0  0  0  0  0  0  0  0  0
   42.3870   33.6110   40.5690 N   0  0  0  0  0  0  0  0  0  0  0  0
   41.3170   32.7900   40.8490 C   0  0  0  0  0  0  0  0  0  0  0  0
   41.4830   31.7640   41.6830 N   0  0  0  0  0  0  0  0  0  0  0  0
   42.9030   30.7380   42.9230 H   0  0  0  0  0  0  0  0  0  0  0  0
   44.7690   32.2170   42.4010 H   0  0  0  0  0  0  0  0  0  0  0  0
   40.3950   33.0560   40.3480 H   0  0  0  0  0  0  0  0  0  0  0  0
  1  5  1  0  0  0  0
  1 17  1  0  0  0  0
  2  1  1  0  0  0  0
  3  2  2  0  0  0  0
  3  4  1  0  0  0  0
  4  9  1  0  0  0  0
  4  5  1  0  0  0  0
  5 10  1  1  0  0  0
  5 11  1  0  0  0  0
  6  2  1  0  0  0  0
  7  3  1  0  0  0  0
  8  4  1  0  0  0  0
 11 12  1  1  0  0  0
 12 13  1  0  0  0  0
 14 13  1  0  0  0  0
 15 11  1  0  0  0  0
 15 14  1  0  0  0  0
 16 15  1  0  0  0  0
 17 22  1  0  0  0  0
 17 18  1  0  0  0  0
 19 17  1  0  0  0  0
 20 26  1  0  0  0  0
 21 20  1  0  0  0  0
 21 27  1  0  0  0  0
 22 21  2  0  0  0  0
 23 24  2  0  0  0  0
 23 22  1  0  0  0  0
 24 25  1  0  0  0  0
 25 20  2  0  0  0  0
 28 24  1  0  0  0  0
M  END
>  <minimizedAffinity>
-3.96212935

>  <minimizedRMSD>
3.65808105

$$$$
