
 OpenBabel03242522153D

 29 31  0  0  0  0  0  0  0  0999 V2000
   38.1490   31.0360   40.2710 C   0  0  0  0  0  0  0  0  0  0  0  0
   36.9530   30.7900   39.7160 C   0  0  0  0  0  0  0  0  0  0  0  0
   36.1880   29.6290   40.9450 S   0  0  0  0  0  0  0  0  0  0  0  0
   37.7220   29.7170   42.0140 C   0  0  0  0  0  0  0  0  0  0  0  0
   38.3630   30.4270   41.3990 N   0  0  0  0  0  0  0  0  0  0  0  0
   36.5010   31.1620   38.7760 H   0  0  0  0  0  0  0  0  0  0  0  0
   40.4330   33.9600   39.5550 C   0  0  0  0  0  0  0  0  0  0  0  0
   39.4590   33.1660   40.2070 C   0  0  0  0  0  0  0  0  0  0  0  0
   39.1570   31.9290   39.6540 C   0  0  0  0  0  0  0  0  0  0  0  0
   39.8370   31.5800   38.5120 N   0  0  0  0  0  0  0  0  0  0  0  0
   40.7510   32.3650   37.9320 C   0  0  0  0  0  0  0  0  0  0  0  0
   41.0500   33.5600   38.4560 N   0  0  0  0  0  0  0  0  0  0  0  0
   40.7080   34.9300   39.9390 H   0  0  0  0  0  0  0  0  0  0  0  0
   41.1960   31.9440   37.0410 H   0  0  0  0  0  0  0  0  0  0  0  0
   38.8710   33.7090   41.3750 N   0  0  0  0  0  0  0  0  0  0  0  0
   38.9990   33.2320   42.2990 H   0  0  0  0  0  0  0  0  0  0  0  0
   38.2860   34.5400   41.5790 H   0  0  0  0  0  0  0  0  0  0  0  0
   37.8330   28.9530   43.3050 C   0  0  0  0  0  0  0  0  0  0  0  0
   37.2160   29.4300   44.0830 H   0  0  0  0  0  0  0  0  0  0  0  0
   38.9100   28.9520   43.5970 H   0  0  0  0  0  0  0  0  0  0  0  0
   37.3230   27.5400   43.1200 C   0  0  0  0  0  0  0  0  0  0  0  0
   36.8470   27.1460   44.0310 H   0  0  0  0  0  0  0  0  0  0  0  0
   36.4830   27.6160   42.3740 H   0  0  0  0  0  0  0  0  0  0  0  0
   38.3090   26.7020   42.5160 N   0  0  0  0  0  0  0  0  0  0  0  0
   37.6970   25.4230   42.2040 C   0  0  0  0  0  2  0  0  0  0  0  0
   38.9160   24.5440   42.0090 C   0  0  0  0  0  2  0  0  0  0  0  0
   39.7090   24.9280   43.2650 C   0  0  0  0  0  2  0  0  0  0  0  0
   39.4440   26.4360   43.3490 C   0  0  0  0  0  3  0  0  0  0  0  0
   40.3430   26.9040   42.8620 H   0  0  0  0  0  0  0  0  0  0  0  0
  1  5  1  0  0  0  0
  2  1  2  0  0  0  0
  2  3  1  0  0  0  0
  3  4  1  0  0  0  0
  4 18  1  0  0  0  0
  5  4  2  0  0  0  0
  6  2  1  0  0  0  0
  7 13  1  0  0  0  0
  7  8  1  0  0  0  0
  8 15  1  0  0  0  0
  9  8  2  0  0  0  0
  9  1  1  0  0  0  0
 10  9  1  0  0  0  0
 11 12  1  0  0  0  0
 11 10  2  0  0  0  0
 12  7  2  0  0  0  0
 14 11  1  0  0  0  0
 15 17  1  0  0  0  0
 15 16  1  0  0  0  0
 18 20  1  0  0  0  0
 18 19  1  0  0  0  0
 21 18  1  0  0  0  0
 21 22  1  0  0  0  0
 23 21  1  0  0  0  0
 24 21  1  0  0  0  0
 24 28  1  0  0  0  0
 25 24  1  0  0  0  0
 26 25  1  0  0  0  0
 26 27  1  0  0  0  0
 27 28  1  0  0  0  0
 29 28  1  0  0  0  0
M  END
>  <minimizedAffinity>
-4.95510674

$$$$

 OpenBabel03242522153D

 29 31  0  0  0  0  0  0  0  0999 V2000
   37.8680   30.9020   38.3950 C   0  0  0  0  0  0  0  0  0  0  0  0
   37.3630   30.8040   37.1560 C   0  0  0  0  0  0  0  0  0  0  0  0
   36.4250   29.2050   37.2460 S   0  0  0  0  0  0  0  0  0  0  0  0
   36.9330   28.9840   39.0330 C   0  0  0  0  0  0  0  0  0  0  0  0
   37.5580   29.9210   39.1890 N   0  0  0  0  0  0  0  0  0  0  0  0
   37.4560   31.4770   36.2810 H   0  0  0  0  0  0  0  0  0  0  0  0
   39.1130   34.0360   40.0990 C   0  0  0  0  0  0  0  0  0  0  0  0
   38.2410   32.9850   39.7300 C   0  0  0  0  0  0  0  0  0  0  0  0
   38.7140   32.0350   38.8340 C   0  0  0  0  0  0  0  0  0  0  0  0
   40.0010   32.2010   38.3820 N   0  0  0  0  0  0  0  0  0  0  0  0
   40.7890   33.2130   38.7590 C   0  0  0  0  0  0  0  0  0  0  0  0
   40.3430   34.1340   39.6220 N   0  0  0  0  0  0  0  0  0  0  0  0
   38.8000   34.8030   40.7900 H   0  0  0  0  0  0  0  0  0  0  0  0
   41.7730   33.2000   38.3120 H   0  0  0  0  0  0  0  0  0  0  0  0
   36.9500   32.9930   40.3110 N   0  0  0  0  0  0  0  0  0  0  0  0
   36.6490   32.2090   40.9370 H   0  0  0  0  0  0  0  0  0  0  0  0
   36.1380   33.6370   40.2750 H   0  0  0  0  0  0  0  0  0  0  0  0
   36.4980   27.7900   39.8380 C   0  0  0  0  0  0  0  0  0  0  0  0
   35.8660   27.1270   39.2260 H   0  0  0  0  0  0  0  0  0  0  0  0
   35.9330   28.1740   40.7210 H   0  0  0  0  0  0  0  0  0  0  0  0
   37.7060   26.9900   40.2780 C   0  0  0  0  0  0  0  0  0  0  0  0
   37.7180   25.9800   39.8410 H   0  0  0  0  0  0  0  0  0  0  0  0
   38.5950   27.5070   39.8190 H   0  0  0  0  0  0  0  0  0  0  0  0
   37.8970   27.0640   41.6910 N   0  0  0  0  0  0  0  0  0  0  0  0
   36.6330   27.4230   42.3080 C   0  0  0  0  0  2  0  0  0  0  0  0
   37.0860   27.8860   43.6780 C   0  0  0  0  0  2  0  0  0  0  0  0
   38.2310   28.8190   43.2640 C   0  0  0  0  0  2  0  0  0  0  0  0
   38.8620   28.0390   42.1040 C   0  0  0  0  0  3  0  0  0  0  0  0
   39.7230   27.4890   42.5740 H   0  0  0  0  0  0  0  0  0  0  0  0
  1  9  1  0  0  0  0
  1  5  1  0  0  0  0
  2  3  1  0  0  0  0
  2  1  2  0  0  0  0
  3  4  1  0  0  0  0
  4  5  2  0  0  0  0
  4 18  1  0  0  0  0
  6  2  1  0  0  0  0
  7 13  1  0  0  0  0
  8  7  1  0  0  0  0
  8 15  1  0  0  0  0
  9  8  2  0  0  0  0
 10 11  2  0  0  0  0
 10  9  1  0  0  0  0
 11 12  1  0  0  0  0
 12  7  2  0  0  0  0
 14 11  1  0  0  0  0
 15 16  1  0  0  0  0
 17 15  1  0  0  0  0
 18 21  1  0  0  0  0
 18 20  1  0  0  0  0
 19 18  1  0  0  0  0
 21 24  1  0  0  0  0
 22 21  1  0  0  0  0
 23 21  1  0  0  0  0
 24 28  1  0  0  0  0
 24 25  1  0  0  0  0
 25 26  1  0  0  0  0
 27 26  1  0  0  0  0
 28 29  1  0  0  0  0
 28 27  1  0  0  0  0
M  END
>  <minimizedAffinity>
-4.90225744

$$$$

 OpenBabel03242522153D

 29 31  0  0  0  0  0  0  0  0999 V2000
   38.2750   29.4780   41.7340 C   0  0  0  0  0  0  0  0  0  0  0  0
   38.8510   29.2980   42.9330 C   0  0  0  0  0  0  0  0  0  0  0  0
   38.4780   27.5120   43.2760 S   0  0  0  0  0  0  0  0  0  0  0  0
   37.5730   27.3660   41.6430 C   0  0  0  0  0  0  0  0  0  0  0  0
   37.6920   28.4250   41.2450 N   0  0  0  0  0  0  0  0  0  0  0  0
   39.4100   30.0010   43.5800 H   0  0  0  0  0  0  0  0  0  0  0  0
   37.2380   32.7050   40.0630 C   0  0  0  0  0  0  0  0  0  0  0  0
   37.1290   31.4750   40.7550 C   0  0  0  0  0  0  0  0  0  0  0  0
   38.2980   30.7730   41.0150 C   0  0  0  0  0  0  0  0  0  0  0  0
   39.4700   31.3400   40.5740 N   0  0  0  0  0  0  0  0  0  0  0  0
   39.5220   32.5060   39.9230 C   0  0  0  0  0  0  0  0  0  0  0  0
   38.4020   33.1920   39.6670 N   0  0  0  0  0  0  0  0  0  0  0  0
   36.3630   33.2930   39.8330 H   0  0  0  0  0  0  0  0  0  0  0  0
   40.5210   32.8140   39.6440 H   0  0  0  0  0  0  0  0  0  0  0  0
   35.8250   31.0640   41.1250 N   0  0  0  0  0  0  0  0  0  0  0  0
   35.5730   30.9590   42.1370 H   0  0  0  0  0  0  0  0  0  0  0  0
   34.9650   30.8110   40.6050 H   0  0  0  0  0  0  0  0  0  0  0  0
   36.9400   26.0760   41.2010 C   0  0  0  0  0  0  0  0  0  0  0  0
   37.2640   25.8240   40.1790 H   0  0  0  0  0  0  0  0  0  0  0  0
   35.8340   26.2190   41.2430 H   0  0  0  0  0  0  0  0  0  0  0  0
   37.3730   24.9450   42.1090 C   0  0  0  0  0  0  0  0  0  0  0  0
   38.2930   25.1840   42.6630 H   0  0  0  0  0  0  0  0  0  0  0  0
   36.5780   24.8720   42.9030 H   0  0  0  0  0  0  0  0  0  0  0  0
   37.3610   23.6910   41.4260 N   0  0  0  0  0  0  0  0  0  0  0  0
   38.6640   23.4830   40.8230 C   0  0  0  0  0  2  0  0  0  0  0  0
   38.3600   22.3980   39.8100 C   0  0  0  0  0  2  0  0  0  0  0  0
   37.1070   23.0010   39.1610 C   0  0  0  0  0  2  0  0  0  0  0  0
   36.3900   23.6030   40.3760 C   0  0  0  0  0  3  0  0  0  0  0  0
   35.6370   22.8220   40.6700 H   0  0  0  0  0  0  0  0  0  0  0  0
  1  2  2  0  0  0  0
  2  3  1  0  0  0  0
  2  6  1  0  0  0  0
  4  3  1  0  0  0  0
  5  4  2  0  0  0  0
  5  1  1  0  0  0  0
  7  8  1  0  0  0  0
  8  9  2  0  0  0  0
  8 15  1  0  0  0  0
  9  1  1  0  0  0  0
 10  9  1  0  0  0  0
 11 10  2  0  0  0  0
 12 11  1  0  0  0  0
 12  7  2  0  0  0  0
 13  7  1  0  0  0  0
 14 11  1  0  0  0  0
 15 16  1  0  0  0  0
 17 15  1  0  0  0  0
 18 20  1  0  0  0  0
 18  4  1  0  0  0  0
 18 21  1  0  0  0  0
 19 18  1  0  0  0  0
 21 22  1  0  0  0  0
 21 23  1  0  0  0  0
 24 21  1  0  0  0  0
 25 24  1  0  0  0  0
 26 25  1  0  0  0  0
 27 26  1  0  0  0  0
 27 28  1  0  0  0  0
 28 29  1  0  0  0  0
 28 24  1  0  0  0  0
M  END
>  <minimizedAffinity>
-4.846138

$$$$

 OpenBabel03242522153D

 29 31  0  0  0  0  0  0  0  0999 V2000
   38.6300   30.3630   41.6010 C   0  0  0  0  0  0  0  0  0  0  0  0
   39.0230   29.9530   42.8170 C   0  0  0  0  0  0  0  0  0  0  0  0
   38.2720   28.2580   42.9130 S   0  0  0  0  0  0  0  0  0  0  0  0
   37.5430   28.4600   41.2010 C   0  0  0  0  0  0  0  0  0  0  0  0
   37.9100   29.5060   40.9420 N   0  0  0  0  0  0  0  0  0  0  0  0
   39.6330   30.4590   43.5890 H   0  0  0  0  0  0  0  0  0  0  0  0
   38.4350   33.7960   40.0340 C   0  0  0  0  0  0  0  0  0  0  0  0
   38.0120   32.5470   40.5480 C   0  0  0  0  0  0  0  0  0  0  0  0
   38.9850   31.6890   41.0440 C   0  0  0  0  0  0  0  0  0  0  0  0
   40.2840   32.1330   40.9920 N   0  0  0  0  0  0  0  0  0  0  0  0
   40.6350   33.3230   40.4960 C   0  0  0  0  0  0  0  0  0  0  0  0
   39.7070   34.1580   40.0150 N   0  0  0  0  0  0  0  0  0  0  0  0
   37.7240   34.5020   39.6340 H   0  0  0  0  0  0  0  0  0  0  0  0
   41.6980   33.5210   40.5280 H   0  0  0  0  0  0  0  0  0  0  0  0
   36.6230   32.2790   40.5100 N   0  0  0  0  0  0  0  0  0  0  0  0
   36.0890   32.1410   41.4010 H   0  0  0  0  0  0  0  0  0  0  0  0
   35.9200   32.1700   39.7560 H   0  0  0  0  0  0  0  0  0  0  0  0
   36.7240   27.3780   40.5560 C   0  0  0  0  0  0  0  0  0  0  0  0
   35.8180   27.8080   40.0980 H   0  0  0  0  0  0  0  0  0  0  0  0
   36.4560   26.6450   41.3530 H   0  0  0  0  0  0  0  0  0  0  0  0
   37.5180   26.7090   39.4540 C   0  0  0  0  0  0  0  0  0  0  0  0
   37.0650   26.8620   38.4620 H   0  0  0  0  0  0  0  0  0  0  0  0
   38.4960   27.2650   39.4050 H   0  0  0  0  0  0  0  0  0  0  0  0
   37.8490   25.3620   39.7900 N   0  0  0  0  0  0  0  0  0  0  0  0
   36.8570   24.8640   40.7260 C   0  0  0  0  0  2  0  0  0  0  0  0
   37.5670   23.6580   41.3060 C   0  0  0  0  0  2  0  0  0  0  0  0
   38.9270   24.2920   41.6240 C   0  0  0  0  0  2  0  0  0  0  0  0
   39.1310   25.2090   40.4110 C   0  0  0  0  0  3  0  0  0  0  0  0
   39.7800   24.6100   39.7150 H   0  0  0  0  0  0  0  0  0  0  0  0
  1  2  2  0  0  0  0
  2  3  1  0  0  0  0
  2  6  1  0  0  0  0
  4  3  1  0  0  0  0
  5  4  2  0  0  0  0
  5  1  1  0  0  0  0
  7  8  1  0  0  0  0
  8  9  2  0  0  0  0
  9  1  1  0  0  0  0
 10  9  1  0  0  0  0
 11 14  1  0  0  0  0
 11 10  2  0  0  0  0
 12  7  2  0  0  0  0
 12 11  1  0  0  0  0
 13  7  1  0  0  0  0
 15  8  1  0  0  0  0
 15 16  1  0  0  0  0
 17 15  1  0  0  0  0
 18  4  1  0  0  0  0
 18 20  1  0  0  0  0
 19 18  1  0  0  0  0
 21 24  1  0  0  0  0
 21 18  1  0  0  0  0
 22 21  1  0  0  0  0
 23 21  1  0  0  0  0
 24 28  1  0  0  0  0
 24 25  1  0  0  0  0
 25 26  1  0  0  0  0
 26 27  1  0  0  0  0
 28 27  1  0  0  0  0
 29 28  1  0  0  0  0
M  END
>  <minimizedAffinity>
-4.72180271

$$$$

 OpenBabel03242522153D

 29 31  0  0  0  0  0  0  0  0999 V2000
   37.3190   30.7010   40.7950 C   0  0  0  0  0  0  0  0  0  0  0  0
   36.2870   30.4950   39.9620 C   0  0  0  0  0  0  0  0  0  0  0  0
   35.5400   28.9410   40.6500 S   0  0  0  0  0  0  0  0  0  0  0  0
   36.8430   28.8860   41.9930 C   0  0  0  0  0  0  0  0  0  0  0  0
   37.4460   29.8150   41.7360 N   0  0  0  0  0  0  0  0  0  0  0  0
   35.9380   31.0730   39.0840 H   0  0  0  0  0  0  0  0  0  0  0  0
   40.4300   32.8440   40.7100 C   0  0  0  0  0  0  0  0  0  0  0  0
   39.6130   31.6980   40.8580 C   0  0  0  0  0  0  0  0  0  0  0  0
   38.2470   31.8480   40.6600 C   0  0  0  0  0  0  0  0  0  0  0  0
   37.8050   33.1070   40.3320 N   0  0  0  0  0  0  0  0  0  0  0  0
   38.6180   34.1610   40.2030 C   0  0  0  0  0  0  0  0  0  0  0  0
   39.9360   34.0280   40.3930 N   0  0  0  0  0  0  0  0  0  0  0  0
   41.4980   32.7870   40.8530 H   0  0  0  0  0  0  0  0  0  0  0  0
   38.1130   35.0810   39.9420 H   0  0  0  0  0  0  0  0  0  0  0  0
   40.2650   30.4890   41.2000 N   0  0  0  0  0  0  0  0  0  0  0  0
   40.2410   29.6730   40.5430 H   0  0  0  0  0  0  0  0  0  0  0  0
   40.8160   30.1620   42.0150 H   0  0  0  0  0  0  0  0  0  0  0  0
   36.8700   27.7930   43.0260 C   0  0  0  0  0  0  0  0  0  0  0  0
   35.8990   27.2730   43.0560 H   0  0  0  0  0  0  0  0  0  0  0  0
   37.0950   28.2710   44.0090 H   0  0  0  0  0  0  0  0  0  0  0  0
   37.9250   26.7670   42.6710 C   0  0  0  0  0  0  0  0  0  0  0  0
   38.9260   27.2140   42.5750 H   0  0  0  0  0  0  0  0  0  0  0  0
   38.0040   26.0900   43.5670 H   0  0  0  0  0  0  0  0  0  0  0  0
   37.5050   25.9360   41.5890 N   0  0  0  0  0  0  0  0  0  0  0  0
   36.9570   24.7090   42.1360 C   0  0  0  0  0  2  0  0  0  0  0  0
   36.9830   23.7980   40.9260 C   0  0  0  0  0  2  0  0  0  0  0  0
   38.4170   24.0570   40.4450 C   0  0  0  0  0  2  0  0  0  0  0  0
   38.5570   25.5650   40.6900 C   0  0  0  0  0  3  0  0  0  0  0  0
   38.3330   26.0310   39.6910 H   0  0  0  0  0  0  0  0  0  0  0  0
  1  5  1  0  0  0  0
  2  3  1  0  0  0  0
  2  1  2  0  0  0  0
  3  4  1  0  0  0  0
  4 18  1  0  0  0  0
  5  4  2  0  0  0  0
  6  2  1  0  0  0  0
  7 13  1  0  0  0  0
  7  8  1  0  0  0  0
  8 15  1  0  0  0  0
  9  1  1  0  0  0  0
  9  8  2  0  0  0  0
 10  9  1  0  0  0  0
 11 10  2  0  0  0  0
 11 12  1  0  0  0  0
 12  7  2  0  0  0  0
 14 11  1  0  0  0  0
 15 17  1  0  0  0  0
 16 15  1  0  0  0  0
 18 19  1  0  0  0  0
 18 20  1  0  0  0  0
 21 18  1  0  0  0  0
 21 23  1  0  0  0  0
 22 21  1  0  0  0  0
 24 25  1  0  0  0  0
 24 21  1  0  0  0  0
 26 25  1  0  0  0  0
 27 28  1  0  0  0  0
 27 26  1  0  0  0  0
 28 24  1  0  0  0  0
 29 28  1  0  0  0  0
M  END
>  <minimizedAffinity>
-4.69218349

$$$$

 OpenBabel03242522153D

 29 31  0  0  0  0  0  0  0  0999 V2000
   38.4770   31.4760   39.9540 C   0  0  0  0  0  0  0  0  0  0  0  0
   37.1860   31.8340   39.8830 C   0  0  0  0  0  0  0  0  0  0  0  0
   36.3880   30.6320   41.0510 S   0  0  0  0  0  0  0  0  0  0  0  0
   38.0490   29.8510   41.4160 C   0  0  0  0  0  0  0  0  0  0  0  0
   38.7250   30.4830   40.7550 N   0  0  0  0  0  0  0  0  0  0  0  0
   36.6860   32.6290   39.2970 H   0  0  0  0  0  0  0  0  0  0  0  0
   41.0580   32.3220   37.3270 C   0  0  0  0  0  0  0  0  0  0  0  0
   40.0380   31.6120   38.0040 C   0  0  0  0  0  0  0  0  0  0  0  0
   39.5450   32.1540   39.1830 C   0  0  0  0  0  0  0  0  0  0  0  0
   40.0960   33.3440   39.5930 N   0  0  0  0  0  0  0  0  0  0  0  0
   41.0600   33.9790   38.9190 C   0  0  0  0  0  0  0  0  0  0  0  0
   41.5430   33.4660   37.7810 N   0  0  0  0  0  0  0  0  0  0  0  0
   41.4800   31.9490   36.4070 H   0  0  0  0  0  0  0  0  0  0  0  0
   41.3840   34.9040   39.3760 H   0  0  0  0  0  0  0  0  0  0  0  0
   39.6060   30.3990   37.4130 N   0  0  0  0  0  0  0  0  0  0  0  0
   38.6180   30.2980   37.0810 H   0  0  0  0  0  0  0  0  0  0  0  0
   40.0560   29.4900   37.2020 H   0  0  0  0  0  0  0  0  0  0  0  0
   38.1900   28.6990   42.3720 C   0  0  0  0  0  0  0  0  0  0  0  0
   38.0790   29.0500   43.4100 H   0  0  0  0  0  0  0  0  0  0  0  0
   39.2010   28.2550   42.2090 H   0  0  0  0  0  0  0  0  0  0  0  0
   37.1040   27.6750   42.1180 C   0  0  0  0  0  0  0  0  0  0  0  0
   36.1120   28.0340   42.4320 H   0  0  0  0  0  0  0  0  0  0  0  0
   37.0300   27.5830   40.9990 H   0  0  0  0  0  0  0  0  0  0  0  0
   37.4810   26.3830   42.5930 N   0  0  0  0  0  0  0  0  0  0  0  0
   38.9220   26.3580   42.7660 C   0  0  0  0  0  2  0  0  0  0  0  0
   39.1950   24.8690   42.8250 C   0  0  0  0  0  2  0  0  0  0  0  0
   38.3850   24.4150   41.6040 C   0  0  0  0  0  2  0  0  0  0  0  0
   37.1430   25.3090   41.7070 C   0  0  0  0  0  3  0  0  0  0  0  0
   36.3790   24.6670   42.2240 H   0  0  0  0  0  0  0  0  0  0  0  0
  1  5  1  0  0  0  0
  2  1  2  0  0  0  0
  2  3  1  0  0  0  0
  3  4  1  0  0  0  0
  4 18  1  0  0  0  0
  5  4  2  0  0  0  0
  6  2  1  0  0  0  0
  7 12  2  0  0  0  0
  7  8  1  0  0  0  0
  8  9  2  0  0  0  0
  9 10  1  0  0  0  0
  9  1  1  0  0  0  0
 11 14  1  0  0  0  0
 11 10  2  0  0  0  0
 12 11  1  0  0  0  0
 13  7  1  0  0  0  0
 15  8  1  0  0  0  0
 16 15  1  0  0  0  0
 17 15  1  0  0  0  0
 18 19  1  0  0  0  0
 20 18  1  0  0  0  0
 21 18  1  0  0  0  0
 21 22  1  0  0  0  0
 21 24  1  0  0  0  0
 23 21  1  0  0  0  0
 24 25  1  0  0  0  0
 25 26  1  0  0  0  0
 27 28  1  0  0  0  0
 27 26  1  0  0  0  0
 28 29  1  0  0  0  0
 28 24  1  0  0  0  0
M  END
>  <minimizedAffinity>
-4.55731344

$$$$

 OpenBabel03242522153D

 29 31  0  0  0  0  0  0  0  0999 V2000
   37.7030   30.5250   39.2340 C   0  0  0  0  0  0  0  0  0  0  0  0
   38.4480   31.5560   38.8070 C   0  0  0  0  0  0  0  0  0  0  0  0
   39.5640   31.8540   40.2600 S   0  0  0  0  0  0  0  0  0  0  0  0
   38.7540   30.4500   41.1960 C   0  0  0  0  0  0  0  0  0  0  0  0
   37.9860   30.1060   40.4310 N   0  0  0  0  0  0  0  0  0  0  0  0
   38.4340   32.1120   37.8500 H   0  0  0  0  0  0  0  0  0  0  0  0
   34.4640   28.9320   38.1180 C   0  0  0  0  0  0  0  0  0  0  0  0
   35.4290   29.5170   38.9730 C   0  0  0  0  0  0  0  0  0  0  0  0
   36.6380   29.9050   38.4130 C   0  0  0  0  0  0  0  0  0  0  0  0
   36.7930   29.6860   37.0650 N   0  0  0  0  0  0  0  0  0  0  0  0
   35.8510   29.1290   36.2980 C   0  0  0  0  0  0  0  0  0  0  0  0
   34.6810   28.7500   36.8260 N   0  0  0  0  0  0  0  0  0  0  0  0
   33.5060   28.6110   38.4980 H   0  0  0  0  0  0  0  0  0  0  0  0
   36.1290   29.0260   35.2580 H   0  0  0  0  0  0  0  0  0  0  0  0
   35.0730   29.6560   40.3360 N   0  0  0  0  0  0  0  0  0  0  0  0
   35.0010   30.6080   40.7670 H   0  0  0  0  0  0  0  0  0  0  0  0
   34.8420   28.9950   41.1010 H   0  0  0  0  0  0  0  0  0  0  0  0
   39.1860   30.0710   42.5860 C   0  0  0  0  0  0  0  0  0  0  0  0
   38.3130   30.0270   43.2570 H   0  0  0  0  0  0  0  0  0  0  0  0
   39.9120   30.8460   42.9300 H   0  0  0  0  0  0  0  0  0  0  0  0
   39.8250   28.6990   42.5780 C   0  0  0  0  0  0  0  0  0  0  0  0
   40.3090   28.4710   41.6160 H   0  0  0  0  0  0  0  0  0  0  0  0
   40.6750   28.7560   43.3140 H   0  0  0  0  0  0  0  0  0  0  0  0
   38.9360   27.7040   43.0830 N   0  0  0  0  0  0  0  0  0  0  0  0
   38.5240   26.8520   41.9810 C   0  0  0  0  0  2  0  0  0  0  0  0
   37.2980   26.1780   42.5610 C   0  0  0  0  0  2  0  0  0  0  0  0
   36.5740   27.4090   43.1220 C   0  0  0  0  0  2  0  0  0  0  0  0
   37.7440   28.2280   43.6790 C   0  0  0  0  0  3  0  0  0  0  0  0
   37.7670   27.9710   44.7740 H   0  0  0  0  0  0  0  0  0  0  0  0
  1  5  1  0  0  0  0
  2  1  2  0  0  0  0
  2  3  1  0  0  0  0
  3  4  1  0  0  0  0
  4 18  1  0  0  0  0
  5  4  2  0  0  0  0
  6  2  1  0  0  0  0
  7 13  1  0  0  0  0
  7  8  1  0  0  0  0
  8 15  1  0  0  0  0
  9  8  2  0  0  0  0
  9  1  1  0  0  0  0
 10  9  1  0  0  0  0
 11 12  1  0  0  0  0
 11 10  2  0  0  0  0
 12  7  2  0  0  0  0
 14 11  1  0  0  0  0
 15 16  1  0  0  0  0
 15 17  1  0  0  0  0
 18 20  1  0  0  0  0
 18 19  1  0  0  0  0
 21 18  1  0  0  0  0
 21 24  1  0  0  0  0
 21 23  1  0  0  0  0
 22 21  1  0  0  0  0
 24 28  1  0  0  0  0
 25 26  1  0  0  0  0
 25 24  1  0  0  0  0
 26 27  1  0  0  0  0
 27 28  1  0  0  0  0
 28 29  1  0  0  0  0
M  END
>  <minimizedAffinity>
-4.55387735

$$$$

 OpenBabel03242522153D

 29 31  0  0  0  0  0  0  0  0999 V2000
   36.7500   29.1370   38.8510 C   0  0  0  0  0  0  0  0  0  0  0  0
   36.0060   28.8980   37.7600 C   0  0  0  0  0  0  0  0  0  0  0  0
   35.6040   27.0960   37.9560 S   0  0  0  0  0  0  0  0  0  0  0  0
   36.5750   27.0310   39.5540 C   0  0  0  0  0  0  0  0  0  0  0  0
   36.9310   28.1090   39.6250 N   0  0  0  0  0  0  0  0  0  0  0  0
   35.6900   29.5680   36.9380 H   0  0  0  0  0  0  0  0  0  0  0  0
   37.4450   32.5000   40.4280 C   0  0  0  0  0  0  0  0  0  0  0  0
   36.8380   31.2410   40.2010 C   0  0  0  0  0  0  0  0  0  0  0  0
   37.3260   30.4670   39.1570 C   0  0  0  0  0  0  0  0  0  0  0  0
   38.3660   30.9950   38.4300 N   0  0  0  0  0  0  0  0  0  0  0  0
   38.9060   32.1910   38.6830 C   0  0  0  0  0  0  0  0  0  0  0  0
   38.4440   32.9470   39.6860 N   0  0  0  0  0  0  0  0  0  0  0  0
   37.1060   33.1450   41.2240 H   0  0  0  0  0  0  0  0  0  0  0  0
   39.7160   32.4610   38.0190 H   0  0  0  0  0  0  0  0  0  0  0  0
   35.7770   30.8790   41.0660 N   0  0  0  0  0  0  0  0  0  0  0  0
   35.8690   30.0430   41.6900 H   0  0  0  0  0  0  0  0  0  0  0  0
   34.8350   31.2620   41.2640 H   0  0  0  0  0  0  0  0  0  0  0  0
   36.7020   25.7640   40.3530 C   0  0  0  0  0  0  0  0  0  0  0  0
   36.3020   24.9110   39.7810 H   0  0  0  0  0  0  0  0  0  0  0  0
   36.1300   25.9100   41.3000 H   0  0  0  0  0  0  0  0  0  0  0  0
   38.1600   25.4750   40.6430 C   0  0  0  0  0  0  0  0  0  0  0  0
   38.5170   24.5730   40.1220 H   0  0  0  0  0  0  0  0  0  0  0  0
   38.7360   26.3190   40.1710 H   0  0  0  0  0  0  0  0  0  0  0  0
   38.4390   25.5420   42.0410 N   0  0  0  0  0  0  0  0  0  0  0  0
   39.1120   26.7990   42.3160 C   0  0  0  0  0  2  0  0  0  0  0  0
   39.7170   26.5270   43.6780 C   0  0  0  0  0  2  0  0  0  0  0  0
   40.3540   25.1580   43.4040 C   0  0  0  0  0  2  0  0  0  0  0  0
   39.2890   24.4940   42.5220 C   0  0  0  0  0  3  0  0  0  0  0  0
   38.6880   23.8670   43.2360 H   0  0  0  0  0  0  0  0  0  0  0  0
  1  9  1  0  0  0  0
  1  5  1  0  0  0  0
  2  3  1  0  0  0  0
  2  1  2  0  0  0  0
  3  4  1  0  0  0  0
  4  5  2  0  0  0  0
  4 18  1  0  0  0  0
  6  2  1  0  0  0  0
  7 13  1  0  0  0  0
  8  7  1  0  0  0  0
  8 15  1  0  0  0  0
  9  8  2  0  0  0  0
 10 11  2  0  0  0  0
 10  9  1  0  0  0  0
 11 12  1  0  0  0  0
 12  7  2  0  0  0  0
 14 11  1  0  0  0  0
 15 17  1  0  0  0  0
 15 16  1  0  0  0  0
 18 21  1  0  0  0  0
 18 20  1  0  0  0  0
 19 18  1  0  0  0  0
 21 24  1  0  0  0  0
 22 21  1  0  0  0  0
 23 21  1  0  0  0  0
 24 25  1  0  0  0  0
 24 28  1  0  0  0  0
 25 26  1  0  0  0  0
 27 26  1  0  0  0  0
 28 29  1  0  0  0  0
 28 27  1  0  0  0  0
M  END
>  <minimizedAffinity>
-4.52802324

$$$$

 OpenBabel03242522153D

 29 31  0  0  0  0  0  0  0  0999 V2000
   36.3560   29.3800   38.5260 C   0  0  0  0  0  0  0  0  0  0  0  0
   36.7100   28.1220   38.8320 C   0  0  0  0  0  0  0  0  0  0  0  0
   35.4150   27.1310   37.9450 S   0  0  0  0  0  0  0  0  0  0  0  0
   34.6190   28.7010   37.3090 C   0  0  0  0  0  0  0  0  0  0  0  0
   35.3060   29.4830   37.7680 N   0  0  0  0  0  0  0  0  0  0  0  0
   37.5450   27.7340   39.4460 H   0  0  0  0  0  0  0  0  0  0  0  0
   37.5010   32.3410   40.5740 C   0  0  0  0  0  0  0  0  0  0  0  0
   36.7390   31.2150   40.1820 C   0  0  0  0  0  0  0  0  0  0  0  0
   37.1000   30.5670   39.0090 C   0  0  0  0  0  0  0  0  0  0  0  0
   38.1760   31.0800   38.3260 N   0  0  0  0  0  0  0  0  0  0  0  0
   38.8660   32.1480   38.7360 C   0  0  0  0  0  0  0  0  0  0  0  0
   38.5280   32.7820   39.8660 N   0  0  0  0  0  0  0  0  0  0  0  0
   37.2670   32.8850   41.4760 H   0  0  0  0  0  0  0  0  0  0  0  0
   39.6850   32.4240   38.0860 H   0  0  0  0  0  0  0  0  0  0  0  0
   35.6650   30.8460   41.0280 N   0  0  0  0  0  0  0  0  0  0  0  0
   35.6700   29.9150   41.5090 H   0  0  0  0  0  0  0  0  0  0  0  0
   34.7830   31.2990   41.3280 H   0  0  0  0  0  0  0  0  0  0  0  0
   33.3970   28.6710   36.4340 C   0  0  0  0  0  0  0  0  0  0  0  0
   33.0470   27.6350   36.3030 H   0  0  0  0  0  0  0  0  0  0  0  0
   33.6800   29.1220   35.4530 H   0  0  0  0  0  0  0  0  0  0  0  0
   32.2730   29.4530   37.0810 C   0  0  0  0  0  0  0  0  0  0  0  0
   31.8280   28.9150   37.9320 H   0  0  0  0  0  0  0  0  0  0  0  0
   32.7600   30.3570   37.5440 H   0  0  0  0  0  0  0  0  0  0  0  0
   31.3570   29.9560   36.1090 N   0  0  0  0  0  0  0  0  0  0  0  0
   32.0700   30.1490   34.8600 C   0  0  0  0  0  2  0  0  0  0  0  0
   31.1260   31.0670   34.1110 C   0  0  0  0  0  2  0  0  0  0  0  0
   30.8540   32.1020   35.2100 C   0  0  0  0  0  2  0  0  0  0  0  0
   30.7630   31.2130   36.4560 C   0  0  0  0  0  3  0  0  0  0  0  0
   29.6600   31.0430   36.5980 H   0  0  0  0  0  0  0  0  0  0  0  0
  1  2  2  0  0  0  0
  1  9  1  0  0  0  0
  2  6  1  0  0  0  0
  3  2  1  0  0  0  0
  4  5  2  0  0  0  0
  4  3  1  0  0  0  0
  5  1  1  0  0  0  0
  7 13  1  0  0  0  0
  8  7  1  0  0  0  0
  8 15  1  0  0  0  0
  9  8  2  0  0  0  0
 10 11  2  0  0  0  0
 10  9  1  0  0  0  0
 11 12  1  0  0  0  0
 12  7  2  0  0  0  0
 14 11  1  0  0  0  0
 15 17  1  0  0  0  0
 15 16  1  0  0  0  0
 18 21  1  0  0  0  0
 18  4  1  0  0  0  0
 19 18  1  0  0  0  0
 20 18  1  0  0  0  0
 21 23  1  0  0  0  0
 21 22  1  0  0  0  0
 24 28  1  0  0  0  0
 24 21  1  0  0  0  0
 25 24  1  0  0  0  0
 26 25  1  0  0  0  0
 26 27  1  0  0  0  0
 27 28  1  0  0  0  0
 28 29  1  0  0  0  0
M  END
>  <minimizedAffinity>
-4.47422934

$$$$
