
 OpenBabel03252504053D

 16 17  0  0  0  0  0  0  0  0999 V2000
   37.0860   32.0690   39.7560 C   0  0  0  0  0  0  0  0  0  0  0  0
   36.7530   31.0960   40.7280 C   0  0  0  0  0  0  0  0  0  0  0  0
   37.7280   30.1090   40.9650 C   0  0  0  0  0  0  0  0  0  0  0  0
   38.8900   30.1270   40.2870 N   0  0  0  0  0  0  0  0  0  0  0  0
   39.1620   31.0870   39.3600 C   0  0  0  0  0  0  0  0  0  0  0  0
   38.2430   32.0590   39.1040 N   0  0  0  0  0  0  0  0  0  0  0  0
   36.3370   32.8310   39.5720 H   0  0  0  0  0  0  0  0  0  0  0  0
   40.1170   31.0310   38.8610 H   0  0  0  0  0  0  0  0  0  0  0  0
   37.3980   29.1260   41.9430 N   0  0  0  0  0  0  0  0  0  0  0  0
   36.5920   27.9210   41.8080 C   0  0  0  0  0  2  0  0  0  0  0  0
   37.6110   26.9100   42.3340 C   0  0  0  0  0  2  0  0  0  0  0  0
   37.9020   27.5520   43.6740 C   0  0  0  0  0  2  0  0  0  0  0  0
   37.7530   29.0200   43.3450 C   0  0  0  0  0  3  0  0  0  0  0  0
   38.7680   29.4640   43.5460 H   0  0  0  0  0  0  0  0  0  0  0  0
   35.5650   31.0740   41.4240 O   0  0  0  0  0  0  0  0  0  0  0  0
   35.2550   31.9540   41.8490 H   0  0  0  0  0  0  0  0  0  0  0  0
  1  2  1  0  0  0  0
  2  3  2  0  0  0  0
  2 15  1  0  0  0  0
  3  9  1  0  0  0  0
  4  3  1  0  0  0  0
  5  4  2  0  0  0  0
  6  5  1  0  0  0  0
  6  1  2  0  0  0  0
  7  1  1  0  0  0  0
  8  5  1  0  0  0  0
  9 13  1  0  0  0  0
 10  9  1  0  0  0  0
 10 11  1  0  0  0  0
 11 12  1  0  0  0  0
 13 14  1  0  0  0  0
 13 12  1  0  0  0  0
 15 16  1  0  0  0  0
M  END
>  <minimizedAffinity>
-4.43676043

$$$$

 OpenBabel03252504053D

 16 17  0  0  0  0  0  0  0  0999 V2000
   35.7400   28.6770   41.0180 C   0  0  0  0  0  0  0  0  0  0  0  0
   36.2460   29.9820   40.8010 C   0  0  0  0  0  0  0  0  0  0  0  0
   37.4020   30.0650   40.0020 C   0  0  0  0  0  0  0  0  0  0  0  0
   37.9580   28.9490   39.4970 N   0  0  0  0  0  0  0  0  0  0  0  0
   37.4320   27.7160   39.7350 C   0  0  0  0  0  0  0  0  0  0  0  0
   36.3140   27.5950   40.5030 N   0  0  0  0  0  0  0  0  0  0  0  0
   34.8500   28.6100   41.6320 H   0  0  0  0  0  0  0  0  0  0  0  0
   37.9380   26.8720   39.2930 H   0  0  0  0  0  0  0  0  0  0  0  0
   37.9150   31.3760   39.7810 N   0  0  0  0  0  0  0  0  0  0  0  0
   37.6680   32.2920   38.6770 C   0  0  0  0  0  2  0  0  0  0  0  0
   37.2080   33.5030   39.4900 C   0  0  0  0  0  2  0  0  0  0  0  0
   38.4050   33.6330   40.4070 C   0  0  0  0  0  2  0  0  0  0  0  0
   38.8210   32.1890   40.5690 C   0  0  0  0  0  3  0  0  0  0  0  0
   38.7100   31.9800   41.6700 H   0  0  0  0  0  0  0  0  0  0  0  0
   35.6790   31.1250   41.3170 O   0  0  0  0  0  0  0  0  0  0  0  0
   34.6660   31.2380   41.2040 H   0  0  0  0  0  0  0  0  0  0  0  0
  1  7  1  0  0  0  0
  2  1  1  0  0  0  0
  2 15  1  0  0  0  0
  3  2  2  0  0  0  0
  4  5  2  0  0  0  0
  4  3  1  0  0  0  0
  5  6  1  0  0  0  0
  6  1  2  0  0  0  0
  8  5  1  0  0  0  0
  9  3  1  0  0  0  0
  9 13  1  0  0  0  0
 10 11  1  0  0  0  0
 10  9  1  0  0  0  0
 11 12  1  0  0  0  0
 12 13  1  0  0  0  0
 13 14  1  0  0  0  0
 16 15  1  0  0  0  0
M  END
>  <minimizedAffinity>
-4.02651358

$$$$

 OpenBabel03252504053D

 16 17  0  0  0  0  0  0  0  0999 V2000
   37.2650   28.7870   42.9830 C   0  0  0  0  0  0  0  0  0  0  0  0
   37.1980   29.8270   42.0250 C   0  0  0  0  0  0  0  0  0  0  0  0
   38.4290   30.2300   41.4730 C   0  0  0  0  0  0  0  0  0  0  0  0
   39.5730   29.6370   41.8600 N   0  0  0  0  0  0  0  0  0  0  0  0
   39.5820   28.6390   42.7870 C   0  0  0  0  0  0  0  0  0  0  0  0
   38.4120   28.2210   43.3430 N   0  0  0  0  0  0  0  0  0  0  0  0
   36.3190   28.4730   43.4100 H   0  0  0  0  0  0  0  0  0  0  0  0
   40.5420   28.2160   43.0420 H   0  0  0  0  0  0  0  0  0  0  0  0
   38.3670   31.2770   40.5080 N   0  0  0  0  0  0  0  0  0  0  0  0
   38.3650   31.1970   39.0550 C   0  0  0  0  0  2  0  0  0  0  0  0
   37.0870   31.9960   38.7890 C   0  0  0  0  0  2  0  0  0  0  0  0
   37.4480   33.2620   39.5360 C   0  0  0  0  0  2  0  0  0  0  0  0
   38.2880   32.7160   40.6680 C   0  0  0  0  0  3  0  0  0  0  0  0
   37.7260   32.9960   41.6040 H   0  0  0  0  0  0  0  0  0  0  0  0
   36.0300   30.4360   41.6260 O   0  0  0  0  0  0  0  0  0  0  0  0
   35.2460   29.8260   41.3730 H   0  0  0  0  0  0  0  0  0  0  0  0
  1  6  1  0  0  0  0
  1  7  1  0  0  0  0
  2  1  2  0  0  0  0
  3  4  2  0  0  0  0
  3  2  1  0  0  0  0
  4  5  1  0  0  0  0
  5  8  1  0  0  0  0
  5  6  2  0  0  0  0
  9 13  1  0  0  0  0
  9  3  1  0  0  0  0
 10  9  1  0  0  0  0
 11 10  1  0  0  0  0
 11 12  1  0  0  0  0
 12 13  1  0  0  0  0
 13 14  1  0  0  0  0
 15  2  1  0  0  0  0
 16 15  1  0  0  0  0
M  END
>  <minimizedAffinity>
-4.00958824

$$$$

 OpenBabel03252504053D

 16 17  0  0  0  0  0  0  0  0999 V2000
   37.0050   26.8790   42.8780 C   0  0  0  0  0  0  0  0  0  0  0  0
   37.1220   28.2740   42.6710 C   0  0  0  0  0  0  0  0  0  0  0  0
   37.3360   28.6800   41.3400 C   0  0  0  0  0  0  0  0  0  0  0  0
   37.4190   27.7640   40.3570 N   0  0  0  0  0  0  0  0  0  0  0  0
   37.2990   26.4310   40.6100 C   0  0  0  0  0  0  0  0  0  0  0  0
   37.0900   26.0010   41.8850 N   0  0  0  0  0  0  0  0  0  0  0  0
   36.8390   26.5640   43.9020 H   0  0  0  0  0  0  0  0  0  0  0  0
   37.3770   25.7620   39.7660 H   0  0  0  0  0  0  0  0  0  0  0  0
   37.4550   30.0830   41.1260 N   0  0  0  0  0  0  0  0  0  0  0  0
   38.6420   30.9250   41.1540 C   0  0  0  0  0  2  0  0  0  0  0  0
   38.4990   31.5610   39.7700 C   0  0  0  0  0  2  0  0  0  0  0  0
   37.0980   32.1180   39.9170 C   0  0  0  0  0  2  0  0  0  0  0  0
   36.4570   31.0880   40.8190 C   0  0  0  0  0  3  0  0  0  0  0  0
   35.6140   30.6570   40.2080 H   0  0  0  0  0  0  0  0  0  0  0  0
   37.0380   29.2140   43.6730 O   0  0  0  0  0  0  0  0  0  0  0  0
   36.2520   29.1330   44.3260 H   0  0  0  0  0  0  0  0  0  0  0  0
  1  7  1  0  0  0  0
  2  1  1  0  0  0  0
  2 15  1  0  0  0  0
  3  2  2  0  0  0  0
  4  5  2  0  0  0  0
  4  3  1  0  0  0  0
  5  6  1  0  0  0  0
  6  1  2  0  0  0  0
  8  5  1  0  0  0  0
  9 10  1  0  0  0  0
  9  3  1  0  0  0  0
 11 12  1  0  0  0  0
 11 10  1  0  0  0  0
 12 13  1  0  0  0  0
 13  9  1  0  0  0  0
 14 13  1  0  0  0  0
 15 16  1  0  0  0  0
M  END
>  <minimizedAffinity>
-3.87147474

$$$$

 OpenBabel03252504053D

 16 17  0  0  0  0  0  0  0  0999 V2000
   42.1670   32.7910   37.2090 C   0  0  0  0  0  0  0  0  0  0  0  0
   40.8410   32.5790   37.6570 C   0  0  0  0  0  0  0  0  0  0  0  0
   40.6690   32.5160   39.0530 C   0  0  0  0  0  0  0  0  0  0  0  0
   41.7270   32.6540   39.8730 N   0  0  0  0  0  0  0  0  0  0  0  0
   42.9840   32.8580   39.3900 C   0  0  0  0  0  0  0  0  0  0  0  0
   43.1890   32.9250   38.0460 N   0  0  0  0  0  0  0  0  0  0  0  0
   42.3020   32.8410   36.1350 H   0  0  0  0  0  0  0  0  0  0  0  0
   43.7780   32.9590   40.1150 H   0  0  0  0  0  0  0  0  0  0  0  0
   39.3360   32.3020   39.5090 N   0  0  0  0  0  0  0  0  0  0  0  0
   38.4030   33.2420   40.1130 C   0  0  0  0  0  2  0  0  0  0  0  0
   37.2280   33.0380   39.1550 C   0  0  0  0  0  2  0  0  0  0  0  0
   37.0790   31.5380   39.2900 C   0  0  0  0  0  2  0  0  0  0  0  0
   38.5110   31.1100   39.5140 C   0  0  0  0  0  3  0  0  0  0  0  0
   38.7510   30.4400   38.6400 H   0  0  0  0  0  0  0  0  0  0  0  0
   39.7560   32.4370   36.8210 O   0  0  0  0  0  0  0  0  0  0  0  0
   39.6490   33.1280   36.0720 H   0  0  0  0  0  0  0  0  0  0  0  0
  1  2  2  0  0  0  0
  1  6  1  0  0  0  0
  2  3  1  0  0  0  0
  3  9  1  0  0  0  0
  3  4  2  0  0  0  0
  5  4  1  0  0  0  0
  5  8  1  0  0  0  0
  6  5  2  0  0  0  0
  7  1  1  0  0  0  0
  9 13  1  0  0  0  0
  9 10  1  0  0  0  0
 11 12  1  0  0  0  0
 11 10  1  0  0  0  0
 12 13  1  0  0  0  0
 14 13  1  0  0  0  0
 15  2  1  0  0  0  0
 16 15  1  0  0  0  0
M  END
>  <minimizedAffinity>
-3.77654147

$$$$

 OpenBabel03252504053D

 16 17  0  0  0  0  0  0  0  0999 V2000
   37.0780   30.3440   41.4920 C   0  0  0  0  0  0  0  0  0  0  0  0
   37.3860   29.2260   42.3050 C   0  0  0  0  0  0  0  0  0  0  0  0
   38.2580   28.2780   41.7370 C   0  0  0  0  0  0  0  0  0  0  0  0
   38.7450   28.4630   40.4960 N   0  0  0  0  0  0  0  0  0  0  0  0
   38.4180   29.5580   39.7550 C   0  0  0  0  0  0  0  0  0  0  0  0
   37.5780   30.4970   40.2710 N   0  0  0  0  0  0  0  0  0  0  0  0
   36.4070   31.0750   41.9270 H   0  0  0  0  0  0  0  0  0  0  0  0
   38.8520   29.6320   38.7700 H   0  0  0  0  0  0  0  0  0  0  0  0
   38.5710   27.1500   42.5500 N   0  0  0  0  0  0  0  0  0  0  0  0
   38.0200   25.8030   42.5130 C   0  0  0  0  0  2  0  0  0  0  0  0
   39.3320   25.0290   42.3760 C   0  0  0  0  0  2  0  0  0  0  0  0
   40.0540   25.5840   43.5860 C   0  0  0  0  0  2  0  0  0  0  0  0
   39.5130   26.9940   43.6410 C   0  0  0  0  0  3  0  0  0  0  0  0
   40.4150   27.6540   43.5020 H   0  0  0  0  0  0  0  0  0  0  0  0
   36.8890   29.0330   43.5740 O   0  0  0  0  0  0  0  0  0  0  0  0
   36.9440   29.8240   44.2240 H   0  0  0  0  0  0  0  0  0  0  0  0
  1  7  1  0  0  0  0
  1  2  1  0  0  0  0
  2 15  1  0  0  0  0
  3  2  2  0  0  0  0
  3  9  1  0  0  0  0
  4  3  1  0  0  0  0
  5  6  1  0  0  0  0
  5  4  2  0  0  0  0
  6  1  2  0  0  0  0
  8  5  1  0  0  0  0
  9 13  1  0  0  0  0
 10  9  1  0  0  0  0
 11 10  1  0  0  0  0
 11 12  1  0  0  0  0
 12 13  1  0  0  0  0
 14 13  1  0  0  0  0
 15 16  1  0  0  0  0
M  END
>  <minimizedAffinity>
-3.74217391

$$$$

 OpenBabel03252504053D

 16 17  0  0  0  0  0  0  0  0999 V2000
   38.6370   27.2520   43.6790 C   0  0  0  0  0  0  0  0  0  0  0  0
   38.1050   28.3330   42.9370 C   0  0  0  0  0  0  0  0  0  0  0  0
   38.5310   28.4250   41.5980 C   0  0  0  0  0  0  0  0  0  0  0  0
   39.3920   27.5210   41.0970 N   0  0  0  0  0  0  0  0  0  0  0  0
   39.8750   26.4970   41.8550 C   0  0  0  0  0  0  0  0  0  0  0  0
   39.4850   26.3750   43.1540 N   0  0  0  0  0  0  0  0  0  0  0  0
   38.3090   27.1780   44.7100 H   0  0  0  0  0  0  0  0  0  0  0  0
   40.5610   25.8140   41.3780 H   0  0  0  0  0  0  0  0  0  0  0  0
   37.9990   29.5130   40.8460 N   0  0  0  0  0  0  0  0  0  0  0  0
   36.8430   29.5480   39.9630 C   0  0  0  0  0  2  0  0  0  0  0  0
   36.0970   30.7120   40.6160 C   0  0  0  0  0  2  0  0  0  0  0  0
   37.1990   31.7500   40.5620 C   0  0  0  0  0  2  0  0  0  0  0  0
   38.4310   30.8920   40.7290 C   0  0  0  0  0  3  0  0  0  0  0  0
   38.9070   31.2560   41.6830 H   0  0  0  0  0  0  0  0  0  0  0  0
   37.2240   29.2610   43.4460 O   0  0  0  0  0  0  0  0  0  0  0  0
   36.4140   28.9040   43.9630 H   0  0  0  0  0  0  0  0  0  0  0  0
  1  7  1  0  0  0  0
  2 15  1  0  0  0  0
  2  1  2  0  0  0  0
  3  2  1  0  0  0  0
  4  3  2  0  0  0  0
  4  5  1  0  0  0  0
  5  6  2  0  0  0  0
  6  1  1  0  0  0  0
  8  5  1  0  0  0  0
  9  3  1  0  0  0  0
 10 11  1  0  0  0  0
 10  9  1  0  0  0  0
 12 11  1  0  0  0  0
 12 13  1  0  0  0  0
 13  9  1  0  0  0  0
 13 14  1  0  0  0  0
 15 16  1  0  0  0  0
M  END
>  <minimizedAffinity>
-3.61130953

$$$$

 OpenBabel03252504053D

 16 17  0  0  0  0  0  0  0  0999 V2000
   39.6090   32.2420   40.7630 C   0  0  0  0  0  0  0  0  0  0  0  0
   39.5720   31.2970   41.8170 C   0  0  0  0  0  0  0  0  0  0  0  0
   38.9250   30.0810   41.5260 C   0  0  0  0  0  0  0  0  0  0  0  0
   38.3880   29.8730   40.3100 N   0  0  0  0  0  0  0  0  0  0  0  0
   38.4510   30.8160   39.3290 C   0  0  0  0  0  0  0  0  0  0  0  0
   39.0700   32.0040   39.5730 N   0  0  0  0  0  0  0  0  0  0  0  0
   40.1070   33.1790   40.9840 H   0  0  0  0  0  0  0  0  0  0  0  0
   37.9970   30.5700   38.3810 H   0  0  0  0  0  0  0  0  0  0  0  0
   38.8850   29.1270   42.5830 N   0  0  0  0  0  0  0  0  0  0  0  0
   37.8280   28.8600   43.5480 C   0  0  0  0  0  2  0  0  0  0  0  0
   37.6680   27.3590   43.2950 C   0  0  0  0  0  2  0  0  0  0  0  0
   39.1050   26.9350   43.5180 C   0  0  0  0  0  2  0  0  0  0  0  0
   39.8590   28.1450   43.0180 C   0  0  0  0  0  3  0  0  0  0  0  0
   40.4720   27.7640   42.1530 H   0  0  0  0  0  0  0  0  0  0  0  0
   40.1200   31.5070   43.0620 O   0  0  0  0  0  0  0  0  0  0  0  0
   41.0780   31.8690   43.0970 H   0  0  0  0  0  0  0  0  0  0  0  0
  1  7  1  0  0  0  0
  1  2  1  0  0  0  0
  2 15  1  0  0  0  0
  3  2  2  0  0  0  0
  3  9  1  0  0  0  0
  4  3  1  0  0  0  0
  5  6  1  0  0  0  0
  5  4  2  0  0  0  0
  6  1  2  0  0  0  0
  8  5  1  0  0  0  0
  9 13  1  0  0  0  0
  9 10  1  0  0  0  0
 11 12  1  0  0  0  0
 11 10  1  0  0  0  0
 13 12  1  0  0  0  0
 14 13  1  0  0  0  0
 15 16  1  0  0  0  0
M  END
>  <minimizedAffinity>
-3.60570717

$$$$

 OpenBabel03252504053D

 16 17  0  0  0  0  0  0  0  0999 V2000
   38.6540   30.6640   38.9990 C   0  0  0  0  0  0  0  0  0  0  0  0
   38.4900   29.7380   40.0570 C   0  0  0  0  0  0  0  0  0  0  0  0
   37.4950   30.0570   41.0000 C   0  0  0  0  0  0  0  0  0  0  0  0
   36.7700   31.1830   40.8670 N   0  0  0  0  0  0  0  0  0  0  0  0
   36.9680   32.0420   39.8290 C   0  0  0  0  0  0  0  0  0  0  0  0
   37.9210   31.7670   38.8960 N   0  0  0  0  0  0  0  0  0  0  0  0
   39.4190   30.4210   38.2700 H   0  0  0  0  0  0  0  0  0  0  0  0
   36.3450   32.9230   39.7940 H   0  0  0  0  0  0  0  0  0  0  0  0
   37.3250   29.1290   42.0670 N   0  0  0  0  0  0  0  0  0  0  0  0
   36.3950   28.0150   42.1850 C   0  0  0  0  0  2  0  0  0  0  0  0
   37.4080   26.9070   42.4800 C   0  0  0  0  0  2  0  0  0  0  0  0
   38.0890   27.5330   43.6790 C   0  0  0  0  0  2  0  0  0  0  0  0
   38.0100   29.0030   43.3400 C   0  0  0  0  0  3  0  0  0  0  0  0
   39.0820   29.3390   43.2640 H   0  0  0  0  0  0  0  0  0  0  0  0
   39.2290   28.5850   40.1960 O   0  0  0  0  0  0  0  0  0  0  0  0
   39.3290   27.9890   39.3690 H   0  0  0  0  0  0  0  0  0  0  0  0
  1  2  1  0  0  0  0
  2 15  1  0  0  0  0
  2  3  2  0  0  0  0
  3  9  1  0  0  0  0
  4  3  1  0  0  0  0
  5  4  2  0  0  0  0
  6  1  2  0  0  0  0
  6  5  1  0  0  0  0
  7  1  1  0  0  0  0
  8  5  1  0  0  0  0
  9 10  1  0  0  0  0
  9 13  1  0  0  0  0
 10 11  1  0  0  0  0
 11 12  1  0  0  0  0
 13 12  1  0  0  0  0
 14 13  1  0  0  0  0
 16 15  1  0  0  0  0
M  END
>  <minimizedAffinity>
-3.56052828

$$$$
