
 OpenBabel03252504393D

 42 45  0  0  0  0  0  0  0  0999 V2000
   45.9950   32.1560   48.3040 C   0  0  0  0  0  0  0  0  0  0  0  0
   45.6000   31.3420   49.3220 C   0  0  0  0  0  0  0  0  0  0  0  0
   46.6820   30.6330   49.6830 N   0  0  0  0  0  0  0  0  0  0  0  0
   47.7340   30.9630   48.9420 C   0  0  0  0  0  0  0  0  0  0  0  0
   47.3020   31.9280   48.0660 N   0  0  0  0  0  0  0  0  0  0  0  0
   49.0850   30.5060   48.9440 N   0  0  0  0  0  0  0  0  0  0  0  0
   50.0460   31.2230   49.8150 C   0  0  0  0  0  0  0  0  0  0  0  0
   50.2540   30.3020   51.0110 C   0  0  0  0  0  0  0  0  0  0  0  0
   50.5130   28.8900   50.5290 C   0  0  0  0  0  0  0  0  0  0  0  0
   50.8930   28.9010   49.0670 C   0  0  0  0  0  0  0  0  0  0  0  0
   49.7410   29.4480   48.2480 C   0  0  0  0  0  0  0  0  0  0  0  0
   44.5990   31.3140   49.7210 H   0  0  0  0  0  0  0  0  0  0  0  0
   46.7300   29.9220   50.4270 H   0  0  0  0  0  0  0  0  0  0  0  0
   49.6170   32.1740   50.1460 H   0  0  0  0  0  0  0  0  0  0  0  0
   51.0000   31.4060   49.3010 H   0  0  0  0  0  0  0  0  0  0  0  0
   49.4580   30.3820   51.7560 H   0  0  0  0  0  0  0  0  0  0  0  0
   51.2230   30.6380   51.4690 H   0  0  0  0  0  0  0  0  0  0  0  0
   51.3080   28.3850   51.1130 H   0  0  0  0  0  0  0  0  0  0  0  0
   49.5810   28.2970   50.6600 H   0  0  0  0  0  0  0  0  0  0  0  0
   51.8380   29.4180   48.9000 H   0  0  0  0  0  0  0  0  0  0  0  0
   50.9910   27.8300   48.7610 H   0  0  0  0  0  0  0  0  0  0  0  0
   50.1860   29.8730   47.3220 H   0  0  0  0  0  0  0  0  0  0  0  0
   49.0580   28.6480   47.8990 H   0  0  0  0  0  0  0  0  0  0  0  0
   45.1590   33.1420   47.5760 C   0  0  0  0  0  0  0  0  0  0  0  0
   45.2770   34.1000   48.1470 H   0  0  0  0  0  0  0  0  0  0  0  0
   44.0770   32.8670   47.5750 H   0  0  0  0  0  0  0  0  0  0  0  0
   45.2030   34.3610   45.4320 C   0  0  0  0  0  0  0  0  0  0  0  0
   45.6710   33.4140   46.2250 C   0  0  0  0  0  0  0  0  0  0  0  0
   45.8320   34.5060   44.1070 C   0  0  0  0  0  0  0  0  0  0  0  0
   45.2180   35.3010   43.1150 C   0  0  0  0  0  0  0  0  0  0  0  0
   45.8850   35.3840   41.8930 C   0  0  0  0  0  0  0  0  0  0  0  0
   47.0410   34.7310   41.7070 N   0  0  0  0  0  0  0  0  0  0  0  0
   47.6030   33.9780   42.6780 C   0  0  0  0  0  0  0  0  0  0  0  0
   46.9950   33.8810   43.8460 N   0  0  0  0  0  0  0  0  0  0  0  0
   44.2870   35.7910   43.3490 H   0  0  0  0  0  0  0  0  0  0  0  0
   45.4280   35.9910   41.1170 H   0  0  0  0  0  0  0  0  0  0  0  0
   48.8240   33.3150   42.4180 N   0  0  0  0  0  0  0  0  0  0  0  0
   48.9350   31.8850   42.1740 C   0  0  0  0  0  0  0  0  0  0  0  0
   50.3820   31.6230   42.5290 C   0  0  0  0  0  0  0  0  0  0  0  0
   51.0540   32.8320   41.8720 C   0  0  0  0  0  0  0  0  0  0  0  0
   50.1210   33.9400   42.3540 C   0  0  0  0  0  0  0  0  0  0  0  0
   50.0970   34.7640   41.6030 H   0  0  0  0  0  0  0  0  0  0  0  0
  1  2  2  0  0  0  0
  2  3  1  0  0  0  0
  2 12  1  0  0  0  0
  3 13  1  0  0  0  0
  4  6  1  0  0  0  0
  4  3  1  0  0  0  0
  5  1  1  0  0  0  0
  5  4  2  0  0  0  0
  6  7  1  0  0  0  0
  7 14  1  0  0  0  0
  7  8  1  0  0  0  0
  8 17  1  0  0  0  0
  8 16  1  0  0  0  0
  9 19  1  0  0  0  0
  9  8  1  0  0  0  0
  9 18  1  0  0  0  0
 10  9  1  0  0  0  0
 11  6  1  0  0  0  0
 11 10  1  0  0  0  0
 15  7  1  0  0  0  0
 20 10  1  0  0  0  0
 21 10  1  0  0  0  0
 22 11  1  0  0  0  0
 23 11  1  0  0  0  0
 24 25  1  0  0  0  0
 24  1  1  0  0  0  0
 26 24  1  0  0  0  0
 27 28  2  0  0  0  0
 28 24  1  0  0  0  0
 29 27  1  0  0  0  0
 30 35  1  0  0  0  0
 30 29  2  0  0  0  0
 31 30  1  0  0  0  0
 32 31  2  0  0  0  0
 32 33  1  0  0  0  0
 33 34  2  0  0  0  0
 34 29  1  0  0  0  0
 36 31  1  0  0  0  0
 37 33  1  0  0  0  0
 38 37  1  0  0  0  0
 38 39  1  0  0  0  0
 40 41  1  0  0  0  0
 40 39  1  0  0  0  0
 41 37  1  0  0  0  0
 42 41  1  0  0  0  0
M  END
>  <minimizedAffinity>
-6.57103062

>  <minimizedRMSD>
1.25934517

$$$$
