
 OpenBabel03252509223D

 24 26  0  0  1  0  0  0  0  0999 V2000
   46.5800   34.9710   41.9580 C   0  0  1  0  0  0  0  0  0  0  0  0
   48.0750   35.3900   42.0030 C   0  0  0  0  0  0  0  0  0  0  0  0
   47.5220   34.0180   41.4960 C   0  0  2  0  0  0  0  0  0  0  0  0
   45.9530   35.6380   41.3450 H   0  0  0  0  0  0  0  0  0  0  0  0
   48.6120   35.3630   42.9470 H   0  0  0  0  0  0  0  0  0  0  0  0
   48.3250   36.1260   41.2460 H   0  0  0  0  0  0  0  0  0  0  0  0
   47.7660   33.1590   42.1940 H   0  0  0  0  0  0  0  0  0  0  0  0
   44.6090   35.4700   45.1140 C   0  0  0  0  0  0  0  0  0  0  0  0
   45.1000   35.7220   43.7890 C   0  0  0  0  0  0  0  0  0  0  0  0
   46.0530   34.8280   43.3770 C   0  0  0  0  0  0  0  0  0  0  0  0
   46.4960   33.7800   44.1850 N   0  0  0  0  0  0  0  0  0  0  0  0
   45.9910   33.6110   45.4100 C   0  0  0  0  0  0  0  0  0  0  0  0
   45.0380   34.4600   45.8840 N   0  0  0  0  0  0  0  0  0  0  0  0
   43.8610   36.1350   45.4910 H   0  0  0  0  0  0  0  0  0  0  0  0
   46.4600   32.7510   45.8680 H   0  0  0  0  0  0  0  0  0  0  0  0
   44.6580   36.8040   42.9900 N   0  0  0  0  0  0  0  0  0  0  0  0
   43.8840   36.8250   42.2980 H   0  0  0  0  0  0  0  0  0  0  0  0
   45.3870   37.4640   43.3870 H   0  0  0  0  0  0  0  0  0  0  0  0
   47.8960   33.7630   40.1440 N   0  0  1  0  0  0  0  0  0  0  0  0
   48.7840   32.6200   40.1120 C   0  0  0  0  0  2  0  0  0  0  0  0
   47.9370   31.4250   39.7410 C   0  0  0  0  0  2  0  0  0  0  0  0
   46.5210   31.9420   39.7620 C   0  0  0  0  0  2  0  0  0  0  0  0
   46.7540   33.3840   39.3270 C   0  0  0  0  0  3  0  0  0  0  0  0
   45.8900   34.0250   39.4900 H   0  0  0  0  0  0  0  0  0  0  0  0
  1  4  1  6  0  0  0
  1  2  1  0  0  0  0
  1 10  1  0  0  0  0
  2  5  1  0  0  0  0
  3  1  1  0  0  0  0
  3  2  1  0  0  0  0
  3  7  1  1  0  0  0
  6  2  1  0  0  0  0
  8 14  1  0  0  0  0
  8 13  1  0  0  0  0
  9  8  2  0  0  0  0
 10  9  1  0  0  0  0
 10 11  2  0  0  0  0
 11 12  1  0  0  0  0
 12 15  1  0  0  0  0
 12 13  2  0  0  0  0
 16 18  1  0  0  0  0
 16  9  1  0  0  0  0
 17 16  1  0  0  0  0
 19 20  1  1  0  0  0
 19  3  1  0  0  0  0
 21 22  1  0  0  0  0
 21 20  1  0  0  0  0
 23 24  1  0  0  0  0
 23 22  1  0  0  0  0
 23 19  1  0  0  0  0
M  END
>  <minimizedAffinity>
-4.46032906

>  <minimizedRMSD>
1.47898829

$$$$
