
 OpenBabel03252508433D

 28 30  0  0  0  0  0  0  0  0999 V2000
   45.7140   34.1260   41.4210 C   0  0  0  0  0  0  0  0  0  0  0  0
   47.0040   34.4080   40.9710 C   0  0  0  0  0  0  0  0  0  0  0  0
   47.3600   33.9980   39.7090 C   0  0  0  0  0  0  0  0  0  0  0  0
   46.4590   33.3320   38.9280 C   0  0  0  0  0  0  0  0  0  0  0  0
   45.1790   33.0370   39.3370 C   0  0  0  0  0  0  0  0  0  0  0  0
   44.8430   33.4660   40.6260 C   0  0  0  0  0  0  0  0  0  0  0  0
   48.3390   34.1820   39.2890 H   0  0  0  0  0  0  0  0  0  0  0  0
   46.7350   33.0060   37.9300 H   0  0  0  0  0  0  0  0  0  0  0  0
   44.4580   32.5100   38.7240 H   0  0  0  0  0  0  0  0  0  0  0  0
   43.8430   33.2700   41.0250 H   0  0  0  0  0  0  0  0  0  0  0  0
   44.5980   36.1880   44.4020 C   0  0  0  0  0  0  0  0  0  0  0  0
   44.8870   35.8360   43.0660 C   0  0  0  0  0  0  0  0  0  0  0  0
   45.3840   34.5820   42.7690 C   0  0  0  0  0  0  0  0  0  0  0  0
   45.5700   33.7410   43.8090 N   0  0  0  0  0  0  0  0  0  0  0  0
   45.2970   34.0710   45.0950 C   0  0  0  0  0  0  0  0  0  0  0  0
   44.8120   35.2890   45.3910 N   0  0  0  0  0  0  0  0  0  0  0  0
   44.2140   37.1510   44.6480 H   0  0  0  0  0  0  0  0  0  0  0  0
   44.7280   36.5250   42.2660 H   0  0  0  0  0  0  0  0  0  0  0  0
   45.4650   33.3540   45.8970 H   0  0  0  0  0  0  0  0  0  0  0  0
   47.9520   35.1410   41.8490 C   0  0  0  0  0  0  0  0  0  0  0  0
   48.5670   35.8060   41.1770 H   0  0  0  0  0  0  0  0  0  0  0  0
   47.3990   35.8200   42.5300 H   0  0  0  0  0  0  0  0  0  0  0  0
   48.7550   34.2030   42.5630 N   0  0  0  0  0  0  0  0  0  0  0  0
   48.6560   32.8940   42.0090 C   0  0  0  0  0  0  0  0  0  0  0  0
   50.0080   32.5760   41.3950 C   0  0  0  0  0  0  0  0  0  0  0  0
   50.9080   33.3350   42.3830 C   0  0  0  0  0  0  0  0  0  0  0  0
   50.1300   34.6030   42.5760 C   0  0  0  0  0  0  0  0  0  0  0  0
   50.3850   35.2950   41.7280 H   0  0  0  0  0  0  0  0  0  0  0  0
  1 13  1  0  0  0  0
  2  1  1  0  0  0  0
  2 20  1  0  0  0  0
  3  2  2  0  0  0  0
  4  5  2  0  0  0  0
  4  3  1  0  0  0  0
  5  6  1  0  0  0  0
  6 10  1  0  0  0  0
  6  1  2  0  0  0  0
  7  3  1  0  0  0  0
  8  4  1  0  0  0  0
  9  5  1  0  0  0  0
 11 17  1  0  0  0  0
 11 16  1  0  0  0  0
 12 11  2  0  0  0  0
 13 12  1  0  0  0  0
 13 14  2  0  0  0  0
 14 15  1  0  0  0  0
 15 16  2  0  0  0  0
 15 19  1  0  0  0  0
 18 12  1  0  0  0  0
 20 22  1  0  0  0  0
 20 23  1  0  0  0  0
 21 20  1  0  0  0  0
 23 27  1  0  0  0  0
 24 23  1  0  0  0  0
 25 24  1  0  0  0  0
 25 26  1  0  0  0  0
 26 27  1  0  0  0  0
 28 27  1  0  0  0  0
M  END
>  <minimizedAffinity>
-5.1639595

>  <minimizedRMSD>
1.05269623

$$$$
