
 OpenBabel03252508433D

 28 30  0  0  0  0  0  0  0  0999 V2000
   37.3200   31.0460   38.4630 C   0  0  0  0  0  0  0  0  0  0  0  0
   36.5540   30.1480   39.2070 C   0  0  0  0  0  0  0  0  0  0  0  0
   35.8110   29.2100   38.5350 C   0  0  0  0  0  0  0  0  0  0  0  0
   35.8340   29.1700   37.1690 C   0  0  0  0  0  0  0  0  0  0  0  0
   36.5760   30.0390   36.4020 C   0  0  0  0  0  0  0  0  0  0  0  0
   37.3230   30.9850   37.1130 C   0  0  0  0  0  0  0  0  0  0  0  0
   35.1960   28.4780   39.0400 H   0  0  0  0  0  0  0  0  0  0  0  0
   35.2490   28.4300   36.6320 H   0  0  0  0  0  0  0  0  0  0  0  0
   36.6010   30.0150   35.3190 H   0  0  0  0  0  0  0  0  0  0  0  0
   37.9400   31.7110   36.5750 H   0  0  0  0  0  0  0  0  0  0  0  0
   38.4500   34.1600   40.3100 C   0  0  0  0  0  0  0  0  0  0  0  0
   37.6290   33.2790   39.5720 C   0  0  0  0  0  0  0  0  0  0  0  0
   38.0920   32.0260   39.2240 C   0  0  0  0  0  0  0  0  0  0  0  0
   39.3420   31.7070   39.6240 N   0  0  0  0  0  0  0  0  0  0  0  0
   40.1370   32.5470   40.3310 C   0  0  0  0  0  0  0  0  0  0  0  0
   39.6930   33.7680   40.6740 N   0  0  0  0  0  0  0  0  0  0  0  0
   38.1080   35.1310   40.5860 H   0  0  0  0  0  0  0  0  0  0  0  0
   36.6450   33.5630   39.2710 H   0  0  0  0  0  0  0  0  0  0  0  0
   41.1380   32.2390   40.6290 H   0  0  0  0  0  0  0  0  0  0  0  0
   36.5620   30.2190   40.6910 C   0  0  0  0  0  0  0  0  0  0  0  0
   37.0960   31.1740   40.9660 H   0  0  0  0  0  0  0  0  0  0  0  0
   35.5280   30.3240   41.0770 H   0  0  0  0  0  0  0  0  0  0  0  0
   37.2150   29.0650   41.2140 N   0  0  0  0  0  0  0  0  0  0  0  0
   38.2040   29.4080   42.1790 C   0  0  0  0  0  2  0  0  0  0  0  0
   37.6970   28.9100   43.5210 C   0  0  0  0  0  2  0  0  0  0  0  0
   36.9500   27.6550   43.0480 C   0  0  0  0  0  2  0  0  0  0  0  0
   36.2740   28.1630   41.8080 C   0  0  0  0  0  3  0  0  0  0  0  0
   35.3240   28.6770   42.1210 H   0  0  0  0  0  0  0  0  0  0  0  0
  1  2  1  0  0  0  0
  1 13  1  0  0  0  0
  2 20  1  0  0  0  0
  3  7  1  0  0  0  0
  3  2  2  0  0  0  0
  4  3  1  0  0  0  0
  5  6  1  0  0  0  0
  5  4  2  0  0  0  0
  6  1  2  0  0  0  0
  8  4  1  0  0  0  0
  9  5  1  0  0  0  0
 10  6  1  0  0  0  0
 11 17  1  0  0  0  0
 11 16  1  0  0  0  0
 12 11  2  0  0  0  0
 13 12  1  0  0  0  0
 13 14  2  0  0  0  0
 14 15  1  0  0  0  0
 15 19  1  0  0  0  0
 15 16  2  0  0  0  0
 18 12  1  0  0  0  0
 20 21  1  0  0  0  0
 20 22  1  0  0  0  0
 20 23  1  0  0  0  0
 23 27  1  0  0  0  0
 23 24  1  0  0  0  0
 24 25  1  0  0  0  0
 26 25  1  0  0  0  0
 27 28  1  0  0  0  0
 27 26  1  0  0  0  0
M  END
>  <minimizedAffinity>
-5.07126999

$$$$

 OpenBabel03252508433D

 28 30  0  0  0  0  0  0  0  0999 V2000
   37.4300   31.5980   39.8350 C   0  0  0  0  0  0  0  0  0  0  0  0
   38.5630   31.1290   40.5030 C   0  0  0  0  0  0  0  0  0  0  0  0
   39.4810   32.0450   40.9540 C   0  0  0  0  0  0  0  0  0  0  0  0
   39.2730   33.3790   40.7470 C   0  0  0  0  0  0  0  0  0  0  0  0
   38.1690   33.8790   40.0940 C   0  0  0  0  0  0  0  0  0  0  0  0
   37.2510   32.9230   39.6440 C   0  0  0  0  0  0  0  0  0  0  0  0
   40.3800   31.7610   41.4820 H   0  0  0  0  0  0  0  0  0  0  0  0
   39.9950   34.1080   41.1020 H   0  0  0  0  0  0  0  0  0  0  0  0
   37.9970   34.9340   39.9260 H   0  0  0  0  0  0  0  0  0  0  0  0
   36.3470   33.2400   39.1160 H   0  0  0  0  0  0  0  0  0  0  0  0
   35.4820   29.1190   37.7280 C   0  0  0  0  0  0  0  0  0  0  0  0
   36.4330   30.0990   38.0820 C   0  0  0  0  0  0  0  0  0  0  0  0
   36.4840   30.5840   39.3740 C   0  0  0  0  0  0  0  0  0  0  0  0
   35.5910   30.0750   40.2490 N   0  0  0  0  0  0  0  0  0  0  0  0
   34.6730   29.1340   39.9180 C   0  0  0  0  0  0  0  0  0  0  0  0
   34.6190   28.6570   38.6620 N   0  0  0  0  0  0  0  0  0  0  0  0
   35.4290   28.7340   36.7360 H   0  0  0  0  0  0  0  0  0  0  0  0
   37.1260   30.4810   37.3650 H   0  0  0  0  0  0  0  0  0  0  0  0
   33.9760   28.7560   40.6640 H   0  0  0  0  0  0  0  0  0  0  0  0
   38.7470   29.6700   40.7140 C   0  0  0  0  0  0  0  0  0  0  0  0
   37.7700   29.1780   40.4420 H   0  0  0  0  0  0  0  0  0  0  0  0
   39.5010   29.2710   40.0050 H   0  0  0  0  0  0  0  0  0  0  0  0
   39.1120   29.4340   42.0720 N   0  0  0  0  0  0  0  0  0  0  0  0
   37.9690   29.3060   42.9120 C   0  0  0  0  0  2  0  0  0  0  0  0
   37.9220   27.8580   43.3690 C   0  0  0  0  0  2  0  0  0  0  0  0
   39.4310   27.5780   43.4420 C   0  0  0  0  0  2  0  0  0  0  0  0
   39.9170   28.2560   42.1940 C   0  0  0  0  0  3  0  0  0  0  0  0
   39.7700   27.5430   41.3370 H   0  0  0  0  0  0  0  0  0  0  0  0
  1  2  1  0  0  0  0
  2 20  1  0  0  0  0
  2  3  2  0  0  0  0
  3  7  1  0  0  0  0
  4  3  1  0  0  0  0
  4  8  1  0  0  0  0
  5  4  2  0  0  0  0
  6  1  2  0  0  0  0
  6  5  1  0  0  0  0
  9  5  1  0  0  0  0
 10  6  1  0  0  0  0
 11 12  2  0  0  0  0
 11 16  1  0  0  0  0
 12 13  1  0  0  0  0
 13  1  1  0  0  0  0
 13 14  2  0  0  0  0
 15 14  1  0  0  0  0
 15 19  1  0  0  0  0
 16 15  2  0  0  0  0
 17 11  1  0  0  0  0
 18 12  1  0  0  0  0
 20 23  1  0  0  0  0
 21 20  1  0  0  0  0
 22 20  1  0  0  0  0
 23 27  1  0  0  0  0
 23 24  1  0  0  0  0
 24 25  1  0  0  0  0
 25 26  1  0  0  0  0
 27 26  1  0  0  0  0
 28 27  1  0  0  0  0
M  END
>  <minimizedAffinity>
-4.92315912

$$$$

 OpenBabel03252508433D

 28 30  0  0  0  0  0  0  0  0999 V2000
   36.7640   28.4450   41.1810 C   0  0  0  0  0  0  0  0  0  0  0  0
   37.7470   29.3950   41.4610 C   0  0  0  0  0  0  0  0  0  0  0  0
   38.2760   29.4340   42.7280 C   0  0  0  0  0  0  0  0  0  0  0  0
   37.8390   28.5550   43.6780 C   0  0  0  0  0  0  0  0  0  0  0  0
   36.8730   27.6040   43.4390 C   0  0  0  0  0  0  0  0  0  0  0  0
   36.3510   27.5880   42.1410 C   0  0  0  0  0  0  0  0  0  0  0  0
   39.0420   30.1380   43.0200 H   0  0  0  0  0  0  0  0  0  0  0  0
   38.2550   28.5800   44.6800 H   0  0  0  0  0  0  0  0  0  0  0  0
   36.5220   26.9030   44.1860 H   0  0  0  0  0  0  0  0  0  0  0  0
   35.5790   26.8610   41.8710 H   0  0  0  0  0  0  0  0  0  0  0  0
   34.6220   29.0110   38.1030 C   0  0  0  0  0  0  0  0  0  0  0  0
   35.0580   29.0660   39.4450 C   0  0  0  0  0  0  0  0  0  0  0  0
   36.2320   28.4440   39.8210 C   0  0  0  0  0  0  0  0  0  0  0  0
   36.9150   27.7990   38.8500 N   0  0  0  0  0  0  0  0  0  0  0  0
   36.5030   27.7400   37.5600 C   0  0  0  0  0  0  0  0  0  0  0  0
   35.3610   28.3440   37.1880 N   0  0  0  0  0  0  0  0  0  0  0  0
   33.7190   29.4850   37.7970 H   0  0  0  0  0  0  0  0  0  0  0  0
   34.4940   29.5860   40.1880 H   0  0  0  0  0  0  0  0  0  0  0  0
   37.0930   27.2060   36.8170 H   0  0  0  0  0  0  0  0  0  0  0  0
   38.1990   30.3290   40.3980 C   0  0  0  0  0  0  0  0  0  0  0  0
   39.3210   30.2320   40.3390 H   0  0  0  0  0  0  0  0  0  0  0  0
   37.8110   30.0050   39.4110 H   0  0  0  0  0  0  0  0  0  0  0  0
   37.7870   31.6530   40.7270 N   0  0  0  0  0  0  0  0  0  0  0  0
   38.9000   32.5050   40.9840 C   0  0  0  0  0  2  0  0  0  0  0  0
   38.9480   33.5150   39.8520 C   0  0  0  0  0  2  0  0  0  0  0  0
   37.4420   33.6530   39.5850 C   0  0  0  0  0  2  0  0  0  0  0  0
   36.9930   32.2240   39.6810 C   0  0  0  0  0  3  0  0  0  0  0  0
   37.1810   31.7370   38.6840 H   0  0  0  0  0  0  0  0  0  0  0  0
  1  2  2  0  0  0  0
  1  6  1  0  0  0  0
  2  3  1  0  0  0  0
  3  7  1  0  0  0  0
  3  4  2  0  0  0  0
  4  8  1  0  0  0  0
  5  4  1  0  0  0  0
  5  9  1  0  0  0  0
  6  5  2  0  0  0  0
 10  6  1  0  0  0  0
 11 12  1  0  0  0  0
 12 13  2  0  0  0  0
 12 18  1  0  0  0  0
 13  1  1  0  0  0  0
 14 13  1  0  0  0  0
 15 14  2  0  0  0  0
 16 15  1  0  0  0  0
 16 11  2  0  0  0  0
 17 11  1  0  0  0  0
 19 15  1  0  0  0  0
 20 23  1  0  0  0  0
 20  2  1  0  0  0  0
 21 20  1  0  0  0  0
 22 20  1  0  0  0  0
 23 24  1  0  0  0  0
 25 24  1  0  0  0  0
 26 27  1  0  0  0  0
 26 25  1  0  0  0  0
 27 23  1  0  0  0  0
 28 27  1  0  0  0  0
M  END
>  <minimizedAffinity>
-4.91828918

$$$$

 OpenBabel03252508433D

 28 30  0  0  0  0  0  0  0  0999 V2000
   36.4470   30.2080   38.7100 C   0  0  0  0  0  0  0  0  0  0  0  0
   36.4130   30.2840   40.1040 C   0  0  0  0  0  0  0  0  0  0  0  0
   36.8920   31.4210   40.7070 C   0  0  0  0  0  0  0  0  0  0  0  0
   37.3860   32.4430   39.9450 C   0  0  0  0  0  0  0  0  0  0  0  0
   37.4350   32.4030   38.5710 C   0  0  0  0  0  0  0  0  0  0  0  0
   36.9400   31.2330   37.9820 C   0  0  0  0  0  0  0  0  0  0  0  0
   36.8970   31.5570   41.7790 H   0  0  0  0  0  0  0  0  0  0  0  0
   37.7650   33.3440   40.4170 H   0  0  0  0  0  0  0  0  0  0  0  0
   37.8230   33.2080   37.9590 H   0  0  0  0  0  0  0  0  0  0  0  0
   36.9440   31.1250   36.8940 H   0  0  0  0  0  0  0  0  0  0  0  0
   34.1780   27.5080   37.3130 C   0  0  0  0  0  0  0  0  0  0  0  0
   34.5870   28.7290   37.8920 C   0  0  0  0  0  0  0  0  0  0  0  0
   35.9270   28.9780   38.1170 C   0  0  0  0  0  0  0  0  0  0  0  0
   36.7930   28.0070   37.7570 N   0  0  0  0  0  0  0  0  0  0  0  0
   36.4100   26.8320   37.2010 C   0  0  0  0  0  0  0  0  0  0  0  0
   35.1070   26.5830   36.9800 N   0  0  0  0  0  0  0  0  0  0  0  0
   33.1490   27.3010   37.1340 H   0  0  0  0  0  0  0  0  0  0  0  0
   33.8760   29.4770   38.1650 H   0  0  0  0  0  0  0  0  0  0  0  0
   37.1510   26.0820   36.9290 H   0  0  0  0  0  0  0  0  0  0  0  0
   35.8620   29.1540   40.8950 C   0  0  0  0  0  0  0  0  0  0  0  0
   35.1900   29.6060   41.6790 H   0  0  0  0  0  0  0  0  0  0  0  0
   35.2100   28.5220   40.2590 H   0  0  0  0  0  0  0  0  0  0  0  0
   36.9370   28.4120   41.4670 N   0  0  0  0  0  0  0  0  0  0  0  0
   37.0120   28.5910   42.8770 C   0  0  0  0  0  2  0  0  0  0  0  0
   36.6370   27.2610   43.5080 C   0  0  0  0  0  2  0  0  0  0  0  0
   37.2150   26.3170   42.4440 C   0  0  0  0  0  2  0  0  0  0  0  0
   36.8110   27.0140   41.1780 C   0  0  0  0  0  3  0  0  0  0  0  0
   35.7520   26.7170   40.9460 H   0  0  0  0  0  0  0  0  0  0  0  0
  1  2  1  0  0  0  0
  2  3  2  0  0  0  0
  2 20  1  0  0  0  0
  3  7  1  0  0  0  0
  4  8  1  0  0  0  0
  4  3  1  0  0  0  0
  5  4  2  0  0  0  0
  6  5  1  0  0  0  0
  6  1  2  0  0  0  0
  9  5  1  0  0  0  0
 10  6  1  0  0  0  0
 11 12  1  0  0  0  0
 12 13  2  0  0  0  0
 12 18  1  0  0  0  0
 13  1  1  0  0  0  0
 14 13  1  0  0  0  0
 15 14  2  0  0  0  0
 16 15  1  0  0  0  0
 16 11  2  0  0  0  0
 17 11  1  0  0  0  0
 19 15  1  0  0  0  0
 20 23  1  0  0  0  0
 20 21  1  0  0  0  0
 22 20  1  0  0  0  0
 23 24  1  0  0  0  0
 24 25  1  0  0  0  0
 26 25  1  0  0  0  0
 27 23  1  0  0  0  0
 27 26  1  0  0  0  0
 28 27  1  0  0  0  0
M  END
>  <minimizedAffinity>
-4.8287735

$$$$

 OpenBabel03252508433D

 28 30  0  0  0  0  0  0  0  0999 V2000
   37.6570   29.3470   41.6100 C   0  0  0  0  0  0  0  0  0  0  0  0
   37.1660   28.2430   40.9110 C   0  0  0  0  0  0  0  0  0  0  0  0
   36.9090   27.0890   41.6100 C   0  0  0  0  0  0  0  0  0  0  0  0
   37.1340   27.0410   42.9570 C   0  0  0  0  0  0  0  0  0  0  0  0
   37.6170   28.1080   43.6800 C   0  0  0  0  0  0  0  0  0  0  0  0
   37.8700   29.2710   42.9420 C   0  0  0  0  0  0  0  0  0  0  0  0
   36.5250   26.1940   41.1420 H   0  0  0  0  0  0  0  0  0  0  0  0
   36.9320   26.1320   43.5150 H   0  0  0  0  0  0  0  0  0  0  0  0
   37.7970   28.0800   44.7470 H   0  0  0  0  0  0  0  0  0  0  0  0
   38.2550   30.1640   43.4440 H   0  0  0  0  0  0  0  0  0  0  0  0
   37.3200   32.6630   39.8010 C   0  0  0  0  0  0  0  0  0  0  0  0
   36.9780   31.5340   40.5760 C   0  0  0  0  0  0  0  0  0  0  0  0
   37.9150   30.5490   40.8220 C   0  0  0  0  0  0  0  0  0  0  0  0
   39.1420   30.7320   40.2880 N   0  0  0  0  0  0  0  0  0  0  0  0
   39.4780   31.8120   39.5420 C   0  0  0  0  0  0  0  0  0  0  0  0
   38.5710   32.7740   39.2990 N   0  0  0  0  0  0  0  0  0  0  0  0
   36.6090   33.4300   39.6020 H   0  0  0  0  0  0  0  0  0  0  0  0
   35.9980   31.4200   40.9850 H   0  0  0  0  0  0  0  0  0  0  0  0
   40.4830   31.9100   39.1340 H   0  0  0  0  0  0  0  0  0  0  0  0
   36.9280   28.3370   39.4480 C   0  0  0  0  0  0  0  0  0  0  0  0
   37.0770   29.4190   39.1660 H   0  0  0  0  0  0  0  0  0  0  0  0
   37.7010   27.7660   38.8950 H   0  0  0  0  0  0  0  0  0  0  0  0
   35.6100   27.8790   39.1550 N   0  0  0  0  0  0  0  0  0  0  0  0
   34.6920   28.9590   39.0190 C   0  0  0  0  0  2  0  0  0  0  0  0
   34.2840   29.0060   37.5570 C   0  0  0  0  0  2  0  0  0  0  0  0
   34.3340   27.5030   37.2430 C   0  0  0  0  0  2  0  0  0  0  0  0
   35.5900   27.0940   37.9570 C   0  0  0  0  0  3  0  0  0  0  0  0
   36.4580   27.3210   37.2800 H   0  0  0  0  0  0  0  0  0  0  0  0
  1  6  1  0  0  0  0
  2  1  2  0  0  0  0
  2  3  1  0  0  0  0
  3  4  2  0  0  0  0
  4  8  1  0  0  0  0
  4  5  1  0  0  0  0
  5  9  1  0  0  0  0
  6 10  1  0  0  0  0
  6  5  2  0  0  0  0
  7  3  1  0  0  0  0
 11 12  1  0  0  0  0
 12 13  2  0  0  0  0
 12 18  1  0  0  0  0
 13  1  1  0  0  0  0
 14 13  1  0  0  0  0
 15 14  2  0  0  0  0
 16 15  1  0  0  0  0
 16 11  2  0  0  0  0
 17 11  1  0  0  0  0
 19 15  1  0  0  0  0
 20  2  1  0  0  0  0
 21 20  1  0  0  0  0
 22 20  1  0  0  0  0
 23 20  1  0  0  0  0
 24 23  1  0  0  0  0
 25 24  1  0  0  0  0
 26 25  1  0  0  0  0
 26 27  1  0  0  0  0
 27 23  1  0  0  0  0
 28 27  1  0  0  0  0
M  END
>  <minimizedAffinity>
-4.75500965

$$$$

 OpenBabel03252508433D

 28 30  0  0  0  0  0  0  0  0999 V2000
   35.8560   28.3730   40.0210 C   0  0  0  0  0  0  0  0  0  0  0  0
   36.2600   27.3220   39.1970 C   0  0  0  0  0  0  0  0  0  0  0  0
   35.5390   27.0750   38.0540 C   0  0  0  0  0  0  0  0  0  0  0  0
   34.4570   27.8500   37.7470 C   0  0  0  0  0  0  0  0  0  0  0  0
   34.0300   28.8950   38.5350 C   0  0  0  0  0  0  0  0  0  0  0  0
   34.7820   29.1240   39.6930 C   0  0  0  0  0  0  0  0  0  0  0  0
   35.7910   26.2820   37.3640 H   0  0  0  0  0  0  0  0  0  0  0  0
   33.8850   27.6600   36.8450 H   0  0  0  0  0  0  0  0  0  0  0  0
   33.1740   29.5150   38.3000 H   0  0  0  0  0  0  0  0  0  0  0  0
   34.5060   29.9360   40.3720 H   0  0  0  0  0  0  0  0  0  0  0  0
   37.3030   28.1910   43.5220 C   0  0  0  0  0  0  0  0  0  0  0  0
   36.4830   27.9060   42.4090 C   0  0  0  0  0  0  0  0  0  0  0  0
   36.6540   28.5950   41.2250 C   0  0  0  0  0  0  0  0  0  0  0  0
   37.6280   29.5310   41.2020 N   0  0  0  0  0  0  0  0  0  0  0  0
   38.4190   29.8120   42.2660 C   0  0  0  0  0  0  0  0  0  0  0  0
   38.2580   29.1450   43.4220 N   0  0  0  0  0  0  0  0  0  0  0  0
   37.1840   27.6690   44.4430 H   0  0  0  0  0  0  0  0  0  0  0  0
   35.7220   27.1590   42.4600 H   0  0  0  0  0  0  0  0  0  0  0  0
   39.1900   30.5780   42.1940 H   0  0  0  0  0  0  0  0  0  0  0  0
   37.4470   26.5070   39.5620 C   0  0  0  0  0  0  0  0  0  0  0  0
   38.2470   26.7420   38.8030 H   0  0  0  0  0  0  0  0  0  0  0  0
   37.8490   26.8320   40.5430 H   0  0  0  0  0  0  0  0  0  0  0  0
   37.0890   25.1270   39.5600 N   0  0  0  0  0  0  0  0  0  0  0  0
   38.0440   24.3340   38.8620 C   0  0  0  0  0  2  0  0  0  0  0  0
   38.7360   23.4680   39.9010 C   0  0  0  0  0  2  0  0  0  0  0  0
   37.5570   23.2540   40.8620 C   0  0  0  0  0  2  0  0  0  0  0  0
   36.9490   24.6260   40.8940 C   0  0  0  0  0  3  0  0  0  0  0  0
   37.5220   25.2370   41.6450 H   0  0  0  0  0  0  0  0  0  0  0  0
  1 13  1  0  0  0  0
  2 20  1  0  0  0  0
  2  1  2  0  0  0  0
  3  2  1  0  0  0  0
  4  3  2  0  0  0  0
  4  5  1  0  0  0  0
  5  6  2  0  0  0  0
  6  1  1  0  0  0  0
  6 10  1  0  0  0  0
  7  3  1  0  0  0  0
  8  4  1  0  0  0  0
  9  5  1  0  0  0  0
 11 17  1  0  0  0  0
 12 18  1  0  0  0  0
 12 11  2  0  0  0  0
 13 12  1  0  0  0  0
 14 13  2  0  0  0  0
 14 15  1  0  0  0  0
 15 16  2  0  0  0  0
 16 11  1  0  0  0  0
 19 15  1  0  0  0  0
 20 22  1  0  0  0  0
 21 20  1  0  0  0  0
 23 20  1  0  0  0  0
 23 27  1  0  0  0  0
 24 23  1  0  0  0  0
 24 25  1  0  0  0  0
 25 26  1  0  0  0  0
 26 27  1  0  0  0  0
 27 28  1  0  0  0  0
M  END
>  <minimizedAffinity>
-4.60478544

$$$$

 OpenBabel03252508433D

 28 30  0  0  0  0  0  0  0  0999 V2000
   36.3520   29.2590   38.4900 C   0  0  0  0  0  0  0  0  0  0  0  0
   36.6870   28.0540   39.1090 C   0  0  0  0  0  0  0  0  0  0  0  0
   36.0320   26.9130   38.7160 C   0  0  0  0  0  0  0  0  0  0  0  0
   35.0770   26.9750   37.7400 C   0  0  0  0  0  0  0  0  0  0  0  0
   34.7200   28.1440   37.1070 C   0  0  0  0  0  0  0  0  0  0  0  0
   35.4040   29.2910   37.5280 C   0  0  0  0  0  0  0  0  0  0  0  0
   36.2380   25.9430   39.1450 H   0  0  0  0  0  0  0  0  0  0  0  0
   34.5570   26.0760   37.4250 H   0  0  0  0  0  0  0  0  0  0  0  0
   33.9660   28.2020   36.3330 H   0  0  0  0  0  0  0  0  0  0  0  0
   35.1780   30.2590   37.0730 H   0  0  0  0  0  0  0  0  0  0  0  0
   37.4480   32.3670   40.3670 C   0  0  0  0  0  0  0  0  0  0  0  0
   36.6820   31.2380   40.0020 C   0  0  0  0  0  0  0  0  0  0  0  0
   37.0760   30.4430   38.9440 C   0  0  0  0  0  0  0  0  0  0  0  0
   38.2080   30.8060   38.3010 N   0  0  0  0  0  0  0  0  0  0  0  0
   38.9480   31.8880   38.6440 C   0  0  0  0  0  0  0  0  0  0  0  0
   38.5700   32.6650   39.6730 N   0  0  0  0  0  0  0  0  0  0  0  0
   37.1570   32.9900   41.1810 H   0  0  0  0  0  0  0  0  0  0  0  0
   35.7920   30.9800   40.5310 H   0  0  0  0  0  0  0  0  0  0  0  0
   39.8540   32.1350   38.0920 H   0  0  0  0  0  0  0  0  0  0  0  0
   37.7360   28.0280   40.1610 C   0  0  0  0  0  0  0  0  0  0  0  0
   38.6500   27.5590   39.6950 H   0  0  0  0  0  0  0  0  0  0  0  0
   38.0280   29.0610   40.4390 H   0  0  0  0  0  0  0  0  0  0  0  0
   37.2600   27.2850   41.2820 N   0  0  0  0  0  0  0  0  0  0  0  0
   38.3240   26.6610   41.9930 C   0  0  0  0  0  2  0  0  0  0  0  0
   38.4190   27.3590   43.3390 C   0  0  0  0  0  2  0  0  0  0  0  0
   36.9310   27.6750   43.5540 C   0  0  0  0  0  2  0  0  0  0  0  0
   36.5230   28.1220   42.1810 C   0  0  0  0  0  3  0  0  0  0  0  0
   36.7950   29.2080   42.0790 H   0  0  0  0  0  0  0  0  0  0  0  0
  1 13  1  0  0  0  0
  1  2  1  0  0  0  0
  2 20  1  0  0  0  0
  3  2  2  0  0  0  0
  3  7  1  0  0  0  0
  4  3  1  0  0  0  0
  5  6  1  0  0  0  0
  5  4  2  0  0  0  0
  6  1  2  0  0  0  0
  8  4  1  0  0  0  0
  9  5  1  0  0  0  0
 10  6  1  0  0  0  0
 11 17  1  0  0  0  0
 12 11  1  0  0  0  0
 12 18  1  0  0  0  0
 13 12  2  0  0  0  0
 14 15  2  0  0  0  0
 14 13  1  0  0  0  0
 15 16  1  0  0  0  0
 16 11  2  0  0  0  0
 19 15  1  0  0  0  0
 20 22  1  0  0  0  0
 20 23  1  0  0  0  0
 21 20  1  0  0  0  0
 23 24  1  0  0  0  0
 23 27  1  0  0  0  0
 24 25  1  0  0  0  0
 25 26  1  0  0  0  0
 27 26  1  0  0  0  0
 28 27  1  0  0  0  0
M  END
>  <minimizedAffinity>
-4.57086849

$$$$

 OpenBabel03252508433D

 28 30  0  0  0  0  0  0  0  0999 V2000
   39.2860   29.2210   42.0520 C   0  0  0  0  0  0  0  0  0  0  0  0
   37.9710   28.7830   42.2120 C   0  0  0  0  0  0  0  0  0  0  0  0
   37.7380   27.7020   43.0260 C   0  0  0  0  0  0  0  0  0  0  0  0
   38.7810   27.0830   43.6560 C   0  0  0  0  0  0  0  0  0  0  0  0
   40.0890   27.4870   43.5220 C   0  0  0  0  0  0  0  0  0  0  0  0
   40.2980   28.5900   42.6870 C   0  0  0  0  0  0  0  0  0  0  0  0
   36.7480   27.3050   43.2040 H   0  0  0  0  0  0  0  0  0  0  0  0
   38.6020   26.2290   44.3020 H   0  0  0  0  0  0  0  0  0  0  0  0
   40.9220   27.0030   44.0180 H   0  0  0  0  0  0  0  0  0  0  0  0
   41.3110   28.9730   42.5290 H   0  0  0  0  0  0  0  0  0  0  0  0
   39.6780   32.7360   40.6820 C   0  0  0  0  0  0  0  0  0  0  0  0
   39.4810   31.6860   41.6050 C   0  0  0  0  0  0  0  0  0  0  0  0
   39.4820   30.3740   41.1750 C   0  0  0  0  0  0  0  0  0  0  0  0
   39.6770   30.1670   39.8550 N   0  0  0  0  0  0  0  0  0  0  0  0
   39.8660   31.1690   38.9620 C   0  0  0  0  0  0  0  0  0  0  0  0
   39.8660   32.4490   39.3730 N   0  0  0  0  0  0  0  0  0  0  0  0
   39.6800   33.7540   40.9970 H   0  0  0  0  0  0  0  0  0  0  0  0
   39.3300   31.8840   42.6430 H   0  0  0  0  0  0  0  0  0  0  0  0
   40.0190   30.9460   37.9070 H   0  0  0  0  0  0  0  0  0  0  0  0
   36.8640   29.4870   41.5150 C   0  0  0  0  0  0  0  0  0  0  0  0
   36.2730   30.0250   42.3100 H   0  0  0  0  0  0  0  0  0  0  0  0
   37.2700   30.2740   40.8480 H   0  0  0  0  0  0  0  0  0  0  0  0
   36.0740   28.5360   40.8050 N   0  0  0  0  0  0  0  0  0  0  0  0
   34.8760   29.1160   40.2980 C   0  0  0  0  0  2  0  0  0  0  0  0
   35.0090   29.1430   38.7860 C   0  0  0  0  0  2  0  0  0  0  0  0
   35.8270   27.8570   38.5910 C   0  0  0  0  0  2  0  0  0  0  0  0
   36.8110   27.9590   39.7200 C   0  0  0  0  0  3  0  0  0  0  0  0
   37.6570   28.6160   39.3780 H   0  0  0  0  0  0  0  0  0  0  0  0
  1  2  2  0  0  0  0
  1  6  1  0  0  0  0
  2  3  1  0  0  0  0
  3  7  1  0  0  0  0
  3  4  2  0  0  0  0
  4  8  1  0  0  0  0
  5  4  1  0  0  0  0
  5  9  1  0  0  0  0
  6  5  2  0  0  0  0
 10  6  1  0  0  0  0
 11 17  1  0  0  0  0
 11 12  1  0  0  0  0
 12 18  1  0  0  0  0
 13 12  2  0  0  0  0
 13  1  1  0  0  0  0
 14 13  1  0  0  0  0
 15 16  1  0  0  0  0
 15 14  2  0  0  0  0
 16 11  2  0  0  0  0
 19 15  1  0  0  0  0
 20  2  1  0  0  0  0
 20 21  1  0  0  0  0
 22 20  1  0  0  0  0
 23 20  1  0  0  0  0
 24 23  1  0  0  0  0
 25 24  1  0  0  0  0
 26 25  1  0  0  0  0
 26 27  1  0  0  0  0
 27 23  1  0  0  0  0
 28 27  1  0  0  0  0
M  END
>  <minimizedAffinity>
-4.55035591

$$$$

 OpenBabel03252508433D

 28 30  0  0  0  0  0  0  0  0999 V2000
   36.6410   26.6080   40.0360 C   0  0  0  0  0  0  0  0  0  0  0  0
   36.9570   27.1270   41.2920 C   0  0  0  0  0  0  0  0  0  0  0  0
   37.1490   26.2500   42.3320 C   0  0  0  0  0  0  0  0  0  0  0  0
   37.0310   24.9050   42.1220 C   0  0  0  0  0  0  0  0  0  0  0  0
   36.7210   24.3570   40.8980 C   0  0  0  0  0  0  0  0  0  0  0  0
   36.5300   25.2730   39.8570 C   0  0  0  0  0  0  0  0  0  0  0  0
   37.4000   26.5740   43.3320 H   0  0  0  0  0  0  0  0  0  0  0  0
   37.1830   24.2080   42.9390 H   0  0  0  0  0  0  0  0  0  0  0  0
   36.6260   23.2930   40.7230 H   0  0  0  0  0  0  0  0  0  0  0  0
   36.2810   24.9160   38.8540 H   0  0  0  0  0  0  0  0  0  0  0  0
   35.1740   29.1950   37.6820 C   0  0  0  0  0  0  0  0  0  0  0  0
   35.2700   28.2730   38.7470 C   0  0  0  0  0  0  0  0  0  0  0  0
   36.4450   27.5810   38.9640 C   0  0  0  0  0  0  0  0  0  0  0  0
   37.4650   27.8360   38.1160 N   0  0  0  0  0  0  0  0  0  0  0  0
   37.3810   28.7180   37.0900 C   0  0  0  0  0  0  0  0  0  0  0  0
   36.2410   29.3950   36.8740 N   0  0  0  0  0  0  0  0  0  0  0  0
   34.2750   29.7370   37.5010 H   0  0  0  0  0  0  0  0  0  0  0  0
   34.4440   28.0950   39.4000 H   0  0  0  0  0  0  0  0  0  0  0  0
   38.2350   28.8860   36.4360 H   0  0  0  0  0  0  0  0  0  0  0  0
   37.0830   28.5960   41.4770 C   0  0  0  0  0  0  0  0  0  0  0  0
   36.6560   29.0760   40.5510 H   0  0  0  0  0  0  0  0  0  0  0  0
   36.4470   28.9330   42.3200 H   0  0  0  0  0  0  0  0  0  0  0  0
   38.4560   28.9290   41.6740 N   0  0  0  0  0  0  0  0  0  0  0  0
   38.9380   29.8060   40.6620 C   0  0  0  0  0  2  0  0  0  0  0  0
   39.2060   31.1420   41.3330 C   0  0  0  0  0  2  0  0  0  0  0  0
   39.6520   30.6350   42.7120 C   0  0  0  0  0  2  0  0  0  0  0  0
   38.6630   29.5330   42.9560 C   0  0  0  0  0  3  0  0  0  0  0  0
   37.7250   29.9980   43.3680 H   0  0  0  0  0  0  0  0  0  0  0  0
  1  2  1  0  0  0  0
  2 20  1  0  0  0  0
  2  3  2  0  0  0  0
  3  7  1  0  0  0  0
  4  3  1  0  0  0  0
  4  8  1  0  0  0  0
  5  4  2  0  0  0  0
  6  1  2  0  0  0  0
  6  5  1  0  0  0  0
  9  5  1  0  0  0  0
 10  6  1  0  0  0  0
 11 12  1  0  0  0  0
 12 13  2  0  0  0  0
 12 18  1  0  0  0  0
 13  1  1  0  0  0  0
 14 13  1  0  0  0  0
 15 14  2  0  0  0  0
 16 15  1  0  0  0  0
 16 11  2  0  0  0  0
 17 11  1  0  0  0  0
 19 15  1  0  0  0  0
 20 23  1  0  0  0  0
 20 22  1  0  0  0  0
 21 20  1  0  0  0  0
 23 27  1  0  0  0  0
 24 25  1  0  0  0  0
 24 23  1  0  0  0  0
 25 26  1  0  0  0  0
 26 27  1  0  0  0  0
 27 28  1  0  0  0  0
M  END
>  <minimizedAffinity>
-4.52821732

$$$$
