
 OpenBabel03252505013D

 31 33  0  0  1  0  0  0  0  0999 V2000
   46.4410   32.9190   46.5080 C   0  0  2  0  0  0  0  0  0  0  0  0
   46.9610   31.6650   45.8880 C   0  0  0  0  0  0  0  0  0  0  0  0
   46.0670   30.4940   45.9370 C   0  0  0  0  0  0  0  0  0  0  0  0
   45.7130   30.3060   47.4040 C   0  0  0  0  0  0  0  0  0  0  0  0
   44.9170   31.4200   47.9320 C   0  0  0  0  0  0  0  0  0  0  0  0
   45.3310   32.7740   47.4370 C   0  0  0  0  0  0  0  0  0  0  0  0
   47.2840   33.4340   47.0250 H   0  0  0  0  0  0  0  0  0  0  0  0
   47.2740   31.8040   44.8280 H   0  0  0  0  0  0  0  0  0  0  0  0
   47.9150   31.3780   46.4080 H   0  0  0  0  0  0  0  0  0  0  0  0
   46.6800   29.5920   45.6760 H   0  0  0  0  0  0  0  0  0  0  0  0
   45.1690   30.6060   45.3230 H   0  0  0  0  0  0  0  0  0  0  0  0
   46.6440   30.2000   47.9750 H   0  0  0  0  0  0  0  0  0  0  0  0
   45.0480   29.4350   47.4280 H   0  0  0  0  0  0  0  0  0  0  0  0
   44.0810   31.4600   48.6150 H   0  0  0  0  0  0  0  0  0  0  0  0
   44.6730   35.4340   44.4380 C   0  0  0  0  0  0  0  0  0  0  0  0
   45.4730   35.4690   43.2670 C   0  0  0  0  0  0  0  0  0  0  0  0
   46.6040   34.6200   43.2220 C   0  0  0  0  0  0  0  0  0  0  0  0
   46.8660   33.8210   44.2870 N   0  0  0  0  0  0  0  0  0  0  0  0
   46.0820   33.8170   45.3790 C   0  0  0  0  0  0  0  0  0  0  0  0
   44.9870   34.6160   45.4650 N   0  0  0  0  0  0  0  0  0  0  0  0
   43.8230   36.0840   44.4500 H   0  0  0  0  0  0  0  0  0  0  0  0
   45.1890   36.1370   42.4670 H   0  0  0  0  0  0  0  0  0  0  0  0
   47.3940   34.6560   42.0640 N   0  0  0  0  0  0  0  0  0  0  0  0
   46.9100   34.2350   40.7640 C   0  0  0  0  0  0  0  0  0  0  0  0
   48.0470   34.4530   39.7980 C   0  0  0  0  0  0  0  0  0  0  0  0
   48.8470   35.5230   40.5040 C   0  0  0  0  0  0  0  0  0  0  0  0
   48.7690   35.0960   41.9500 C   0  0  0  0  0  0  0  0  0  0  0  0
   49.0130   35.9130   42.6560 H   0  0  0  0  0  0  0  0  0  0  0  0
   44.6420   33.9430   47.8650 N   0  0  0  0  0  0  0  0  0  0  0  0
   45.1460   34.6010   48.4970 H   0  0  0  0  0  0  0  0  0  0  0  0
   43.6560   34.0280   47.4860 H   0  0  0  0  0  0  0  0  0  0  0  0
  1  7  1  1  0  0  0
  1  6  1  0  0  0  0
  2  3  1  0  0  0  0
  2  9  1  0  0  0  0
  2  1  1  0  0  0  0
  3  4  1  0  0  0  0
  4 13  1  0  0  0  0
  4  5  1  0  0  0  0
  4 12  1  0  0  0  0
  5 14  1  0  0  0  0
  6 29  1  0  0  0  0
  6  5  2  0  0  0  0
  8  2  1  0  0  0  0
 10  3  1  0  0  0  0
 11  3  1  0  0  0  0
 15 21  1  0  0  0  0
 15 20  1  0  0  0  0
 16 15  2  0  0  0  0
 17 16  1  0  0  0  0
 17 18  2  0  0  0  0
 18 19  1  0  0  0  0
 19 20  2  0  0  0  0
 19  1  1  0  0  0  0
 22 16  1  0  0  0  0
 23 17  1  0  0  0  0
 24 23  1  0  0  0  0
 25 26  1  0  0  0  0
 25 24  1  0  0  0  0
 26 27  1  0  0  0  0
 27 23  1  0  0  0  0
 27 28  1  0  0  0  0
 29 30  1  0  0  0  0
 31 29  1  0  0  0  0
M  END
>  <minimizedAffinity>
-6.42637634

>  <minimizedRMSD>
1.25366366

$$$$
