
 OpenBabel03242521353D

 28 31  0  0  0  0  0  0  0  0999 V2000
   39.2920   30.4090   41.9880 C   0  0  0  0  0  0  0  0  0  0  0  0
   38.0100   30.0030   41.7030 C   0  0  0  0  0  0  0  0  0  0  0  0
   37.1830   30.8760   41.0150 C   0  0  0  0  0  0  0  0  0  0  0  0
   37.5900   32.1360   40.6050 C   0  0  0  0  0  0  0  0  0  0  0  0
   36.9810   33.1380   39.9400 N   0  0  0  0  0  0  0  0  0  0  0  0
   37.8600   34.1610   39.8050 C   0  0  0  0  0  0  0  0  0  0  0  0
   39.0190   33.7800   40.3960 N   0  0  0  0  0  0  0  0  0  0  0  0
   38.8860   32.5350   40.8980 C   0  0  0  0  0  0  0  0  0  0  0  0
   39.7250   31.6780   41.5820 C   0  0  0  0  0  0  0  0  0  0  0  0
   40.0080   29.7950   42.5190 H   0  0  0  0  0  0  0  0  0  0  0  0
   36.1750   30.5460   40.7960 H   0  0  0  0  0  0  0  0  0  0  0  0
   36.0020   33.1510   39.5790 H   0  0  0  0  0  0  0  0  0  0  0  0
   37.7440   35.1290   39.3350 H   0  0  0  0  0  0  0  0  0  0  0  0
   40.7410   31.9870   41.8130 H   0  0  0  0  0  0  0  0  0  0  0  0
   36.6680   27.0850   43.6720 C   0  0  0  0  0  0  0  0  0  0  0  0
   37.0270   28.4280   43.3740 C   0  0  0  0  0  0  0  0  0  0  0  0
   37.5950   28.6770   42.1400 C   0  0  0  0  0  0  0  0  0  0  0  0
   37.7860   27.6570   41.2770 N   0  0  0  0  0  0  0  0  0  0  0  0
   37.4340   26.3810   41.5870 C   0  0  0  0  0  0  0  0  0  0  0  0
   36.8840   26.1160   42.7720 N   0  0  0  0  0  0  0  0  0  0  0  0
   36.2230   26.8650   44.6300 H   0  0  0  0  0  0  0  0  0  0  0  0
   36.8760   29.2290   44.0530 H   0  0  0  0  0  0  0  0  0  0  0  0
   37.6570   25.3370   40.6400 N   0  0  0  0  0  0  0  0  0  0  0  0
   37.0740   24.0110   40.6840 C   0  0  0  0  0  2  0  0  0  0  0  0
   38.2420   23.1410   40.2670 C   0  0  0  0  0  2  0  0  0  0  0  0
   39.0660   24.0160   39.3790 C   0  0  0  0  0  2  0  0  0  0  0  0
   38.5080   25.4200   39.4640 C   0  0  0  0  0  3  0  0  0  0  0  0
   37.8580   25.6090   38.5890 H   0  0  0  0  0  0  0  0  0  0  0  0
  1 10  1  0  0  0  0
  2  1  1  0  0  0  0
  2 17  1  0  0  0  0
  3  2  2  0  0  0  0
  4  8  2  0  0  0  0
  4  3  1  0  0  0  0
  5  4  1  0  0  0  0
  6  5  1  0  0  0  0
  6  7  2  0  0  0  0
  7  8  1  0  0  0  0
  8  9  1  0  0  0  0
  9 14  1  0  0  0  0
  9  1  2  0  0  0  0
 11  3  1  0  0  0  0
 12  5  1  0  0  0  0
 13  6  1  0  0  0  0
 15 21  1  0  0  0  0
 16 15  1  0  0  0  0
 16 22  1  0  0  0  0
 17 16  2  0  0  0  0
 18 19  2  0  0  0  0
 18 17  1  0  0  0  0
 19 20  1  0  0  0  0
 20 15  2  0  0  0  0
 23 24  1  0  0  0  0
 23 19  1  0  0  0  0
 25 24  1  0  0  0  0
 26 27  1  0  0  0  0
 26 25  1  0  0  0  0
 27 23  1  0  0  0  0
 28 27  1  0  0  0  0
M  END
>  <minimizedAffinity>
-5.66670322

$$$$

 OpenBabel03242521353D

 28 31  0  0  0  0  0  0  0  0999 V2000
   41.2000   28.4550   43.0040 C   0  0  0  0  0  0  0  0  0  0  0  0
   40.1870   29.3390   42.7190 C   0  0  0  0  0  0  0  0  0  0  0  0
   40.5030   30.6820   42.5900 C   0  0  0  0  0  0  0  0  0  0  0  0
   41.7920   31.1700   42.7350 C   0  0  0  0  0  0  0  0  0  0  0  0
   42.3330   32.4030   42.6570 N   0  0  0  0  0  0  0  0  0  0  0  0
   43.6650   32.3040   42.8870 C   0  0  0  0  0  0  0  0  0  0  0  0
   43.9410   30.9950   43.1090 N   0  0  0  0  0  0  0  0  0  0  0  0
   42.8080   30.2690   43.0210 C   0  0  0  0  0  0  0  0  0  0  0  0
   42.5110   28.9270   43.1540 C   0  0  0  0  0  0  0  0  0  0  0  0
   41.0480   27.3900   43.1220 H   0  0  0  0  0  0  0  0  0  0  0  0
   39.6980   31.3690   42.3660 H   0  0  0  0  0  0  0  0  0  0  0  0
   41.8350   33.2970   42.4550 H   0  0  0  0  0  0  0  0  0  0  0  0
   44.4330   33.0660   42.9100 H   0  0  0  0  0  0  0  0  0  0  0  0
   43.3040   28.2190   43.3780 H   0  0  0  0  0  0  0  0  0  0  0  0
   36.9490   27.4690   43.1770 C   0  0  0  0  0  0  0  0  0  0  0  0
   38.2770   27.8990   43.4420 C   0  0  0  0  0  0  0  0  0  0  0  0
   38.8370   28.8130   42.5700 C   0  0  0  0  0  0  0  0  0  0  0  0
   38.1160   29.2570   41.5180 N   0  0  0  0  0  0  0  0  0  0  0  0
   36.8470   28.8290   41.2880 C   0  0  0  0  0  0  0  0  0  0  0  0
   36.2860   27.9480   42.1150 N   0  0  0  0  0  0  0  0  0  0  0  0
   36.4890   26.7560   43.8440 H   0  0  0  0  0  0  0  0  0  0  0  0
   38.8430   27.5500   44.2690 H   0  0  0  0  0  0  0  0  0  0  0  0
   36.1270   29.3280   40.1620 N   0  0  0  0  0  0  0  0  0  0  0  0
   34.6970   29.2170   39.9500 C   0  0  0  0  0  2  0  0  0  0  0  0
   34.6230   28.9030   38.4710 C   0  0  0  0  0  2  0  0  0  0  0  0
   35.8340   29.5540   37.8850 C   0  0  0  0  0  2  0  0  0  0  0  0
   36.7000   30.0360   39.0290 C   0  0  0  0  0  3  0  0  0  0  0  0
   36.5300   31.1180   39.1850 H   0  0  0  0  0  0  0  0  0  0  0  0
  1 10  1  0  0  0  0
  1  9  1  0  0  0  0
  2  1  2  0  0  0  0
  3  2  1  0  0  0  0
  3  4  2  0  0  0  0
  4  8  1  0  0  0  0
  5  4  1  0  0  0  0
  5  6  1  0  0  0  0
  6 13  1  0  0  0  0
  6  7  2  0  0  0  0
  8  7  1  0  0  0  0
  8  9  2  0  0  0  0
  9 14  1  0  0  0  0
 11  3  1  0  0  0  0
 12  5  1  0  0  0  0
 15 16  1  0  0  0  0
 15 21  1  0  0  0  0
 16 22  1  0  0  0  0
 17  2  1  0  0  0  0
 17 16  2  0  0  0  0
 18 17  1  0  0  0  0
 19 18  2  0  0  0  0
 19 20  1  0  0  0  0
 20 15  2  0  0  0  0
 23 19  1  0  0  0  0
 24 23  1  0  0  0  0
 25 24  1  0  0  0  0
 26 25  1  0  0  0  0
 26 27  1  0  0  0  0
 27 28  1  0  0  0  0
 27 23  1  0  0  0  0
M  END
>  <minimizedAffinity>
-5.52921009

$$$$

 OpenBabel03242521353D

 28 31  0  0  0  0  0  0  0  0999 V2000
   35.9920   29.4360   36.9320 C   0  0  0  0  0  0  0  0  0  0  0  0
   35.3690   29.3110   38.1510 C   0  0  0  0  0  0  0  0  0  0  0  0
   34.0710   28.8270   38.1780 C   0  0  0  0  0  0  0  0  0  0  0  0
   33.3770   28.4650   37.0350 C   0  0  0  0  0  0  0  0  0  0  0  0
   32.1390   27.9800   36.8150 N   0  0  0  0  0  0  0  0  0  0  0  0
   31.9780   27.8000   35.4810 C   0  0  0  0  0  0  0  0  0  0  0  0
   33.1320   28.1800   34.8790 N   0  0  0  0  0  0  0  0  0  0  0  0
   34.0160   28.5940   35.8100 C   0  0  0  0  0  0  0  0  0  0  0  0
   35.3100   29.0750   35.7630 C   0  0  0  0  0  0  0  0  0  0  0  0
   37.0030   29.8040   36.8130 H   0  0  0  0  0  0  0  0  0  0  0  0
   33.5900   28.7330   39.1430 H   0  0  0  0  0  0  0  0  0  0  0  0
   31.4080   27.7700   37.5290 H   0  0  0  0  0  0  0  0  0  0  0  0
   31.1290   27.4320   34.9180 H   0  0  0  0  0  0  0  0  0  0  0  0
   35.8130   29.1770   34.8060 H   0  0  0  0  0  0  0  0  0  0  0  0
   37.1970   31.2330   40.8270 C   0  0  0  0  0  0  0  0  0  0  0  0
   36.4750   30.9990   39.6240 C   0  0  0  0  0  0  0  0  0  0  0  0
   36.1100   29.6960   39.3450 C   0  0  0  0  0  0  0  0  0  0  0  0
   36.4440   28.7120   40.2050 N   0  0  0  0  0  0  0  0  0  0  0  0
   37.1350   28.9630   41.3490 C   0  0  0  0  0  0  0  0  0  0  0  0
   37.4980   30.2120   41.6400 N   0  0  0  0  0  0  0  0  0  0  0  0
   37.4930   32.2420   41.0680 H   0  0  0  0  0  0  0  0  0  0  0  0
   36.2120   31.7730   38.9490 H   0  0  0  0  0  0  0  0  0  0  0  0
   37.4640   27.8870   42.2260 N   0  0  0  0  0  0  0  0  0  0  0  0
   37.9130   28.0170   43.5980 C   0  0  0  0  0  2  0  0  0  0  0  0
   38.9930   26.9590   43.6770 C   0  0  0  0  0  2  0  0  0  0  0  0
   38.5770   25.9200   42.6860 C   0  0  0  0  0  2  0  0  0  0  0  0
   37.4090   26.4730   41.8990 C   0  0  0  0  0  3  0  0  0  0  0  0
   36.4650   26.0670   42.3100 H   0  0  0  0  0  0  0  0  0  0  0  0
  1  2  1  0  0  0  0
  2  3  2  0  0  0  0
  2 17  1  0  0  0  0
  3 11  1  0  0  0  0
  4  3  1  0  0  0  0
  5  4  1  0  0  0  0
  5 12  1  0  0  0  0
  6  5  1  0  0  0  0
  7  6  2  0  0  0  0
  7  8  1  0  0  0  0
  8  4  2  0  0  0  0
  9  8  1  0  0  0  0
  9  1  2  0  0  0  0
 10  1  1  0  0  0  0
 13  6  1  0  0  0  0
 14  9  1  0  0  0  0
 15 21  1  0  0  0  0
 15 20  1  0  0  0  0
 16 15  2  0  0  0  0
 17 16  1  0  0  0  0
 17 18  2  0  0  0  0
 18 19  1  0  0  0  0
 19 20  2  0  0  0  0
 19 23  1  0  0  0  0
 22 16  1  0  0  0  0
 23 24  1  0  0  0  0
 24 25  1  0  0  0  0
 26 25  1  0  0  0  0
 27 23  1  0  0  0  0
 27 28  1  0  0  0  0
 27 26  1  0  0  0  0
M  END
>  <minimizedAffinity>
-5.39569044

$$$$

 OpenBabel03242521353D

 28 31  0  0  0  0  0  0  0  0999 V2000
   36.2060   26.9290   39.1230 C   0  0  0  0  0  0  0  0  0  0  0  0
   35.5800   28.1530   39.0950 C   0  0  0  0  0  0  0  0  0  0  0  0
   35.6670   28.9610   40.2170 C   0  0  0  0  0  0  0  0  0  0  0  0
   36.3550   28.5900   41.3620 C   0  0  0  0  0  0  0  0  0  0  0  0
   36.5750   29.1900   42.5490 N   0  0  0  0  0  0  0  0  0  0  0  0
   37.3260   28.3640   43.3160 C   0  0  0  0  0  0  0  0  0  0  0  0
   37.5680   27.2440   42.5900 N   0  0  0  0  0  0  0  0  0  0  0  0
   36.9830   27.3530   41.3790 C   0  0  0  0  0  0  0  0  0  0  0  0
   36.9070   26.5340   40.2700 C   0  0  0  0  0  0  0  0  0  0  0  0
   36.1920   26.2330   38.2950 H   0  0  0  0  0  0  0  0  0  0  0  0
   35.1710   29.9220   40.1840 H   0  0  0  0  0  0  0  0  0  0  0  0
   36.2360   30.1300   42.8510 H   0  0  0  0  0  0  0  0  0  0  0  0
   37.7040   28.4900   44.3230 H   0  0  0  0  0  0  0  0  0  0  0  0
   37.3980   25.5650   40.2800 H   0  0  0  0  0  0  0  0  0  0  0  0
   34.6100   28.9030   35.5330 C   0  0  0  0  0  0  0  0  0  0  0  0
   35.4280   28.5090   36.6270 C   0  0  0  0  0  0  0  0  0  0  0  0
   34.8610   28.5300   37.8860 C   0  0  0  0  0  0  0  0  0  0  0  0
   33.5750   28.9150   38.0310 N   0  0  0  0  0  0  0  0  0  0  0  0
   32.8140   29.2860   36.9670 C   0  0  0  0  0  0  0  0  0  0  0  0
   33.3400   29.2750   35.7420 N   0  0  0  0  0  0  0  0  0  0  0  0
   35.0310   28.8950   34.5390 H   0  0  0  0  0  0  0  0  0  0  0  0
   36.4380   28.2070   36.5120 H   0  0  0  0  0  0  0  0  0  0  0  0
   31.4600   29.6850   37.1720 N   0  0  0  0  0  0  0  0  0  0  0  0
   30.4460   29.8100   36.1440 C   0  0  0  0  0  2  0  0  0  0  0  0
   29.7280   31.0760   36.5640 C   0  0  0  0  0  2  0  0  0  0  0  0
   29.8850   31.1240   38.0500 C   0  0  0  0  0  2  0  0  0  0  0  0
   30.8580   30.0360   38.4480 C   0  0  0  0  0  3  0  0  0  0  0  0
   30.2950   29.1550   38.8100 H   0  0  0  0  0  0  0  0  0  0  0  0
  1  9  1  0  0  0  0
  2  1  2  0  0  0  0
  2  3  1  0  0  0  0
  3  4  2  0  0  0  0
  4  8  1  0  0  0  0
  4  5  1  0  0  0  0
  5 12  1  0  0  0  0
  5  6  1  0  0  0  0
  6 13  1  0  0  0  0
  7  6  2  0  0  0  0
  8  7  1  0  0  0  0
  9 14  1  0  0  0  0
  9  8  2  0  0  0  0
 10  1  1  0  0  0  0
 11  3  1  0  0  0  0
 15 20  2  0  0  0  0
 15 16  1  0  0  0  0
 16 17  2  0  0  0  0
 17 18  1  0  0  0  0
 17  2  1  0  0  0  0
 19 23  1  0  0  0  0
 19 18  2  0  0  0  0
 20 19  1  0  0  0  0
 21 15  1  0  0  0  0
 22 16  1  0  0  0  0
 23 27  1  0  0  0  0
 24 25  1  0  0  0  0
 24 23  1  0  0  0  0
 25 26  1  0  0  0  0
 26 27  1  0  0  0  0
 27 28  1  0  0  0  0
M  END
>  <minimizedAffinity>
-5.37336826

$$$$

 OpenBabel03242521353D

 28 31  0  0  0  0  0  0  0  0999 V2000
   36.6510   26.2450   39.5810 C   0  0  0  0  0  0  0  0  0  0  0  0
   37.3680   26.2600   40.7540 C   0  0  0  0  0  0  0  0  0  0  0  0
   37.8780   25.0620   41.2280 C   0  0  0  0  0  0  0  0  0  0  0  0
   37.6960   23.8540   40.5740 C   0  0  0  0  0  0  0  0  0  0  0  0
   38.0850   22.5900   40.8330 N   0  0  0  0  0  0  0  0  0  0  0  0
   37.6250   21.7860   39.8430 C   0  0  0  0  0  0  0  0  0  0  0  0
   36.9450   22.5690   38.9690 N   0  0  0  0  0  0  0  0  0  0  0  0
   36.9710   23.8500   39.3900 C   0  0  0  0  0  0  0  0  0  0  0  0
   36.4560   25.0350   38.9030 C   0  0  0  0  0  0  0  0  0  0  0  0
   36.2170   27.1310   39.1360 H   0  0  0  0  0  0  0  0  0  0  0  0
   38.4410   25.0860   42.1520 H   0  0  0  0  0  0  0  0  0  0  0  0
   38.6460   22.2580   41.6480 H   0  0  0  0  0  0  0  0  0  0  0  0
   37.7300   20.7190   39.6980 H   0  0  0  0  0  0  0  0  0  0  0  0
   35.8870   25.0360   37.9770 H   0  0  0  0  0  0  0  0  0  0  0  0
   37.7550   28.9780   43.3350 C   0  0  0  0  0  0  0  0  0  0  0  0
   37.5670   27.6710   42.8060 C   0  0  0  0  0  0  0  0  0  0  0  0
   37.5510   27.5370   41.4310 C   0  0  0  0  0  0  0  0  0  0  0  0
   37.7110   28.6290   40.6540 N   0  0  0  0  0  0  0  0  0  0  0  0
   37.8890   29.8670   41.1860 C   0  0  0  0  0  0  0  0  0  0  0  0
   37.9080   30.0220   42.5090 N   0  0  0  0  0  0  0  0  0  0  0  0
   37.7720   29.1090   44.4060 H   0  0  0  0  0  0  0  0  0  0  0  0
   37.4420   26.8140   43.4180 H   0  0  0  0  0  0  0  0  0  0  0  0
   38.0530   30.9900   40.3200 N   0  0  0  0  0  0  0  0  0  0  0  0
   38.5480   32.2960   40.7080 C   0  0  0  0  0  2  0  0  0  0  0  0
   37.6370   33.2210   39.9290 C   0  0  0  0  0  2  0  0  0  0  0  0
   37.2560   32.4400   38.7130 C   0  0  0  0  0  2  0  0  0  0  0  0
   37.7530   31.0220   38.8990 C   0  0  0  0  0  3  0  0  0  0  0  0
   38.7040   30.8930   38.3490 H   0  0  0  0  0  0  0  0  0  0  0  0
  1  2  1  0  0  0  0
  2  3  2  0  0  0  0
  2 17  1  0  0  0  0
  3 11  1  0  0  0  0
  4  5  1  0  0  0  0
  4  3  1  0  0  0  0
  5 12  1  0  0  0  0
  6  5  1  0  0  0  0
  7  8  1  0  0  0  0
  7  6  2  0  0  0  0
  8  4  2  0  0  0  0
  9  8  1  0  0  0  0
  9  1  2  0  0  0  0
 10  1  1  0  0  0  0
 13  6  1  0  0  0  0
 14  9  1  0  0  0  0
 15 21  1  0  0  0  0
 16 15  1  0  0  0  0
 16 22  1  0  0  0  0
 17 16  2  0  0  0  0
 18 19  2  0  0  0  0
 18 17  1  0  0  0  0
 19 20  1  0  0  0  0
 20 15  2  0  0  0  0
 23 24  1  0  0  0  0
 23 19  1  0  0  0  0
 25 24  1  0  0  0  0
 26 27  1  0  0  0  0
 26 25  1  0  0  0  0
 27 23  1  0  0  0  0
 28 27  1  0  0  0  0
M  END
>  <minimizedAffinity>
-5.3686738

$$$$

 OpenBabel03242521353D

 28 31  0  0  0  0  0  0  0  0999 V2000
   34.9070   29.1410   38.0140 C   0  0  0  0  0  0  0  0  0  0  0  0
   36.2490   29.3860   38.1800 C   0  0  0  0  0  0  0  0  0  0  0  0
   37.0600   29.3890   37.0560 C   0  0  0  0  0  0  0  0  0  0  0  0
   36.5780   29.1550   35.7780 C   0  0  0  0  0  0  0  0  0  0  0  0
   37.1560   29.1080   34.5620 N   0  0  0  0  0  0  0  0  0  0  0  0
   36.2000   28.8380   33.6400 C   0  0  0  0  0  0  0  0  0  0  0  0
   35.0220   28.7180   34.3020 N   0  0  0  0  0  0  0  0  0  0  0  0
   35.2210   28.9090   35.6230 C   0  0  0  0  0  0  0  0  0  0  0  0
   34.3980   28.9030   36.7310 C   0  0  0  0  0  0  0  0  0  0  0  0
   34.1990   29.1190   38.8330 H   0  0  0  0  0  0  0  0  0  0  0  0
   38.1150   29.5840   37.1980 H   0  0  0  0  0  0  0  0  0  0  0  0
   38.1650   29.2520   34.3380 H   0  0  0  0  0  0  0  0  0  0  0  0
   36.2710   28.7220   32.5660 H   0  0  0  0  0  0  0  0  0  0  0  0
   33.3350   28.7100   36.6130 H   0  0  0  0  0  0  0  0  0  0  0  0
   37.3010   30.9770   41.4290 C   0  0  0  0  0  0  0  0  0  0  0  0
   36.7960   30.8850   40.1040 C   0  0  0  0  0  0  0  0  0  0  0  0
   36.7430   29.6290   39.5290 C   0  0  0  0  0  0  0  0  0  0  0  0
   37.1640   28.5570   40.2320 N   0  0  0  0  0  0  0  0  0  0  0  0
   37.6430   28.6740   41.4990 C   0  0  0  0  0  0  0  0  0  0  0  0
   37.7030   29.8740   42.0750 N   0  0  0  0  0  0  0  0  0  0  0  0
   37.3520   31.9470   41.9000 H   0  0  0  0  0  0  0  0  0  0  0  0
   36.4640   31.7280   39.5520 H   0  0  0  0  0  0  0  0  0  0  0  0
   38.0760   27.5090   42.2000 N   0  0  0  0  0  0  0  0  0  0  0  0
   38.3160   27.4170   43.6270 C   0  0  0  0  0  2  0  0  0  0  0  0
   39.5730   26.5740   43.6790 C   0  0  0  0  0  2  0  0  0  0  0  0
   39.5040   25.7160   42.4570 C   0  0  0  0  0  2  0  0  0  0  0  0
   38.3530   26.2110   41.6090 C   0  0  0  0  0  3  0  0  0  0  0  0
   37.4690   25.5660   41.7780 H   0  0  0  0  0  0  0  0  0  0  0  0
  1  2  1  0  0  0  0
  1 10  1  0  0  0  0
  2 17  1  0  0  0  0
  3 11  1  0  0  0  0
  3  2  2  0  0  0  0
  4  3  1  0  0  0  0
  5  4  1  0  0  0  0
  6  7  2  0  0  0  0
  6  5  1  0  0  0  0
  7  8  1  0  0  0  0
  8  4  2  0  0  0  0
  8  9  1  0  0  0  0
  9  1  2  0  0  0  0
 12  5  1  0  0  0  0
 13  6  1  0  0  0  0
 14  9  1  0  0  0  0
 15 21  1  0  0  0  0
 15 20  1  0  0  0  0
 16 15  2  0  0  0  0
 17 16  1  0  0  0  0
 17 18  2  0  0  0  0
 18 19  1  0  0  0  0
 19 20  2  0  0  0  0
 19 23  1  0  0  0  0
 22 16  1  0  0  0  0
 23 24  1  0  0  0  0
 24 25  1  0  0  0  0
 26 25  1  0  0  0  0
 27 28  1  0  0  0  0
 27 23  1  0  0  0  0
 27 26  1  0  0  0  0
M  END
>  <minimizedAffinity>
-5.22785902

$$$$

 OpenBabel03242521353D

 28 31  0  0  0  0  0  0  0  0999 V2000
   38.4470   29.7570   39.3300 C   0  0  0  0  0  0  0  0  0  0  0  0
   37.1450   30.0770   39.0300 C   0  0  0  0  0  0  0  0  0  0  0  0
   36.7180   31.3760   39.2560 C   0  0  0  0  0  0  0  0  0  0  0  0
   37.5450   32.3620   39.7700 C   0  0  0  0  0  0  0  0  0  0  0  0
   37.3630   33.6630   40.0700 N   0  0  0  0  0  0  0  0  0  0  0  0
   38.5280   34.1610   40.5510 C   0  0  0  0  0  0  0  0  0  0  0  0
   39.4330   33.1510   40.5470 N   0  0  0  0  0  0  0  0  0  0  0  0
   38.8590   32.0280   40.0690 C   0  0  0  0  0  0  0  0  0  0  0  0
   39.3010   30.7380   39.8500 C   0  0  0  0  0  0  0  0  0  0  0  0
   38.8680   28.7700   39.1860 H   0  0  0  0  0  0  0  0  0  0  0  0
   35.6910   31.6170   39.0160 H   0  0  0  0  0  0  0  0  0  0  0  0
   36.4860   34.2180   39.9600 H   0  0  0  0  0  0  0  0  0  0  0  0
   38.7780   35.1560   40.8970 H   0  0  0  0  0  0  0  0  0  0  0  0
   40.3280   30.4730   40.0830 H   0  0  0  0  0  0  0  0  0  0  0  0
   34.4920   28.1610   37.1620 C   0  0  0  0  0  0  0  0  0  0  0  0
   35.2510   29.2770   37.6090 C   0  0  0  0  0  0  0  0  0  0  0  0
   36.2860   29.0310   38.4900 C   0  0  0  0  0  0  0  0  0  0  0  0
   36.5360   27.7650   38.8880 N   0  0  0  0  0  0  0  0  0  0  0  0
   35.7940   26.7150   38.4440 C   0  0  0  0  0  0  0  0  0  0  0  0
   34.7900   26.9280   37.5940 N   0  0  0  0  0  0  0  0  0  0  0  0
   33.6780   28.3270   36.4730 H   0  0  0  0  0  0  0  0  0  0  0  0
   35.0550   30.2710   37.2960 H   0  0  0  0  0  0  0  0  0  0  0  0
   36.0980   25.3960   38.8940 N   0  0  0  0  0  0  0  0  0  0  0  0
   35.6200   24.1640   38.2990 C   0  0  0  0  0  2  0  0  0  0  0  0
   35.3090   23.3250   39.5200 C   0  0  0  0  0  2  0  0  0  0  0  0
   36.2580   23.8150   40.5660 C   0  0  0  0  0  2  0  0  0  0  0  0
   36.9390   25.0550   40.0290 C   0  0  0  0  0  3  0  0  0  0  0  0
   37.9390   24.7830   39.6390 H   0  0  0  0  0  0  0  0  0  0  0  0
  1  9  1  0  0  0  0
  2  3  1  0  0  0  0
  2  1  2  0  0  0  0
  3  4  2  0  0  0  0
  4  8  1  0  0  0  0
  4  5  1  0  0  0  0
  5  6  1  0  0  0  0
  6 13  1  0  0  0  0
  7  6  2  0  0  0  0
  8  7  1  0  0  0  0
  9  8  2  0  0  0  0
  9 14  1  0  0  0  0
 10  1  1  0  0  0  0
 11  3  1  0  0  0  0
 12  5  1  0  0  0  0
 15 20  2  0  0  0  0
 15 16  1  0  0  0  0
 16 17  2  0  0  0  0
 17 18  1  0  0  0  0
 17  2  1  0  0  0  0
 19 18  2  0  0  0  0
 19 23  1  0  0  0  0
 20 19  1  0  0  0  0
 21 15  1  0  0  0  0
 22 16  1  0  0  0  0
 23 27  1  0  0  0  0
 24 23  1  0  0  0  0
 24 25  1  0  0  0  0
 25 26  1  0  0  0  0
 27 26  1  0  0  0  0
 28 27  1  0  0  0  0
M  END
>  <minimizedAffinity>
-5.19560146

$$$$

 OpenBabel03242521353D

 28 31  0  0  0  0  0  0  0  0999 V2000
   35.8930   29.4120   35.8290 C   0  0  0  0  0  0  0  0  0  0  0  0
   35.6740   29.3360   37.1840 C   0  0  0  0  0  0  0  0  0  0  0  0
   34.3950   29.0410   37.6270 C   0  0  0  0  0  0  0  0  0  0  0  0
   33.3310   28.8220   36.7670 C   0  0  0  0  0  0  0  0  0  0  0  0
   32.0290   28.5270   36.9560 N   0  0  0  0  0  0  0  0  0  0  0  0
   31.4320   28.4180   35.7440 C   0  0  0  0  0  0  0  0  0  0  0  0
   32.3800   28.6500   34.8030 N   0  0  0  0  0  0  0  0  0  0  0  0
   33.5630   28.9010   35.4010 C   0  0  0  0  0  0  0  0  0  0  0  0
   34.8320   29.1930   34.9410 C   0  0  0  0  0  0  0  0  0  0  0  0
   36.8580   29.6360   35.3920 H   0  0  0  0  0  0  0  0  0  0  0  0
   34.2340   28.9830   38.6960 H   0  0  0  0  0  0  0  0  0  0  0  0
   31.5380   28.3990   37.8680 H   0  0  0  0  0  0  0  0  0  0  0  0
   30.4050   28.1950   35.4840 H   0  0  0  0  0  0  0  0  0  0  0  0
   35.0170   29.2560   33.8730 H   0  0  0  0  0  0  0  0  0  0  0  0
   39.0030   30.3210   38.6470 C   0  0  0  0  0  0  0  0  0  0  0  0
   37.9850   30.1530   37.6690 C   0  0  0  0  0  0  0  0  0  0  0  0
   36.8010   29.5700   38.0770 C   0  0  0  0  0  0  0  0  0  0  0  0
   36.6550   29.1880   39.3640 N   0  0  0  0  0  0  0  0  0  0  0  0
   37.6460   29.3620   40.2790 C   0  0  0  0  0  0  0  0  0  0  0  0
   38.7970   29.9220   39.9090 N   0  0  0  0  0  0  0  0  0  0  0  0
   39.9380   30.7740   38.3530 H   0  0  0  0  0  0  0  0  0  0  0  0
   38.1000   30.4530   36.6590 H   0  0  0  0  0  0  0  0  0  0  0  0
   37.4420   28.9410   41.6270 N   0  0  0  0  0  0  0  0  0  0  0  0
   38.2520   29.3220   42.7670 C   0  0  0  0  0  2  0  0  0  0  0  0
   38.3460   28.0200   43.5350 C   0  0  0  0  0  2  0  0  0  0  0  0
   37.0830   27.2940   43.2010 C   0  0  0  0  0  2  0  0  0  0  0  0
   36.3880   28.0580   42.0950 C   0  0  0  0  0  3  0  0  0  0  0  0
   35.5880   28.6860   42.5320 H   0  0  0  0  0  0  0  0  0  0  0  0
  1  2  1  0  0  0  0
  2  3  2  0  0  0  0
  2 17  1  0  0  0  0
  3 11  1  0  0  0  0
  4  5  1  0  0  0  0
  4  3  1  0  0  0  0
  5 12  1  0  0  0  0
  6  5  1  0  0  0  0
  7  8  1  0  0  0  0
  7  6  2  0  0  0  0
  8  4  2  0  0  0  0
  9  8  1  0  0  0  0
  9  1  2  0  0  0  0
 10  1  1  0  0  0  0
 13  6  1  0  0  0  0
 14  9  1  0  0  0  0
 15 20  1  0  0  0  0
 16 17  1  0  0  0  0
 16 15  2  0  0  0  0
 17 18  2  0  0  0  0
 18 19  1  0  0  0  0
 19 23  1  0  0  0  0
 20 19  2  0  0  0  0
 21 15  1  0  0  0  0
 22 16  1  0  0  0  0
 23 27  1  0  0  0  0
 23 24  1  0  0  0  0
 24 25  1  0  0  0  0
 26 25  1  0  0  0  0
 27 28  1  0  0  0  0
 27 26  1  0  0  0  0
M  END
>  <minimizedAffinity>
-5.13494205

$$$$

 OpenBabel03242521353D

 28 31  0  0  0  0  0  0  0  0999 V2000
   41.6180   28.4140   43.0550 C   0  0  0  0  0  0  0  0  0  0  0  0
   40.4850   29.1440   42.7830 C   0  0  0  0  0  0  0  0  0  0  0  0
   40.6150   30.5100   42.5860 C   0  0  0  0  0  0  0  0  0  0  0  0
   41.8320   31.1680   42.6520 C   0  0  0  0  0  0  0  0  0  0  0  0
   42.2010   32.4560   42.5000 N   0  0  0  0  0  0  0  0  0  0  0  0
   43.5430   32.5420   42.6720 C   0  0  0  0  0  0  0  0  0  0  0  0
   44.0000   31.2920   42.9320 N   0  0  0  0  0  0  0  0  0  0  0  0
   42.9700   30.4210   42.9260 C   0  0  0  0  0  0  0  0  0  0  0  0
   42.8590   29.0590   43.1250 C   0  0  0  0  0  0  0  0  0  0  0  0
   41.6120   27.3450   43.2220 H   0  0  0  0  0  0  0  0  0  0  0  0
   39.7170   31.0740   42.3720 H   0  0  0  0  0  0  0  0  0  0  0  0
   41.5820   33.2670   42.2860 H   0  0  0  0  0  0  0  0  0  0  0  0
   44.2030   33.3990   42.6290 H   0  0  0  0  0  0  0  0  0  0  0  0
   43.7470   28.4720   43.3400 H   0  0  0  0  0  0  0  0  0  0  0  0
   36.9140   28.0470   43.2720 C   0  0  0  0  0  0  0  0  0  0  0  0
   38.0920   28.8260   43.4290 C   0  0  0  0  0  0  0  0  0  0  0  0
   39.2120   28.4400   42.7180 C   0  0  0  0  0  0  0  0  0  0  0  0
   39.1480   27.3570   41.9140 N   0  0  0  0  0  0  0  0  0  0  0  0
   38.0080   26.6290   41.7810 C   0  0  0  0  0  0  0  0  0  0  0  0
   36.9150   26.9820   42.4580 N   0  0  0  0  0  0  0  0  0  0  0  0
   36.0260   28.3290   43.8170 H   0  0  0  0  0  0  0  0  0  0  0  0
   38.1410   29.6770   44.0610 H   0  0  0  0  0  0  0  0  0  0  0  0
   37.9920   25.4920   40.9190 N   0  0  0  0  0  0  0  0  0  0  0  0
   36.8090   24.8080   40.4360 C   0  0  0  0  0  2  0  0  0  0  0  0
   37.2260   23.3550   40.5310 C   0  0  0  0  0  2  0  0  0  0  0  0
   38.7090   23.3760   40.3470 C   0  0  0  0  0  2  0  0  0  0  0  0
   39.1590   24.8200   40.3720 C   0  0  0  0  0  3  0  0  0  0  0  0
   39.3010   25.1780   39.3340 H   0  0  0  0  0  0  0  0  0  0  0  0
  1  9  1  0  0  0  0
  1 10  1  0  0  0  0
  2  1  2  0  0  0  0
  3  4  2  0  0  0  0
  3  2  1  0  0  0  0
  4  8  1  0  0  0  0
  5  4  1  0  0  0  0
  5  6  1  0  0  0  0
  6  7  2  0  0  0  0
  8  7  1  0  0  0  0
  8  9  2  0  0  0  0
  9 14  1  0  0  0  0
 11  3  1  0  0  0  0
 12  5  1  0  0  0  0
 13  6  1  0  0  0  0
 15 16  1  0  0  0  0
 15 21  1  0  0  0  0
 16 22  1  0  0  0  0
 17  2  1  0  0  0  0
 17 16  2  0  0  0  0
 18 17  1  0  0  0  0
 19 18  2  0  0  0  0
 19 20  1  0  0  0  0
 20 15  2  0  0  0  0
 23 19  1  0  0  0  0
 24 25  1  0  0  0  0
 24 23  1  0  0  0  0
 26 27  1  0  0  0  0
 26 25  1  0  0  0  0
 27 23  1  0  0  0  0
 28 27  1  0  0  0  0
M  END
>  <minimizedAffinity>
-5.0546031

$$$$
