
 OpenBabel03252509223D

 24 26  0  0  1  0  0  0  0  0999 V2000
   45.2730   35.1010   42.6630 C   0  0  1  0  0  0  0  0  0  0  0  0
   46.0640   34.6850   41.3920 C   0  0  0  0  0  0  0  0  0  0  0  0
   44.5440   34.4220   41.6530 C   0  0  2  0  0  0  0  0  0  0  0  0
   45.2890   36.1840   42.8570 H   0  0  0  0  0  0  0  0  0  0  0  0
   46.7060   33.8090   41.4210 H   0  0  0  0  0  0  0  0  0  0  0  0
   46.3120   35.5310   40.7600 H   0  0  0  0  0  0  0  0  0  0  0  0
   44.3110   33.3280   41.8380 H   0  0  0  0  0  0  0  0  0  0  0  0
   45.6490   33.6670   46.1110 C   0  0  0  0  0  0  0  0  0  0  0  0
   45.1680   34.5200   45.0620 C   0  0  0  0  0  0  0  0  0  0  0  0
   45.7700   34.2940   43.8520 C   0  0  0  0  0  0  0  0  0  0  0  0
   46.7580   33.3240   43.6760 N   0  0  0  0  0  0  0  0  0  0  0  0
   47.1540   32.5680   44.7040 C   0  0  0  0  0  0  0  0  0  0  0  0
   46.5980   32.7360   45.9350 N   0  0  0  0  0  0  0  0  0  0  0  0
   45.2160   33.7950   47.0810 H   0  0  0  0  0  0  0  0  0  0  0  0
   47.9190   31.8840   44.3640 H   0  0  0  0  0  0  0  0  0  0  0  0
   44.1820   35.5160   45.2620 N   0  0  0  0  0  0  0  0  0  0  0  0
   43.1520   35.4380   45.1540 H   0  0  0  0  0  0  0  0  0  0  0  0
   44.9000   36.2480   45.5310 H   0  0  0  0  0  0  0  0  0  0  0  0
   43.7250   35.0070   40.6440 N   0  0  1  0  0  0  0  0  0  0  0  0
   43.3520   33.9810   39.6920 C   0  0  0  0  0  2  0  0  0  0  0  0
   41.9640   33.5220   40.0720 C   0  0  0  0  0  2  0  0  0  0  0  0
   41.6810   34.2110   41.3830 C   0  0  0  0  0  2  0  0  0  0  0  0
   42.4680   35.5000   41.1860 C   0  0  0  0  0  3  0  0  0  0  0  0
   42.6010   36.0660   42.1060 H   0  0  0  0  0  0  0  0  0  0  0  0
  1  4  1  1  0  0  0
  1 10  1  0  0  0  0
  2  5  1  0  0  0  0
  2  3  1  0  0  0  0
  2  1  1  0  0  0  0
  3  7  1  1  0  0  0
  3  1  1  0  0  0  0
  6  2  1  0  0  0  0
  8 14  1  0  0  0  0
  9 16  1  0  0  0  0
  9  8  2  0  0  0  0
 10  9  1  0  0  0  0
 11 10  2  0  0  0  0
 11 12  1  0  0  0  0
 12 13  2  0  0  0  0
 13  8  1  0  0  0  0
 15 12  1  0  0  0  0
 16 18  1  0  0  0  0
 17 16  1  0  0  0  0
 19 20  1  6  0  0  0
 19 23  1  0  0  0  0
 19  3  1  0  0  0  0
 20 21  1  0  0  0  0
 21 22  1  0  0  0  0
 23 22  1  0  0  0  0
 23 24  1  0  0  0  0
M  END
>  <minimizedAffinity>
-4.53192043

>  <minimizedRMSD>
3.85659528

$$$$
