
 OpenBabel03252504033D

 16 17  0  0  0  0  0  0  0  0999 V2000
   44.5300   35.5780   45.0970 C   0  0  0  0  0  0  0  0  0  0  0  0
   45.1260   35.6820   43.8180 C   0  0  0  0  0  0  0  0  0  0  0  0
   46.0890   34.7030   43.5090 C   0  0  0  0  0  0  0  0  0  0  0  0
   46.3930   33.7460   44.4050 N   0  0  0  0  0  0  0  0  0  0  0  0
   45.7900   33.6900   45.6240 C   0  0  0  0  0  0  0  0  0  0  0  0
   44.8530   34.6200   45.9590 N   0  0  0  0  0  0  0  0  0  0  0  0
   43.7880   36.3300   45.3380 H   0  0  0  0  0  0  0  0  0  0  0  0
   46.0910   32.8900   46.2850 H   0  0  0  0  0  0  0  0  0  0  0  0
   46.6920   34.8030   42.2220 N   0  0  0  0  0  0  0  0  0  0  0  0
   47.9510   35.4230   41.8370 C   0  0  0  0  0  0  0  0  0  0  0  0
   48.5850   34.2230   41.1300 C   0  0  0  0  0  0  0  0  0  0  0  0
   47.4790   33.9330   40.1360 C   0  0  0  0  0  0  0  0  0  0  0  0
   46.2520   34.3300   40.9240 C   0  0  0  0  0  0  0  0  0  0  0  0
   45.6500   33.3810   41.0150 H   0  0  0  0  0  0  0  0  0  0  0  0
   44.8160   36.6590   42.8990 O   0  0  0  0  0  0  0  0  0  0  0  0
   43.8230   36.8330   42.7160 H   0  0  0  0  0  0  0  0  0  0  0  0
  1  7  1  0  0  0  0
  1  6  1  0  0  0  0
  2  1  2  0  0  0  0
  3  2  1  0  0  0  0
  3  4  2  0  0  0  0
  4  5  1  0  0  0  0
  5  6  2  0  0  0  0
  5  8  1  0  0  0  0
  9  3  1  0  0  0  0
 10  9  1  0  0  0  0
 11 10  1  0  0  0  0
 12 13  1  0  0  0  0
 12 11  1  0  0  0  0
 13 14  1  0  0  0  0
 13  9  1  0  0  0  0
 15  2  1  0  0  0  0
 16 15  1  0  0  0  0
M  END
>  <minimizedAffinity>
-4.31548929

>  <minimizedRMSD>
1.07166588

$$$$
