
 OpenBabel03252507443D

 28 30  0  0  0  0  0  0  0  0999 V2000
   39.0930   33.6160   40.3140 C   0  0  0  0  0  0  0  0  0  0  0  0
   38.6530   34.3780   40.9880 H   0  0  0  0  0  0  0  0  0  0  0  0
   39.0290   34.0730   39.2900 H   0  0  0  0  0  0  0  0  0  0  0  0
   38.2020   32.4270   40.3890 C   0  0  0  0  0  0  0  0  0  0  0  0
   37.0100   32.3480   39.5990 C   0  0  0  0  0  0  0  0  0  0  0  0
   36.3080   30.7150   40.0680 S   0  0  0  0  0  0  0  0  0  0  0  0
   37.7610   30.4150   41.2620 C   0  0  0  0  0  0  0  0  0  0  0  0
   38.3810   31.3630   41.1390 N   0  0  0  0  0  0  0  0  0  0  0  0
   36.6670   33.1090   38.9120 H   0  0  0  0  0  0  0  0  0  0  0  0
   37.9080   29.2340   42.0590 N   0  0  0  0  0  0  0  0  0  0  0  0
   37.7010   29.0060   43.4770 C   0  0  0  0  0  2  0  0  0  0  0  0
   37.0590   27.6140   43.5380 C   0  0  0  0  0  2  0  0  0  0  0  0
   37.1620   27.0830   42.1080 C   0  0  0  0  0  2  0  0  0  0  0  0
   38.3230   27.9260   41.5850 C   0  0  0  0  0  3  0  0  0  0  0  0
   38.3910   27.8940   40.4840 H   0  0  0  0  0  0  0  0  0  0  0  0
   40.5050   33.3720   40.7020 C   0  0  0  0  0  0  0  0  0  0  0  0
   40.7920   33.9800   41.5520 H   0  0  0  0  0  0  0  0  0  0  0  0
   40.5550   32.3030   41.0630 H   0  0  0  0  0  0  0  0  0  0  0  0
   41.4660   33.4830   39.5850 C   0  0  0  0  0  0  0  0  0  0  0  0
   42.7840   33.8430   39.9000 C   0  0  0  0  0  0  0  0  0  0  0  0
   43.7150   33.9580   38.8840 C   0  0  0  0  0  0  0  0  0  0  0  0
   43.3020   33.7120   37.6070 N   0  0  0  0  0  0  0  0  0  0  0  0
   42.0270   33.3670   37.3340 C   0  0  0  0  0  0  0  0  0  0  0  0
   41.1340   33.2580   38.3190 N   0  0  0  0  0  0  0  0  0  0  0  0
   44.7450   34.2360   39.1040 H   0  0  0  0  0  0  0  0  0  0  0  0
   41.7110   33.1750   36.3150 H   0  0  0  0  0  0  0  0  0  0  0  0
   43.2430   34.1490   41.6160 S   0  0  0  0  0  0  0  0  0  0  0  0
   43.5270   32.9410   42.2760 H   0  0  0  0  0  0  0  0  0  0  0  0
  1  4  1  0  0  0  0
  1 16  1  0  0  0  0
  1  2  1  0  0  0  0
  3  1  1  0  0  0  0
  4  8  1  0  0  0  0
  5  6  1  0  0  0  0
  5  4  2  0  0  0  0
  6  7  1  0  0  0  0
  7 10  1  0  0  0  0
  8  7  2  0  0  0  0
  9  5  1  0  0  0  0
 10 11  1  0  0  0  0
 11 12  1  0  0  0  0
 13 12  1  0  0  0  0
 14 10  1  0  0  0  0
 14 13  1  0  0  0  0
 15 14  1  0  0  0  0
 16 18  1  0  0  0  0
 16 17  1  0  0  0  0
 19 20  1  0  0  0  0
 19 16  1  0  0  0  0
 20 27  1  0  0  0  0
 21 25  1  0  0  0  0
 21 20  2  0  0  0  0
 22 21  1  0  0  0  0
 23 22  2  0  0  0  0
 23 24  1  0  0  0  0
 24 19  2  0  0  0  0
 26 23  1  0  0  0  0
 27 28  1  0  0  0  0
M  END
>  <minimizedAffinity>
-4.88553286

$$$$

 OpenBabel03252507443D

 28 30  0  0  0  0  0  0  0  0999 V2000
   37.3000   28.9330   42.6100 C   0  0  0  0  0  0  0  0  0  0  0  0
   36.5860   28.2430   42.1180 H   0  0  0  0  0  0  0  0  0  0  0  0
   36.7640   29.2870   43.5310 H   0  0  0  0  0  0  0  0  0  0  0  0
   37.4940   30.0730   41.6720 C   0  0  0  0  0  0  0  0  0  0  0  0
   36.3730   30.7430   41.0860 C   0  0  0  0  0  0  0  0  0  0  0  0
   37.1600   32.0340   40.0410 S   0  0  0  0  0  0  0  0  0  0  0  0
   38.8870   31.4400   40.5810 C   0  0  0  0  0  0  0  0  0  0  0  0
   38.6430   30.5790   41.2860 N   0  0  0  0  0  0  0  0  0  0  0  0
   35.3360   30.4940   41.2640 H   0  0  0  0  0  0  0  0  0  0  0  0
   40.1120   32.0290   40.1280 N   0  0  0  0  0  0  0  0  0  0  0  0
   41.0980   31.5670   39.1690 C   0  0  0  0  0  2  0  0  0  0  0  0
   41.5140   32.8400   38.4210 C   0  0  0  0  0  2  0  0  0  0  0  0
   40.8500   33.9750   39.2020 C   0  0  0  0  0  2  0  0  0  0  0  0
   40.6630   33.3010   40.5600 C   0  0  0  0  0  3  0  0  0  0  0  0
   39.9550   33.8560   41.1990 H   0  0  0  0  0  0  0  0  0  0  0  0
   38.5370   28.1910   42.9640 C   0  0  0  0  0  0  0  0  0  0  0  0
   39.4100   28.6330   42.4990 H   0  0  0  0  0  0  0  0  0  0  0  0
   38.6820   28.3280   44.0750 H   0  0  0  0  0  0  0  0  0  0  0  0
   38.4550   26.7340   42.7280 C   0  0  0  0  0  0  0  0  0  0  0  0
   39.5880   25.9660   43.0300 C   0  0  0  0  0  0  0  0  0  0  0  0
   39.5530   24.5990   42.8240 C   0  0  0  0  0  0  0  0  0  0  0  0
   38.4030   24.0560   42.3310 N   0  0  0  0  0  0  0  0  0  0  0  0
   37.3280   24.8200   42.0490 C   0  0  0  0  0  0  0  0  0  0  0  0
   37.3680   26.1380   42.2510 N   0  0  0  0  0  0  0  0  0  0  0  0
   40.4210   23.9810   43.0520 H   0  0  0  0  0  0  0  0  0  0  0  0
   36.4200   24.3770   41.6570 H   0  0  0  0  0  0  0  0  0  0  0  0
   41.0660   26.7680   43.6800 S   0  0  0  0  0  0  0  0  0  0  0  0
   40.9560   26.9600   45.0680 H   0  0  0  0  0  0  0  0  0  0  0  0
  1 16  1  0  0  0  0
  1  3  1  0  0  0  0
  2  1  1  0  0  0  0
  4  1  1  0  0  0  0
  5  9  1  0  0  0  0
  5  4  2  0  0  0  0
  6  7  1  0  0  0  0
  6  5  1  0  0  0  0
  7  8  2  0  0  0  0
  8  4  1  0  0  0  0
 10 14  1  0  0  0  0
 10  7  1  0  0  0  0
 11 10  1  0  0  0  0
 12 11  1  0  0  0  0
 12 13  1  0  0  0  0
 13 14  1  0  0  0  0
 14 15  1  0  0  0  0
 16 18  1  0  0  0  0
 17 16  1  0  0  0  0
 19 16  1  0  0  0  0
 19 20  1  0  0  0  0
 20 27  1  0  0  0  0
 21 20  2  0  0  0  0
 21 25  1  0  0  0  0
 22 21  1  0  0  0  0
 23 24  1  0  0  0  0
 23 22  2  0  0  0  0
 24 19  2  0  0  0  0
 26 23  1  0  0  0  0
 27 28  1  0  0  0  0
M  END
>  <minimizedAffinity>
-4.7984004

$$$$

 OpenBabel03252507443D

 28 30  0  0  0  0  0  0  0  0999 V2000
   37.3240   28.7300   43.1830 C   0  0  0  0  0  0  0  0  0  0  0  0
   36.3870   28.9610   43.7300 H   0  0  0  0  0  0  0  0  0  0  0  0
   38.1400   28.8920   43.9380 H   0  0  0  0  0  0  0  0  0  0  0  0
   37.4360   29.7420   42.0980 C   0  0  0  0  0  0  0  0  0  0  0  0
   36.2820   30.1630   41.3610 C   0  0  0  0  0  0  0  0  0  0  0  0
   36.9700   31.3900   40.1780 S   0  0  0  0  0  0  0  0  0  0  0  0
   38.7160   31.1220   40.8890 C   0  0  0  0  0  0  0  0  0  0  0  0
   38.5350   30.3430   41.7000 N   0  0  0  0  0  0  0  0  0  0  0  0
   35.2760   29.8010   41.5200 H   0  0  0  0  0  0  0  0  0  0  0  0
   39.8840   31.8050   40.4180 N   0  0  0  0  0  0  0  0  0  0  0  0
   40.9870   31.3520   39.5910 C   0  0  0  0  0  2  0  0  0  0  0  0
   41.2880   32.5530   38.6850 C   0  0  0  0  0  2  0  0  0  0  0  0
   40.4290   33.6840   39.2530 C   0  0  0  0  0  2  0  0  0  0  0  0
   40.2340   33.1880   40.6850 C   0  0  0  0  0  3  0  0  0  0  0  0
   39.4170   33.7240   41.1970 H   0  0  0  0  0  0  0  0  0  0  0  0
   37.2920   27.3170   42.7270 C   0  0  0  0  0  0  0  0  0  0  0  0
   36.4350   26.7910   43.1330 H   0  0  0  0  0  0  0  0  0  0  0  0
   37.1280   27.3470   41.6100 H   0  0  0  0  0  0  0  0  0  0  0  0
   38.5550   26.5830   42.9460 C   0  0  0  0  0  0  0  0  0  0  0  0
   38.5990   25.2400   42.5470 C   0  0  0  0  0  0  0  0  0  0  0  0
   39.7630   24.5160   42.7340 C   0  0  0  0  0  0  0  0  0  0  0  0
   40.8260   25.1520   43.3050 N   0  0  0  0  0  0  0  0  0  0  0  0
   40.7550   26.4460   43.6790 C   0  0  0  0  0  0  0  0  0  0  0  0
   39.6290   27.1380   43.4960 N   0  0  0  0  0  0  0  0  0  0  0  0
   39.8210   23.4720   42.4310 H   0  0  0  0  0  0  0  0  0  0  0  0
   41.6060   26.9400   44.1320 H   0  0  0  0  0  0  0  0  0  0  0  0
   37.1460   24.4800   41.7990 S   0  0  0  0  0  0  0  0  0  0  0  0
   37.0820   24.7760   40.4260 H   0  0  0  0  0  0  0  0  0  0  0  0
  1  2  1  0  0  0  0
  1  3  1  0  0  0  0
  4  1  1  0  0  0  0
  5  9  1  0  0  0  0
  5  4  2  0  0  0  0
  6  7  1  0  0  0  0
  6  5  1  0  0  0  0
  7  8  2  0  0  0  0
  8  4  1  0  0  0  0
 10 14  1  0  0  0  0
 10  7  1  0  0  0  0
 11 10  1  0  0  0  0
 12 13  1  0  0  0  0
 12 11  1  0  0  0  0
 13 14  1  0  0  0  0
 14 15  1  0  0  0  0
 16 19  1  0  0  0  0
 16 17  1  0  0  0  0
 16  1  1  0  0  0  0
 18 16  1  0  0  0  0
 19 24  1  0  0  0  0
 20 21  1  0  0  0  0
 20 19  2  0  0  0  0
 21 22  2  0  0  0  0
 22 23  1  0  0  0  0
 23 26  1  0  0  0  0
 24 23  2  0  0  0  0
 25 21  1  0  0  0  0
 27 20  1  0  0  0  0
 28 27  1  0  0  0  0
M  END
>  <minimizedAffinity>
-4.79617119

$$$$

 OpenBabel03252507443D

 28 30  0  0  0  0  0  0  0  0999 V2000
   36.2270   30.6970   41.0590 C   0  0  0  0  0  0  0  0  0  0  0  0
   36.3060   31.5230   41.7950 H   0  0  0  0  0  0  0  0  0  0  0  0
   35.1440   30.3990   41.0820 H   0  0  0  0  0  0  0  0  0  0  0  0
   37.0650   29.5860   41.5840 C   0  0  0  0  0  0  0  0  0  0  0  0
   38.1040   29.8350   42.5380 C   0  0  0  0  0  0  0  0  0  0  0  0
   38.8030   28.1610   42.8380 S   0  0  0  0  0  0  0  0  0  0  0  0
   37.5570   27.4050   41.6110 C   0  0  0  0  0  0  0  0  0  0  0  0
   36.9680   28.3160   41.2640 N   0  0  0  0  0  0  0  0  0  0  0  0
   38.3600   30.8050   42.9410 H   0  0  0  0  0  0  0  0  0  0  0  0
   37.4940   26.0080   41.2970 N   0  0  0  0  0  0  0  0  0  0  0  0
   37.9250   25.2720   40.1240 C   0  0  0  0  0  2  0  0  0  0  0  0
   38.5070   23.9720   40.6940 C   0  0  0  0  0  2  0  0  0  0  0  0
   38.1430   24.0120   42.1800 C   0  0  0  0  0  2  0  0  0  0  0  0
   36.9480   24.9630   42.1450 C   0  0  0  0  0  3  0  0  0  0  0  0
   36.6970   25.3430   43.1500 H   0  0  0  0  0  0  0  0  0  0  0  0
   36.6140   31.1980   39.7150 C   0  0  0  0  0  0  0  0  0  0  0  0
   36.7620   30.3830   39.0170 H   0  0  0  0  0  0  0  0  0  0  0  0
   35.7260   31.7750   39.3240 H   0  0  0  0  0  0  0  0  0  0  0  0
   37.7530   32.1390   39.7260 C   0  0  0  0  0  0  0  0  0  0  0  0
   38.9370   31.7270   39.0980 C   0  0  0  0  0  0  0  0  0  0  0  0
   40.0280   32.5770   39.0850 C   0  0  0  0  0  0  0  0  0  0  0  0
   39.8980   33.7920   39.6940 N   0  0  0  0  0  0  0  0  0  0  0  0
   38.7470   34.1610   40.2910 C   0  0  0  0  0  0  0  0  0  0  0  0
   37.6990   33.3360   40.2990 N   0  0  0  0  0  0  0  0  0  0  0  0
   40.9570   32.2800   38.6030 H   0  0  0  0  0  0  0  0  0  0  0  0
   38.6570   35.1280   40.7720 H   0  0  0  0  0  0  0  0  0  0  0  0
   39.0190   30.1050   38.3180 S   0  0  0  0  0  0  0  0  0  0  0  0
   38.4700   30.1480   37.0230 H   0  0  0  0  0  0  0  0  0  0  0  0
  1  3  1  0  0  0  0
  1  4  1  0  0  0  0
  1  2  1  0  0  0  0
  4  5  2  0  0  0  0
  5  6  1  0  0  0  0
  5  9  1  0  0  0  0
  7  6  1  0  0  0  0
  8  4  1  0  0  0  0
  8  7  2  0  0  0  0
 10  7  1  0  0  0  0
 10 14  1  0  0  0  0
 11 12  1  0  0  0  0
 11 10  1  0  0  0  0
 12 13  1  0  0  0  0
 14 13  1  0  0  0  0
 14 15  1  0  0  0  0
 16 19  1  0  0  0  0
 16  1  1  0  0  0  0
 17 16  1  0  0  0  0
 18 16  1  0  0  0  0
 19 24  1  0  0  0  0
 20 19  2  0  0  0  0
 21 20  1  0  0  0  0
 21 22  2  0  0  0  0
 22 23  1  0  0  0  0
 23 24  2  0  0  0  0
 23 26  1  0  0  0  0
 25 21  1  0  0  0  0
 27 20  1  0  0  0  0
 28 27  1  0  0  0  0
M  END
>  <minimizedAffinity>
-4.79307079

$$$$

 OpenBabel03252507443D

 28 30  0  0  0  0  0  0  0  0999 V2000
   39.9420   29.8490   42.3650 C   0  0  0  0  0  0  0  0  0  0  0  0
   40.8810   29.4160   42.7660 H   0  0  0  0  0  0  0  0  0  0  0  0
   39.6980   30.6940   43.0640 H   0  0  0  0  0  0  0  0  0  0  0  0
   38.9070   28.7870   42.4800 C   0  0  0  0  0  0  0  0  0  0  0  0
   37.8320   28.9040   43.4180 C   0  0  0  0  0  0  0  0  0  0  0  0
   36.8730   27.3590   43.1480 S   0  0  0  0  0  0  0  0  0  0  0  0
   38.1030   26.8140   41.8000 C   0  0  0  0  0  0  0  0  0  0  0  0
   38.8480   27.6750   41.7820 N   0  0  0  0  0  0  0  0  0  0  0  0
   37.6830   29.7350   44.0930 H   0  0  0  0  0  0  0  0  0  0  0  0
   37.9920   25.5880   41.0670 N   0  0  0  0  0  0  0  0  0  0  0  0
   38.7350   24.3450   41.1640 C   0  0  0  0  0  2  0  0  0  0  0  0
   37.6700   23.2600   40.9600 C   0  0  0  0  0  2  0  0  0  0  0  0
   36.4160   24.0290   40.5430 C   0  0  0  0  0  2  0  0  0  0  0  0
   37.0470   25.3090   39.9990 C   0  0  0  0  0  3  0  0  0  0  0  0
   36.3050   26.1190   39.8910 H   0  0  0  0  0  0  0  0  0  0  0  0
   40.1830   30.3490   40.9870 C   0  0  0  0  0  0  0  0  0  0  0  0
   41.2430   30.4260   40.7750 H   0  0  0  0  0  0  0  0  0  0  0  0
   39.7900   29.5550   40.2880 H   0  0  0  0  0  0  0  0  0  0  0  0
   39.4550   31.5930   40.6610 C   0  0  0  0  0  0  0  0  0  0  0  0
   40.1930   32.7840   40.6250 C   0  0  0  0  0  0  0  0  0  0  0  0
   39.5500   33.9700   40.3240 C   0  0  0  0  0  0  0  0  0  0  0  0
   38.2100   33.9240   40.0720 N   0  0  0  0  0  0  0  0  0  0  0  0
   37.5250   32.7640   40.1130 C   0  0  0  0  0  0  0  0  0  0  0  0
   38.1520   31.6230   40.4040 N   0  0  0  0  0  0  0  0  0  0  0  0
   40.1030   34.9080   40.2890 H   0  0  0  0  0  0  0  0  0  0  0  0
   36.4610   32.7410   39.9110 H   0  0  0  0  0  0  0  0  0  0  0  0
   41.9620   32.7510   40.9710 S   0  0  0  0  0  0  0  0  0  0  0  0
   42.6860   32.3910   39.8200 H   0  0  0  0  0  0  0  0  0  0  0  0
  1  4  1  0  0  0  0
  1  2  1  0  0  0  0
  1  3  1  0  0  0  0
  4  5  2  0  0  0  0
  5  9  1  0  0  0  0
  6  5  1  0  0  0  0
  7  6  1  0  0  0  0
  8  7  2  0  0  0  0
  8  4  1  0  0  0  0
 10 11  1  0  0  0  0
 10  7  1  0  0  0  0
 12 11  1  0  0  0  0
 13 12  1  0  0  0  0
 14 13  1  0  0  0  0
 14 10  1  0  0  0  0
 15 14  1  0  0  0  0
 16  1  1  0  0  0  0
 17 16  1  0  0  0  0
 18 16  1  0  0  0  0
 19 16  1  0  0  0  0
 20 19  1  0  0  0  0
 20 27  1  0  0  0  0
 21 20  2  0  0  0  0
 22 23  2  0  0  0  0
 22 21  1  0  0  0  0
 23 24  1  0  0  0  0
 24 19  2  0  0  0  0
 25 21  1  0  0  0  0
 26 23  1  0  0  0  0
 28 27  1  0  0  0  0
M  END
>  <minimizedAffinity>
-4.64214993

$$$$

 OpenBabel03252507443D

 28 30  0  0  0  0  0  0  0  0999 V2000
   36.8220   27.7990   43.0820 C   0  0  0  0  0  0  0  0  0  0  0  0
   35.9790   27.1260   42.8270 H   0  0  0  0  0  0  0  0  0  0  0  0
   36.5140   28.2870   44.0460 H   0  0  0  0  0  0  0  0  0  0  0  0
   36.8870   28.8180   42.0010 C   0  0  0  0  0  0  0  0  0  0  0  0
   35.8550   28.9110   41.0130 C   0  0  0  0  0  0  0  0  0  0  0  0
   36.4210   30.2990   39.9490 S   0  0  0  0  0  0  0  0  0  0  0  0
   37.9710   30.5190   41.0330 C   0  0  0  0  0  0  0  0  0  0  0  0
   37.8380   29.7080   41.8220 N   0  0  0  0  0  0  0  0  0  0  0  0
   34.9790   28.2790   40.9670 H   0  0  0  0  0  0  0  0  0  0  0  0
   38.9790   31.5080   40.7940 N   0  0  0  0  0  0  0  0  0  0  0  0
   40.3190   31.3950   40.2480 C   0  0  0  0  0  2  0  0  0  0  0  0
   40.4690   32.6460   39.3720 C   0  0  0  0  0  2  0  0  0  0  0  0
   39.2280   33.4830   39.6870 C   0  0  0  0  0  2  0  0  0  0  0  0
   38.8670   32.9300   41.0640 C   0  0  0  0  0  3  0  0  0  0  0  0
   37.8410   33.2080   41.3610 H   0  0  0  0  0  0  0  0  0  0  0  0
   38.0560   26.9920   43.2640 C   0  0  0  0  0  0  0  0  0  0  0  0
   38.9390   27.6190   43.2800 H   0  0  0  0  0  0  0  0  0  0  0  0
   37.9890   26.5360   44.2950 H   0  0  0  0  0  0  0  0  0  0  0  0
   38.1860   25.8660   42.3160 C   0  0  0  0  0  0  0  0  0  0  0  0
   39.3230   25.8410   41.4960 C   0  0  0  0  0  0  0  0  0  0  0  0
   39.4840   24.8050   40.5940 C   0  0  0  0  0  0  0  0  0  0  0  0
   38.5160   23.8440   40.5450 N   0  0  0  0  0  0  0  0  0  0  0  0
   37.4330   23.8940   41.3460 C   0  0  0  0  0  0  0  0  0  0  0  0
   37.2840   24.8960   42.2140 N   0  0  0  0  0  0  0  0  0  0  0  0
   40.3590   24.7630   39.9470 H   0  0  0  0  0  0  0  0  0  0  0  0
   36.6710   23.1250   41.2980 H   0  0  0  0  0  0  0  0  0  0  0  0
   40.5520   27.1520   41.6280 S   0  0  0  0  0  0  0  0  0  0  0  0
   41.4400   26.8940   42.6870 H   0  0  0  0  0  0  0  0  0  0  0  0
  1 16  1  0  0  0  0
  1  3  1  0  0  0  0
  2  1  1  0  0  0  0
  4  1  1  0  0  0  0
  5  4  2  0  0  0  0
  6  5  1  0  0  0  0
  6  7  1  0  0  0  0
  7  8  2  0  0  0  0
  8  4  1  0  0  0  0
  9  5  1  0  0  0  0
 10  7  1  0  0  0  0
 10 14  1  0  0  0  0
 11 10  1  0  0  0  0
 12 13  1  0  0  0  0
 12 11  1  0  0  0  0
 13 14  1  0  0  0  0
 14 15  1  0  0  0  0
 16 17  1  0  0  0  0
 16 18  1  0  0  0  0
 19 16  1  0  0  0  0
 20 27  1  0  0  0  0
 20 19  2  0  0  0  0
 21 20  1  0  0  0  0
 22 21  2  0  0  0  0
 22 23  1  0  0  0  0
 23 24  2  0  0  0  0
 24 19  1  0  0  0  0
 25 21  1  0  0  0  0
 26 23  1  0  0  0  0
 27 28  1  0  0  0  0
M  END
>  <minimizedAffinity>
-4.53452778

$$$$

 OpenBabel03252507443D

 28 30  0  0  0  0  0  0  0  0999 V2000
   37.5340   28.7090   43.4390 C   0  0  0  0  0  0  0  0  0  0  0  0
   36.7870   29.5130   43.5960 H   0  0  0  0  0  0  0  0  0  0  0  0
   37.8880   28.4460   44.4720 H   0  0  0  0  0  0  0  0  0  0  0  0
   38.6490   29.3190   42.6660 C   0  0  0  0  0  0  0  0  0  0  0  0
   39.9600   28.7420   42.6840 C   0  0  0  0  0  0  0  0  0  0  0  0
   40.9220   29.8640   41.5910 S   0  0  0  0  0  0  0  0  0  0  0  0
   39.3730   30.9300   41.2940 C   0  0  0  0  0  0  0  0  0  0  0  0
   38.5820   30.3960   41.9150 N   0  0  0  0  0  0  0  0  0  0  0  0
   40.2420   27.8560   43.2340 H   0  0  0  0  0  0  0  0  0  0  0  0
   39.3540   32.0980   40.4630 N   0  0  0  0  0  0  0  0  0  0  0  0
   39.3200   33.5090   40.7990 C   0  0  0  0  0  2  0  0  0  0  0  0
   40.2500   34.1590   39.7670 C   0  0  0  0  0  2  0  0  0  0  0  0
   40.5680   33.0350   38.7800 C   0  0  0  0  0  2  0  0  0  0  0  0
   39.3690   32.1180   39.0110 C   0  0  0  0  0  3  0  0  0  0  0  0
   39.5350   31.1110   38.5920 H   0  0  0  0  0  0  0  0  0  0  0  0
   36.8760   27.5480   42.7880 C   0  0  0  0  0  0  0  0  0  0  0  0
   37.4870   26.6560   42.8620 H   0  0  0  0  0  0  0  0  0  0  0  0
   35.9470   27.3300   43.3910 H   0  0  0  0  0  0  0  0  0  0  0  0
   36.4280   27.8050   41.4040 C   0  0  0  0  0  0  0  0  0  0  0  0
   36.9850   27.0180   40.3870 C   0  0  0  0  0  0  0  0  0  0  0  0
   36.5930   27.2270   39.0770 C   0  0  0  0  0  0  0  0  0  0  0  0
   35.6690   28.2020   38.8340 N   0  0  0  0  0  0  0  0  0  0  0  0
   35.1500   28.9440   39.8330 C   0  0  0  0  0  0  0  0  0  0  0  0
   35.5330   28.7370   41.0940 N   0  0  0  0  0  0  0  0  0  0  0  0
   37.0110   26.6280   38.2700 H   0  0  0  0  0  0  0  0  0  0  0  0
   34.4170   29.7160   39.6270 H   0  0  0  0  0  0  0  0  0  0  0  0
   38.1990   25.7510   40.7990 S   0  0  0  0  0  0  0  0  0  0  0  0
   37.5610   24.5700   41.2180 H   0  0  0  0  0  0  0  0  0  0  0  0
  1  2  1  0  0  0  0
  1  3  1  0  0  0  0
  4  5  2  0  0  0  0
  4  1  1  0  0  0  0
  5  9  1  0  0  0  0
  6  5  1  0  0  0  0
  7  6  1  0  0  0  0
  7  8  2  0  0  0  0
  8  4  1  0  0  0  0
 10 11  1  0  0  0  0
 10  7  1  0  0  0  0
 12 11  1  0  0  0  0
 13 14  1  0  0  0  0
 13 12  1  0  0  0  0
 14 10  1  0  0  0  0
 15 14  1  0  0  0  0
 16 17  1  0  0  0  0
 16 18  1  0  0  0  0
 16  1  1  0  0  0  0
 19 16  1  0  0  0  0
 20 27  1  0  0  0  0
 20 19  2  0  0  0  0
 21 20  1  0  0  0  0
 22 21  2  0  0  0  0
 22 23  1  0  0  0  0
 23 24  2  0  0  0  0
 24 19  1  0  0  0  0
 25 21  1  0  0  0  0
 26 23  1  0  0  0  0
 27 28  1  0  0  0  0
M  END
>  <minimizedAffinity>
-4.5270524

$$$$

 OpenBabel03252507443D

 28 30  0  0  0  0  0  0  0  0999 V2000
   36.3850   30.7860   41.1170 C   0  0  0  0  0  0  0  0  0  0  0  0
   36.9960   31.2420   41.9220 H   0  0  0  0  0  0  0  0  0  0  0  0
   35.3260   30.8660   41.4840 H   0  0  0  0  0  0  0  0  0  0  0  0
   36.7850   29.3540   41.0480 C   0  0  0  0  0  0  0  0  0  0  0  0
   36.0370   28.4170   40.2670 C   0  0  0  0  0  0  0  0  0  0  0  0
   36.9430   26.8390   40.5300 S   0  0  0  0  0  0  0  0  0  0  0  0
   38.1910   27.7270   41.6620 C   0  0  0  0  0  0  0  0  0  0  0  0
   37.8110   28.8000   41.6550 N   0  0  0  0  0  0  0  0  0  0  0  0
   35.1570   28.6530   39.6860 H   0  0  0  0  0  0  0  0  0  0  0  0
   39.2950   27.0730   42.3000 N   0  0  0  0  0  0  0  0  0  0  0  0
   39.4990   26.6710   43.6800 C   0  0  0  0  0  2  0  0  0  0  0  0
   40.2090   25.3150   43.5690 C   0  0  0  0  0  2  0  0  0  0  0  0
   40.5360   25.1760   42.0820 C   0  0  0  0  0  2  0  0  0  0  0  0
   40.5250   26.6440   41.6600 C   0  0  0  0  0  3  0  0  0  0  0  0
   40.4730   26.7550   40.5630 H   0  0  0  0  0  0  0  0  0  0  0  0
   36.5750   31.5550   39.8610 C   0  0  0  0  0  0  0  0  0  0  0  0
   36.1610   31.0280   39.0090 H   0  0  0  0  0  0  0  0  0  0  0  0
   35.9560   32.4930   39.9670 H   0  0  0  0  0  0  0  0  0  0  0  0
   37.9660   31.9940   39.6260 C   0  0  0  0  0  0  0  0  0  0  0  0
   38.5920   31.5530   38.4520 C   0  0  0  0  0  0  0  0  0  0  0  0
   39.8940   31.9410   38.1930 C   0  0  0  0  0  0  0  0  0  0  0  0
   40.5150   32.7440   39.1040 N   0  0  0  0  0  0  0  0  0  0  0  0
   39.8880   33.1520   40.2260 C   0  0  0  0  0  0  0  0  0  0  0  0
   38.6310   32.7750   40.4690 N   0  0  0  0  0  0  0  0  0  0  0  0
   40.4020   31.6120   37.2870 H   0  0  0  0  0  0  0  0  0  0  0  0
   40.3920   33.7900   40.9430 H   0  0  0  0  0  0  0  0  0  0  0  0
   37.6950   30.4940   37.3020 S   0  0  0  0  0  0  0  0  0  0  0  0
   36.8790   31.2620   36.4530 H   0  0  0  0  0  0  0  0  0  0  0  0
  1  3  1  0  0  0  0
  1  2  1  0  0  0  0
  4  1  1  0  0  0  0
  4  8  1  0  0  0  0
  5  6  1  0  0  0  0
  5  4  2  0  0  0  0
  6  7  1  0  0  0  0
  7 10  1  0  0  0  0
  8  7  2  0  0  0  0
  9  5  1  0  0  0  0
 10 11  1  0  0  0  0
 12 11  1  0  0  0  0
 13 12  1  0  0  0  0
 14 13  1  0  0  0  0
 14 10  1  0  0  0  0
 15 14  1  0  0  0  0
 16 18  1  0  0  0  0
 16  1  1  0  0  0  0
 17 16  1  0  0  0  0
 19 16  1  0  0  0  0
 19 24  1  0  0  0  0
 20 19  2  0  0  0  0
 21 20  1  0  0  0  0
 21 22  2  0  0  0  0
 22 23  1  0  0  0  0
 23 24  2  0  0  0  0
 23 26  1  0  0  0  0
 25 21  1  0  0  0  0
 27 20  1  0  0  0  0
 28 27  1  0  0  0  0
M  END
>  <minimizedAffinity>
-4.43596601

$$$$

 OpenBabel03252507443D

 28 30  0  0  0  0  0  0  0  0999 V2000
   35.4260   29.2040   40.6920 C   0  0  0  0  0  0  0  0  0  0  0  0
   34.7030   29.3840   41.5130 H   0  0  0  0  0  0  0  0  0  0  0  0
   34.7940   28.8710   39.8250 H   0  0  0  0  0  0  0  0  0  0  0  0
   36.2970   28.0840   41.1380 C   0  0  0  0  0  0  0  0  0  0  0  0
   36.9780   28.1350   42.3970 C   0  0  0  0  0  0  0  0  0  0  0  0
   37.8870   26.5390   42.4430 S   0  0  0  0  0  0  0  0  0  0  0  0
   37.1840   26.0700   40.7360 C   0  0  0  0  0  0  0  0  0  0  0  0
   36.5400   26.9730   40.4790 N   0  0  0  0  0  0  0  0  0  0  0  0
   36.9220   28.9530   43.1010 H   0  0  0  0  0  0  0  0  0  0  0  0
   37.4820   24.8430   40.0600 N   0  0  0  0  0  0  0  0  0  0  0  0
   38.3440   24.5600   38.9270 C   0  0  0  0  0  2  0  0  0  0  0  0
   38.9980   23.2200   39.2850 C   0  0  0  0  0  2  0  0  0  0  0  0
   38.2550   22.7550   40.5380 C   0  0  0  0  0  2  0  0  0  0  0  0
   36.9490   23.5320   40.3870 C   0  0  0  0  0  3  0  0  0  0  0  0
   36.3710   23.5510   41.3270 H   0  0  0  0  0  0  0  0  0  0  0  0
   36.1370   30.4700   40.3780 C   0  0  0  0  0  0  0  0  0  0  0  0
   35.5740   31.3330   40.7150 H   0  0  0  0  0  0  0  0  0  0  0  0
   37.0820   30.4650   40.9950 H   0  0  0  0  0  0  0  0  0  0  0  0
   36.5570   30.5930   38.9670 C   0  0  0  0  0  0  0  0  0  0  0  0
   37.2750   31.7410   38.6040 C   0  0  0  0  0  0  0  0  0  0  0  0
   37.6880   31.8950   37.2930 C   0  0  0  0  0  0  0  0  0  0  0  0
   37.3730   30.9090   36.4040 N   0  0  0  0  0  0  0  0  0  0  0  0
   36.6810   29.8150   36.7810 C   0  0  0  0  0  0  0  0  0  0  0  0
   36.2860   29.6730   38.0480 N   0  0  0  0  0  0  0  0  0  0  0  0
   38.2470   32.7780   36.9870 H   0  0  0  0  0  0  0  0  0  0  0  0
   36.4360   29.0390   36.0660 H   0  0  0  0  0  0  0  0  0  0  0  0
   37.6480   32.9930   39.8450 S   0  0  0  0  0  0  0  0  0  0  0  0
   38.7930   32.6380   40.5800 H   0  0  0  0  0  0  0  0  0  0  0  0
  1  4  1  0  0  0  0
  1  2  1  0  0  0  0
  3  1  1  0  0  0  0
  4  5  2  0  0  0  0
  5  6  1  0  0  0  0
  5  9  1  0  0  0  0
  7  6  1  0  0  0  0
  8  7  2  0  0  0  0
  8  4  1  0  0  0  0
 10 14  1  0  0  0  0
 10  7  1  0  0  0  0
 11 12  1  0  0  0  0
 11 10  1  0  0  0  0
 12 13  1  0  0  0  0
 14 13  1  0  0  0  0
 14 15  1  0  0  0  0
 16  1  1  0  0  0  0
 16 17  1  0  0  0  0
 16 18  1  0  0  0  0
 19 16  1  0  0  0  0
 20 19  1  0  0  0  0
 20 27  1  0  0  0  0
 21 20  2  0  0  0  0
 22 23  2  0  0  0  0
 22 21  1  0  0  0  0
 23 24  1  0  0  0  0
 24 19  2  0  0  0  0
 25 21  1  0  0  0  0
 26 23  1  0  0  0  0
 27 28  1  0  0  0  0
M  END
>  <minimizedAffinity>
-4.43107796

$$$$
