
 OpenBabel03252502413D

 21 22  0  0  0  0  0  0  0  0999 V2000
   46.7000   34.7220   41.8950 C   0  0  0  0  0  0  0  0  0  0  0  0
   46.6940   33.6650   41.6380 H   0  0  0  0  0  0  0  0  0  0  0  0
   46.0500   35.2600   41.1600 H   0  0  0  0  0  0  0  0  0  0  0  0
   44.4950   35.9430   44.7070 C   0  0  0  0  0  0  0  0  0  0  0  0
   45.1320   35.8720   43.4660 C   0  0  0  0  0  0  0  0  0  0  0  0
   46.0160   34.8140   43.2230 C   0  0  0  0  0  0  0  0  0  0  0  0
   46.2030   33.9110   44.2170 N   0  0  0  0  0  0  0  0  0  0  0  0
   45.5720   34.0110   45.4010 C   0  0  0  0  0  0  0  0  0  0  0  0
   44.7250   35.0140   45.6510 N   0  0  0  0  0  0  0  0  0  0  0  0
   43.8240   36.7890   44.8300 H   0  0  0  0  0  0  0  0  0  0  0  0
   44.9700   36.5980   42.6910 H   0  0  0  0  0  0  0  0  0  0  0  0
   45.7770   33.2480   46.1400 H   0  0  0  0  0  0  0  0  0  0  0  0
   48.0460   35.3750   42.0010 C   0  0  0  0  0  0  0  0  0  0  0  0
   48.1930   35.5680   43.1050 H   0  0  0  0  0  0  0  0  0  0  0  0
   48.0640   36.3890   41.5560 H   0  0  0  0  0  0  0  0  0  0  0  0
   49.1080   34.5320   41.5060 N   0  0  0  0  0  0  0  0  0  0  0  0
   50.2160   34.4460   42.4350 C   0  0  0  0  0  0  0  0  0  0  0  0
   50.6760   32.9780   42.3340 C   0  0  0  0  0  0  0  0  0  0  0  0
   49.3190   32.3270   42.2370 C   0  0  0  0  0  0  0  0  0  0  0  0
   48.5990   33.2190   41.2620 C   0  0  0  0  0  0  0  0  0  0  0  0
   47.4950   33.1450   41.3820 H   0  0  0  0  0  0  0  0  0  0  0  0
  1 13  1  0  0  0  0
  1  6  1  0  0  0  0
  2  1  1  0  0  0  0
  3  1  1  0  0  0  0
  4 10  1  0  0  0  0
  4  9  1  0  0  0  0
  5  4  2  0  0  0  0
  6  5  1  0  0  0  0
  6  7  2  0  0  0  0
  7  8  1  0  0  0  0
  8  9  2  0  0  0  0
  8 12  1  0  0  0  0
 11  5  1  0  0  0  0
 13 14  1  0  0  0  0
 15 13  1  0  0  0  0
 16 13  1  0  0  0  0
 16 17  1  0  0  0  0
 18 17  1  0  0  0  0
 19 18  1  0  0  0  0
 20 21  1  0  0  0  0
 20 16  1  0  0  0  0
 20 19  1  0  0  0  0
M  END
>  <minimizedAffinity>
-4.17447567

>  <minimizedRMSD>
1.46481335

$$$$
