
 OpenBabel03252509353D

 41 43  0  0  1  0  0  0  0  0999 V2000
   44.5230   35.4770   44.0240 O   0  0  0  0  0  0  0  0  0  0  0  0
   45.3770   34.2700   44.3600 P   0  0  1  0  0  0  0  0  0  0  0  0
   44.7160   32.8500   43.7130 O   0  0  0  0  0  0  0  0  0  0  0  0
   44.3830   33.1080   42.8090 H   0  0  0  0  0  0  0  0  0  0  0  0
   46.9020   34.5280   43.7290 O   0  0  0  0  0  0  0  0  0  0  0  0
   47.0350   33.8340   42.5210 C   0  0  1  0  0  0  0  0  0  0  0  0
   46.4500   34.6650   41.3750 C   0  0  0  0  0  0  0  0  0  0  0  0
   46.9670   33.9070   40.1830 C   0  0  0  0  0  0  0  0  0  0  0  0
   48.2460   33.2330   40.6360 C   0  0  0  0  0  0  0  0  0  0  0  0
   48.4540   33.7010   42.0630 C   0  0  1  0  0  0  0  0  0  0  0  0
   46.5150   32.8790   42.5150 H   0  0  0  0  0  0  0  0  0  0  0  0
   46.7100   35.7170   41.4150 H   0  0  0  0  0  0  0  0  0  0  0  0
   45.3330   34.5820   41.4110 H   0  0  0  0  0  0  0  0  0  0  0  0
   47.2700   34.6150   39.3790 H   0  0  0  0  0  0  0  0  0  0  0  0
   46.2030   33.1870   39.8430 H   0  0  0  0  0  0  0  0  0  0  0  0
   49.1140   33.4540   39.9900 H   0  0  0  0  0  0  0  0  0  0  0  0
   48.0160   32.1420   40.7000 H   0  0  0  0  0  0  0  0  0  0  0  0
   48.9480   32.9050   42.6780 H   0  0  0  0  0  0  0  0  0  0  0  0
   49.2130   35.0030   42.1250 C   0  0  0  0  0  0  0  0  0  0  0  0
   48.5230   35.8920   42.2110 H   0  0  0  0  0  0  0  0  0  0  0  0
   49.7970   35.1530   41.1930 H   0  0  0  0  0  0  0  0  0  0  0  0
   50.0250   35.0750   43.2340 O   0  0  0  0  0  0  0  0  0  0  0  0
   50.5770   34.2970   43.4220 H   0  0  0  0  0  0  0  0  0  0  0  0
   45.4490   34.0480   46.0110 O   0  0  0  0  0  0  0  0  0  0  0  0
   46.3990   33.1160   46.2940 C   0  0  0  0  0  0  0  0  0  0  0  0
   46.9320   32.6550   45.4700 H   0  0  0  0  0  0  0  0  0  0  0  0
   47.1950   33.6670   46.8790 H   0  0  0  0  0  0  0  0  0  0  0  0
   45.3200   31.3720   49.3950 C   0  0  0  0  0  0  0  0  0  0  0  0
   45.7720   32.3820   48.5460 C   0  0  0  0  0  0  0  0  0  0  0  0
   45.9180   32.0610   47.2000 C   0  0  0  0  0  0  0  0  0  0  0  0
   45.6170   30.7970   46.7860 N   0  0  0  0  0  0  0  0  0  0  0  0
   45.1820   29.8370   47.6290 C   0  0  0  0  0  0  0  0  0  0  0  0
   45.0370   30.1270   48.9150 N   0  0  0  0  0  0  0  0  0  0  0  0
   45.2030   31.6080   50.4360 H   0  0  0  0  0  0  0  0  0  0  0  0
   45.9880   33.3600   48.9630 H   0  0  0  0  0  0  0  0  0  0  0  0
   44.8830   28.5340   47.1420 N   0  0  0  0  0  0  0  0  0  0  0  0
   43.9110   28.1350   46.1430 C   0  0  0  0  0  2  0  0  0  0  0  0
   44.4880   26.8720   45.5050 C   0  0  0  0  0  2  0  0  0  0  0  0
   45.7980   26.6380   46.2370 C   0  0  0  0  0  2  0  0  0  0  0  0
   45.5170   27.3030   47.5680 C   0  0  0  0  0  3  0  0  0  0  0  0
   46.4590   27.4780   48.1270 H   0  0  0  0  0  0  0  0  0  0  0  0
  2  1  2  6  0  0  0
  2 24  1  0  0  0  0
  3  2  1  0  0  0  0
  4  3  1  0  0  0  0
  5  2  1  0  0  0  0
  6 11  1  1  0  0  0
  6  5  1  0  0  0  0
  7 13  1  0  0  0  0
  7 12  1  0  0  0  0
  7  6  1  0  0  0  0
  8  9  1  0  0  0  0
  8  7  1  0  0  0  0
  9 17  1  0  0  0  0
  9 10  1  0  0  0  0
 10 19  1  0  0  0  0
 10  6  1  0  0  0  0
 10 18  1  1  0  0  0
 14  8  1  0  0  0  0
 15  8  1  0  0  0  0
 16  9  1  0  0  0  0
 19 20  1  0  0  0  0
 19 22  1  0  0  0  0
 21 19  1  0  0  0  0
 22 23  1  0  0  0  0
 24 25  1  0  0  0  0
 25 27  1  0  0  0  0
 25 30  1  0  0  0  0
 26 25  1  0  0  0  0
 28 34  1  0  0  0  0
 29 35  1  0  0  0  0
 29 28  2  0  0  0  0
 30 29  1  0  0  0  0
 31 30  2  0  0  0  0
 31 32  1  0  0  0  0
 32 33  2  0  0  0  0
 33 28  1  0  0  0  0
 36 40  1  0  0  0  0
 36 32  1  0  0  0  0
 37 36  1  0  0  0  0
 38 37  1  0  0  0  0
 38 39  1  0  0  0  0
 39 40  1  0  0  0  0
 40 41  1  0  0  0  0
M  END
>  <minimizedAffinity>
-6.11833382

>  <minimizedRMSD>
1.06707084

$$$$
