
 OpenBabel03242517363D

 30 32  0  0  0  0  0  0  0  0999 V2000
   43.6250   35.3140   41.3320 C   0  0  0  0  0  0  0  0  0  0  0  0
   42.4770   34.9620   40.8080 C   0  0  0  0  0  0  0  0  0  0  0  0
   44.3470   35.6870   43.6850 C   0  0  0  0  0  0  0  0  0  0  0  0
   44.1810   34.8370   42.5860 C   0  0  0  0  0  0  0  0  0  0  0  0
   44.5590   33.5220   42.7170 C   0  0  0  0  0  0  0  0  0  0  0  0
   45.0840   33.0840   43.9080 N   0  0  0  0  0  0  0  0  0  0  0  0
   45.2280   33.9360   44.9460 C   0  0  0  0  0  0  0  0  0  0  0  0
   44.8680   35.2160   44.8410 N   0  0  0  0  0  0  0  0  0  0  0  0
   44.0580   36.7350   43.6160 H   0  0  0  0  0  0  0  0  0  0  0  0
   44.4540   32.8180   41.8980 H   0  0  0  0  0  0  0  0  0  0  0  0
   45.7740   33.4500   46.1650 N   0  0  0  0  0  0  0  0  0  0  0  0
   47.0790   32.8560   46.3810 C   0  0  0  0  0  0  0  0  0  0  0  0
   46.8080   31.8000   47.4590 C   0  0  0  0  0  0  0  0  0  0  0  0
   45.3880   32.0330   47.9210 C   0  0  0  0  0  0  0  0  0  0  0  0
   45.1290   33.4510   47.4640 C   0  0  0  0  0  0  0  0  0  0  0  0
   45.6060   34.1900   48.1390 H   0  0  0  0  0  0  0  0  0  0  0  0
   41.9570   35.4880   39.5130 C   0  0  0  0  0  0  0  0  0  0  0  0
   42.6840   35.3580   38.7080 H   0  0  0  0  0  0  0  0  0  0  0  0
   41.7540   36.5810   39.7040 H   0  0  0  0  0  0  0  0  0  0  0  0
   40.6390   34.8910   39.1840 C   0  0  0  0  0  0  0  0  0  0  0  0
   40.2990   34.7140   37.8380 C   0  0  0  0  0  0  0  0  0  0  0  0
   39.0700   34.1560   37.5310 C   0  0  0  0  0  0  0  0  0  0  0  0
   38.1690   33.7690   38.5120 C   0  0  0  0  0  0  0  0  0  0  0  0
   38.5120   33.9470   39.8520 C   0  0  0  0  0  0  0  0  0  0  0  0
   39.7350   34.5020   40.1590 C   0  0  0  0  0  0  0  0  0  0  0  0
   41.0210   35.0250   37.0960 H   0  0  0  0  0  0  0  0  0  0  0  0
   38.9140   34.0680   36.4600 H   0  0  0  0  0  0  0  0  0  0  0  0
   37.2310   33.3420   38.1880 H   0  0  0  0  0  0  0  0  0  0  0  0
   37.7770   33.6300   40.5800 H   0  0  0  0  0  0  0  0  0  0  0  0
   39.9780   34.6280   41.2070 H   0  0  0  0  0  0  0  0  0  0  0  0
  1  4  1  0  0  0  0
  2  1  2  0  0  0  0
  3  8  1  0  0  0  0
  4  5  1  0  0  0  0
  4  3  2  0  0  0  0
  5  6  2  0  0  0  0
  6  7  1  0  0  0  0
  7 11  1  0  0  0  0
  8  7  2  0  0  0  0
  9  3  1  0  0  0  0
 10  5  1  0  0  0  0
 11 12  1  0  0  0  0
 11 15  1  0  0  0  0
 12 13  1  0  0  0  0
 13 14  1  0  0  0  0
 15 14  1  0  0  0  0
 15 16  1  0  0  0  0
 17 19  1  0  0  0  0
 17  2  1  0  0  0  0
 18 17  1  0  0  0  0
 20 17  1  0  0  0  0
 20 25  1  0  0  0  0
 21 20  2  0  0  0  0
 22 21  1  0  0  0  0
 22 23  2  0  0  0  0
 23 24  1  0  0  0  0
 24 25  2  0  0  0  0
 24 29  1  0  0  0  0
 25 30  1  0  0  0  0
 26 21  1  0  0  0  0
 27 22  1  0  0  0  0
 28 23  1  0  0  0  0
M  END
>  <minimizedAffinity>
-6.30055618

>  <minimizedRMSD>
0.27441138

$$$$
