
 OpenBabel03252509353D

 41 43  0  0  1  0  0  0  0  0999 V2000
   44.5210   35.4620   44.0650 O   0  0  0  0  0  0  0  0  0  0  0  0
   45.3820   34.2490   44.3620 P   0  0  1  0  0  0  0  0  0  0  0  0
   44.7150   32.8430   43.6920 O   0  0  0  0  0  0  0  0  0  0  0  0
   44.3700   33.1210   42.7980 H   0  0  0  0  0  0  0  0  0  0  0  0
   46.8970   34.5240   43.7170 O   0  0  0  0  0  0  0  0  0  0  0  0
   47.0290   33.8290   42.5110 C   0  0  1  0  0  0  0  0  0  0  0  0
   46.4450   34.6580   41.3640 C   0  0  0  0  0  0  0  0  0  0  0  0
   46.9610   33.8970   40.1730 C   0  0  0  0  0  0  0  0  0  0  0  0
   48.2390   33.2220   40.6270 C   0  0  0  0  0  0  0  0  0  0  0  0
   48.4480   33.6930   42.0520 C   0  0  1  0  0  0  0  0  0  0  0  0
   46.5090   32.8740   42.5070 H   0  0  0  0  0  0  0  0  0  0  0  0
   46.7060   35.7090   41.4010 H   0  0  0  0  0  0  0  0  0  0  0  0
   45.3280   34.5760   41.4000 H   0  0  0  0  0  0  0  0  0  0  0  0
   47.2650   34.6030   39.3680 H   0  0  0  0  0  0  0  0  0  0  0  0
   46.1960   33.1770   39.8350 H   0  0  0  0  0  0  0  0  0  0  0  0
   49.1080   33.4420   39.9810 H   0  0  0  0  0  0  0  0  0  0  0  0
   48.0090   32.1310   40.6930 H   0  0  0  0  0  0  0  0  0  0  0  0
   48.9420   32.8980   42.6690 H   0  0  0  0  0  0  0  0  0  0  0  0
   49.2080   34.9940   42.1120 C   0  0  0  0  0  0  0  0  0  0  0  0
   48.5190   35.8850   42.1870 H   0  0  0  0  0  0  0  0  0  0  0  0
   49.8010   35.1370   41.1840 H   0  0  0  0  0  0  0  0  0  0  0  0
   50.0120   35.0730   43.2270 O   0  0  0  0  0  0  0  0  0  0  0  0
   50.5620   34.2950   43.4250 H   0  0  0  0  0  0  0  0  0  0  0  0
   45.4750   33.9900   46.0070 O   0  0  0  0  0  0  0  0  0  0  0  0
   46.4430   33.0670   46.2570 C   0  0  0  0  0  0  0  0  0  0  0  0
   46.9400   32.5970   45.4150 H   0  0  0  0  0  0  0  0  0  0  0  0
   47.2620   33.6310   46.7970 H   0  0  0  0  0  0  0  0  0  0  0  0
   45.1910   31.4230   49.3480 C   0  0  0  0  0  0  0  0  0  0  0  0
   45.5920   32.4240   48.4630 C   0  0  0  0  0  0  0  0  0  0  0  0
   46.0120   32.0220   47.1990 C   0  0  0  0  0  0  0  0  0  0  0  0
   46.0090   30.6930   46.8950 N   0  0  0  0  0  0  0  0  0  0  0  0
   45.6160   29.7440   47.7690 C   0  0  0  0  0  0  0  0  0  0  0  0
   45.2130   30.1110   48.9780 N   0  0  0  0  0  0  0  0  0  0  0  0
   44.8640   31.7220   50.3270 H   0  0  0  0  0  0  0  0  0  0  0  0
   45.5620   33.4580   48.7920 H   0  0  0  0  0  0  0  0  0  0  0  0
   45.6340   28.3710   47.3970 N   0  0  0  0  0  0  0  0  0  0  0  0
   46.7680   27.4780   47.2630 C   0  0  0  0  0  2  0  0  0  0  0  0
   46.2220   26.0870   47.5780 C   0  0  0  0  0  2  0  0  0  0  0  0
   44.7480   26.3100   47.8690 C   0  0  0  0  0  2  0  0  0  0  0  0
   44.4740   27.5650   47.0680 C   0  0  0  0  0  3  0  0  0  0  0  0
   43.5220   28.0360   47.3860 H   0  0  0  0  0  0  0  0  0  0  0  0
  2  1  2  6  0  0  0
  2 24  1  0  0  0  0
  3  2  1  0  0  0  0
  4  3  1  0  0  0  0
  5  2  1  0  0  0  0
  6 11  1  1  0  0  0
  6  5  1  0  0  0  0
  7 13  1  0  0  0  0
  7 12  1  0  0  0  0
  7  6  1  0  0  0  0
  8  9  1  0  0  0  0
  8  7  1  0  0  0  0
  9 17  1  0  0  0  0
  9 10  1  0  0  0  0
 10 19  1  0  0  0  0
 10  6  1  0  0  0  0
 10 18  1  1  0  0  0
 14  8  1  0  0  0  0
 15  8  1  0  0  0  0
 16  9  1  0  0  0  0
 19 20  1  0  0  0  0
 19 22  1  0  0  0  0
 21 19  1  0  0  0  0
 22 23  1  0  0  0  0
 24 25  1  0  0  0  0
 25 27  1  0  0  0  0
 25 30  1  0  0  0  0
 26 25  1  0  0  0  0
 28 34  1  0  0  0  0
 29 35  1  0  0  0  0
 29 28  2  0  0  0  0
 30 29  1  0  0  0  0
 31 30  2  0  0  0  0
 31 32  1  0  0  0  0
 32 33  2  0  0  0  0
 33 28  1  0  0  0  0
 36 32  1  0  0  0  0
 37 36  1  0  0  0  0
 37 38  1  0  0  0  0
 38 39  1  0  0  0  0
 40 41  1  0  0  0  0
 40 36  1  0  0  0  0
 40 39  1  0  0  0  0
M  END
>  <minimizedAffinity>
-6.08575296

>  <minimizedRMSD>
1.09141457

$$$$
