
 OpenBabel03242518483D

 42 45  0  0  1  0  0  0  0  0999 V2000
   39.0430   31.0510   39.1860 C   0  0  2  0  0  0  0  0  0  0  0  0
   39.1340   32.5270   39.0180 C   0  0  1  0  0  0  0  0  0  0  0  0
   38.3990   33.2820   40.1260 C   0  0  0  0  0  0  0  0  0  0  0  0
   37.1050   32.7510   40.0990 O   0  0  0  0  0  0  0  0  0  0  0  0
   37.0720   31.4750   40.6270 C   0  0  0  0  0  0  0  0  0  0  0  0
   38.3710   30.7370   40.5350 C   0  0  1  0  0  0  0  0  0  0  0  0
   38.4120   30.6270   38.4040 H   0  0  0  0  0  0  0  0  0  0  0  0
   38.6620   32.8400   38.0490 H   0  0  0  0  0  0  0  0  0  0  0  0
   38.3490   34.3350   39.8220 H   0  0  0  0  0  0  0  0  0  0  0  0
   38.8890   33.1370   41.1020 H   0  0  0  0  0  0  0  0  0  0  0  0
   36.3220   30.8840   40.0350 H   0  0  0  0  0  0  0  0  0  0  0  0
   36.7210   31.5250   41.6810 H   0  0  0  0  0  0  0  0  0  0  0  0
   39.1240   31.0730   41.2820 H   0  0  0  0  0  0  0  0  0  0  0  0
   42.3220   33.8580   37.8100 C   0  0  0  0  0  0  0  0  0  0  0  0
   43.0730   34.0970   39.0010 C   0  0  0  0  0  0  0  0  0  0  0  0
   42.4130   33.7750   40.2130 C   0  0  0  0  0  0  0  0  0  0  0  0
   41.1570   33.2780   40.1740 N   0  0  0  0  0  0  0  0  0  0  0  0
   40.5010   33.0750   39.0110 C   0  0  0  0  0  0  0  0  0  0  0  0
   41.0850   33.3660   37.8300 N   0  0  0  0  0  0  0  0  0  0  0  0
   44.0590   34.4890   39.0210 H   0  0  0  0  0  0  0  0  0  0  0  0
   42.9740   33.9540   41.1180 H   0  0  0  0  0  0  0  0  0  0  0  0
   42.9420   34.1610   36.6370 O   0  0  0  0  0  0  0  0  0  0  0  0
   43.7700   33.6390   36.3400 H   0  0  0  0  0  0  0  0  0  0  0  0
   40.2790   30.4040   39.1580 O   0  0  0  0  0  0  0  0  0  0  0  0
   40.8940   30.9100   39.7480 H   0  0  0  0  0  0  0  0  0  0  0  0
   38.2350   29.3700   40.6010 O   0  0  0  0  0  0  0  0  0  0  0  0
   38.2380   26.8030   39.7610 F   0  0  0  0  0  0  0  0  0  0  0  0
   37.7990   27.2190   40.9660 C   0  0  0  0  0  0  0  0  0  0  0  0
   37.7650   28.4980   41.4770 C   0  0  0  0  0  0  0  0  0  0  0  0
   37.2630   28.6080   42.7630 C   0  0  0  0  0  0  0  0  0  0  0  0
   36.8110   27.5600   43.5440 C   0  0  0  0  0  0  0  0  0  0  0  0
   36.8680   26.3170   42.9870 C   0  0  0  0  0  0  0  0  0  0  0  0
   37.3540   26.1170   41.7060 C   0  0  0  0  0  0  0  0  0  0  0  0
   37.2680   29.6600   43.1020 H   0  0  0  0  0  0  0  0  0  0  0  0
   36.4480   27.7800   44.5190 H   0  0  0  0  0  0  0  0  0  0  0  0
   36.5050   25.5050   43.6210 H   0  0  0  0  0  0  0  0  0  0  0  0
   37.3410   24.7660   41.2900 N   0  0  0  0  0  0  0  0  0  0  0  0
   38.4440   23.8590   41.5440 C   0  0  0  0  0  2  0  0  0  0  0  0
   38.4930   23.0540   40.2650 C   0  0  0  0  0  2  0  0  0  0  0  0
   37.0460   22.8960   39.9110 C   0  0  0  0  0  2  0  0  0  0  0  0
   36.3290   24.0210   40.5790 C   0  0  0  0  0  3  0  0  0  0  0  0
   35.5090   23.6520   41.2240 H   0  0  0  0  0  0  0  0  0  0  0  0
  1  7  1  6  0  0  0
  1  6  1  0  0  0  0
  2  8  1  6  0  0  0
  2  1  1  0  0  0  0
  2  3  1  0  0  0  0
  3 10  1  0  0  0  0
  4  3  1  0  0  0  0
  4  5  1  0  0  0  0
  5 12  1  0  0  0  0
  6 26  1  0  0  0  0
  6  5  1  0  0  0  0
  6 13  1  1  0  0  0
  9  3  1  0  0  0  0
 11  5  1  0  0  0  0
 14 19  2  0  0  0  0
 14 15  1  0  0  0  0
 15 20  1  0  0  0  0
 15 16  2  0  0  0  0
 16 21  1  0  0  0  0
 17 16  1  0  0  0  0
 18  2  1  0  0  0  0
 18 17  2  0  0  0  0
 19 18  1  0  0  0  0
 22 14  1  0  0  0  0
 23 22  1  0  0  0  0
 24  1  1  0  0  0  0
 24 25  1  0  0  0  0
 26 29  1  0  0  0  0
 27 28  1  0  0  0  0
 28 29  2  0  0  0  0
 28 33  1  0  0  0  0
 29 30  1  0  0  0  0
 30 34  1  0  0  0  0
 30 31  2  0  0  0  0
 31 35  1  0  0  0  0
 32 31  1  0  0  0  0
 32 36  1  0  0  0  0
 33 32  2  0  0  0  0
 37 38  1  0  0  0  0
 37 33  1  0  0  0  0
 39 38  1  0  0  0  0
 40 39  1  0  0  0  0
 40 41  1  0  0  0  0
 41 42  1  0  0  0  0
 41 37  1  0  0  0  0
M  END
>  <minimizedAffinity>
-6.60191298

$$$$

 OpenBabel03242518483D

 42 45  0  0  1  0  0  0  0  0999 V2000
   39.5900   31.7980   39.4020 C   0  0  2  0  0  0  0  0  0  0  0  0
   39.9940   33.2310   39.3710 C   0  0  1  0  0  0  0  0  0  0  0  0
   39.1330   34.0950   40.2920 C   0  0  0  0  0  0  0  0  0  0  0  0
   37.8230   33.8300   39.8810 O   0  0  0  0  0  0  0  0  0  0  0  0
   37.4100   32.5750   40.2880 C   0  0  0  0  0  0  0  0  0  0  0  0
   38.5250   31.5980   40.4950 C   0  0  1  0  0  0  0  0  0  0  0  0
   39.1340   31.5220   38.4510 H   0  0  0  0  0  0  0  0  0  0  0  0
   39.8750   33.6480   38.3350 H   0  0  0  0  0  0  0  0  0  0  0  0
   39.3630   35.1430   40.0630 H   0  0  0  0  0  0  0  0  0  0  0  0
   39.2980   33.8380   41.3510 H   0  0  0  0  0  0  0  0  0  0  0  0
   36.7580   32.1540   39.4760 H   0  0  0  0  0  0  0  0  0  0  0  0
   36.7960   32.6740   41.2100 H   0  0  0  0  0  0  0  0  0  0  0  0
   39.0900   31.7650   41.4390 H   0  0  0  0  0  0  0  0  0  0  0  0
   42.9320   33.8850   41.4530 C   0  0  0  0  0  0  0  0  0  0  0  0
   44.0010   34.0150   40.5150 C   0  0  0  0  0  0  0  0  0  0  0  0
   43.6400   33.8620   39.1530 C   0  0  0  0  0  0  0  0  0  0  0  0
   42.3510   33.6110   38.8320 N   0  0  0  0  0  0  0  0  0  0  0  0
   41.3860   33.5000   39.7700 C   0  0  0  0  0  0  0  0  0  0  0  0
   41.6790   33.6370   41.0800 N   0  0  0  0  0  0  0  0  0  0  0  0
   45.0110   34.2110   40.7780 H   0  0  0  0  0  0  0  0  0  0  0  0
   44.4430   33.9580   38.4380 H   0  0  0  0  0  0  0  0  0  0  0  0
   43.2630   34.0310   42.7650 O   0  0  0  0  0  0  0  0  0  0  0  0
   43.5960   34.9300   43.1180 H   0  0  0  0  0  0  0  0  0  0  0  0
   40.6450   30.9220   39.6600 O   0  0  0  0  0  0  0  0  0  0  0  0
   41.1550   31.2860   40.4280 H   0  0  0  0  0  0  0  0  0  0  0  0
   38.1280   30.2840   40.4240 O   0  0  0  0  0  0  0  0  0  0  0  0
   38.2710   27.7810   39.4170 F   0  0  0  0  0  0  0  0  0  0  0  0
   37.9470   28.0820   40.6910 C   0  0  0  0  0  0  0  0  0  0  0  0
   37.8540   29.3200   41.2880 C   0  0  0  0  0  0  0  0  0  0  0  0
   37.5080   29.3060   42.6290 C   0  0  0  0  0  0  0  0  0  0  0  0
   37.2570   28.1750   43.3840 C   0  0  0  0  0  0  0  0  0  0  0  0
   37.3630   26.9770   42.7410 C   0  0  0  0  0  0  0  0  0  0  0  0
   37.7040   26.9010   41.4010 C   0  0  0  0  0  0  0  0  0  0  0  0
   37.4540   30.3320   43.0350 H   0  0  0  0  0  0  0  0  0  0  0  0
   36.9980   28.3020   44.4080 H   0  0  0  0  0  0  0  0  0  0  0  0
   37.1610   26.0990   43.3560 H   0  0  0  0  0  0  0  0  0  0  0  0
   37.7680   25.5800   40.8990 N   0  0  0  0  0  0  0  0  0  0  0  0
   36.7170   25.0030   40.0840 C   0  0  0  0  0  2  0  0  0  0  0  0
   36.6670   23.5800   40.5940 C   0  0  0  0  0  2  0  0  0  0  0  0
   38.1090   23.2630   40.8500 C   0  0  0  0  0  2  0  0  0  0  0  0
   38.7930   24.5740   41.0530 C   0  0  0  0  0  3  0  0  0  0  0  0
   39.6480   24.6960   40.3620 H   0  0  0  0  0  0  0  0  0  0  0  0
  1  7  1  6  0  0  0
  1 24  1  0  0  0  0
  1  6  1  0  0  0  0
  2  8  1  6  0  0  0
  2  1  1  0  0  0  0
  2 18  1  0  0  0  0
  2  3  1  0  0  0  0
  3 10  1  0  0  0  0
  4  5  1  0  0  0  0
  4  3  1  0  0  0  0
  5  6  1  0  0  0  0
  5 12  1  0  0  0  0
  6 13  1  1  0  0  0
  9  3  1  0  0  0  0
 11  5  1  0  0  0  0
 14 22  1  0  0  0  0
 15 20  1  0  0  0  0
 15 14  2  0  0  0  0
 16 15  1  0  0  0  0
 17 16  2  0  0  0  0
 17 18  1  0  0  0  0
 18 19  2  0  0  0  0
 19 14  1  0  0  0  0
 21 16  1  0  0  0  0
 22 23  1  0  0  0  0
 24 25  1  0  0  0  0
 26  6  1  0  0  0  0
 26 29  1  0  0  0  0
 27 28  1  0  0  0  0
 28 29  2  0  0  0  0
 28 33  1  0  0  0  0
 29 30  1  0  0  0  0
 30 34  1  0  0  0  0
 30 31  2  0  0  0  0
 31 35  1  0  0  0  0
 32 36  1  0  0  0  0
 32 31  1  0  0  0  0
 33 32  2  0  0  0  0
 37 41  1  0  0  0  0
 37 33  1  0  0  0  0
 38 39  1  0  0  0  0
 38 37  1  0  0  0  0
 39 40  1  0  0  0  0
 40 41  1  0  0  0  0
 42 41  1  0  0  0  0
M  END
>  <minimizedAffinity>
-6.27250814

$$$$

 OpenBabel03242518483D

 42 45  0  0  1  0  0  0  0  0999 V2000
   40.1220   31.5560   39.4500 C   0  0  2  0  0  0  0  0  0  0  0  0
   40.7880   32.6690   38.7200 C   0  0  1  0  0  0  0  0  0  0  0  0
   40.7030   33.9930   39.4800 C   0  0  0  0  0  0  0  0  0  0  0  0
   39.3350   34.1610   39.7190 O   0  0  0  0  0  0  0  0  0  0  0  0
   38.8840   33.3010   40.7010 C   0  0  0  0  0  0  0  0  0  0  0  0
   39.6960   32.0510   40.8440 C   0  0  1  0  0  0  0  0  0  0  0  0
   39.2160   31.2560   38.9220 H   0  0  0  0  0  0  0  0  0  0  0  0
   40.2910   32.8370   37.7270 H   0  0  0  0  0  0  0  0  0  0  0  0
   41.0360   34.7820   38.7950 H   0  0  0  0  0  0  0  0  0  0  0  0
   41.2870   33.9560   40.4130 H   0  0  0  0  0  0  0  0  0  0  0  0
   37.8450   32.9810   40.4190 H   0  0  0  0  0  0  0  0  0  0  0  0
   38.8290   33.8480   41.6680 H   0  0  0  0  0  0  0  0  0  0  0  0
   40.6640   32.2100   41.3680 H   0  0  0  0  0  0  0  0  0  0  0  0
   43.8790   31.7320   36.9990 C   0  0  0  0  0  0  0  0  0  0  0  0
   44.9110   32.0880   37.9200 C   0  0  0  0  0  0  0  0  0  0  0  0
   44.4700   32.6580   39.1390 C   0  0  0  0  0  0  0  0  0  0  0  0
   43.1460   32.8270   39.3540 N   0  0  0  0  0  0  0  0  0  0  0  0
   42.2200   32.4690   38.4390 C   0  0  0  0  0  0  0  0  0  0  0  0
   42.5880   31.9220   37.2620 N   0  0  0  0  0  0  0  0  0  0  0  0
   45.9480   31.9510   37.7410 H   0  0  0  0  0  0  0  0  0  0  0  0
   45.2450   32.9300   39.8410 H   0  0  0  0  0  0  0  0  0  0  0  0
   44.2860   31.1820   35.8220 O   0  0  0  0  0  0  0  0  0  0  0  0
   44.7480   30.2700   35.8110 H   0  0  0  0  0  0  0  0  0  0  0  0
   40.9310   30.4310   39.6200 O   0  0  0  0  0  0  0  0  0  0  0  0
   41.8150   30.7450   39.9390 H   0  0  0  0  0  0  0  0  0  0  0  0
   39.0150   31.0160   41.4400 O   0  0  0  0  0  0  0  0  0  0  0  0
   39.3070   28.3330   41.5580 F   0  0  0  0  0  0  0  0  0  0  0  0
   38.1550   28.9700   41.2650 C   0  0  0  0  0  0  0  0  0  0  0  0
   37.9150   30.3250   41.1880 C   0  0  0  0  0  0  0  0  0  0  0  0
   36.6130   30.6780   40.8730 C   0  0  0  0  0  0  0  0  0  0  0  0
   35.5740   29.7970   40.6410 C   0  0  0  0  0  0  0  0  0  0  0  0
   35.8700   28.4680   40.7310 C   0  0  0  0  0  0  0  0  0  0  0  0
   37.1450   28.0280   41.0390 C   0  0  0  0  0  0  0  0  0  0  0  0
   36.4990   31.7760   40.8300 H   0  0  0  0  0  0  0  0  0  0  0  0
   34.6170   30.1980   40.4070 H   0  0  0  0  0  0  0  0  0  0  0  0
   35.0340   27.7910   40.5430 H   0  0  0  0  0  0  0  0  0  0  0  0
   37.2710   26.6210   41.0900 N   0  0  0  0  0  0  0  0  0  0  0  0
   37.3670   25.8020   39.8980 C   0  0  0  0  0  2  0  0  0  0  0  0
   36.5450   24.5910   40.2780 C   0  0  0  0  0  2  0  0  0  0  0  0
   36.8740   24.4020   41.7280 C   0  0  0  0  0  2  0  0  0  0  0  0
   37.3310   25.7320   42.2270 C   0  0  0  0  0  3  0  0  0  0  0  0
   38.3320   25.6680   42.6930 H   0  0  0  0  0  0  0  0  0  0  0  0
  1  7  1  6  0  0  0
  1 24  1  0  0  0  0
  1  6  1  0  0  0  0
  2  8  1  6  0  0  0
  2  1  1  0  0  0  0
  2  3  1  0  0  0  0
  3  4  1  0  0  0  0
  3 10  1  0  0  0  0
  4  5  1  0  0  0  0
  5  6  1  0  0  0  0
  5 12  1  0  0  0  0
  6 13  1  1  0  0  0
  6 26  1  0  0  0  0
  9  3  1  0  0  0  0
 11  5  1  0  0  0  0
 14 19  2  0  0  0  0
 14 15  1  0  0  0  0
 15 16  2  0  0  0  0
 16 17  1  0  0  0  0
 16 21  1  0  0  0  0
 18  2  1  0  0  0  0
 18 17  2  0  0  0  0
 19 18  1  0  0  0  0
 20 15  1  0  0  0  0
 22 14  1  0  0  0  0
 23 22  1  0  0  0  0
 24 25  1  0  0  0  0
 28 27  1  0  0  0  0
 29 28  1  0  0  0  0
 29 26  1  0  0  0  0
 30 29  2  0  0  0  0
 31 32  2  0  0  0  0
 31 30  1  0  0  0  0
 32 33  1  0  0  0  0
 33 37  1  0  0  0  0
 33 28  2  0  0  0  0
 34 30  1  0  0  0  0
 35 31  1  0  0  0  0
 36 32  1  0  0  0  0
 37 41  1  0  0  0  0
 38 39  1  0  0  0  0
 38 37  1  0  0  0  0
 39 40  1  0  0  0  0
 40 41  1  0  0  0  0
 41 42  1  0  0  0  0
M  END
>  <minimizedAffinity>
-5.90319967

$$$$

 OpenBabel03242518483D

 42 45  0  0  1  0  0  0  0  0999 V2000
   40.1310   31.5000   37.6500 C   0  0  2  0  0  0  0  0  0  0  0  0
   41.3710   32.3140   37.7670 C   0  0  1  0  0  0  0  0  0  0  0  0
   41.5120   32.9590   39.1460 C   0  0  0  0  0  0  0  0  0  0  0  0
   40.3130   33.6590   39.3190 O   0  0  0  0  0  0  0  0  0  0  0  0
   39.2600   32.8010   39.5710 C   0  0  0  0  0  0  0  0  0  0  0  0
   39.4490   31.4190   39.0280 C   0  0  1  0  0  0  0  0  0  0  0  0
   39.4310   31.9860   36.9700 H   0  0  0  0  0  0  0  0  0  0  0  0
   41.3600   33.1530   37.0200 H   0  0  0  0  0  0  0  0  0  0  0  0
   42.3320   33.6850   39.0820 H   0  0  0  0  0  0  0  0  0  0  0  0
   41.6680   32.2000   39.9290 H   0  0  0  0  0  0  0  0  0  0  0  0
   38.3500   33.2250   39.0670 H   0  0  0  0  0  0  0  0  0  0  0  0
   39.0680   32.7710   40.6660 H   0  0  0  0  0  0  0  0  0  0  0  0
   40.1520   30.8000   39.6280 H   0  0  0  0  0  0  0  0  0  0  0  0
   44.0500   30.4590   36.1000 C   0  0  0  0  0  0  0  0  0  0  0  0
   44.9890   30.1910   37.1430 C   0  0  0  0  0  0  0  0  0  0  0  0
   44.6360   30.6870   38.4220 C   0  0  0  0  0  0  0  0  0  0  0  0
   43.4740   31.3590   38.5780 N   0  0  0  0  0  0  0  0  0  0  0  0
   42.6290   31.5790   37.5480 C   0  0  0  0  0  0  0  0  0  0  0  0
   42.9180   31.1280   36.3100 N   0  0  0  0  0  0  0  0  0  0  0  0
   45.8990   29.6620   37.0090 H   0  0  0  0  0  0  0  0  0  0  0  0
   45.3410   30.4890   39.2160 H   0  0  0  0  0  0  0  0  0  0  0  0
   44.3730   29.9890   34.8640 O   0  0  0  0  0  0  0  0  0  0  0  0
   44.4290   28.9830   34.6920 H   0  0  0  0  0  0  0  0  0  0  0  0
   40.3540   30.1970   37.2010 O   0  0  0  0  0  0  0  0  0  0  0  0
   41.1140   29.8290   37.7180 H   0  0  0  0  0  0  0  0  0  0  0  0
   38.2710   30.7310   38.8460 O   0  0  0  0  0  0  0  0  0  0  0  0
   39.4830   28.8850   40.4000 F   0  0  0  0  0  0  0  0  0  0  0  0
   38.1530   29.1030   40.3590 C   0  0  0  0  0  0  0  0  0  0  0  0
   37.4530   30.0200   39.6050 C   0  0  0  0  0  0  0  0  0  0  0  0
   36.0810   30.0140   39.7900 C   0  0  0  0  0  0  0  0  0  0  0  0
   35.3880   29.1810   40.6480 C   0  0  0  0  0  0  0  0  0  0  0  0
   36.1320   28.2930   41.3680 C   0  0  0  0  0  0  0  0  0  0  0  0
   37.5090   28.2320   41.2440 C   0  0  0  0  0  0  0  0  0  0  0  0
   35.5910   30.7740   39.1540 H   0  0  0  0  0  0  0  0  0  0  0  0
   34.3290   29.2770   40.6960 H   0  0  0  0  0  0  0  0  0  0  0  0
   35.5630   27.6460   42.0390 H   0  0  0  0  0  0  0  0  0  0  0  0
   38.1170   27.2550   42.0650 N   0  0  0  0  0  0  0  0  0  0  0  0
   38.3690   27.4670   43.4770 C   0  0  0  0  0  2  0  0  0  0  0  0
   39.7160   26.8040   43.6620 C   0  0  0  0  0  2  0  0  0  0  0  0
   39.6270   25.6070   42.7660 C   0  0  0  0  0  2  0  0  0  0  0  0
   38.5940   25.9310   41.7390 C   0  0  0  0  0  3  0  0  0  0  0  0
   37.7990   25.1630   41.7090 H   0  0  0  0  0  0  0  0  0  0  0  0
  1  7  1  6  0  0  0
  1  2  1  0  0  0  0
  1  6  1  0  0  0  0
  2  8  1  6  0  0  0
  2  3  1  0  0  0  0
  3  4  1  0  0  0  0
  3 10  1  0  0  0  0
  4  5  1  0  0  0  0
  5 12  1  0  0  0  0
  6  5  1  0  0  0  0
  6 13  1  1  0  0  0
  9  3  1  0  0  0  0
 11  5  1  0  0  0  0
 14 19  2  0  0  0  0
 14 15  1  0  0  0  0
 15 16  2  0  0  0  0
 16 17  1  0  0  0  0
 16 21  1  0  0  0  0
 18  2  1  0  0  0  0
 18 17  2  0  0  0  0
 19 18  1  0  0  0  0
 20 15  1  0  0  0  0
 22 14  1  0  0  0  0
 23 22  1  0  0  0  0
 24  1  1  0  0  0  0
 24 25  1  0  0  0  0
 26  6  1  0  0  0  0
 26 29  1  0  0  0  0
 28 27  1  0  0  0  0
 28 33  1  0  0  0  0
 29 30  1  0  0  0  0
 29 28  2  0  0  0  0
 30 31  2  0  0  0  0
 31 35  1  0  0  0  0
 31 32  1  0  0  0  0
 32 36  1  0  0  0  0
 33 32  2  0  0  0  0
 33 37  1  0  0  0  0
 34 30  1  0  0  0  0
 37 38  1  0  0  0  0
 38 39  1  0  0  0  0
 40 39  1  0  0  0  0
 41 37  1  0  0  0  0
 41 40  1  0  0  0  0
 42 41  1  0  0  0  0
M  END
>  <minimizedAffinity>
-5.85153675

$$$$

 OpenBabel03242518483D

 42 45  0  0  1  0  0  0  0  0999 V2000
   37.2460   28.2320   40.5230 C   0  0  2  0  0  0  0  0  0  0  0  0
   37.0070   29.2800   41.5530 C   0  0  1  0  0  0  0  0  0  0  0  0
   37.5070   28.8580   42.9350 C   0  0  0  0  0  0  0  0  0  0  0  0
   36.8770   27.6310   43.1650 O   0  0  0  0  0  0  0  0  0  0  0  0
   37.4350   26.6250   42.4000 C   0  0  0  0  0  0  0  0  0  0  0  0
   38.0890   27.1010   41.1400 C   0  0  1  0  0  0  0  0  0  0  0  0
   36.2970   27.7960   40.2100 H   0  0  0  0  0  0  0  0  0  0  0  0
   35.9070   29.4800   41.6580 H   0  0  0  0  0  0  0  0  0  0  0  0
   37.1200   29.5880   43.6570 H   0  0  0  0  0  0  0  0  0  0  0  0
   38.6050   28.7720   42.9530 H   0  0  0  0  0  0  0  0  0  0  0  0
   36.6050   25.9340   42.0910 H   0  0  0  0  0  0  0  0  0  0  0  0
   38.1540   26.0480   43.0230 H   0  0  0  0  0  0  0  0  0  0  0  0
   39.0790   27.5810   41.3090 H   0  0  0  0  0  0  0  0  0  0  0  0
   37.5100   32.7090   40.3780 C   0  0  0  0  0  0  0  0  0  0  0  0
   38.8450   33.0220   40.7800 C   0  0  0  0  0  0  0  0  0  0  0  0
   39.5320   31.9910   41.4680 C   0  0  0  0  0  0  0  0  0  0  0  0
   38.9090   30.8130   41.6950 N   0  0  0  0  0  0  0  0  0  0  0  0
   37.6430   30.5810   41.2870 C   0  0  0  0  0  0  0  0  0  0  0  0
   36.9450   31.5300   40.6280 N   0  0  0  0  0  0  0  0  0  0  0  0
   39.3250   33.9510   40.5970 H   0  0  0  0  0  0  0  0  0  0  0  0
   40.5410   32.2200   41.7760 H   0  0  0  0  0  0  0  0  0  0  0  0
   36.8370   33.6880   39.7150 O   0  0  0  0  0  0  0  0  0  0  0  0
   37.1490   33.9970   38.7920 H   0  0  0  0  0  0  0  0  0  0  0  0
   37.9140   28.7000   39.3900 O   0  0  0  0  0  0  0  0  0  0  0  0
   38.6820   29.2440   39.7000 H   0  0  0  0  0  0  0  0  0  0  0  0
   38.2080   26.1270   40.1770 O   0  0  0  0  0  0  0  0  0  0  0  0
   35.7740   25.5050   39.1850 F   0  0  0  0  0  0  0  0  0  0  0  0
   36.6960   24.6060   39.5830 C   0  0  0  0  0  0  0  0  0  0  0  0
   37.9560   24.8310   40.0930 C   0  0  0  0  0  0  0  0  0  0  0  0
   38.6810   23.6920   40.4030 C   0  0  0  0  0  0  0  0  0  0  0  0
   38.2450   22.3900   40.2410 C   0  0  0  0  0  0  0  0  0  0  0  0
   36.9900   22.2280   39.7330 C   0  0  0  0  0  0  0  0  0  0  0  0
   36.1970   23.3110   39.3970 C   0  0  0  0  0  0  0  0  0  0  0  0
   39.6770   23.9530   40.8050 H   0  0  0  0  0  0  0  0  0  0  0  0
   38.9020   21.6010   40.5200 H   0  0  0  0  0  0  0  0  0  0  0  0
   36.6660   21.1920   39.6140 H   0  0  0  0  0  0  0  0  0  0  0  0
   34.9280   22.9580   38.8840 N   0  0  0  0  0  0  0  0  0  0  0  0
   34.6610   22.8510   37.4630 C   0  0  0  0  0  2  0  0  0  0  0  0
   33.2680   23.4290   37.3570 C   0  0  0  0  0  2  0  0  0  0  0  0
   32.6020   22.9320   38.6040 C   0  0  0  0  0  2  0  0  0  0  0  0
   33.6990   22.6470   39.5750 C   0  0  0  0  0  3  0  0  0  0  0  0
   33.6470   21.6070   39.9500 H   0  0  0  0  0  0  0  0  0  0  0  0
  1  7  1  6  0  0  0
  1  6  1  0  0  0  0
  1  2  1  0  0  0  0
  2  8  1  1  0  0  0
  2  3  1  0  0  0  0
  3 10  1  0  0  0  0
  3  4  1  0  0  0  0
  3  9  1  0  0  0  0
  5 12  1  0  0  0  0
  5  4  1  0  0  0  0
  6 13  1  1  0  0  0
  6  5  1  0  0  0  0
 11  5  1  0  0  0  0
 14 19  2  0  0  0  0
 14 15  1  0  0  0  0
 15 16  2  0  0  0  0
 16 17  1  0  0  0  0
 16 21  1  0  0  0  0
 18  2  1  0  0  0  0
 18 17  2  0  0  0  0
 19 18  1  0  0  0  0
 20 15  1  0  0  0  0
 22 14  1  0  0  0  0
 23 22  1  0  0  0  0
 24 25  1  0  0  0  0
 24  1  1  0  0  0  0
 26  6  1  0  0  0  0
 27 28  1  0  0  0  0
 28 29  1  0  0  0  0
 29 26  1  0  0  0  0
 29 30  2  0  0  0  0
 30 34  1  0  0  0  0
 31 30  1  0  0  0  0
 31 35  1  0  0  0  0
 32 31  2  0  0  0  0
 33 28  2  0  0  0  0
 33 32  1  0  0  0  0
 36 32  1  0  0  0  0
 37 33  1  0  0  0  0
 37 41  1  0  0  0  0
 38 37  1  0  0  0  0
 39 38  1  0  0  0  0
 39 40  1  0  0  0  0
 40 41  1  0  0  0  0
 41 42  1  0  0  0  0
M  END
>  <minimizedAffinity>
-5.80734682

$$$$

 OpenBabel03242518483D

 42 45  0  0  1  0  0  0  0  0999 V2000
   39.0750   31.3410   39.1810 C   0  0  2  0  0  0  0  0  0  0  0  0
   39.3330   32.7910   38.9660 C   0  0  1  0  0  0  0  0  0  0  0  0
   38.6340   33.6650   40.0080 C   0  0  0  0  0  0  0  0  0  0  0  0
   37.2930   33.2740   39.9360 O   0  0  0  0  0  0  0  0  0  0  0  0
   37.0980   32.0310   40.5070 C   0  0  0  0  0  0  0  0  0  0  0  0
   38.3120   31.1560   40.5060 C   0  0  1  0  0  0  0  0  0  0  0  0
   38.4380   30.9560   38.3840 H   0  0  0  0  0  0  0  0  0  0  0  0
   38.9420   33.1130   37.9640 H   0  0  0  0  0  0  0  0  0  0  0  0
   38.7120   34.7040   39.6650 H   0  0  0  0  0  0  0  0  0  0  0  0
   39.0600   33.5080   41.0120 H   0  0  0  0  0  0  0  0  0  0  0  0
   36.3160   31.4990   39.9000 H   0  0  0  0  0  0  0  0  0  0  0  0
   36.7060   32.1610   41.5400 H   0  0  0  0  0  0  0  0  0  0  0  0
   39.0620   31.4400   41.2770 H   0  0  0  0  0  0  0  0  0  0  0  0
   42.6620   33.8510   37.8760 C   0  0  0  0  0  0  0  0  0  0  0  0
   43.4150   33.9320   39.0880 C   0  0  0  0  0  0  0  0  0  0  0  0
   42.7050   33.6050   40.2700 C   0  0  0  0  0  0  0  0  0  0  0  0
   41.4050   33.2480   40.1870 N   0  0  0  0  0  0  0  0  0  0  0  0
   40.7500   33.1910   39.0070 C   0  0  0  0  0  0  0  0  0  0  0  0
   41.3800   33.4930   37.8530 N   0  0  0  0  0  0  0  0  0  0  0  0
   44.4370   34.2150   39.1420 H   0  0  0  0  0  0  0  0  0  0  0  0
   43.2680   33.6650   41.1900 H   0  0  0  0  0  0  0  0  0  0  0  0
   43.3300   34.1610   36.7320 O   0  0  0  0  0  0  0  0  0  0  0  0
   44.1020   33.5740   36.4090 H   0  0  0  0  0  0  0  0  0  0  0  0
   40.2340   30.5660   39.2380 O   0  0  0  0  0  0  0  0  0  0  0  0
   40.8730   31.0280   39.8390 H   0  0  0  0  0  0  0  0  0  0  0  0
   38.0270   29.8150   40.6130 O   0  0  0  0  0  0  0  0  0  0  0  0
   38.6580   27.2270   41.0570 F   0  0  0  0  0  0  0  0  0  0  0  0
   37.6770   27.6500   40.2350 C   0  0  0  0  0  0  0  0  0  0  0  0
   37.2850   28.9400   39.9530 C   0  0  0  0  0  0  0  0  0  0  0  0
   36.2270   29.0570   39.0670 C   0  0  0  0  0  0  0  0  0  0  0  0
   35.5590   28.0060   38.4670 C   0  0  0  0  0  0  0  0  0  0  0  0
   35.9900   26.7520   38.7820 C   0  0  0  0  0  0  0  0  0  0  0  0
   37.0410   26.5440   39.6580 C   0  0  0  0  0  0  0  0  0  0  0  0
   35.9710   30.1180   38.8920 H   0  0  0  0  0  0  0  0  0  0  0  0
   34.7600   28.2320   37.8020 H   0  0  0  0  0  0  0  0  0  0  0  0
   35.4490   25.9370   38.2960 H   0  0  0  0  0  0  0  0  0  0  0  0
   37.3540   25.1810   39.8690 N   0  0  0  0  0  0  0  0  0  0  0  0
   36.7800   24.4080   40.9530 C   0  0  0  0  0  2  0  0  0  0  0  0
   37.9510   23.5550   41.3880 C   0  0  0  0  0  2  0  0  0  0  0  0
   38.6300   23.2300   40.0930 C   0  0  0  0  0  2  0  0  0  0  0  0
   38.2330   24.3030   39.1350 C   0  0  0  0  0  3  0  0  0  0  0  0
   37.7810   23.8800   38.2180 H   0  0  0  0  0  0  0  0  0  0  0  0
  1  7  1  6  0  0  0
  1 24  1  0  0  0  0
  1  6  1  0  0  0  0
  2  8  1  6  0  0  0
  2 18  1  0  0  0  0
  2  1  1  0  0  0  0
  2  3  1  0  0  0  0
  3 10  1  0  0  0  0
  4  3  1  0  0  0  0
  4  5  1  0  0  0  0
  5 12  1  0  0  0  0
  6  5  1  0  0  0  0
  6 26  1  0  0  0  0
  6 13  1  1  0  0  0
  9  3  1  0  0  0  0
 11  5  1  0  0  0  0
 14 15  1  0  0  0  0
 15 20  1  0  0  0  0
 15 16  2  0  0  0  0
 16 21  1  0  0  0  0
 17 16  1  0  0  0  0
 18 17  2  0  0  0  0
 19 14  2  0  0  0  0
 19 18  1  0  0  0  0
 22 14  1  0  0  0  0
 23 22  1  0  0  0  0
 24 25  1  0  0  0  0
 28 27  1  0  0  0  0
 29 28  1  0  0  0  0
 29 26  1  0  0  0  0
 30 29  2  0  0  0  0
 31 32  2  0  0  0  0
 31 30  1  0  0  0  0
 32 33  1  0  0  0  0
 33 37  1  0  0  0  0
 33 28  2  0  0  0  0
 34 30  1  0  0  0  0
 35 31  1  0  0  0  0
 36 32  1  0  0  0  0
 37 38  1  0  0  0  0
 38 39  1  0  0  0  0
 40 39  1  0  0  0  0
 41 37  1  0  0  0  0
 41 40  1  0  0  0  0
 42 41  1  0  0  0  0
M  END
>  <minimizedAffinity>
-5.75247145

$$$$

 OpenBabel03242518483D

 42 45  0  0  1  0  0  0  0  0999 V2000
   34.9040   28.5590   38.3420 C   0  0  2  0  0  0  0  0  0  0  0  0
   36.3790   28.7330   38.2340 C   0  0  1  0  0  0  0  0  0  0  0  0
   36.7970   29.3050   36.8790 C   0  0  0  0  0  0  0  0  0  0  0  0
   36.2240   28.4310   35.9500 O   0  0  0  0  0  0  0  0  0  0  0  0
   34.8560   28.6100   35.8640 C   0  0  0  0  0  0  0  0  0  0  0  0
   34.2320   29.1760   37.1020 C   0  0  1  0  0  0  0  0  0  0  0  0
   34.6560   27.4970   38.3500 H   0  0  0  0  0  0  0  0  0  0  0  0
   36.8970   27.7430   38.3380 H   0  0  0  0  0  0  0  0  0  0  0  0
   37.8880   29.2150   36.8120 H   0  0  0  0  0  0  0  0  0  0  0  0
   36.4390   30.3390   36.7540 H   0  0  0  0  0  0  0  0  0  0  0  0
   34.3920   27.6000   35.7010 H   0  0  0  0  0  0  0  0  0  0  0  0
   34.6250   29.2450   34.9810 H   0  0  0  0  0  0  0  0  0  0  0  0
   34.4100   30.2670   37.2280 H   0  0  0  0  0  0  0  0  0  0  0  0
   37.1570   31.7420   40.1660 C   0  0  0  0  0  0  0  0  0  0  0  0
   38.1230   31.3020   41.1220 C   0  0  0  0  0  0  0  0  0  0  0  0
   38.4700   29.9300   41.0490 C   0  0  0  0  0  0  0  0  0  0  0  0
   37.8900   29.1450   40.1150 N   0  0  0  0  0  0  0  0  0  0  0  0
   36.9810   29.6260   39.2390 C   0  0  0  0  0  0  0  0  0  0  0  0
   36.6160   30.9240   39.2660 N   0  0  0  0  0  0  0  0  0  0  0  0
   38.5730   31.9260   41.8530 H   0  0  0  0  0  0  0  0  0  0  0  0
   39.2000   29.5890   41.7690 H   0  0  0  0  0  0  0  0  0  0  0  0
   36.8130   33.0580   40.2220 O   0  0  0  0  0  0  0  0  0  0  0  0
   37.5020   33.7820   40.0080 H   0  0  0  0  0  0  0  0  0  0  0  0
   34.3490   29.1550   39.4760 O   0  0  0  0  0  0  0  0  0  0  0  0
   34.7240   30.0690   39.5470 H   0  0  0  0  0  0  0  0  0  0  0  0
   32.8860   28.9140   37.2100 O   0  0  0  0  0  0  0  0  0  0  0  0
   31.9640   29.7280   34.8060 F   0  0  0  0  0  0  0  0  0  0  0  0
   31.3790   30.0050   35.9890 C   0  0  0  0  0  0  0  0  0  0  0  0
   31.7740   29.6290   37.2550 C   0  0  0  0  0  0  0  0  0  0  0  0
   30.9530   30.0610   38.2830 C   0  0  0  0  0  0  0  0  0  0  0  0
   29.8050   30.8160   38.1340 C   0  0  0  0  0  0  0  0  0  0  0  0
   29.4620   31.1580   36.8600 C   0  0  0  0  0  0  0  0  0  0  0  0
   30.2270   30.7690   35.7740 C   0  0  0  0  0  0  0  0  0  0  0  0
   31.3340   29.7220   39.2640 H   0  0  0  0  0  0  0  0  0  0  0  0
   29.2620   31.0830   39.0090 H   0  0  0  0  0  0  0  0  0  0  0  0
   28.5520   31.7540   36.7660 H   0  0  0  0  0  0  0  0  0  0  0  0
   29.7240   31.2120   34.5280 N   0  0  0  0  0  0  0  0  0  0  0  0
   28.8460   30.4010   33.7070 C   0  0  0  0  0  2  0  0  0  0  0  0
   29.3470   30.7050   32.3130 C   0  0  0  0  0  2  0  0  0  0  0  0
   29.6870   32.1620   32.3870 C   0  0  0  0  0  2  0  0  0  0  0  0
   29.9360   32.4580   33.8290 C   0  0  0  0  0  3  0  0  0  0  0  0
   29.2970   33.2870   34.1870 H   0  0  0  0  0  0  0  0  0  0  0  0
  1  7  1  1  0  0  0
  1 24  1  0  0  0  0
  2  8  1  1  0  0  0
  2  1  1  0  0  0  0
  2 18  1  0  0  0  0
  3  2  1  0  0  0  0
  4  3  1  0  0  0  0
  5  4  1  0  0  0  0
  5  6  1  0  0  0  0
  6 26  1  0  0  0  0
  6 13  1  1  0  0  0
  6  1  1  0  0  0  0
  9  3  1  0  0  0  0
 10  3  1  0  0  0  0
 11  5  1  0  0  0  0
 12  5  1  0  0  0  0
 14 22  1  0  0  0  0
 14 15  1  0  0  0  0
 15 20  1  0  0  0  0
 16 15  2  0  0  0  0
 16 21  1  0  0  0  0
 17 16  1  0  0  0  0
 18 19  1  0  0  0  0
 18 17  2  0  0  0  0
 19 14  2  0  0  0  0
 23 22  1  0  0  0  0
 24 25  1  0  0  0  0
 26 29  1  0  0  0  0
 27 28  1  0  0  0  0
 28 29  1  0  0  0  0
 29 30  2  0  0  0  0
 30 34  1  0  0  0  0
 31 30  1  0  0  0  0
 31 35  1  0  0  0  0
 32 31  2  0  0  0  0
 33 28  2  0  0  0  0
 33 32  1  0  0  0  0
 36 32  1  0  0  0  0
 37 33  1  0  0  0  0
 38 37  1  0  0  0  0
 39 40  1  0  0  0  0
 39 38  1  0  0  0  0
 40 41  1  0  0  0  0
 41 42  1  0  0  0  0
 41 37  1  0  0  0  0
M  END
>  <minimizedAffinity>
-5.65310192

$$$$

 OpenBabel03242518483D

 42 45  0  0  1  0  0  0  0  0999 V2000
   39.4450   32.3170   38.6080 C   0  0  2  0  0  0  0  0  0  0  0  0
   40.0230   33.3590   39.5000 C   0  0  1  0  0  0  0  0  0  0  0  0
   39.0480   33.7860   40.5980 C   0  0  0  0  0  0  0  0  0  0  0  0
   37.8940   34.1600   39.9020 O   0  0  0  0  0  0  0  0  0  0  0  0
   37.2210   33.0580   39.4100 C   0  0  0  0  0  0  0  0  0  0  0  0
   38.0890   31.8620   39.1760 C   0  0  1  0  0  0  0  0  0  0  0  0
   39.2580   32.7380   37.6190 H   0  0  0  0  0  0  0  0  0  0  0  0
   40.2680   34.2840   38.9130 H   0  0  0  0  0  0  0  0  0  0  0  0
   39.4690   34.6780   41.0770 H   0  0  0  0  0  0  0  0  0  0  0  0
   38.8590   32.9640   41.3060 H   0  0  0  0  0  0  0  0  0  0  0  0
   36.7880   33.3430   38.4130 H   0  0  0  0  0  0  0  0  0  0  0  0
   36.3810   32.8070   40.0950 H   0  0  0  0  0  0  0  0  0  0  0  0
   38.3680   31.3270   40.1110 H   0  0  0  0  0  0  0  0  0  0  0  0
   42.2820   32.1220   42.0990 C   0  0  0  0  0  0  0  0  0  0  0  0
   43.5820   32.2540   41.5210 C   0  0  0  0  0  0  0  0  0  0  0  0
   43.6140   32.7840   40.2080 C   0  0  0  0  0  0  0  0  0  0  0  0
   42.4570   33.1230   39.5990 N   0  0  0  0  0  0  0  0  0  0  0  0
   41.2580   32.9720   40.2020 C   0  0  0  0  0  0  0  0  0  0  0  0
   41.1730   32.4720   41.4520 N   0  0  0  0  0  0  0  0  0  0  0  0
   44.4860   31.9840   42.0080 H   0  0  0  0  0  0  0  0  0  0  0  0
   44.5940   32.8870   39.7640 H   0  0  0  0  0  0  0  0  0  0  0  0
   42.2340   31.6150   43.3610 O   0  0  0  0  0  0  0  0  0  0  0  0
   42.6380   32.1350   44.1430 H   0  0  0  0  0  0  0  0  0  0  0  0
   40.2550   31.1890   38.4630 O   0  0  0  0  0  0  0  0  0  0  0  0
   40.5580   30.9220   39.3680 H   0  0  0  0  0  0  0  0  0  0  0  0
   37.5640   30.9660   38.2730 O   0  0  0  0  0  0  0  0  0  0  0  0
   38.4030   29.1080   40.0450 F   0  0  0  0  0  0  0  0  0  0  0  0
   37.3160   28.9850   39.2570 C   0  0  0  0  0  0  0  0  0  0  0  0
   36.8140   29.8780   38.3340 C   0  0  0  0  0  0  0  0  0  0  0  0
   35.6640   29.4680   37.6800 C   0  0  0  0  0  0  0  0  0  0  0  0
   35.0060   28.2690   37.8810 C   0  0  0  0  0  0  0  0  0  0  0  0
   35.5480   27.4250   38.8050 C   0  0  0  0  0  0  0  0  0  0  0  0
   36.6960   27.7550   39.5040 C   0  0  0  0  0  0  0  0  0  0  0  0
   35.3240   30.2340   36.9600 H   0  0  0  0  0  0  0  0  0  0  0  0
   34.1290   28.0750   37.3110 H   0  0  0  0  0  0  0  0  0  0  0  0
   35.0120   26.4850   38.9470 H   0  0  0  0  0  0  0  0  0  0  0  0
   37.1160   26.7640   40.4210 N   0  0  0  0  0  0  0  0  0  0  0  0
   37.7050   25.5080   39.9990 C   0  0  0  0  0  2  0  0  0  0  0  0
   37.1030   24.5300   40.9820 C   0  0  0  0  0  2  0  0  0  0  0  0
   37.0710   25.3120   42.2590 C   0  0  0  0  0  2  0  0  0  0  0  0
   37.0700   26.7520   41.8640 C   0  0  0  0  0  3  0  0  0  0  0  0
   37.9000   27.3030   42.3440 H   0  0  0  0  0  0  0  0  0  0  0  0
  1  7  1  6  0  0  0
  1  6  1  0  0  0  0
  1  2  1  0  0  0  0
  2  8  1  6  0  0  0
  2 18  1  0  0  0  0
  2  3  1  0  0  0  0
  3  9  1  0  0  0  0
  3 10  1  0  0  0  0
  4  3  1  0  0  0  0
  5  4  1  0  0  0  0
  5 12  1  0  0  0  0
  6  5  1  0  0  0  0
  6 13  1  1  0  0  0
 11  5  1  0  0  0  0
 14 22  1  0  0  0  0
 15 20  1  0  0  0  0
 15 14  1  0  0  0  0
 16 15  2  0  0  0  0
 17 18  2  0  0  0  0
 17 16  1  0  0  0  0
 18 19  1  0  0  0  0
 19 14  2  0  0  0  0
 21 16  1  0  0  0  0
 22 23  1  0  0  0  0
 24  1  1  0  0  0  0
 24 25  1  0  0  0  0
 26 29  1  0  0  0  0
 26  6  1  0  0  0  0
 28 33  1  0  0  0  0
 28 27  1  0  0  0  0
 29 28  2  0  0  0  0
 30 31  2  0  0  0  0
 30 29  1  0  0  0  0
 31 32  1  0  0  0  0
 32 36  1  0  0  0  0
 32 33  2  0  0  0  0
 33 37  1  0  0  0  0
 34 30  1  0  0  0  0
 35 31  1  0  0  0  0
 37 41  1  0  0  0  0
 38 37  1  0  0  0  0
 38 39  1  0  0  0  0
 39 40  1  0  0  0  0
 41 40  1  0  0  0  0
 41 42  1  0  0  0  0
M  END
>  <minimizedAffinity>
-5.54017639

$$$$

 OpenBabel03242518483D

 42 45  0  0  1  0  0  0  0  0999 V2000
   39.7980   30.4260   39.6450 C   0  0  2  0  0  0  0  0  0  0  0  0
   39.5900   31.8940   39.5120 C   0  0  1  0  0  0  0  0  0  0  0  0
   38.9370   32.5010   40.7540 C   0  0  0  0  0  0  0  0  0  0  0  0
   37.7760   31.7420   40.9330 O   0  0  0  0  0  0  0  0  0  0  0  0
   38.0670   30.4820   41.4180 C   0  0  0  0  0  0  0  0  0  0  0  0
   39.4410   29.9950   41.0800 C   0  0  1  0  0  0  0  0  0  0  0  0
   39.1260   29.8940   38.9710 H   0  0  0  0  0  0  0  0  0  0  0  0
   38.9060   32.1150   38.6490 H   0  0  0  0  0  0  0  0  0  0  0  0
   38.6440   33.5270   40.4970 H   0  0  0  0  0  0  0  0  0  0  0  0
   39.6080   32.4480   41.6250 H   0  0  0  0  0  0  0  0  0  0  0  0
   37.3440   29.7620   40.9470 H   0  0  0  0  0  0  0  0  0  0  0  0
   37.9040   30.4670   42.5190 H   0  0  0  0  0  0  0  0  0  0  0  0
   40.2410   30.4630   41.6960 H   0  0  0  0  0  0  0  0  0  0  0  0
   42.2350   33.7660   37.8110 C   0  0  0  0  0  0  0  0  0  0  0  0
   43.1140   34.1610   38.8650 C   0  0  0  0  0  0  0  0  0  0  0  0
   42.7330   33.7450   40.1650 C   0  0  0  0  0  0  0  0  0  0  0  0
   41.6010   33.0250   40.3270 N   0  0  0  0  0  0  0  0  0  0  0  0
   40.8120   32.6840   39.2860 C   0  0  0  0  0  0  0  0  0  0  0  0
   41.1300   33.0550   38.0290 N   0  0  0  0  0  0  0  0  0  0  0  0
   44.0010   34.7280   38.7260 H   0  0  0  0  0  0  0  0  0  0  0  0
   43.3930   34.0410   40.9670 H   0  0  0  0  0  0  0  0  0  0  0  0
   42.5870   34.1570   36.5560 O   0  0  0  0  0  0  0  0  0  0  0  0
   43.4360   33.7910   36.1190 H   0  0  0  0  0  0  0  0  0  0  0  0
   41.1060   30.0170   39.3830 O   0  0  0  0  0  0  0  0  0  0  0  0
   41.7130   30.6280   39.8740 H   0  0  0  0  0  0  0  0  0  0  0  0
   39.5690   28.6260   41.1240 O   0  0  0  0  0  0  0  0  0  0  0  0
   38.6750   27.3730   38.9040 F   0  0  0  0  0  0  0  0  0  0  0  0
   38.3570   27.0230   40.1670 C   0  0  0  0  0  0  0  0  0  0  0  0
   38.7660   27.5990   41.3500 C   0  0  0  0  0  0  0  0  0  0  0  0
   38.2730   27.0030   42.4990 C   0  0  0  0  0  0  0  0  0  0  0  0
   37.4290   25.9100   42.5410 C   0  0  0  0  0  0  0  0  0  0  0  0
   37.0560   25.3820   41.3400 C   0  0  0  0  0  0  0  0  0  0  0  0
   37.5010   25.9160   40.1440 C   0  0  0  0  0  0  0  0  0  0  0  0
   38.6460   27.5180   43.4040 H   0  0  0  0  0  0  0  0  0  0  0  0
   37.1210   25.5490   43.4930 H   0  0  0  0  0  0  0  0  0  0  0  0
   36.3880   24.5200   41.3980 H   0  0  0  0  0  0  0  0  0  0  0  0
   37.0150   25.2440   38.9980 N   0  0  0  0  0  0  0  0  0  0  0  0
   35.8640   25.7090   38.2500 C   0  0  0  0  0  2  0  0  0  0  0  0
   35.1760   24.4110   37.8890 C   0  0  0  0  0  2  0  0  0  0  0  0
   36.3230   23.4880   37.6110 C   0  0  0  0  0  2  0  0  0  0  0  0
   37.4940   24.0470   38.3480 C   0  0  0  0  0  3  0  0  0  0  0  0
   38.3540   24.2160   37.6740 H   0  0  0  0  0  0  0  0  0  0  0  0
  1  7  1  6  0  0  0
  1  6  1  0  0  0  0
  2  8  1  6  0  0  0
  2  1  1  0  0  0  0
  2  3  1  0  0  0  0
  3  4  1  0  0  0  0
  3 10  1  0  0  0  0
  4  5  1  0  0  0  0
  5 12  1  0  0  0  0
  6 26  1  0  0  0  0
  6  5  1  0  0  0  0
  6 13  1  1  0  0  0
  9  3  1  0  0  0  0
 11  5  1  0  0  0  0
 14 19  2  0  0  0  0
 14 15  1  0  0  0  0
 15 16  2  0  0  0  0
 16 17  1  0  0  0  0
 16 21  1  0  0  0  0
 18  2  1  0  0  0  0
 18 17  2  0  0  0  0
 19 18  1  0  0  0  0
 20 15  1  0  0  0  0
 22 14  1  0  0  0  0
 23 22  1  0  0  0  0
 24  1  1  0  0  0  0
 24 25  1  0  0  0  0
 26 29  1  0  0  0  0
 27 28  1  0  0  0  0
 28 29  1  0  0  0  0
 29 30  2  0  0  0  0
 30 31  1  0  0  0  0
 30 34  1  0  0  0  0
 31 35  1  0  0  0  0
 32 36  1  0  0  0  0
 32 31  2  0  0  0  0
 33 28  2  0  0  0  0
 33 32  1  0  0  0  0
 37 33  1  0  0  0  0
 38 37  1  0  0  0  0
 39 38  1  0  0  0  0
 40 39  1  0  0  0  0
 40 41  1  0  0  0  0
 41 37  1  0  0  0  0
 42 41  1  0  0  0  0
M  END
>  <minimizedAffinity>
-5.53403473

$$$$
