
 OpenBabel03252509353D

 41 43  0  0  1  0  0  0  0  0999 V2000
   44.4500   35.5020   44.0410 O   0  0  0  0  0  0  0  0  0  0  0  0
   45.3200   34.3080   44.3830 P   0  0  1  0  0  0  0  0  0  0  0  0
   44.6980   32.8820   43.7130 O   0  0  0  0  0  0  0  0  0  0  0  0
   44.3770   33.1400   42.8050 H   0  0  0  0  0  0  0  0  0  0  0  0
   46.8510   34.5990   43.7810 O   0  0  0  0  0  0  0  0  0  0  0  0
   47.0410   33.8690   42.6040 C   0  0  1  0  0  0  0  0  0  0  0  0
   46.4860   34.6520   41.4090 C   0  0  0  0  0  0  0  0  0  0  0  0
   47.0610   33.8630   40.2640 C   0  0  0  0  0  0  0  0  0  0  0  0
   48.3320   33.2270   40.7870 C   0  0  0  0  0  0  0  0  0  0  0  0
   48.4780   33.7460   42.2030 C   0  0  1  0  0  0  0  0  0  0  0  0
   46.5380   32.9050   42.6100 H   0  0  0  0  0  0  0  0  0  0  0  0
   46.7270   35.7080   41.4240 H   0  0  0  0  0  0  0  0  0  0  0  0
   45.3700   34.5500   41.4060 H   0  0  0  0  0  0  0  0  0  0  0  0
   47.3830   34.5500   39.4480 H   0  0  0  0  0  0  0  0  0  0  0  0
   46.3220   33.1190   39.9200 H   0  0  0  0  0  0  0  0  0  0  0  0
   49.2210   33.4420   40.1670 H   0  0  0  0  0  0  0  0  0  0  0  0
   48.1180   32.1350   40.8780 H   0  0  0  0  0  0  0  0  0  0  0  0
   48.9620   32.9790   42.8630 H   0  0  0  0  0  0  0  0  0  0  0  0
   49.2130   35.0620   42.2510 C   0  0  0  0  0  0  0  0  0  0  0  0
   48.5430   35.9100   42.5760 H   0  0  0  0  0  0  0  0  0  0  0  0
   49.5850   35.3320   41.2400 H   0  0  0  0  0  0  0  0  0  0  0  0
   50.2400   35.0480   43.1670 O   0  0  0  0  0  0  0  0  0  0  0  0
   50.8310   34.2760   43.1480 H   0  0  0  0  0  0  0  0  0  0  0  0
   45.3670   34.0740   46.0330 O   0  0  0  0  0  0  0  0  0  0  0  0
   46.3480   33.1800   46.3280 C   0  0  0  0  0  0  0  0  0  0  0  0
   46.9240   32.7570   45.5130 H   0  0  0  0  0  0  0  0  0  0  0  0
   47.1020   33.7560   46.9450 H   0  0  0  0  0  0  0  0  0  0  0  0
   45.2710   31.3340   49.3710 C   0  0  0  0  0  0  0  0  0  0  0  0
   45.7010   32.3780   48.5520 C   0  0  0  0  0  0  0  0  0  0  0  0
   45.8900   32.0890   47.2030 C   0  0  0  0  0  0  0  0  0  0  0  0
   45.6480   30.8230   46.7590 N   0  0  0  0  0  0  0  0  0  0  0  0
   45.2330   29.8300   47.5730 C   0  0  0  0  0  0  0  0  0  0  0  0
   45.0480   30.0890   48.8610 N   0  0  0  0  0  0  0  0  0  0  0  0
   45.1210   31.5450   50.4130 H   0  0  0  0  0  0  0  0  0  0  0  0
   45.8690   33.3550   48.9920 H   0  0  0  0  0  0  0  0  0  0  0  0
   44.9960   28.5270   47.0550 N   0  0  0  0  0  0  0  0  0  0  0  0
   43.8860   28.0520   46.2540 C   0  0  0  0  0  2  0  0  0  0  0  0
   44.4580   26.9160   45.4080 C   0  0  0  0  0  2  0  0  0  0  0  0
   45.9160   26.8250   45.8250 C   0  0  0  0  0  2  0  0  0  0  0  0
   45.8550   27.3730   47.2350 C   0  0  0  0  0  3  0  0  0  0  0  0
   46.8680   27.6450   47.5970 H   0  0  0  0  0  0  0  0  0  0  0  0
  2  1  2  6  0  0  0
  2 24  1  0  0  0  0
  3  2  1  0  0  0  0
  4  3  1  0  0  0  0
  5  2  1  0  0  0  0
  6 11  1  1  0  0  0
  6  5  1  0  0  0  0
  7 12  1  0  0  0  0
  7  6  1  0  0  0  0
  8  9  1  0  0  0  0
  8  7  1  0  0  0  0
  9 17  1  0  0  0  0
  9 10  1  0  0  0  0
 10 19  1  0  0  0  0
 10  6  1  0  0  0  0
 10 18  1  1  0  0  0
 13  7  1  0  0  0  0
 14  8  1  0  0  0  0
 15  8  1  0  0  0  0
 16  9  1  0  0  0  0
 19 20  1  0  0  0  0
 19 22  1  0  0  0  0
 21 19  1  0  0  0  0
 23 22  1  0  0  0  0
 24 25  1  0  0  0  0
 25 27  1  0  0  0  0
 25 30  1  0  0  0  0
 26 25  1  0  0  0  0
 28 34  1  0  0  0  0
 29 35  1  0  0  0  0
 29 28  2  0  0  0  0
 30 29  1  0  0  0  0
 31 30  2  0  0  0  0
 31 32  1  0  0  0  0
 32 33  2  0  0  0  0
 33 28  1  0  0  0  0
 36 40  1  0  0  0  0
 36 32  1  0  0  0  0
 37 36  1  0  0  0  0
 38 39  1  0  0  0  0
 38 37  1  0  0  0  0
 39 40  1  0  0  0  0
 40 41  1  0  0  0  0
M  END
>  <minimizedAffinity>
-6.07919455

>  <minimizedRMSD>
1.14365757

$$$$
