
 OpenBabel03252505323D

 27 29  0  0  0  0  0  0  0  0999 V2000
   46.8270   34.8400   42.0360 C   0  0  0  0  0  0  0  0  0  0  0  0
   48.0450   35.4630   41.9770 C   0  0  0  0  0  0  0  0  0  0  0  0
   48.8600   35.4110   40.8450 C   0  0  0  0  0  0  0  0  0  0  0  0
   48.4450   34.7110   39.7350 C   0  0  0  0  0  0  0  0  0  0  0  0
   47.2090   34.0830   39.8040 C   0  0  0  0  0  0  0  0  0  0  0  0
   46.3900   34.1300   40.9260 C   0  0  0  0  0  0  0  0  0  0  0  0
   48.4760   36.0400   42.7840 H   0  0  0  0  0  0  0  0  0  0  0  0
   49.8220   35.9030   40.8000 H   0  0  0  0  0  0  0  0  0  0  0  0
   48.9820   34.6010   38.8140 H   0  0  0  0  0  0  0  0  0  0  0  0
   46.8100   33.5170   38.9810 H   0  0  0  0  0  0  0  0  0  0  0  0
   44.4770   36.0510   44.7210 C   0  0  0  0  0  0  0  0  0  0  0  0
   45.1910   36.0270   43.5070 C   0  0  0  0  0  0  0  0  0  0  0  0
   46.0540   34.9540   43.2480 C   0  0  0  0  0  0  0  0  0  0  0  0
   46.1710   33.9820   44.1700 N   0  0  0  0  0  0  0  0  0  0  0  0
   45.4660   34.0330   45.3350 C   0  0  0  0  0  0  0  0  0  0  0  0
   44.6250   35.0620   45.6070 N   0  0  0  0  0  0  0  0  0  0  0  0
   45.5940   32.9980   46.3040 N   0  0  0  0  0  0  0  0  0  0  0  0
   43.8350   36.9100   44.8430 H   0  0  0  0  0  0  0  0  0  0  0  0
   45.1070   36.8060   42.7520 H   0  0  0  0  0  0  0  0  0  0  0  0
   44.9630   32.2570   45.8870 H   0  0  0  0  0  0  0  0  0  0  0  0
   46.2290   33.2520   47.0880 H   0  0  0  0  0  0  0  0  0  0  0  0
   45.1280   33.4720   40.9610 N   0  0  0  0  0  0  0  0  0  0  0  0
   44.6900   32.1320   41.3370 C   0  0  0  0  0  0  0  0  0  0  0  0
   43.4290   32.4780   42.1160 C   0  0  0  0  0  0  0  0  0  0  0  0
   42.7510   33.4040   41.1260 C   0  0  0  0  0  0  0  0  0  0  0  0
   43.9150   34.1790   40.5540 C   0  0  0  0  0  0  0  0  0  0  0  0
   43.9500   35.1780   41.0770 H   0  0  0  0  0  0  0  0  0  0  0  0
  1 13  1  0  0  0  0
  2  1  1  0  0  0  0
  2  7  1  0  0  0  0
  3  2  2  0  0  0  0
  4  5  2  0  0  0  0
  4  3  1  0  0  0  0
  5  6  1  0  0  0  0
  6 22  1  0  0  0  0
  6  1  2  0  0  0  0
  8  3  1  0  0  0  0
  9  4  1  0  0  0  0
 10  5  1  0  0  0  0
 11 18  1  0  0  0  0
 11 16  1  0  0  0  0
 12 11  2  0  0  0  0
 13 12  1  0  0  0  0
 13 14  2  0  0  0  0
 14 15  1  0  0  0  0
 15 16  2  0  0  0  0
 15 17  1  0  0  0  0
 17 21  1  0  0  0  0
 19 12  1  0  0  0  0
 20 17  1  0  0  0  0
 22 23  1  0  0  0  0
 23 24  1  0  0  0  0
 25 24  1  0  0  0  0
 26 22  1  0  0  0  0
 26 27  1  0  0  0  0
 26 25  1  0  0  0  0
M  END
>  <minimizedAffinity>
-5.80107164

>  <minimizedRMSD>
0.30402711

$$$$
