
 OpenBabel03252509353D

 41 43  0  0  1  0  0  0  0  0999 V2000
   44.5160   35.4740   44.0510 O   0  0  0  0  0  0  0  0  0  0  0  0
   45.3660   34.2580   44.3600 P   0  0  1  0  0  0  0  0  0  0  0  0
   44.6980   32.8530   43.6870 O   0  0  0  0  0  0  0  0  0  0  0  0
   44.3640   33.1300   42.7890 H   0  0  0  0  0  0  0  0  0  0  0  0
   46.8900   34.5220   43.7300 O   0  0  0  0  0  0  0  0  0  0  0  0
   47.0260   33.8320   42.5210 C   0  0  1  0  0  0  0  0  0  0  0  0
   46.4430   34.6660   41.3760 C   0  0  0  0  0  0  0  0  0  0  0  0
   46.9630   33.9110   40.1830 C   0  0  0  0  0  0  0  0  0  0  0  0
   48.2420   33.2370   40.6370 C   0  0  0  0  0  0  0  0  0  0  0  0
   48.4460   33.7020   42.0650 C   0  0  1  0  0  0  0  0  0  0  0  0
   46.5080   32.8760   42.5110 H   0  0  0  0  0  0  0  0  0  0  0  0
   46.7010   35.7170   41.4190 H   0  0  0  0  0  0  0  0  0  0  0  0
   45.3260   34.5810   41.4100 H   0  0  0  0  0  0  0  0  0  0  0  0
   47.2680   34.6210   39.3820 H   0  0  0  0  0  0  0  0  0  0  0  0
   46.2010   33.1910   39.8400 H   0  0  0  0  0  0  0  0  0  0  0  0
   49.1110   33.4610   39.9940 H   0  0  0  0  0  0  0  0  0  0  0  0
   48.0130   32.1460   40.6970 H   0  0  0  0  0  0  0  0  0  0  0  0
   48.9410   32.9050   42.6790 H   0  0  0  0  0  0  0  0  0  0  0  0
   49.2040   35.0040   42.1330 C   0  0  0  0  0  0  0  0  0  0  0  0
   48.5130   35.8920   42.2290 H   0  0  0  0  0  0  0  0  0  0  0  0
   49.7830   35.1620   41.1980 H   0  0  0  0  0  0  0  0  0  0  0  0
   50.0220   35.0700   43.2380 O   0  0  0  0  0  0  0  0  0  0  0  0
   50.5760   34.2910   43.4170 H   0  0  0  0  0  0  0  0  0  0  0  0
   45.4410   34.0020   46.0060 O   0  0  0  0  0  0  0  0  0  0  0  0
   46.3830   33.0560   46.2670 C   0  0  0  0  0  0  0  0  0  0  0  0
   46.8710   32.5670   45.4310 H   0  0  0  0  0  0  0  0  0  0  0  0
   47.2140   33.6010   46.8070 H   0  0  0  0  0  0  0  0  0  0  0  0
   45.3470   31.4130   49.4370 C   0  0  0  0  0  0  0  0  0  0  0  0
   45.7810   32.3970   48.5490 C   0  0  0  0  0  0  0  0  0  0  0  0
   45.9210   32.0290   47.2140 C   0  0  0  0  0  0  0  0  0  0  0  0
   45.6300   30.7480   46.8490 N   0  0  0  0  0  0  0  0  0  0  0  0
   45.2110   29.8140   47.7280 C   0  0  0  0  0  0  0  0  0  0  0  0
   45.0730   30.1490   49.0040 N   0  0  0  0  0  0  0  0  0  0  0  0
   45.2350   31.6850   50.4700 H   0  0  0  0  0  0  0  0  0  0  0  0
   45.9900   33.3910   48.9290 H   0  0  0  0  0  0  0  0  0  0  0  0
   44.9220   28.4920   47.2910 N   0  0  0  0  0  0  0  0  0  0  0  0
   44.7510   27.2880   48.0800 C   0  0  0  0  0  2  0  0  0  0  0  0
   43.7890   26.4150   47.2750 C   0  0  0  0  0  2  0  0  0  0  0  0
   43.4850   27.2280   46.0280 C   0  0  0  0  0  2  0  0  0  0  0  0
   44.7360   28.0760   45.9150 C   0  0  0  0  0  3  0  0  0  0  0  0
   44.5720   28.9290   45.2270 H   0  0  0  0  0  0  0  0  0  0  0  0
  2  1  2  6  0  0  0
  2 24  1  0  0  0  0
  3  2  1  0  0  0  0
  4  3  1  0  0  0  0
  5  2  1  0  0  0  0
  6 11  1  1  0  0  0
  6  5  1  0  0  0  0
  7 13  1  0  0  0  0
  7 12  1  0  0  0  0
  7  6  1  0  0  0  0
  8  9  1  0  0  0  0
  8  7  1  0  0  0  0
  9 17  1  0  0  0  0
  9 10  1  0  0  0  0
 10 19  1  0  0  0  0
 10  6  1  0  0  0  0
 10 18  1  1  0  0  0
 14  8  1  0  0  0  0
 15  8  1  0  0  0  0
 16  9  1  0  0  0  0
 19 20  1  0  0  0  0
 19 22  1  0  0  0  0
 21 19  1  0  0  0  0
 22 23  1  0  0  0  0
 24 25  1  0  0  0  0
 25 27  1  0  0  0  0
 25 30  1  0  0  0  0
 26 25  1  0  0  0  0
 28 34  1  0  0  0  0
 29 35  1  0  0  0  0
 29 28  2  0  0  0  0
 30 29  1  0  0  0  0
 31 30  2  0  0  0  0
 31 32  1  0  0  0  0
 32 33  2  0  0  0  0
 33 28  1  0  0  0  0
 36 32  1  0  0  0  0
 36 37  1  0  0  0  0
 38 37  1  0  0  0  0
 39 38  1  0  0  0  0
 40 39  1  0  0  0  0
 40 36  1  0  0  0  0
 41 40  1  0  0  0  0
M  END
>  <minimizedAffinity>
-6.34876871

>  <minimizedRMSD>
1.00436819

$$$$
