
 OpenBabel03242517333D

 44 47  0  0  1  0  0  0  0  0999 V2000
   39.8880   28.6820   37.3020 C   0  0  0  0  0  0  0  0  0  0  0  0
   41.2880   28.4720   37.1580 C   0  0  0  0  0  0  0  0  0  0  0  0
   42.1560   29.3220   37.8300 C   0  0  0  0  0  0  0  0  0  0  0  0
   41.6090   30.3090   38.5860 N   0  0  0  0  0  0  0  0  0  0  0  0
   40.3040   30.5060   38.7220 C   0  0  0  0  0  0  0  0  0  0  0  0
   39.4890   29.6790   38.0700 N   0  0  0  0  0  0  0  0  0  0  0  0
   39.8340   31.5440   39.5210 N   0  0  0  0  0  0  0  0  0  0  0  0
   40.2170   32.9110   39.2450 C   0  0  0  0  0  0  0  0  0  0  0  0
   39.9820   33.8420   40.3890 C   0  0  0  0  0  0  0  0  0  0  0  0
   38.8650   33.5590   41.2240 N   0  0  0  0  0  0  0  0  0  0  0  0
   38.0810   32.4490   40.7620 C   0  0  0  0  0  0  0  0  0  0  0  0
   38.9390   31.2320   40.6540 C   0  0  2  0  0  0  0  0  0  0  0  0
   39.1410   28.0550   36.8070 H   0  0  0  0  0  0  0  0  0  0  0  0
   41.5830   27.6530   36.5280 H   0  0  0  0  0  0  0  0  0  0  0  0
   43.2020   29.1670   37.7230 H   0  0  0  0  0  0  0  0  0  0  0  0
   41.2930   32.9060   38.9920 H   0  0  0  0  0  0  0  0  0  0  0  0
   39.6200   33.2590   38.3800 H   0  0  0  0  0  0  0  0  0  0  0  0
   39.9410   34.8840   40.0040 H   0  0  0  0  0  0  0  0  0  0  0  0
   40.9000   33.7960   41.0360 H   0  0  0  0  0  0  0  0  0  0  0  0
   39.0110   33.6460   42.2270 H   0  0  0  0  0  0  0  0  0  0  0  0
   37.7510   32.7070   39.7080 H   0  0  0  0  0  0  0  0  0  0  0  0
   37.1570   32.3570   41.3250 H   0  0  0  0  0  0  0  0  0  0  0  0
   38.3250   30.3680   40.3790 H   0  0  0  0  0  0  0  0  0  0  0  0
   39.7350   30.9660   41.9080 C   0  0  0  0  0  0  0  0  0  0  0  0
   40.6510   30.4270   41.6290 H   0  0  0  0  0  0  0  0  0  0  0  0
   39.9320   31.8560   42.5080 H   0  0  0  0  0  0  0  0  0  0  0  0
   38.8950   30.0290   42.7390 C   0  0  0  0  0  3  0  0  0  0  0  0
   39.1280   28.7190   42.7250 C   0  0  0  0  0  3  0  0  0  0  0  0
   38.3650   27.7160   43.5060 C   0  0  0  0  0  0  0  0  0  0  0  0
   39.0350   26.8910   43.8240 H   0  0  0  0  0  0  0  0  0  0  0  0
   37.9280   28.2470   44.3770 H   0  0  0  0  0  0  0  0  0  0  0  0
   37.1960   27.2260   42.6900 C   0  0  2  0  0  0  0  0  0  0  0  0
   37.2200   25.8500   42.1190 C   0  0  0  0  0  0  0  0  0  0  0  0
   37.3330   27.0580   41.2340 C   0  0  1  0  0  0  0  0  0  0  0  0
   36.1850   27.4880   43.1200 H   0  0  0  0  0  0  0  0  0  0  0  0
   38.1530   25.2740   42.3140 H   0  0  0  0  0  0  0  0  0  0  0  0
   36.3190   25.2480   42.0170 H   0  0  0  0  0  0  0  0  0  0  0  0
   38.3630   27.2360   40.8110 H   0  0  0  0  0  0  0  0  0  0  0  0
   36.2700   27.5920   40.4690 N   0  0  2  0  0  0  0  0  0  0  0  0
   36.4120   27.6330   39.0600 C   0  0  0  0  0  2  0  0  0  0  0  0
   35.3040   28.5900   38.6540 C   0  0  0  0  0  2  0  0  0  0  0  0
   34.7580   29.2060   39.9200 C   0  0  0  0  0  2  0  0  0  0  0  0
   35.8710   28.9000   40.9220 C   0  0  0  0  0  3  0  0  0  0  0  0
   35.4830   28.8060   41.9570 H   0  0  0  0  0  0  0  0  0  0  0  0
  1  6  1  0  0  0  0
  2  1  2  0  0  0  0
  2  3  1  0  0  0  0
  3  4  2  0  0  0  0
  4  5  1  0  0  0  0
  5  7  1  0  0  0  0
  6  5  2  0  0  0  0
  7 12  1  0  0  0  0
  8  7  1  0  0  0  0
  8  9  1  0  0  0  0
  9 19  1  0  0  0  0
  9 10  1  0  0  0  0
 10 20  1  0  0  0  0
 11 10  1  0  0  0  0
 11 22  1  0  0  0  0
 12 23  1  6  0  0  0
 12 11  1  0  0  0  0
 12 24  1  0  0  0  0
 13  1  1  0  0  0  0
 14  2  1  0  0  0  0
 15  3  1  0  0  0  0
 16  8  1  0  0  0  0
 17  8  1  0  0  0  0
 18  9  1  0  0  0  0
 21 11  1  0  0  0  0
 24 26  1  0  0  0  0
 24 27  1  0  0  0  0
 25 24  1  0  0  0  0
 28 27  2  0  0  0  0
 28 29  1  0  0  0  0
 29 30  1  0  0  0  0
 29 31  1  0  0  0  0
 32 35  1  1  0  0  0
 32 29  1  0  0  0  0
 33 36  1  0  0  0  0
 33 32  1  0  0  0  0
 34 38  1  6  0  0  0
 34 33  1  0  0  0  0
 34 32  1  0  0  0  0
 37 33  1  0  0  0  0
 39 40  1  6  0  0  0
 39 43  1  0  0  0  0
 39 34  1  0  0  0  0
 41 40  1  0  0  0  0
 41 42  1  0  0  0  0
 42 43  1  0  0  0  0
 43 44  1  0  0  0  0
M  END
>  <minimizedAffinity>
-5.58399057

$$$$

 OpenBabel03242517333D

 44 47  0  0  1  0  0  0  0  0999 V2000
   38.0250   28.9200   37.4410 C   0  0  0  0  0  0  0  0  0  0  0  0
   39.1360   28.2350   36.8750 C   0  0  0  0  0  0  0  0  0  0  0  0
   40.4110   28.7260   37.1210 C   0  0  0  0  0  0  0  0  0  0  0  0
   40.5170   29.8390   37.8930 N   0  0  0  0  0  0  0  0  0  0  0  0
   39.4820   30.4790   38.4220 C   0  0  0  0  0  0  0  0  0  0  0  0
   38.2680   29.9910   38.1730 N   0  0  0  0  0  0  0  0  0  0  0  0
   39.6860   31.6130   39.2010 N   0  0  0  0  0  0  0  0  0  0  0  0
   40.3770   32.7610   38.6560 C   0  0  0  0  0  0  0  0  0  0  0  0
   40.8730   33.7120   39.6970 C   0  0  0  0  0  0  0  0  0  0  0  0
   40.0880   33.8340   40.8770 N   0  0  0  0  0  0  0  0  0  0  0  0
   38.8740   33.0690   40.8300 C   0  0  0  0  0  0  0  0  0  0  0  0
   39.1900   31.6290   40.5930 C   0  0  2  0  0  0  0  0  0  0  0  0
   36.9910   28.5940   37.2930 H   0  0  0  0  0  0  0  0  0  0  0  0
   38.9070   27.3660   36.2840 H   0  0  0  0  0  0  0  0  0  0  0  0
   41.2420   28.2150   36.7000 H   0  0  0  0  0  0  0  0  0  0  0  0
   41.2330   32.3820   38.0700 H   0  0  0  0  0  0  0  0  0  0  0  0
   39.6670   33.2980   37.9980 H   0  0  0  0  0  0  0  0  0  0  0  0
   41.0460   34.7040   39.2260 H   0  0  0  0  0  0  0  0  0  0  0  0
   41.8880   33.3460   40.0100 H   0  0  0  0  0  0  0  0  0  0  0  0
   40.5910   33.8610   41.7600 H   0  0  0  0  0  0  0  0  0  0  0  0
   38.3040   33.4290   39.9170 H   0  0  0  0  0  0  0  0  0  0  0  0
   38.2260   33.3040   41.6690 H   0  0  0  0  0  0  0  0  0  0  0  0
   38.2710   31.0350   40.6370 H   0  0  0  0  0  0  0  0  0  0  0  0
   40.2360   31.0980   41.5420 C   0  0  0  0  0  0  0  0  0  0  0  0
   40.7820   30.2890   41.0360 H   0  0  0  0  0  0  0  0  0  0  0  0
   40.8960   31.8640   41.9530 H   0  0  0  0  0  0  0  0  0  0  0  0
   39.4770   30.4820   42.6900 C   0  0  0  0  0  3  0  0  0  0  0  0
   38.6510   29.4600   42.4830 C   0  0  0  0  0  3  0  0  0  0  0  0
   37.8630   28.7820   43.5410 C   0  0  0  0  0  0  0  0  0  0  0  0
   38.0070   29.2990   44.5120 H   0  0  0  0  0  0  0  0  0  0  0  0
   36.8010   28.8050   43.2190 H   0  0  0  0  0  0  0  0  0  0  0  0
   38.2480   27.3260   43.6010 C   0  0  2  0  0  0  0  0  0  0  0  0
   39.6860   26.9460   43.6790 C   0  0  0  0  0  0  0  0  0  0  0  0
   38.8810   26.6820   42.4390 C   0  0  1  0  0  0  0  0  0  0  0  0
   37.6080   26.7040   44.2930 H   0  0  0  0  0  0  0  0  0  0  0  0
   40.4020   27.7970   43.6490 H   0  0  0  0  0  0  0  0  0  0  0  0
   40.0270   26.0760   44.2380 H   0  0  0  0  0  0  0  0  0  0  0  0
   39.1220   27.3590   41.5700 H   0  0  0  0  0  0  0  0  0  0  0  0
   38.3420   25.4230   42.0880 N   0  0  2  0  0  0  0  0  0  0  0  0
   39.1480   24.5360   41.3320 C   0  0  0  0  0  2  0  0  0  0  0  0
   38.1300   23.5220   40.8370 C   0  0  0  0  0  2  0  0  0  0  0  0
   36.7600   24.0620   41.1720 C   0  0  0  0  0  2  0  0  0  0  0  0
   37.0610   25.5370   41.4370 C   0  0  0  0  0  3  0  0  0  0  0  0
   36.3450   25.9840   42.1570 H   0  0  0  0  0  0  0  0  0  0  0  0
  1  6  1  0  0  0  0
  2  3  1  0  0  0  0
  2  1  2  0  0  0  0
  3  4  2  0  0  0  0
  4  5  1  0  0  0  0
  5  7  1  0  0  0  0
  6  5  2  0  0  0  0
  7 12  1  0  0  0  0
  8  7  1  0  0  0  0
  8  9  1  0  0  0  0
  9 19  1  0  0  0  0
  9 10  1  0  0  0  0
 10 20  1  0  0  0  0
 11 10  1  0  0  0  0
 11 22  1  0  0  0  0
 12 23  1  1  0  0  0
 12 11  1  0  0  0  0
 12 24  1  0  0  0  0
 13  1  1  0  0  0  0
 14  2  1  0  0  0  0
 15  3  1  0  0  0  0
 16  8  1  0  0  0  0
 17  8  1  0  0  0  0
 18  9  1  0  0  0  0
 21 11  1  0  0  0  0
 24 26  1  0  0  0  0
 24 27  1  0  0  0  0
 25 24  1  0  0  0  0
 28 27  2  0  0  0  0
 28 29  1  0  0  0  0
 29 32  1  0  0  0  0
 29 30  1  0  0  0  0
 31 29  1  0  0  0  0
 32 33  1  0  0  0  0
 32 35  1  1  0  0  0
 33 37  1  0  0  0  0
 34 38  1  6  0  0  0
 34 32  1  0  0  0  0
 34 33  1  0  0  0  0
 36 33  1  0  0  0  0
 39 40  1  6  0  0  0
 39 34  1  0  0  0  0
 41 42  1  0  0  0  0
 41 40  1  0  0  0  0
 42 43  1  0  0  0  0
 43 39  1  0  0  0  0
 43 44  1  0  0  0  0
M  END
>  <minimizedAffinity>
-5.5015111

$$$$

 OpenBabel03242517333D

 44 47  0  0  1  0  0  0  0  0999 V2000
   36.4520   25.1110   37.9870 C   0  0  0  0  0  0  0  0  0  0  0  0
   35.4370   24.1360   38.1980 C   0  0  0  0  0  0  0  0  0  0  0  0
   35.3760   23.5020   39.4330 C   0  0  0  0  0  0  0  0  0  0  0  0
   36.2970   23.8560   40.3660 N   0  0  0  0  0  0  0  0  0  0  0  0
   37.2440   24.7660   40.1710 C   0  0  0  0  0  0  0  0  0  0  0  0
   37.2840   25.3610   38.9810 N   0  0  0  0  0  0  0  0  0  0  0  0
   38.1450   25.0640   41.1880 N   0  0  0  0  0  0  0  0  0  0  0  0
   38.9760   24.0260   41.7580 C   0  0  0  0  0  0  0  0  0  0  0  0
   39.5760   24.3950   43.0760 C   0  0  0  0  0  0  0  0  0  0  0  0
   39.8980   25.7670   43.2700 N   0  0  0  0  0  0  0  0  0  0  0  0
   39.6690   26.5720   42.1030 C   0  0  0  0  0  0  0  0  0  0  0  0
   38.2420   26.4540   41.6780 C   0  0  2  0  0  0  0  0  0  0  0  0
   36.5640   25.6540   37.0440 H   0  0  0  0  0  0  0  0  0  0  0  0
   34.7740   23.9540   37.3720 H   0  0  0  0  0  0  0  0  0  0  0  0
   34.6190   22.7740   39.5920 H   0  0  0  0  0  0  0  0  0  0  0  0
   38.3420   23.1290   41.8820 H   0  0  0  0  0  0  0  0  0  0  0  0
   39.7960   23.8230   41.0430 H   0  0  0  0  0  0  0  0  0  0  0  0
   40.4580   23.7450   43.2650 H   0  0  0  0  0  0  0  0  0  0  0  0
   38.8220   24.1170   43.8620 H   0  0  0  0  0  0  0  0  0  0  0  0
   39.6590   26.1690   44.1720 H   0  0  0  0  0  0  0  0  0  0  0  0
   40.2920   26.1160   41.2720 H   0  0  0  0  0  0  0  0  0  0  0  0
   40.0680   27.5740   42.2300 H   0  0  0  0  0  0  0  0  0  0  0  0
   38.0480   27.1290   40.8380 H   0  0  0  0  0  0  0  0  0  0  0  0
   37.2750   26.6920   42.8120 C   0  0  0  0  0  0  0  0  0  0  0  0
   36.5620   25.8560   42.8390 H   0  0  0  0  0  0  0  0  0  0  0  0
   37.7530   26.8740   43.7760 H   0  0  0  0  0  0  0  0  0  0  0  0
   36.5020   27.9320   42.4410 C   0  0  0  0  0  3  0  0  0  0  0  0
   36.3530   28.2800   41.1650 C   0  0  0  0  0  3  0  0  0  0  0  0
   35.6110   29.4750   40.6950 C   0  0  0  0  0  0  0  0  0  0  0  0
   35.2280   29.3050   39.6680 H   0  0  0  0  0  0  0  0  0  0  0  0
   34.7850   29.6480   41.4160 H   0  0  0  0  0  0  0  0  0  0  0  0
   36.5010   30.6880   40.7840 C   0  0  2  0  0  0  0  0  0  0  0  0
   36.7290   31.5260   39.5740 C   0  0  0  0  0  0  0  0  0  0  0  0
   37.8280   30.6770   40.1470 C   0  0  1  0  0  0  0  0  0  0  0  0
   36.3410   31.3160   41.7090 H   0  0  0  0  0  0  0  0  0  0  0  0
   36.2360   31.1600   38.6460 H   0  0  0  0  0  0  0  0  0  0  0  0
   36.8610   32.6050   39.6310 H   0  0  0  0  0  0  0  0  0  0  0  0
   38.0770   29.7590   39.5410 H   0  0  0  0  0  0  0  0  0  0  0  0
   38.8810   31.1680   40.9530 N   0  0  2  0  0  0  0  0  0  0  0  0
   40.1180   31.4670   40.3300 C   0  0  0  0  0  2  0  0  0  0  0  0
   41.0580   31.5710   41.5200 C   0  0  0  0  0  2  0  0  0  0  0  0
   40.3020   31.0820   42.7320 C   0  0  0  0  0  2  0  0  0  0  0  0
   39.1400   30.3240   42.0920 C   0  0  0  0  0  3  0  0  0  0  0  0
   38.2370   30.3260   42.7370 H   0  0  0  0  0  0  0  0  0  0  0  0
  1  2  2  0  0  0  0
  1  6  1  0  0  0  0
  2  3  1  0  0  0  0
  3 15  1  0  0  0  0
  3  4  2  0  0  0  0
  5  4  1  0  0  0  0
  5  7  1  0  0  0  0
  6  5  2  0  0  0  0
  7 12  1  0  0  0  0
  7  8  1  0  0  0  0
  8 16  1  0  0  0  0
  8  9  1  0  0  0  0
  9 18  1  0  0  0  0
  9 10  1  0  0  0  0
  9 19  1  0  0  0  0
 10 20  1  0  0  0  0
 11 22  1  0  0  0  0
 11 10  1  0  0  0  0
 12 23  1  6  0  0  0
 12 11  1  0  0  0  0
 12 24  1  0  0  0  0
 13  1  1  0  0  0  0
 14  2  1  0  0  0  0
 17  8  1  0  0  0  0
 21 11  1  0  0  0  0
 24 25  1  0  0  0  0
 24 26  1  0  0  0  0
 27 24  1  0  0  0  0
 28 27  2  0  0  0  0
 29 32  1  0  0  0  0
 29 28  1  0  0  0  0
 29 31  1  0  0  0  0
 30 29  1  0  0  0  0
 32 35  1  1  0  0  0
 33 37  1  0  0  0  0
 33 34  1  0  0  0  0
 33 32  1  0  0  0  0
 34 38  1  6  0  0  0
 34 32  1  0  0  0  0
 34 39  1  0  0  0  0
 36 33  1  0  0  0  0
 39 40  1  6  0  0  0
 39 43  1  0  0  0  0
 40 41  1  0  0  0  0
 41 42  1  0  0  0  0
 43 42  1  0  0  0  0
 43 44  1  0  0  0  0
M  END
>  <minimizedAffinity>
-5.25275469

$$$$

 OpenBabel03242517333D

 44 47  0  0  1  0  0  0  0  0999 V2000
   39.8980   31.9250   40.4210 C   0  0  0  0  0  0  0  0  0  0  0  0
   39.2670   33.1810   40.6470 C   0  0  0  0  0  0  0  0  0  0  0  0
   37.9450   33.3380   40.2520 C   0  0  0  0  0  0  0  0  0  0  0  0
   37.3340   32.2740   39.6680 N   0  0  0  0  0  0  0  0  0  0  0  0
   37.9210   31.1020   39.4570 C   0  0  0  0  0  0  0  0  0  0  0  0
   39.1880   30.9730   39.8440 N   0  0  0  0  0  0  0  0  0  0  0  0
   37.2140   30.0670   38.8520 N   0  0  0  0  0  0  0  0  0  0  0  0
   36.6370   30.2450   37.5370 C   0  0  0  0  0  0  0  0  0  0  0  0
   35.5920   29.2320   37.2000 C   0  0  0  0  0  0  0  0  0  0  0  0
   35.7670   27.9280   37.7420 N   0  0  0  0  0  0  0  0  0  0  0  0
   36.9960   27.7780   38.4690 C   0  0  0  0  0  0  0  0  0  0  0  0
   37.0600   28.7850   39.5690 C   0  0  2  0  0  0  0  0  0  0  0  0
   40.9350   31.7240   40.7040 H   0  0  0  0  0  0  0  0  0  0  0  0
   39.8700   33.9360   41.1190 H   0  0  0  0  0  0  0  0  0  0  0  0
   37.4740   34.2740   40.4200 H   0  0  0  0  0  0  0  0  0  0  0  0
   36.1900   31.2550   37.5090 H   0  0  0  0  0  0  0  0  0  0  0  0
   37.4570   30.1650   36.7980 H   0  0  0  0  0  0  0  0  0  0  0  0
   35.4700   29.1940   36.0950 H   0  0  0  0  0  0  0  0  0  0  0  0
   34.6190   29.6290   37.5970 H   0  0  0  0  0  0  0  0  0  0  0  0
   34.9390   27.4770   38.1220 H   0  0  0  0  0  0  0  0  0  0  0  0
   37.8300   28.0380   37.7450 H   0  0  0  0  0  0  0  0  0  0  0  0
   37.1750   26.7410   38.7340 H   0  0  0  0  0  0  0  0  0  0  0  0
   37.9590   28.6190   40.1720 H   0  0  0  0  0  0  0  0  0  0  0  0
   35.8170   28.7940   40.4250 C   0  0  0  0  0  0  0  0  0  0  0  0
   35.4920   29.8370   40.5510 H   0  0  0  0  0  0  0  0  0  0  0  0
   35.0210   28.1420   40.0610 H   0  0  0  0  0  0  0  0  0  0  0  0
   36.2440   28.2870   41.7790 C   0  0  0  0  0  3  0  0  0  0  0  0
   37.3740   28.7140   42.3350 C   0  0  0  0  0  3  0  0  0  0  0  0
   37.8810   28.2820   43.6600 C   0  0  0  0  0  0  0  0  0  0  0  0
   38.5310   29.0690   44.0950 H   0  0  0  0  0  0  0  0  0  0  0  0
   36.9940   28.0850   44.2980 H   0  0  0  0  0  0  0  0  0  0  0  0
   38.5930   26.9610   43.5200 C   0  0  2  0  0  0  0  0  0  0  0  0
   40.0740   26.9010   43.6710 C   0  0  0  0  0  0  0  0  0  0  0  0
   39.4220   26.6920   42.3350 C   0  0  1  0  0  0  0  0  0  0  0  0
   38.0800   26.0980   44.0390 H   0  0  0  0  0  0  0  0  0  0  0  0
   40.5700   27.8820   43.8470 H   0  0  0  0  0  0  0  0  0  0  0  0
   40.5780   26.0430   44.1110 H   0  0  0  0  0  0  0  0  0  0  0  0
   39.5450   27.5500   41.6130 H   0  0  0  0  0  0  0  0  0  0  0  0
   39.2140   25.4290   41.7350 N   0  0  2  0  0  0  0  0  0  0  0  0
   39.5500   25.2730   40.3670 C   0  0  0  0  0  2  0  0  0  0  0  0
   38.8420   23.9770   40.0100 C   0  0  0  0  0  2  0  0  0  0  0  0
   37.9510   23.6170   41.1740 C   0  0  0  0  0  2  0  0  0  0  0  0
   37.8710   24.9440   41.9290 C   0  0  0  0  0  3  0  0  0  0  0  0
   37.7110   24.7930   43.0170 H   0  0  0  0  0  0  0  0  0  0  0  0
  1  2  1  0  0  0  0
  1 13  1  0  0  0  0
  2 14  1  0  0  0  0
  3 15  1  0  0  0  0
  3  2  2  0  0  0  0
  4  3  1  0  0  0  0
  5  4  2  0  0  0  0
  5  6  1  0  0  0  0
  6  1  2  0  0  0  0
  7  5  1  0  0  0  0
  7 12  1  0  0  0  0
  8  7  1  0  0  0  0
  9  8  1  0  0  0  0
  9 19  1  0  0  0  0
  9 10  1  0  0  0  0
 10 20  1  0  0  0  0
 10 11  1  0  0  0  0
 11 22  1  0  0  0  0
 11 12  1  0  0  0  0
 12 23  1  1  0  0  0
 12 24  1  0  0  0  0
 16  8  1  0  0  0  0
 17  8  1  0  0  0  0
 18  9  1  0  0  0  0
 21 11  1  0  0  0  0
 24 25  1  0  0  0  0
 24 27  1  0  0  0  0
 26 24  1  0  0  0  0
 27 28  2  0  0  0  0
 28 29  1  0  0  0  0
 29 30  1  0  0  0  0
 29 31  1  0  0  0  0
 32 29  1  0  0  0  0
 32 33  1  0  0  0  0
 32 35  1  1  0  0  0
 33 36  1  0  0  0  0
 33 37  1  0  0  0  0
 34 38  1  6  0  0  0
 34 32  1  0  0  0  0
 34 33  1  0  0  0  0
 39 40  1  6  0  0  0
 39 43  1  0  0  0  0
 39 34  1  0  0  0  0
 41 40  1  0  0  0  0
 41 42  1  0  0  0  0
 42 43  1  0  0  0  0
 43 44  1  0  0  0  0
M  END
>  <minimizedAffinity>
-5.25093555

$$$$

 OpenBabel03242517333D

 44 47  0  0  1  0  0  0  0  0999 V2000
   39.6840   29.8410   37.9450 C   0  0  0  0  0  0  0  0  0  0  0  0
   39.6880   31.2580   37.8170 C   0  0  0  0  0  0  0  0  0  0  0  0
   38.4950   31.8980   37.5050 C   0  0  0  0  0  0  0  0  0  0  0  0
   37.3930   31.1220   37.3390 N   0  0  0  0  0  0  0  0  0  0  0  0
   37.3860   29.8000   37.4580 C   0  0  0  0  0  0  0  0  0  0  0  0
   38.5400   29.2080   37.7590 N   0  0  0  0  0  0  0  0  0  0  0  0
   36.2060   29.0880   37.2720 N   0  0  0  0  0  0  0  0  0  0  0  0
   35.4850   29.1820   36.0210 C   0  0  0  0  0  0  0  0  0  0  0  0
   34.0710   28.7070   36.1080 C   0  0  0  0  0  0  0  0  0  0  0  0
   33.8080   27.6440   37.0160 N   0  0  0  0  0  0  0  0  0  0  0  0
   34.9920   27.1340   37.6470 C   0  0  0  0  0  0  0  0  0  0  0  0
   35.6980   28.2360   38.3660 C   0  0  2  0  0  0  0  0  0  0  0  0
   40.5810   29.2660   38.1900 H   0  0  0  0  0  0  0  0  0  0  0  0
   40.6330   31.7460   37.9750 H   0  0  0  0  0  0  0  0  0  0  0  0
   38.4970   32.9550   37.4090 H   0  0  0  0  0  0  0  0  0  0  0  0
   35.4970   30.2430   35.7130 H   0  0  0  0  0  0  0  0  0  0  0  0
   36.0200   28.5590   35.2780 H   0  0  0  0  0  0  0  0  0  0  0  0
   33.7100   28.4600   35.0860 H   0  0  0  0  0  0  0  0  0  0  0  0
   33.4560   29.5870   36.4400 H   0  0  0  0  0  0  0  0  0  0  0  0
   32.9710   27.7280   37.5870 H   0  0  0  0  0  0  0  0  0  0  0  0
   35.6820   26.8000   36.8110 H   0  0  0  0  0  0  0  0  0  0  0  0
   34.7820   26.2290   38.2090 H   0  0  0  0  0  0  0  0  0  0  0  0
   36.5570   27.8320   38.9130 H   0  0  0  0  0  0  0  0  0  0  0  0
   34.7840   29.0190   39.2760 C   0  0  0  0  0  0  0  0  0  0  0  0
   34.8300   30.0780   38.9840 H   0  0  0  0  0  0  0  0  0  0  0  0
   33.7630   28.6340   39.3200 H   0  0  0  0  0  0  0  0  0  0  0  0
   35.3790   28.9050   40.6560 C   0  0  0  0  0  3  0  0  0  0  0  0
   36.6250   29.3060   40.8910 C   0  0  0  0  0  3  0  0  0  0  0  0
   37.3010   29.2400   42.2100 C   0  0  0  0  0  0  0  0  0  0  0  0
   38.3390   29.6220   42.1240 H   0  0  0  0  0  0  0  0  0  0  0  0
   36.6980   29.8500   42.9140 H   0  0  0  0  0  0  0  0  0  0  0  0
   37.2480   27.8280   42.7320 C   0  0  2  0  0  0  0  0  0  0  0  0
   38.2950   27.3510   43.6790 C   0  0  0  0  0  0  0  0  0  0  0  0
   38.2300   26.8340   42.2710 C   0  0  1  0  0  0  0  0  0  0  0  0
   36.2160   27.4820   43.0340 H   0  0  0  0  0  0  0  0  0  0  0  0
   39.0930   28.0920   43.9120 H   0  0  0  0  0  0  0  0  0  0  0  0
   38.0790   26.6410   44.4740 H   0  0  0  0  0  0  0  0  0  0  0  0
   39.0420   27.2210   41.5900 H   0  0  0  0  0  0  0  0  0  0  0  0
   37.6850   25.5820   41.9030 N   0  0  2  0  0  0  0  0  0  0  0  0
   38.5510   24.4620   41.8530 C   0  0  0  0  0  2  0  0  0  0  0  0
   37.7260   23.4540   41.0700 C   0  0  0  0  0  2  0  0  0  0  0  0
   36.5200   24.1860   40.5290 C   0  0  0  0  0  2  0  0  0  0  0  0
   36.9540   25.6450   40.6620 C   0  0  0  0  0  3  0  0  0  0  0  0
   36.0880   26.3240   40.8040 H   0  0  0  0  0  0  0  0  0  0  0  0
  1 13  1  0  0  0  0
  2  1  1  0  0  0  0
  2 14  1  0  0  0  0
  3  2  2  0  0  0  0
  4  5  2  0  0  0  0
  4  3  1  0  0  0  0
  5  6  1  0  0  0  0
  6  1  2  0  0  0  0
  7  5  1  0  0  0  0
  7 12  1  0  0  0  0
  8  9  1  0  0  0  0
  8  7  1  0  0  0  0
  9 19  1  0  0  0  0
  9 10  1  0  0  0  0
 10 20  1  0  0  0  0
 10 11  1  0  0  0  0
 11 22  1  0  0  0  0
 11 12  1  0  0  0  0
 12 23  1  1  0  0  0
 12 24  1  0  0  0  0
 15  3  1  0  0  0  0
 16  8  1  0  0  0  0
 17  8  1  0  0  0  0
 18  9  1  0  0  0  0
 21 11  1  0  0  0  0
 24 26  1  0  0  0  0
 24 27  1  0  0  0  0
 25 24  1  0  0  0  0
 27 28  2  0  0  0  0
 28 29  1  0  0  0  0
 29 32  1  0  0  0  0
 29 31  1  0  0  0  0
 30 29  1  0  0  0  0
 32 35  1  1  0  0  0
 32 33  1  0  0  0  0
 33 36  1  0  0  0  0
 33 37  1  0  0  0  0
 34 38  1  6  0  0  0
 34 32  1  0  0  0  0
 34 33  1  0  0  0  0
 39 40  1  6  0  0  0
 39 34  1  0  0  0  0
 41 40  1  0  0  0  0
 42 43  1  0  0  0  0
 42 41  1  0  0  0  0
 43 44  1  0  0  0  0
 43 39  1  0  0  0  0
M  END
>  <minimizedAffinity>
-5.1563611

$$$$

 OpenBabel03242517333D

 44 47  0  0  1  0  0  0  0  0999 V2000
   38.3640   25.0310   38.7390 C   0  0  0  0  0  0  0  0  0  0  0  0
   37.7040   23.8530   39.1870 C   0  0  0  0  0  0  0  0  0  0  0  0
   37.0060   23.9020   40.3870 C   0  0  0  0  0  0  0  0  0  0  0  0
   36.9990   25.0820   41.0610 N   0  0  0  0  0  0  0  0  0  0  0  0
   37.6130   26.1810   40.6440 C   0  0  0  0  0  0  0  0  0  0  0  0
   38.2770   26.1130   39.4920 N   0  0  0  0  0  0  0  0  0  0  0  0
   37.5500   27.3460   41.4020 N   0  0  0  0  0  0  0  0  0  0  0  0
   38.0230   27.3560   42.7700 C   0  0  0  0  0  0  0  0  0  0  0  0
   37.5300   28.5210   43.5650 C   0  0  0  0  0  0  0  0  0  0  0  0
   37.3340   29.7400   42.8600 N   0  0  0  0  0  0  0  0  0  0  0  0
   37.7380   29.6680   41.4840 C   0  0  0  0  0  0  0  0  0  0  0  0
   36.9950   28.5720   40.7940 C   0  0  2  0  0  0  0  0  0  0  0  0
   38.9330   25.0720   37.8060 H   0  0  0  0  0  0  0  0  0  0  0  0
   37.7920   22.9890   38.5540 H   0  0  0  0  0  0  0  0  0  0  0  0
   36.5120   23.0240   40.7230 H   0  0  0  0  0  0  0  0  0  0  0  0
   37.6800   26.4180   43.2430 H   0  0  0  0  0  0  0  0  0  0  0  0
   39.1290   27.3920   42.7420 H   0  0  0  0  0  0  0  0  0  0  0  0
   38.1980   28.6670   44.4420 H   0  0  0  0  0  0  0  0  0  0  0  0
   36.5350   28.2210   43.9920 H   0  0  0  0  0  0  0  0  0  0  0  0
   36.4880   30.2610   43.0730 H   0  0  0  0  0  0  0  0  0  0  0  0
   38.8310   29.3650   41.4860 H   0  0  0  0  0  0  0  0  0  0  0  0
   37.7250   30.6480   41.0160 H   0  0  0  0  0  0  0  0  0  0  0  0
   37.2430   28.5690   39.7270 H   0  0  0  0  0  0  0  0  0  0  0  0
   35.5040   28.6510   41.0120 C   0  0  0  0  0  0  0  0  0  0  0  0
   35.1310   27.6390   41.2210 H   0  0  0  0  0  0  0  0  0  0  0  0
   35.2020   29.3800   41.7670 H   0  0  0  0  0  0  0  0  0  0  0  0
   34.9160   29.0860   39.6930 C   0  0  0  0  0  3  0  0  0  0  0  0
   35.4270   28.6440   38.5470 C   0  0  0  0  0  3  0  0  0  0  0  0
   34.9220   29.0060   37.2010 C   0  0  0  0  0  0  0  0  0  0  0  0
   35.1330   30.0760   36.9910 H   0  0  0  0  0  0  0  0  0  0  0  0
   35.4290   28.3390   36.4730 H   0  0  0  0  0  0  0  0  0  0  0  0
   33.4540   28.6810   37.1090 C   0  0  2  0  0  0  0  0  0  0  0  0
   32.9130   28.0480   35.8730 C   0  0  0  0  0  0  0  0  0  0  0  0
   32.5770   29.4680   36.2260 C   0  0  1  0  0  0  0  0  0  0  0  0
   33.0200   28.2200   38.0450 H   0  0  0  0  0  0  0  0  0  0  0  0
   33.6570   27.8890   35.0610 H   0  0  0  0  0  0  0  0  0  0  0  0
   32.0970   27.3290   35.8990 H   0  0  0  0  0  0  0  0  0  0  0  0
   33.0890   30.2450   35.5880 H   0  0  0  0  0  0  0  0  0  0  0  0
   31.3570   29.8800   36.8100 N   0  0  2  0  0  0  0  0  0  0  0  0
   30.8130   31.1280   36.4160 C   0  0  0  0  0  2  0  0  0  0  0  0
   29.7790   31.3820   37.5000 C   0  0  0  0  0  2  0  0  0  0  0  0
   29.9890   30.3420   38.5740 C   0  0  0  0  0  2  0  0  0  0  0  0
   31.3960   29.8380   38.2500 C   0  0  0  0  0  3  0  0  0  0  0  0
   31.5410   28.7830   38.5620 H   0  0  0  0  0  0  0  0  0  0  0  0
  1  2  2  0  0  0  0
  1  6  1  0  0  0  0
  2  3  1  0  0  0  0
  3 15  1  0  0  0  0
  3  4  2  0  0  0  0
  5  4  1  0  0  0  0
  5  7  1  0  0  0  0
  6  5  2  0  0  0  0
  7  8  1  0  0  0  0
  8 16  1  0  0  0  0
  8  9  1  0  0  0  0
  9 19  1  0  0  0  0
  9 18  1  0  0  0  0
 10 20  1  0  0  0  0
 10  9  1  0  0  0  0
 11 21  1  0  0  0  0
 11 10  1  0  0  0  0
 12 23  1  6  0  0  0
 12 24  1  0  0  0  0
 12  7  1  0  0  0  0
 12 11  1  0  0  0  0
 13  1  1  0  0  0  0
 14  2  1  0  0  0  0
 17  8  1  0  0  0  0
 22 11  1  0  0  0  0
 24 25  1  0  0  0  0
 24 26  1  0  0  0  0
 27 24  1  0  0  0  0
 28 27  2  0  0  0  0
 29 28  1  0  0  0  0
 30 29  1  0  0  0  0
 31 29  1  0  0  0  0
 32 29  1  0  0  0  0
 32 35  1  1  0  0  0
 33 37  1  0  0  0  0
 33 34  1  0  0  0  0
 33 32  1  0  0  0  0
 34 38  1  6  0  0  0
 34 39  1  0  0  0  0
 34 32  1  0  0  0  0
 36 33  1  0  0  0  0
 39 40  1  1  0  0  0
 39 43  1  0  0  0  0
 40 41  1  0  0  0  0
 41 42  1  0  0  0  0
 43 44  1  0  0  0  0
 43 42  1  0  0  0  0
M  END
>  <minimizedAffinity>
-5.14505625

$$$$

 OpenBabel03242517333D

 44 47  0  0  1  0  0  0  0  0999 V2000
   42.2870   31.3390   37.0230 C   0  0  0  0  0  0  0  0  0  0  0  0
   43.5810   30.8980   36.6260 C   0  0  0  0  0  0  0  0  0  0  0  0
   44.5140   30.6130   37.6130 C   0  0  0  0  0  0  0  0  0  0  0  0
   44.1300   30.7770   38.9060 N   0  0  0  0  0  0  0  0  0  0  0  0
   42.9250   31.1880   39.2780 C   0  0  0  0  0  0  0  0  0  0  0  0
   42.0450   31.4550   38.3150 N   0  0  0  0  0  0  0  0  0  0  0  0
   42.6200   31.3260   40.6290 N   0  0  0  0  0  0  0  0  0  0  0  0
   43.4030   32.2060   41.4690 C   0  0  0  0  0  0  0  0  0  0  0  0
   43.2310   31.9490   42.9310 C   0  0  0  0  0  0  0  0  0  0  0  0
   41.9500   31.4960   43.3540 N   0  0  0  0  0  0  0  0  0  0  0  0
   40.9880   31.4460   42.2890 C   0  0  0  0  0  0  0  0  0  0  0  0
   41.4890   30.5630   41.1940 C   0  0  2  0  0  0  0  0  0  0  0  0
   41.4990   31.5820   36.3050 H   0  0  0  0  0  0  0  0  0  0  0  0
   43.7490   30.8120   35.5670 H   0  0  0  0  0  0  0  0  0  0  0  0
   45.4800   30.2830   37.3190 H   0  0  0  0  0  0  0  0  0  0  0  0
   44.4640   32.0640   41.1960 H   0  0  0  0  0  0  0  0  0  0  0  0
   43.0850   33.2440   41.2550 H   0  0  0  0  0  0  0  0  0  0  0  0
   43.5430   32.8540   43.4960 H   0  0  0  0  0  0  0  0  0  0  0  0
   43.9720   31.1500   43.2070 H   0  0  0  0  0  0  0  0  0  0  0  0
   41.9340   30.7420   44.0350 H   0  0  0  0  0  0  0  0  0  0  0  0
   40.9330   32.4940   41.8580 H   0  0  0  0  0  0  0  0  0  0  0  0
   39.9890   31.2510   42.6670 H   0  0  0  0  0  0  0  0  0  0  0  0
   40.7220   30.4620   40.4180 H   0  0  0  0  0  0  0  0  0  0  0  0
   41.9470   29.2160   41.6950 C   0  0  0  0  0  0  0  0  0  0  0  0
   41.8360   28.4870   40.8790 H   0  0  0  0  0  0  0  0  0  0  0  0
   42.9500   29.2180   42.1280 H   0  0  0  0  0  0  0  0  0  0  0  0
   40.9780   28.8280   42.7830 C   0  0  0  0  0  3  0  0  0  0  0  0
   40.0940   27.8540   42.5850 C   0  0  0  0  0  3  0  0  0  0  0  0
   39.1030   27.3950   43.5890 C   0  0  0  0  0  0  0  0  0  0  0  0
   38.9740   26.2960   43.5210 H   0  0  0  0  0  0  0  0  0  0  0  0
   39.4840   27.7020   44.5850 H   0  0  0  0  0  0  0  0  0  0  0  0
   37.8070   28.1400   43.3920 C   0  0  2  0  0  0  0  0  0  0  0  0
   36.5130   27.4120   43.5130 C   0  0  0  0  0  0  0  0  0  0  0  0
   37.0010   27.9100   42.1830 C   0  0  1  0  0  0  0  0  0  0  0  0
   37.7710   29.1520   43.8920 H   0  0  0  0  0  0  0  0  0  0  0  0
   36.6020   26.3200   43.7110 H   0  0  0  0  0  0  0  0  0  0  0  0
   35.6180   27.8820   43.9160 H   0  0  0  0  0  0  0  0  0  0  0  0
   37.3730   27.1040   41.4870 H   0  0  0  0  0  0  0  0  0  0  0  0
   36.5320   29.0820   41.5470 N   0  0  2  0  0  0  0  0  0  0  0  0
   35.9640   28.9620   40.2540 C   0  0  0  0  0  2  0  0  0  0  0  0
   35.9580   30.4030   39.7720 C   0  0  0  0  0  2  0  0  0  0  0  0
   36.7560   31.2120   40.7660 C   0  0  0  0  0  2  0  0  0  0  0  0
   37.5300   30.1210   41.5070 C   0  0  0  0  0  3  0  0  0  0  0  0
   37.7660   30.4160   42.5500 H   0  0  0  0  0  0  0  0  0  0  0  0
  1  6  1  0  0  0  0
  2  1  2  0  0  0  0
  2  3  1  0  0  0  0
  3  4  2  0  0  0  0
  4  5  1  0  0  0  0
  5  7  1  0  0  0  0
  6  5  2  0  0  0  0
  7 12  1  0  0  0  0
  7  8  1  0  0  0  0
  8  9  1  0  0  0  0
  9 19  1  0  0  0  0
  9 10  1  0  0  0  0
  9 18  1  0  0  0  0
 10 20  1  0  0  0  0
 11 22  1  0  0  0  0
 11 10  1  0  0  0  0
 12 23  1  6  0  0  0
 12 24  1  0  0  0  0
 12 11  1  0  0  0  0
 13  1  1  0  0  0  0
 14  2  1  0  0  0  0
 15  3  1  0  0  0  0
 16  8  1  0  0  0  0
 17  8  1  0  0  0  0
 21 11  1  0  0  0  0
 24 26  1  0  0  0  0
 24 27  1  0  0  0  0
 25 24  1  0  0  0  0
 28 27  2  0  0  0  0
 28 29  1  0  0  0  0
 29 31  1  0  0  0  0
 30 29  1  0  0  0  0
 32 33  1  0  0  0  0
 32 29  1  0  0  0  0
 32 35  1  1  0  0  0
 33 36  1  0  0  0  0
 33 37  1  0  0  0  0
 34 38  1  6  0  0  0
 34 32  1  0  0  0  0
 34 33  1  0  0  0  0
 39 40  1  6  0  0  0
 39 34  1  0  0  0  0
 41 40  1  0  0  0  0
 41 42  1  0  0  0  0
 42 43  1  0  0  0  0
 43 39  1  0  0  0  0
 43 44  1  0  0  0  0
M  END
>  <minimizedAffinity>
-5.10322475

$$$$

 OpenBabel03242517333D

 44 47  0  0  1  0  0  0  0  0999 V2000
   39.2650   27.6500   41.7730 C   0  0  0  0  0  0  0  0  0  0  0  0
   38.3880   27.6000   42.8930 C   0  0  0  0  0  0  0  0  0  0  0  0
   37.6650   28.7400   43.2180 C   0  0  0  0  0  0  0  0  0  0  0  0
   37.8430   29.8400   42.4400 N   0  0  0  0  0  0  0  0  0  0  0  0
   38.6600   29.8880   41.3950 C   0  0  0  0  0  0  0  0  0  0  0  0
   39.3430   28.7840   41.1010 N   0  0  0  0  0  0  0  0  0  0  0  0
   38.7770   31.0600   40.6550 N   0  0  0  0  0  0  0  0  0  0  0  0
   39.1920   32.2910   41.2940 C   0  0  0  0  0  0  0  0  0  0  0  0
   38.8850   33.5140   40.4930 C   0  0  0  0  0  0  0  0  0  0  0  0
   38.9370   33.3810   39.0770 N   0  0  0  0  0  0  0  0  0  0  0  0
   39.3730   32.0830   38.6470 C   0  0  0  0  0  0  0  0  0  0  0  0
   38.4730   31.0330   39.2100 C   0  0  2  0  0  0  0  0  0  0  0  0
   39.8660   26.7950   41.4530 H   0  0  0  0  0  0  0  0  0  0  0  0
   38.3450   26.6640   43.4200 H   0  0  0  0  0  0  0  0  0  0  0  0
   37.0110   28.7040   44.0540 H   0  0  0  0  0  0  0  0  0  0  0  0
   38.6700   32.3490   42.2650 H   0  0  0  0  0  0  0  0  0  0  0  0
   40.2870   32.2360   41.4470 H   0  0  0  0  0  0  0  0  0  0  0  0
   39.5350   34.3460   40.8410 H   0  0  0  0  0  0  0  0  0  0  0  0
   37.8370   33.8190   40.7590 H   0  0  0  0  0  0  0  0  0  0  0  0
   38.1890   33.8240   38.5490 H   0  0  0  0  0  0  0  0  0  0  0  0
   40.3940   31.9170   39.1130 H   0  0  0  0  0  0  0  0  0  0  0  0
   39.5530   32.0600   37.5760 H   0  0  0  0  0  0  0  0  0  0  0  0
   38.7570   30.0510   38.8180 H   0  0  0  0  0  0  0  0  0  0  0  0
   37.0130   31.3240   38.9640 C   0  0  0  0  0  0  0  0  0  0  0  0
   36.5230   31.4810   39.9350 H   0  0  0  0  0  0  0  0  0  0  0  0
   36.8330   32.1390   38.2600 H   0  0  0  0  0  0  0  0  0  0  0  0
   36.4370   30.0650   38.3660 C   0  0  0  0  0  3  0  0  0  0  0  0
   35.9270   29.1170   39.1480 C   0  0  0  0  0  3  0  0  0  0  0  0
   35.3350   27.8470   38.6620 C   0  0  0  0  0  0  0  0  0  0  0  0
   34.5380   27.5090   39.3550 H   0  0  0  0  0  0  0  0  0  0  0  0
   34.9360   28.0440   37.6450 H   0  0  0  0  0  0  0  0  0  0  0  0
   36.4230   26.8180   38.4890 C   0  0  2  0  0  0  0  0  0  0  0  0
   36.4800   26.0070   37.2410 C   0  0  0  0  0  0  0  0  0  0  0  0
   36.0980   25.3840   38.5530 C   0  0  1  0  0  0  0  0  0  0  0  0
   37.4470   27.1650   38.8150 H   0  0  0  0  0  0  0  0  0  0  0  0
   35.6600   26.2020   36.5130 H   0  0  0  0  0  0  0  0  0  0  0  0
   37.4210   25.6850   36.7990 H   0  0  0  0  0  0  0  0  0  0  0  0
   35.0040   25.1300   38.6520 H   0  0  0  0  0  0  0  0  0  0  0  0
   36.9690   24.6110   39.3540 N   0  0  2  0  0  0  0  0  0  0  0  0
   36.9140   23.2000   39.2350 C   0  0  0  0  0  2  0  0  0  0  0  0
   37.6620   22.7440   40.4770 C   0  0  0  0  0  2  0  0  0  0  0  0
   37.8850   23.9640   41.3380 C   0  0  0  0  0  2  0  0  0  0  0  0
   36.8750   24.9500   40.7520 C   0  0  0  0  0  3  0  0  0  0  0  0
   37.2030   26.0030   40.8750 H   0  0  0  0  0  0  0  0  0  0  0  0
  1  2  1  0  0  0  0
  2  3  2  0  0  0  0
  2 14  1  0  0  0  0
  3 15  1  0  0  0  0
  4  3  1  0  0  0  0
  5  4  2  0  0  0  0
  6  5  1  0  0  0  0
  6  1  2  0  0  0  0
  7  8  1  0  0  0  0
  7  5  1  0  0  0  0
  8 17  1  0  0  0  0
  8 16  1  0  0  0  0
  9 19  1  0  0  0  0
  9 18  1  0  0  0  0
  9  8  1  0  0  0  0
 10  9  1  0  0  0  0
 11 10  1  0  0  0  0
 11 21  1  0  0  0  0
 11 12  1  0  0  0  0
 12 23  1  6  0  0  0
 12  7  1  0  0  0  0
 13  1  1  0  0  0  0
 20 10  1  0  0  0  0
 22 11  1  0  0  0  0
 24 12  1  0  0  0  0
 24 25  1  0  0  0  0
 26 24  1  0  0  0  0
 27 24  1  0  0  0  0
 27 28  2  0  0  0  0
 29 28  1  0  0  0  0
 29 30  1  0  0  0  0
 31 29  1  0  0  0  0
 32 34  1  0  0  0  0
 32 29  1  0  0  0  0
 32 35  1  1  0  0  0
 33 32  1  0  0  0  0
 33 34  1  0  0  0  0
 34 38  1  1  0  0  0
 34 39  1  0  0  0  0
 36 33  1  0  0  0  0
 37 33  1  0  0  0  0
 39 40  1  1  0  0  0
 39 43  1  0  0  0  0
 40 41  1  0  0  0  0
 41 42  1  0  0  0  0
 43 44  1  0  0  0  0
 43 42  1  0  0  0  0
M  END
>  <minimizedAffinity>
-5.09433317

$$$$

 OpenBabel03242517333D

 44 47  0  0  1  0  0  0  0  0999 V2000
   40.5310   28.6620   37.0740 C   0  0  0  0  0  0  0  0  0  0  0  0
   41.8950   29.0400   37.2140 C   0  0  0  0  0  0  0  0  0  0  0  0
   42.2000   30.1360   38.0100 C   0  0  0  0  0  0  0  0  0  0  0  0
   41.1660   30.7830   38.6090 N   0  0  0  0  0  0  0  0  0  0  0  0
   39.8930   30.4320   38.4800 C   0  0  0  0  0  0  0  0  0  0  0  0
   39.6230   29.3780   37.7130 N   0  0  0  0  0  0  0  0  0  0  0  0
   38.9000   31.1550   39.1340 N   0  0  0  0  0  0  0  0  0  0  0  0
   38.7440   32.5720   38.8880 C   0  0  0  0  0  0  0  0  0  0  0  0
   37.9370   33.2760   39.9300 C   0  0  0  0  0  0  0  0  0  0  0  0
   36.8920   32.5300   40.5410 N   0  0  0  0  0  0  0  0  0  0  0  0
   36.7270   31.2200   39.9760 C   0  0  0  0  0  0  0  0  0  0  0  0
   38.0070   30.4570   40.0810 C   0  0  2  0  0  0  0  0  0  0  0  0
   40.2110   27.8110   36.4670 H   0  0  0  0  0  0  0  0  0  0  0  0
   42.6110   28.4380   36.6830 H   0  0  0  0  0  0  0  0  0  0  0  0
   43.2180   30.4200   38.1150 H   0  0  0  0  0  0  0  0  0  0  0  0
   39.7570   33.0120   38.8500 H   0  0  0  0  0  0  0  0  0  0  0  0
   38.2370   32.6890   37.9110 H   0  0  0  0  0  0  0  0  0  0  0  0
   37.5550   34.2300   39.5060 H   0  0  0  0  0  0  0  0  0  0  0  0
   38.6530   33.5730   40.7440 H   0  0  0  0  0  0  0  0  0  0  0  0
   36.7940   32.6210   41.5490 H   0  0  0  0  0  0  0  0  0  0  0  0
   36.5320   31.3710   38.8690 H   0  0  0  0  0  0  0  0  0  0  0  0
   35.8300   30.7380   40.3500 H   0  0  0  0  0  0  0  0  0  0  0  0
   37.8590   29.4330   39.7240 H   0  0  0  0  0  0  0  0  0  0  0  0
   38.5840   30.4770   41.4760 C   0  0  0  0  0  0  0  0  0  0  0  0
   39.5960   30.9030   41.4250 H   0  0  0  0  0  0  0  0  0  0  0  0
   37.9510   30.9730   42.2140 H   0  0  0  0  0  0  0  0  0  0  0  0
   38.7220   29.0320   41.8850 C   0  0  0  0  0  3  0  0  0  0  0  0
   37.8170   28.4650   42.6770 C   0  0  0  0  0  3  0  0  0  0  0  0
   37.8580   27.0540   43.1340 C   0  0  0  0  0  0  0  0  0  0  0  0
   38.9020   26.6800   43.1190 H   0  0  0  0  0  0  0  0  0  0  0  0
   37.4300   27.0320   44.1580 H   0  0  0  0  0  0  0  0  0  0  0  0
   36.9360   26.2220   42.2810 C   0  0  2  0  0  0  0  0  0  0  0  0
   37.1160   24.7440   42.2250 C   0  0  0  0  0  0  0  0  0  0  0  0
   37.4340   25.6080   41.0390 C   0  0  1  0  0  0  0  0  0  0  0  0
   35.8470   26.5120   42.3510 H   0  0  0  0  0  0  0  0  0  0  0  0
   37.9760   24.3510   42.8120 H   0  0  0  0  0  0  0  0  0  0  0  0
   36.2760   24.0600   42.1230 H   0  0  0  0  0  0  0  0  0  0  0  0
   38.5360   25.7360   40.8320 H   0  0  0  0  0  0  0  0  0  0  0  0
   36.5910   25.7670   39.9150 N   0  0  2  0  0  0  0  0  0  0  0  0
   36.7880   24.9110   38.8030 C   0  0  0  0  0  2  0  0  0  0  0  0
   36.0070   25.6220   37.7100 C   0  0  0  0  0  2  0  0  0  0  0  0
   35.6120   26.9760   38.2500 C   0  0  0  0  0  2  0  0  0  0  0  0
   36.5600   27.1270   39.4400 C   0  0  0  0  0  3  0  0  0  0  0  0
   36.1250   27.7630   40.2380 H   0  0  0  0  0  0  0  0  0  0  0  0
  1  2  2  0  0  0  0
  1  6  1  0  0  0  0
  2  3  1  0  0  0  0
  3 15  1  0  0  0  0
  3  4  2  0  0  0  0
  5  4  1  0  0  0  0
  5  7  1  0  0  0  0
  6  5  2  0  0  0  0
  7 12  1  0  0  0  0
  8  7  1  0  0  0  0
  8  9  1  0  0  0  0
  9 10  1  0  0  0  0
  9 19  1  0  0  0  0
 10 20  1  0  0  0  0
 11 12  1  0  0  0  0
 11 22  1  0  0  0  0
 11 10  1  0  0  0  0
 12 23  1  6  0  0  0
 12 24  1  0  0  0  0
 13  1  1  0  0  0  0
 14  2  1  0  0  0  0
 16  8  1  0  0  0  0
 17  8  1  0  0  0  0
 18  9  1  0  0  0  0
 21 11  1  0  0  0  0
 24 27  1  0  0  0  0
 24 26  1  0  0  0  0
 25 24  1  0  0  0  0
 27 28  2  0  0  0  0
 28 29  1  0  0  0  0
 29 31  1  0  0  0  0
 30 29  1  0  0  0  0
 32 35  1  6  0  0  0
 32 29  1  0  0  0  0
 33 32  1  0  0  0  0
 33 36  1  0  0  0  0
 34 38  1  6  0  0  0
 34 33  1  0  0  0  0
 34 32  1  0  0  0  0
 37 33  1  0  0  0  0
 39 40  1  6  0  0  0
 39 34  1  0  0  0  0
 41 42  1  0  0  0  0
 41 40  1  0  0  0  0
 42 43  1  0  0  0  0
 43 39  1  0  0  0  0
 43 44  1  0  0  0  0
M  END
>  <minimizedAffinity>
-5.07646179

$$$$
