
 OpenBabel03252509353D

 41 43  0  0  1  0  0  0  0  0999 V2000
   44.5220   35.4730   44.1030 O   0  0  0  0  0  0  0  0  0  0  0  0
   45.3770   34.2490   44.3680 P   0  0  1  0  0  0  0  0  0  0  0  0
   44.6980   32.8620   43.6700 O   0  0  0  0  0  0  0  0  0  0  0  0
   44.3500   33.1620   42.7850 H   0  0  0  0  0  0  0  0  0  0  0  0
   46.8910   34.5300   43.7200 O   0  0  0  0  0  0  0  0  0  0  0  0
   47.0230   33.8350   42.5130 C   0  0  1  0  0  0  0  0  0  0  0  0
   46.4400   34.6660   41.3660 C   0  0  0  0  0  0  0  0  0  0  0  0
   46.9560   33.9060   40.1750 C   0  0  0  0  0  0  0  0  0  0  0  0
   48.2330   33.2300   40.6290 C   0  0  0  0  0  0  0  0  0  0  0  0
   48.4420   33.6990   42.0550 C   0  0  1  0  0  0  0  0  0  0  0  0
   46.5020   32.8810   42.5080 H   0  0  0  0  0  0  0  0  0  0  0  0
   46.7020   35.7170   41.4050 H   0  0  0  0  0  0  0  0  0  0  0  0
   45.3220   34.5850   41.4020 H   0  0  0  0  0  0  0  0  0  0  0  0
   47.2610   34.6130   39.3710 H   0  0  0  0  0  0  0  0  0  0  0  0
   46.1910   33.1870   39.8350 H   0  0  0  0  0  0  0  0  0  0  0  0
   49.1020   33.4500   39.9840 H   0  0  0  0  0  0  0  0  0  0  0  0
   48.0020   32.1390   40.6930 H   0  0  0  0  0  0  0  0  0  0  0  0
   48.9350   32.9030   42.6710 H   0  0  0  0  0  0  0  0  0  0  0  0
   49.2030   35.0000   42.1170 C   0  0  0  0  0  0  0  0  0  0  0  0
   48.5150   35.8910   42.1980 H   0  0  0  0  0  0  0  0  0  0  0  0
   49.7910   35.1460   41.1860 H   0  0  0  0  0  0  0  0  0  0  0  0
   50.0120   35.0730   43.2290 O   0  0  0  0  0  0  0  0  0  0  0  0
   50.5620   34.2940   43.4200 H   0  0  0  0  0  0  0  0  0  0  0  0
   45.4790   33.9520   46.0050 O   0  0  0  0  0  0  0  0  0  0  0  0
   46.4210   32.9960   46.2260 C   0  0  0  0  0  0  0  0  0  0  0  0
   46.8510   32.4860   45.3710 H   0  0  0  0  0  0  0  0  0  0  0  0
   47.2910   33.5380   46.7060 H   0  0  0  0  0  0  0  0  0  0  0  0
   45.2870   31.4790   49.4260 C   0  0  0  0  0  0  0  0  0  0  0  0
   45.6780   32.4410   48.4950 C   0  0  0  0  0  0  0  0  0  0  0  0
   46.0020   31.9920   47.2170 C   0  0  0  0  0  0  0  0  0  0  0  0
   45.9210   30.6590   46.9460 N   0  0  0  0  0  0  0  0  0  0  0  0
   45.5390   29.7480   47.8660 C   0  0  0  0  0  0  0  0  0  0  0  0
   45.2270   30.1590   49.0870 N   0  0  0  0  0  0  0  0  0  0  0  0
   45.0340   31.8130   50.4150 H   0  0  0  0  0  0  0  0  0  0  0  0
   45.7150   33.4820   48.7990 H   0  0  0  0  0  0  0  0  0  0  0  0
   45.4730   28.3680   47.5260 N   0  0  0  0  0  0  0  0  0  0  0  0
   44.5990   27.3400   48.0570 C   0  0  0  0  0  2  0  0  0  0  0  0
   44.4250   26.3350   46.9200 C   0  0  0  0  0  2  0  0  0  0  0  0
   45.2640   26.8940   45.7830 C   0  0  0  0  0  2  0  0  0  0  0  0
   46.2990   27.6940   46.5450 C   0  0  0  0  0  3  0  0  0  0  0  0
   46.8250   28.4010   45.8700 H   0  0  0  0  0  0  0  0  0  0  0  0
  2  1  2  6  0  0  0
  2 24  1  0  0  0  0
  3  2  1  0  0  0  0
  4  3  1  0  0  0  0
  5  2  1  0  0  0  0
  6 11  1  1  0  0  0
  6  5  1  0  0  0  0
  7 13  1  0  0  0  0
  7 12  1  0  0  0  0
  7  6  1  0  0  0  0
  8  9  1  0  0  0  0
  8  7  1  0  0  0  0
  9 17  1  0  0  0  0
  9 10  1  0  0  0  0
 10 19  1  0  0  0  0
 10  6  1  0  0  0  0
 10 18  1  1  0  0  0
 14  8  1  0  0  0  0
 15  8  1  0  0  0  0
 16  9  1  0  0  0  0
 19 20  1  0  0  0  0
 19 22  1  0  0  0  0
 21 19  1  0  0  0  0
 22 23  1  0  0  0  0
 24 25  1  0  0  0  0
 25 27  1  0  0  0  0
 25 30  1  0  0  0  0
 26 25  1  0  0  0  0
 28 34  1  0  0  0  0
 29 35  1  0  0  0  0
 29 28  2  0  0  0  0
 30 29  1  0  0  0  0
 31 30  2  0  0  0  0
 31 32  1  0  0  0  0
 32 33  2  0  0  0  0
 33 28  1  0  0  0  0
 36 32  1  0  0  0  0
 36 37  1  0  0  0  0
 38 37  1  0  0  0  0
 39 40  1  0  0  0  0
 39 38  1  0  0  0  0
 40 36  1  0  0  0  0
 41 40  1  0  0  0  0
M  END
>  <minimizedAffinity>
-6.01713467

>  <minimizedRMSD>
1.01301003

$$$$
