
 OpenBabel03252501003D

 22 24  0  0  1  0  0  0  0  0999 V2000
   47.5940   35.1120   41.4250 C   0  0  1  0  0  0  0  0  0  0  0  0
   48.9390   35.7530   41.6780 C   0  0  0  0  0  0  0  0  0  0  0  0
   48.7860   34.3210   41.1430 C   0  0  1  0  0  0  0  0  0  0  0  0
   46.9780   35.5920   40.6220 H   0  0  0  0  0  0  0  0  0  0  0  0
   49.2240   35.9640   42.6940 H   0  0  0  0  0  0  0  0  0  0  0  0
   49.2270   36.5160   40.9120 H   0  0  0  0  0  0  0  0  0  0  0  0
   49.0100   34.2400   40.0230 H   0  0  0  0  0  0  0  0  0  0  0  0
   44.9830   35.1580   44.1460 C   0  0  0  0  0  0  0  0  0  0  0  0
   45.6340   35.5150   42.9530 C   0  0  0  0  0  0  0  0  0  0  0  0
   46.8130   34.8380   42.6770 C   0  0  0  0  0  0  0  0  0  0  0  0
   47.2750   33.8980   43.5280 N   0  0  0  0  0  0  0  0  0  0  0  0
   46.6240   33.5680   44.6810 C   0  0  0  0  0  0  0  0  0  0  0  0
   45.4770   34.2100   44.9740 N   0  0  0  0  0  0  0  0  0  0  0  0
   44.0570   35.6700   44.3920 H   0  0  0  0  0  0  0  0  0  0  0  0
   45.2540   36.2700   42.2800 H   0  0  0  0  0  0  0  0  0  0  0  0
   46.9850   32.8160   45.3680 H   0  0  0  0  0  0  0  0  0  0  0  0
   49.2970   33.2350   41.8720 N   0  0  2  0  0  0  0  0  0  0  0  0
   50.6550   33.1740   42.2340 C   0  0  0  0  0  0  0  0  0  0  0  0
   51.3130   32.0940   41.3780 C   0  0  0  0  0  0  0  0  0  0  0  0
   50.2350   31.7530   40.3740 C   0  0  0  0  0  0  0  0  0  0  0  0
   48.9740   31.9590   41.2230 C   0  0  0  0  0  0  0  0  0  0  0  0
   48.9880   31.1450   41.9690 H   0  0  0  0  0  0  0  0  0  0  0  0
  1  4  1  6  0  0  0
  1  2  1  0  0  0  0
  1 10  1  0  0  0  0
  2  5  1  0  0  0  0
  3  7  1  6  0  0  0
  3  1  1  0  0  0  0
  3  2  1  0  0  0  0
  3 17  1  0  0  0  0
  6  2  1  0  0  0  0
  8 14  1  0  0  0  0
  8 13  1  0  0  0  0
  9  8  2  0  0  0  0
 10  9  1  0  0  0  0
 10 11  2  0  0  0  0
 11 12  1  0  0  0  0
 12 13  2  0  0  0  0
 12 16  1  0  0  0  0
 15  9  1  0  0  0  0
 17 18  1  6  0  0  0
 19 18  1  0  0  0  0
 20 21  1  0  0  0  0
 20 19  1  0  0  0  0
 21 17  1  0  0  0  0
 21 22  1  0  0  0  0
M  END
>  <minimizedAffinity>
-4.50122118

>  <minimizedRMSD>
1.35981297

$$$$
