
 OpenBabel03252502593D

 19 20  0  0  0  0  0  0  0  0999 V2000
   43.8580   35.0960   41.2490 S   0  0  0  0  0  0  0  0  0  0  0  0
   44.2420   35.7780   43.9160 C   0  0  0  0  0  0  0  0  0  0  0  0
   44.4180   34.7940   42.9370 C   0  0  0  0  0  0  0  0  0  0  0  0
   45.0230   33.5710   43.2410 C   0  0  0  0  0  0  0  0  0  0  0  0
   45.4260   33.4030   44.5400 N   0  0  0  0  0  0  0  0  0  0  0  0
   45.2420   34.3640   45.4460 C   0  0  0  0  0  0  0  0  0  0  0  0
   44.6700   35.5330   45.1850 N   0  0  0  0  0  0  0  0  0  0  0  0
   43.7630   36.6870   43.5740 H   0  0  0  0  0  0  0  0  0  0  0  0
   45.1540   32.8180   42.4760 H   0  0  0  0  0  0  0  0  0  0  0  0
   45.5660   34.2200   46.4750 H   0  0  0  0  0  0  0  0  0  0  0  0
   42.1070   34.7490   41.1150 C   0  0  0  0  0  0  0  0  0  0  0  0
   41.6180   34.8140   42.0880 H   0  0  0  0  0  0  0  0  0  0  0  0
   41.9990   33.7240   40.6620 H   0  0  0  0  0  0  0  0  0  0  0  0
   41.5230   35.7010   40.1630 N   0  0  0  0  0  0  0  0  0  0  0  0
   40.1520   35.9590   40.5540 C   0  0  0  0  0  0  0  0  0  0  0  0
   39.4190   34.7740   39.9840 C   0  0  0  0  0  0  0  0  0  0  0  0
   40.0240   34.7080   38.5910 C   0  0  0  0  0  0  0  0  0  0  0  0
   41.4450   35.1440   38.8280 C   0  0  0  0  0  0  0  0  0  0  0  0
   41.7530   35.8820   38.0420 H   0  0  0  0  0  0  0  0  0  0  0  0
  1  3  1  0  0  0  0
  2  7  1  0  0  0  0
  3  4  1  0  0  0  0
  3  2  2  0  0  0  0
  4  5  2  0  0  0  0
  5  6  1  0  0  0  0
  6 10  1  0  0  0  0
  7  6  2  0  0  0  0
  8  2  1  0  0  0  0
  9  4  1  0  0  0  0
 11  1  1  0  0  0  0
 11 12  1  0  0  0  0
 13 11  1  0  0  0  0
 14 15  1  0  0  0  0
 14 11  1  0  0  0  0
 16 15  1  0  0  0  0
 17 18  1  0  0  0  0
 17 16  1  0  0  0  0
 18 14  1  0  0  0  0
 19 18  1  0  0  0  0
M  END
>  <minimizedAffinity>
-4.09698105

>  <minimizedRMSD>
2.55412388

$$$$
