
 OpenBabel03242521223D

 39 42  0  0  0  0  0  0  0  0999 V2000
   45.3640   33.7540   45.5950 C   0  0  0  0  0  0  0  0  0  0  0  0
   44.8310   34.9690   45.8560 C   0  0  0  0  0  0  0  0  0  0  0  0
   44.3960   35.8400   44.8850 C   0  0  0  0  0  0  0  0  0  0  0  0
   44.5270   35.4200   43.6120 N   0  0  0  0  0  0  0  0  0  0  0  0
   45.0580   34.2070   43.3440 C   0  0  0  0  0  0  0  0  0  0  0  0
   45.4820   33.3590   44.3000 N   0  0  0  0  0  0  0  0  0  0  0  0
   44.7260   35.3080   46.8820 H   0  0  0  0  0  0  0  0  0  0  0  0
   43.9710   36.8130   45.1180 H   0  0  0  0  0  0  0  0  0  0  0  0
   45.6240   32.1130   48.8560 C   0  0  0  0  0  0  0  0  0  0  0  0
   46.6420   31.1820   48.6310 C   0  0  0  0  0  0  0  0  0  0  0  0
   47.2470   31.1000   47.3820 C   0  0  0  0  0  0  0  0  0  0  0  0
   46.8060   31.9580   46.4020 N   0  0  0  0  0  0  0  0  0  0  0  0
   45.8150   32.8520   46.6510 C   0  0  0  0  0  0  0  0  0  0  0  0
   45.2400   32.9200   47.8620 N   0  0  0  0  0  0  0  0  0  0  0  0
   45.1980   32.1220   49.8510 H   0  0  0  0  0  0  0  0  0  0  0  0
   47.0070   30.4950   49.3840 H   0  0  0  0  0  0  0  0  0  0  0  0
   48.2800   30.1940   47.0620 N   0  0  0  0  0  0  0  0  0  0  0  0
   49.3120   29.6190   47.9050 C   0  0  0  0  0  0  0  0  0  0  0  0
   49.4170   28.2230   47.2920 C   0  0  0  0  0  0  0  0  0  0  0  0
   49.5500   28.6290   45.8210 C   0  0  0  0  0  0  0  0  0  0  0  0
   48.4550   29.6660   45.7020 C   0  0  0  0  0  0  0  0  0  0  0  0
   47.5140   29.2070   45.3700 H   0  0  0  0  0  0  0  0  0  0  0  0
   45.1930   33.7650   41.9380 C   0  0  0  0  0  0  0  0  0  0  0  0
   44.1990   32.9890   41.3730 C   0  0  0  0  0  0  0  0  0  0  0  0
   44.2250   32.5210   40.0650 C   0  0  0  0  0  0  0  0  0  0  0  0
   45.3330   32.8720   39.3050 C   0  0  0  0  0  0  0  0  0  0  0  0
   46.3080   33.6350   39.8660 C   0  0  0  0  0  0  0  0  0  0  0  0
   46.2800   34.0980   41.1630 C   0  0  0  0  0  0  0  0  0  0  0  0
   43.3370   32.7230   41.9860 H   0  0  0  0  0  0  0  0  0  0  0  0
   43.4140   31.9160   39.6820 H   0  0  0  0  0  0  0  0  0  0  0  0
   45.4150   32.5400   38.2810 H   0  0  0  0  0  0  0  0  0  0  0  0
   47.2010   33.9380   39.3070 H   0  0  0  0  0  0  0  0  0  0  0  0
   47.2520   34.8680   41.7450 O   0  0  0  0  0  0  0  0  0  0  0  0
   49.6660   35.5320   42.4860 O   0  0  0  0  0  0  0  0  0  0  0  0
   48.8980   34.8830   41.3380 P   0  0  0  0  0  0  0  0  0  0  0  0
   49.5290   33.3750   40.9680 O   0  0  0  0  0  0  0  0  0  0  0  0
   49.1060   32.6930   41.5150 H   0  0  0  0  0  0  0  0  0  0  0  0
   49.1100   35.8830   39.9950 O   0  0  0  0  0  0  0  0  0  0  0  0
   49.0650   36.8420   40.2290 H   0  0  0  0  0  0  0  0  0  0  0  0
  1  2  1  0  0  0  0
  1 13  1  0  0  0  0
  2  7  1  0  0  0  0
  3  8  1  0  0  0  0
  3  2  2  0  0  0  0
  4  3  1  0  0  0  0
  5  4  2  0  0  0  0
  5  6  1  0  0  0  0
  6  1  2  0  0  0  0
  9 15  1  0  0  0  0
 10  9  1  0  0  0  0
 10 16  1  0  0  0  0
 11 10  2  0  0  0  0
 12 13  2  0  0  0  0
 12 11  1  0  0  0  0
 13 14  1  0  0  0  0
 14  9  2  0  0  0  0
 17 11  1  0  0  0  0
 17 18  1  0  0  0  0
 19 18  1  0  0  0  0
 20 19  1  0  0  0  0
 21 20  1  0  0  0  0
 21 17  1  0  0  0  0
 22 21  1  0  0  0  0
 23  5  1  0  0  0  0
 24 23  1  0  0  0  0
 24 29  1  0  0  0  0
 25 24  2  0  0  0  0
 26 27  2  0  0  0  0
 26 25  1  0  0  0  0
 27 28  1  0  0  0  0
 28 33  1  0  0  0  0
 28 23  2  0  0  0  0
 30 25  1  0  0  0  0
 31 26  1  0  0  0  0
 32 27  1  0  0  0  0
 35 33  1  0  0  0  0
 35 34  2  0  0  0  0
 36 35  1  0  0  0  0
 36 37  1  0  0  0  0
 38 39  1  0  0  0  0
 38 35  1  0  0  0  0
M  END
>  <minimizedAffinity>
-6.59055567

>  <minimizedRMSD>
0.463532239

$$$$
