
 OpenBabel03252507533D

 35 38  0  0  1  0  0  0  0  0999 V2000
   43.7150   34.3730   39.6260 C   0  0  2  0  0  0  0  0  0  0  0  0
   44.4240   33.1300   39.1440 C   0  0  0  0  0  0  0  0  0  0  0  0
   45.7420   33.2930   39.9130 C   0  0  0  0  0  0  0  0  0  0  0  0
   45.3550   33.9440   41.2210 C   0  0  1  0  0  0  0  0  0  0  0  0
   43.8750   34.1410   41.1210 C   0  0  0  0  0  0  0  0  0  0  0  0
   44.2660   35.2290   39.2460 H   0  0  0  0  0  0  0  0  0  0  0  0
   43.9130   32.2000   39.3980 H   0  0  0  0  0  0  0  0  0  0  0  0
   44.6450   33.2380   38.0680 H   0  0  0  0  0  0  0  0  0  0  0  0
   46.1300   32.2850   40.1670 H   0  0  0  0  0  0  0  0  0  0  0  0
   46.4470   33.8970   39.3150 H   0  0  0  0  0  0  0  0  0  0  0  0
   45.8390   34.9160   41.2910 H   0  0  0  0  0  0  0  0  0  0  0  0
   43.4420   34.9290   41.7260 H   0  0  0  0  0  0  0  0  0  0  0  0
   43.3030   33.1750   41.1680 H   0  0  0  0  0  0  0  0  0  0  0  0
   40.4380   35.2000   37.9540 C   0  0  0  0  0  0  0  0  0  0  0  0
   41.8130   35.2270   38.2200 C   0  0  0  0  0  0  0  0  0  0  0  0
   42.2780   34.4080   39.2530 C   0  0  0  0  0  0  0  0  0  0  0  0
   41.3960   33.6230   39.9560 N   0  0  0  0  0  0  0  0  0  0  0  0
   40.0690   33.6370   39.6550 C   0  0  0  0  0  0  0  0  0  0  0  0
   39.6140   34.4280   38.6550 N   0  0  0  0  0  0  0  0  0  0  0  0
   40.0950   35.8410   37.1480 H   0  0  0  0  0  0  0  0  0  0  0  0
   42.5360   35.8350   37.6850 H   0  0  0  0  0  0  0  0  0  0  0  0
   39.3710   33.0170   40.2100 H   0  0  0  0  0  0  0  0  0  0  0  0
   45.5830   33.0770   42.4140 C   0  0  2  0  0  0  0  0  0  0  0  0
   45.2110   33.5930   43.7300 C   0  0  0  0  0  0  0  0  0  0  0  0
   46.6490   33.2570   43.3800 C   0  0  2  0  0  0  0  0  0  0  0  0
   45.2770   32.0220   42.1930 H   0  0  0  0  0  0  0  0  0  0  0  0
   45.1940   34.5540   44.1780 H   0  0  0  0  0  0  0  0  0  0  0  0
   44.7290   32.8480   44.4390 H   0  0  0  0  0  0  0  0  0  0  0  0
   47.0820   32.3240   43.8520 H   0  0  0  0  0  0  0  0  0  0  0  0
   47.6540   34.2800   43.2690 N   0  0  1  0  0  0  0  0  0  0  0  0
   48.9210   33.6420   42.9750 C   0  0  0  0  0  0  0  0  0  0  0  0
   49.6970   34.5960   42.1170 C   0  0  0  0  0  0  0  0  0  0  0  0
   48.6710   35.4940   41.5150 C   0  0  0  0  0  0  0  0  0  0  0  0
   47.4130   35.2720   42.2790 C   0  0  0  0  0  0  0  0  0  0  0  0
   46.5450   35.0170   41.6350 H   0  0  0  0  0  0  0  0  0  0  0  0
  1  6  1  6  0  0  0
  1  5  1  0  0  0  0
  2  7  1  0  0  0  0
  2  1  1  0  0  0  0
  2  3  1  0  0  0  0
  3  9  1  0  0  0  0
  3  4  1  0  0  0  0
  4 11  1  1  0  0  0
  4 23  1  0  0  0  0
  5 13  1  0  0  0  0
  5  4  1  0  0  0  0
  5 12  1  0  0  0  0
  8  2  1  0  0  0  0
 10  3  1  0  0  0  0
 14 15  2  0  0  0  0
 14 19  1  0  0  0  0
 15 16  1  0  0  0  0
 16  1  1  0  0  0  0
 16 17  2  0  0  0  0
 18 17  1  0  0  0  0
 18 22  1  0  0  0  0
 19 18  2  0  0  0  0
 20 14  1  0  0  0  0
 21 15  1  0  0  0  0
 23 26  1  6  0  0  0
 23 25  1  0  0  0  0
 23 24  1  0  0  0  0
 24 27  1  0  0  0  0
 24 28  1  0  0  0  0
 25 24  1  0  0  0  0
 25 29  1  1  0  0  0
 30 31  1  6  0  0  0
 30 25  1  0  0  0  0
 32 31  1  0  0  0  0
 33 32  1  0  0  0  0
 33 34  1  0  0  0  0
 34 30  1  0  0  0  0
 35 34  1  0  0  0  0
M  END
>  <minimizedAffinity>
-4.73563528

>  <minimizedRMSD>
5.08562708

$$$$
