
 OpenBabel03242521103D

 16 17  0  0  1  0  0  0  0  0999 V2000
   44.5010   35.8580   44.5480 C   0  0  0  0  0  0  0  0  0  0  0  0
   45.1550   35.8740   43.2810 C   0  0  0  0  0  0  0  0  0  0  0  0
   46.1600   34.9190   43.0420 C   0  0  0  0  0  0  0  0  0  0  0  0
   46.4630   34.0300   44.0210 N   0  0  0  0  0  0  0  0  0  0  0  0
   45.8140   34.0450   45.2250 C   0  0  0  0  0  0  0  0  0  0  0  0
   44.8520   34.9490   45.4730 N   0  0  0  0  0  0  0  0  0  0  0  0
   43.7190   36.5630   44.7950 H   0  0  0  0  0  0  0  0  0  0  0  0
   44.8550   36.6190   42.5460 H   0  0  0  0  0  0  0  0  0  0  0  0
   46.6620   34.9260   42.0810 H   0  0  0  0  0  0  0  0  0  0  0  0
   46.4200   32.7720   46.3080 S   0  0  0  0  0  0  0  0  0  0  0  0
   43.6800   31.0220   47.6480 H   0  0  0  0  0  0  0  0  0  0  0  0
   44.6950   31.0110   47.3850 N   0  0  0  0  0  0  0  0  0  0  0  0
   45.3830   30.1520   48.3620 C   0  0  0  0  0  0  0  0  0  0  0  0
   45.3620   31.0850   49.5800 C   0  0  0  0  0  0  0  0  0  0  0  0
   45.9800   32.3220   48.9160 C   0  0  0  0  0  0  0  0  0  0  0  0
   45.2530   32.3280   47.5910 C   0  0  1  0  0  0  0  0  0  0  0  0
  1  7  1  0  0  0  0
  1  6  1  0  0  0  0
  2  1  2  0  0  0  0
  3  2  1  0  0  0  0
  3  4  2  0  0  0  0
  4  5  1  0  0  0  0
  5  6  2  0  0  0  0
  5 10  1  0  0  0  0
  8  2  1  0  0  0  0
  9  3  1  0  0  0  0
 12 16  1  0  0  0  0
 12 11  1  0  0  0  0
 12 13  1  0  0  0  0
 13 14  1  0  0  0  0
 15 14  1  0  0  0  0
 16 10  1  6  0  0  0
 16 15  1  0  0  0  0
M  END
>  <minimizedAffinity>
-4.67611504

>  <minimizedRMSD>
1.14445734

$$$$
