
 OpenBabel03252509353D

 41 43  0  0  1  0  0  0  0  0999 V2000
   44.5220   35.4800   44.0470 O   0  0  0  0  0  0  0  0  0  0  0  0
   45.3720   34.2630   44.3560 P   0  0  1  0  0  0  0  0  0  0  0  0
   44.7020   32.8590   43.6840 O   0  0  0  0  0  0  0  0  0  0  0  0
   44.3660   33.1350   42.7870 H   0  0  0  0  0  0  0  0  0  0  0  0
   46.8950   34.5260   43.7220 O   0  0  0  0  0  0  0  0  0  0  0  0
   47.0290   33.8330   42.5140 C   0  0  1  0  0  0  0  0  0  0  0  0
   46.4460   34.6650   41.3680 C   0  0  0  0  0  0  0  0  0  0  0  0
   46.9640   33.9070   40.1770 C   0  0  0  0  0  0  0  0  0  0  0  0
   48.2420   33.2320   40.6310 C   0  0  0  0  0  0  0  0  0  0  0  0
   48.4480   33.6990   42.0580 C   0  0  1  0  0  0  0  0  0  0  0  0
   46.5090   32.8780   42.5070 H   0  0  0  0  0  0  0  0  0  0  0  0
   46.7060   35.7160   41.4090 H   0  0  0  0  0  0  0  0  0  0  0  0
   45.3280   34.5820   41.4030 H   0  0  0  0  0  0  0  0  0  0  0  0
   47.2690   34.6150   39.3740 H   0  0  0  0  0  0  0  0  0  0  0  0
   46.2000   33.1880   39.8350 H   0  0  0  0  0  0  0  0  0  0  0  0
   49.1110   33.4540   39.9860 H   0  0  0  0  0  0  0  0  0  0  0  0
   48.0120   32.1410   40.6930 H   0  0  0  0  0  0  0  0  0  0  0  0
   48.9420   32.9030   42.6730 H   0  0  0  0  0  0  0  0  0  0  0  0
   49.2080   35.0010   42.1220 C   0  0  0  0  0  0  0  0  0  0  0  0
   48.5190   35.8910   42.2070 H   0  0  0  0  0  0  0  0  0  0  0  0
   49.7940   35.1510   41.1910 H   0  0  0  0  0  0  0  0  0  0  0  0
   50.0180   35.0720   43.2320 O   0  0  0  0  0  0  0  0  0  0  0  0
   50.5700   34.2940   43.4210 H   0  0  0  0  0  0  0  0  0  0  0  0
   45.4510   34.0080   46.0010 O   0  0  0  0  0  0  0  0  0  0  0  0
   46.4210   33.0910   46.2640 C   0  0  0  0  0  0  0  0  0  0  0  0
   46.9450   32.6400   45.4290 H   0  0  0  0  0  0  0  0  0  0  0  0
   47.2180   33.6550   46.8350 H   0  0  0  0  0  0  0  0  0  0  0  0
   45.1830   31.3770   49.3230 C   0  0  0  0  0  0  0  0  0  0  0  0
   45.5990   32.3960   48.4660 C   0  0  0  0  0  0  0  0  0  0  0  0
   45.9750   32.0270   47.1780 C   0  0  0  0  0  0  0  0  0  0  0  0
   45.9190   30.7110   46.8250 N   0  0  0  0  0  0  0  0  0  0  0  0
   45.5130   29.7440   47.6740 C   0  0  0  0  0  0  0  0  0  0  0  0
   45.1510   30.0800   48.9050 N   0  0  0  0  0  0  0  0  0  0  0  0
   44.8910   31.6500   50.3200 H   0  0  0  0  0  0  0  0  0  0  0  0
   45.6130   33.4170   48.8330 H   0  0  0  0  0  0  0  0  0  0  0  0
   45.4740   28.3860   47.2520 N   0  0  0  0  0  0  0  0  0  0  0  0
   44.3260   27.5710   46.9060 C   0  0  0  0  0  2  0  0  0  0  0  0
   44.8460   26.5610   45.8850 C   0  0  0  0  0  2  0  0  0  0  0  0
   46.3210   26.8920   45.7340 C   0  0  0  0  0  2  0  0  0  0  0  0
   46.6220   27.5190   47.0790 C   0  0  0  0  0  3  0  0  0  0  0  0
   47.5800   28.0760   47.0480 H   0  0  0  0  0  0  0  0  0  0  0  0
  2  1  2  6  0  0  0
  2 24  1  0  0  0  0
  3  2  1  0  0  0  0
  4  3  1  0  0  0  0
  5  2  1  0  0  0  0
  6 11  1  1  0  0  0
  6  5  1  0  0  0  0
  7 13  1  0  0  0  0
  7 12  1  0  0  0  0
  7  6  1  0  0  0  0
  8  9  1  0  0  0  0
  8  7  1  0  0  0  0
  9 17  1  0  0  0  0
  9 10  1  0  0  0  0
 10 19  1  0  0  0  0
 10  6  1  0  0  0  0
 10 18  1  1  0  0  0
 14  8  1  0  0  0  0
 15  8  1  0  0  0  0
 16  9  1  0  0  0  0
 19 20  1  0  0  0  0
 19 22  1  0  0  0  0
 21 19  1  0  0  0  0
 22 23  1  0  0  0  0
 24 25  1  0  0  0  0
 25 27  1  0  0  0  0
 25 30  1  0  0  0  0
 26 25  1  0  0  0  0
 28 34  1  0  0  0  0
 29 35  1  0  0  0  0
 29 28  2  0  0  0  0
 30 29  1  0  0  0  0
 31 30  2  0  0  0  0
 31 32  1  0  0  0  0
 32 33  2  0  0  0  0
 33 28  1  0  0  0  0
 36 32  1  0  0  0  0
 37 36  1  0  0  0  0
 38 37  1  0  0  0  0
 39 38  1  0  0  0  0
 39 40  1  0  0  0  0
 40 36  1  0  0  0  0
 41 40  1  0  0  0  0
M  END
>  <minimizedAffinity>
-5.97526693

>  <minimizedRMSD>
1.13211119

$$$$
