
 OpenBabel03252509353D

 41 43  0  0  1  0  0  0  0  0999 V2000
   44.5300   35.4640   44.0850 O   0  0  0  0  0  0  0  0  0  0  0  0
   45.3880   34.2460   44.3690 P   0  0  1  0  0  0  0  0  0  0  0  0
   44.7140   32.8480   43.6890 O   0  0  0  0  0  0  0  0  0  0  0  0
   44.3670   33.1340   42.8000 H   0  0  0  0  0  0  0  0  0  0  0  0
   46.9020   34.5220   43.7210 O   0  0  0  0  0  0  0  0  0  0  0  0
   47.0310   33.8290   42.5130 C   0  0  1  0  0  0  0  0  0  0  0  0
   46.4440   34.6630   41.3690 C   0  0  0  0  0  0  0  0  0  0  0  0
   46.9570   33.9040   40.1750 C   0  0  0  0  0  0  0  0  0  0  0  0
   48.2360   33.2280   40.6240 C   0  0  0  0  0  0  0  0  0  0  0  0
   48.4480   33.6940   42.0500 C   0  0  1  0  0  0  0  0  0  0  0  0
   46.5100   32.8750   42.5070 H   0  0  0  0  0  0  0  0  0  0  0  0
   46.7060   35.7140   41.4090 H   0  0  0  0  0  0  0  0  0  0  0  0
   45.3270   34.5810   41.4080 H   0  0  0  0  0  0  0  0  0  0  0  0
   47.2590   34.6120   39.3710 H   0  0  0  0  0  0  0  0  0  0  0  0
   46.1900   33.1860   39.8360 H   0  0  0  0  0  0  0  0  0  0  0  0
   49.1020   33.4480   39.9760 H   0  0  0  0  0  0  0  0  0  0  0  0
   48.0040   32.1370   40.6870 H   0  0  0  0  0  0  0  0  0  0  0  0
   48.9430   32.8970   42.6630 H   0  0  0  0  0  0  0  0  0  0  0  0
   49.2100   34.9940   42.1120 C   0  0  0  0  0  0  0  0  0  0  0  0
   48.5220   35.8860   42.1860 H   0  0  0  0  0  0  0  0  0  0  0  0
   49.8030   35.1380   41.1840 H   0  0  0  0  0  0  0  0  0  0  0  0
   50.0120   35.0710   43.2280 O   0  0  0  0  0  0  0  0  0  0  0  0
   50.5610   34.2930   43.4250 H   0  0  0  0  0  0  0  0  0  0  0  0
   45.4860   33.9730   46.0110 O   0  0  0  0  0  0  0  0  0  0  0  0
   46.4340   33.0270   46.2490 C   0  0  0  0  0  0  0  0  0  0  0  0
   46.9190   32.5560   45.4010 H   0  0  0  0  0  0  0  0  0  0  0  0
   47.2650   33.5650   46.7940 H   0  0  0  0  0  0  0  0  0  0  0  0
   45.1210   31.3760   49.3110 C   0  0  0  0  0  0  0  0  0  0  0  0
   45.5440   32.3790   48.4380 C   0  0  0  0  0  0  0  0  0  0  0  0
   45.9810   31.9790   47.1780 C   0  0  0  0  0  0  0  0  0  0  0  0
   45.9750   30.6520   46.8680 N   0  0  0  0  0  0  0  0  0  0  0  0
   45.5620   29.7010   47.7320 C   0  0  0  0  0  0  0  0  0  0  0  0
   45.1410   30.0660   48.9350 N   0  0  0  0  0  0  0  0  0  0  0  0
   44.7810   31.6720   50.2860 H   0  0  0  0  0  0  0  0  0  0  0  0
   45.5150   33.4110   48.7710 H   0  0  0  0  0  0  0  0  0  0  0  0
   45.5760   28.3300   47.3530 N   0  0  0  0  0  0  0  0  0  0  0  0
   44.4720   27.3940   47.2730 C   0  0  0  0  0  2  0  0  0  0  0  0
   44.8700   26.3980   46.1850 C   0  0  0  0  0  2  0  0  0  0  0  0
   46.2390   26.8650   45.7200 C   0  0  0  0  0  2  0  0  0  0  0  0
   46.7470   27.5720   46.9590 C   0  0  0  0  0  3  0  0  0  0  0  0
   47.6150   28.2180   46.7150 H   0  0  0  0  0  0  0  0  0  0  0  0
  2  1  2  6  0  0  0
  2 24  1  0  0  0  0
  3  2  1  0  0  0  0
  4  3  1  0  0  0  0
  5  2  1  0  0  0  0
  6 11  1  1  0  0  0
  6  5  1  0  0  0  0
  7 13  1  0  0  0  0
  7 12  1  0  0  0  0
  7  6  1  0  0  0  0
  8  9  1  0  0  0  0
  8  7  1  0  0  0  0
  9 17  1  0  0  0  0
  9 10  1  0  0  0  0
 10 19  1  0  0  0  0
 10  6  1  0  0  0  0
 10 18  1  1  0  0  0
 14  8  1  0  0  0  0
 15  8  1  0  0  0  0
 16  9  1  0  0  0  0
 19 20  1  0  0  0  0
 19 22  1  0  0  0  0
 21 19  1  0  0  0  0
 22 23  1  0  0  0  0
 24 25  1  0  0  0  0
 25 27  1  0  0  0  0
 25 30  1  0  0  0  0
 26 25  1  0  0  0  0
 28 34  1  0  0  0  0
 29 35  1  0  0  0  0
 29 28  2  0  0  0  0
 30 29  1  0  0  0  0
 31 30  2  0  0  0  0
 31 32  1  0  0  0  0
 32 33  2  0  0  0  0
 33 28  1  0  0  0  0
 36 32  1  0  0  0  0
 37 36  1  0  0  0  0
 38 37  1  0  0  0  0
 39 38  1  0  0  0  0
 39 40  1  0  0  0  0
 40 36  1  0  0  0  0
 41 40  1  0  0  0  0
M  END
>  <minimizedAffinity>
-5.93807364

>  <minimizedRMSD>
1.13278115

$$$$
