
 OpenBabel03242523503D

 40 43  0  0  1  0  0  0  0  0999 V2000
   42.8330   34.5010   38.7550 C   0  0  1  0  0  0  0  0  0  0  0  0
   42.9590   35.1730   40.1260 C   0  0  1  0  0  0  0  0  0  0  0  0
   41.6680   35.4220   40.6310 O   0  0  0  0  0  0  0  0  0  0  0  0
   40.7530   35.7560   39.6320 C   0  0  0  0  0  0  0  0  0  0  0  0
   40.4310   34.5300   38.7780 C   0  0  2  0  0  0  0  0  0  0  0  0
   41.6290   33.5820   38.8780 C   0  0  1  0  0  0  0  0  0  0  0  0
   43.7610   33.9150   38.5390 H   0  0  0  0  0  0  0  0  0  0  0  0
   43.5350   36.1070   40.0700 H   0  0  0  0  0  0  0  0  0  0  0  0
   41.0440   36.6290   39.0430 H   0  0  0  0  0  0  0  0  0  0  0  0
   39.8220   36.0100   40.1720 H   0  0  0  0  0  0  0  0  0  0  0  0
   39.4920   34.0540   39.0640 H   0  0  0  0  0  0  0  0  0  0  0  0
   41.6110   33.1750   39.9020 H   0  0  0  0  0  0  0  0  0  0  0  0
   42.6080   35.4530   37.7630 O   0  0  0  0  0  0  0  0  0  0  0  0
   43.2220   36.2130   37.8570 H   0  0  0  0  0  0  0  0  0  0  0  0
   40.4490   34.9530   37.4300 O   0  0  0  0  0  0  0  0  0  0  0  0
   39.6000   34.6840   36.9850 H   0  0  0  0  0  0  0  0  0  0  0  0
   43.4860   34.1960   40.9820 O   0  0  0  0  0  0  0  0  0  0  0  0
   44.5940   34.3250   41.7170 C   0  0  0  0  0  0  0  0  0  0  0  0
   45.8420   34.4530   41.1130 C   0  0  0  0  0  0  0  0  0  0  0  0
   46.9610   34.5870   41.9200 C   0  0  0  0  0  0  0  0  0  0  0  0
   46.8100   34.5890   43.2910 N   0  0  0  0  0  0  0  0  0  0  0  0
   45.5920   34.4620   43.8420 C   0  0  0  0  0  0  0  0  0  0  0  0
   44.4870   34.3310   43.0680 N   0  0  0  0  0  0  0  0  0  0  0  0
   45.9640   34.4520   40.0440 H   0  0  0  0  0  0  0  0  0  0  0  0
   45.4700   34.4630   44.9180 H   0  0  0  0  0  0  0  0  0  0  0  0
   48.3350   34.7100   41.3190 C   0  0  0  0  0  0  0  0  0  0  0  0
   49.0690   36.0170   41.5100 C   0  0  0  0  0  0  0  0  0  0  0  0
   49.4920   34.7010   42.1750 C   0  0  0  0  0  0  0  0  0  0  0  0
   48.3760   34.2650   40.3040 H   0  0  0  0  0  0  0  0  0  0  0  0
   48.5320   36.7730   42.0850 H   0  0  0  0  0  0  0  0  0  0  0  0
   49.6860   36.3500   40.6550 H   0  0  0  0  0  0  0  0  0  0  0  0
   49.2810   34.7260   43.2840 H   0  0  0  0  0  0  0  0  0  0  0  0
   50.4780   34.2900   41.9190 H   0  0  0  0  0  0  0  0  0  0  0  0
   41.5720   32.6110   37.8980 O   0  0  0  0  0  0  0  0  0  0  0  0
   43.6900   31.5360   38.9550 H   0  0  0  0  0  0  0  0  0  0  0  0
   43.1510   30.9040   38.2990 N   0  0  0  0  0  0  0  0  0  0  0  0
   43.0650   29.6130   38.9690 C   0  0  0  0  0  2  0  0  0  0  0  0
   42.3400   30.0160   40.2440 C   0  0  0  0  0  2  0  0  0  0  0  0
   41.4860   31.2110   39.8580 C   0  0  0  0  0  2  0  0  0  0  0  0
   41.7450   31.3290   38.3710 C   0  0  1  0  0  3  0  0  0  0  0  0
  1  7  1  6  0  0  0
  1  6  1  0  0  0  0
  1  2  1  0  0  0  0
  2  8  1  6  0  0  0
  2  3  1  0  0  0  0
  2 17  1  0  0  0  0
  4 10  1  0  0  0  0
  4  3  1  0  0  0  0
  5  6  1  0  0  0  0
  5 11  1  1  0  0  0
  5  4  1  0  0  0  0
  6 12  1  1  0  0  0
  9  4  1  0  0  0  0
 13 14  1  0  0  0  0
 13  1  1  0  0  0  0
 15  5  1  0  0  0  0
 16 15  1  0  0  0  0
 17 18  1  0  0  0  0
 18 23  1  0  0  0  0
 19 18  2  0  0  0  0
 19 20  1  0  0  0  0
 20 21  2  0  0  0  0
 21 22  1  0  0  0  0
 22 25  1  0  0  0  0
 23 22  2  0  0  0  0
 24 19  1  0  0  0  0
 26 27  1  0  0  0  0
 26 20  1  0  0  0  0
 26 28  1  0  0  0  0
 27 30  1  0  0  0  0
 27 28  1  0  0  0  0
 28 32  1  0  0  0  0
 29 26  1  0  0  0  0
 31 27  1  0  0  0  0
 33 28  1  0  0  0  0
 34  6  1  0  0  0  0
 36 40  1  0  0  0  0
 36 35  1  0  0  0  0
 36 37  1  0  0  0  0
 37 38  1  0  0  0  0
 39 38  1  0  0  0  0
 40 34  1  1  0  0  0
 40 39  1  0  0  0  0
M  END
>  <minimizedAffinity>
-5.68677902

>  <minimizedRMSD>
0.223536938

$$$$
