
 OpenBabel03252507493D

 42 44  0  0  1  0  0  0  0  0999 V2000
   47.6890   34.8610   41.1760 C   0  0  0  0  0  0  0  0  0  0  0  0
   47.1490   34.4710   40.3090 H   0  0  0  0  0  0  0  0  0  0  0  0
   47.9790   35.9070   40.8980 H   0  0  0  0  0  0  0  0  0  0  0  0
   48.8940   34.0680   41.4840 C   0  0  0  0  0  0  0  0  0  0  0  0
   49.0060   32.8230   40.8840 C   0  0  0  0  0  0  0  0  0  0  0  0
   50.0970   32.0100   41.1130 C   0  0  0  0  0  0  0  0  0  0  0  0
   51.0660   32.5030   41.9670 N   0  0  0  0  0  0  0  0  0  0  0  0
   50.9180   33.7340   42.5370 C   0  0  0  0  0  0  0  0  0  0  0  0
   49.8500   34.4840   42.2890 N   0  0  0  0  0  0  0  0  0  0  0  0
   50.1990   31.0400   40.6550 H   0  0  0  0  0  0  0  0  0  0  0  0
   51.7370   34.0270   43.1920 H   0  0  0  0  0  0  0  0  0  0  0  0
   47.7140   32.2490   39.7910 S   0  0  0  0  0  0  0  0  0  0  0  0
   48.2070   32.4450   38.0590 C   0  0  0  0  0  0  0  0  0  0  0  0
   49.2760   32.2570   37.9590 H   0  0  0  0  0  0  0  0  0  0  0  0
   47.5820   31.7370   37.4670 H   0  0  0  0  0  0  0  0  0  0  0  0
   47.9360   33.8660   37.6400 C   0  0  0  0  0  0  0  0  0  0  0  0
   48.6820   34.5800   38.0450 H   0  0  0  0  0  0  0  0  0  0  0  0
   46.9290   34.1750   38.0010 H   0  0  0  0  0  0  0  0  0  0  0  0
   47.9360   33.9050   36.2070 N   0  0  0  0  0  0  0  0  0  0  0  0
   48.1090   34.8760   35.8720 H   0  0  0  0  0  0  0  0  0  0  0  0
   47.0510   33.5570   35.7920 H   0  0  0  0  0  0  0  0  0  0  0  0
   46.7370   34.9650   42.3170 C   0  0  0  0  0  0  0  0  0  0  0  0
   46.9500   34.0890   42.9910 H   0  0  0  0  0  0  0  0  0  0  0  0
   46.9050   35.8580   42.9750 H   0  0  0  0  0  0  0  0  0  0  0  0
   45.3100   34.8250   41.9250 C   0  0  0  0  0  0  0  0  0  0  0  0
   44.3640   35.7960   42.3850 C   0  0  0  0  0  0  0  0  0  0  0  0
   42.7940   35.2090   41.6600 S   0  0  0  0  0  0  0  0  0  0  0  0
   43.6910   33.7280   40.8430 C   0  0  0  0  0  0  0  0  0  0  0  0
   44.7620   33.9060   41.1880 N   0  0  0  0  0  0  0  0  0  0  0  0
   44.5450   36.6540   43.0040 H   0  0  0  0  0  0  0  0  0  0  0  0
   43.0390   32.7780   40.0650 O   0  0  0  0  0  0  0  0  0  0  0  0
   42.0360   32.2050   37.6730 O   0  0  0  0  0  0  0  0  0  0  0  0
   43.1930   32.9290   38.3820 P   0  0  1  0  0  0  0  0  0  0  0  0
   43.0810   34.5810   38.0010 O   0  0  0  0  0  0  0  0  0  0  0  0
   43.8310   34.8930   37.4610 H   0  0  0  0  0  0  0  0  0  0  0  0
   44.6860   32.3590   37.8560 O   0  0  0  0  0  0  0  0  0  0  0  0
   44.2280   33.1570   35.1590 H   0  0  0  0  0  0  0  0  0  0  0  0
   44.9500   32.5800   35.5990 N   0  0  0  0  0  0  0  0  0  0  0  0
   45.7680   31.8100   34.6890 C   0  0  0  0  0  2  0  0  0  0  0  0
   46.2530   30.6050   35.4570 C   0  0  0  0  0  2  0  0  0  0  0  0
   45.2310   30.4080   36.5540 C   0  0  0  0  0  2  0  0  0  0  0  0
   44.4890   31.6980   36.6460 C   0  0  1  0  0  3  0  0  0  0  0  0
  1  4  1  0  0  0  0
  1 22  1  0  0  0  0
  2  1  1  0  0  0  0
  3  1  1  0  0  0  0
  4  9  1  0  0  0  0
  5  6  1  0  0  0  0
  5  4  2  0  0  0  0
  6  7  2  0  0  0  0
  7  8  1  0  0  0  0
  8 11  1  0  0  0  0
  9  8  2  0  0  0  0
 10  6  1  0  0  0  0
 12  5  1  0  0  0  0
 13 12  1  0  0  0  0
 14 13  1  0  0  0  0
 15 13  1  0  0  0  0
 16 18  1  0  0  0  0
 16 17  1  0  0  0  0
 16 13  1  0  0  0  0
 19 16  1  0  0  0  0
 20 19  1  0  0  0  0
 21 19  1  0  0  0  0
 22 24  1  0  0  0  0
 22 23  1  0  0  0  0
 25 22  1  0  0  0  0
 25 26  2  0  0  0  0
 26 30  1  0  0  0  0
 27 26  1  0  0  0  0
 28 29  2  0  0  0  0
 28 27  1  0  0  0  0
 29 25  1  0  0  0  0
 31 28  1  0  0  0  0
 33 32  2  6  0  0  0
 33 31  1  0  0  0  0
 34 33  1  0  0  0  0
 35 34  1  0  0  0  0
 36 33  1  0  0  0  0
 37 38  1  0  0  0  0
 38 42  1  0  0  0  0
 39 40  1  0  0  0  0
 39 38  1  0  0  0  0
 40 41  1  0  0  0  0
 41 42  1  0  0  0  0
 42 36  1  1  0  0  0
M  END
>  <minimizedAffinity>
-4.59107971

>  <minimizedRMSD>
1.86984873

$$$$
