
 OpenBabel03242523503D

 40 43  0  0  1  0  0  0  0  0999 V2000
   42.8310   34.4950   38.7560 C   0  0  1  0  0  0  0  0  0  0  0  0
   42.9670   35.1780   40.1210 C   0  0  1  0  0  0  0  0  0  0  0  0
   41.6790   35.4470   40.6250 O   0  0  0  0  0  0  0  0  0  0  0  0
   40.7660   35.7820   39.6240 C   0  0  0  0  0  0  0  0  0  0  0  0
   40.4300   34.5520   38.7820 C   0  0  2  0  0  0  0  0  0  0  0  0
   41.6170   33.5920   38.8890 C   0  0  1  0  0  0  0  0  0  0  0  0
   43.7520   33.8970   38.5440 H   0  0  0  0  0  0  0  0  0  0  0  0
   43.5530   36.1060   40.0560 H   0  0  0  0  0  0  0  0  0  0  0  0
   41.0670   36.6460   39.0270 H   0  0  0  0  0  0  0  0  0  0  0  0
   39.8400   36.0520   40.1630 H   0  0  0  0  0  0  0  0  0  0  0  0
   39.4860   34.0900   39.0730 H   0  0  0  0  0  0  0  0  0  0  0  0
   41.5950   33.1940   39.9170 H   0  0  0  0  0  0  0  0  0  0  0  0
   42.6160   35.4410   37.7560 O   0  0  0  0  0  0  0  0  0  0  0  0
   43.2390   36.1940   37.8430 H   0  0  0  0  0  0  0  0  0  0  0  0
   40.4510   34.9630   37.4300 O   0  0  0  0  0  0  0  0  0  0  0  0
   39.5980   34.7000   36.9880 H   0  0  0  0  0  0  0  0  0  0  0  0
   43.4830   34.2030   40.9850 O   0  0  0  0  0  0  0  0  0  0  0  0
   44.5920   34.3270   41.7200 C   0  0  0  0  0  0  0  0  0  0  0  0
   45.8390   34.4570   41.1150 C   0  0  0  0  0  0  0  0  0  0  0  0
   46.9590   34.5860   41.9220 C   0  0  0  0  0  0  0  0  0  0  0  0
   46.8090   34.5810   43.2930 N   0  0  0  0  0  0  0  0  0  0  0  0
   45.5910   34.4530   43.8450 C   0  0  0  0  0  0  0  0  0  0  0  0
   44.4860   34.3270   43.0710 N   0  0  0  0  0  0  0  0  0  0  0  0
   45.9610   34.4610   40.0470 H   0  0  0  0  0  0  0  0  0  0  0  0
   45.4700   34.4490   44.9210 H   0  0  0  0  0  0  0  0  0  0  0  0
   48.3340   34.7100   41.3210 C   0  0  0  0  0  0  0  0  0  0  0  0
   49.0660   36.0170   41.5140 C   0  0  0  0  0  0  0  0  0  0  0  0
   49.4900   34.7010   42.1770 C   0  0  0  0  0  0  0  0  0  0  0  0
   48.3740   34.2670   40.3060 H   0  0  0  0  0  0  0  0  0  0  0  0
   48.5300   36.7720   42.0900 H   0  0  0  0  0  0  0  0  0  0  0  0
   49.6830   36.3510   40.6590 H   0  0  0  0  0  0  0  0  0  0  0  0
   49.2790   34.7230   43.2860 H   0  0  0  0  0  0  0  0  0  0  0  0
   50.4770   34.2890   41.9200 H   0  0  0  0  0  0  0  0  0  0  0  0
   41.5470   32.6130   37.9180 O   0  0  0  0  0  0  0  0  0  0  0  0
   43.0990   31.6070   39.7450 H   0  0  0  0  0  0  0  0  0  0  0  0
   42.9080   30.9670   38.9230 N   0  0  0  0  0  0  0  0  0  0  0  0
   42.6190   29.6590   39.4950 C   0  0  0  0  0  2  0  0  0  0  0  0
   41.4190   29.9990   40.3640 C   0  0  0  0  0  2  0  0  0  0  0  0
   40.7380   31.1650   39.6660 C   0  0  0  0  0  2  0  0  0  0  0  0
   41.5760   31.3280   38.4160 C   0  0  1  0  0  3  0  0  0  0  0  0
  1  7  1  6  0  0  0
  1  6  1  0  0  0  0
  1  2  1  0  0  0  0
  2  8  1  6  0  0  0
  2  3  1  0  0  0  0
  2 17  1  0  0  0  0
  4 10  1  0  0  0  0
  4  3  1  0  0  0  0
  5  6  1  0  0  0  0
  5 11  1  1  0  0  0
  5  4  1  0  0  0  0
  6 12  1  1  0  0  0
  9  4  1  0  0  0  0
 13 14  1  0  0  0  0
 13  1  1  0  0  0  0
 15  5  1  0  0  0  0
 16 15  1  0  0  0  0
 17 18  1  0  0  0  0
 18 23  1  0  0  0  0
 19 18  2  0  0  0  0
 19 20  1  0  0  0  0
 20 21  2  0  0  0  0
 21 22  1  0  0  0  0
 22 25  1  0  0  0  0
 23 22  2  0  0  0  0
 24 19  1  0  0  0  0
 26 27  1  0  0  0  0
 26 20  1  0  0  0  0
 26 28  1  0  0  0  0
 27 30  1  0  0  0  0
 27 28  1  0  0  0  0
 28 32  1  0  0  0  0
 29 26  1  0  0  0  0
 31 27  1  0  0  0  0
 33 28  1  0  0  0  0
 34  6  1  0  0  0  0
 36 37  1  0  0  0  0
 36 35  1  0  0  0  0
 37 38  1  0  0  0  0
 39 38  1  0  0  0  0
 40 34  1  1  0  0  0
 40 36  1  0  0  0  0
 40 39  1  0  0  0  0
M  END
>  <minimizedAffinity>
-5.73307228

>  <minimizedRMSD>
0.251182944

$$$$
