
 OpenBabel03242517103D

 44 47  0  0  1  0  0  0  0  0999 V2000
   46.0720   33.6930   43.3870 C   0  0  2  0  0  0  0  0  0  0  0  0
   45.2410   34.7760   42.7950 C   0  0  2  0  0  0  0  0  0  0  0  0
   45.0940   35.9490   43.6900 C   0  0  0  0  0  0  0  0  0  0  0  0
   44.6270   35.6140   45.0850 C   0  0  0  0  0  0  0  0  0  0  0  0
   45.1530   34.3080   45.6070 C   0  0  0  0  0  0  0  0  0  0  0  0
   46.3870   33.8570   44.8470 C   0  0  0  0  0  0  0  0  0  0  0  0
   45.5100   32.7190   43.2690 H   0  0  0  0  0  0  0  0  0  0  0  0
   45.7460   35.1260   41.8720 H   0  0  0  0  0  0  0  0  0  0  0  0
   44.2930   36.6020   43.2420 H   0  0  0  0  0  0  0  0  0  0  0  0
   46.0490   36.5290   43.7020 H   0  0  0  0  0  0  0  0  0  0  0  0
   43.5250   35.6710   45.1720 H   0  0  0  0  0  0  0  0  0  0  0  0
   45.0160   36.4120   45.7580 H   0  0  0  0  0  0  0  0  0  0  0  0
   45.4210   34.3410   46.6830 H   0  0  0  0  0  0  0  0  0  0  0  0
   44.3870   33.5080   45.5080 H   0  0  0  0  0  0  0  0  0  0  0  0
   47.1990   34.5240   45.1010 H   0  0  0  0  0  0  0  0  0  0  0  0
   46.6090   32.8150   45.2250 H   0  0  0  0  0  0  0  0  0  0  0  0
   42.9440   35.2460   41.8510 C   0  0  1  0  0  0  0  0  0  0  0  0
   43.8910   34.2340   42.3810 C   0  0  1  0  0  0  0  0  0  0  0  0
   44.0970   33.2640   41.4080 O   0  0  0  0  0  0  0  0  0  0  0  0
   43.7220   33.7940   40.1860 C   0  0  0  0  0  0  0  0  0  0  0  0
   42.4690   34.5590   40.5620 C   0  0  2  0  0  0  0  0  0  0  0  0
   43.4060   36.1960   41.5360 H   0  0  0  0  0  0  0  0  0  0  0  0
   43.4270   33.7700   43.2940 H   0  0  0  0  0  0  0  0  0  0  0  0
   43.5220   32.9400   39.5240 H   0  0  0  0  0  0  0  0  0  0  0  0
   44.4740   34.5050   39.8230 H   0  0  0  0  0  0  0  0  0  0  0  0
   41.6410   33.8600   40.7840 H   0  0  0  0  0  0  0  0  0  0  0  0
   41.8430   35.4520   42.6590 O   0  0  0  0  0  0  0  0  0  0  0  0
   41.0650   35.8180   42.1730 H   0  0  0  0  0  0  0  0  0  0  0  0
   42.1300   35.5210   39.6280 O   0  0  0  0  0  0  0  0  0  0  0  0
   41.5090   33.7330   37.0250 H   0  0  0  0  0  0  0  0  0  0  0  0
   41.2070   34.1580   37.9280 N   0  0  0  0  0  0  0  0  0  0  0  0
   40.0640   35.0200   37.6980 C   0  0  0  0  0  0  0  0  0  0  0  0
   40.6400   36.1340   36.8800 C   0  0  0  0  0  0  0  0  0  0  0  0
   42.0280   36.3070   37.4240 C   0  0  0  0  0  0  0  0  0  0  0  0
   42.2280   35.1010   38.3220 C   0  0  1  0  0  0  0  0  0  0  0  0
   47.3380   33.4880   42.6550 C   0  0  0  0  0  0  0  0  0  0  0  0
   48.3800   34.3310   43.0370 C   0  0  0  0  0  0  0  0  0  0  0  0
   49.6360   34.2310   42.4190 C   0  0  0  0  0  0  0  0  0  0  0  0
   49.7390   33.2570   41.4300 N   0  0  0  0  0  0  0  0  0  0  0  0
   48.7040   32.4610   41.0870 C   0  0  0  0  0  0  0  0  0  0  0  0
   47.5010   32.5730   41.6980 N   0  0  0  0  0  0  0  0  0  0  0  0
   48.4520   35.1240   43.7650 H   0  0  0  0  0  0  0  0  0  0  0  0
   50.5120   34.8000   42.6060 H   0  0  0  0  0  0  0  0  0  0  0  0
   48.8890   31.7360   40.3050 H   0  0  0  0  0  0  0  0  0  0  0  0
  1  7  1  6  0  0  0
  1  6  1  0  0  0  0
  2  8  1  6  0  0  0
  2  1  1  0  0  0  0
  2  3  1  0  0  0  0
  3 10  1  0  0  0  0
  3  4  1  0  0  0  0
  4 11  1  0  0  0  0
  4  5  1  0  0  0  0
  4 12  1  0  0  0  0
  5 13  1  0  0  0  0
  6 15  1  0  0  0  0
  6 16  1  0  0  0  0
  6  5  1  0  0  0  0
  9  3  1  0  0  0  0
 14  5  1  0  0  0  0
 17 22  1  6  0  0  0
 17 18  1  0  0  0  0
 17 27  1  0  0  0  0
 18  2  1  0  0  0  0
 18 23  1  1  0  0  0
 19 18  1  0  0  0  0
 20 21  1  0  0  0  0
 20 19  1  0  0  0  0
 21 26  1  1  0  0  0
 21 17  1  0  0  0  0
 24 20  1  0  0  0  0
 25 20  1  0  0  0  0
 28 27  1  0  0  0  0
 29 21  1  0  0  0  0
 30 31  1  0  0  0  0
 31 35  1  0  0  0  0
 32 31  1  0  0  0  0
 33 34  1  0  0  0  0
 33 32  1  0  0  0  0
 34 35  1  0  0  0  0
 35 29  1  1  0  0  0
 36 37  1  0  0  0  0
 36  1  1  0  0  0  0
 37 42  1  0  0  0  0
 38 43  1  0  0  0  0
 38 37  2  0  0  0  0
 39 38  1  0  0  0  0
 40 39  2  0  0  0  0
 40 41  1  0  0  0  0
 41 36  2  0  0  0  0
 44 40  1  0  0  0  0
M  END
>  <minimizedAffinity>
-6.26070547

>  <minimizedRMSD>
0.97559166

$$$$
