
 OpenBabel03242518163D

 29 31  0  0  1  0  0  0  0  0999 V2000
   36.3960   28.1660   41.7620 C   0  0  0  0  0  0  0  0  0  0  0  0
   36.5570   27.2420   41.1480 H   0  0  0  0  0  0  0  0  0  0  0  0
   35.2690   28.1590   41.9010 H   0  0  0  0  0  0  0  0  0  0  0  0
   36.7280   29.3030   40.9910 C   0  0  0  0  0  0  0  0  0  0  0  0
   36.2730   30.6360   40.8520 C   0  0  0  0  0  0  0  0  0  0  0  0
   36.8440   31.4780   39.9630 C   0  0  0  0  0  0  0  0  0  0  0  0
   37.9310   30.9620   39.1660 C   0  0  0  0  0  0  0  0  0  0  0  0
   38.1170   29.2580   39.7140 S   0  0  0  0  0  0  0  0  0  0  0  0
   35.4610   30.8340   41.5260 H   0  0  0  0  0  0  0  0  0  0  0  0
   36.4790   32.4900   39.8750 H   0  0  0  0  0  0  0  0  0  0  0  0
   38.5690   31.6420   38.2820 O   0  0  0  0  0  0  0  0  0  0  0  0
   39.6580   33.1780   36.7600 H   0  0  0  0  0  0  0  0  0  0  0  0
   40.3340   32.4240   36.9740 N   0  0  0  0  0  0  0  0  0  0  0  0
   41.6090   33.0340   37.2770 C   0  0  0  0  0  2  0  0  0  0  0  0
   41.3450   33.7350   38.5870 C   0  0  0  0  0  2  0  0  0  0  0  0
   40.3790   32.8060   39.2680 C   0  0  0  0  0  2  0  0  0  0  0  0
   39.9670   31.7970   38.2130 C   0  0  1  0  0  3  0  0  0  0  0  0
   37.0550   27.9990   43.0700 C   0  0  0  0  0  0  0  0  0  0  0  0
   36.3140   27.8630   43.9110 H   0  0  0  0  0  0  0  0  0  0  0  0
   37.6320   28.9000   43.3710 H   0  0  0  0  0  0  0  0  0  0  0  0
   37.9710   26.8580   43.0440 C   0  0  0  0  0  0  0  0  0  0  0  0
   39.1750   26.9090   43.7190 C   0  0  0  0  0  0  0  0  0  0  0  0
   40.0080   25.7870   43.6560 C   0  0  0  0  0  0  0  0  0  0  0  0
   39.5920   24.7190   42.9430 N   0  0  0  0  0  0  0  0  0  0  0  0
   38.4140   24.7150   42.3030 C   0  0  0  0  0  0  0  0  0  0  0  0
   37.6310   25.7610   42.3580 N   0  0  0  0  0  0  0  0  0  0  0  0
   39.4920   27.7650   44.2820 H   0  0  0  0  0  0  0  0  0  0  0  0
   40.9710   25.7990   44.1830 H   0  0  0  0  0  0  0  0  0  0  0  0
   38.1790   23.8070   41.7610 H   0  0  0  0  0  0  0  0  0  0  0  0
  1  3  1  0  0  0  0
  1 18  1  0  0  0  0
  2  1  1  0  0  0  0
  4  1  1  0  0  0  0
  5  4  2  0  0  0  0
  5  9  1  0  0  0  0
  6  5  1  0  0  0  0
  7  8  1  0  0  0  0
  7  6  2  0  0  0  0
  8  4  1  0  0  0  0
 10  6  1  0  0  0  0
 11  7  1  0  0  0  0
 12 13  1  0  0  0  0
 13 14  1  0  0  0  0
 13 17  1  0  0  0  0
 14 15  1  0  0  0  0
 15 16  1  0  0  0  0
 17 11  1  6  0  0  0
 17 16  1  0  0  0  0
 18 20  1  0  0  0  0
 18 19  1  0  0  0  0
 21 18  1  0  0  0  0
 21 22  1  0  0  0  0
 22 27  1  0  0  0  0
 23 22  2  0  0  0  0
 23 28  1  0  0  0  0
 24 23  1  0  0  0  0
 25 26  1  0  0  0  0
 25 24  2  0  0  0  0
 26 21  2  0  0  0  0
 29 25  1  0  0  0  0
M  END
>  <minimizedAffinity>
-5.22662449

$$$$

 OpenBabel03242518163D

 29 31  0  0  1  0  0  0  0  0999 V2000
   37.0160   28.9860   41.9520 C   0  0  0  0  0  0  0  0  0  0  0  0
   37.1020   28.1250   41.2390 H   0  0  0  0  0  0  0  0  0  0  0  0
   35.9070   28.9790   42.1930 H   0  0  0  0  0  0  0  0  0  0  0  0
   37.3030   30.1900   41.2680 C   0  0  0  0  0  0  0  0  0  0  0  0
   36.5750   31.2340   40.6510 C   0  0  0  0  0  0  0  0  0  0  0  0
   37.2100   32.2670   40.0550 C   0  0  0  0  0  0  0  0  0  0  0  0
   38.6530   32.2580   40.0730 C   0  0  0  0  0  0  0  0  0  0  0  0
   39.0770   30.7500   40.9590 S   0  0  0  0  0  0  0  0  0  0  0  0
   35.5180   31.0660   40.7390 H   0  0  0  0  0  0  0  0  0  0  0  0
   36.6320   33.0520   39.5890 H   0  0  0  0  0  0  0  0  0  0  0  0
   39.3910   33.1690   39.5490 O   0  0  0  0  0  0  0  0  0  0  0  0
   40.0070   33.6660   37.2610 H   0  0  0  0  0  0  0  0  0  0  0  0
   40.6640   32.9470   37.6080 N   0  0  0  0  0  0  0  0  0  0  0  0
   42.0040   33.3470   37.2420 C   0  0  0  0  0  2  0  0  0  0  0  0
   42.2380   34.5680   38.0970 C   0  0  0  0  0  2  0  0  0  0  0  0
   41.4970   34.2310   39.3600 C   0  0  0  0  0  2  0  0  0  0  0  0
   40.6920   32.9850   39.0430 C   0  0  1  0  0  3  0  0  0  0  0  0
   37.7860   28.6810   43.1710 C   0  0  0  0  0  0  0  0  0  0  0  0
   37.1660   28.7840   44.1090 H   0  0  0  0  0  0  0  0  0  0  0  0
   38.6250   29.3930   43.3320 H   0  0  0  0  0  0  0  0  0  0  0  0
   38.3420   27.3290   43.1070 C   0  0  0  0  0  0  0  0  0  0  0  0
   37.7180   26.3480   42.3610 C   0  0  0  0  0  0  0  0  0  0  0  0
   38.2980   25.0750   42.3400 C   0  0  0  0  0  0  0  0  0  0  0  0
   39.4290   24.8740   43.0460 N   0  0  0  0  0  0  0  0  0  0  0  0
   40.0000   25.8570   43.7580 C   0  0  0  0  0  0  0  0  0  0  0  0
   39.4640   27.0500   43.7810 N   0  0  0  0  0  0  0  0  0  0  0  0
   36.8190   26.5230   41.8040 H   0  0  0  0  0  0  0  0  0  0  0  0
   37.8240   24.2760   41.7540 H   0  0  0  0  0  0  0  0  0  0  0  0
   40.9050   25.5870   44.2870 H   0  0  0  0  0  0  0  0  0  0  0  0
  1  3  1  0  0  0  0
  1 18  1  0  0  0  0
  2  1  1  0  0  0  0
  4  1  1  0  0  0  0
  5  9  1  0  0  0  0
  5  4  2  0  0  0  0
  6  7  2  0  0  0  0
  6  5  1  0  0  0  0
  7  8  1  0  0  0  0
  8  4  1  0  0  0  0
 10  6  1  0  0  0  0
 11  7  1  0  0  0  0
 12 13  1  0  0  0  0
 13 17  1  0  0  0  0
 14 13  1  0  0  0  0
 14 15  1  0  0  0  0
 15 16  1  0  0  0  0
 17 16  1  0  0  0  0
 17 11  1  1  0  0  0
 18 20  1  0  0  0  0
 18 19  1  0  0  0  0
 21 18  1  0  0  0  0
 21 26  1  0  0  0  0
 22 21  2  0  0  0  0
 23 22  1  0  0  0  0
 23 24  2  0  0  0  0
 24 25  1  0  0  0  0
 25 26  2  0  0  0  0
 25 29  1  0  0  0  0
 27 22  1  0  0  0  0
 28 23  1  0  0  0  0
M  END
>  <minimizedAffinity>
-5.10797882

$$$$

 OpenBabel03242518163D

 29 31  0  0  1  0  0  0  0  0999 V2000
   38.1390   25.4380   42.2780 C   0  0  0  0  0  0  0  0  0  0  0  0
   38.7890   25.0700   43.1140 H   0  0  0  0  0  0  0  0  0  0  0  0
   38.8150   25.2980   41.3780 H   0  0  0  0  0  0  0  0  0  0  0  0
   37.9150   26.8250   42.4380 C   0  0  0  0  0  0  0  0  0  0  0  0
   38.0180   27.7830   43.4740 C   0  0  0  0  0  0  0  0  0  0  0  0
   37.6900   29.0760   43.2620 C   0  0  0  0  0  0  0  0  0  0  0  0
   37.2330   29.4360   41.9410 C   0  0  0  0  0  0  0  0  0  0  0  0
   37.2840   27.8930   41.0160 S   0  0  0  0  0  0  0  0  0  0  0  0
   38.3730   27.3280   44.3790 H   0  0  0  0  0  0  0  0  0  0  0  0
   37.7760   29.7890   44.0690 H   0  0  0  0  0  0  0  0  0  0  0  0
   36.8870   30.6230   41.5910 O   0  0  0  0  0  0  0  0  0  0  0  0
   36.4700   32.9880   41.2830 H   0  0  0  0  0  0  0  0  0  0  0  0
   36.7370   32.5990   40.3630 N   0  0  0  0  0  0  0  0  0  0  0  0
   37.7150   33.4810   39.7670 C   0  0  0  0  0  2  0  0  0  0  0  0
   38.9200   33.3000   40.6570 C   0  0  0  0  0  2  0  0  0  0  0  0
   38.8330   31.8480   41.0350 C   0  0  0  0  0  2  0  0  0  0  0  0
   37.4710   31.3800   40.5580 C   0  0  1  0  0  3  0  0  0  0  0  0
   36.9640   24.5560   42.1550 C   0  0  0  0  0  0  0  0  0  0  0  0
   35.9910   25.1260   42.2100 H   0  0  0  0  0  0  0  0  0  0  0  0
   36.8900   23.8300   42.9930 H   0  0  0  0  0  0  0  0  0  0  0  0
   37.0120   23.8040   40.9010 C   0  0  0  0  0  0  0  0  0  0  0  0
   36.1180   24.0770   39.8840 C   0  0  0  0  0  0  0  0  0  0  0  0
   36.2140   23.3220   38.7100 C   0  0  0  0  0  0  0  0  0  0  0  0
   37.1690   22.3730   38.6340 N   0  0  0  0  0  0  0  0  0  0  0  0
   38.0160   22.1420   39.6490 C   0  0  0  0  0  0  0  0  0  0  0  0
   37.9320   22.8440   40.7490 N   0  0  0  0  0  0  0  0  0  0  0  0
   35.3640   24.8350   39.9590 H   0  0  0  0  0  0  0  0  0  0  0  0
   35.5170   23.5180   37.8840 H   0  0  0  0  0  0  0  0  0  0  0  0
   38.7430   21.3570   39.4820 H   0  0  0  0  0  0  0  0  0  0  0  0
  1  4  1  0  0  0  0
  1  2  1  0  0  0  0
  3  1  1  0  0  0  0
  4  5  2  0  0  0  0
  5  9  1  0  0  0  0
  6  5  1  0  0  0  0
  6 10  1  0  0  0  0
  7  6  2  0  0  0  0
  8  7  1  0  0  0  0
  8  4  1  0  0  0  0
 11  7  1  0  0  0  0
 13 17  1  0  0  0  0
 13 12  1  0  0  0  0
 14 13  1  0  0  0  0
 14 15  1  0  0  0  0
 15 16  1  0  0  0  0
 17 16  1  0  0  0  0
 17 11  1  1  0  0  0
 18 19  1  0  0  0  0
 18  1  1  0  0  0  0
 18 20  1  0  0  0  0
 21 18  1  0  0  0  0
 22 27  1  0  0  0  0
 22 21  2  0  0  0  0
 23 22  1  0  0  0  0
 24 23  2  0  0  0  0
 24 25  1  0  0  0  0
 25 26  2  0  0  0  0
 26 21  1  0  0  0  0
 28 23  1  0  0  0  0
 29 25  1  0  0  0  0
M  END
>  <minimizedAffinity>
-5.05749273

$$$$

 OpenBabel03242518163D

 29 31  0  0  1  0  0  0  0  0999 V2000
   37.0410   26.4900   40.8030 C   0  0  0  0  0  0  0  0  0  0  0  0
   38.0200   26.2240   40.3270 H   0  0  0  0  0  0  0  0  0  0  0  0
   36.3130   25.8480   40.2140 H   0  0  0  0  0  0  0  0  0  0  0  0
   36.7420   27.8450   40.5290 C   0  0  0  0  0  0  0  0  0  0  0  0
   35.9640   28.8760   41.1060 C   0  0  0  0  0  0  0  0  0  0  0  0
   35.8970   30.0990   40.5370 C   0  0  0  0  0  0  0  0  0  0  0  0
   36.6480   30.3080   39.3230 C   0  0  0  0  0  0  0  0  0  0  0  0
   37.4480   28.7240   39.0170 S   0  0  0  0  0  0  0  0  0  0  0  0
   35.4800   28.5320   42.0010 H   0  0  0  0  0  0  0  0  0  0  0  0
   35.2950   30.8690   40.9960 H   0  0  0  0  0  0  0  0  0  0  0  0
   36.6810   31.4140   38.6710 O   0  0  0  0  0  0  0  0  0  0  0  0
   36.5890   32.8520   40.6160 H   0  0  0  0  0  0  0  0  0  0  0  0
   37.0460   33.3880   39.8580 N   0  0  0  0  0  0  0  0  0  0  0  0
   38.2250   34.0230   40.4010 C   0  0  0  0  0  2  0  0  0  0  0  0
   39.1370   32.8540   40.6880 C   0  0  0  0  0  2  0  0  0  0  0  0
   38.8150   31.9050   39.5690 C   0  0  0  0  0  2  0  0  0  0  0  0
   37.5830   32.4720   38.8900 C   0  0  1  0  0  3  0  0  0  0  0  0
   37.0550   26.0550   42.2120 C   0  0  0  0  0  0  0  0  0  0  0  0
   36.5330   25.0650   42.3610 H   0  0  0  0  0  0  0  0  0  0  0  0
   36.4940   26.7500   42.8750 H   0  0  0  0  0  0  0  0  0  0  0  0
   38.4270   25.9570   42.7090 C   0  0  0  0  0  0  0  0  0  0  0  0
   38.9920   26.9960   43.4220 C   0  0  0  0  0  0  0  0  0  0  0  0
   40.3080   26.8420   43.8700 C   0  0  0  0  0  0  0  0  0  0  0  0
   40.9530   25.6920   43.5830 N   0  0  0  0  0  0  0  0  0  0  0  0
   40.3640   24.7090   42.8850 C   0  0  0  0  0  0  0  0  0  0  0  0
   39.1330   24.8470   42.4650 N   0  0  0  0  0  0  0  0  0  0  0  0
   38.4670   27.9040   43.6430 H   0  0  0  0  0  0  0  0  0  0  0  0
   40.7830   27.6520   44.4400 H   0  0  0  0  0  0  0  0  0  0  0  0
   40.9710   23.8300   42.7110 H   0  0  0  0  0  0  0  0  0  0  0  0
  1 18  1  0  0  0  0
  2  1  1  0  0  0  0
  3  1  1  0  0  0  0
  4  1  1  0  0  0  0
  4  5  2  0  0  0  0
  5  9  1  0  0  0  0
  6 10  1  0  0  0  0
  6  5  1  0  0  0  0
  7  6  2  0  0  0  0
  8  7  1  0  0  0  0
  8  4  1  0  0  0  0
 11  7  1  0  0  0  0
 13 14  1  0  0  0  0
 13 12  1  0  0  0  0
 14 15  1  0  0  0  0
 16 15  1  0  0  0  0
 17 11  1  1  0  0  0
 17 16  1  0  0  0  0
 17 13  1  0  0  0  0
 18 19  1  0  0  0  0
 18 21  1  0  0  0  0
 18 20  1  0  0  0  0
 21 22  1  0  0  0  0
 22 27  1  0  0  0  0
 22 23  2  0  0  0  0
 23 28  1  0  0  0  0
 24 23  1  0  0  0  0
 25 24  2  0  0  0  0
 26 21  2  0  0  0  0
 26 25  1  0  0  0  0
 29 25  1  0  0  0  0
M  END
>  <minimizedAffinity>
-5.02916813

$$$$

 OpenBabel03242518163D

 29 31  0  0  1  0  0  0  0  0999 V2000
   37.2140   25.1620   41.9080 C   0  0  0  0  0  0  0  0  0  0  0  0
   37.1860   25.0390   40.7940 H   0  0  0  0  0  0  0  0  0  0  0  0
   36.1900   24.7770   42.2100 H   0  0  0  0  0  0  0  0  0  0  0  0
   37.2700   26.5390   42.2250 C   0  0  0  0  0  0  0  0  0  0  0  0
   37.5710   27.3340   43.3550 C   0  0  0  0  0  0  0  0  0  0  0  0
   37.5020   28.6820   43.2960 C   0  0  0  0  0  0  0  0  0  0  0  0
   37.1110   29.2720   42.0380 C   0  0  0  0  0  0  0  0  0  0  0  0
   36.8460   27.8630   40.9500 S   0  0  0  0  0  0  0  0  0  0  0  0
   37.8400   26.7200   44.1940 H   0  0  0  0  0  0  0  0  0  0  0  0
   37.7360   29.2680   44.1720 H   0  0  0  0  0  0  0  0  0  0  0  0
   37.0020   30.5350   41.8310 O   0  0  0  0  0  0  0  0  0  0  0  0
   36.4030   32.8280   41.3400 H   0  0  0  0  0  0  0  0  0  0  0  0
   36.6400   32.3720   40.4420 N   0  0  0  0  0  0  0  0  0  0  0  0
   37.5150   33.2550   39.7050 C   0  0  0  0  0  2  0  0  0  0  0  0
   38.7830   33.2360   40.5250 C   0  0  0  0  0  2  0  0  0  0  0  0
   38.8200   31.8230   41.0370 C   0  0  0  0  0  2  0  0  0  0  0  0
   37.4680   31.2270   40.6970 C   0  0  1  0  0  3  0  0  0  0  0  0
   38.2570   24.2800   42.4640 C   0  0  0  0  0  0  0  0  0  0  0  0
   38.0510   23.1890   42.2600 H   0  0  0  0  0  0  0  0  0  0  0  0
   38.3090   24.3340   43.5740 H   0  0  0  0  0  0  0  0  0  0  0  0
   39.5720   24.6320   41.9280 C   0  0  0  0  0  0  0  0  0  0  0  0
   40.6270   24.9030   42.7770 C   0  0  0  0  0  0  0  0  0  0  0  0
   41.8590   25.2340   42.2030 C   0  0  0  0  0  0  0  0  0  0  0  0
   41.9510   25.2700   40.8580 N   0  0  0  0  0  0  0  0  0  0  0  0
   40.8980   24.9990   40.0720 C   0  0  0  0  0  0  0  0  0  0  0  0
   39.7430   24.6890   40.6020 N   0  0  0  0  0  0  0  0  0  0  0  0
   40.5380   24.8700   43.8450 H   0  0  0  0  0  0  0  0  0  0  0  0
   42.7160   25.4540   42.8540 H   0  0  0  0  0  0  0  0  0  0  0  0
   41.0820   25.0570   39.0060 H   0  0  0  0  0  0  0  0  0  0  0  0
  1  3  1  0  0  0  0
  1  4  1  0  0  0  0
  1 18  1  0  0  0  0
  2  1  1  0  0  0  0
  4  5  2  0  0  0  0
  5  9  1  0  0  0  0
  6  5  1  0  0  0  0
  6 10  1  0  0  0  0
  7  6  2  0  0  0  0
  8  7  1  0  0  0  0
  8  4  1  0  0  0  0
 11  7  1  0  0  0  0
 13 17  1  0  0  0  0
 13 12  1  0  0  0  0
 14 13  1  0  0  0  0
 14 15  1  0  0  0  0
 15 16  1  0  0  0  0
 17 16  1  0  0  0  0
 17 11  1  1  0  0  0
 18 20  1  0  0  0  0
 19 18  1  0  0  0  0
 21 18  1  0  0  0  0
 21 22  1  0  0  0  0
 22 27  1  0  0  0  0
 23 22  2  0  0  0  0
 23 28  1  0  0  0  0
 24 23  1  0  0  0  0
 25 26  1  0  0  0  0
 25 24  2  0  0  0  0
 26 21  2  0  0  0  0
 29 25  1  0  0  0  0
M  END
>  <minimizedAffinity>
-5.00288248

$$$$

 OpenBabel03242518163D

 29 31  0  0  1  0  0  0  0  0999 V2000
   37.1050   31.7220   38.7520 C   0  0  0  0  0  0  0  0  0  0  0  0
   36.3990   31.9690   37.9170 H   0  0  0  0  0  0  0  0  0  0  0  0
   38.0660   31.5060   38.1880 H   0  0  0  0  0  0  0  0  0  0  0  0
   36.6910   30.5220   39.3740 C   0  0  0  0  0  0  0  0  0  0  0  0
   36.0570   29.3160   38.9910 C   0  0  0  0  0  0  0  0  0  0  0  0
   35.7910   28.3510   39.8980 C   0  0  0  0  0  0  0  0  0  0  0  0
   36.1800   28.6000   41.2650 C   0  0  0  0  0  0  0  0  0  0  0  0
   36.9280   30.2360   41.2240 S   0  0  0  0  0  0  0  0  0  0  0  0
   35.8450   29.3140   37.9380 H   0  0  0  0  0  0  0  0  0  0  0  0
   35.3060   27.4390   39.5810 H   0  0  0  0  0  0  0  0  0  0  0  0
   35.9930   27.7780   42.2340 O   0  0  0  0  0  0  0  0  0  0  0  0
   38.0390   27.0930   41.1360 H   0  0  0  0  0  0  0  0  0  0  0  0
   37.8500   26.4100   41.8900 N   0  0  0  0  0  0  0  0  0  0  0  0
   39.0780   26.1920   42.6200 C   0  0  0  0  0  2  0  0  0  0  0  0
   39.3020   27.5170   43.3090 C   0  0  0  0  0  2  0  0  0  0  0  0
   37.9020   27.9650   43.6200 C   0  0  0  0  0  2  0  0  0  0  0  0
   36.9900   27.0130   42.8700 C   0  0  1  0  0  3  0  0  0  0  0  0
   37.2880   32.9140   39.5990 C   0  0  0  0  0  0  0  0  0  0  0  0
   36.9000   32.7600   40.6480 H   0  0  0  0  0  0  0  0  0  0  0  0
   36.7080   33.7880   39.2310 H   0  0  0  0  0  0  0  0  0  0  0  0
   38.7000   33.2950   39.6580 C   0  0  0  0  0  0  0  0  0  0  0  0
   39.0960   34.4110   40.3690 C   0  0  0  0  0  0  0  0  0  0  0  0
   40.4600   34.7230   40.3860 C   0  0  0  0  0  0  0  0  0  0  0  0
   41.3100   33.9220   39.7130 N   0  0  0  0  0  0  0  0  0  0  0  0
   40.8790   32.8480   39.0350 C   0  0  0  0  0  0  0  0  0  0  0  0
   39.6050   32.5500   39.0150 N   0  0  0  0  0  0  0  0  0  0  0  0
   38.4090   35.0380   40.9000 H   0  0  0  0  0  0  0  0  0  0  0  0
   40.8050   35.6050   40.9440 H   0  0  0  0  0  0  0  0  0  0  0  0
   41.6460   32.2740   38.5300 H   0  0  0  0  0  0  0  0  0  0  0  0
  1  4  1  0  0  0  0
  1 18  1  0  0  0  0
  2  1  1  0  0  0  0
  3  1  1  0  0  0  0
  4  8  1  0  0  0  0
  5  4  2  0  0  0  0
  5  6  1  0  0  0  0
  6  7  2  0  0  0  0
  7 11  1  0  0  0  0
  8  7  1  0  0  0  0
  9  5  1  0  0  0  0
 10  6  1  0  0  0  0
 12 13  1  0  0  0  0
 13 14  1  0  0  0  0
 13 17  1  0  0  0  0
 14 15  1  0  0  0  0
 15 16  1  0  0  0  0
 17 11  1  6  0  0  0
 17 16  1  0  0  0  0
 18 21  1  0  0  0  0
 18 19  1  0  0  0  0
 20 18  1  0  0  0  0
 21 22  1  0  0  0  0
 22 23  2  0  0  0  0
 22 27  1  0  0  0  0
 23 28  1  0  0  0  0
 24 23  1  0  0  0  0
 25 24  2  0  0  0  0
 26 25  1  0  0  0  0
 26 21  2  0  0  0  0
 29 25  1  0  0  0  0
M  END
>  <minimizedAffinity>
-4.93638515

$$$$

 OpenBabel03242518163D

 29 31  0  0  1  0  0  0  0  0999 V2000
   40.7650   33.5570   39.1390 C   0  0  0  0  0  0  0  0  0  0  0  0
   40.5940   33.8850   38.0810 H   0  0  0  0  0  0  0  0  0  0  0  0
   41.5480   32.7460   39.0090 H   0  0  0  0  0  0  0  0  0  0  0  0
   39.5890   32.9470   39.6350 C   0  0  0  0  0  0  0  0  0  0  0  0
   38.1950   33.1790   39.5810 C   0  0  0  0  0  0  0  0  0  0  0  0
   37.3270   32.3600   40.2150 C   0  0  0  0  0  0  0  0  0  0  0  0
   37.8810   31.2460   40.9450 C   0  0  0  0  0  0  0  0  0  0  0  0
   39.6590   31.3950   40.7050 S   0  0  0  0  0  0  0  0  0  0  0  0
   37.9760   34.0510   38.9930 H   0  0  0  0  0  0  0  0  0  0  0  0
   36.2670   32.5590   40.1590 H   0  0  0  0  0  0  0  0  0  0  0  0
   37.1830   30.3850   41.5950 O   0  0  0  0  0  0  0  0  0  0  0  0
   36.2970   29.6180   43.7140 H   0  0  0  0  0  0  0  0  0  0  0  0
   37.2810   29.3020   43.6580 N   0  0  0  0  0  0  0  0  0  0  0  0
   37.3310   27.9130   44.0550 C   0  0  0  0  0  2  0  0  0  0  0  0
   36.6080   27.2130   42.9300 C   0  0  0  0  0  2  0  0  0  0  0  0
   36.9980   28.0300   41.7300 C   0  0  0  0  0  2  0  0  0  0  0  0
   37.6880   29.2640   42.2810 C   0  0  1  0  0  3  0  0  0  0  0  0
   41.3390   34.6790   39.9050 C   0  0  0  0  0  0  0  0  0  0  0  0
   40.6170   35.0910   40.6690 H   0  0  0  0  0  0  0  0  0  0  0  0
   41.5700   35.5560   39.2630 H   0  0  0  0  0  0  0  0  0  0  0  0
   42.5710   34.2680   40.5780 C   0  0  0  0  0  0  0  0  0  0  0  0
   43.4630   33.4180   39.9530 C   0  0  0  0  0  0  0  0  0  0  0  0
   44.6220   33.0610   40.6490 C   0  0  0  0  0  0  0  0  0  0  0  0
   44.8080   33.5630   41.8870 N   0  0  0  0  0  0  0  0  0  0  0  0
   43.9130   34.3850   42.4560 C   0  0  0  0  0  0  0  0  0  0  0  0
   42.8270   34.7230   41.8100 N   0  0  0  0  0  0  0  0  0  0  0  0
   43.3020   33.0270   38.9680 H   0  0  0  0  0  0  0  0  0  0  0  0
   45.3500   32.3870   40.1760 H   0  0  0  0  0  0  0  0  0  0  0  0
   44.1610   34.7300   43.4520 H   0  0  0  0  0  0  0  0  0  0  0  0
  1  4  1  0  0  0  0
  1 18  1  0  0  0  0
  2  1  1  0  0  0  0
  3  1  1  0  0  0  0
  4  8  1  0  0  0  0
  5  4  2  0  0  0  0
  5  6  1  0  0  0  0
  6  7  2  0  0  0  0
  7 11  1  0  0  0  0
  8  7  1  0  0  0  0
  9  5  1  0  0  0  0
 10  6  1  0  0  0  0
 13 12  1  0  0  0  0
 13 14  1  0  0  0  0
 15 14  1  0  0  0  0
 16 17  1  0  0  0  0
 16 15  1  0  0  0  0
 17 11  1  6  0  0  0
 17 13  1  0  0  0  0
 18 21  1  0  0  0  0
 18 19  1  0  0  0  0
 20 18  1  0  0  0  0
 21 26  1  0  0  0  0
 22 21  2  0  0  0  0
 22 23  1  0  0  0  0
 23 24  2  0  0  0  0
 24 25  1  0  0  0  0
 25 29  1  0  0  0  0
 26 25  2  0  0  0  0
 27 22  1  0  0  0  0
 28 23  1  0  0  0  0
M  END
>  <minimizedAffinity>
-4.87311602

$$$$

 OpenBabel03242518163D

 29 31  0  0  1  0  0  0  0  0999 V2000
   36.5790   30.8050   40.9150 C   0  0  0  0  0  0  0  0  0  0  0  0
   36.6220   31.6610   41.6380 H   0  0  0  0  0  0  0  0  0  0  0  0
   35.4760   30.7810   40.6490 H   0  0  0  0  0  0  0  0  0  0  0  0
   36.8850   29.6040   41.5950 C   0  0  0  0  0  0  0  0  0  0  0  0
   36.3280   28.3100   41.7240 C   0  0  0  0  0  0  0  0  0  0  0  0
   36.9090   27.3770   42.5080 C   0  0  0  0  0  0  0  0  0  0  0  0
   38.1160   27.7540   43.2050 C   0  0  0  0  0  0  0  0  0  0  0  0
   38.3970   29.4620   42.7140 S   0  0  0  0  0  0  0  0  0  0  0  0
   35.4350   28.2190   41.1340 H   0  0  0  0  0  0  0  0  0  0  0  0
   36.4640   26.3960   42.5910 H   0  0  0  0  0  0  0  0  0  0  0  0
   38.7780   26.9750   43.9830 O   0  0  0  0  0  0  0  0  0  0  0  0
   39.7950   27.0760   41.7890 H   0  0  0  0  0  0  0  0  0  0  0  0
   40.0440   26.1620   42.2030 N   0  0  0  0  0  0  0  0  0  0  0  0
   41.4590   25.9450   42.0000 C   0  0  0  0  0  2  0  0  0  0  0  0
   42.0910   26.9880   42.8900 C   0  0  0  0  0  2  0  0  0  0  0  0
   41.1420   27.0440   44.0540 C   0  0  0  0  0  2  0  0  0  0  0  0
   39.9260   26.2410   43.6320 C   0  0  1  0  0  3  0  0  0  0  0  0
   37.3690   31.1440   39.7170 C   0  0  0  0  0  0  0  0  0  0  0  0
   36.7200   31.3170   38.8100 H   0  0  0  0  0  0  0  0  0  0  0  0
   38.0410   30.3150   39.4050 H   0  0  0  0  0  0  0  0  0  0  0  0
   38.1890   32.3320   39.9580 C   0  0  0  0  0  0  0  0  0  0  0  0
   37.6430   33.5960   39.8460 C   0  0  0  0  0  0  0  0  0  0  0  0
   38.4790   34.6910   40.0870 C   0  0  0  0  0  0  0  0  0  0  0  0
   39.7660   34.4560   40.4150 N   0  0  0  0  0  0  0  0  0  0  0  0
   40.2530   33.2100   40.5100 C   0  0  0  0  0  0  0  0  0  0  0  0
   39.4770   32.1810   40.2870 N   0  0  0  0  0  0  0  0  0  0  0  0
   36.6180   33.7670   39.5860 H   0  0  0  0  0  0  0  0  0  0  0  0
   38.0730   35.7090   40.0070 H   0  0  0  0  0  0  0  0  0  0  0  0
   41.3000   33.1350   40.7790 H   0  0  0  0  0  0  0  0  0  0  0  0
  1  4  1  0  0  0  0
  1  2  1  0  0  0  0
  3  1  1  0  0  0  0
  4  5  2  0  0  0  0
  4  8  1  0  0  0  0
  5  6  1  0  0  0  0
  6 10  1  0  0  0  0
  6  7  2  0  0  0  0
  7 11  1  0  0  0  0
  8  7  1  0  0  0  0
  9  5  1  0  0  0  0
 12 13  1  0  0  0  0
 13 17  1  0  0  0  0
 14 13  1  0  0  0  0
 14 15  1  0  0  0  0
 15 16  1  0  0  0  0
 17 11  1  6  0  0  0
 17 16  1  0  0  0  0
 18 21  1  0  0  0  0
 18  1  1  0  0  0  0
 19 18  1  0  0  0  0
 20 18  1  0  0  0  0
 21 26  1  0  0  0  0
 22 21  2  0  0  0  0
 22 23  1  0  0  0  0
 23 24  2  0  0  0  0
 24 25  1  0  0  0  0
 25 29  1  0  0  0  0
 26 25  2  0  0  0  0
 27 22  1  0  0  0  0
 28 23  1  0  0  0  0
M  END
>  <minimizedAffinity>
-4.8572402

$$$$

 OpenBabel03242518163D

 29 31  0  0  1  0  0  0  0  0999 V2000
   37.7280   28.2490   43.6110 C   0  0  0  0  0  0  0  0  0  0  0  0
   37.2810   28.6520   44.5570 H   0  0  0  0  0  0  0  0  0  0  0  0
   38.6660   27.7400   43.9940 H   0  0  0  0  0  0  0  0  0  0  0  0
   38.1260   29.3270   42.7870 C   0  0  0  0  0  0  0  0  0  0  0  0
   39.2470   30.1810   42.6610 C   0  0  0  0  0  0  0  0  0  0  0  0
   39.2780   31.1560   41.7270 C   0  0  0  0  0  0  0  0  0  0  0  0
   38.1260   31.2880   40.8680 C   0  0  0  0  0  0  0  0  0  0  0  0
   37.0060   29.9940   41.4240 S   0  0  0  0  0  0  0  0  0  0  0  0
   40.0000   29.9310   43.3840 H   0  0  0  0  0  0  0  0  0  0  0  0
   40.1450   31.7960   41.6510 H   0  0  0  0  0  0  0  0  0  0  0  0
   38.0120   32.1650   39.9370 O   0  0  0  0  0  0  0  0  0  0  0  0
   40.3150   32.6980   39.4140 H   0  0  0  0  0  0  0  0  0  0  0  0
   39.7650   32.8290   38.5490 N   0  0  0  0  0  0  0  0  0  0  0  0
   40.4740   32.1920   37.4620 C   0  0  0  0  0  2  0  0  0  0  0  0
   40.3670   30.7250   37.8020 C   0  0  0  0  0  2  0  0  0  0  0  0
   39.0050   30.6330   38.4310 C   0  0  0  0  0  2  0  0  0  0  0  0
   38.5510   32.0660   38.6400 C   0  0  1  0  0  3  0  0  0  0  0  0
   36.8170   27.2400   43.0390 C   0  0  0  0  0  0  0  0  0  0  0  0
   36.2200   27.6430   42.1700 H   0  0  0  0  0  0  0  0  0  0  0  0
   36.0390   26.9140   43.7630 H   0  0  0  0  0  0  0  0  0  0  0  0
   37.5630   26.0580   42.6060 C   0  0  0  0  0  0  0  0  0  0  0  0
   36.9370   25.0600   41.8850 C   0  0  0  0  0  0  0  0  0  0  0  0
   37.7040   23.9540   41.5010 C   0  0  0  0  0  0  0  0  0  0  0  0
   39.0050   23.9220   41.8520 N   0  0  0  0  0  0  0  0  0  0  0  0
   39.5700   24.9160   42.5550 C   0  0  0  0  0  0  0  0  0  0  0  0
   38.8600   25.9520   42.9170 N   0  0  0  0  0  0  0  0  0  0  0  0
   35.9020   25.0990   41.6120 H   0  0  0  0  0  0  0  0  0  0  0  0
   37.2330   23.1450   40.9260 H   0  0  0  0  0  0  0  0  0  0  0  0
   40.6210   24.7890   42.7840 H   0  0  0  0  0  0  0  0  0  0  0  0
  1  3  1  0  0  0  0
  1  2  1  0  0  0  0
  4  1  1  0  0  0  0
  5  4  2  0  0  0  0
  5  9  1  0  0  0  0
  6  5  1  0  0  0  0
  7  8  1  0  0  0  0
  7  6  2  0  0  0  0
  8  4  1  0  0  0  0
 10  6  1  0  0  0  0
 11  7  1  0  0  0  0
 13 17  1  0  0  0  0
 13 12  1  0  0  0  0
 14 15  1  0  0  0  0
 14 13  1  0  0  0  0
 15 16  1  0  0  0  0
 16 17  1  0  0  0  0
 17 11  1  1  0  0  0
 18  1  1  0  0  0  0
 18 20  1  0  0  0  0
 19 18  1  0  0  0  0
 21 26  1  0  0  0  0
 21 18  1  0  0  0  0
 22 21  2  0  0  0  0
 23 24  2  0  0  0  0
 23 22  1  0  0  0  0
 24 25  1  0  0  0  0
 25 29  1  0  0  0  0
 25 26  2  0  0  0  0
 27 22  1  0  0  0  0
 28 23  1  0  0  0  0
M  END
>  <minimizedAffinity>
-4.82063866

$$$$
