
 OpenBabel03242521273D

 32 34  0  0  1  0  0  0  0  0999 V2000
   48.1420   33.5170   42.5490 C   0  0  1  0  0  0  0  0  0  0  0  0
   46.6710   33.7230   42.2750 C   0  0  2  0  0  0  0  0  0  0  0  0
   46.4670   34.6300   41.2520 O   0  0  0  0  0  0  0  0  0  0  0  0
   46.8670   34.0070   40.0850 C   0  0  0  0  0  0  0  0  0  0  0  0
   48.3750   33.9340   40.0790 C   0  0  2  0  0  0  0  0  0  0  0  0
   48.9770   33.3800   41.3250 C   0  0  2  0  0  0  0  0  0  0  0  0
   48.1910   32.5680   43.1640 H   0  0  0  0  0  0  0  0  0  0  0  0
   46.2840   32.6970   42.0340 H   0  0  0  0  0  0  0  0  0  0  0  0
   46.3740   33.0490   39.8720 H   0  0  0  0  0  0  0  0  0  0  0  0
   46.5860   34.6940   39.2350 H   0  0  0  0  0  0  0  0  0  0  0  0
   48.6850   33.2770   39.2270 H   0  0  0  0  0  0  0  0  0  0  0  0
   49.9250   33.9690   41.4980 H   0  0  0  0  0  0  0  0  0  0  0  0
   44.5700   35.7890   44.6530 C   0  0  0  0  0  0  0  0  0  0  0  0
   45.2030   35.3770   43.4710 C   0  0  0  0  0  0  0  0  0  0  0  0
   45.9840   34.1870   43.4910 C   0  0  0  0  0  0  0  0  0  0  0  0
   46.0850   33.5030   44.6510 N   0  0  0  0  0  0  0  0  0  0  0  0
   45.4500   33.9420   45.7850 C   0  0  0  0  0  0  0  0  0  0  0  0
   44.7010   35.0720   45.7850 N   0  0  0  0  0  0  0  0  0  0  0  0
   43.9640   36.6750   44.7170 H   0  0  0  0  0  0  0  0  0  0  0  0
   45.0930   35.9490   42.5830 H   0  0  0  0  0  0  0  0  0  0  0  0
   45.6000   33.3210   46.6460 H   0  0  0  0  0  0  0  0  0  0  0  0
   48.6520   34.4720   43.4400 O   0  0  0  0  0  0  0  0  0  0  0  0
   48.7970   35.3150   42.9230 H   0  0  0  0  0  0  0  0  0  0  0  0
   48.8100   35.2380   39.8270 O   0  0  0  0  0  0  0  0  0  0  0  0
   49.5020   35.2070   39.1260 H   0  0  0  0  0  0  0  0  0  0  0  0
   49.4470   32.0640   41.1680 O   0  0  0  0  0  0  0  0  0  0  0  0
   52.5820   32.2070   41.8170 H   0  0  0  0  0  0  0  0  0  0  0  0
   51.5880   32.1900   42.1390 N   0  0  0  0  0  0  0  0  0  0  0  0
   51.2980   30.9110   42.8040 C   0  0  0  0  0  0  0  0  0  0  0  0
   51.8300   29.9740   41.7300 C   0  0  0  0  0  0  0  0  0  0  0  0
   51.2720   30.6400   40.4690 C   0  0  0  0  0  0  0  0  0  0  0  0
   50.7970   32.0070   40.9170 C   0  0  1  0  0  0  0  0  0  0  0  0
  1  7  1  1  0  0  0
  1 22  1  0  0  0  0
  2  8  1  6  0  0  0
  2  1  1  0  0  0  0
  2 15  1  0  0  0  0
  3  2  1  0  0  0  0
  4  3  1  0  0  0  0
  5 11  1  6  0  0  0
  5  4  1  0  0  0  0
  5  6  1  0  0  0  0
  6 12  1  1  0  0  0
  6  1  1  0  0  0  0
  9  4  1  0  0  0  0
 10  4  1  0  0  0  0
 13 19  1  0  0  0  0
 13 18  1  0  0  0  0
 14 15  1  0  0  0  0
 14 13  2  0  0  0  0
 15 16  2  0  0  0  0
 16 17  1  0  0  0  0
 17 21  1  0  0  0  0
 18 17  2  0  0  0  0
 20 14  1  0  0  0  0
 23 22  1  0  0  0  0
 24  5  1  0  0  0  0
 25 24  1  0  0  0  0
 26  6  1  0  0  0  0
 27 28  1  0  0  0  0
 28 29  1  0  0  0  0
 30 29  1  0  0  0  0
 31 32  1  0  0  0  0
 31 30  1  0  0  0  0
 32 26  1  1  0  0  0
 32 28  1  0  0  0  0
M  END
>  <minimizedAffinity>
-5.48046923

>  <minimizedRMSD>
0.517526269

$$$$
