
 OpenBabel03252507493D

 42 44  0  0  1  0  0  0  0  0999 V2000
   48.1100   33.8660   40.3870 C   0  0  0  0  0  0  0  0  0  0  0  0
   47.2210   33.2430   40.2550 H   0  0  0  0  0  0  0  0  0  0  0  0
   48.3290   34.2890   39.3730 H   0  0  0  0  0  0  0  0  0  0  0  0
   49.2660   33.0890   40.8710 C   0  0  0  0  0  0  0  0  0  0  0  0
   49.6650   32.0000   40.1100 C   0  0  0  0  0  0  0  0  0  0  0  0
   50.7350   31.2140   40.4830 C   0  0  0  0  0  0  0  0  0  0  0  0
   51.3840   31.5700   41.6510 N   0  0  0  0  0  0  0  0  0  0  0  0
   50.9610   32.6490   42.3710 C   0  0  0  0  0  0  0  0  0  0  0  0
   49.9250   33.3790   41.9740 N   0  0  0  0  0  0  0  0  0  0  0  0
   51.0570   30.3650   39.9050 H   0  0  0  0  0  0  0  0  0  0  0  0
   51.5410   32.8440   43.2720 H   0  0  0  0  0  0  0  0  0  0  0  0
   48.7780   31.5970   38.6120 S   0  0  0  0  0  0  0  0  0  0  0  0
   49.5590   32.3770   37.1760 C   0  0  0  0  0  0  0  0  0  0  0  0
   50.4530   32.9140   37.4920 H   0  0  0  0  0  0  0  0  0  0  0  0
   49.7740   31.5610   36.4470 H   0  0  0  0  0  0  0  0  0  0  0  0
   48.5940   33.3720   36.5850 C   0  0  0  0  0  0  0  0  0  0  0  0
   48.8320   34.4170   36.8690 H   0  0  0  0  0  0  0  0  0  0  0  0
   47.5620   33.1430   36.9370 H   0  0  0  0  0  0  0  0  0  0  0  0
   48.6310   33.2210   35.1600 N   0  0  0  0  0  0  0  0  0  0  0  0
   48.2780   34.0840   34.6970 H   0  0  0  0  0  0  0  0  0  0  0  0
   48.0820   32.4080   34.8230 H   0  0  0  0  0  0  0  0  0  0  0  0
   47.7540   35.0130   41.2670 C   0  0  0  0  0  0  0  0  0  0  0  0
   48.5320   35.0460   42.0800 H   0  0  0  0  0  0  0  0  0  0  0  0
   47.8410   36.0160   40.7700 H   0  0  0  0  0  0  0  0  0  0  0  0
   46.4530   34.8530   41.9690 C   0  0  0  0  0  0  0  0  0  0  0  0
   46.0370   35.8580   42.9010 C   0  0  0  0  0  0  0  0  0  0  0  0
   44.4240   35.2290   43.4830 S   0  0  0  0  0  0  0  0  0  0  0  0
   44.5830   33.6910   42.3530 C   0  0  0  0  0  0  0  0  0  0  0  0
   45.5900   33.8880   41.8580 N   0  0  0  0  0  0  0  0  0  0  0  0
   46.5550   36.7550   43.1810 H   0  0  0  0  0  0  0  0  0  0  0  0
   43.6180   32.6940   42.2850 O   0  0  0  0  0  0  0  0  0  0  0  0
   41.4560   31.6730   41.1260 O   0  0  0  0  0  0  0  0  0  0  0  0
   42.3650   32.9130   41.1620 P   0  0  1  0  0  0  0  0  0  0  0  0
   41.4270   34.2280   41.6880 O   0  0  0  0  0  0  0  0  0  0  0  0
   41.3100   34.9070   40.9970 H   0  0  0  0  0  0  0  0  0  0  0  0
   42.9750   33.2690   39.6350 O   0  0  0  0  0  0  0  0  0  0  0  0
   41.9150   31.6870   37.5140 H   0  0  0  0  0  0  0  0  0  0  0  0
   42.8310   32.1180   37.6670 N   0  0  0  0  0  0  0  0  0  0  0  0
   43.8850   31.6670   36.7870 C   0  0  0  0  0  2  0  0  0  0  0  0
   45.1820   31.8550   37.5330 C   0  0  0  0  0  2  0  0  0  0  0  0
   44.7960   31.8280   38.9940 C   0  0  0  0  0  2  0  0  0  0  0  0
   43.3250   32.0670   39.0240 C   0  0  1  0  0  3  0  0  0  0  0  0
  1  4  1  0  0  0  0
  1 22  1  0  0  0  0
  2  1  1  0  0  0  0
  3  1  1  0  0  0  0
  4  9  1  0  0  0  0
  5  6  1  0  0  0  0
  5  4  2  0  0  0  0
  6  7  2  0  0  0  0
  7  8  1  0  0  0  0
  8 11  1  0  0  0  0
  9  8  2  0  0  0  0
 10  6  1  0  0  0  0
 12  5  1  0  0  0  0
 13 14  1  0  0  0  0
 13 12  1  0  0  0  0
 15 13  1  0  0  0  0
 16 17  1  0  0  0  0
 16 18  1  0  0  0  0
 16 13  1  0  0  0  0
 19 16  1  0  0  0  0
 20 19  1  0  0  0  0
 21 19  1  0  0  0  0
 22 25  1  0  0  0  0
 22 23  1  0  0  0  0
 24 22  1  0  0  0  0
 25 26  2  0  0  0  0
 26 30  1  0  0  0  0
 26 27  1  0  0  0  0
 28 27  1  0  0  0  0
 29 25  1  0  0  0  0
 29 28  2  0  0  0  0
 31 28  1  0  0  0  0
 33 32  2  6  0  0  0
 33 34  1  0  0  0  0
 33 31  1  0  0  0  0
 35 34  1  0  0  0  0
 36 33  1  0  0  0  0
 37 38  1  0  0  0  0
 38 42  1  0  0  0  0
 39 40  1  0  0  0  0
 39 38  1  0  0  0  0
 40 41  1  0  0  0  0
 41 42  1  0  0  0  0
 42 36  1  6  0  0  0
M  END
>  <minimizedAffinity>
-4.0416503

>  <minimizedRMSD>
2.26665902

$$$$
