
 OpenBabel03252507503D

 42 44  0  0  1  0  0  0  0  0999 V2000
   36.9940   27.4070   42.5890 C   0  0  0  0  0  0  0  0  0  0  0  0
   36.1280   27.3090   43.2500 H   0  0  0  0  0  0  0  0  0  0  0  0
   36.7500   28.2620   41.9070 H   0  0  0  0  0  0  0  0  0  0  0  0
   37.2340   26.1840   41.8020 C   0  0  0  0  0  0  0  0  0  0  0  0
   37.2960   26.3160   40.4230 C   0  0  0  0  0  0  0  0  0  0  0  0
   37.5160   25.2280   39.6040 C   0  0  0  0  0  0  0  0  0  0  0  0
   37.6700   24.0060   40.2320 N   0  0  0  0  0  0  0  0  0  0  0  0
   37.6020   23.9170   41.5920 C   0  0  0  0  0  0  0  0  0  0  0  0
   37.3890   24.9920   42.3420 N   0  0  0  0  0  0  0  0  0  0  0  0
   37.5660   25.3130   38.5320 H   0  0  0  0  0  0  0  0  0  0  0  0
   37.7380   22.9100   41.9840 H   0  0  0  0  0  0  0  0  0  0  0  0
   37.0870   27.9280   39.6790 S   0  0  0  0  0  0  0  0  0  0  0  0
   35.5580   28.7070   40.2600 C   0  0  0  0  0  0  0  0  0  0  0  0
   34.7220   28.3790   39.6430 H   0  0  0  0  0  0  0  0  0  0  0  0
   35.4450   28.4280   41.3330 H   0  0  0  0  0  0  0  0  0  0  0  0
   35.6940   30.2010   40.1150 C   0  0  0  0  0  0  0  0  0  0  0  0
   34.8670   30.6490   39.5290 H   0  0  0  0  0  0  0  0  0  0  0  0
   36.6520   30.4380   39.5990 H   0  0  0  0  0  0  0  0  0  0  0  0
   35.7380   30.7650   41.4320 N   0  0  0  0  0  0  0  0  0  0  0  0
   35.4760   31.7720   41.4020 H   0  0  0  0  0  0  0  0  0  0  0  0
   36.6670   30.6690   41.8840 H   0  0  0  0  0  0  0  0  0  0  0  0
   38.1650   27.8280   43.4080 C   0  0  0  0  0  0  0  0  0  0  0  0
   37.7510   28.3650   44.3060 H   0  0  0  0  0  0  0  0  0  0  0  0
   38.7470   26.9750   43.8480 H   0  0  0  0  0  0  0  0  0  0  0  0
   39.0520   28.8120   42.7310 C   0  0  0  0  0  0  0  0  0  0  0  0
   40.3230   28.3780   42.2360 C   0  0  0  0  0  0  0  0  0  0  0  0
   41.0180   29.9040   41.5110 S   0  0  0  0  0  0  0  0  0  0  0  0
   39.4510   30.8880   42.0060 C   0  0  0  0  0  0  0  0  0  0  0  0
   38.8340   30.0740   42.5100 N   0  0  0  0  0  0  0  0  0  0  0  0
   40.7500   27.3950   42.2840 H   0  0  0  0  0  0  0  0  0  0  0  0
   39.2860   32.2410   41.7370 O   0  0  0  0  0  0  0  0  0  0  0  0
   38.7160   31.4010   39.2820 O   0  0  0  0  0  0  0  0  0  0  0  0
   38.8150   32.6590   40.1610 P   0  0  1  0  0  0  0  0  0  0  0  0
   37.2670   33.3510   40.2540 O   0  0  0  0  0  0  0  0  0  0  0  0
   37.2190   34.2230   39.8200 H   0  0  0  0  0  0  0  0  0  0  0  0
   39.8680   33.7900   39.4940 O   0  0  0  0  0  0  0  0  0  0  0  0
   40.5950   32.6960   36.9650 H   0  0  0  0  0  0  0  0  0  0  0  0
   41.0400   33.3870   37.5760 N   0  0  0  0  0  0  0  0  0  0  0  0
   42.4090   33.7150   37.2490 C   0  0  0  0  0  2  0  0  0  0  0  0
   43.0660   34.1600   38.5320 C   0  0  0  0  0  2  0  0  0  0  0  0
   42.2550   33.5060   39.6300 C   0  0  0  0  0  2  0  0  0  0  0  0
   40.9700   33.1030   38.9910 C   0  0  1  0  0  3  0  0  0  0  0  0
  1  2  1  0  0  0  0
  1 22  1  0  0  0  0
  3  1  1  0  0  0  0
  4  9  1  0  0  0  0
  4  1  1  0  0  0  0
  5  4  2  0  0  0  0
  6  7  2  0  0  0  0
  6  5  1  0  0  0  0
  7  8  1  0  0  0  0
  8 11  1  0  0  0  0
  8  9  2  0  0  0  0
 10  6  1  0  0  0  0
 12 13  1  0  0  0  0
 12  5  1  0  0  0  0
 13 15  1  0  0  0  0
 14 13  1  0  0  0  0
 16 13  1  0  0  0  0
 16 19  1  0  0  0  0
 17 16  1  0  0  0  0
 18 16  1  0  0  0  0
 19 21  1  0  0  0  0
 20 19  1  0  0  0  0
 22 24  1  0  0  0  0
 22 23  1  0  0  0  0
 25 22  1  0  0  0  0
 26 30  1  0  0  0  0
 26 25  2  0  0  0  0
 27 28  1  0  0  0  0
 27 26  1  0  0  0  0
 28 29  2  0  0  0  0
 29 25  1  0  0  0  0
 31 28  1  0  0  0  0
 33 32  2  6  0  0  0
 33 34  1  0  0  0  0
 33 31  1  0  0  0  0
 35 34  1  0  0  0  0
 36 33  1  0  0  0  0
 37 38  1  0  0  0  0
 38 42  1  0  0  0  0
 39 38  1  0  0  0  0
 39 40  1  0  0  0  0
 40 41  1  0  0  0  0
 42 36  1  1  0  0  0
 42 41  1  0  0  0  0
M  END
>  <minimizedAffinity>
-5.57048178

$$$$

 OpenBabel03252507503D

 42 44  0  0  1  0  0  0  0  0999 V2000
   35.7390   30.2840   40.5110 C   0  0  0  0  0  0  0  0  0  0  0  0
   35.8310   30.8820   39.5990 H   0  0  0  0  0  0  0  0  0  0  0  0
   34.9360   30.7820   41.1120 H   0  0  0  0  0  0  0  0  0  0  0  0
   36.9970   30.2470   41.2800 C   0  0  0  0  0  0  0  0  0  0  0  0
   37.9560   31.2010   40.9780 C   0  0  0  0  0  0  0  0  0  0  0  0
   39.1630   31.2450   41.6440 C   0  0  0  0  0  0  0  0  0  0  0  0
   39.3610   30.2900   42.6240 N   0  0  0  0  0  0  0  0  0  0  0  0
   38.3920   29.3670   42.8910 C   0  0  0  0  0  0  0  0  0  0  0  0
   37.2430   29.3620   42.2240 N   0  0  0  0  0  0  0  0  0  0  0  0
   39.9190   31.9790   41.4220 H   0  0  0  0  0  0  0  0  0  0  0  0
   38.6480   28.6620   43.6800 H   0  0  0  0  0  0  0  0  0  0  0  0
   37.6320   32.4060   39.6980 S   0  0  0  0  0  0  0  0  0  0  0  0
   38.7070   32.1250   38.2670 C   0  0  0  0  0  0  0  0  0  0  0  0
   39.1730   33.0640   37.9700 H   0  0  0  0  0  0  0  0  0  0  0  0
   39.4450   31.3470   38.5700 H   0  0  0  0  0  0  0  0  0  0  0  0
   37.8620   31.6340   37.1200 C   0  0  0  0  0  0  0  0  0  0  0  0
   36.7760   31.7280   37.3200 H   0  0  0  0  0  0  0  0  0  0  0  0
   38.0870   30.5600   36.9270 H   0  0  0  0  0  0  0  0  0  0  0  0
   38.2240   32.3890   35.9580 N   0  0  0  0  0  0  0  0  0  0  0  0
   37.4600   32.3530   35.2520 H   0  0  0  0  0  0  0  0  0  0  0  0
   39.1060   32.0630   35.5190 H   0  0  0  0  0  0  0  0  0  0  0  0
   35.2290   28.9350   40.1390 C   0  0  0  0  0  0  0  0  0  0  0  0
   36.0860   28.2190   40.2790 H   0  0  0  0  0  0  0  0  0  0  0  0
   34.4330   28.5410   40.8250 H   0  0  0  0  0  0  0  0  0  0  0  0
   34.8390   28.8110   38.7090 C   0  0  0  0  0  0  0  0  0  0  0  0
   35.8650   28.7480   37.7120 C   0  0  0  0  0  0  0  0  0  0  0  0
   34.9130   28.6030   36.1600 S   0  0  0  0  0  0  0  0  0  0  0  0
   33.2640   28.6520   37.1320 C   0  0  0  0  0  0  0  0  0  0  0  0
   33.6450   28.7470   38.2010 N   0  0  0  0  0  0  0  0  0  0  0  0
   36.9280   28.7790   37.8540 H   0  0  0  0  0  0  0  0  0  0  0  0
   32.0180   28.5800   36.5210 O   0  0  0  0  0  0  0  0  0  0  0  0
   29.4290   29.0050   36.9360 O   0  0  0  0  0  0  0  0  0  0  0  0
   30.8210   29.6390   37.0900 P   0  0  1  0  0  0  0  0  0  0  0  0
   31.0980   29.8840   38.7480 O   0  0  0  0  0  0  0  0  0  0  0  0
   31.1520   30.8290   38.9840 H   0  0  0  0  0  0  0  0  0  0  0  0
   30.9070   31.1260   36.3080 O   0  0  0  0  0  0  0  0  0  0  0  0
   28.1700   31.5110   35.6160 H   0  0  0  0  0  0  0  0  0  0  0  0
   29.0370   31.9370   35.2780 N   0  0  0  0  0  0  0  0  0  0  0  0
   28.9180   32.7040   34.0590 C   0  0  0  0  0  2  0  0  0  0  0  0
   30.2710   32.6680   33.3910 C   0  0  0  0  0  2  0  0  0  0  0  0
   30.9290   31.4120   33.9180 C   0  0  0  0  0  2  0  0  0  0  0  0
   30.1580   31.0370   35.1370 C   0  0  1  0  0  3  0  0  0  0  0  0
  1  3  1  0  0  0  0
  1  4  1  0  0  0  0
  2  1  1  0  0  0  0
  4  9  1  0  0  0  0
  5  4  2  0  0  0  0
  5  6  1  0  0  0  0
  6  7  2  0  0  0  0
  7  8  1  0  0  0  0
  8 11  1  0  0  0  0
  9  8  2  0  0  0  0
 10  6  1  0  0  0  0
 12  5  1  0  0  0  0
 13 15  1  0  0  0  0
 13 12  1  0  0  0  0
 14 13  1  0  0  0  0
 16 17  1  0  0  0  0
 16 13  1  0  0  0  0
 18 16  1  0  0  0  0
 19 16  1  0  0  0  0
 20 19  1  0  0  0  0
 21 19  1  0  0  0  0
 22 23  1  0  0  0  0
 22  1  1  0  0  0  0
 22 24  1  0  0  0  0
 25 22  1  0  0  0  0
 26 30  1  0  0  0  0
 26 25  2  0  0  0  0
 27 28  1  0  0  0  0
 27 26  1  0  0  0  0
 28 29  2  0  0  0  0
 29 25  1  0  0  0  0
 31 33  1  0  0  0  0
 31 28  1  0  0  0  0
 33 32  2  6  0  0  0
 33 34  1  0  0  0  0
 34 35  1  0  0  0  0
 36 33  1  0  0  0  0
 38 37  1  0  0  0  0
 39 38  1  0  0  0  0
 40 41  1  0  0  0  0
 40 39  1  0  0  0  0
 41 42  1  0  0  0  0
 42 38  1  0  0  0  0
 42 36  1  1  0  0  0
M  END
>  <minimizedAffinity>
-5.22803736

$$$$

 OpenBabel03252507503D

 42 44  0  0  1  0  0  0  0  0999 V2000
   42.0010   31.1810   36.9160 C   0  0  0  0  0  0  0  0  0  0  0  0
   41.7270   30.7430   35.9520 H   0  0  0  0  0  0  0  0  0  0  0  0
   41.3140   32.0560   37.0490 H   0  0  0  0  0  0  0  0  0  0  0  0
   43.4050   31.6320   36.9430 C   0  0  0  0  0  0  0  0  0  0  0  0
   43.6520   32.9190   37.3980 C   0  0  0  0  0  0  0  0  0  0  0  0
   44.9320   33.4280   37.4590 C   0  0  0  0  0  0  0  0  0  0  0  0
   45.9490   32.5880   37.0440 N   0  0  0  0  0  0  0  0  0  0  0  0
   45.6650   31.3290   36.6020 C   0  0  0  0  0  0  0  0  0  0  0  0
   44.4160   30.8790   36.5610 N   0  0  0  0  0  0  0  0  0  0  0  0
   45.1410   34.4240   37.8100 H   0  0  0  0  0  0  0  0  0  0  0  0
   46.5370   30.7510   36.3000 H   0  0  0  0  0  0  0  0  0  0  0  0
   42.2870   33.9490   37.9190 S   0  0  0  0  0  0  0  0  0  0  0  0
   42.1350   33.9460   39.7240 C   0  0  0  0  0  0  0  0  0  0  0  0
   42.8660   33.2600   40.1520 H   0  0  0  0  0  0  0  0  0  0  0  0
   42.2760   34.9990   40.0580 H   0  0  0  0  0  0  0  0  0  0  0  0
   40.7580   33.4560   40.0900 C   0  0  0  0  0  0  0  0  0  0  0  0
   40.2380   34.1330   40.7980 H   0  0  0  0  0  0  0  0  0  0  0  0
   40.8350   32.4510   40.5650 H   0  0  0  0  0  0  0  0  0  0  0  0
   40.0050   33.3270   38.8780 N   0  0  0  0  0  0  0  0  0  0  0  0
   38.9840   33.3420   39.0830 H   0  0  0  0  0  0  0  0  0  0  0  0
   40.2310   32.4630   38.3490 H   0  0  0  0  0  0  0  0  0  0  0  0
   41.6690   30.2030   37.9890 C   0  0  0  0  0  0  0  0  0  0  0  0
   42.3220   29.3030   37.8130 H   0  0  0  0  0  0  0  0  0  0  0  0
   41.9490   30.5420   39.0210 H   0  0  0  0  0  0  0  0  0  0  0  0
   40.2720   29.6970   37.9310 C   0  0  0  0  0  0  0  0  0  0  0  0
   39.9890   28.5220   37.1640 C   0  0  0  0  0  0  0  0  0  0  0  0
   38.1900   28.3070   37.3990 S   0  0  0  0  0  0  0  0  0  0  0  0
   38.1200   29.8640   38.5120 C   0  0  0  0  0  0  0  0  0  0  0  0
   39.2130   30.1860   38.5040 N   0  0  0  0  0  0  0  0  0  0  0  0
   40.6740   27.9230   36.5950 H   0  0  0  0  0  0  0  0  0  0  0  0
   36.9470   30.3320   39.0930 O   0  0  0  0  0  0  0  0  0  0  0  0
   37.5270   32.5170   40.4880 O   0  0  0  0  0  0  0  0  0  0  0  0
   37.0830   31.0510   40.6240 P   0  0  1  0  0  0  0  0  0  0  0  0
   35.5410   31.0400   41.3360 O   0  0  0  0  0  0  0  0  0  0  0  0
   35.5410   30.6370   42.2240 H   0  0  0  0  0  0  0  0  0  0  0  0
   38.1340   30.1820   41.6100 O   0  0  0  0  0  0  0  0  0  0  0  0
   35.9240   28.4480   41.1290 H   0  0  0  0  0  0  0  0  0  0  0  0
   36.8660   28.2860   41.4970 N   0  0  0  0  0  0  0  0  0  0  0  0
   37.0740   27.0020   42.1270 C   0  0  0  0  0  2  0  0  0  0  0  0
   38.1810   27.1880   43.1340 C   0  0  0  0  0  2  0  0  0  0  0  0
   38.1500   28.6610   43.4760 C   0  0  0  0  0  2  0  0  0  0  0  0
   37.3720   29.3090   42.3820 C   0  0  1  0  0  3  0  0  0  0  0  0
  1  4  1  0  0  0  0
  1  3  1  0  0  0  0
  1 22  1  0  0  0  0
  2  1  1  0  0  0  0
  4  5  1  0  0  0  0
  5  6  2  0  0  0  0
  5 12  1  0  0  0  0
  6 10  1  0  0  0  0
  7  6  1  0  0  0  0
  8  7  2  0  0  0  0
  9  8  1  0  0  0  0
  9  4  2  0  0  0  0
 11  8  1  0  0  0  0
 12 13  1  0  0  0  0
 13 15  1  0  0  0  0
 13 16  1  0  0  0  0
 13 14  1  0  0  0  0
 16 18  1  0  0  0  0
 16 17  1  0  0  0  0
 19 20  1  0  0  0  0
 19 16  1  0  0  0  0
 21 19  1  0  0  0  0
 22 24  1  0  0  0  0
 23 22  1  0  0  0  0
 25 22  1  0  0  0  0
 25 29  1  0  0  0  0
 26 27  1  0  0  0  0
 26 25  2  0  0  0  0
 27 28  1  0  0  0  0
 28 31  1  0  0  0  0
 29 28  2  0  0  0  0
 30 26  1  0  0  0  0
 31 33  1  0  0  0  0
 33 32  2  6  0  0  0
 33 34  1  0  0  0  0
 33 36  1  0  0  0  0
 34 35  1  0  0  0  0
 37 38  1  0  0  0  0
 38 39  1  0  0  0  0
 38 42  1  0  0  0  0
 39 40  1  0  0  0  0
 40 41  1  0  0  0  0
 42 36  1  6  0  0  0
 42 41  1  0  0  0  0
M  END
>  <minimizedAffinity>
-5.09681702

$$$$

 OpenBabel03252507503D

 42 44  0  0  1  0  0  0  0  0999 V2000
   36.3090   30.1710   39.4430 C   0  0  0  0  0  0  0  0  0  0  0  0
   35.2790   30.2690   39.8000 H   0  0  0  0  0  0  0  0  0  0  0  0
   36.6940   29.2270   39.9080 H   0  0  0  0  0  0  0  0  0  0  0  0
   37.1480   31.3140   39.8490 C   0  0  0  0  0  0  0  0  0  0  0  0
   38.1910   31.0580   40.7260 C   0  0  0  0  0  0  0  0  0  0  0  0
   39.0280   32.0640   41.1620 C   0  0  0  0  0  0  0  0  0  0  0  0
   38.7710   33.3330   40.6780 N   0  0  0  0  0  0  0  0  0  0  0  0
   37.7340   33.5440   39.8160 C   0  0  0  0  0  0  0  0  0  0  0  0
   36.9520   32.5450   39.4220 N   0  0  0  0  0  0  0  0  0  0  0  0
   39.8430   31.8820   41.8420 H   0  0  0  0  0  0  0  0  0  0  0  0
   37.6190   34.5780   39.4950 H   0  0  0  0  0  0  0  0  0  0  0  0
   38.4650   29.3920   41.3120 S   0  0  0  0  0  0  0  0  0  0  0  0
   38.3190   29.3150   43.1150 C   0  0  0  0  0  0  0  0  0  0  0  0
   39.3000   29.1380   43.5550 H   0  0  0  0  0  0  0  0  0  0  0  0
   37.8620   30.2780   43.4400 H   0  0  0  0  0  0  0  0  0  0  0  0
   37.4240   28.1580   43.4770 C   0  0  0  0  0  0  0  0  0  0  0  0
   37.1080   28.1790   44.5390 H   0  0  0  0  0  0  0  0  0  0  0  0
   37.9630   27.2000   43.2940 H   0  0  0  0  0  0  0  0  0  0  0  0
   36.2800   28.2050   42.6140 N   0  0  0  0  0  0  0  0  0  0  0  0
   35.4880   27.6760   43.0350 H   0  0  0  0  0  0  0  0  0  0  0  0
   36.4710   27.8320   41.6650 H   0  0  0  0  0  0  0  0  0  0  0  0
   36.2770   29.9480   37.9710 C   0  0  0  0  0  0  0  0  0  0  0  0
   35.9630   30.9250   37.5070 H   0  0  0  0  0  0  0  0  0  0  0  0
   37.2830   29.7450   37.5170 H   0  0  0  0  0  0  0  0  0  0  0  0
   35.2600   28.9560   37.5330 C   0  0  0  0  0  0  0  0  0  0  0  0
   35.5500   27.5590   37.6630 C   0  0  0  0  0  0  0  0  0  0  0  0
   34.0390   26.7690   37.0100 S   0  0  0  0  0  0  0  0  0  0  0  0
   33.2560   28.4820   36.6660 C   0  0  0  0  0  0  0  0  0  0  0  0
   34.0860   29.1760   37.0230 N   0  0  0  0  0  0  0  0  0  0  0  0
   36.4400   27.1030   38.0510 H   0  0  0  0  0  0  0  0  0  0  0  0
   31.9900   28.6440   36.1160 O   0  0  0  0  0  0  0  0  0  0  0  0
   29.4880   29.0930   36.8880 O   0  0  0  0  0  0  0  0  0  0  0  0
   30.9160   29.6610   36.9470 P   0  0  1  0  0  0  0  0  0  0  0  0
   31.3940   29.6920   38.5770 O   0  0  0  0  0  0  0  0  0  0  0  0
   31.5180   30.5990   38.9150 H   0  0  0  0  0  0  0  0  0  0  0  0
   30.9760   31.2300   36.3420 O   0  0  0  0  0  0  0  0  0  0  0  0
   30.4900   29.3490   34.2570 H   0  0  0  0  0  0  0  0  0  0  0  0
   30.2590   30.3400   34.3650 N   0  0  0  0  0  0  0  0  0  0  0  0
   29.8190   31.0080   33.1610 C   0  0  0  0  0  2  0  0  0  0  0  0
   30.1670   32.4670   33.3240 C   0  0  0  0  0  2  0  0  0  0  0  0
   31.3110   32.4840   34.3140 C   0  0  0  0  0  2  0  0  0  0  0  0
   31.2790   31.1530   34.9850 C   0  0  1  0  0  3  0  0  0  0  0  0
  1  2  1  0  0  0  0
  1  4  1  0  0  0  0
  1  3  1  0  0  0  0
  4  5  1  0  0  0  0
  5  6  2  0  0  0  0
  5 12  1  0  0  0  0
  6 10  1  0  0  0  0
  7  6  1  0  0  0  0
  8  7  2  0  0  0  0
  9  8  1  0  0  0  0
  9  4  2  0  0  0  0
 11  8  1  0  0  0  0
 12 13  1  0  0  0  0
 13 15  1  0  0  0  0
 13 16  1  0  0  0  0
 13 14  1  0  0  0  0
 16 17  1  0  0  0  0
 18 16  1  0  0  0  0
 19 20  1  0  0  0  0
 19 16  1  0  0  0  0
 21 19  1  0  0  0  0
 22  1  1  0  0  0  0
 23 22  1  0  0  0  0
 24 22  1  0  0  0  0
 25 26  2  0  0  0  0
 25 22  1  0  0  0  0
 26 30  1  0  0  0  0
 27 26  1  0  0  0  0
 28 27  1  0  0  0  0
 28 29  2  0  0  0  0
 29 25  1  0  0  0  0
 31 28  1  0  0  0  0
 31 33  1  0  0  0  0
 33 32  2  6  0  0  0
 33 34  1  0  0  0  0
 34 35  1  0  0  0  0
 36 33  1  0  0  0  0
 37 38  1  0  0  0  0
 38 42  1  0  0  0  0
 39 40  1  0  0  0  0
 39 38  1  0  0  0  0
 40 41  1  0  0  0  0
 41 42  1  0  0  0  0
 42 36  1  1  0  0  0
M  END
>  <minimizedAffinity>
-5.05589294

$$$$

 OpenBabel03252507503D

 42 44  0  0  1  0  0  0  0  0999 V2000
   35.9070   28.5170   40.6100 C   0  0  0  0  0  0  0  0  0  0  0  0
   34.9610   27.9720   40.6810 H   0  0  0  0  0  0  0  0  0  0  0  0
   36.3460   28.2180   39.6240 H   0  0  0  0  0  0  0  0  0  0  0  0
   36.8320   28.1670   41.7030 C   0  0  0  0  0  0  0  0  0  0  0  0
   37.4160   26.9090   41.6660 C   0  0  0  0  0  0  0  0  0  0  0  0
   38.2940   26.4930   42.6450 C   0  0  0  0  0  0  0  0  0  0  0  0
   38.5590   27.3950   43.6590 N   0  0  0  0  0  0  0  0  0  0  0  0
   37.9640   28.6230   43.6600 C   0  0  0  0  0  0  0  0  0  0  0  0
   37.1240   28.9830   42.6960 N   0  0  0  0  0  0  0  0  0  0  0  0
   38.7550   25.5200   42.6310 H   0  0  0  0  0  0  0  0  0  0  0  0
   38.2410   29.2560   44.5020 H   0  0  0  0  0  0  0  0  0  0  0  0
   37.0260   25.7940   40.3240 S   0  0  0  0  0  0  0  0  0  0  0  0
   36.9200   24.0870   40.9210 C   0  0  0  0  0  0  0  0  0  0  0  0
   36.6500   24.0840   41.9770 H   0  0  0  0  0  0  0  0  0  0  0  0
   36.1710   23.5710   40.2770 H   0  0  0  0  0  0  0  0  0  0  0  0
   38.2740   23.4420   40.7770 C   0  0  0  0  0  0  0  0  0  0  0  0
   38.9770   23.7460   41.5780 H   0  0  0  0  0  0  0  0  0  0  0  0
   38.7190   23.7280   39.7970 H   0  0  0  0  0  0  0  0  0  0  0  0
   38.0830   22.0220   40.7910 N   0  0  0  0  0  0  0  0  0  0  0  0
   38.9690   21.5410   41.0510 H   0  0  0  0  0  0  0  0  0  0  0  0
   37.7480   21.6480   39.8830 H   0  0  0  0  0  0  0  0  0  0  0  0
   35.6060   29.9730   40.5280 C   0  0  0  0  0  0  0  0  0  0  0  0
   34.5760   30.0610   40.0800 H   0  0  0  0  0  0  0  0  0  0  0  0
   35.5100   30.4780   41.5260 H   0  0  0  0  0  0  0  0  0  0  0  0
   36.5030   30.7230   39.6100 C   0  0  0  0  0  0  0  0  0  0  0  0
   36.5700   30.3360   38.2330 C   0  0  0  0  0  0  0  0  0  0  0  0
   37.7710   31.5220   37.5370 S   0  0  0  0  0  0  0  0  0  0  0  0
   37.9850   32.3550   39.2480 C   0  0  0  0  0  0  0  0  0  0  0  0
   37.2760   31.7310   39.8830 N   0  0  0  0  0  0  0  0  0  0  0  0
   36.0390   29.5430   37.7430 H   0  0  0  0  0  0  0  0  0  0  0  0
   38.8340   33.4330   39.4680 O   0  0  0  0  0  0  0  0  0  0  0  0
   41.1660   34.1610   40.5120 O   0  0  0  0  0  0  0  0  0  0  0  0
   40.4850   33.0860   39.6500 P   0  0  1  0  0  0  0  0  0  0  0  0
   40.6120   31.6050   40.4720 O   0  0  0  0  0  0  0  0  0  0  0  0
   41.1760   30.9620   40.0040 H   0  0  0  0  0  0  0  0  0  0  0  0
   41.2400   32.9330   38.1530 O   0  0  0  0  0  0  0  0  0  0  0  0
   40.6870   30.3610   37.0570 H   0  0  0  0  0  0  0  0  0  0  0  0
   41.4650   31.0150   36.9340 N   0  0  0  0  0  0  0  0  0  0  0  0
   42.6340   30.4730   36.2800 C   0  0  0  0  0  2  0  0  0  0  0  0
   43.8140   31.2780   36.7670 C   0  0  0  0  0  2  0  0  0  0  0  0
   43.3800   31.8300   38.1060 C   0  0  0  0  0  2  0  0  0  0  0  0
   41.8950   31.7040   38.1280 C   0  0  1  0  0  3  0  0  0  0  0  0
  1  2  1  0  0  0  0
  1  4  1  0  0  0  0
  3  1  1  0  0  0  0
  4  9  1  0  0  0  0
  5  4  2  0  0  0  0
  5  6  1  0  0  0  0
  6  7  2  0  0  0  0
  7  8  1  0  0  0  0
  8 11  1  0  0  0  0
  9  8  2  0  0  0  0
 10  6  1  0  0  0  0
 12 13  1  0  0  0  0
 12  5  1  0  0  0  0
 13 14  1  0  0  0  0
 15 13  1  0  0  0  0
 16 19  1  0  0  0  0
 16 13  1  0  0  0  0
 16 17  1  0  0  0  0
 18 16  1  0  0  0  0
 19 20  1  0  0  0  0
 21 19  1  0  0  0  0
 22  1  1  0  0  0  0
 22 24  1  0  0  0  0
 23 22  1  0  0  0  0
 25 29  1  0  0  0  0
 25 22  1  0  0  0  0
 26 25  2  0  0  0  0
 27 26  1  0  0  0  0
 27 28  1  0  0  0  0
 28 31  1  0  0  0  0
 28 29  2  0  0  0  0
 30 26  1  0  0  0  0
 31 33  1  0  0  0  0
 33 34  1  0  0  0  0
 33 32  2  1  0  0  0
 35 34  1  0  0  0  0
 36 33  1  0  0  0  0
 38 37  1  0  0  0  0
 38 42  1  0  0  0  0
 39 40  1  0  0  0  0
 39 38  1  0  0  0  0
 40 41  1  0  0  0  0
 41 42  1  0  0  0  0
 42 36  1  6  0  0  0
M  END
>  <minimizedAffinity>
-4.95052147

$$$$

 OpenBabel03252507503D

 42 44  0  0  1  0  0  0  0  0999 V2000
   39.3870   30.1170   39.4780 C   0  0  0  0  0  0  0  0  0  0  0  0
   38.9770   29.4710   40.2600 H   0  0  0  0  0  0  0  0  0  0  0  0
   40.5000   30.0210   39.5690 H   0  0  0  0  0  0  0  0  0  0  0  0
   38.9850   31.5250   39.6530 C   0  0  0  0  0  0  0  0  0  0  0  0
   39.9970   32.4660   39.7740 C   0  0  0  0  0  0  0  0  0  0  0  0
   39.7180   33.8060   39.9410 C   0  0  0  0  0  0  0  0  0  0  0  0
   38.3810   34.1570   39.9800 N   0  0  0  0  0  0  0  0  0  0  0  0
   37.4150   33.2010   39.8580 C   0  0  0  0  0  0  0  0  0  0  0  0
   37.7300   31.9200   39.6980 N   0  0  0  0  0  0  0  0  0  0  0  0
   40.4910   34.5490   40.0360 H   0  0  0  0  0  0  0  0  0  0  0  0
   36.3960   33.5830   39.9020 H   0  0  0  0  0  0  0  0  0  0  0  0
   41.7040   31.9400   39.7140 S   0  0  0  0  0  0  0  0  0  0  0  0
   42.3880   32.1710   38.0530 C   0  0  0  0  0  0  0  0  0  0  0  0
   43.1880   31.4510   37.8830 H   0  0  0  0  0  0  0  0  0  0  0  0
   41.5390   32.0570   37.3400 H   0  0  0  0  0  0  0  0  0  0  0  0
   42.9720   33.5570   37.9610 C   0  0  0  0  0  0  0  0  0  0  0  0
   44.0810   33.5530   37.9600 H   0  0  0  0  0  0  0  0  0  0  0  0
   42.6280   34.1630   38.8300 H   0  0  0  0  0  0  0  0  0  0  0  0
   42.4730   34.1610   36.7610 N   0  0  0  0  0  0  0  0  0  0  0  0
   43.0940   34.9430   36.4650 H   0  0  0  0  0  0  0  0  0  0  0  0
   41.5030   34.5170   36.8590 H   0  0  0  0  0  0  0  0  0  0  0  0
   39.0100   29.5500   38.1540 C   0  0  0  0  0  0  0  0  0  0  0  0
   38.2120   30.2230   37.7340 H   0  0  0  0  0  0  0  0  0  0  0  0
   39.8290   29.5910   37.3870 H   0  0  0  0  0  0  0  0  0  0  0  0
   38.3900   28.2000   38.2300 C   0  0  0  0  0  0  0  0  0  0  0  0
   37.3350   27.8670   37.3210 C   0  0  0  0  0  0  0  0  0  0  0  0
   36.9170   26.1540   37.7970 S   0  0  0  0  0  0  0  0  0  0  0  0
   38.2570   26.1740   39.1640 C   0  0  0  0  0  0  0  0  0  0  0  0
   38.6780   27.2260   39.0410 N   0  0  0  0  0  0  0  0  0  0  0  0
   36.9060   28.4810   36.5540 H   0  0  0  0  0  0  0  0  0  0  0  0
   38.5110   25.0920   39.9980 O   0  0  0  0  0  0  0  0  0  0  0  0
   36.2820   23.9400   40.8720 O   0  0  0  0  0  0  0  0  0  0  0  0
   37.4420   24.8560   41.2960 P   0  0  1  0  0  0  0  0  0  0  0  0
   38.3010   24.0690   42.5320 O   0  0  0  0  0  0  0  0  0  0  0  0
   38.2350   24.5320   43.3880 H   0  0  0  0  0  0  0  0  0  0  0  0
   36.8770   26.3250   41.8890 O   0  0  0  0  0  0  0  0  0  0  0  0
   39.7020   26.3580   42.2600 H   0  0  0  0  0  0  0  0  0  0  0  0
   38.9910   27.0950   42.2760 N   0  0  0  0  0  0  0  0  0  0  0  0
   39.4240   28.3620   42.8230 C   0  0  0  0  0  2  0  0  0  0  0  0
   38.1920   29.0400   43.3700 C   0  0  0  0  0  2  0  0  0  0  0  0
   37.2280   27.9120   43.6660 C   0  0  0  0  0  2  0  0  0  0  0  0
   37.7390   26.7380   42.9010 C   0  0  1  0  0  3  0  0  0  0  0  0
  1  3  1  0  0  0  0
  1  4  1  0  0  0  0
  1  2  1  0  0  0  0
  4  9  2  0  0  0  0
  4  5  1  0  0  0  0
  5  6  2  0  0  0  0
  6  7  1  0  0  0  0
  6 10  1  0  0  0  0
  8 11  1  0  0  0  0
  8  7  2  0  0  0  0
  9  8  1  0  0  0  0
 12  5  1  0  0  0  0
 13 12  1  0  0  0  0
 14 13  1  0  0  0  0
 15 13  1  0  0  0  0
 16 13  1  0  0  0  0
 16 18  1  0  0  0  0
 17 16  1  0  0  0  0
 19 21  1  0  0  0  0
 19 16  1  0  0  0  0
 20 19  1  0  0  0  0
 22 25  1  0  0  0  0
 22  1  1  0  0  0  0
 23 22  1  0  0  0  0
 24 22  1  0  0  0  0
 25 29  1  0  0  0  0
 26 27  1  0  0  0  0
 26 25  2  0  0  0  0
 27 28  1  0  0  0  0
 28 31  1  0  0  0  0
 29 28  2  0  0  0  0
 30 26  1  0  0  0  0
 31 33  1  0  0  0  0
 33 32  2  6  0  0  0
 33 36  1  0  0  0  0
 33 34  1  0  0  0  0
 34 35  1  0  0  0  0
 37 38  1  0  0  0  0
 38 39  1  0  0  0  0
 38 42  1  0  0  0  0
 39 40  1  0  0  0  0
 40 41  1  0  0  0  0
 42 36  1  6  0  0  0
 42 41  1  0  0  0  0
M  END
>  <minimizedAffinity>
-4.93826437

$$$$

 OpenBabel03252507503D

 42 44  0  0  1  0  0  0  0  0999 V2000
   38.6290   30.6690   37.7010 C   0  0  0  0  0  0  0  0  0  0  0  0
   38.2840   30.7470   36.6660 H   0  0  0  0  0  0  0  0  0  0  0  0
   37.6990   30.6910   38.3250 H   0  0  0  0  0  0  0  0  0  0  0  0
   39.5160   31.7860   38.0760 C   0  0  0  0  0  0  0  0  0  0  0  0
   39.1870   32.5040   39.2160 C   0  0  0  0  0  0  0  0  0  0  0  0
   39.9570   33.5650   39.6450 C   0  0  0  0  0  0  0  0  0  0  0  0
   41.0670   33.8700   38.8800 N   0  0  0  0  0  0  0  0  0  0  0  0
   41.3560   33.1390   37.7640 C   0  0  0  0  0  0  0  0  0  0  0  0
   40.5870   32.1240   37.3880 N   0  0  0  0  0  0  0  0  0  0  0  0
   39.7160   34.1330   40.5270 H   0  0  0  0  0  0  0  0  0  0  0  0
   42.2520   33.4620   37.2350 H   0  0  0  0  0  0  0  0  0  0  0  0
   37.7360   32.0530   40.1570 S   0  0  0  0  0  0  0  0  0  0  0  0
   38.0830   30.6370   41.2310 C   0  0  0  0  0  0  0  0  0  0  0  0
   38.6900   29.9090   40.6920 H   0  0  0  0  0  0  0  0  0  0  0  0
   38.5880   31.0410   42.1390 H   0  0  0  0  0  0  0  0  0  0  0  0
   36.7780   29.9810   41.6000 C   0  0  0  0  0  0  0  0  0  0  0  0
   36.7290   29.7010   42.6710 H   0  0  0  0  0  0  0  0  0  0  0  0
   36.6410   29.0570   40.9930 H   0  0  0  0  0  0  0  0  0  0  0  0
   35.7240   30.8960   41.2750 N   0  0  0  0  0  0  0  0  0  0  0  0
   34.8650   30.6650   41.8160 H   0  0  0  0  0  0  0  0  0  0  0  0
   35.4940   30.9090   40.2630 H   0  0  0  0  0  0  0  0  0  0  0  0
   39.2470   29.3280   37.8910 C   0  0  0  0  0  0  0  0  0  0  0  0
   39.6670   29.0240   36.8910 H   0  0  0  0  0  0  0  0  0  0  0  0
   40.1410   29.3270   38.5700 H   0  0  0  0  0  0  0  0  0  0  0  0
   38.2750   28.2620   38.2530 C   0  0  0  0  0  0  0  0  0  0  0  0
   36.8740   28.5210   38.1140 C   0  0  0  0  0  0  0  0  0  0  0  0
   36.1150   26.9550   38.6650 S   0  0  0  0  0  0  0  0  0  0  0  0
   37.8430   26.1990   38.9960 C   0  0  0  0  0  0  0  0  0  0  0  0
   38.5200   27.0660   38.6990 N   0  0  0  0  0  0  0  0  0  0  0  0
   36.4000   29.4200   37.7690 H   0  0  0  0  0  0  0  0  0  0  0  0
   38.0300   24.9080   39.4760 O   0  0  0  0  0  0  0  0  0  0  0  0
   36.1200   23.9660   41.0640 O   0  0  0  0  0  0  0  0  0  0  0  0
   37.5210   24.5990   41.0660 P   0  0  1  0  0  0  0  0  0  0  0  0
   38.5990   23.4730   41.7410 O   0  0  0  0  0  0  0  0  0  0  0  0
   38.9700   23.7730   42.5920 H   0  0  0  0  0  0  0  0  0  0  0  0
   37.5580   26.0010   41.9960 O   0  0  0  0  0  0  0  0  0  0  0  0
   40.2470   25.2940   41.3680 H   0  0  0  0  0  0  0  0  0  0  0  0
   39.8130   26.1690   41.6750 N   0  0  0  0  0  0  0  0  0  0  0  0
   40.7310   27.1950   42.1160 C   0  0  0  0  0  2  0  0  0  0  0  0
   39.9760   28.0580   43.0970 C   0  0  0  0  0  2  0  0  0  0  0  0
   38.8820   27.1640   43.6370 C   0  0  0  0  0  2  0  0  0  0  0  0
   38.7760   26.0330   42.6710 C   0  0  1  0  0  3  0  0  0  0  0  0
  1 22  1  0  0  0  0
  1  4  1  0  0  0  0
  1  3  1  0  0  0  0
  2  1  1  0  0  0  0
  4  5  1  0  0  0  0
  5  6  2  0  0  0  0
  5 12  1  0  0  0  0
  6 10  1  0  0  0  0
  7  6  1  0  0  0  0
  8  7  2  0  0  0  0
  9  8  1  0  0  0  0
  9  4  2  0  0  0  0
 11  8  1  0  0  0  0
 12 13  1  0  0  0  0
 13 16  1  0  0  0  0
 13 15  1  0  0  0  0
 14 13  1  0  0  0  0
 16 17  1  0  0  0  0
 18 16  1  0  0  0  0
 19 16  1  0  0  0  0
 19 20  1  0  0  0  0
 21 19  1  0  0  0  0
 22 25  1  0  0  0  0
 22 24  1  0  0  0  0
 23 22  1  0  0  0  0
 25 29  1  0  0  0  0
 26 25  2  0  0  0  0
 26 27  1  0  0  0  0
 27 28  1  0  0  0  0
 28 31  1  0  0  0  0
 29 28  2  0  0  0  0
 30 26  1  0  0  0  0
 31 33  1  0  0  0  0
 33 32  2  6  0  0  0
 33 34  1  0  0  0  0
 33 36  1  0  0  0  0
 34 35  1  0  0  0  0
 37 38  1  0  0  0  0
 38 39  1  0  0  0  0
 38 42  1  0  0  0  0
 39 40  1  0  0  0  0
 40 41  1  0  0  0  0
 42 36  1  6  0  0  0
 42 41  1  0  0  0  0
M  END
>  <minimizedAffinity>
-4.91379547

$$$$

 OpenBabel03252507503D

 42 44  0  0  1  0  0  0  0  0999 V2000
   37.3370   29.7100   37.2840 C   0  0  0  0  0  0  0  0  0  0  0  0
   37.8100   29.5680   36.3080 H   0  0  0  0  0  0  0  0  0  0  0  0
   37.9140   29.0600   37.9900 H   0  0  0  0  0  0  0  0  0  0  0  0
   35.9170   29.3120   37.2760 C   0  0  0  0  0  0  0  0  0  0  0  0
   35.3300   29.0730   36.0430 C   0  0  0  0  0  0  0  0  0  0  0  0
   34.0070   28.6970   35.9360 C   0  0  0  0  0  0  0  0  0  0  0  0
   33.3040   28.5710   37.1200 N   0  0  0  0  0  0  0  0  0  0  0  0
   33.9190   28.8160   38.3140 C   0  0  0  0  0  0  0  0  0  0  0  0
   35.1960   29.1760   38.3700 N   0  0  0  0  0  0  0  0  0  0  0  0
   33.5360   28.5080   34.9860 H   0  0  0  0  0  0  0  0  0  0  0  0
   33.2770   28.6880   39.1840 H   0  0  0  0  0  0  0  0  0  0  0  0
   36.2990   29.2550   34.5520 S   0  0  0  0  0  0  0  0  0  0  0  0
   36.2260   30.9600   33.9450 C   0  0  0  0  0  0  0  0  0  0  0  0
   35.2040   31.3310   34.0170 H   0  0  0  0  0  0  0  0  0  0  0  0
   36.9480   31.5480   34.5570 H   0  0  0  0  0  0  0  0  0  0  0  0
   36.6320   30.9720   32.4940 C   0  0  0  0  0  0  0  0  0  0  0  0
   37.5130   31.6170   32.3030 H   0  0  0  0  0  0  0  0  0  0  0  0
   35.7860   31.3490   31.8750 H   0  0  0  0  0  0  0  0  0  0  0  0
   36.9080   29.6200   32.1080 N   0  0  0  0  0  0  0  0  0  0  0  0
   37.5160   29.6030   31.2620 H   0  0  0  0  0  0  0  0  0  0  0  0
   36.0510   29.0670   31.9200 H   0  0  0  0  0  0  0  0  0  0  0  0
   37.5580   31.1190   37.7130 C   0  0  0  0  0  0  0  0  0  0  0  0
   38.2880   31.5650   36.9810 H   0  0  0  0  0  0  0  0  0  0  0  0
   36.6510   31.7740   37.6220 H   0  0  0  0  0  0  0  0  0  0  0  0
   38.2040   31.2490   39.0460 C   0  0  0  0  0  0  0  0  0  0  0  0
   39.2720   32.1890   39.2130 C   0  0  0  0  0  0  0  0  0  0  0  0
   39.7210   31.9840   40.9710 S   0  0  0  0  0  0  0  0  0  0  0  0
   38.3720   30.6430   41.1900 C   0  0  0  0  0  0  0  0  0  0  0  0
   37.9310   30.6040   40.1400 N   0  0  0  0  0  0  0  0  0  0  0  0
   39.6940   32.8460   38.4770 H   0  0  0  0  0  0  0  0  0  0  0  0
   38.1350   29.9910   42.3950 O   0  0  0  0  0  0  0  0  0  0  0  0
   36.8850   28.0290   43.6760 O   0  0  0  0  0  0  0  0  0  0  0  0
   37.4500   28.4410   42.3070 P   0  0  1  0  0  0  0  0  0  0  0  0
   36.1540   28.5130   41.2110 O   0  0  0  0  0  0  0  0  0  0  0  0
   36.2150   27.8340   40.5130 H   0  0  0  0  0  0  0  0  0  0  0  0
   38.5670   27.3170   41.7420 O   0  0  0  0  0  0  0  0  0  0  0  0
   36.3100   25.8910   42.7380 H   0  0  0  0  0  0  0  0  0  0  0  0
   37.0650   25.6340   42.0970 N   0  0  0  0  0  0  0  0  0  0  0  0
   37.1810   24.2220   41.8100 C   0  0  0  0  0  2  0  0  0  0  0  0
   38.6260   23.9690   41.4560 C   0  0  0  0  0  2  0  0  0  0  0  0
   39.3910   25.0880   42.1290 C   0  0  0  0  0  2  0  0  0  0  0  0
   38.3750   26.1310   42.4480 C   0  0  1  0  0  3  0  0  0  0  0  0
  1 22  1  0  0  0  0
  1  3  1  0  0  0  0
  2  1  1  0  0  0  0
  4  1  1  0  0  0  0
  4  9  1  0  0  0  0
  5  4  2  0  0  0  0
  6  5  1  0  0  0  0
  6  7  2  0  0  0  0
  7  8  1  0  0  0  0
  8  9  2  0  0  0  0
  8 11  1  0  0  0  0
 10  6  1  0  0  0  0
 12  5  1  0  0  0  0
 13 14  1  0  0  0  0
 13 12  1  0  0  0  0
 13 15  1  0  0  0  0
 16 13  1  0  0  0  0
 17 16  1  0  0  0  0
 18 16  1  0  0  0  0
 19 16  1  0  0  0  0
 20 19  1  0  0  0  0
 21 19  1  0  0  0  0
 22 25  1  0  0  0  0
 23 22  1  0  0  0  0
 24 22  1  0  0  0  0
 25 26  2  0  0  0  0
 25 29  1  0  0  0  0
 26 27  1  0  0  0  0
 27 28  1  0  0  0  0
 28 31  1  0  0  0  0
 29 28  2  0  0  0  0
 30 26  1  0  0  0  0
 33 31  1  0  0  0  0
 33 32  2  1  0  0  0
 34 33  1  0  0  0  0
 35 34  1  0  0  0  0
 36 33  1  0  0  0  0
 38 42  1  0  0  0  0
 38 37  1  0  0  0  0
 39 38  1  0  0  0  0
 40 39  1  0  0  0  0
 40 41  1  0  0  0  0
 41 42  1  0  0  0  0
 42 36  1  6  0  0  0
M  END
>  <minimizedAffinity>
-4.88105583

$$$$

 OpenBabel03252507503D

 42 44  0  0  1  0  0  0  0  0999 V2000
   39.4600   28.0630   43.2370 C   0  0  0  0  0  0  0  0  0  0  0  0
   39.7510   28.1620   44.2860 H   0  0  0  0  0  0  0  0  0  0  0  0
   38.6140   28.7830   43.0950 H   0  0  0  0  0  0  0  0  0  0  0  0
   39.0170   26.6940   42.9100 C   0  0  0  0  0  0  0  0  0  0  0  0
   37.7130   26.5350   42.4690 C   0  0  0  0  0  0  0  0  0  0  0  0
   37.2100   25.2930   42.1400 C   0  0  0  0  0  0  0  0  0  0  0  0
   38.0750   24.2230   42.2750 N   0  0  0  0  0  0  0  0  0  0  0  0
   39.3520   24.4210   42.7130 C   0  0  0  0  0  0  0  0  0  0  0  0
   39.7950   25.6360   43.0180 N   0  0  0  0  0  0  0  0  0  0  0  0
   36.1990   25.1520   41.7960 H   0  0  0  0  0  0  0  0  0  0  0  0
   39.9490   23.5130   42.7820 H   0  0  0  0  0  0  0  0  0  0  0  0
   36.6500   27.9640   42.3200 S   0  0  0  0  0  0  0  0  0  0  0  0
   36.3400   28.3530   40.5780 C   0  0  0  0  0  0  0  0  0  0  0  0
   37.2150   28.8430   40.1510 H   0  0  0  0  0  0  0  0  0  0  0  0
   36.0900   27.3910   40.0750 H   0  0  0  0  0  0  0  0  0  0  0  0
   35.1790   29.3100   40.4980 C   0  0  0  0  0  0  0  0  0  0  0  0
   34.2780   28.9310   41.0210 H   0  0  0  0  0  0  0  0  0  0  0  0
   34.9130   29.4820   39.4300 H   0  0  0  0  0  0  0  0  0  0  0  0
   35.6000   30.5560   41.0660 N   0  0  0  0  0  0  0  0  0  0  0  0
   34.7730   31.1160   41.3600 H   0  0  0  0  0  0  0  0  0  0  0  0
   36.1810   31.1220   40.4190 H   0  0  0  0  0  0  0  0  0  0  0  0
   40.5850   28.5430   42.3880 C   0  0  0  0  0  0  0  0  0  0  0  0
   41.4350   28.7770   43.0880 H   0  0  0  0  0  0  0  0  0  0  0  0
   41.0080   27.7620   41.7020 H   0  0  0  0  0  0  0  0  0  0  0  0
   40.3000   29.8150   41.6720 C   0  0  0  0  0  0  0  0  0  0  0  0
   41.1540   30.9430   41.8910 C   0  0  0  0  0  0  0  0  0  0  0  0
   40.4150   32.2250   40.8200 S   0  0  0  0  0  0  0  0  0  0  0  0
   39.0550   31.0040   40.2460 C   0  0  0  0  0  0  0  0  0  0  0  0
   39.3410   30.0700   40.8320 N   0  0  0  0  0  0  0  0  0  0  0  0
   42.0130   31.0070   42.5290 H   0  0  0  0  0  0  0  0  0  0  0  0
   38.0560   31.3460   39.3420 O   0  0  0  0  0  0  0  0  0  0  0  0
   37.9180   31.8990   36.7480 O   0  0  0  0  0  0  0  0  0  0  0  0
   38.2320   30.7790   37.7530 P   0  0  1  0  0  0  0  0  0  0  0  0
   39.8580   30.3340   37.5420 O   0  0  0  0  0  0  0  0  0  0  0  0
   39.9580   29.4240   37.2050 H   0  0  0  0  0  0  0  0  0  0  0  0
   37.2680   29.4260   37.4830 O   0  0  0  0  0  0  0  0  0  0  0  0
   37.5220   30.1610   34.7420 H   0  0  0  0  0  0  0  0  0  0  0  0
   37.0390   29.3900   35.2110 N   0  0  0  0  0  0  0  0  0  0  0  0
   36.1020   28.6540   34.3930 C   0  0  0  0  0  2  0  0  0  0  0  0
   35.0700   28.0760   35.3300 C   0  0  0  0  0  2  0  0  0  0  0  0
   35.0970   28.9820   36.5420 C   0  0  0  0  0  2  0  0  0  0  0  0
   36.3830   29.7310   36.4520 C   0  0  1  0  0  3  0  0  0  0  0  0
  1  2  1  0  0  0  0
  3  1  1  0  0  0  0
  4  9  1  0  0  0  0
  4  1  1  0  0  0  0
  5  4  2  0  0  0  0
  6  7  2  0  0  0  0
  6  5  1  0  0  0  0
  7  8  1  0  0  0  0
  8 11  1  0  0  0  0
  8  9  2  0  0  0  0
 10  6  1  0  0  0  0
 12  5  1  0  0  0  0
 13 12  1  0  0  0  0
 14 13  1  0  0  0  0
 15 13  1  0  0  0  0
 16 13  1  0  0  0  0
 16 17  1  0  0  0  0
 16 19  1  0  0  0  0
 18 16  1  0  0  0  0
 19 20  1  0  0  0  0
 21 19  1  0  0  0  0
 22 23  1  0  0  0  0
 22  1  1  0  0  0  0
 24 22  1  0  0  0  0
 25 26  2  0  0  0  0
 25 22  1  0  0  0  0
 26 30  1  0  0  0  0
 27 26  1  0  0  0  0
 28 27  1  0  0  0  0
 28 29  2  0  0  0  0
 29 25  1  0  0  0  0
 31 28  1  0  0  0  0
 33 32  2  6  0  0  0
 33 31  1  0  0  0  0
 34 33  1  0  0  0  0
 35 34  1  0  0  0  0
 36 33  1  0  0  0  0
 37 38  1  0  0  0  0
 38 42  1  0  0  0  0
 39 38  1  0  0  0  0
 39 40  1  0  0  0  0
 40 41  1  0  0  0  0
 42 41  1  0  0  0  0
 42 36  1  1  0  0  0
M  END
>  <minimizedAffinity>
-4.84208775

$$$$
