
 OpenBabel03242523503D

 40 43  0  0  1  0  0  0  0  0999 V2000
   42.7750   34.4600   38.7660 C   0  0  1  0  0  0  0  0  0  0  0  0
   42.9790   35.2030   40.0900 C   0  0  1  0  0  0  0  0  0  0  0  0
   41.7210   35.5930   40.5910 O   0  0  0  0  0  0  0  0  0  0  0  0
   40.8230   35.9420   39.5820 C   0  0  0  0  0  0  0  0  0  0  0  0
   40.3850   34.6970   38.8100 C   0  0  2  0  0  0  0  0  0  0  0  0
   41.4990   33.6580   38.9590 C   0  0  1  0  0  0  0  0  0  0  0  0
   43.6470   33.7850   38.5780 H   0  0  0  0  0  0  0  0  0  0  0  0
   43.6310   36.0800   39.9700 H   0  0  0  0  0  0  0  0  0  0  0  0
   41.1780   36.7480   38.9360 H   0  0  0  0  0  0  0  0  0  0  0  0
   39.9260   36.3080   40.1140 H   0  0  0  0  0  0  0  0  0  0  0  0
   39.4130   34.3230   39.1350 H   0  0  0  0  0  0  0  0  0  0  0  0
   41.4620   33.3180   40.0060 H   0  0  0  0  0  0  0  0  0  0  0  0
   42.6170   35.3650   37.7180 O   0  0  0  0  0  0  0  0  0  0  0  0
   43.2950   36.0740   37.7580 H   0  0  0  0  0  0  0  0  0  0  0  0
   40.4190   35.0330   37.4380 O   0  0  0  0  0  0  0  0  0  0  0  0
   39.5430   34.8110   37.0190 H   0  0  0  0  0  0  0  0  0  0  0  0
   43.4330   34.2400   41.0010 O   0  0  0  0  0  0  0  0  0  0  0  0
   44.5480   34.3280   41.7320 C   0  0  0  0  0  0  0  0  0  0  0  0
   45.7930   34.4610   41.1230 C   0  0  0  0  0  0  0  0  0  0  0  0
   46.9200   34.5520   41.9250 C   0  0  0  0  0  0  0  0  0  0  0  0
   46.7790   34.5080   43.2970 N   0  0  0  0  0  0  0  0  0  0  0  0
   45.5630   34.3790   43.8530 C   0  0  0  0  0  0  0  0  0  0  0  0
   44.4510   34.2890   43.0820 N   0  0  0  0  0  0  0  0  0  0  0  0
   45.9080   34.4950   40.0540 H   0  0  0  0  0  0  0  0  0  0  0  0
   45.4490   34.3440   44.9290 H   0  0  0  0  0  0  0  0  0  0  0  0
   48.2920   34.6760   41.3190 C   0  0  0  0  0  0  0  0  0  0  0  0
   49.0260   35.9830   41.5120 C   0  0  0  0  0  0  0  0  0  0  0  0
   49.4520   34.6650   42.1700 C   0  0  0  0  0  0  0  0  0  0  0  0
   48.3280   34.2360   40.3020 H   0  0  0  0  0  0  0  0  0  0  0  0
   48.4920   36.7370   42.0920 H   0  0  0  0  0  0  0  0  0  0  0  0
   49.6390   36.3190   40.6550 H   0  0  0  0  0  0  0  0  0  0  0  0
   49.2460   34.6850   43.2800 H   0  0  0  0  0  0  0  0  0  0  0  0
   50.4370   34.2540   41.9070 H   0  0  0  0  0  0  0  0  0  0  0  0
   41.3450   32.6370   38.0430 O   0  0  0  0  0  0  0  0  0  0  0  0
   39.9870   32.3940   40.2450 H   0  0  0  0  0  0  0  0  0  0  0  0
   40.6090   31.5690   40.0150 N   0  0  0  0  0  0  0  0  0  0  0  0
   39.8020   30.3810   40.2540 C   0  0  0  0  0  0  0  0  0  0  0  0
   38.6520   30.6340   39.2920 C   0  0  0  0  0  0  0  0  0  0  0  0
   39.2500   31.4530   38.1610 C   0  0  0  0  0  0  0  0  0  0  0  0
   40.7110   31.5230   38.5490 C   0  0  1  0  0  0  0  0  0  0  0  0
  1  7  1  6  0  0  0
  1  6  1  0  0  0  0
  1  2  1  0  0  0  0
  2  8  1  6  0  0  0
  2  3  1  0  0  0  0
  2 17  1  0  0  0  0
  4 10  1  0  0  0  0
  4  3  1  0  0  0  0
  5  6  1  0  0  0  0
  5 11  1  1  0  0  0
  5  4  1  0  0  0  0
  6 12  1  1  0  0  0
  9  4  1  0  0  0  0
 13 14  1  0  0  0  0
 13  1  1  0  0  0  0
 15  5  1  0  0  0  0
 16 15  1  0  0  0  0
 17 18  1  0  0  0  0
 18 23  1  0  0  0  0
 19 18  2  0  0  0  0
 19 20  1  0  0  0  0
 20 21  2  0  0  0  0
 21 22  1  0  0  0  0
 22 25  1  0  0  0  0
 23 22  2  0  0  0  0
 24 19  1  0  0  0  0
 26 27  1  0  0  0  0
 26 20  1  0  0  0  0
 26 28  1  0  0  0  0
 27 30  1  0  0  0  0
 27 28  1  0  0  0  0
 28 32  1  0  0  0  0
 29 26  1  0  0  0  0
 31 27  1  0  0  0  0
 33 28  1  0  0  0  0
 34  6  1  0  0  0  0
 36 35  1  0  0  0  0
 36 37  1  0  0  0  0
 38 37  1  0  0  0  0
 39 40  1  0  0  0  0
 39 38  1  0  0  0  0
 40 34  1  6  0  0  0
 40 36  1  0  0  0  0
M  END
>  <minimizedAffinity>
-6.07121992

>  <minimizedRMSD>
0.995631218

$$$$
