
 OpenBabel03252507493D

 42 44  0  0  1  0  0  0  0  0999 V2000
   48.1470   34.9000   41.1260 C   0  0  0  0  0  0  0  0  0  0  0  0
   47.4750   34.6190   40.3090 H   0  0  0  0  0  0  0  0  0  0  0  0
   48.6050   35.8730   40.8120 H   0  0  0  0  0  0  0  0  0  0  0  0
   49.2010   33.8930   41.3480 C   0  0  0  0  0  0  0  0  0  0  0  0
   49.1620   32.7470   40.5690 C   0  0  0  0  0  0  0  0  0  0  0  0
   50.1050   31.7500   40.7050 C   0  0  0  0  0  0  0  0  0  0  0  0
   51.0870   31.9570   41.6570 N   0  0  0  0  0  0  0  0  0  0  0  0
   51.0910   33.0980   42.4050 C   0  0  0  0  0  0  0  0  0  0  0  0
   50.1610   34.0330   42.2390 N   0  0  0  0  0  0  0  0  0  0  0  0
   50.0890   30.8540   40.1080 H   0  0  0  0  0  0  0  0  0  0  0  0
   51.9060   33.1620   43.1240 H   0  0  0  0  0  0  0  0  0  0  0  0
   47.8630   32.5460   39.3570 S   0  0  0  0  0  0  0  0  0  0  0  0
   48.5500   32.5100   37.6820 C   0  0  0  0  0  0  0  0  0  0  0  0
   49.6370   32.5590   37.7310 H   0  0  0  0  0  0  0  0  0  0  0  0
   48.1750   31.5760   37.2040 H   0  0  0  0  0  0  0  0  0  0  0  0
   48.0560   33.7210   36.9330 C   0  0  0  0  0  0  0  0  0  0  0  0
   48.6990   34.6100   37.0900 H   0  0  0  0  0  0  0  0  0  0  0  0
   47.0260   33.9730   37.2730 H   0  0  0  0  0  0  0  0  0  0  0  0
   48.0030   33.3810   35.5420 N   0  0  0  0  0  0  0  0  0  0  0  0
   48.0190   34.2430   34.9590 H   0  0  0  0  0  0  0  0  0  0  0  0
   47.1680   32.8190   35.2920 H   0  0  0  0  0  0  0  0  0  0  0  0
   47.3250   35.1780   42.3360 C   0  0  0  0  0  0  0  0  0  0  0  0
   47.5970   34.3920   43.0950 H   0  0  0  0  0  0  0  0  0  0  0  0
   47.5770   36.1450   42.8480 H   0  0  0  0  0  0  0  0  0  0  0  0
   45.8620   35.0300   42.1190 C   0  0  0  0  0  0  0  0  0  0  0  0
   44.9630   35.8920   42.8260 C   0  0  0  0  0  0  0  0  0  0  0  0
   43.3240   35.3380   42.2400 S   0  0  0  0  0  0  0  0  0  0  0  0
   44.1400   34.0150   41.1200 C   0  0  0  0  0  0  0  0  0  0  0  0
   45.2430   34.1920   41.3430 N   0  0  0  0  0  0  0  0  0  0  0  0
   45.2050   36.6680   43.5260 H   0  0  0  0  0  0  0  0  0  0  0  0
   43.4130   33.1490   40.3130 O   0  0  0  0  0  0  0  0  0  0  0  0
   41.9550   32.9560   38.1000 O   0  0  0  0  0  0  0  0  0  0  0  0
   43.2280   33.5890   38.6840 P   0  0  1  0  0  0  0  0  0  0  0  0
   43.0420   35.2770   38.6270 O   0  0  0  0  0  0  0  0  0  0  0  0
   43.6700   35.7030   38.0130 H   0  0  0  0  0  0  0  0  0  0  0  0
   44.5880   33.1700   37.7860 O   0  0  0  0  0  0  0  0  0  0  0  0
   44.3250   32.4760   35.0340 H   0  0  0  0  0  0  0  0  0  0  0  0
   44.9220   32.1190   35.7860 N   0  0  0  0  0  0  0  0  0  0  0  0
   45.5990   30.8740   35.5030 C   0  0  0  0  0  2  0  0  0  0  0  0
   45.8430   30.2020   36.8320 C   0  0  0  0  0  2  0  0  0  0  0  0
   44.7860   30.7710   37.7530 C   0  0  0  0  0  2  0  0  0  0  0  0
   44.2920   32.0060   37.0810 C   0  0  1  0  0  3  0  0  0  0  0  0
  1  4  1  0  0  0  0
  1 22  1  0  0  0  0
  2  1  1  0  0  0  0
  3  1  1  0  0  0  0
  4  9  1  0  0  0  0
  5  6  1  0  0  0  0
  5  4  2  0  0  0  0
  6  7  2  0  0  0  0
  7  8  1  0  0  0  0
  8 11  1  0  0  0  0
  9  8  2  0  0  0  0
 10  6  1  0  0  0  0
 12  5  1  0  0  0  0
 13 14  1  0  0  0  0
 13 12  1  0  0  0  0
 15 13  1  0  0  0  0
 16 17  1  0  0  0  0
 16 18  1  0  0  0  0
 16 13  1  0  0  0  0
 19 16  1  0  0  0  0
 20 19  1  0  0  0  0
 21 19  1  0  0  0  0
 22 24  1  0  0  0  0
 22 23  1  0  0  0  0
 25 22  1  0  0  0  0
 25 26  2  0  0  0  0
 26 30  1  0  0  0  0
 27 26  1  0  0  0  0
 28 29  2  0  0  0  0
 28 27  1  0  0  0  0
 29 25  1  0  0  0  0
 31 28  1  0  0  0  0
 33 32  2  6  0  0  0
 33 31  1  0  0  0  0
 34 33  1  0  0  0  0
 35 34  1  0  0  0  0
 36 33  1  0  0  0  0
 37 38  1  0  0  0  0
 38 42  1  0  0  0  0
 39 38  1  0  0  0  0
 39 40  1  0  0  0  0
 40 41  1  0  0  0  0
 42 41  1  0  0  0  0
 42 36  1  1  0  0  0
M  END
>  <minimizedAffinity>
-4.35978031

>  <minimizedRMSD>
1.79845595

$$$$
