
 OpenBabel03252501343D

 22 23  0  0  1  0  0  0  0  0999 V2000
   45.7100   34.4850   43.8390 C   0  0  0  0  0  0  0  0  0  0  0  0
   45.1380   34.5760   45.0830 C   0  0  0  0  0  0  0  0  0  0  0  0
   45.6320   33.7070   46.0410 C   0  0  0  0  0  0  0  0  0  0  0  0
   46.6150   32.8590   45.6840 N   0  0  0  0  0  0  0  0  0  0  0  0
   47.1500   32.7990   44.4600 C   0  0  0  0  0  0  0  0  0  0  0  0
   46.6970   33.6290   43.4950 N   0  0  0  0  0  0  0  0  0  0  0  0
   45.1860   33.7740   47.0240 H   0  0  0  0  0  0  0  0  0  0  0  0
   47.9420   32.0810   44.2640 H   0  0  0  0  0  0  0  0  0  0  0  0
   44.4360   34.5520   41.8630 C   0  0  0  0  0  0  0  0  0  0  0  0
   44.2120   33.4020   42.3210 O   0  0  0  0  0  0  0  0  0  0  0  0
   45.3430   35.2970   42.6840 N   0  0  0  0  0  0  0  0  0  0  0  0
   45.6480   36.2540   42.4410 H   0  0  0  0  0  0  0  0  0  0  0  0
   43.9080   35.1190   40.6980 O   0  0  0  0  0  0  0  0  0  0  0  0
   42.5290   33.2480   39.5460 H   0  0  0  0  0  0  0  0  0  0  0  0
   42.1560   33.6420   40.4320 N   0  0  0  0  0  0  0  0  0  0  0  0
   40.7050   33.7110   40.4390 C   0  0  0  0  0  2  0  0  0  0  0  0
   40.4450   34.6450   41.5910 C   0  0  0  0  0  2  0  0  0  0  0  0
   41.7260   35.4700   41.7360 C   0  0  0  0  0  2  0  0  0  0  0  0
   42.4850   35.0670   40.5030 C   0  0  1  0  0  3  0  0  0  0  0  0
   44.1200   35.5300   45.2560 N   0  0  0  0  0  0  0  0  0  0  0  0
   44.2350   36.5010   44.9610 H   0  0  0  0  0  0  0  0  0  0  0  0
   43.2920   35.0840   45.7090 H   0  0  0  0  0  0  0  0  0  0  0  0
  1  2  1  0  0  0  0
  2 20  1  0  0  0  0
  2  3  2  0  0  0  0
  3  7  1  0  0  0  0
  4  3  1  0  0  0  0
  5  4  2  0  0  0  0
  6  1  2  0  0  0  0
  6  5  1  0  0  0  0
  8  5  1  0  0  0  0
  9 10  2  0  0  0  0
  9 11  1  0  0  0  0
 11  1  1  0  0  0  0
 12 11  1  0  0  0  0
 13  9  1  0  0  0  0
 14 15  1  0  0  0  0
 15 16  1  0  0  0  0
 15 19  1  0  0  0  0
 16 17  1  0  0  0  0
 17 18  1  0  0  0  0
 19 13  1  1  0  0  0
 19 18  1  0  0  0  0
 20 22  1  0  0  0  0
 21 20  1  0  0  0  0
M  END
>  <minimizedAffinity>
-4.60640955

>  <minimizedRMSD>
0.956320047

$$$$
