
 OpenBabel03252504223D

 29 32  0  0  1  0  0  0  0  0999 V2000
   48.8660   32.6490   40.0630 C   0  0  0  0  0  0  0  0  0  0  0  0
   50.0700   32.2510   40.6430 C   0  0  0  0  0  0  0  0  0  0  0  0
   50.2710   32.4890   42.0270 C   0  0  0  0  0  0  0  0  0  0  0  0
   49.2530   33.1030   42.7030 N   0  0  0  0  0  0  0  0  0  0  0  0
   48.1000   33.4730   42.0990 C   0  0  0  0  0  0  0  0  0  0  0  0
   47.9190   33.2460   40.7990 N   0  0  0  0  0  0  0  0  0  0  0  0
   47.0920   34.1070   42.8860 N   0  0  0  0  0  0  0  0  0  0  0  0
   46.3670   35.1820   42.5460 C   0  0  0  0  0  0  0  0  0  0  0  0
   45.5210   35.4700   43.5710 N   0  0  0  0  0  0  0  0  0  0  0  0
   45.7450   34.5650   44.5210 C   0  0  0  0  0  0  0  0  0  0  0  0
   45.2210   34.3270   45.7690 C   0  0  0  0  0  0  0  0  0  0  0  0
   45.6150   33.3380   46.5530 N   0  0  0  0  0  0  0  0  0  0  0  0
   46.5840   32.4730   46.1640 C   0  0  0  0  0  0  0  0  0  0  0  0
   47.1000   32.7010   44.9440 N   0  0  0  0  0  0  0  0  0  0  0  0
   46.7350   33.6890   44.1160 C   0  0  0  0  0  0  0  0  0  0  0  0
   50.8660   31.7690   40.1070 H   0  0  0  0  0  0  0  0  0  0  0  0
   51.1790   32.2040   42.5330 H   0  0  0  0  0  0  0  0  0  0  0  0
   46.3980   35.7630   41.6350 H   0  0  0  0  0  0  0  0  0  0  0  0
   46.9430   31.6490   46.7640 H   0  0  0  0  0  0  0  0  0  0  0  0
   44.2020   35.1430   46.3200 N   0  0  0  0  0  0  0  0  0  0  0  0
   43.3490   34.7250   46.7650 H   0  0  0  0  0  0  0  0  0  0  0  0
   44.2100   36.1960   46.3300 H   0  0  0  0  0  0  0  0  0  0  0  0
   48.7360   32.2910   38.3160 S   0  0  0  0  0  0  0  0  0  0  0  0
   46.0830   33.5520   39.0870 H   0  0  0  0  0  0  0  0  0  0  0  0
   46.2740   33.3960   38.0940 N   0  0  0  0  0  0  0  0  0  0  0  0
   45.0360   33.1710   37.3400 C   0  0  0  0  0  2  0  0  0  0  0  0
   45.4730   32.5810   36.0390 C   0  0  0  0  0  2  0  0  0  0  0  0
   46.8960   32.1220   36.2790 C   0  0  0  0  0  2  0  0  0  0  0  0
   47.0120   32.2150   37.7820 C   0  0  1  0  0  3  0  0  0  0  0  0
  1  2  2  0  0  0  0
  1  6  1  0  0  0  0
  2  3  1  0  0  0  0
  3 17  1  0  0  0  0
  3  4  2  0  0  0  0
  5  4  1  0  0  0  0
  5  7  1  0  0  0  0
  6  5  2  0  0  0  0
  7 15  1  0  0  0  0
  8  7  1  0  0  0  0
  8  9  2  0  0  0  0
  9 10  1  0  0  0  0
 10 11  1  0  0  0  0
 11 20  1  0  0  0  0
 11 12  2  0  0  0  0
 13 12  1  0  0  0  0
 13 19  1  0  0  0  0
 14 13  2  0  0  0  0
 15 10  2  0  0  0  0
 15 14  1  0  0  0  0
 16  2  1  0  0  0  0
 18  8  1  0  0  0  0
 20 22  1  0  0  0  0
 20 21  1  0  0  0  0
 23  1  1  0  0  0  0
 25 24  1  0  0  0  0
 26 25  1  0  0  0  0
 27 28  1  0  0  0  0
 27 26  1  0  0  0  0
 28 29  1  0  0  0  0
 29 25  1  0  0  0  0
 29 23  1  6  0  0  0
M  END
>  <minimizedAffinity>
-5.80663443

>  <minimizedRMSD>
1.56977522

$$$$
