
 OpenBabel03252501343D

 22 23  0  0  1  0  0  0  0  0999 V2000
   45.5290   34.6870   44.2050 C   0  0  0  0  0  0  0  0  0  0  0  0
   45.2820   34.4190   45.5280 C   0  0  0  0  0  0  0  0  0  0  0  0
   46.0650   33.4300   46.1000 C   0  0  0  0  0  0  0  0  0  0  0  0
   46.9870   32.8230   45.3290 N   0  0  0  0  0  0  0  0  0  0  0  0
   47.2000   33.1120   44.0420 C   0  0  0  0  0  0  0  0  0  0  0  0
   46.4580   34.0700   43.4430 N   0  0  0  0  0  0  0  0  0  0  0  0
   45.8770   33.2130   47.1430 H   0  0  0  0  0  0  0  0  0  0  0  0
   47.9680   32.5680   43.4980 H   0  0  0  0  0  0  0  0  0  0  0  0
   43.9520   35.0080   42.4900 C   0  0  0  0  0  0  0  0  0  0  0  0
   44.0330   33.7570   42.5870 O   0  0  0  0  0  0  0  0  0  0  0  0
   44.8240   35.6820   43.4040 N   0  0  0  0  0  0  0  0  0  0  0  0
   44.8940   36.7130   43.4420 H   0  0  0  0  0  0  0  0  0  0  0  0
   43.1370   35.7400   41.6200 O   0  0  0  0  0  0  0  0  0  0  0  0
   41.6750   33.8360   42.6030 H   0  0  0  0  0  0  0  0  0  0  0  0
   41.1870   34.6010   42.0940 N   0  0  0  0  0  0  0  0  0  0  0  0
   40.0330   34.1260   41.3520 C   0  0  0  0  0  2  0  0  0  0  0  0
   39.7650   35.2830   40.4260 C   0  0  0  0  0  2  0  0  0  0  0  0
   41.0990   36.0190   40.3030 C   0  0  0  0  0  2  0  0  0  0  0  0
   42.0340   35.0650   40.9930 C   0  0  1  0  0  3  0  0  0  0  0  0
   44.2730   35.1650   46.1610 N   0  0  0  0  0  0  0  0  0  0  0  0
   44.2370   36.1840   46.1000 H   0  0  0  0  0  0  0  0  0  0  0  0
   43.6210   34.5220   46.6620 H   0  0  0  0  0  0  0  0  0  0  0  0
  1  2  1  0  0  0  0
  2  3  2  0  0  0  0
  2 20  1  0  0  0  0
  3  7  1  0  0  0  0
  4  3  1  0  0  0  0
  5  4  2  0  0  0  0
  6  5  1  0  0  0  0
  6  1  2  0  0  0  0
  8  5  1  0  0  0  0
  9 10  2  0  0  0  0
  9 11  1  0  0  0  0
 11 12  1  0  0  0  0
 11  1  1  0  0  0  0
 13  9  1  0  0  0  0
 15 14  1  0  0  0  0
 16 15  1  0  0  0  0
 17 16  1  0  0  0  0
 18 17  1  0  0  0  0
 18 19  1  0  0  0  0
 19 13  1  1  0  0  0
 19 15  1  0  0  0  0
 20 22  1  0  0  0  0
 21 20  1  0  0  0  0
M  END
>  <minimizedAffinity>
-5.15029907

>  <minimizedRMSD>
0.796827555

$$$$
