
 OpenBabel03252504223D

 29 32  0  0  1  0  0  0  0  0999 V2000
   47.6800   33.5180   40.1940 C   0  0  0  0  0  0  0  0  0  0  0  0
   49.0270   33.2310   40.4110 C   0  0  0  0  0  0  0  0  0  0  0  0
   49.5210   33.2520   41.7410 C   0  0  0  0  0  0  0  0  0  0  0  0
   48.6260   33.5570   42.7290 N   0  0  0  0  0  0  0  0  0  0  0  0
   47.3250   33.8300   42.4710 C   0  0  0  0  0  0  0  0  0  0  0  0
   46.8700   33.8080   41.2190 N   0  0  0  0  0  0  0  0  0  0  0  0
   46.4640   34.1370   43.5660 N   0  0  0  0  0  0  0  0  0  0  0  0
   45.5520   35.1180   43.6190 C   0  0  0  0  0  0  0  0  0  0  0  0
   44.9460   35.0750   44.8360 N   0  0  0  0  0  0  0  0  0  0  0  0
   45.4990   34.0660   45.5060 C   0  0  0  0  0  0  0  0  0  0  0  0
   45.3210   33.5280   46.7580 C   0  0  0  0  0  0  0  0  0  0  0  0
   46.0080   32.4960   47.2160 N   0  0  0  0  0  0  0  0  0  0  0  0
   46.9560   31.8880   46.4610 C   0  0  0  0  0  0  0  0  0  0  0  0
   47.1350   32.4110   45.2350 N   0  0  0  0  0  0  0  0  0  0  0  0
   46.4650   33.4540   44.7280 C   0  0  0  0  0  0  0  0  0  0  0  0
   49.7260   32.9910   39.6320 H   0  0  0  0  0  0  0  0  0  0  0  0
   50.5510   33.0380   41.9750 H   0  0  0  0  0  0  0  0  0  0  0  0
   45.2940   35.8470   42.8650 H   0  0  0  0  0  0  0  0  0  0  0  0
   47.5460   31.0430   46.7860 H   0  0  0  0  0  0  0  0  0  0  0  0
   44.3700   34.0520   47.6680 N   0  0  0  0  0  0  0  0  0  0  0  0
   43.7050   33.4250   48.1840 H   0  0  0  0  0  0  0  0  0  0  0  0
   44.2510   35.0720   47.8970 H   0  0  0  0  0  0  0  0  0  0  0  0
   47.1830   33.4570   38.4770 S   0  0  0  0  0  0  0  0  0  0  0  0
   45.0350   33.2660   36.3390 H   0  0  0  0  0  0  0  0  0  0  0  0
   45.2040   32.4480   36.9290 N   0  0  0  0  0  0  0  0  0  0  0  0
   43.9870   31.6450   37.0920 C   0  0  0  0  0  2  0  0  0  0  0  0
   44.2640   30.7480   38.2540 C   0  0  0  0  0  2  0  0  0  0  0  0
   45.4600   31.3660   38.9450 C   0  0  0  0  0  2  0  0  0  0  0  0
   45.5440   32.7230   38.2880 C   0  0  1  0  0  3  0  0  0  0  0  0
  1  2  2  0  0  0  0
  1  6  1  0  0  0  0
  2  3  1  0  0  0  0
  3 17  1  0  0  0  0
  3  4  2  0  0  0  0
  5  4  1  0  0  0  0
  5  7  1  0  0  0  0
  6  5  2  0  0  0  0
  7  8  1  0  0  0  0
  7 15  1  0  0  0  0
  8  9  2  0  0  0  0
  9 10  1  0  0  0  0
 10 11  1  0  0  0  0
 11 12  2  0  0  0  0
 11 20  1  0  0  0  0
 13 19  1  0  0  0  0
 13 12  1  0  0  0  0
 14 13  2  0  0  0  0
 15 14  1  0  0  0  0
 15 10  2  0  0  0  0
 16  2  1  0  0  0  0
 18  8  1  0  0  0  0
 20 22  1  0  0  0  0
 20 21  1  0  0  0  0
 23  1  1  0  0  0  0
 24 25  1  0  0  0  0
 25 26  1  0  0  0  0
 25 29  1  0  0  0  0
 26 27  1  0  0  0  0
 27 28  1  0  0  0  0
 29 23  1  6  0  0  0
 29 28  1  0  0  0  0
M  END
>  <minimizedAffinity>
-5.30795383

>  <minimizedRMSD>
0.951752365

$$$$
