
 OpenBabel03252504233D

 29 32  0  0  1  0  0  0  0  0999 V2000
   37.3660   26.4390   42.1690 C   0  0  0  0  0  0  0  0  0  0  0  0
   37.1010   27.1330   43.3490 C   0  0  0  0  0  0  0  0  0  0  0  0
   37.3770   28.5240   43.3980 C   0  0  0  0  0  0  0  0  0  0  0  0
   37.8920   29.0920   42.2660 N   0  0  0  0  0  0  0  0  0  0  0  0
   38.1340   28.3790   41.1410 C   0  0  0  0  0  0  0  0  0  0  0  0
   37.8720   27.0730   41.1040 N   0  0  0  0  0  0  0  0  0  0  0  0
   38.6720   29.0580   40.0080 N   0  0  0  0  0  0  0  0  0  0  0  0
   39.6620   28.6310   39.2120 C   0  0  0  0  0  0  0  0  0  0  0  0
   39.8760   29.5700   38.2510 N   0  0  0  0  0  0  0  0  0  0  0  0
   39.0110   30.5560   38.4770 C   0  0  0  0  0  0  0  0  0  0  0  0
   38.7370   31.7570   37.8690 C   0  0  0  0  0  0  0  0  0  0  0  0
   37.8040   32.5950   38.2870 N   0  0  0  0  0  0  0  0  0  0  0  0
   37.0380   32.3140   39.3690 C   0  0  0  0  0  0  0  0  0  0  0  0
   37.3020   31.1400   39.9690 N   0  0  0  0  0  0  0  0  0  0  0  0
   38.2350   30.2600   39.5840 C   0  0  0  0  0  0  0  0  0  0  0  0
   36.6950   26.6820   44.2350 H   0  0  0  0  0  0  0  0  0  0  0  0
   37.1930   29.1150   44.2800 H   0  0  0  0  0  0  0  0  0  0  0  0
   40.2310   27.7140   39.2670 H   0  0  0  0  0  0  0  0  0  0  0  0
   36.2630   32.9630   39.7530 H   0  0  0  0  0  0  0  0  0  0  0  0
   39.4520   32.1960   36.7260 N   0  0  0  0  0  0  0  0  0  0  0  0
   38.9550   32.5720   35.8820 H   0  0  0  0  0  0  0  0  0  0  0  0
   40.5000   32.1830   36.6270 H   0  0  0  0  0  0  0  0  0  0  0  0
   36.9730   24.6960   42.2360 S   0  0  0  0  0  0  0  0  0  0  0  0
   38.9860   22.5410   41.5130 H   0  0  0  0  0  0  0  0  0  0  0  0
   38.0860   22.5450   41.0250 N   0  0  0  0  0  0  0  0  0  0  0  0
   38.2080   21.9900   39.6730 C   0  0  0  0  0  2  0  0  0  0  0  0
   36.9630   22.4140   38.9640 C   0  0  0  0  0  2  0  0  0  0  0  0
   36.3910   23.5270   39.8150 C   0  0  0  0  0  2  0  0  0  0  0  0
   37.5350   23.8330   40.7520 C   0  0  1  0  0  3  0  0  0  0  0  0
  1 23  1  0  0  0  0
  1  2  1  0  0  0  0
  2  3  2  0  0  0  0
  2 16  1  0  0  0  0
  3 17  1  0  0  0  0
  4  3  1  0  0  0  0
  5  4  2  0  0  0  0
  6  5  1  0  0  0  0
  6  1  2  0  0  0  0
  7  5  1  0  0  0  0
  8 18  1  0  0  0  0
  8  7  1  0  0  0  0
  9 10  1  0  0  0  0
  9  8  2  0  0  0  0
 10 15  1  0  0  0  0
 11 12  1  0  0  0  0
 11 10  2  0  0  0  0
 12 13  2  0  0  0  0
 13 19  1  0  0  0  0
 13 14  1  0  0  0  0
 15 14  2  0  0  0  0
 15  7  1  0  0  0  0
 20 11  1  0  0  0  0
 21 20  1  0  0  0  0
 22 20  1  0  0  0  0
 25 24  1  0  0  0  0
 26 25  1  0  0  0  0
 27 26  1  0  0  0  0
 27 28  1  0  0  0  0
 28 29  1  0  0  0  0
 29 25  1  0  0  0  0
 29 23  1  1  0  0  0
M  END
>  <minimizedAffinity>
-5.72415733

$$$$

 OpenBabel03252504233D

 29 32  0  0  1  0  0  0  0  0999 V2000
   36.9060   25.2480   40.4190 C   0  0  0  0  0  0  0  0  0  0  0  0
   36.3720   24.7990   39.2120 C   0  0  0  0  0  0  0  0  0  0  0  0
   35.8530   25.7540   38.3000 C   0  0  0  0  0  0  0  0  0  0  0  0
   35.9150   27.0670   38.6770 N   0  0  0  0  0  0  0  0  0  0  0  0
   36.4420   27.4580   39.8610 C   0  0  0  0  0  0  0  0  0  0  0  0
   36.9280   26.5540   40.7120 N   0  0  0  0  0  0  0  0  0  0  0  0
   36.4650   28.8510   40.1690 N   0  0  0  0  0  0  0  0  0  0  0  0
   36.1460   29.4180   41.3400 C   0  0  0  0  0  0  0  0  0  0  0  0
   36.2970   30.7650   41.2200 N   0  0  0  0  0  0  0  0  0  0  0  0
   36.7070   30.9960   39.9740 C   0  0  0  0  0  0  0  0  0  0  0  0
   37.0260   32.1250   39.2580 C   0  0  0  0  0  0  0  0  0  0  0  0
   37.4190   32.1050   37.9960 N   0  0  0  0  0  0  0  0  0  0  0  0
   37.5360   30.9410   37.3120 C   0  0  0  0  0  0  0  0  0  0  0  0
   37.2250   29.8330   38.0080 N   0  0  0  0  0  0  0  0  0  0  0  0
   36.8220   29.8030   39.2850 C   0  0  0  0  0  0  0  0  0  0  0  0
   36.3260   23.7670   38.9200 H   0  0  0  0  0  0  0  0  0  0  0  0
   35.4280   25.4700   37.3510 H   0  0  0  0  0  0  0  0  0  0  0  0
   35.8200   28.9490   42.2570 H   0  0  0  0  0  0  0  0  0  0  0  0
   37.8530   30.8680   36.2810 H   0  0  0  0  0  0  0  0  0  0  0  0
   36.9520   33.4190   39.8310 N   0  0  0  0  0  0  0  0  0  0  0  0
   37.7370   34.1070   39.7270 H   0  0  0  0  0  0  0  0  0  0  0  0
   36.1390   33.7880   40.3880 H   0  0  0  0  0  0  0  0  0  0  0  0
   37.5280   23.9470   41.4780 S   0  0  0  0  0  0  0  0  0  0  0  0
   39.9650   24.9810   39.9900 H   0  0  0  0  0  0  0  0  0  0  0  0
   39.9000   25.1610   40.9960 N   0  0  0  0  0  0  0  0  0  0  0  0
   41.2280   25.2520   41.6100 C   0  0  0  0  0  2  0  0  0  0  0  0
   40.9890   25.1170   43.0790 C   0  0  0  0  0  2  0  0  0  0  0  0
   39.5910   24.5480   43.1940 C   0  0  0  0  0  2  0  0  0  0  0  0
   39.3000   24.1250   41.7740 C   0  0  1  0  0  3  0  0  0  0  0  0
  1  6  1  0  0  0  0
  1 23  1  0  0  0  0
  2  1  2  0  0  0  0
  3  4  2  0  0  0  0
  3  2  1  0  0  0  0
  4  5  1  0  0  0  0
  5  7  1  0  0  0  0
  5  6  2  0  0  0  0
  7  8  1  0  0  0  0
  8 18  1  0  0  0  0
  9  8  2  0  0  0  0
 10  9  1  0  0  0  0
 11 20  1  0  0  0  0
 11 10  2  0  0  0  0
 12 11  1  0  0  0  0
 13 12  2  0  0  0  0
 13 14  1  0  0  0  0
 14 15  2  0  0  0  0
 15 10  1  0  0  0  0
 15  7  1  0  0  0  0
 16  2  1  0  0  0  0
 17  3  1  0  0  0  0
 19 13  1  0  0  0  0
 20 22  1  0  0  0  0
 21 20  1  0  0  0  0
 24 25  1  0  0  0  0
 25 26  1  0  0  0  0
 25 29  1  0  0  0  0
 26 27  1  0  0  0  0
 27 28  1  0  0  0  0
 29 23  1  1  0  0  0
 29 28  1  0  0  0  0
M  END
>  <minimizedAffinity>
-5.67819977

$$$$

 OpenBabel03252504233D

 29 32  0  0  1  0  0  0  0  0999 V2000
   34.0270   28.9210   36.2080 C   0  0  0  0  0  0  0  0  0  0  0  0
   34.8130   28.0370   35.4690 C   0  0  0  0  0  0  0  0  0  0  0  0
   35.9980   27.5260   36.0580 C   0  0  0  0  0  0  0  0  0  0  0  0
   36.2900   27.9450   37.3270 N   0  0  0  0  0  0  0  0  0  0  0  0
   35.4970   28.8060   38.0060 C   0  0  0  0  0  0  0  0  0  0  0  0
   34.3850   29.2810   37.4470 N   0  0  0  0  0  0  0  0  0  0  0  0
   35.8810   29.1860   39.3270 N   0  0  0  0  0  0  0  0  0  0  0  0
   35.8520   30.4210   39.8460 C   0  0  0  0  0  0  0  0  0  0  0  0
   36.2990   30.3580   41.1300 N   0  0  0  0  0  0  0  0  0  0  0  0
   36.5940   29.0820   41.3720 C   0  0  0  0  0  0  0  0  0  0  0  0
   37.0790   28.3940   42.4580 C   0  0  0  0  0  0  0  0  0  0  0  0
   37.2970   27.0900   42.4610 N   0  0  0  0  0  0  0  0  0  0  0  0
   37.0510   26.3310   41.3660 C   0  0  0  0  0  0  0  0  0  0  0  0
   36.5770   26.9990   40.3000 N   0  0  0  0  0  0  0  0  0  0  0  0
   36.3400   28.3160   40.2480 C   0  0  0  0  0  0  0  0  0  0  0  0
   34.5790   27.7110   34.4730 H   0  0  0  0  0  0  0  0  0  0  0  0
   36.6470   26.8390   35.5390 H   0  0  0  0  0  0  0  0  0  0  0  0
   35.5400   31.3470   39.3840 H   0  0  0  0  0  0  0  0  0  0  0  0
   37.2110   25.2630   41.3150 H   0  0  0  0  0  0  0  0  0  0  0  0
   37.3880   29.0450   43.6780 N   0  0  0  0  0  0  0  0  0  0  0  0
   37.0590   28.6650   44.5980 H   0  0  0  0  0  0  0  0  0  0  0  0
   37.9520   29.9300   43.7640 H   0  0  0  0  0  0  0  0  0  0  0  0
   32.5610   29.4910   35.3560 S   0  0  0  0  0  0  0  0  0  0  0  0
   31.7440   28.5520   38.1260 H   0  0  0  0  0  0  0  0  0  0  0  0
   31.5400   29.5210   37.8630 N   0  0  0  0  0  0  0  0  0  0  0  0
   30.3480   30.0220   38.5550 C   0  0  0  0  0  2  0  0  0  0  0  0
   29.9500   31.2520   37.8040 C   0  0  0  0  0  2  0  0  0  0  0  0
   30.6880   31.1580   36.4860 C   0  0  0  0  0  2  0  0  0  0  0  0
   31.1830   29.7310   36.4980 C   0  0  1  0  0  3  0  0  0  0  0  0
  1  6  1  0  0  0  0
  2  3  1  0  0  0  0
  2  1  2  0  0  0  0
  3  4  2  0  0  0  0
  4  5  1  0  0  0  0
  5  7  1  0  0  0  0
  6  5  2  0  0  0  0
  7  8  1  0  0  0  0
  7 15  1  0  0  0  0
  8  9  2  0  0  0  0
  9 10  1  0  0  0  0
 10 11  1  0  0  0  0
 11 12  2  0  0  0  0
 11 20  1  0  0  0  0
 13 12  1  0  0  0  0
 14 13  2  0  0  0  0
 15 14  1  0  0  0  0
 15 10  2  0  0  0  0
 16  2  1  0  0  0  0
 17  3  1  0  0  0  0
 18  8  1  0  0  0  0
 19 13  1  0  0  0  0
 20 22  1  0  0  0  0
 20 21  1  0  0  0  0
 23  1  1  0  0  0  0
 25 24  1  0  0  0  0
 25 26  1  0  0  0  0
 27 26  1  0  0  0  0
 28 29  1  0  0  0  0
 28 27  1  0  0  0  0
 29 23  1  6  0  0  0
 29 25  1  0  0  0  0
M  END
>  <minimizedAffinity>
-5.56121588

$$$$

 OpenBabel03252504233D

 29 32  0  0  1  0  0  0  0  0999 V2000
   37.6540   28.4140   40.7030 C   0  0  0  0  0  0  0  0  0  0  0  0
   37.3810   27.4440   39.7380 C   0  0  0  0  0  0  0  0  0  0  0  0
   37.8150   27.6680   38.4060 C   0  0  0  0  0  0  0  0  0  0  0  0
   38.4800   28.8380   38.1610 N   0  0  0  0  0  0  0  0  0  0  0  0
   38.7230   29.7520   39.1290 C   0  0  0  0  0  0  0  0  0  0  0  0
   38.3120   29.5340   40.3780 N   0  0  0  0  0  0  0  0  0  0  0  0
   39.4260   30.9430   38.7790 N   0  0  0  0  0  0  0  0  0  0  0  0
   39.1270   32.1920   39.1620 C   0  0  0  0  0  0  0  0  0  0  0  0
   40.0380   33.0400   38.6120 N   0  0  0  0  0  0  0  0  0  0  0  0
   40.8790   32.2910   37.9020 C   0  0  0  0  0  0  0  0  0  0  0  0
   41.9870   32.5520   37.1320 C   0  0  0  0  0  0  0  0  0  0  0  0
   42.6800   31.6180   36.5040 N   0  0  0  0  0  0  0  0  0  0  0  0
   42.3330   30.3100   36.5830 C   0  0  0  0  0  0  0  0  0  0  0  0
   41.2500   30.0480   37.3350 N   0  0  0  0  0  0  0  0  0  0  0  0
   40.5160   30.9590   37.9880 C   0  0  0  0  0  0  0  0  0  0  0  0
   36.8590   26.5270   39.9370 H   0  0  0  0  0  0  0  0  0  0  0  0
   37.6350   26.9570   37.6170 H   0  0  0  0  0  0  0  0  0  0  0  0
   38.3200   32.5360   39.7940 H   0  0  0  0  0  0  0  0  0  0  0  0
   42.8630   29.5070   36.0910 H   0  0  0  0  0  0  0  0  0  0  0  0
   42.4760   33.8700   36.9480 N   0  0  0  0  0  0  0  0  0  0  0  0
   43.4940   34.0940   37.0590 H   0  0  0  0  0  0  0  0  0  0  0  0
   41.8850   34.7040   36.6950 H   0  0  0  0  0  0  0  0  0  0  0  0
   37.0570   28.0120   42.3400 S   0  0  0  0  0  0  0  0  0  0  0  0
   37.9230   25.1670   42.9560 H   0  0  0  0  0  0  0  0  0  0  0  0
   38.6490   25.8790   42.8370 N   0  0  0  0  0  0  0  0  0  0  0  0
   39.8420   25.5640   43.6310 C   0  0  0  0  0  2  0  0  0  0  0  0
   40.6250   26.8350   43.6800 C   0  0  0  0  0  2  0  0  0  0  0  0
   39.6460   27.9110   43.2620 C   0  0  0  0  0  2  0  0  0  0  0  0
   38.3250   27.1820   43.3220 C   0  0  1  0  0  3  0  0  0  0  0  0
  1 23  1  0  0  0  0
  2 16  1  0  0  0  0
  2  1  2  0  0  0  0
  3  2  1  0  0  0  0
  4  3  2  0  0  0  0
  4  5  1  0  0  0  0
  5  6  2  0  0  0  0
  6  1  1  0  0  0  0
  7  5  1  0  0  0  0
  7  8  1  0  0  0  0
  8 18  1  0  0  0  0
  9  8  2  0  0  0  0
 10 15  1  0  0  0  0
 10  9  1  0  0  0  0
 11 10  2  0  0  0  0
 12 13  2  0  0  0  0
 12 11  1  0  0  0  0
 13 14  1  0  0  0  0
 14 15  2  0  0  0  0
 15  7  1  0  0  0  0
 17  3  1  0  0  0  0
 19 13  1  0  0  0  0
 20 21  1  0  0  0  0
 20 11  1  0  0  0  0
 22 20  1  0  0  0  0
 25 24  1  0  0  0  0
 25 29  1  0  0  0  0
 25 26  1  0  0  0  0
 26 27  1  0  0  0  0
 28 29  1  0  0  0  0
 28 27  1  0  0  0  0
 29 23  1  6  0  0  0
M  END
>  <minimizedAffinity>
-5.37471104

$$$$

 OpenBabel03252504233D

 29 32  0  0  1  0  0  0  0  0999 V2000
   39.0030   25.6220   42.0520 C   0  0  0  0  0  0  0  0  0  0  0  0
   38.0260   24.7740   41.5300 C   0  0  0  0  0  0  0  0  0  0  0  0
   36.9850   25.3360   40.7470 C   0  0  0  0  0  0  0  0  0  0  0  0
   37.0140   26.6900   40.5590 N   0  0  0  0  0  0  0  0  0  0  0  0
   37.9820   27.4750   41.0870 C   0  0  0  0  0  0  0  0  0  0  0  0
   38.9570   26.9390   41.8200 N   0  0  0  0  0  0  0  0  0  0  0  0
   37.9310   28.8790   40.8360 N   0  0  0  0  0  0  0  0  0  0  0  0
   38.1380   29.8600   41.7260 C   0  0  0  0  0  0  0  0  0  0  0  0
   37.9950   31.0540   41.0890 N   0  0  0  0  0  0  0  0  0  0  0  0
   37.7030   30.7800   39.8190 C   0  0  0  0  0  0  0  0  0  0  0  0
   37.4480   31.5400   38.7030 C   0  0  0  0  0  0  0  0  0  0  0  0
   37.1740   31.0280   37.5160 N   0  0  0  0  0  0  0  0  0  0  0  0
   37.1250   29.6880   37.3190 C   0  0  0  0  0  0  0  0  0  0  0  0
   37.3730   28.9390   38.4080 N   0  0  0  0  0  0  0  0  0  0  0  0
   37.6550   29.4110   39.6300 C   0  0  0  0  0  0  0  0  0  0  0  0
   38.0090   23.7110   41.6790 H   0  0  0  0  0  0  0  0  0  0  0  0
   36.2020   24.7340   40.3150 H   0  0  0  0  0  0  0  0  0  0  0  0
   38.3800   29.7860   42.7770 H   0  0  0  0  0  0  0  0  0  0  0  0
   36.9050   29.2170   36.3710 H   0  0  0  0  0  0  0  0  0  0  0  0
   37.4590   32.9560   38.7450 N   0  0  0  0  0  0  0  0  0  0  0  0
   37.9730   33.5200   38.0240 H   0  0  0  0  0  0  0  0  0  0  0  0
   36.9740   33.5430   39.4720 H   0  0  0  0  0  0  0  0  0  0  0  0
   40.2590   24.7910   43.0160 S   0  0  0  0  0  0  0  0  0  0  0  0
   42.8820   24.9620   44.5380 H   0  0  0  0  0  0  0  0  0  0  0  0
   42.9180   24.9000   43.5160 N   0  0  0  0  0  0  0  0  0  0  0  0
   44.1070   25.5730   42.9820 C   0  0  0  0  0  2  0  0  0  0  0  0
   43.8320   25.7500   41.5240 C   0  0  0  0  0  2  0  0  0  0  0  0
   42.3400   25.5400   41.3810 C   0  0  0  0  0  2  0  0  0  0  0  0
   41.8730   25.5760   42.8170 C   0  0  1  0  0  3  0  0  0  0  0  0
  1 23  1  0  0  0  0
  2 16  1  0  0  0  0
  2  1  2  0  0  0  0
  3  2  1  0  0  0  0
  4  3  2  0  0  0  0
  4  5  1  0  0  0  0
  5  6  2  0  0  0  0
  6  1  1  0  0  0  0
  7  5  1  0  0  0  0
  7  8  1  0  0  0  0
  8 18  1  0  0  0  0
  9  8  2  0  0  0  0
 10  9  1  0  0  0  0
 11 20  1  0  0  0  0
 11 10  2  0  0  0  0
 12 11  1  0  0  0  0
 13 12  2  0  0  0  0
 13 14  1  0  0  0  0
 14 15  2  0  0  0  0
 15 10  1  0  0  0  0
 15  7  1  0  0  0  0
 17  3  1  0  0  0  0
 19 13  1  0  0  0  0
 20 22  1  0  0  0  0
 21 20  1  0  0  0  0
 25 24  1  0  0  0  0
 26 25  1  0  0  0  0
 27 26  1  0  0  0  0
 28 27  1  0  0  0  0
 28 29  1  0  0  0  0
 29 23  1  6  0  0  0
 29 25  1  0  0  0  0
M  END
>  <minimizedAffinity>
-5.36789703

$$$$

 OpenBabel03252504233D

 29 32  0  0  1  0  0  0  0  0999 V2000
   37.5790   30.8600   39.5800 C   0  0  0  0  0  0  0  0  0  0  0  0
   36.9370   30.4880   38.4000 C   0  0  0  0  0  0  0  0  0  0  0  0
   36.9300   29.1180   38.0320 C   0  0  0  0  0  0  0  0  0  0  0  0
   37.5650   28.2470   38.8740 N   0  0  0  0  0  0  0  0  0  0  0  0
   38.1760   28.6540   40.0110 C   0  0  0  0  0  0  0  0  0  0  0  0
   38.1780   29.9420   40.3500 N   0  0  0  0  0  0  0  0  0  0  0  0
   38.8120   27.6730   40.8290 N   0  0  0  0  0  0  0  0  0  0  0  0
   40.0150   27.7730   41.4130 C   0  0  0  0  0  0  0  0  0  0  0  0
   40.2540   26.6250   42.1020 N   0  0  0  0  0  0  0  0  0  0  0  0
   39.1910   25.8420   41.9270 C   0  0  0  0  0  0  0  0  0  0  0  0
   38.8380   24.5860   42.3560 C   0  0  0  0  0  0  0  0  0  0  0  0
   37.6960   23.9990   42.0430 N   0  0  0  0  0  0  0  0  0  0  0  0
   36.7780   24.6140   41.2580 C   0  0  0  0  0  0  0  0  0  0  0  0
   37.1190   25.8440   40.8340 N   0  0  0  0  0  0  0  0  0  0  0  0
   38.2620   26.4790   41.1250 C   0  0  0  0  0  0  0  0  0  0  0  0
   36.4390   31.1750   37.7420 H   0  0  0  0  0  0  0  0  0  0  0  0
   36.4500   28.7670   37.1320 H   0  0  0  0  0  0  0  0  0  0  0  0
   40.7200   28.5920   41.3840 H   0  0  0  0  0  0  0  0  0  0  0  0
   35.8300   24.1810   40.9710 H   0  0  0  0  0  0  0  0  0  0  0  0
   39.6910   23.8110   43.1820 N   0  0  0  0  0  0  0  0  0  0  0  0
   39.3280   23.3300   44.0410 H   0  0  0  0  0  0  0  0  0  0  0  0
   40.7180   23.6570   43.0130 H   0  0  0  0  0  0  0  0  0  0  0  0
   37.5140   32.6120   39.9330 S   0  0  0  0  0  0  0  0  0  0  0  0
   39.5620   33.8160   41.8240 H   0  0  0  0  0  0  0  0  0  0  0  0
   39.9010   33.2570   41.0370 N   0  0  0  0  0  0  0  0  0  0  0  0
   41.2270   33.7030   40.5960 C   0  0  0  0  0  2  0  0  0  0  0  0
   41.4130   33.0940   39.2440 C   0  0  0  0  0  2  0  0  0  0  0  0
   40.0250   32.6730   38.8130 C   0  0  0  0  0  2  0  0  0  0  0  0
   39.1500   33.3690   39.8280 C   0  0  1  0  0  3  0  0  0  0  0  0
  1 23  1  0  0  0  0
  1  6  1  0  0  0  0
  2  1  2  0  0  0  0
  3  2  1  0  0  0  0
  3  4  2  0  0  0  0
  4  5  1  0  0  0  0
  5  6  2  0  0  0  0
  5  7  1  0  0  0  0
  7 15  1  0  0  0  0
  7  8  1  0  0  0  0
  8  9  2  0  0  0  0
 10  9  1  0  0  0  0
 10 11  1  0  0  0  0
 11 20  1  0  0  0  0
 12 11  2  0  0  0  0
 13 12  1  0  0  0  0
 14 15  1  0  0  0  0
 14 13  2  0  0  0  0
 15 10  2  0  0  0  0
 16  2  1  0  0  0  0
 17  3  1  0  0  0  0
 18  8  1  0  0  0  0
 19 13  1  0  0  0  0
 20 21  1  0  0  0  0
 22 20  1  0  0  0  0
 25 24  1  0  0  0  0
 26 25  1  0  0  0  0
 27 26  1  0  0  0  0
 28 27  1  0  0  0  0
 28 29  1  0  0  0  0
 29 23  1  1  0  0  0
 29 25  1  0  0  0  0
M  END
>  <minimizedAffinity>
-5.32531214

$$$$

 OpenBabel03252504233D

 29 32  0  0  1  0  0  0  0  0999 V2000
   37.2670   30.3260   38.7110 C   0  0  0  0  0  0  0  0  0  0  0  0
   36.5120   30.8930   39.7370 C   0  0  0  0  0  0  0  0  0  0  0  0
   35.9380   30.0360   40.7110 C   0  0  0  0  0  0  0  0  0  0  0  0
   36.1700   28.6960   40.5710 N   0  0  0  0  0  0  0  0  0  0  0  0
   36.9100   28.1900   39.5580 C   0  0  0  0  0  0  0  0  0  0  0  0
   37.4460   29.0000   38.6470 N   0  0  0  0  0  0  0  0  0  0  0  0
   37.0990   26.7770   39.4930 N   0  0  0  0  0  0  0  0  0  0  0  0
   37.0190   26.0060   38.4000 C   0  0  0  0  0  0  0  0  0  0  0  0
   37.2620   24.7180   38.7640 N   0  0  0  0  0  0  0  0  0  0  0  0
   37.4870   24.7250   40.0770 C   0  0  0  0  0  0  0  0  0  0  0  0
   37.7830   23.7610   41.0090 C   0  0  0  0  0  0  0  0  0  0  0  0
   37.9670   24.0150   42.2930 N   0  0  0  0  0  0  0  0  0  0  0  0
   37.8750   25.2750   42.7830 C   0  0  0  0  0  0  0  0  0  0  0  0
   37.5860   26.2240   41.8740 N   0  0  0  0  0  0  0  0  0  0  0  0
   37.3900   26.0150   40.5660 C   0  0  0  0  0  0  0  0  0  0  0  0
   36.3330   31.9460   39.8430 H   0  0  0  0  0  0  0  0  0  0  0  0
   35.3450   30.4130   41.5290 H   0  0  0  0  0  0  0  0  0  0  0  0
   36.8040   26.2920   37.3800 H   0  0  0  0  0  0  0  0  0  0  0  0
   38.0160   25.5390   43.8220 H   0  0  0  0  0  0  0  0  0  0  0  0
   37.9110   22.3940   40.6560 N   0  0  0  0  0  0  0  0  0  0  0  0
   38.7250   21.8190   40.9850 H   0  0  0  0  0  0  0  0  0  0  0  0
   37.2300   21.8580   40.0580 H   0  0  0  0  0  0  0  0  0  0  0  0
   37.9370   31.5100   37.5490 S   0  0  0  0  0  0  0  0  0  0  0  0
   40.4720   32.0100   35.9550 H   0  0  0  0  0  0  0  0  0  0  0  0
   40.3290   32.5450   36.8160 N   0  0  0  0  0  0  0  0  0  0  0  0
   41.6060   32.9020   37.4420 C   0  0  0  0  0  2  0  0  0  0  0  0
   41.2570   33.3080   38.8370 C   0  0  0  0  0  2  0  0  0  0  0  0
   39.8590   32.7720   39.0590 C   0  0  0  0  0  2  0  0  0  0  0  0
   39.6800   31.8460   37.8780 C   0  0  1  0  0  3  0  0  0  0  0  0
  1  2  1  0  0  0  0
  2 16  1  0  0  0  0
  2  3  2  0  0  0  0
  3 17  1  0  0  0  0
  4  3  1  0  0  0  0
  5  4  2  0  0  0  0
  6  1  2  0  0  0  0
  6  5  1  0  0  0  0
  7  5  1  0  0  0  0
  7 15  1  0  0  0  0
  8  9  2  0  0  0  0
  8  7  1  0  0  0  0
  9 10  1  0  0  0  0
 10 15  2  0  0  0  0
 10 11  1  0  0  0  0
 11 12  2  0  0  0  0
 12 13  1  0  0  0  0
 13 19  1  0  0  0  0
 14 13  2  0  0  0  0
 15 14  1  0  0  0  0
 18  8  1  0  0  0  0
 20 21  1  0  0  0  0
 20 11  1  0  0  0  0
 22 20  1  0  0  0  0
 23  1  1  0  0  0  0
 24 25  1  0  0  0  0
 25 26  1  0  0  0  0
 25 29  1  0  0  0  0
 26 27  1  0  0  0  0
 27 28  1  0  0  0  0
 29 23  1  6  0  0  0
 29 28  1  0  0  0  0
M  END
>  <minimizedAffinity>
-5.32198572

$$$$

 OpenBabel03252504233D

 29 32  0  0  1  0  0  0  0  0999 V2000
   38.6250   28.5770   41.6930 C   0  0  0  0  0  0  0  0  0  0  0  0
   39.5040   28.3780   42.7580 C   0  0  0  0  0  0  0  0  0  0  0  0
   40.7930   28.9680   42.6950 C   0  0  0  0  0  0  0  0  0  0  0  0
   41.0850   29.7000   41.5770 N   0  0  0  0  0  0  0  0  0  0  0  0
   40.2000   29.8660   40.5670 C   0  0  0  0  0  0  0  0  0  0  0  0
   38.9910   29.3090   40.6340 N   0  0  0  0  0  0  0  0  0  0  0  0
   40.5930   30.6480   39.4410 N   0  0  0  0  0  0  0  0  0  0  0  0
   40.3850   30.3550   38.1490 C   0  0  0  0  0  0  0  0  0  0  0  0
   40.9140   31.3540   37.3920 N   0  0  0  0  0  0  0  0  0  0  0  0
   41.4370   32.2410   38.2360 C   0  0  0  0  0  0  0  0  0  0  0  0
   42.0970   33.4370   38.0910 C   0  0  0  0  0  0  0  0  0  0  0  0
   42.5340   34.1610   39.1070 N   0  0  0  0  0  0  0  0  0  0  0  0
   42.3550   33.7590   40.3890 C   0  0  0  0  0  0  0  0  0  0  0  0
   41.7100   32.5880   40.5370 N   0  0  0  0  0  0  0  0  0  0  0  0
   41.2490   31.8210   39.5400 C   0  0  0  0  0  0  0  0  0  0  0  0
   39.2690   27.8030   43.6330 H   0  0  0  0  0  0  0  0  0  0  0  0
   41.5160   28.8510   43.4860 H   0  0  0  0  0  0  0  0  0  0  0  0
   39.8920   29.4960   37.7170 H   0  0  0  0  0  0  0  0  0  0  0  0
   42.6920   34.3100   41.2550 H   0  0  0  0  0  0  0  0  0  0  0  0
   42.3640   33.9930   36.8150 N   0  0  0  0  0  0  0  0  0  0  0  0
   42.1610   35.0010   36.6050 H   0  0  0  0  0  0  0  0  0  0  0  0
   42.7730   33.4670   36.0000 H   0  0  0  0  0  0  0  0  0  0  0  0
   37.0340   27.7850   41.8940 S   0  0  0  0  0  0  0  0  0  0  0  0
   38.1740   26.4820   39.3990 H   0  0  0  0  0  0  0  0  0  0  0  0
   38.1260   25.9250   40.2570 N   0  0  0  0  0  0  0  0  0  0  0  0
   37.9660   24.4980   39.9590 C   0  0  0  0  0  2  0  0  0  0  0  0
   37.5210   23.8790   41.2450 C   0  0  0  0  0  2  0  0  0  0  0  0
   37.0580   25.0420   42.0960 C   0  0  0  0  0  2  0  0  0  0  0  0
   36.9940   26.1680   41.0910 C   0  0  1  0  0  3  0  0  0  0  0  0
  1 23  1  0  0  0  0
  1  2  1  0  0  0  0
  2 16  1  0  0  0  0
  3  2  2  0  0  0  0
  3 17  1  0  0  0  0
  4  3  1  0  0  0  0
  5  6  1  0  0  0  0
  5  4  2  0  0  0  0
  6  1  2  0  0  0  0
  7 15  1  0  0  0  0
  7  5  1  0  0  0  0
  8  7  1  0  0  0  0
  9  8  2  0  0  0  0
  9 10  1  0  0  0  0
 10 15  1  0  0  0  0
 11 10  2  0  0  0  0
 11 12  1  0  0  0  0
 12 13  2  0  0  0  0
 13 14  1  0  0  0  0
 13 19  1  0  0  0  0
 15 14  2  0  0  0  0
 18  8  1  0  0  0  0
 20 11  1  0  0  0  0
 21 20  1  0  0  0  0
 22 20  1  0  0  0  0
 24 25  1  0  0  0  0
 25 29  1  0  0  0  0
 26 25  1  0  0  0  0
 26 27  1  0  0  0  0
 27 28  1  0  0  0  0
 29 23  1  1  0  0  0
 29 28  1  0  0  0  0
M  END
>  <minimizedAffinity>
-5.25735474

$$$$

 OpenBabel03252504233D

 29 32  0  0  1  0  0  0  0  0999 V2000
   36.8510   27.0020   37.9320 C   0  0  0  0  0  0  0  0  0  0  0  0
   37.0280   27.1920   36.5620 C   0  0  0  0  0  0  0  0  0  0  0  0
   37.3310   28.4950   36.0890 C   0  0  0  0  0  0  0  0  0  0  0  0
   37.4280   29.4860   37.0270 N   0  0  0  0  0  0  0  0  0  0  0  0
   37.2470   29.2550   38.3480 C   0  0  0  0  0  0  0  0  0  0  0  0
   36.9630   28.0280   38.7830 N   0  0  0  0  0  0  0  0  0  0  0  0
   37.3700   30.3510   39.2530 N   0  0  0  0  0  0  0  0  0  0  0  0
   36.5580   30.6370   40.2810 C   0  0  0  0  0  0  0  0  0  0  0  0
   37.0190   31.7630   40.8910 N   0  0  0  0  0  0  0  0  0  0  0  0
   38.1050   32.1460   40.2220 C   0  0  0  0  0  0  0  0  0  0  0  0
   38.9950   33.1840   40.3460 C   0  0  0  0  0  0  0  0  0  0  0  0
   40.0270   33.3640   39.5390 N   0  0  0  0  0  0  0  0  0  0  0  0
   40.2790   32.5130   38.5150 C   0  0  0  0  0  0  0  0  0  0  0  0
   39.4090   31.4940   38.3890 N   0  0  0  0  0  0  0  0  0  0  0  0
   38.3510   31.2720   39.1800 C   0  0  0  0  0  0  0  0  0  0  0  0
   36.9520   26.4100   35.8300 H   0  0  0  0  0  0  0  0  0  0  0  0
   37.4810   28.7050   35.0430 H   0  0  0  0  0  0  0  0  0  0  0  0
   35.6790   30.1090   40.6210 H   0  0  0  0  0  0  0  0  0  0  0  0
   41.1070   32.6120   37.8270 H   0  0  0  0  0  0  0  0  0  0  0  0
   38.8690   34.1610   41.3650 N   0  0  0  0  0  0  0  0  0  0  0  0
   39.6910   34.4470   41.9510 H   0  0  0  0  0  0  0  0  0  0  0  0
   37.9780   34.6630   41.6140 H   0  0  0  0  0  0  0  0  0  0  0  0
   36.4760   25.3160   38.3990 S   0  0  0  0  0  0  0  0  0  0  0  0
   38.9020   26.2750   39.9520 H   0  0  0  0  0  0  0  0  0  0  0  0
   38.1170   25.8790   40.4770 N   0  0  0  0  0  0  0  0  0  0  0  0
   38.5700   25.2440   41.7190 C   0  0  0  0  0  2  0  0  0  0  0  0
   37.4240   24.3930   42.1610 C   0  0  0  0  0  2  0  0  0  0  0  0
   36.5380   24.2690   40.9410 C   0  0  0  0  0  2  0  0  0  0  0  0
   37.4290   24.8020   39.8430 C   0  0  1  0  0  3  0  0  0  0  0  0
  1 23  1  0  0  0  0
  1  6  1  0  0  0  0
  2  1  2  0  0  0  0
  3  2  1  0  0  0  0
  3  4  2  0  0  0  0
  4  5  1  0  0  0  0
  5  6  2  0  0  0  0
  5  7  1  0  0  0  0
  7  8  1  0  0  0  0
  8 18  1  0  0  0  0
  8  9  2  0  0  0  0
 10 11  1  0  0  0  0
 10  9  1  0  0  0  0
 11 20  1  0  0  0  0
 12 11  2  0  0  0  0
 13 12  1  0  0  0  0
 14 13  2  0  0  0  0
 14 15  1  0  0  0  0
 15  7  1  0  0  0  0
 15 10  2  0  0  0  0
 16  2  1  0  0  0  0
 17  3  1  0  0  0  0
 19 13  1  0  0  0  0
 20 22  1  0  0  0  0
 20 21  1  0  0  0  0
 24 25  1  0  0  0  0
 25 26  1  0  0  0  0
 26 27  1  0  0  0  0
 28 27  1  0  0  0  0
 29 23  1  6  0  0  0
 29 25  1  0  0  0  0
 29 28  1  0  0  0  0
M  END
>  <minimizedAffinity>
-5.15836048

$$$$
