
 OpenBabel03252501343D

 22 23  0  0  1  0  0  0  0  0999 V2000
   45.6450   34.6050   44.3160 C   0  0  0  0  0  0  0  0  0  0  0  0
   45.2870   34.3600   45.6180 C   0  0  0  0  0  0  0  0  0  0  0  0
   45.9610   33.3260   46.2470 C   0  0  0  0  0  0  0  0  0  0  0  0
   46.8950   32.6580   45.5450 N   0  0  0  0  0  0  0  0  0  0  0  0
   47.2190   32.9250   44.2760 C   0  0  0  0  0  0  0  0  0  0  0  0
   46.5850   33.9260   43.6250 N   0  0  0  0  0  0  0  0  0  0  0  0
   45.6840   33.1280   47.2730 H   0  0  0  0  0  0  0  0  0  0  0  0
   47.9880   32.3310   43.7900 H   0  0  0  0  0  0  0  0  0  0  0  0
   44.1720   35.0230   42.5320 C   0  0  0  0  0  0  0  0  0  0  0  0
   44.1350   33.7720   42.6590 O   0  0  0  0  0  0  0  0  0  0  0  0
   45.0650   35.6390   43.4670 N   0  0  0  0  0  0  0  0  0  0  0  0
   45.2270   36.6600   43.4850 H   0  0  0  0  0  0  0  0  0  0  0  0
   43.4610   35.8030   41.6140 O   0  0  0  0  0  0  0  0  0  0  0  0
   41.0380   36.3140   42.3890 H   0  0  0  0  0  0  0  0  0  0  0  0
   41.2190   36.2890   41.3650 N   0  0  0  0  0  0  0  0  0  0  0  0
   40.0970   35.7510   40.6170 C   0  0  0  0  0  2  0  0  0  0  0  0
   40.7300   35.4520   39.2850 C   0  0  0  0  0  2  0  0  0  0  0  0
   42.2220   35.2790   39.5760 C   0  0  0  0  0  2  0  0  0  0  0  0
   42.2360   35.2750   41.0790 C   0  0  1  0  0  3  0  0  0  0  0  0
   44.2840   35.1720   46.1760 N   0  0  0  0  0  0  0  0  0  0  0  0
   44.3180   36.1910   46.1120 H   0  0  0  0  0  0  0  0  0  0  0  0
   43.5580   34.5750   46.6290 H   0  0  0  0  0  0  0  0  0  0  0  0
  1  2  1  0  0  0  0
  2 20  1  0  0  0  0
  2  3  2  0  0  0  0
  3  7  1  0  0  0  0
  4  3  1  0  0  0  0
  5  4  2  0  0  0  0
  6  5  1  0  0  0  0
  6  1  2  0  0  0  0
  8  5  1  0  0  0  0
  9 10  2  0  0  0  0
  9 11  1  0  0  0  0
 11 12  1  0  0  0  0
 11  1  1  0  0  0  0
 13  9  1  0  0  0  0
 15 14  1  0  0  0  0
 16 15  1  0  0  0  0
 17 18  1  0  0  0  0
 17 16  1  0  0  0  0
 18 19  1  0  0  0  0
 19 15  1  0  0  0  0
 19 13  1  6  0  0  0
 20 22  1  0  0  0  0
 21 20  1  0  0  0  0
M  END
>  <minimizedAffinity>
-5.30719805

>  <minimizedRMSD>
0.645086944

$$$$
