
 OpenBabel03252504223D

 29 32  0  0  1  0  0  0  0  0999 V2000
   47.7410   33.5030   40.0440 C   0  0  0  0  0  0  0  0  0  0  0  0
   49.0740   33.2000   40.3190 C   0  0  0  0  0  0  0  0  0  0  0  0
   49.5250   33.2700   41.6620 C   0  0  0  0  0  0  0  0  0  0  0  0
   48.6050   33.6370   42.6060 N   0  0  0  0  0  0  0  0  0  0  0  0
   47.3200   33.9220   42.2930 C   0  0  0  0  0  0  0  0  0  0  0  0
   46.9040   33.8540   41.0290 N   0  0  0  0  0  0  0  0  0  0  0  0
   46.4300   34.2950   43.3450 N   0  0  0  0  0  0  0  0  0  0  0  0
   45.5380   35.2940   43.3240 C   0  0  0  0  0  0  0  0  0  0  0  0
   44.8910   35.3170   44.5210 N   0  0  0  0  0  0  0  0  0  0  0  0
   45.4020   34.3290   45.2530 C   0  0  0  0  0  0  0  0  0  0  0  0
   45.1730   33.8510   46.5200 C   0  0  0  0  0  0  0  0  0  0  0  0
   45.8240   32.8270   47.0460 N   0  0  0  0  0  0  0  0  0  0  0  0
   46.7820   32.1680   46.3500 C   0  0  0  0  0  0  0  0  0  0  0  0
   47.0110   32.6330   45.1090 N   0  0  0  0  0  0  0  0  0  0  0  0
   46.3790   33.6640   44.5350 C   0  0  0  0  0  0  0  0  0  0  0  0
   49.7920   32.9120   39.5750 H   0  0  0  0  0  0  0  0  0  0  0  0
   50.5430   33.0470   41.9390 H   0  0  0  0  0  0  0  0  0  0  0  0
   45.3190   35.9950   42.5310 H   0  0  0  0  0  0  0  0  0  0  0  0
   47.3440   31.3270   46.7310 H   0  0  0  0  0  0  0  0  0  0  0  0
   44.2040   34.4330   47.3750 N   0  0  0  0  0  0  0  0  0  0  0  0
   43.5100   33.8420   47.8960 H   0  0  0  0  0  0  0  0  0  0  0  0
   44.0990   35.4640   47.5550 H   0  0  0  0  0  0  0  0  0  0  0  0
   47.2970   33.3750   38.3160 S   0  0  0  0  0  0  0  0  0  0  0  0
   46.0100   30.9690   39.6470 H   0  0  0  0  0  0  0  0  0  0  0  0
   45.3990   31.7050   39.2830 N   0  0  0  0  0  0  0  0  0  0  0  0
   44.1000   31.1640   38.8670 C   0  0  0  0  0  2  0  0  0  0  0  0
   43.4880   32.2300   38.0180 C   0  0  0  0  0  2  0  0  0  0  0  0
   44.6360   33.1490   37.6600 C   0  0  0  0  0  2  0  0  0  0  0  0
   45.8380   32.3380   38.0820 C   0  0  1  0  0  3  0  0  0  0  0  0
  1  2  2  0  0  0  0
  1  6  1  0  0  0  0
  2  3  1  0  0  0  0
  3 17  1  0  0  0  0
  3  4  2  0  0  0  0
  5  4  1  0  0  0  0
  5  7  1  0  0  0  0
  6  5  2  0  0  0  0
  7 15  1  0  0  0  0
  8  7  1  0  0  0  0
  8  9  2  0  0  0  0
  9 10  1  0  0  0  0
 10 11  1  0  0  0  0
 11 12  2  0  0  0  0
 11 20  1  0  0  0  0
 13 19  1  0  0  0  0
 13 12  1  0  0  0  0
 14 13  2  0  0  0  0
 15 14  1  0  0  0  0
 15 10  2  0  0  0  0
 16  2  1  0  0  0  0
 18  8  1  0  0  0  0
 20 22  1  0  0  0  0
 20 21  1  0  0  0  0
 23  1  1  0  0  0  0
 25 24  1  0  0  0  0
 26 25  1  0  0  0  0
 27 26  1  0  0  0  0
 28 27  1  0  0  0  0
 28 29  1  0  0  0  0
 29 23  1  1  0  0  0
 29 25  1  0  0  0  0
M  END
>  <minimizedAffinity>
-5.35866833

>  <minimizedRMSD>
1.27691329

$$$$
