
 OpenBabel03252504223D

 29 32  0  0  1  0  0  0  0  0999 V2000
   47.7850   33.4490   40.2570 C   0  0  0  0  0  0  0  0  0  0  0  0
   49.1310   33.1730   40.4980 C   0  0  0  0  0  0  0  0  0  0  0  0
   49.6040   33.2100   41.8340 C   0  0  0  0  0  0  0  0  0  0  0  0
   48.6930   33.5210   42.8060 N   0  0  0  0  0  0  0  0  0  0  0  0
   47.3950   33.7840   42.5250 C   0  0  0  0  0  0  0  0  0  0  0  0
   46.9580   33.7460   41.2670 N   0  0  0  0  0  0  0  0  0  0  0  0
   46.5160   34.0980   43.6040 N   0  0  0  0  0  0  0  0  0  0  0  0
   45.5980   35.0740   43.6330 C   0  0  0  0  0  0  0  0  0  0  0  0
   44.9730   35.0410   44.8410 N   0  0  0  0  0  0  0  0  0  0  0  0
   45.5230   34.0430   45.5300 C   0  0  0  0  0  0  0  0  0  0  0  0
   45.3290   33.5170   46.7850 C   0  0  0  0  0  0  0  0  0  0  0  0
   46.0150   32.4940   47.2650 N   0  0  0  0  0  0  0  0  0  0  0  0
   46.9770   31.8830   46.5300 C   0  0  0  0  0  0  0  0  0  0  0  0
   47.1710   32.3940   45.3020 N   0  0  0  0  0  0  0  0  0  0  0  0
   46.5030   33.4280   44.7730 C   0  0  0  0  0  0  0  0  0  0  0  0
   49.8420   32.9280   39.7320 H   0  0  0  0  0  0  0  0  0  0  0  0
   50.6320   33.0050   42.0850 H   0  0  0  0  0  0  0  0  0  0  0  0
   45.3460   35.7940   42.8670 H   0  0  0  0  0  0  0  0  0  0  0  0
   47.5670   31.0450   46.8730 H   0  0  0  0  0  0  0  0  0  0  0  0
   44.3610   34.0450   47.6760 N   0  0  0  0  0  0  0  0  0  0  0  0
   43.6930   33.4200   48.1880 H   0  0  0  0  0  0  0  0  0  0  0  0
   44.2330   35.0670   47.8920 H   0  0  0  0  0  0  0  0  0  0  0  0
   47.3130   33.3670   38.5330 S   0  0  0  0  0  0  0  0  0  0  0  0
   44.3820   33.8380   39.1690 H   0  0  0  0  0  0  0  0  0  0  0  0
   44.6180   33.3830   38.2820 N   0  0  0  0  0  0  0  0  0  0  0  0
   43.5520   32.4720   37.8490 C   0  0  0  0  0  2  0  0  0  0  0  0
   44.1800   31.6100   36.8010 C   0  0  0  0  0  2  0  0  0  0  0  0
   45.6700   31.7990   36.9830 C   0  0  0  0  0  2  0  0  0  0  0  0
   45.7420   32.5040   38.3170 C   0  0  1  0  0  3  0  0  0  0  0  0
  1  2  2  0  0  0  0
  1  6  1  0  0  0  0
  2  3  1  0  0  0  0
  3 17  1  0  0  0  0
  3  4  2  0  0  0  0
  5  4  1  0  0  0  0
  5  7  1  0  0  0  0
  6  5  2  0  0  0  0
  7  8  1  0  0  0  0
  7 15  1  0  0  0  0
  8  9  2  0  0  0  0
  9 10  1  0  0  0  0
 10 11  1  0  0  0  0
 11 12  2  0  0  0  0
 11 20  1  0  0  0  0
 13 19  1  0  0  0  0
 13 12  1  0  0  0  0
 14 13  2  0  0  0  0
 15 14  1  0  0  0  0
 15 10  2  0  0  0  0
 16  2  1  0  0  0  0
 18  8  1  0  0  0  0
 20 22  1  0  0  0  0
 20 21  1  0  0  0  0
 23  1  1  0  0  0  0
 25 29  1  0  0  0  0
 25 24  1  0  0  0  0
 26 25  1  0  0  0  0
 27 28  1  0  0  0  0
 27 26  1  0  0  0  0
 28 29  1  0  0  0  0
 29 23  1  6  0  0  0
M  END
>  <minimizedAffinity>
-5.49210691

>  <minimizedRMSD>
0.862282932

$$$$
