
 OpenBabel03242518123D

 31 33  0  0  1  0  0  0  0  0999 V2000
   49.0710   33.0490   41.8260 C   0  0  0  0  0  0  0  0  0  0  0  0
   48.9140   32.2680   40.6390 C   0  0  0  0  0  0  0  0  0  0  0  0
   50.0280   31.6880   40.0930 C   0  0  0  0  0  0  0  0  0  0  0  0
   51.3150   31.8960   40.7490 C   0  0  0  0  0  0  0  0  0  0  0  0
   50.9170   32.9340   42.1620 S   0  0  0  0  0  0  0  0  0  0  0  0
   47.9200   32.1840   40.2470 H   0  0  0  0  0  0  0  0  0  0  0  0
   49.9930   31.0960   39.2170 H   0  0  0  0  0  0  0  0  0  0  0  0
   52.5700   31.1300   38.9000 C   0  0  2  0  0  0  0  0  0  0  0  0
   52.5650   31.4050   40.3670 C   0  0  2  0  0  0  0  0  0  0  0  0
   52.8450   30.2150   41.0200 O   0  0  0  0  0  0  0  0  0  0  0  0
   53.4320   29.3480   40.1260 C   0  0  0  0  0  0  0  0  0  0  0  0
   53.5890   30.0190   38.8050 C   0  0  1  0  0  0  0  0  0  0  0  0
   52.9370   32.2670   38.1820 O   0  0  0  0  0  0  0  0  0  0  0  0
   53.2620   32.9430   38.8290 H   0  0  0  0  0  0  0  0  0  0  0  0
   53.1930   29.1940   37.7350 O   0  0  0  0  0  0  0  0  0  0  0  0
   52.2100   29.0990   37.7580 H   0  0  0  0  0  0  0  0  0  0  0  0
   48.2240   33.8080   42.6990 C   0  0  0  0  0  0  0  0  0  0  0  0
   48.7950   34.0800   43.6210 H   0  0  0  0  0  0  0  0  0  0  0  0
   47.3710   33.1860   43.0410 H   0  0  0  0  0  0  0  0  0  0  0  0
   47.7010   35.1100   42.1350 C   0  0  0  0  0  0  0  0  0  0  0  0
   48.1540   35.3370   41.1770 H   0  0  0  0  0  0  0  0  0  0  0  0
   48.0020   35.9450   42.8270 H   0  0  0  0  0  0  0  0  0  0  0  0
   46.2550   35.0570   42.0900 C   0  0  0  0  0  0  0  0  0  0  0  0
   45.4560   35.6320   43.0700 C   0  0  0  0  0  0  0  0  0  0  0  0
   44.0750   35.5400   42.9560 C   0  0  0  0  0  0  0  0  0  0  0  0
   43.5720   34.8810   41.8760 N   0  0  0  0  0  0  0  0  0  0  0  0
   44.3580   34.3290   40.9360 C   0  0  0  0  0  0  0  0  0  0  0  0
   45.6700   34.4260   41.0580 N   0  0  0  0  0  0  0  0  0  0  0  0
   45.9230   36.1410   43.9010 H   0  0  0  0  0  0  0  0  0  0  0  0
   43.4200   35.9740   43.6980 H   0  0  0  0  0  0  0  0  0  0  0  0
   43.9010   33.8160   40.0960 H   0  0  0  0  0  0  0  0  0  0  0  0
  1  5  1  0  0  0  0
  1 17  1  0  0  0  0
  2  1  2  0  0  0  0
  3  2  1  0  0  0  0
  3  4  2  0  0  0  0
  4  5  1  0  0  0  0
  6  2  1  0  0  0  0
  7  3  1  0  0  0  0
  8 13  1  6  0  0  0
  8  9  1  0  0  0  0
  9  4  1  1  0  0  0
  9 10  1  0  0  0  0
 11 10  1  0  0  0  0
 12 15  1  6  0  0  0
 12  8  1  0  0  0  0
 12 11  1  0  0  0  0
 13 14  1  0  0  0  0
 15 16  1  0  0  0  0
 17 19  1  0  0  0  0
 17 18  1  0  0  0  0
 20 17  1  0  0  0  0
 20 22  1  0  0  0  0
 21 20  1  0  0  0  0
 23 20  1  0  0  0  0
 23 24  1  0  0  0  0
 24 29  1  0  0  0  0
 25 24  2  0  0  0  0
 25 30  1  0  0  0  0
 26 25  1  0  0  0  0
 27 28  1  0  0  0  0
 27 26  2  0  0  0  0
 28 23  2  0  0  0  0
 31 27  1  0  0  0  0
M  END
>  <minimizedAffinity>
-4.44052887

>  <minimizedRMSD>
1.73570299

$$$$
