
 OpenBabel03252505253D

 43 46  0  0  1  0  0  0  0  0999 V2000
   46.7240   33.3510   44.6700 F   0  0  0  0  0  0  0  0  0  0  0  0
   47.3910   32.1810   44.4840 C   0  0  0  0  0  0  0  0  0  0  0  0
   48.2100   32.0700   43.3910 C   0  0  0  0  0  0  0  0  0  0  0  0
   48.8760   30.8820   43.2170 C   0  0  0  0  0  0  0  0  0  0  0  0
   48.7080   29.8570   44.1220 C   0  0  0  0  0  0  0  0  0  0  0  0
   47.8870   29.9690   45.2180 C   0  0  0  0  0  0  0  0  0  0  0  0
   47.2130   31.1730   45.3920 C   0  0  0  0  0  0  0  0  0  0  0  0
   49.5190   30.8280   42.3390 H   0  0  0  0  0  0  0  0  0  0  0  0
   49.2820   28.9590   43.8910 H   0  0  0  0  0  0  0  0  0  0  0  0
   47.7870   29.1360   45.9010 H   0  0  0  0  0  0  0  0  0  0  0  0
   46.3700   31.2520   46.5390 N   0  0  0  0  0  0  0  0  0  0  0  0
   45.2820   30.4150   46.9680 C   0  0  0  0  0  0  0  0  0  0  0  0
   45.6470   30.1190   48.4290 C   0  0  0  0  0  0  0  0  0  0  0  0
   46.5270   31.2790   48.8210 C   0  0  0  0  0  0  0  0  0  0  0  0
   46.3540   32.2070   47.6330 C   0  0  2  0  0  0  0  0  0  0  0  0
   45.2450   29.4470   46.4120 H   0  0  0  0  0  0  0  0  0  0  0  0
   44.2990   30.8840   46.9370 H   0  0  0  0  0  0  0  0  0  0  0  0
   44.7460   30.0120   49.0640 H   0  0  0  0  0  0  0  0  0  0  0  0
   46.2380   29.1930   48.4730 H   0  0  0  0  0  0  0  0  0  0  0  0
   46.2620   31.7420   49.7840 H   0  0  0  0  0  0  0  0  0  0  0  0
   47.6160   30.9900   48.8470 H   0  0  0  0  0  0  0  0  0  0  0  0
   47.2860   32.8370   47.5960 H   0  0  0  0  0  0  0  0  0  0  0  0
   45.1350   33.0570   47.6810 C   0  0  0  0  0  0  0  0  0  0  0  0
   45.4400   34.1390   47.7120 H   0  0  0  0  0  0  0  0  0  0  0  0
   44.4760   32.9790   46.7890 H   0  0  0  0  0  0  0  0  0  0  0  0
   44.5720   32.8870   48.6370 H   0  0  0  0  0  0  0  0  0  0  0  0
   49.0620   35.3640   42.0370 C   0  0  0  0  0  0  0  0  0  0  0  0
   48.6390   35.2770   40.7070 C   0  0  0  0  0  0  0  0  0  0  0  0
   48.0660   34.0730   40.3090 C   0  0  0  0  0  0  0  0  0  0  0  0
   47.9470   33.0600   41.2140 N   0  0  0  0  0  0  0  0  0  0  0  0
   48.3580   33.1810   42.4590 C   0  0  0  0  0  0  0  0  0  0  0  0
   48.9140   34.3260   42.8740 N   0  0  0  0  0  0  0  0  0  0  0  0
   49.5120   36.2880   42.3740 H   0  0  0  0  0  0  0  0  0  0  0  0
   48.7790   36.1270   40.0890 H   0  0  0  0  0  0  0  0  0  0  0  0
   47.5800   32.5160   38.4990 C   0  0  2  0  0  3  0  0  0  0  0  0
   47.6040   33.9480   38.9010 C   0  0  2  0  0  3  0  0  0  0  0  0
   48.3800   34.6700   38.0270 O   0  0  0  0  0  0  0  0  0  0  0  0
   48.8920   33.8300   37.0790 C   0  0  0  0  0  2  0  0  0  0  0  0
   48.6770   32.4100   37.4820 C   0  0  1  0  0  3  0  0  0  0  0  0
   46.3490   32.1240   37.9750 O   0  0  0  0  0  0  0  0  0  0  0  0
   45.9610   31.4430   38.5800 H   0  0  0  0  0  0  0  0  0  0  0  0
   49.8410   31.8180   37.9620 O   0  0  0  0  0  0  0  0  0  0  0  0
   50.6540   32.3750   37.8350 H   0  0  0  0  0  0  0  0  0  0  0  0
  2  1  1  0  0  0  0
  2  7  1  0  0  0  0
  3  2  2  0  0  0  0
  4  3  1  0  0  0  0
  4  5  2  0  0  0  0
  5  6  1  0  0  0  0
  6  7  2  0  0  0  0
  6 10  1  0  0  0  0
  7 11  1  0  0  0  0
  8  4  1  0  0  0  0
  9  5  1  0  0  0  0
 11 12  1  0  0  0  0
 11 15  1  0  0  0  0
 12 13  1  0  0  0  0
 13 19  1  0  0  0  0
 13 14  1  0  0  0  0
 13 18  1  0  0  0  0
 14 21  1  0  0  0  0
 14 20  1  0  0  0  0
 15 22  1  6  0  0  0
 15 23  1  0  0  0  0
 15 14  1  0  0  0  0
 16 12  1  0  0  0  0
 17 12  1  0  0  0  0
 23 24  1  0  0  0  0
 23 26  1  0  0  0  0
 25 23  1  0  0  0  0
 27 33  1  0  0  0  0
 27 32  1  0  0  0  0
 28 27  2  0  0  0  0
 29 28  1  0  0  0  0
 29 30  2  0  0  0  0
 30 31  1  0  0  0  0
 31 32  2  0  0  0  0
 31  3  1  0  0  0  0
 34 28  1  0  0  0  0
 35 40  1  6  0  0  0
 35 36  1  0  0  0  0
 36 29  1  1  0  0  0
 37 36  1  0  0  0  0
 38 39  1  0  0  0  0
 38 37  1  0  0  0  0
 39 42  1  1  0  0  0
 39 35  1  0  0  0  0
 40 41  1  0  0  0  0
 43 42  1  0  0  0  0
M  END
>  <minimizedAffinity>
-5.76919794

>  <minimizedRMSD>
0.943578482

$$$$
