
 OpenBabel03252506413D

 40 43  0  0  1  0  0  0  0  0999 V2000
   49.0440   33.2460   40.8070 N   0  0  1  0  0  0  0  0  0  0  0  0
   50.2080   32.5830   41.3560 C   0  0  0  0  0  0  0  0  0  0  0  0
   50.5330   31.2640   40.7660 C   0  0  0  0  0  0  0  0  0  0  0  0
   49.4120   30.2930   40.9810 C   0  0  0  0  0  0  0  0  0  0  0  0
   48.0950   30.9750   41.0680 C   0  0  0  0  0  0  0  0  0  0  0  0
   48.1450   32.2700   40.2740 C   0  0  2  0  0  0  0  0  0  0  0  0
   50.0360   32.4110   42.4500 H   0  0  0  0  0  0  0  0  0  0  0  0
   51.1110   33.2530   41.3370 H   0  0  0  0  0  0  0  0  0  0  0  0
   51.3800   30.8620   41.4150 H   0  0  0  0  0  0  0  0  0  0  0  0
   50.9830   31.2620   39.7630 H   0  0  0  0  0  0  0  0  0  0  0  0
   49.3520   29.5640   40.1340 H   0  0  0  0  0  0  0  0  0  0  0  0
   49.5750   29.6440   41.8780 H   0  0  0  0  0  0  0  0  0  0  0  0
   47.8880   31.2840   42.1140 H   0  0  0  0  0  0  0  0  0  0  0  0
   47.2630   30.3860   40.6330 H   0  0  0  0  0  0  0  0  0  0  0  0
   47.1320   32.7050   40.5010 H   0  0  0  0  0  0  0  0  0  0  0  0
   47.1890   34.7790   41.7520 C   0  0  1  0  0  0  0  0  0  0  0  0
   48.4650   35.5020   41.6600 C   0  0  0  0  0  0  0  0  0  0  0  0
   48.4810   34.0300   41.8600 C   0  0  2  0  0  0  0  0  0  0  0  0
   46.5940   34.5800   40.8430 H   0  0  0  0  0  0  0  0  0  0  0  0
   48.7470   36.1760   42.4960 H   0  0  0  0  0  0  0  0  0  0  0  0
   48.7630   35.9140   40.6650 H   0  0  0  0  0  0  0  0  0  0  0  0
   48.7650   33.6970   42.8960 H   0  0  0  0  0  0  0  0  0  0  0  0
   45.4770   36.0350   43.0820 C   0  0  0  0  0  0  0  0  0  0  0  0
   46.3320   34.9110   42.9620 C   0  0  0  0  0  0  0  0  0  0  0  0
   46.3330   33.9660   43.9710 C   0  0  0  0  0  0  0  0  0  0  0  0
   45.5140   34.1580   45.0330 N   0  0  0  0  0  0  0  0  0  0  0  0
   44.6990   35.2390   45.1360 C   0  0  0  0  0  0  0  0  0  0  0  0
   44.6740   36.1820   44.1690 N   0  0  0  0  0  0  0  0  0  0  0  0
   45.5210   36.7430   42.2580 H   0  0  0  0  0  0  0  0  0  0  0  0
   46.9800   33.1040   43.8910 H   0  0  0  0  0  0  0  0  0  0  0  0
   44.0480   35.3860   45.9890 H   0  0  0  0  0  0  0  0  0  0  0  0
   48.5390   33.2750   38.0050 C   0  0  2  0  0  0  0  0  0  0  0  0
   48.1620   32.0540   38.8090 C   0  0  2  0  0  0  0  0  0  0  0  0
   46.9030   31.6620   38.3210 O   0  0  0  0  0  0  0  0  0  0  0  0
   47.0790   31.8010   36.9230 C   0  0  0  0  0  0  0  0  0  0  0  0
   47.5470   33.2360   36.8380 C   0  0  2  0  0  0  0  0  0  0  0  0
   49.8470   33.2110   37.5360 O   0  0  0  0  0  0  0  0  0  0  0  0
   50.2900   34.0530   37.7860 H   0  0  0  0  0  0  0  0  0  0  0  0
   48.2280   33.4920   35.6520 O   0  0  0  0  0  0  0  0  0  0  0  0
   49.1500   33.0940   35.7420 H   0  0  0  0  0  0  0  0  0  0  0  0
  1  2  1  1  0  0  0
  1 18  1  0  0  0  0
  2  7  1  0  0  0  0
  3  4  1  0  0  0  0
  3  2  1  0  0  0  0
  3  9  1  0  0  0  0
  4  5  1  0  0  0  0
  4 12  1  0  0  0  0
  5 13  1  0  0  0  0
  6 15  1  1  0  0  0
  6  1  1  0  0  0  0
  6  5  1  0  0  0  0
  8  2  1  0  0  0  0
 10  3  1  0  0  0  0
 11  4  1  0  0  0  0
 14  5  1  0  0  0  0
 16 19  1  6  0  0  0
 16 18  1  0  0  0  0
 16 24  1  0  0  0  0
 17 16  1  0  0  0  0
 17 18  1  0  0  0  0
 17 20  1  0  0  0  0
 18 22  1  1  0  0  0
 21 17  1  0  0  0  0
 23 28  1  0  0  0  0
 24 23  2  0  0  0  0
 24 25  1  0  0  0  0
 25 26  2  0  0  0  0
 26 27  1  0  0  0  0
 27 31  1  0  0  0  0
 28 27  2  0  0  0  0
 29 23  1  0  0  0  0
 30 25  1  0  0  0  0
 32 37  1  6  0  0  0
 32 33  1  0  0  0  0
 33 34  1  6  0  0  0
 33  6  1  0  0  0  0
 35 34  1  0  0  0  0
 36 39  1  6  0  0  0
 36 35  1  0  0  0  0
 36 32  1  0  0  0  0
 37 38  1  0  0  0  0
 39 40  1  0  0  0  0
M  END
>  <minimizedAffinity>
-5.68197918

>  <minimizedRMSD>
2.45240259

$$$$
