
 OpenBabel03252506553D

 38 42  0  0  1  0  0  0  0  0999 V2000
   47.2650   31.3950   45.1530 C   0  0  0  0  0  0  0  0  0  0  0  0
   46.8910   32.7250   45.1230 C   0  0  0  0  0  0  0  0  0  0  0  0
   46.2680   33.3550   46.1820 C   0  0  0  0  0  0  0  0  0  0  0  0
   45.9900   32.6520   47.3430 C   0  0  0  0  0  0  0  0  0  0  0  0
   45.4100   32.9220   48.5490 N   0  0  0  0  0  0  0  0  0  0  0  0
   45.4290   31.7930   49.2970 C   0  0  0  0  0  0  0  0  0  0  0  0
   46.0200   30.8310   48.5450 N   0  0  0  0  0  0  0  0  0  0  0  0
   46.3730   31.3250   47.3530 C   0  0  0  0  0  0  0  0  0  0  0  0
   46.9910   30.6750   46.3160 C   0  0  0  0  0  0  0  0  0  0  0  0
   47.7490   30.9130   44.3260 H   0  0  0  0  0  0  0  0  0  0  0  0
   45.9720   34.4050   46.1600 H   0  0  0  0  0  0  0  0  0  0  0  0
   45.0370   33.8690   48.7880 H   0  0  0  0  0  0  0  0  0  0  0  0
   45.0260   31.7210   50.3180 H   0  0  0  0  0  0  0  0  0  0  0  0
   46.5280   35.1660   42.3860 C   0  0  0  0  0  0  0  0  0  0  0  0
   47.6930   34.9670   41.6520 C   0  0  0  0  0  0  0  0  0  0  0  0
   48.5980   34.0060   42.0860 C   0  0  0  0  0  0  0  0  0  0  0  0
   48.2990   33.2950   43.2240 N   0  0  0  0  0  0  0  0  0  0  0  0
   47.1650   33.5060   43.9190 C   0  0  0  0  0  0  0  0  0  0  0  0
   46.2910   34.4310   43.5020 N   0  0  0  0  0  0  0  0  0  0  0  0
   45.8010   35.9030   42.0800 H   0  0  0  0  0  0  0  0  0  0  0  0
   47.8810   35.5460   40.7700 H   0  0  0  0  0  0  0  0  0  0  0  0
   49.5190   33.8050   41.5590 H   0  0  0  0  0  0  0  0  0  0  0  0
   47.3580   29.2570   46.4280 C   0  0  0  0  0  0  0  0  0  0  0  0
   48.6480   28.7980   46.6370 C   0  0  0  0  0  0  0  0  0  0  0  0
   48.4970   27.4090   46.6730 C   0  0  0  0  0  0  0  0  0  0  0  0
   47.1480   27.1100   46.4850 C   0  0  0  0  0  0  0  0  0  0  0  0
   46.5160   28.2570   46.3450 O   0  0  0  0  0  0  0  0  0  0  0  0
   49.5740   29.3440   46.7520 H   0  0  0  0  0  0  0  0  0  0  0  0
   49.2640   26.6700   46.8160 H   0  0  0  0  0  0  0  0  0  0  0  0
   45.0000   25.9040   46.0580 C   0  0  2  0  0  3  0  0  0  0  0  0
   46.4770   25.8070   46.4400 C   0  0  1  0  0  3  0  0  0  0  0  0
   46.9290   24.9640   45.4270 O   0  0  0  0  0  0  0  0  0  0  0  0
   46.0800   23.8660   45.5790 C   0  0  0  0  0  2  0  0  0  0  0  0
   44.7020   24.4270   45.8460 C   0  0  2  0  0  3  0  0  0  0  0  0
   44.8840   26.5210   44.7970 O   0  0  0  0  0  0  0  0  0  0  0  0
   45.0650   25.8590   44.0720 H   0  0  0  0  0  0  0  0  0  0  0  0
   43.8250   24.2040   44.7900 O   0  0  0  0  0  0  0  0  0  0  0  0
   43.0750   24.8440   44.8890 H   0  0  0  0  0  0  0  0  0  0  0  0
  1  9  1  0  0  0  0
  2  1  2  0  0  0  0
  2  3  1  0  0  0  0
  3  4  2  0  0  0  0
  4  8  1  0  0  0  0
  4  5  1  0  0  0  0
  5 12  1  0  0  0  0
  5  6  1  0  0  0  0
  6 13  1  0  0  0  0
  7  6  2  0  0  0  0
  8  7  1  0  0  0  0
  9 23  1  0  0  0  0
  9  8  2  0  0  0  0
 10  1  1  0  0  0  0
 11  3  1  0  0  0  0
 14 19  1  0  0  0  0
 15 16  1  0  0  0  0
 15 14  2  0  0  0  0
 16 17  2  0  0  0  0
 17 18  1  0  0  0  0
 18  2  1  0  0  0  0
 19 18  2  0  0  0  0
 20 14  1  0  0  0  0
 21 15  1  0  0  0  0
 22 16  1  0  0  0  0
 23 24  2  0  0  0  0
 24 25  1  0  0  0  0
 24 28  1  0  0  0  0
 25 29  1  0  0  0  0
 26 25  2  0  0  0  0
 27 23  1  0  0  0  0
 27 26  1  0  0  0  0
 30 35  1  6  0  0  0
 30 31  1  0  0  0  0
 31 26  1  6  0  0  0
 32 33  1  0  0  0  0
 32 31  1  0  0  0  0
 33 34  1  0  0  0  0
 34 37  1  6  0  0  0
 34 30  1  0  0  0  0
 36 35  1  0  0  0  0
 37 38  1  0  0  0  0
M  END
>  <minimizedAffinity>
-5.34013176

>  <minimizedRMSD>
0.1004171

$$$$
