
 OpenBabel03252505183D

 34 37  0  0  1  0  0  0  0  0999 V2000
   46.1390   32.7400   46.5790 C   0  0  0  0  0  0  0  0  0  0  0  0
   45.1460   32.9480   47.5140 C   0  0  0  0  0  0  0  0  0  0  0  0
   45.1240   32.1830   48.6710 C   0  0  0  0  0  0  0  0  0  0  0  0
   46.1150   31.2330   48.8360 C   0  0  0  0  0  0  0  0  0  0  0  0
   47.0880   31.0690   47.8610 C   0  0  0  0  0  0  0  0  0  0  0  0
   47.1110   31.8170   46.7290 N   0  0  0  0  0  0  0  0  0  0  0  0
   44.3650   33.6920   47.3910 H   0  0  0  0  0  0  0  0  0  0  0  0
   44.3400   32.3510   49.4030 H   0  0  0  0  0  0  0  0  0  0  0  0
   46.1140   30.6360   49.7190 H   0  0  0  0  0  0  0  0  0  0  0  0
   45.1480   35.1300   43.9520 C   0  0  0  0  0  0  0  0  0  0  0  0
   46.2110   35.0630   43.0220 C   0  0  0  0  0  0  0  0  0  0  0  0
   47.2290   34.1960   43.3440 C   0  0  0  0  0  0  0  0  0  0  0  0
   47.1950   33.4550   44.5000 N   0  0  0  0  0  0  0  0  0  0  0  0
   46.1370   33.5580   45.3700 C   0  0  0  0  0  0  0  0  0  0  0  0
   45.1270   34.3950   45.0830 N   0  0  0  0  0  0  0  0  0  0  0  0
   44.3180   35.8120   43.7270 H   0  0  0  0  0  0  0  0  0  0  0  0
   46.2060   35.6610   42.1210 H   0  0  0  0  0  0  0  0  0  0  0  0
   48.3910   34.0230   42.4120 C   0  0  0  0  0  0  0  0  0  0  0  0
   48.6070   35.2470   41.5220 C   0  0  0  0  0  0  0  0  0  0  0  0
   49.5940   34.7800   42.6400 C   0  0  0  0  0  0  0  0  0  0  0  0
   48.4160   33.0470   41.8760 H   0  0  0  0  0  0  0  0  0  0  0  0
   48.0530   36.1740   41.7760 H   0  0  0  0  0  0  0  0  0  0  0  0
   48.8830   35.0240   40.4950 H   0  0  0  0  0  0  0  0  0  0  0  0
   49.7060   35.4720   43.5050 H   0  0  0  0  0  0  0  0  0  0  0  0
   50.5520   34.4140   42.2300 H   0  0  0  0  0  0  0  0  0  0  0  0
   49.0260   30.3010   49.2490 C   0  0  1  0  0  3  0  0  0  0  0  0
   48.1240   30.0410   48.0850 C   0  0  2  0  0  3  0  0  0  0  0  0
   49.0220   29.9220   47.0310 O   0  0  0  0  0  0  0  0  0  0  0  0
   49.9640   29.0390   47.5070 C   0  0  0  0  0  2  0  0  0  0  0  0
   50.1010   29.2340   48.9930 C   0  0  2  0  0  3  0  0  0  0  0  0
   49.6230   31.5370   49.2670 O   0  0  0  0  0  0  0  0  0  0  0  0
   49.1480   32.2250   49.7970 H   0  0  0  0  0  0  0  0  0  0  0  0
   49.7410   28.0150   49.6010 O   0  0  0  0  0  0  0  0  0  0  0  0
   48.7560   27.9060   49.5910 H   0  0  0  0  0  0  0  0  0  0  0  0
  1  6  2  0  0  0  0
  1  2  1  0  0  0  0
  2  3  2  0  0  0  0
  3  4  1  0  0  0  0
  3  8  1  0  0  0  0
  4  9  1  0  0  0  0
  5  4  2  0  0  0  0
  6  5  1  0  0  0  0
  7  2  1  0  0  0  0
 10 15  1  0  0  0  0
 11 12  1  0  0  0  0
 11 10  2  0  0  0  0
 12 13  2  0  0  0  0
 13 14  1  0  0  0  0
 14  1  1  0  0  0  0
 15 14  2  0  0  0  0
 16 10  1  0  0  0  0
 17 11  1  0  0  0  0
 18 20  1  0  0  0  0
 18 12  1  0  0  0  0
 19 22  1  0  0  0  0
 19 18  1  0  0  0  0
 19 20  1  0  0  0  0
 20 24  1  0  0  0  0
 21 18  1  0  0  0  0
 23 19  1  0  0  0  0
 25 20  1  0  0  0  0
 26 31  1  6  0  0  0
 27  5  1  6  0  0  0
 27 26  1  0  0  0  0
 28 29  1  0  0  0  0
 28 27  1  0  0  0  0
 29 30  1  0  0  0  0
 30 26  1  0  0  0  0
 30 33  1  1  0  0  0
 31 32  1  0  0  0  0
 34 33  1  0  0  0  0
M  END
>  <minimizedAffinity>
-6.22487164

>  <minimizedRMSD>
1.10686815

$$$$
