
 OpenBabel03252505183D

 34 37  0  0  1  0  0  0  0  0999 V2000
   46.2170   32.7000   47.0190 C   0  0  0  0  0  0  0  0  0  0  0  0
   45.1150   32.4970   47.8220 C   0  0  0  0  0  0  0  0  0  0  0  0
   45.2360   31.7230   48.9680 C   0  0  0  0  0  0  0  0  0  0  0  0
   46.4760   31.1830   49.2550 C   0  0  0  0  0  0  0  0  0  0  0  0
   47.5490   31.4220   48.4080 C   0  0  0  0  0  0  0  0  0  0  0  0
   47.4330   32.1780   47.2880 N   0  0  0  0  0  0  0  0  0  0  0  0
   44.1390   32.9180   47.6040 H   0  0  0  0  0  0  0  0  0  0  0  0
   44.3660   31.5670   49.5970 H   0  0  0  0  0  0  0  0  0  0  0  0
   46.5880   30.5860   50.1300 H   0  0  0  0  0  0  0  0  0  0  0  0
   44.9240   35.1200   44.5560 C   0  0  0  0  0  0  0  0  0  0  0  0
   45.8340   35.0180   43.4780 C   0  0  0  0  0  0  0  0  0  0  0  0
   46.8610   34.1190   43.6500 C   0  0  0  0  0  0  0  0  0  0  0  0
   46.9750   33.3790   44.8020 N   0  0  0  0  0  0  0  0  0  0  0  0
   46.0620   33.5160   45.8190 C   0  0  0  0  0  0  0  0  0  0  0  0
   45.0480   34.3860   45.6810 N   0  0  0  0  0  0  0  0  0  0  0  0
   44.0910   35.8280   44.4530 H   0  0  0  0  0  0  0  0  0  0  0  0
   45.7140   35.6160   42.5850 H   0  0  0  0  0  0  0  0  0  0  0  0
   47.8650   33.9080   42.5570 C   0  0  0  0  0  0  0  0  0  0  0  0
   48.0750   35.1660   41.7130 C   0  0  0  0  0  0  0  0  0  0  0  0
   49.1540   34.5410   42.6550 C   0  0  0  0  0  0  0  0  0  0  0  0
   47.7240   32.9710   41.9700 H   0  0  0  0  0  0  0  0  0  0  0  0
   47.6510   36.1180   42.0920 H   0  0  0  0  0  0  0  0  0  0  0  0
   48.1880   34.9880   40.6460 H   0  0  0  0  0  0  0  0  0  0  0  0
   49.4470   35.1600   43.5320 H   0  0  0  0  0  0  0  0  0  0  0  0
   50.0090   34.1210   42.0950 H   0  0  0  0  0  0  0  0  0  0  0  0
   49.1580   29.5320   48.0670 C   0  0  1  0  0  3  0  0  0  0  0  0
   48.8520   30.8220   48.7590 C   0  0  2  0  0  3  0  0  0  0  0  0
   48.9590   30.4760   50.1010 O   0  0  0  0  0  0  0  0  0  0  0  0
   50.1620   29.8120   50.1690 C   0  0  0  0  0  2  0  0  0  0  0  0
   50.3890   29.0870   48.8690 C   0  0  2  0  0  3  0  0  0  0  0  0
   48.1880   28.5660   48.1680 O   0  0  0  0  0  0  0  0  0  0  0  0
   47.5470   28.5340   47.4160 H   0  0  0  0  0  0  0  0  0  0  0  0
   51.5650   29.6180   48.3050 O   0  0  0  0  0  0  0  0  0  0  0  0
   51.3830   30.5070   47.9080 H   0  0  0  0  0  0  0  0  0  0  0  0
  1  6  2  0  0  0  0
  1  2  1  0  0  0  0
  2  3  2  0  0  0  0
  3  4  1  0  0  0  0
  3  8  1  0  0  0  0
  4  9  1  0  0  0  0
  5  4  2  0  0  0  0
  6  5  1  0  0  0  0
  7  2  1  0  0  0  0
 10 15  1  0  0  0  0
 11 12  1  0  0  0  0
 11 10  2  0  0  0  0
 12 13  2  0  0  0  0
 13 14  1  0  0  0  0
 14  1  1  0  0  0  0
 15 14  2  0  0  0  0
 16 10  1  0  0  0  0
 17 11  1  0  0  0  0
 18 20  1  0  0  0  0
 18 12  1  0  0  0  0
 19 22  1  0  0  0  0
 19 18  1  0  0  0  0
 19 20  1  0  0  0  0
 20 24  1  0  0  0  0
 21 18  1  0  0  0  0
 23 19  1  0  0  0  0
 25 20  1  0  0  0  0
 26 31  1  1  0  0  0
 26 27  1  0  0  0  0
 26 30  1  0  0  0  0
 27  5  1  1  0  0  0
 27 28  1  0  0  0  0
 28 29  1  0  0  0  0
 30 33  1  6  0  0  0
 30 29  1  0  0  0  0
 32 31  1  0  0  0  0
 34 33  1  0  0  0  0
M  END
>  <minimizedAffinity>
-6.47705746

>  <minimizedRMSD>
1.36324763

$$$$
