
 OpenBabel03242521033D

 27 29  0  0  1  0  0  0  0  0999 V2000
   37.2760   27.2230   41.4800 C   0  0  0  0  0  0  0  0  0  0  0  0
   37.2920   27.2470   42.8560 C   0  0  0  0  0  0  0  0  0  0  0  0
   37.6970   28.3140   43.6210 C   0  0  0  0  0  0  0  0  0  0  0  0
   38.1230   29.4520   42.9830 C   0  0  0  0  0  0  0  0  0  0  0  0
   38.1030   29.4170   41.5970 C   0  0  0  0  0  0  0  0  0  0  0  0
   37.7010   28.3590   40.8960 N   0  0  0  0  0  0  0  0  0  0  0  0
   36.9640   26.3700   43.3960 H   0  0  0  0  0  0  0  0  0  0  0  0
   37.6870   28.2730   44.7060 H   0  0  0  0  0  0  0  0  0  0  0  0
   38.4540   30.3230   43.5390 H   0  0  0  0  0  0  0  0  0  0  0  0
   36.3530   23.7470   40.3160 C   0  0  0  0  0  0  0  0  0  0  0  0
   36.8060   24.7510   41.1950 C   0  0  0  0  0  0  0  0  0  0  0  0
   36.8360   26.0650   40.7060 C   0  0  0  0  0  0  0  0  0  0  0  0
   36.4320   26.2750   39.4390 N   0  0  0  0  0  0  0  0  0  0  0  0
   36.0020   25.3020   38.6130 C   0  0  0  0  0  0  0  0  0  0  0  0
   35.9680   24.0310   39.0710 N   0  0  0  0  0  0  0  0  0  0  0  0
   36.3440   22.7430   40.7270 H   0  0  0  0  0  0  0  0  0  0  0  0
   37.1300   24.5980   42.2050 H   0  0  0  0  0  0  0  0  0  0  0  0
   35.7010   25.5800   37.6160 H   0  0  0  0  0  0  0  0  0  0  0  0
   37.3060   31.1860   40.1330 C   0  0  2  0  0  3  0  0  0  0  0  0
   38.5460   30.6020   40.8130 C   0  0  1  0  0  3  0  0  0  0  0  0
   38.9180   31.6570   41.6360 O   0  0  0  0  0  0  0  0  0  0  0  0
   38.8030   32.8160   40.9070 C   0  0  0  0  0  2  0  0  0  0  0  0
   37.7850   32.5890   39.8310 C   0  0  2  0  0  3  0  0  0  0  0  0
   36.2820   31.2580   41.0760 O   0  0  0  0  0  0  0  0  0  0  0  0
   36.6740   31.4350   41.9470 H   0  0  0  0  0  0  0  0  0  0  0  0
   36.7420   33.5120   39.8790 O   0  0  0  0  0  0  0  0  0  0  0  0
   35.8710   33.0550   39.8330 H   0  0  0  0  0  0  0  0  0  0  0  0
  1  2  1  0  0  0  0
  2  7  1  0  0  0  0
  2  3  2  0  0  0  0
  3  8  1  0  0  0  0
  4  9  1  0  0  0  0
  4  3  1  0  0  0  0
  5  4  2  0  0  0  0
  6  1  2  0  0  0  0
  6  5  1  0  0  0  0
 10 16  1  0  0  0  0
 10 11  1  0  0  0  0
 11 17  1  0  0  0  0
 12 11  2  0  0  0  0
 12  1  1  0  0  0  0
 13 12  1  0  0  0  0
 14 15  1  0  0  0  0
 14 13  2  0  0  0  0
 15 10  2  0  0  0  0
 18 14  1  0  0  0  0
 19 20  1  0  0  0  0
 19 24  1  1  0  0  0
 20  5  1  1  0  0  0
 20 21  1  0  0  0  0
 22 21  1  0  0  0  0
 23 26  1  1  0  0  0
 23 19  1  0  0  0  0
 23 22  1  0  0  0  0
 24 25  1  0  0  0  0
 27 26  1  0  0  0  0
M  END
>  <minimizedAffinity>
-5.76909637

$$$$

 OpenBabel03242521033D

 27 29  0  0  1  0  0  0  0  0999 V2000
   37.5140   28.2710   41.7030 C   0  0  0  0  0  0  0  0  0  0  0  0
   36.2260   28.1320   41.2390 C   0  0  0  0  0  0  0  0  0  0  0  0
   35.4720   29.1430   40.6920 C   0  0  0  0  0  0  0  0  0  0  0  0
   36.0290   30.3930   40.5920 C   0  0  0  0  0  0  0  0  0  0  0  0
   37.3260   30.5210   41.0620 C   0  0  0  0  0  0  0  0  0  0  0  0
   38.0200   29.5120   41.5860 N   0  0  0  0  0  0  0  0  0  0  0  0
   35.7510   27.1620   41.3000 H   0  0  0  0  0  0  0  0  0  0  0  0
   34.4580   28.9720   40.3420 H   0  0  0  0  0  0  0  0  0  0  0  0
   35.4780   31.2260   40.1690 H   0  0  0  0  0  0  0  0  0  0  0  0
   39.9430   26.1480   43.6750 C   0  0  0  0  0  0  0  0  0  0  0  0
   39.3050   27.3200   43.2220 C   0  0  0  0  0  0  0  0  0  0  0  0
   38.2790   27.1660   42.2780 C   0  0  0  0  0  0  0  0  0  0  0  0
   37.9770   25.9190   41.8720 N   0  0  0  0  0  0  0  0  0  0  0  0
   38.6000   24.8100   42.3150 C   0  0  0  0  0  0  0  0  0  0  0  0
   39.5900   24.9430   43.2250 N   0  0  0  0  0  0  0  0  0  0  0  0
   40.7310   26.3040   44.4030 H   0  0  0  0  0  0  0  0  0  0  0  0
   39.5340   28.3180   43.5370 H   0  0  0  0  0  0  0  0  0  0  0  0
   38.2800   23.8580   41.9250 H   0  0  0  0  0  0  0  0  0  0  0  0
   39.2560   31.6580   40.1180 C   0  0  2  0  0  3  0  0  0  0  0  0
   38.0190   31.8370   40.9990 C   0  0  1  0  0  3  0  0  0  0  0  0
   37.2970   32.7650   40.2570 O   0  0  0  0  0  0  0  0  0  0  0  0
   38.1800   33.7180   39.8100 C   0  0  0  0  0  2  0  0  0  0  0  0
   39.5400   33.0940   39.7350 C   0  0  2  0  0  3  0  0  0  0  0  0
   38.8800   30.9580   38.9710 O   0  0  0  0  0  0  0  0  0  0  0  0
   37.9670   31.2000   38.7460 H   0  0  0  0  0  0  0  0  0  0  0  0
   40.1020   33.1880   38.4640 O   0  0  0  0  0  0  0  0  0  0  0  0
   40.4500   32.3150   38.1720 H   0  0  0  0  0  0  0  0  0  0  0  0
  1 12  1  0  0  0  0
  2  7  1  0  0  0  0
  2  1  2  0  0  0  0
  3  2  1  0  0  0  0
  4  3  2  0  0  0  0
  4  5  1  0  0  0  0
  5  6  2  0  0  0  0
  6  1  1  0  0  0  0
  8  3  1  0  0  0  0
  9  4  1  0  0  0  0
 10 16  1  0  0  0  0
 11 17  1  0  0  0  0
 11 10  2  0  0  0  0
 12 11  1  0  0  0  0
 13 12  2  0  0  0  0
 13 14  1  0  0  0  0
 14 15  2  0  0  0  0
 15 10  1  0  0  0  0
 18 14  1  0  0  0  0
 19 24  1  6  0  0  0
 19 20  1  0  0  0  0
 20  5  1  6  0  0  0
 21 20  1  0  0  0  0
 22 21  1  0  0  0  0
 23 26  1  6  0  0  0
 23 22  1  0  0  0  0
 23 19  1  0  0  0  0
 25 24  1  0  0  0  0
 27 26  1  0  0  0  0
M  END
>  <minimizedAffinity>
-5.38410759

$$$$

 OpenBabel03242521033D

 27 29  0  0  1  0  0  0  0  0999 V2000
   36.7890   28.3200   39.5660 C   0  0  0  0  0  0  0  0  0  0  0  0
   35.8570   28.4600   38.5630 C   0  0  0  0  0  0  0  0  0  0  0  0
   35.7600   29.5440   37.7240 C   0  0  0  0  0  0  0  0  0  0  0  0
   36.6510   30.5750   37.8810 C   0  0  0  0  0  0  0  0  0  0  0  0
   37.5850   30.4230   38.8950 C   0  0  0  0  0  0  0  0  0  0  0  0
   37.6420   29.3530   39.6850 N   0  0  0  0  0  0  0  0  0  0  0  0
   35.1360   27.6690   38.4060 H   0  0  0  0  0  0  0  0  0  0  0  0
   35.0010   29.5980   36.9480 H   0  0  0  0  0  0  0  0  0  0  0  0
   36.6190   31.4540   37.2460 H   0  0  0  0  0  0  0  0  0  0  0  0
   36.8570   24.8050   40.9580 C   0  0  0  0  0  0  0  0  0  0  0  0
   36.7760   25.8210   39.9860 C   0  0  0  0  0  0  0  0  0  0  0  0
   36.8550   27.1470   40.4360 C   0  0  0  0  0  0  0  0  0  0  0  0
   37.0020   27.3570   41.7580 N   0  0  0  0  0  0  0  0  0  0  0  0
   37.0760   26.3720   42.6740 C   0  0  0  0  0  0  0  0  0  0  0  0
   37.0010   25.0890   42.2540 N   0  0  0  0  0  0  0  0  0  0  0  0
   36.7920   23.7930   40.5750 H   0  0  0  0  0  0  0  0  0  0  0  0
   36.6610   25.6690   38.9310 H   0  0  0  0  0  0  0  0  0  0  0  0
   37.1930   26.6490   43.7080 H   0  0  0  0  0  0  0  0  0  0  0  0
   37.8480   32.7030   39.6950 C   0  0  2  0  0  3  0  0  0  0  0  0
   38.5960   31.4870   39.1470 C   0  0  1  0  0  3  0  0  0  0  0  0
   39.4180   31.1730   40.2220 O   0  0  0  0  0  0  0  0  0  0  0  0
   39.9320   32.3510   40.7100 C   0  0  0  0  0  2  0  0  0  0  0  0
   38.9800   33.4540   40.3590 C   0  0  2  0  0  3  0  0  0  0  0  0
   36.9650   32.2660   40.6820 O   0  0  0  0  0  0  0  0  0  0  0  0
   37.3590   31.5020   41.1350 H   0  0  0  0  0  0  0  0  0  0  0  0
   38.5450   34.1610   41.4780 O   0  0  0  0  0  0  0  0  0  0  0  0
   37.5660   34.2560   41.4700 H   0  0  0  0  0  0  0  0  0  0  0  0
  1  6  1  0  0  0  0
  1 12  1  0  0  0  0
  2  1  2  0  0  0  0
  3  4  2  0  0  0  0
  3  2  1  0  0  0  0
  4  5  1  0  0  0  0
  5  6  2  0  0  0  0
  7  2  1  0  0  0  0
  8  3  1  0  0  0  0
  9  4  1  0  0  0  0
 10 15  1  0  0  0  0
 11 12  1  0  0  0  0
 11 10  2  0  0  0  0
 12 13  2  0  0  0  0
 13 14  1  0  0  0  0
 14 18  1  0  0  0  0
 15 14  2  0  0  0  0
 16 10  1  0  0  0  0
 17 11  1  0  0  0  0
 19 23  1  0  0  0  0
 19 24  1  1  0  0  0
 20  5  1  1  0  0  0
 20 19  1  0  0  0  0
 20 21  1  0  0  0  0
 21 22  1  0  0  0  0
 23 22  1  0  0  0  0
 23 26  1  1  0  0  0
 24 25  1  0  0  0  0
 27 26  1  0  0  0  0
M  END
>  <minimizedAffinity>
-5.38196945

$$$$

 OpenBabel03242521033D

 27 29  0  0  1  0  0  0  0  0999 V2000
   37.8710   29.0210   41.4290 C   0  0  0  0  0  0  0  0  0  0  0  0
   36.5100   29.2080   41.3360 C   0  0  0  0  0  0  0  0  0  0  0  0
   35.9020   30.2740   40.7180 C   0  0  0  0  0  0  0  0  0  0  0  0
   36.6940   31.2350   40.1420 C   0  0  0  0  0  0  0  0  0  0  0  0
   38.0630   31.0360   40.2420 C   0  0  0  0  0  0  0  0  0  0  0  0
   38.6080   29.9860   40.8520 N   0  0  0  0  0  0  0  0  0  0  0  0
   35.8510   28.4730   41.7770 H   0  0  0  0  0  0  0  0  0  0  0  0
   34.8210   30.3680   40.6760 H   0  0  0  0  0  0  0  0  0  0  0  0
   36.2660   32.0970   39.6420 H   0  0  0  0  0  0  0  0  0  0  0  0
   39.8880   26.7490   43.6790 C   0  0  0  0  0  0  0  0  0  0  0  0
   39.4030   27.9590   43.1440 C   0  0  0  0  0  0  0  0  0  0  0  0
   38.4740   27.8690   42.0970 C   0  0  0  0  0  0  0  0  0  0  0  0
   38.1120   26.6430   41.6780 N   0  0  0  0  0  0  0  0  0  0  0  0
   38.5880   25.4960   42.2010 C   0  0  0  0  0  0  0  0  0  0  0  0
   39.4840   25.5670   43.2100 N   0  0  0  0  0  0  0  0  0  0  0  0
   40.6050   26.8550   44.4860 H   0  0  0  0  0  0  0  0  0  0  0  0
   39.6810   28.9410   43.4690 H   0  0  0  0  0  0  0  0  0  0  0  0
   38.2320   24.5650   41.7900 H   0  0  0  0  0  0  0  0  0  0  0  0
   39.3170   33.0600   40.7310 C   0  0  2  0  0  3  0  0  0  0  0  0
   39.0070   32.0230   39.6500 C   0  0  1  0  0  3  0  0  0  0  0  0
   40.2660   31.4720   39.4420 O   0  0  0  0  0  0  0  0  0  0  0  0
   41.1720   32.5050   39.4080 C   0  0  0  0  0  2  0  0  0  0  0  0
   40.6060   33.6460   40.1980 C   0  0  2  0  0  3  0  0  0  0  0  0
   39.5940   32.3850   41.9200 O   0  0  0  0  0  0  0  0  0  0  0  0
   40.0230   31.5410   41.7040 H   0  0  0  0  0  0  0  0  0  0  0  0
   41.4520   34.0560   41.2270 O   0  0  0  0  0  0  0  0  0  0  0  0
   40.9560   34.1350   42.0730 H   0  0  0  0  0  0  0  0  0  0  0  0
  1 12  1  0  0  0  0
  2  1  1  0  0  0  0
  2  7  1  0  0  0  0
  3  2  2  0  0  0  0
  4  5  2  0  0  0  0
  4  3  1  0  0  0  0
  5  6  1  0  0  0  0
  6  1  2  0  0  0  0
  8  3  1  0  0  0  0
  9  4  1  0  0  0  0
 10 16  1  0  0  0  0
 11 17  1  0  0  0  0
 11 10  2  0  0  0  0
 12 11  1  0  0  0  0
 13 12  2  0  0  0  0
 13 14  1  0  0  0  0
 14 15  2  0  0  0  0
 15 10  1  0  0  0  0
 18 14  1  0  0  0  0
 19 24  1  1  0  0  0
 20  5  1  1  0  0  0
 20 19  1  0  0  0  0
 21 20  1  0  0  0  0
 22 21  1  0  0  0  0
 22 23  1  0  0  0  0
 23 19  1  0  0  0  0
 23 26  1  1  0  0  0
 25 24  1  0  0  0  0
 26 27  1  0  0  0  0
M  END
>  <minimizedAffinity>
-5.22443676

$$$$

 OpenBabel03242521033D

 27 29  0  0  1  0  0  0  0  0999 V2000
   37.5630   30.7260   40.9040 C   0  0  0  0  0  0  0  0  0  0  0  0
   36.3160   30.6360   40.3270 C   0  0  0  0  0  0  0  0  0  0  0  0
   35.4500   29.5810   40.4850 C   0  0  0  0  0  0  0  0  0  0  0  0
   35.8380   28.5280   41.2740 C   0  0  0  0  0  0  0  0  0  0  0  0
   37.0950   28.6300   41.8500 C   0  0  0  0  0  0  0  0  0  0  0  0
   37.9020   29.6730   41.6680 N   0  0  0  0  0  0  0  0  0  0  0  0
   35.9720   31.4460   39.6980 H   0  0  0  0  0  0  0  0  0  0  0  0
   34.4760   29.5660   40.0030 H   0  0  0  0  0  0  0  0  0  0  0  0
   35.1930   27.6700   41.4310 H   0  0  0  0  0  0  0  0  0  0  0  0
   40.5510   33.0310   40.6780 C   0  0  0  0  0  0  0  0  0  0  0  0
   39.8390   31.8380   40.9120 C   0  0  0  0  0  0  0  0  0  0  0  0
   38.4520   31.8690   40.7080 C   0  0  0  0  0  0  0  0  0  0  0  0
   37.9000   33.0290   40.3040 N   0  0  0  0  0  0  0  0  0  0  0  0
   38.5980   34.1600   40.0860 C   0  0  0  0  0  0  0  0  0  0  0  0
   39.9350   34.1450   40.2790 N   0  0  0  0  0  0  0  0  0  0  0  0
   41.6210   32.9710   40.8470 H   0  0  0  0  0  0  0  0  0  0  0  0
   40.2650   30.9080   41.2330 H   0  0  0  0  0  0  0  0  0  0  0  0
   38.0570   35.0350   39.7640 H   0  0  0  0  0  0  0  0  0  0  0  0
   38.0620   26.4000   41.8070 C   0  0  2  0  0  3  0  0  0  0  0  0
   37.6080   27.5390   42.7220 C   0  0  1  0  0  3  0  0  0  0  0  0
   38.8090   27.8850   43.3300 O   0  0  0  0  0  0  0  0  0  0  0  0
   39.4590   26.7210   43.6630 C   0  0  0  0  0  2  0  0  0  0  0  0
   38.9860   25.6430   42.7360 C   0  0  2  0  0  3  0  0  0  0  0  0
   38.8220   26.9460   40.7730 O   0  0  0  0  0  0  0  0  0  0  0  0
   39.3010   27.7190   41.1140 H   0  0  0  0  0  0  0  0  0  0  0  0
   40.0310   25.0360   42.0440 O   0  0  0  0  0  0  0  0  0  0  0  0
   39.8290   24.9880   41.0820 H   0  0  0  0  0  0  0  0  0  0  0  0
  1  6  1  0  0  0  0
  2  3  1  0  0  0  0
  2  1  2  0  0  0  0
  3  4  2  0  0  0  0
  4  9  1  0  0  0  0
  4  5  1  0  0  0  0
  6  5  2  0  0  0  0
  7  2  1  0  0  0  0
  8  3  1  0  0  0  0
 10 16  1  0  0  0  0
 10 11  1  0  0  0  0
 11 17  1  0  0  0  0
 12  1  1  0  0  0  0
 12 11  2  0  0  0  0
 13 12  1  0  0  0  0
 14 15  1  0  0  0  0
 14 13  2  0  0  0  0
 15 10  2  0  0  0  0
 18 14  1  0  0  0  0
 19 24  1  6  0  0  0
 19 20  1  0  0  0  0
 19 23  1  0  0  0  0
 20  5  1  6  0  0  0
 20 21  1  0  0  0  0
 21 22  1  0  0  0  0
 23 26  1  6  0  0  0
 23 22  1  0  0  0  0
 24 25  1  0  0  0  0
 27 26  1  0  0  0  0
M  END
>  <minimizedAffinity>
-5.18359518

$$$$

 OpenBabel03242521033D

 27 29  0  0  1  0  0  0  0  0999 V2000
   37.8070   29.8330   38.0570 C   0  0  0  0  0  0  0  0  0  0  0  0
   36.7140   30.4300   38.6430 C   0  0  0  0  0  0  0  0  0  0  0  0
   36.7480   31.5990   39.3640 C   0  0  0  0  0  0  0  0  0  0  0  0
   37.9530   32.2360   39.5220 C   0  0  0  0  0  0  0  0  0  0  0  0
   39.0460   31.6260   38.9260 C   0  0  0  0  0  0  0  0  0  0  0  0
   38.9660   30.4900   38.2360 N   0  0  0  0  0  0  0  0  0  0  0  0
   35.7450   29.9590   38.5420 H   0  0  0  0  0  0  0  0  0  0  0  0
   35.8500   32.0230   39.8040 H   0  0  0  0  0  0  0  0  0  0  0  0
   38.0360   33.1610   40.0810 H   0  0  0  0  0  0  0  0  0  0  0  0
   38.5770   26.6450   36.1750 C   0  0  0  0  0  0  0  0  0  0  0  0
   38.8320   27.8230   36.9040 C   0  0  0  0  0  0  0  0  0  0  0  0
   37.7240   28.5860   37.2970 C   0  0  0  0  0  0  0  0  0  0  0  0
   36.4990   28.1440   36.9540 N   0  0  0  0  0  0  0  0  0  0  0  0
   36.2750   27.0140   36.2550 C   0  0  0  0  0  0  0  0  0  0  0  0
   37.3340   26.2690   35.8700 N   0  0  0  0  0  0  0  0  0  0  0  0
   39.4570   26.0800   35.8870 H   0  0  0  0  0  0  0  0  0  0  0  0
   39.8000   28.1870   37.1850 H   0  0  0  0  0  0  0  0  0  0  0  0
   35.2540   26.7510   36.0330 H   0  0  0  0  0  0  0  0  0  0  0  0
   41.0280   32.2100   37.6470 C   0  0  2  0  0  3  0  0  0  0  0  0
   40.3980   32.2370   39.0410 C   0  0  1  0  0  3  0  0  0  0  0  0
   40.3280   33.6050   39.2740 O   0  0  0  0  0  0  0  0  0  0  0  0
   41.5130   34.1610   38.8550 C   0  0  0  0  0  2  0  0  0  0  0  0
   42.0970   33.2700   37.8010 C   0  0  2  0  0  3  0  0  0  0  0  0
   40.0820   32.6630   36.7290 O   0  0  0  0  0  0  0  0  0  0  0  0
   39.5220   33.3280   37.1630 H   0  0  0  0  0  0  0  0  0  0  0  0
   42.3340   33.9430   36.6030 O   0  0  0  0  0  0  0  0  0  0  0  0
   41.9680   33.4370   35.8420 H   0  0  0  0  0  0  0  0  0  0  0  0
  1  6  2  0  0  0  0
  1  2  1  0  0  0  0
  2  3  2  0  0  0  0
  3  4  1  0  0  0  0
  3  8  1  0  0  0  0
  4  9  1  0  0  0  0
  5  4  2  0  0  0  0
  6  5  1  0  0  0  0
  7  2  1  0  0  0  0
 10 11  1  0  0  0  0
 11 17  1  0  0  0  0
 11 12  2  0  0  0  0
 12  1  1  0  0  0  0
 13 12  1  0  0  0  0
 14 13  2  0  0  0  0
 15 10  2  0  0  0  0
 15 14  1  0  0  0  0
 16 10  1  0  0  0  0
 18 14  1  0  0  0  0
 19 24  1  6  0  0  0
 19 23  1  0  0  0  0
 19 20  1  0  0  0  0
 20  5  1  6  0  0  0
 20 21  1  0  0  0  0
 22 21  1  0  0  0  0
 23 26  1  6  0  0  0
 23 22  1  0  0  0  0
 24 25  1  0  0  0  0
 27 26  1  0  0  0  0
M  END
>  <minimizedAffinity>
-5.14969778

$$$$

 OpenBabel03242521033D

 27 29  0  0  1  0  0  0  0  0999 V2000
   38.1140   31.0980   38.8000 C   0  0  0  0  0  0  0  0  0  0  0  0
   37.2560   30.7990   37.7660 C   0  0  0  0  0  0  0  0  0  0  0  0
   36.1750   29.9550   37.8590 C   0  0  0  0  0  0  0  0  0  0  0  0
   35.9150   29.3550   39.0650 C   0  0  0  0  0  0  0  0  0  0  0  0
   36.7860   29.6640   40.0990 C   0  0  0  0  0  0  0  0  0  0  0  0
   37.8220   30.4890   39.9630 N   0  0  0  0  0  0  0  0  0  0  0  0
   37.4260   31.2520   36.7990 H   0  0  0  0  0  0  0  0  0  0  0  0
   35.5320   29.7570   37.0060 H   0  0  0  0  0  0  0  0  0  0  0  0
   35.0760   28.6800   39.1930 H   0  0  0  0  0  0  0  0  0  0  0  0
   41.2420   32.8750   37.6360 C   0  0  0  0  0  0  0  0  0  0  0  0
   40.2040   31.9220   37.6290 C   0  0  0  0  0  0  0  0  0  0  0  0
   39.2520   32.0040   38.6550 C   0  0  0  0  0  0  0  0  0  0  0  0
   39.3940   32.9810   39.5700 N   0  0  0  0  0  0  0  0  0  0  0  0
   40.3940   33.8830   39.5610 C   0  0  0  0  0  0  0  0  0  0  0  0
   41.3180   33.8160   38.5780 N   0  0  0  0  0  0  0  0  0  0  0  0
   41.9600   32.7820   36.8290 H   0  0  0  0  0  0  0  0  0  0  0  0
   40.0780   31.1400   36.9070 H   0  0  0  0  0  0  0  0  0  0  0  0
   40.4140   34.6250   40.3420 H   0  0  0  0  0  0  0  0  0  0  0  0
   37.1460   27.6400   41.3950 C   0  0  2  0  0  3  0  0  0  0  0  0
   36.5900   29.0640   41.4470 C   0  0  1  0  0  3  0  0  0  0  0  0
   37.4240   29.6410   42.3950 O   0  0  0  0  0  0  0  0  0  0  0  0
   37.5750   28.7390   43.4220 C   0  0  0  0  0  2  0  0  0  0  0  0
   37.3520   27.3650   42.8690 C   0  0  2  0  0  3  0  0  0  0  0  0
   38.3940   27.6790   40.7730 O   0  0  0  0  0  0  0  0  0  0  0  0
   38.8220   28.5240   40.9890 H   0  0  0  0  0  0  0  0  0  0  0  0
   38.4350   26.5170   43.0900 O   0  0  0  0  0  0  0  0  0  0  0  0
   38.6890   26.0530   42.2600 H   0  0  0  0  0  0  0  0  0  0  0  0
  1  6  1  0  0  0  0
  2  3  1  0  0  0  0
  2  1  2  0  0  0  0
  3  4  2  0  0  0  0
  4  9  1  0  0  0  0
  4  5  1  0  0  0  0
  6  5  2  0  0  0  0
  7  2  1  0  0  0  0
  8  3  1  0  0  0  0
 10 15  1  0  0  0  0
 11 10  2  0  0  0  0
 11 12  1  0  0  0  0
 12  1  1  0  0  0  0
 12 13  2  0  0  0  0
 14 13  1  0  0  0  0
 14 18  1  0  0  0  0
 15 14  2  0  0  0  0
 16 10  1  0  0  0  0
 17 11  1  0  0  0  0
 19 24  1  6  0  0  0
 19 20  1  0  0  0  0
 19 23  1  0  0  0  0
 20  5  1  6  0  0  0
 20 21  1  0  0  0  0
 21 22  1  0  0  0  0
 23 26  1  6  0  0  0
 23 22  1  0  0  0  0
 24 25  1  0  0  0  0
 27 26  1  0  0  0  0
M  END
>  <minimizedAffinity>
-4.95342636

$$$$

 OpenBabel03242521033D

 27 29  0  0  1  0  0  0  0  0999 V2000
   37.5020   29.3260   41.6260 C   0  0  0  0  0  0  0  0  0  0  0  0
   37.5270   29.1870   42.9960 C   0  0  0  0  0  0  0  0  0  0  0  0
   37.3690   28.0000   43.6700 C   0  0  0  0  0  0  0  0  0  0  0  0
   37.1710   26.8540   42.9410 C   0  0  0  0  0  0  0  0  0  0  0  0
   37.1480   27.0060   41.5630 C   0  0  0  0  0  0  0  0  0  0  0  0
   37.3050   28.1780   40.9520 N   0  0  0  0  0  0  0  0  0  0  0  0
   37.6810   30.0660   43.6060 H   0  0  0  0  0  0  0  0  0  0  0  0
   37.3990   27.9530   44.7550 H   0  0  0  0  0  0  0  0  0  0  0  0
   37.0410   25.8920   43.4230 H   0  0  0  0  0  0  0  0  0  0  0  0
   37.1230   32.3670   39.4130 C   0  0  0  0  0  0  0  0  0  0  0  0
   36.8120   31.1080   39.9640 C   0  0  0  0  0  0  0  0  0  0  0  0
   37.6740   30.6100   40.9510 C   0  0  0  0  0  0  0  0  0  0  0  0
   38.7330   31.3630   41.3020 N   0  0  0  0  0  0  0  0  0  0  0  0
   39.0160   32.5650   40.7620 C   0  0  0  0  0  0  0  0  0  0  0  0
   38.1930   33.0570   39.8100 N   0  0  0  0  0  0  0  0  0  0  0  0
   36.4360   32.7210   38.6520 H   0  0  0  0  0  0  0  0  0  0  0  0
   35.9720   30.4990   39.6960 H   0  0  0  0  0  0  0  0  0  0  0  0
   39.8900   33.0860   41.1150 H   0  0  0  0  0  0  0  0  0  0  0  0
   38.1510   25.7260   39.7570 C   0  0  2  0  0  3  0  0  0  0  0  0
   36.9380   25.8240   40.6840 C   0  0  1  0  0  3  0  0  0  0  0  0
   37.0450   24.6310   41.3880 O   0  0  0  0  0  0  0  0  0  0  0  0
   37.3620   23.6420   40.4880 C   0  0  0  0  0  2  0  0  0  0  0  0
   38.0580   24.2790   39.3240 C   0  0  2  0  0  3  0  0  0  0  0  0
   39.3040   25.8870   40.5250 O   0  0  0  0  0  0  0  0  0  0  0  0
   39.1430   25.5140   41.4070 H   0  0  0  0  0  0  0  0  0  0  0  0
   39.3170   23.7300   39.0870 O   0  0  0  0  0  0  0  0  0  0  0  0
   39.9920   24.4380   38.9860 H   0  0  0  0  0  0  0  0  0  0  0  0
  1  2  1  0  0  0  0
  2  7  1  0  0  0  0
  2  3  2  0  0  0  0
  3  8  1  0  0  0  0
  4  9  1  0  0  0  0
  4  3  1  0  0  0  0
  5  4  2  0  0  0  0
  6  5  1  0  0  0  0
  6  1  2  0  0  0  0
 10 15  2  0  0  0  0
 10 11  1  0  0  0  0
 11 12  2  0  0  0  0
 12 13  1  0  0  0  0
 12  1  1  0  0  0  0
 14 18  1  0  0  0  0
 14 13  2  0  0  0  0
 15 14  1  0  0  0  0
 16 10  1  0  0  0  0
 17 11  1  0  0  0  0
 19 24  1  1  0  0  0
 19 20  1  0  0  0  0
 20 21  1  0  0  0  0
 20  5  1  1  0  0  0
 22 21  1  0  0  0  0
 23 26  1  1  0  0  0
 23 19  1  0  0  0  0
 23 22  1  0  0  0  0
 24 25  1  0  0  0  0
 27 26  1  0  0  0  0
M  END
>  <minimizedAffinity>
-4.92734289

$$$$

 OpenBabel03242521033D

 27 29  0  0  1  0  0  0  0  0999 V2000
   38.1410   29.4540   41.8180 C   0  0  0  0  0  0  0  0  0  0  0  0
   36.8710   28.9370   41.9390 C   0  0  0  0  0  0  0  0  0  0  0  0
   36.5540   27.7760   42.6030 C   0  0  0  0  0  0  0  0  0  0  0  0
   37.5650   27.0650   43.1980 C   0  0  0  0  0  0  0  0  0  0  0  0
   38.8400   27.5960   43.0700 C   0  0  0  0  0  0  0  0  0  0  0  0
   39.1010   28.7250   42.4160 N   0  0  0  0  0  0  0  0  0  0  0  0
   36.0460   29.4670   41.4850 H   0  0  0  0  0  0  0  0  0  0  0  0
   35.5300   27.4170   42.6650 H   0  0  0  0  0  0  0  0  0  0  0  0
   37.3700   26.1430   43.7340 H   0  0  0  0  0  0  0  0  0  0  0  0
   39.8240   32.3260   40.0240 C   0  0  0  0  0  0  0  0  0  0  0  0
   39.7170   31.0980   40.7090 C   0  0  0  0  0  0  0  0  0  0  0  0
   38.4330   30.6940   41.1020 C   0  0  0  0  0  0  0  0  0  0  0  0
   37.3980   31.5000   40.8000 N   0  0  0  0  0  0  0  0  0  0  0  0
   37.5200   32.6720   40.1460 C   0  0  0  0  0  0  0  0  0  0  0  0
   38.7510   33.0740   39.7610 N   0  0  0  0  0  0  0  0  0  0  0  0
   40.8300   32.6070   39.7360 H   0  0  0  0  0  0  0  0  0  0  0  0
   40.5310   30.4470   40.9540 H   0  0  0  0  0  0  0  0  0  0  0  0
   36.6250   33.2410   39.9550 H   0  0  0  0  0  0  0  0  0  0  0  0
   40.3640   25.7270   42.7630 C   0  0  2  0  0  3  0  0  0  0  0  0
   40.0050   26.8990   43.6790 C   0  0  1  0  0  3  0  0  0  0  0  0
   41.1630   27.6620   43.6000 O   0  0  0  0  0  0  0  0  0  0  0  0
   42.2340   26.8050   43.6800 C   0  0  0  0  0  2  0  0  0  0  0  0
   41.7890   25.4580   43.1950 C   0  0  2  0  0  3  0  0  0  0  0  0
   40.3770   26.1880   41.4470 O   0  0  0  0  0  0  0  0  0  0  0  0
   40.6740   27.1130   41.4460 H   0  0  0  0  0  0  0  0  0  0  0  0
   42.5670   24.9860   42.1400 O   0  0  0  0  0  0  0  0  0  0  0  0
   41.9980   24.6670   41.4040 H   0  0  0  0  0  0  0  0  0  0  0  0
  1  2  2  0  0  0  0
  1  6  1  0  0  0  0
  2  3  1  0  0  0  0
  3  8  1  0  0  0  0
  3  4  2  0  0  0  0
  4  9  1  0  0  0  0
  5  4  1  0  0  0  0
  6  5  2  0  0  0  0
  7  2  1  0  0  0  0
 10 11  1  0  0  0  0
 11 17  1  0  0  0  0
 11 12  2  0  0  0  0
 12  1  1  0  0  0  0
 13 12  1  0  0  0  0
 14 13  2  0  0  0  0
 15 10  2  0  0  0  0
 15 14  1  0  0  0  0
 16 10  1  0  0  0  0
 18 14  1  0  0  0  0
 19 24  1  6  0  0  0
 19 23  1  0  0  0  0
 19 20  1  0  0  0  0
 20  5  1  6  0  0  0
 21 20  1  0  0  0  0
 21 22  1  0  0  0  0
 23 26  1  6  0  0  0
 23 22  1  0  0  0  0
 25 24  1  0  0  0  0
 27 26  1  0  0  0  0
M  END
>  <minimizedAffinity>
-4.88866806

$$$$
