
 OpenBabel03242520383D

 35 38  0  0  1  0  0  0  0  0999 V2000
   37.0930   29.8750   41.8250 C   0  0  0  0  0  0  0  0  0  0  0  0
   38.1320   29.0240   42.3370 C   0  0  0  0  0  0  0  0  0  0  0  0
   39.3890   29.1980   41.8210 C   0  0  0  0  0  0  0  0  0  0  0  0
   39.6030   30.1430   40.8720 N   0  0  0  0  0  0  0  0  0  0  0  0
   38.6000   30.9300   40.4110 C   0  0  0  0  0  0  0  0  0  0  0  0
   37.3530   30.7830   40.8990 N   0  0  0  0  0  0  0  0  0  0  0  0
   36.0830   29.7870   42.1930 H   0  0  0  0  0  0  0  0  0  0  0  0
   40.2370   28.5970   42.1500 H   0  0  0  0  0  0  0  0  0  0  0  0
   37.8510   27.9920   43.3630 C   0  0  1  0  0  0  0  0  0  0  0  0
   36.5270   27.4970   43.5980 C   0  0  0  0  0  0  0  0  0  0  0  0
   37.4380   26.5910   42.8720 C   0  0  1  0  0  0  0  0  0  0  0  0
   38.7300   27.8840   44.0650 H   0  0  0  0  0  0  0  0  0  0  0  0
   35.6770   27.9620   43.0510 H   0  0  0  0  0  0  0  0  0  0  0  0
   36.1640   27.1790   44.6250 H   0  0  0  0  0  0  0  0  0  0  0  0
   37.7800   25.7040   43.4670 H   0  0  0  0  0  0  0  0  0  0  0  0
   37.3240   26.3050   41.4210 C   0  0  0  0  0  0  0  0  0  0  0  0
   38.5430   26.4170   40.7760 F   0  0  0  0  0  0  0  0  0  0  0  0
   36.4070   27.1570   40.8070 F   0  0  0  0  0  0  0  0  0  0  0  0
   36.9160   25.0020   41.2900 F   0  0  0  0  0  0  0  0  0  0  0  0
   38.9270   31.9420   39.3750 C   0  0  2  0  0  0  0  0  0  0  0  0
   38.2980   31.6610   38.0250 C   0  0  0  0  0  0  0  0  0  0  0  0
   39.7880   31.5920   38.2200 C   0  0  1  0  0  0  0  0  0  0  0  0
   38.8460   32.9660   39.7380 H   0  0  0  0  0  0  0  0  0  0  0  0
   37.7870   30.7050   37.8390 H   0  0  0  0  0  0  0  0  0  0  0  0
   37.9770   32.5040   37.3780 H   0  0  0  0  0  0  0  0  0  0  0  0
   40.2840   30.6000   38.2400 H   0  0  0  0  0  0  0  0  0  0  0  0
   41.9340   32.2760   37.0800 C   0  0  1  0  0  3  0  0  0  0  0  0
   40.6480   32.7130   37.6790 C   0  0  2  0  0  3  0  0  0  0  0  0
   40.8650   33.6460   38.6570 O   0  0  0  0  0  0  0  0  0  0  0  0
   42.2280   33.7690   38.8560 C   0  0  0  0  0  2  0  0  0  0  0  0
   42.9140   33.3180   37.5900 C   0  0  2  0  0  3  0  0  0  0  0  0
   42.3720   31.0360   37.5360 O   0  0  0  0  0  0  0  0  0  0  0  0
   43.1720   31.1100   38.1170 H   0  0  0  0  0  0  0  0  0  0  0  0
   43.1220   34.3470   36.6880 O   0  0  0  0  0  0  0  0  0  0  0  0
   42.7820   34.1300   35.7740 H   0  0  0  0  0  0  0  0  0  0  0  0
  1  7  1  0  0  0  0
  1  2  1  0  0  0  0
  2  9  1  0  0  0  0
  3  8  1  0  0  0  0
  3  2  2  0  0  0  0
  4  3  1  0  0  0  0
  5  4  2  0  0  0  0
  5  6  1  0  0  0  0
  6  1  2  0  0  0  0
  9 10  1  0  0  0  0
  9 12  1  1  0  0  0
 10 14  1  0  0  0  0
 11  9  1  0  0  0  0
 11 15  1  1  0  0  0
 11 10  1  0  0  0  0
 13 10  1  0  0  0  0
 16 11  1  0  0  0  0
 17 16  1  0  0  0  0
 18 16  1  0  0  0  0
 19 16  1  0  0  0  0
 20 23  1  1  0  0  0
 20  5  1  0  0  0  0
 21 22  1  0  0  0  0
 21 20  1  0  0  0  0
 22 26  1  1  0  0  0
 22 20  1  0  0  0  0
 24 21  1  0  0  0  0
 25 21  1  0  0  0  0
 27 32  1  1  0  0  0
 27 31  1  0  0  0  0
 27 28  1  0  0  0  0
 28 22  1  0  0  0  0
 28 29  1  1  0  0  0
 29 30  1  0  0  0  0
 31 34  1  6  0  0  0
 31 30  1  0  0  0  0
 32 33  1  0  0  0  0
 35 34  1  0  0  0  0
M  END
>  <minimizedAffinity>
-5.9797039

$$$$

 OpenBabel03242520383D

 35 38  0  0  1  0  0  0  0  0999 V2000
   38.2710   30.3990   41.0340 C   0  0  0  0  0  0  0  0  0  0  0  0
   37.1120   31.1370   40.6120 C   0  0  0  0  0  0  0  0  0  0  0  0
   35.9060   30.4910   40.6770 C   0  0  0  0  0  0  0  0  0  0  0  0
   35.8490   29.2130   41.1270 N   0  0  0  0  0  0  0  0  0  0  0  0
   36.9620   28.5450   41.5180 C   0  0  0  0  0  0  0  0  0  0  0  0
   38.1630   29.1530   41.4660 N   0  0  0  0  0  0  0  0  0  0  0  0
   39.2490   30.8530   41.0070 H   0  0  0  0  0  0  0  0  0  0  0  0
   34.9760   30.9740   40.3780 H   0  0  0  0  0  0  0  0  0  0  0  0
   37.2220   32.5270   40.1120 C   0  0  1  0  0  0  0  0  0  0  0  0
   38.4630   33.0700   39.6440 C   0  0  0  0  0  0  0  0  0  0  0  0
   37.4740   32.7260   38.6050 C   0  0  1  0  0  0  0  0  0  0  0  0
   36.3100   33.1260   40.4060 H   0  0  0  0  0  0  0  0  0  0  0  0
   39.3860   32.4550   39.7390 H   0  0  0  0  0  0  0  0  0  0  0  0
   38.7440   34.1620   39.7740 H   0  0  0  0  0  0  0  0  0  0  0  0
   37.0010   33.6100   38.1050 H   0  0  0  0  0  0  0  0  0  0  0  0
   37.6070   31.5560   37.7030 C   0  0  0  0  0  0  0  0  0  0  0  0
   36.5130   30.7120   37.7870 F   0  0  0  0  0  0  0  0  0  0  0  0
   38.7630   30.8280   37.9850 F   0  0  0  0  0  0  0  0  0  0  0  0
   37.6530   32.0300   36.4170 F   0  0  0  0  0  0  0  0  0  0  0  0
   36.8050   27.1510   42.0010 C   0  0  2  0  0  0  0  0  0  0  0  0
   36.9810   26.9980   43.4990 C   0  0  0  0  0  0  0  0  0  0  0  0
   37.9660   26.3980   42.5350 C   0  0  1  0  0  0  0  0  0  0  0  0
   35.9460   26.6410   41.5650 H   0  0  0  0  0  0  0  0  0  0  0  0
   37.3440   27.8420   44.1040 H   0  0  0  0  0  0  0  0  0  0  0  0
   36.3870   26.2400   44.0510 H   0  0  0  0  0  0  0  0  0  0  0  0
   38.9660   26.8650   42.4250 H   0  0  0  0  0  0  0  0  0  0  0  0
   38.9080   24.4180   41.2850 C   0  0  1  0  0  3  0  0  0  0  0  0
   37.9430   24.9030   42.3020 C   0  0  2  0  0  3  0  0  0  0  0  0
   36.6730   24.5000   41.9910 O   0  0  0  0  0  0  0  0  0  0  0  0
   36.6930   23.8890   40.7510 C   0  0  0  0  0  2  0  0  0  0  0  0
   38.0970   23.3890   40.5160 C   0  0  2  0  0  3  0  0  0  0  0  0
   39.3050   25.3960   40.3780 O   0  0  0  0  0  0  0  0  0  0  0  0
   38.9400   25.2370   39.4690 H   0  0  0  0  0  0  0  0  0  0  0  0
   38.2990   22.0970   40.9710 O   0  0  0  0  0  0  0  0  0  0  0  0
   39.0980   22.0200   41.5640 H   0  0  0  0  0  0  0  0  0  0  0  0
  1  6  1  0  0  0  0
  2  3  1  0  0  0  0
  2  1  2  0  0  0  0
  3  4  2  0  0  0  0
  4  5  1  0  0  0  0
  5 20  1  0  0  0  0
  6  5  2  0  0  0  0
  7  1  1  0  0  0  0
  8  3  1  0  0  0  0
  9 12  1  1  0  0  0
  9  2  1  0  0  0  0
 10 13  1  0  0  0  0
 10 14  1  0  0  0  0
 10  9  1  0  0  0  0
 11 15  1  6  0  0  0
 11 10  1  0  0  0  0
 11  9  1  0  0  0  0
 16 17  1  0  0  0  0
 16 18  1  0  0  0  0
 16 11  1  0  0  0  0
 19 16  1  0  0  0  0
 20 23  1  6  0  0  0
 20 22  1  0  0  0  0
 20 21  1  0  0  0  0
 21 25  1  0  0  0  0
 21 24  1  0  0  0  0
 22 26  1  6  0  0  0
 22 21  1  0  0  0  0
 27 32  1  6  0  0  0
 27 28  1  0  0  0  0
 28 29  1  6  0  0  0
 28 22  1  0  0  0  0
 30 29  1  0  0  0  0
 31 30  1  0  0  0  0
 31 34  1  1  0  0  0
 31 27  1  0  0  0  0
 33 32  1  0  0  0  0
 34 35  1  0  0  0  0
M  END
>  <minimizedAffinity>
-5.92290449

$$$$

 OpenBabel03242520383D

 35 38  0  0  1  0  0  0  0  0999 V2000
   40.5200   28.0760   42.5770 C   0  0  0  0  0  0  0  0  0  0  0  0
   39.1980   28.5290   42.9110 C   0  0  0  0  0  0  0  0  0  0  0  0
   38.8950   29.8330   42.6200 C   0  0  0  0  0  0  0  0  0  0  0  0
   39.8290   30.6290   42.0420 N   0  0  0  0  0  0  0  0  0  0  0  0
   41.0690   30.1690   41.7400 C   0  0  0  0  0  0  0  0  0  0  0  0
   41.3960   28.8920   42.0130 N   0  0  0  0  0  0  0  0  0  0  0  0
   40.8180   27.0600   42.7800 H   0  0  0  0  0  0  0  0  0  0  0  0
   37.9170   30.2620   42.8380 H   0  0  0  0  0  0  0  0  0  0  0  0
   38.2130   27.6310   43.5570 C   0  0  1  0  0  0  0  0  0  0  0  0
   36.8030   27.8840   43.5010 C   0  0  0  0  0  0  0  0  0  0  0  0
   37.3010   26.7940   42.6400 C   0  0  1  0  0  0  0  0  0  0  0  0
   38.7290   26.9360   44.2830 H   0  0  0  0  0  0  0  0  0  0  0  0
   36.4480   28.8270   43.0290 H   0  0  0  0  0  0  0  0  0  0  0  0
   36.0970   27.6160   44.3480 H   0  0  0  0  0  0  0  0  0  0  0  0
   37.0130   25.7660   42.9820 H   0  0  0  0  0  0  0  0  0  0  0  0
   37.4140   26.9020   41.1650 C   0  0  0  0  0  0  0  0  0  0  0  0
   38.6920   26.6100   40.7220 F   0  0  0  0  0  0  0  0  0  0  0  0
   37.0610   28.1760   40.7220 F   0  0  0  0  0  0  0  0  0  0  0  0
   36.5740   25.9650   40.6190 F   0  0  0  0  0  0  0  0  0  0  0  0
   42.0250   31.1090   41.1030 C   0  0  2  0  0  0  0  0  0  0  0  0
   42.4990   32.2170   42.0230 C   0  0  0  0  0  0  0  0  0  0  0  0
   41.6360   32.5140   40.8270 C   0  0  1  0  0  0  0  0  0  0  0  0
   42.7960   30.6060   40.5210 H   0  0  0  0  0  0  0  0  0  0  0  0
   42.0310   32.3580   43.0080 H   0  0  0  0  0  0  0  0  0  0  0  0
   43.5340   32.6090   41.9280 H   0  0  0  0  0  0  0  0  0  0  0  0
   40.5730   32.7850   40.9840 H   0  0  0  0  0  0  0  0  0  0  0  0
   41.3200   33.8200   38.6900 C   0  0  1  0  0  3  0  0  0  0  0  0
   42.2720   33.1430   39.6060 C   0  0  2  0  0  3  0  0  0  0  0  0
   43.0080   32.2080   38.9310 O   0  0  0  0  0  0  0  0  0  0  0  0
   42.5200   32.1080   37.6410 C   0  0  0  0  0  2  0  0  0  0  0  0
   41.8240   33.4070   37.3180 C   0  0  2  0  0  3  0  0  0  0  0  0
   40.0100   33.3630   38.8060 O   0  0  0  0  0  0  0  0  0  0  0  0
   39.7220   32.8420   38.0130 H   0  0  0  0  0  0  0  0  0  0  0  0
   42.6640   34.3490   36.7490 O   0  0  0  0  0  0  0  0  0  0  0  0
   42.6250   35.2300   37.2170 H   0  0  0  0  0  0  0  0  0  0  0  0
  1  7  1  0  0  0  0
  1  2  1  0  0  0  0
  2  9  1  0  0  0  0
  3  8  1  0  0  0  0
  3  2  2  0  0  0  0
  4  3  1  0  0  0  0
  5  6  1  0  0  0  0
  5  4  2  0  0  0  0
  6  1  2  0  0  0  0
  9 12  1  1  0  0  0
 10  9  1  0  0  0  0
 10 14  1  0  0  0  0
 11 15  1  1  0  0  0
 11 10  1  0  0  0  0
 11  9  1  0  0  0  0
 13 10  1  0  0  0  0
 16 11  1  0  0  0  0
 17 16  1  0  0  0  0
 18 16  1  0  0  0  0
 19 16  1  0  0  0  0
 20 23  1  6  0  0  0
 20  5  1  0  0  0  0
 20 21  1  0  0  0  0
 21 24  1  0  0  0  0
 22 26  1  1  0  0  0
 22 20  1  0  0  0  0
 22 21  1  0  0  0  0
 25 21  1  0  0  0  0
 27 32  1  1  0  0  0
 27 28  1  0  0  0  0
 28 29  1  6  0  0  0
 28 22  1  0  0  0  0
 30 29  1  0  0  0  0
 31 34  1  1  0  0  0
 31 30  1  0  0  0  0
 31 27  1  0  0  0  0
 33 32  1  0  0  0  0
 34 35  1  0  0  0  0
M  END
>  <minimizedAffinity>
-5.74466753

$$$$

 OpenBabel03242520383D

 35 38  0  0  1  0  0  0  0  0999 V2000
   37.4370   26.8910   40.3660 C   0  0  0  0  0  0  0  0  0  0  0  0
   37.0570   26.5580   41.7120 C   0  0  0  0  0  0  0  0  0  0  0  0
   37.0210   27.5840   42.6190 C   0  0  0  0  0  0  0  0  0  0  0  0
   37.3340   28.8430   42.2250 N   0  0  0  0  0  0  0  0  0  0  0  0
   37.6880   29.1230   40.9470 C   0  0  0  0  0  0  0  0  0  0  0  0
   37.7340   28.1350   40.0310 N   0  0  0  0  0  0  0  0  0  0  0  0
   37.4830   26.1260   39.6060 H   0  0  0  0  0  0  0  0  0  0  0  0
   36.7440   27.4240   43.6610 H   0  0  0  0  0  0  0  0  0  0  0  0
   36.7380   25.1650   42.1030 C   0  0  1  0  0  0  0  0  0  0  0  0
   37.1190   24.0440   41.2960 C   0  0  0  0  0  0  0  0  0  0  0  0
   37.9090   24.2560   42.5240 C   0  0  1  0  0  0  0  0  0  0  0  0
   35.9610   25.1530   42.9230 H   0  0  0  0  0  0  0  0  0  0  0  0
   37.5930   24.2330   40.3070 H   0  0  0  0  0  0  0  0  0  0  0  0
   36.4920   23.1010   41.2200 H   0  0  0  0  0  0  0  0  0  0  0  0
   37.7240   23.4990   43.3300 H   0  0  0  0  0  0  0  0  0  0  0  0
   39.3000   24.7710   42.5230 C   0  0  0  0  0  0  0  0  0  0  0  0
   39.4190   25.9340   43.2630 F   0  0  0  0  0  0  0  0  0  0  0  0
   39.7510   25.0110   41.2260 F   0  0  0  0  0  0  0  0  0  0  0  0
   40.0890   23.8260   43.1280 F   0  0  0  0  0  0  0  0  0  0  0  0
   38.0100   30.5310   40.6040 C   0  0  2  0  0  0  0  0  0  0  0  0
   36.7940   31.3740   40.2760 C   0  0  0  0  0  0  0  0  0  0  0  0
   37.8150   31.0380   39.2240 C   0  0  1  0  0  0  0  0  0  0  0  0
   38.7360   30.9800   41.2800 H   0  0  0  0  0  0  0  0  0  0  0  0
   35.8060   30.9030   40.1630 H   0  0  0  0  0  0  0  0  0  0  0  0
   36.7780   32.4500   40.5470 H   0  0  0  0  0  0  0  0  0  0  0  0
   37.5600   30.2940   38.4420 H   0  0  0  0  0  0  0  0  0  0  0  0
   39.5230   31.7990   37.5280 C   0  0  1  0  0  3  0  0  0  0  0  0
   38.7840   32.1120   38.7760 C   0  0  2  0  0  3  0  0  0  0  0  0
   39.6540   32.4050   39.7910 O   0  0  0  0  0  0  0  0  0  0  0  0
   40.9440   32.1770   39.3470 C   0  0  0  0  0  2  0  0  0  0  0  0
   40.9290   32.2790   37.8420 C   0  0  2  0  0  3  0  0  0  0  0  0
   39.6010   30.4390   37.2480 O   0  0  0  0  0  0  0  0  0  0  0  0
   40.5200   30.0830   37.3610 H   0  0  0  0  0  0  0  0  0  0  0  0
   41.1760   33.5610   37.3810 O   0  0  0  0  0  0  0  0  0  0  0  0
   40.4860   33.8730   36.7300 H   0  0  0  0  0  0  0  0  0  0  0  0
  1  2  1  0  0  0  0
  2  9  1  0  0  0  0
  2  3  2  0  0  0  0
  3  8  1  0  0  0  0
  4  3  1  0  0  0  0
  5  4  2  0  0  0  0
  6  1  2  0  0  0  0
  6  5  1  0  0  0  0
  7  1  1  0  0  0  0
  9 11  1  0  0  0  0
  9 12  1  1  0  0  0
 10  9  1  0  0  0  0
 10 11  1  0  0  0  0
 11 15  1  1  0  0  0
 13 10  1  0  0  0  0
 14 10  1  0  0  0  0
 16 11  1  0  0  0  0
 16 19  1  0  0  0  0
 16 17  1  0  0  0  0
 18 16  1  0  0  0  0
 20  5  1  0  0  0  0
 20 23  1  1  0  0  0
 21 25  1  0  0  0  0
 21 20  1  0  0  0  0
 22 26  1  6  0  0  0
 22 21  1  0  0  0  0
 22 20  1  0  0  0  0
 24 21  1  0  0  0  0
 27 32  1  1  0  0  0
 27 31  1  0  0  0  0
 27 28  1  0  0  0  0
 28 22  1  0  0  0  0
 28 29  1  1  0  0  0
 30 29  1  0  0  0  0
 31 34  1  1  0  0  0
 31 30  1  0  0  0  0
 32 33  1  0  0  0  0
 35 34  1  0  0  0  0
M  END
>  <minimizedAffinity>
-5.72846508

$$$$

 OpenBabel03242520383D

 35 38  0  0  1  0  0  0  0  0999 V2000
   36.5930   30.8490   40.9380 C   0  0  0  0  0  0  0  0  0  0  0  0
   37.3700   30.9730   39.7350 C   0  0  0  0  0  0  0  0  0  0  0  0
   37.9860   29.8390   39.2740 C   0  0  0  0  0  0  0  0  0  0  0  0
   37.8450   28.6720   39.9500 N   0  0  0  0  0  0  0  0  0  0  0  0
   37.1040   28.5910   41.0830 C   0  0  0  0  0  0  0  0  0  0  0  0
   36.4860   29.6880   41.5620 N   0  0  0  0  0  0  0  0  0  0  0  0
   36.0830   31.7060   41.3500 H   0  0  0  0  0  0  0  0  0  0  0  0
   38.5940   29.8390   38.3690 H   0  0  0  0  0  0  0  0  0  0  0  0
   37.5110   32.2710   39.0360 C   0  0  1  0  0  0  0  0  0  0  0  0
   37.3210   33.5210   39.7110 C   0  0  0  0  0  0  0  0  0  0  0  0
   38.7170   33.1550   39.4080 C   0  0  1  0  0  0  0  0  0  0  0  0
   37.5070   32.1190   37.9160 H   0  0  0  0  0  0  0  0  0  0  0  0
   36.9750   33.5100   40.7680 H   0  0  0  0  0  0  0  0  0  0  0  0
   36.8850   34.4350   39.1990 H   0  0  0  0  0  0  0  0  0  0  0  0
   39.1910   33.7660   38.5970 H   0  0  0  0  0  0  0  0  0  0  0  0
   39.6880   32.7080   40.4360 C   0  0  0  0  0  0  0  0  0  0  0  0
   40.3630   31.5640   40.0470 F   0  0  0  0  0  0  0  0  0  0  0  0
   39.0590   32.4690   41.6570 F   0  0  0  0  0  0  0  0  0  0  0  0
   40.6240   33.7010   40.5770 F   0  0  0  0  0  0  0  0  0  0  0  0
   37.0010   27.2710   41.7550 C   0  0  2  0  0  0  0  0  0  0  0  0
   37.5320   27.2630   43.1750 C   0  0  0  0  0  0  0  0  0  0  0  0
   38.2180   26.4900   42.0820 C   0  0  1  0  0  0  0  0  0  0  0  0
   36.0360   26.7880   41.6010 H   0  0  0  0  0  0  0  0  0  0  0  0
   38.0740   28.1350   43.5680 H   0  0  0  0  0  0  0  0  0  0  0  0
   37.0540   26.6160   43.9400 H   0  0  0  0  0  0  0  0  0  0  0  0
   39.1820   26.8630   41.6810 H   0  0  0  0  0  0  0  0  0  0  0  0
   38.9220   24.2970   41.0490 C   0  0  1  0  0  3  0  0  0  0  0  0
   38.0630   24.9850   42.0440 C   0  0  2  0  0  3  0  0  0  0  0  0
   36.7480   24.6580   41.8520 O   0  0  0  0  0  0  0  0  0  0  0  0
   36.6440   23.8990   40.7010 C   0  0  0  0  0  2  0  0  0  0  0  0
   37.9870   23.2560   40.4600 C   0  0  2  0  0  3  0  0  0  0  0  0
   39.3380   25.1180   40.0050 O   0  0  0  0  0  0  0  0  0  0  0  0
   38.9060   24.8810   39.1440 H   0  0  0  0  0  0  0  0  0  0  0  0
   38.1130   22.0170   41.0650 O   0  0  0  0  0  0  0  0  0  0  0  0
   38.9390   21.9450   41.6220 H   0  0  0  0  0  0  0  0  0  0  0  0
  1  7  1  0  0  0  0
  1  6  1  0  0  0  0
  2  1  2  0  0  0  0
  3  2  1  0  0  0  0
  3  4  2  0  0  0  0
  4  5  1  0  0  0  0
  5  6  2  0  0  0  0
  5 20  1  0  0  0  0
  8  3  1  0  0  0  0
  9 12  1  6  0  0  0
  9 11  1  0  0  0  0
  9 10  1  0  0  0  0
  9  2  1  0  0  0  0
 10 13  1  0  0  0  0
 11 15  1  6  0  0  0
 11 10  1  0  0  0  0
 11 16  1  0  0  0  0
 14 10  1  0  0  0  0
 16 19  1  0  0  0  0
 16 18  1  0  0  0  0
 17 16  1  0  0  0  0
 20 23  1  6  0  0  0
 20 22  1  0  0  0  0
 20 21  1  0  0  0  0
 21 24  1  0  0  0  0
 21 25  1  0  0  0  0
 22 26  1  6  0  0  0
 22 21  1  0  0  0  0
 27 32  1  6  0  0  0
 27 28  1  0  0  0  0
 28 29  1  6  0  0  0
 28 22  1  0  0  0  0
 30 29  1  0  0  0  0
 31 30  1  0  0  0  0
 31 27  1  0  0  0  0
 31 34  1  1  0  0  0
 33 32  1  0  0  0  0
 34 35  1  0  0  0  0
M  END
>  <minimizedAffinity>
-5.64553738

$$$$

 OpenBabel03242520383D

 35 38  0  0  1  0  0  0  0  0999 V2000
   38.9080   30.5190   41.5510 C   0  0  0  0  0  0  0  0  0  0  0  0
   38.0040   31.4760   40.9740 C   0  0  0  0  0  0  0  0  0  0  0  0
   36.7280   31.0500   40.7180 C   0  0  0  0  0  0  0  0  0  0  0  0
   36.3720   29.7740   41.0090 N   0  0  0  0  0  0  0  0  0  0  0  0
   37.2500   28.8960   41.5540 C   0  0  0  0  0  0  0  0  0  0  0  0
   38.5120   29.2860   41.8180 N   0  0  0  0  0  0  0  0  0  0  0  0
   39.9250   30.7960   41.7770 H   0  0  0  0  0  0  0  0  0  0  0  0
   35.9750   31.7070   40.2810 H   0  0  0  0  0  0  0  0  0  0  0  0
   38.4390   32.8560   40.6550 C   0  0  1  0  0  0  0  0  0  0  0  0
   39.8220   33.2290   40.6330 C   0  0  0  0  0  0  0  0  0  0  0  0
   39.1700   33.0830   39.3180 C   0  0  1  0  0  0  0  0  0  0  0  0
   37.5650   33.5690   40.7130 H   0  0  0  0  0  0  0  0  0  0  0  0
   40.5840   32.4810   40.9470 H   0  0  0  0  0  0  0  0  0  0  0  0
   40.1850   34.2610   40.9380 H   0  0  0  0  0  0  0  0  0  0  0  0
   38.9920   34.0500   38.7790 H   0  0  0  0  0  0  0  0  0  0  0  0
   39.4260   31.9480   38.3990 C   0  0  0  0  0  0  0  0  0  0  0  0
   40.0550   32.3570   37.2360 F   0  0  0  0  0  0  0  0  0  0  0  0
   38.2440   31.2880   38.0660 F   0  0  0  0  0  0  0  0  0  0  0  0
   40.2810   31.0860   39.0380 F   0  0  0  0  0  0  0  0  0  0  0  0
   36.7720   27.5220   41.8460 C   0  0  2  0  0  0  0  0  0  0  0  0
   36.5200   27.2610   43.3180 C   0  0  0  0  0  0  0  0  0  0  0  0
   37.6300   26.5610   42.5810 C   0  0  1  0  0  0  0  0  0  0  0  0
   35.9960   27.1840   41.1600 H   0  0  0  0  0  0  0  0  0  0  0  0
   36.8270   27.9990   44.0720 H   0  0  0  0  0  0  0  0  0  0  0  0
   35.6990   26.5800   43.6260 H   0  0  0  0  0  0  0  0  0  0  0  0
   38.6800   26.8640   42.7730 H   0  0  0  0  0  0  0  0  0  0  0  0
   38.7210   24.3470   42.0520 C   0  0  1  0  0  3  0  0  0  0  0  0
   37.4550   25.1050   42.2080 C   0  0  2  0  0  3  0  0  0  0  0  0
   36.6910   25.0030   41.0770 O   0  0  0  0  0  0  0  0  0  0  0  0
   37.4200   24.3380   40.1090 C   0  0  0  0  0  2  0  0  0  0  0  0
   38.4580   23.5040   40.8170 C   0  0  2  0  0  3  0  0  0  0  0  0
   39.8240   25.1500   41.7780 O   0  0  0  0  0  0  0  0  0  0  0  0
   40.1530   25.0350   40.8500 H   0  0  0  0  0  0  0  0  0  0  0  0
   38.0150   22.2280   41.1220 O   0  0  0  0  0  0  0  0  0  0  0  0
   38.1550   21.9930   42.0830 H   0  0  0  0  0  0  0  0  0  0  0  0
  1  7  1  0  0  0  0
  1  6  1  0  0  0  0
  2  1  2  0  0  0  0
  3  2  1  0  0  0  0
  3  4  2  0  0  0  0
  4  5  1  0  0  0  0
  5  6  2  0  0  0  0
  5 20  1  0  0  0  0
  8  3  1  0  0  0  0
  9 12  1  1  0  0  0
  9  2  1  0  0  0  0
 10  9  1  0  0  0  0
 10 14  1  0  0  0  0
 10 13  1  0  0  0  0
 11 15  1  6  0  0  0
 11 10  1  0  0  0  0
 11  9  1  0  0  0  0
 16 19  1  0  0  0  0
 16 11  1  0  0  0  0
 17 16  1  0  0  0  0
 18 16  1  0  0  0  0
 20 23  1  6  0  0  0
 20 22  1  0  0  0  0
 20 21  1  0  0  0  0
 21 25  1  0  0  0  0
 21 24  1  0  0  0  0
 22 26  1  1  0  0  0
 22 21  1  0  0  0  0
 27 32  1  6  0  0  0
 27 28  1  0  0  0  0
 28 29  1  6  0  0  0
 28 22  1  0  0  0  0
 30 31  1  0  0  0  0
 30 29  1  0  0  0  0
 31 34  1  1  0  0  0
 31 27  1  0  0  0  0
 33 32  1  0  0  0  0
 34 35  1  0  0  0  0
M  END
>  <minimizedAffinity>
-5.56029224

$$$$

 OpenBabel03242520383D

 35 38  0  0  1  0  0  0  0  0999 V2000
   39.9020   26.9850   40.0910 C   0  0  0  0  0  0  0  0  0  0  0  0
   40.1100   26.5310   41.4400 C   0  0  0  0  0  0  0  0  0  0  0  0
   40.3860   27.4870   42.3810 C   0  0  0  0  0  0  0  0  0  0  0  0
   40.4530   28.7920   42.0180 N   0  0  0  0  0  0  0  0  0  0  0  0
   40.2520   29.1860   40.7360 C   0  0  0  0  0  0  0  0  0  0  0  0
   39.9770   28.2700   39.7870 N   0  0  0  0  0  0  0  0  0  0  0  0
   39.6800   26.2800   39.3060 H   0  0  0  0  0  0  0  0  0  0  0  0
   40.5570   27.2350   43.4280 H   0  0  0  0  0  0  0  0  0  0  0  0
   40.0440   25.0940   41.7900 C   0  0  1  0  0  0  0  0  0  0  0  0
   39.7640   24.6500   43.1240 C   0  0  0  0  0  0  0  0  0  0  0  0
   38.6660   24.5080   42.1500 C   0  0  1  0  0  0  0  0  0  0  0  0
   40.4990   24.4660   40.9690 H   0  0  0  0  0  0  0  0  0  0  0  0
   39.6770   25.4090   43.9330 H   0  0  0  0  0  0  0  0  0  0  0  0
   40.2140   23.7050   43.5640 H   0  0  0  0  0  0  0  0  0  0  0  0
   38.4480   23.4510   41.8470 H   0  0  0  0  0  0  0  0  0  0  0  0
   37.4580   25.3700   42.1470 C   0  0  0  0  0  0  0  0  0  0  0  0
   36.3300   24.6810   42.5560 F   0  0  0  0  0  0  0  0  0  0  0  0
   37.2250   25.9110   40.8830 F   0  0  0  0  0  0  0  0  0  0  0  0
   37.6680   26.3750   43.0560 F   0  0  0  0  0  0  0  0  0  0  0  0
   40.3380   30.6360   40.4300 C   0  0  2  0  0  0  0  0  0  0  0  0
   39.0020   31.3500   40.4690 C   0  0  0  0  0  0  0  0  0  0  0  0
   39.7570   31.1820   39.1800 C   0  0  1  0  0  0  0  0  0  0  0  0
   41.1620   31.1320   40.9420 H   0  0  0  0  0  0  0  0  0  0  0  0
   38.0680   30.7760   40.5640 H   0  0  0  0  0  0  0  0  0  0  0  0
   38.9480   32.4040   40.8140 H   0  0  0  0  0  0  0  0  0  0  0  0
   39.3910   30.4520   38.4300 H   0  0  0  0  0  0  0  0  0  0  0  0
   40.9560   32.1910   37.2000 C   0  0  1  0  0  3  0  0  0  0  0  0
   40.4740   32.3790   38.5910 C   0  0  2  0  0  3  0  0  0  0  0  0
   41.5030   32.7540   39.4110 O   0  0  0  0  0  0  0  0  0  0  0  0
   42.6840   32.6990   38.6930 C   0  0  0  0  0  2  0  0  0  0  0  0
   42.3310   32.8350   37.2320 C   0  0  2  0  0  3  0  0  0  0  0  0
   41.1300   30.8580   36.8420 O   0  0  0  0  0  0  0  0  0  0  0  0
   42.0860   30.6170   36.7400 H   0  0  0  0  0  0  0  0  0  0  0  0
   42.3210   34.1480   36.7940 O   0  0  0  0  0  0  0  0  0  0  0  0
   41.4750   34.3870   36.3210 H   0  0  0  0  0  0  0  0  0  0  0  0
  1  2  1  0  0  0  0
  2  9  1  0  0  0  0
  2  3  2  0  0  0  0
  3  8  1  0  0  0  0
  4  3  1  0  0  0  0
  5  4  2  0  0  0  0
  6  1  2  0  0  0  0
  6  5  1  0  0  0  0
  7  1  1  0  0  0  0
  9 12  1  6  0  0  0
  9 11  1  0  0  0  0
  9 10  1  0  0  0  0
 10 14  1  0  0  0  0
 10 13  1  0  0  0  0
 11 15  1  6  0  0  0
 11 10  1  0  0  0  0
 16 11  1  0  0  0  0
 16 17  1  0  0  0  0
 16 19  1  0  0  0  0
 18 16  1  0  0  0  0
 20 21  1  0  0  0  0
 20  5  1  0  0  0  0
 20 23  1  1  0  0  0
 21 24  1  0  0  0  0
 21 25  1  0  0  0  0
 22 26  1  6  0  0  0
 22 20  1  0  0  0  0
 22 21  1  0  0  0  0
 27 32  1  1  0  0  0
 27 31  1  0  0  0  0
 27 28  1  0  0  0  0
 28 22  1  0  0  0  0
 28 29  1  1  0  0  0
 30 29  1  0  0  0  0
 31 34  1  1  0  0  0
 31 30  1  0  0  0  0
 33 32  1  0  0  0  0
 35 34  1  0  0  0  0
M  END
>  <minimizedAffinity>
-5.49741888

$$$$

 OpenBabel03242520383D

 35 38  0  0  1  0  0  0  0  0999 V2000
   36.9550   24.5310   40.2670 C   0  0  0  0  0  0  0  0  0  0  0  0
   37.8820   23.5680   40.7950 C   0  0  0  0  0  0  0  0  0  0  0  0
   38.7910   24.0200   41.7160 C   0  0  0  0  0  0  0  0  0  0  0  0
   38.7830   25.3240   42.0870 N   0  0  0  0  0  0  0  0  0  0  0  0
   37.8940   26.2070   41.5690 C   0  0  0  0  0  0  0  0  0  0  0  0
   36.9880   25.7930   40.6620 N   0  0  0  0  0  0  0  0  0  0  0  0
   36.2150   24.2360   39.5400 H   0  0  0  0  0  0  0  0  0  0  0  0
   39.5310   23.3600   42.1690 H   0  0  0  0  0  0  0  0  0  0  0  0
   37.8670   22.1550   40.3500 C   0  0  1  0  0  0  0  0  0  0  0  0
   37.1800   21.7420   39.1620 C   0  0  0  0  0  0  0  0  0  0  0  0
   38.6520   21.8010   39.0720 C   0  0  1  0  0  0  0  0  0  0  0  0
   38.2100   21.4740   41.1840 H   0  0  0  0  0  0  0  0  0  0  0  0
   36.5730   22.4910   38.6070 H   0  0  0  0  0  0  0  0  0  0  0  0
   36.6790   20.7280   39.0630 H   0  0  0  0  0  0  0  0  0  0  0  0
   39.1530   20.8000   39.0240 H   0  0  0  0  0  0  0  0  0  0  0  0
   39.3850   22.8510   38.3240 C   0  0  0  0  0  0  0  0  0  0  0  0
   40.3090   23.5040   39.1210 F   0  0  0  0  0  0  0  0  0  0  0  0
   38.5100   23.7920   37.7820 F   0  0  0  0  0  0  0  0  0  0  0  0
   40.0850   22.2290   37.3220 F   0  0  0  0  0  0  0  0  0  0  0  0
   37.9550   27.6140   42.0370 C   0  0  2  0  0  0  0  0  0  0  0  0
   37.0640   27.9010   43.2300 C   0  0  0  0  0  0  0  0  0  0  0  0
   36.7860   28.5140   41.8850 C   0  0  1  0  0  0  0  0  0  0  0  0
   38.9710   28.0030   42.0930 H   0  0  0  0  0  0  0  0  0  0  0  0
   36.3450   27.1470   43.5790 H   0  0  0  0  0  0  0  0  0  0  0  0
   37.3850   28.6410   43.9940 H   0  0  0  0  0  0  0  0  0  0  0  0
   35.9310   28.1380   41.2870 H   0  0  0  0  0  0  0  0  0  0  0  0
   36.0230   30.7630   41.0290 C   0  0  1  0  0  3  0  0  0  0  0  0
   37.1080   29.9770   41.6680 C   0  0  2  0  0  3  0  0  0  0  0  0
   38.2720   30.0970   40.9590 O   0  0  0  0  0  0  0  0  0  0  0  0
   38.0130   30.8040   39.7990 C   0  0  0  0  0  2  0  0  0  0  0  0
   36.7790   31.6370   40.0430 C   0  0  2  0  0  3  0  0  0  0  0  0
   35.1280   29.9900   40.2960 O   0  0  0  0  0  0  0  0  0  0  0  0
   35.2140   30.1390   39.3190 H   0  0  0  0  0  0  0  0  0  0  0  0
   37.0630   32.8950   40.5480 O   0  0  0  0  0  0  0  0  0  0  0  0
   36.5390   33.1040   41.3720 H   0  0  0  0  0  0  0  0  0  0  0  0
  1  6  2  0  0  0  0
  1  2  1  0  0  0  0
  2  3  2  0  0  0  0
  3  4  1  0  0  0  0
  3  8  1  0  0  0  0
  5 20  1  0  0  0  0
  5  4  2  0  0  0  0
  6  5  1  0  0  0  0
  7  1  1  0  0  0  0
  9  2  1  0  0  0  0
  9 12  1  1  0  0  0
 10  9  1  0  0  0  0
 11 15  1  1  0  0  0
 11 10  1  0  0  0  0
 11  9  1  0  0  0  0
 13 10  1  0  0  0  0
 14 10  1  0  0  0  0
 16 11  1  0  0  0  0
 16 17  1  0  0  0  0
 18 16  1  0  0  0  0
 19 16  1  0  0  0  0
 20 23  1  1  0  0  0
 20 21  1  0  0  0  0
 21 24  1  0  0  0  0
 21 25  1  0  0  0  0
 22 26  1  6  0  0  0
 22 20  1  0  0  0  0
 22 21  1  0  0  0  0
 27 32  1  6  0  0  0
 27 28  1  0  0  0  0
 28 29  1  6  0  0  0
 28 22  1  0  0  0  0
 30 31  1  0  0  0  0
 30 29  1  0  0  0  0
 31 34  1  1  0  0  0
 31 27  1  0  0  0  0
 33 32  1  0  0  0  0
 34 35  1  0  0  0  0
M  END
>  <minimizedAffinity>
-5.47593451

$$$$

 OpenBabel03242520383D

 35 38  0  0  1  0  0  0  0  0999 V2000
   40.6700   31.6310   41.5820 C   0  0  0  0  0  0  0  0  0  0  0  0
   39.8440   32.5590   40.8590 C   0  0  0  0  0  0  0  0  0  0  0  0
   38.5580   32.1700   40.5940 C   0  0  0  0  0  0  0  0  0  0  0  0
   38.1210   30.9550   41.0120 N   0  0  0  0  0  0  0  0  0  0  0  0
   38.9280   30.1030   41.6920 C   0  0  0  0  0  0  0  0  0  0  0  0
   40.1980   30.4580   41.9680 N   0  0  0  0  0  0  0  0  0  0  0  0
   41.6920   31.8810   41.8220 H   0  0  0  0  0  0  0  0  0  0  0  0
   37.8610   32.8090   40.0520 H   0  0  0  0  0  0  0  0  0  0  0  0
   40.3660   33.8690   40.4070 C   0  0  1  0  0  0  0  0  0  0  0  0
   41.7690   34.1090   40.2350 C   0  0  0  0  0  0  0  0  0  0  0  0
   40.9830   33.9440   38.9970 C   0  0  1  0  0  0  0  0  0  0  0  0
   39.5680   34.6640   40.4930 H   0  0  0  0  0  0  0  0  0  0  0  0
   42.4880   33.3120   40.5310 H   0  0  0  0  0  0  0  0  0  0  0  0
   42.2490   35.1180   40.4330 H   0  0  0  0  0  0  0  0  0  0  0  0
   40.8400   34.8880   38.4100 H   0  0  0  0  0  0  0  0  0  0  0  0
   41.0490   32.7360   38.1400 C   0  0  0  0  0  0  0  0  0  0  0  0
   41.6410   31.6690   38.7950 F   0  0  0  0  0  0  0  0  0  0  0  0
   41.7500   32.9880   36.9610 F   0  0  0  0  0  0  0  0  0  0  0  0
   39.7600   32.3660   37.8500 F   0  0  0  0  0  0  0  0  0  0  0  0
   38.3640   28.7970   42.1150 C   0  0  2  0  0  0  0  0  0  0  0  0
   37.5820   28.8590   43.4120 C   0  0  0  0  0  0  0  0  0  0  0  0
   38.8790   28.1050   43.3210 C   0  0  1  0  0  0  0  0  0  0  0  0
   37.8950   28.2490   41.2980 H   0  0  0  0  0  0  0  0  0  0  0  0
   37.5920   29.7740   44.0230 H   0  0  0  0  0  0  0  0  0  0  0  0
   36.6990   28.2020   43.5560 H   0  0  0  0  0  0  0  0  0  0  0  0
   39.7850   28.5280   43.8000 H   0  0  0  0  0  0  0  0  0  0  0  0
   40.1070   25.9280   43.6800 C   0  0  1  0  0  3  0  0  0  0  0  0
   38.8430   26.5920   43.2750 C   0  0  2  0  0  3  0  0  0  0  0  0
   38.4570   26.1740   42.0300 O   0  0  0  0  0  0  0  0  0  0  0  0
   39.4520   25.3710   41.5040 C   0  0  0  0  0  2  0  0  0  0  0  0
   40.2390   24.8080   42.6630 C   0  0  2  0  0  3  0  0  0  0  0  0
   41.2310   26.7390   43.5530 O   0  0  0  0  0  0  0  0  0  0  0  0
   41.8260   26.4450   42.8160 H   0  0  0  0  0  0  0  0  0  0  0  0
   39.7410   23.6020   43.1240 O   0  0  0  0  0  0  0  0  0  0  0  0
   39.5880   23.6030   44.1110 H   0  0  0  0  0  0  0  0  0  0  0  0
  1  7  1  0  0  0  0
  1  6  1  0  0  0  0
  2  1  2  0  0  0  0
  3  2  1  0  0  0  0
  3  4  2  0  0  0  0
  4  5  1  0  0  0  0
  5  6  2  0  0  0  0
  5 20  1  0  0  0  0
  8  3  1  0  0  0  0
  9 12  1  1  0  0  0
  9  2  1  0  0  0  0
 10  9  1  0  0  0  0
 10 14  1  0  0  0  0
 10 13  1  0  0  0  0
 11 15  1  6  0  0  0
 11 10  1  0  0  0  0
 11  9  1  0  0  0  0
 16 17  1  0  0  0  0
 16 11  1  0  0  0  0
 18 16  1  0  0  0  0
 19 16  1  0  0  0  0
 20 23  1  6  0  0  0
 20 22  1  0  0  0  0
 20 21  1  0  0  0  0
 21 25  1  0  0  0  0
 21 24  1  0  0  0  0
 22 21  1  0  0  0  0
 22 26  1  1  0  0  0
 27 32  1  6  0  0  0
 28 29  1  6  0  0  0
 28 22  1  0  0  0  0
 28 27  1  0  0  0  0
 30 29  1  0  0  0  0
 30 31  1  0  0  0  0
 31 34  1  1  0  0  0
 31 27  1  0  0  0  0
 33 32  1  0  0  0  0
 34 35  1  0  0  0  0
M  END
>  <minimizedAffinity>
-5.31958723

$$$$
