
 OpenBabel03252502173D

 24 25  0  0  1  0  0  0  0  0999 V2000
   38.7900   29.0090   40.1340 C   0  0  0  0  0  0  0  0  0  0  0  0
   39.3130   30.3010   40.0220 C   0  0  0  0  0  0  0  0  0  0  0  0
   40.4700   30.4730   39.2470 C   0  0  0  0  0  0  0  0  0  0  0  0
   41.0280   29.4010   38.6480 N   0  0  0  0  0  0  0  0  0  0  0  0
   40.4910   28.1620   38.7800 C   0  0  0  0  0  0  0  0  0  0  0  0
   39.3700   27.9620   39.5240 N   0  0  0  0  0  0  0  0  0  0  0  0
   37.9000   28.8560   40.7270 H   0  0  0  0  0  0  0  0  0  0  0  0
   40.9590   27.3160   38.2880 H   0  0  0  0  0  0  0  0  0  0  0  0
   40.7310   32.5030   37.8120 C   0  0  1  0  0  3  0  0  0  0  0  0
   40.9900   31.8400   39.1510 C   0  0  2  0  0  3  0  0  0  0  0  0
   42.3780   31.9110   39.2220 O   0  0  0  0  0  0  0  0  0  0  0  0
   42.6140   33.2780   38.9940 C   0  0  0  0  0  2  0  0  0  0  0  0
   41.6580   33.6980   37.9150 C   0  0  1  0  0  3  0  0  0  0  0  0
   41.1030   31.6500   36.7920 O   0  0  0  0  0  0  0  0  0  0  0  0
   41.7070   30.9590   37.1700 H   0  0  0  0  0  0  0  0  0  0  0  0
   42.2900   33.9740   36.7100 O   0  0  0  0  0  0  0  0  0  0  0  0
   43.2730   34.0110   36.7890 H   0  0  0  0  0  0  0  0  0  0  0  0
   38.6530   31.3200   40.6820 O   0  0  0  0  0  0  0  0  0  0  0  0
   36.9350   31.4490   38.6960 O   0  0  0  0  0  0  0  0  0  0  0  0
   37.1410   31.9080   40.1100 P   0  0  0  0  0  0  0  0  0  0  0  0
   35.8830   31.2780   41.0470 O   0  0  0  0  0  0  0  0  0  0  0  0
   35.6690   30.3820   40.6760 H   0  0  0  0  0  0  0  0  0  0  0  0
   37.1020   33.5870   40.1570 O   0  0  0  0  0  0  0  0  0  0  0  0
   36.1950   33.8590   40.4430 H   0  0  0  0  0  0  0  0  0  0  0  0
  1  7  1  0  0  0  0
  2  1  1  0  0  0  0
  2 18  1  0  0  0  0
  3  2  2  0  0  0  0
  4  5  2  0  0  0  0
  4  3  1  0  0  0  0
  5  6  1  0  0  0  0
  6  1  2  0  0  0  0
  8  5  1  0  0  0  0
  9 14  1  6  0  0  0
  9 13  1  0  0  0  0
  9 10  1  0  0  0  0
 10 11  1  0  0  0  0
 10  3  1  6  0  0  0
 12 11  1  0  0  0  0
 13 16  1  6  0  0  0
 13 12  1  0  0  0  0
 14 15  1  0  0  0  0
 16 17  1  0  0  0  0
 19 20  2  0  0  0  0
 20 23  1  0  0  0  0
 20 18  1  0  0  0  0
 20 21  1  0  0  0  0
 22 21  1  0  0  0  0
 23 24  1  0  0  0  0
M  END
>  <minimizedAffinity>
-5.16966915

$$$$

 OpenBabel03252502173D

 24 25  0  0  1  0  0  0  0  0999 V2000
   35.7750   28.6460   38.5630 C   0  0  0  0  0  0  0  0  0  0  0  0
   37.0230   29.2110   38.8480 C   0  0  0  0  0  0  0  0  0  0  0  0
   37.7050   29.8500   37.8020 C   0  0  0  0  0  0  0  0  0  0  0  0
   37.1420   29.8950   36.5770 N   0  0  0  0  0  0  0  0  0  0  0  0
   35.9290   29.3350   36.3390 C   0  0  0  0  0  0  0  0  0  0  0  0
   35.2420   28.7080   37.3310 N   0  0  0  0  0  0  0  0  0  0  0  0
   35.2350   28.1490   39.3550 H   0  0  0  0  0  0  0  0  0  0  0  0
   35.4980   29.3840   35.3440 H   0  0  0  0  0  0  0  0  0  0  0  0
   39.1020   31.9220   37.8720 C   0  0  1  0  0  3  0  0  0  0  0  0
   39.0090   30.4320   38.1370 C   0  0  2  0  0  3  0  0  0  0  0  0
   40.0480   29.9510   37.3470 O   0  0  0  0  0  0  0  0  0  0  0  0
   41.1330   30.7330   37.7830 C   0  0  0  0  0  2  0  0  0  0  0  0
   40.6010   32.1230   37.9770 C   0  0  1  0  0  3  0  0  0  0  0  0
   38.6340   32.1980   36.6030 O   0  0  0  0  0  0  0  0  0  0  0  0
   38.6330   31.3540   36.0820 H   0  0  0  0  0  0  0  0  0  0  0  0
   41.0750   33.0210   37.0290 O   0  0  0  0  0  0  0  0  0  0  0  0
   41.8060   32.6520   36.4790 H   0  0  0  0  0  0  0  0  0  0  0  0
   37.4960   29.1010   40.1420 O   0  0  0  0  0  0  0  0  0  0  0  0
   37.9790   31.4180   41.2860 O   0  0  0  0  0  0  0  0  0  0  0  0
   37.0460   30.2440   41.3470 P   0  0  0  0  0  0  0  0  0  0  0  0
   35.4820   30.8110   41.0500 O   0  0  0  0  0  0  0  0  0  0  0  0
   35.5630   31.5490   40.3890 H   0  0  0  0  0  0  0  0  0  0  0  0
   37.1230   29.5540   42.8760 O   0  0  0  0  0  0  0  0  0  0  0  0
   36.3570   29.8970   43.4000 H   0  0  0  0  0  0  0  0  0  0  0  0
  1  2  1  0  0  0  0
  1  7  1  0  0  0  0
  2 18  1  0  0  0  0
  3  2  2  0  0  0  0
  4  3  1  0  0  0  0
  5  4  2  0  0  0  0
  5  6  1  0  0  0  0
  6  1  2  0  0  0  0
  8  5  1  0  0  0  0
  9 14  1  6  0  0  0
  9 13  1  0  0  0  0
  9 10  1  0  0  0  0
 10  3  1  6  0  0  0
 11 12  1  0  0  0  0
 11 10  1  0  0  0  0
 12 13  1  0  0  0  0
 13 16  1  6  0  0  0
 15 14  1  0  0  0  0
 17 16  1  0  0  0  0
 18 20  1  0  0  0  0
 19 20  2  0  0  0  0
 20 23  1  0  0  0  0
 21 20  1  0  0  0  0
 22 21  1  0  0  0  0
 23 24  1  0  0  0  0
M  END
>  <minimizedAffinity>
-5.10251665

$$$$

 OpenBabel03252502173D

 24 25  0  0  1  0  0  0  0  0999 V2000
   36.3390   27.7470   39.5660 C   0  0  0  0  0  0  0  0  0  0  0  0
   37.3070   28.6910   39.9270 C   0  0  0  0  0  0  0  0  0  0  0  0
   37.2510   29.9510   39.3120 C   0  0  0  0  0  0  0  0  0  0  0  0
   36.2810   30.2010   38.4080 N   0  0  0  0  0  0  0  0  0  0  0  0
   35.3600   29.2600   38.0840 C   0  0  0  0  0  0  0  0  0  0  0  0
   35.3860   28.0290   38.6620 N   0  0  0  0  0  0  0  0  0  0  0  0
   36.3650   26.7710   40.0280 H   0  0  0  0  0  0  0  0  0  0  0  0
   34.5900   29.4870   37.3540 H   0  0  0  0  0  0  0  0  0  0  0  0
   37.8530   31.8320   40.8440 C   0  0  1  0  0  3  0  0  0  0  0  0
   38.2800   30.9150   39.7130 C   0  0  2  0  0  3  0  0  0  0  0  0
   38.5900   31.8390   38.7200 O   0  0  0  0  0  0  0  0  0  0  0  0
   39.4890   32.6920   39.3840 C   0  0  0  0  0  2  0  0  0  0  0  0
   38.9470   32.8790   40.7720 C   0  0  1  0  0  3  0  0  0  0  0  0
   36.6110   32.3660   40.5650 O   0  0  0  0  0  0  0  0  0  0  0  0
   36.4390   32.2620   39.5930 H   0  0  0  0  0  0  0  0  0  0  0  0
   38.4580   34.1600   40.9940 O   0  0  0  0  0  0  0  0  0  0  0  0
   38.6880   34.7910   40.2710 H   0  0  0  0  0  0  0  0  0  0  0  0
   38.2490   28.3170   40.8650 O   0  0  0  0  0  0  0  0  0  0  0  0
   39.0660   28.1970   43.3600 O   0  0  0  0  0  0  0  0  0  0  0  0
   37.8230   28.1330   42.5210 P   0  0  0  0  0  0  0  0  0  0  0  0
   36.8090   29.3970   43.0010 O   0  0  0  0  0  0  0  0  0  0  0  0
   37.3960   30.1610   43.2420 H   0  0  0  0  0  0  0  0  0  0  0  0
   37.0580   26.6590   42.7760 O   0  0  0  0  0  0  0  0  0  0  0  0
   36.3320   26.8070   43.4310 H   0  0  0  0  0  0  0  0  0  0  0  0
  1  2  1  0  0  0  0
  1  7  1  0  0  0  0
  2 18  1  0  0  0  0
  3  2  2  0  0  0  0
  4  3  1  0  0  0  0
  5  4  2  0  0  0  0
  5  6  1  0  0  0  0
  6  1  2  0  0  0  0
  8  5  1  0  0  0  0
  9 14  1  6  0  0  0
 10  3  1  6  0  0  0
 10  9  1  0  0  0  0
 11 12  1  0  0  0  0
 11 10  1  0  0  0  0
 12 13  1  0  0  0  0
 13  9  1  0  0  0  0
 13 16  1  6  0  0  0
 15 14  1  0  0  0  0
 17 16  1  0  0  0  0
 18 20  1  0  0  0  0
 20 23  1  0  0  0  0
 20 21  1  0  0  0  0
 20 19  2  0  0  0  0
 21 22  1  0  0  0  0
 23 24  1  0  0  0  0
M  END
>  <minimizedAffinity>
-5.08389187

$$$$

 OpenBabel03252502173D

 24 25  0  0  1  0  0  0  0  0999 V2000
   38.5470   29.7930   42.4280 C   0  0  0  0  0  0  0  0  0  0  0  0
   38.0070   29.6370   41.1470 C   0  0  0  0  0  0  0  0  0  0  0  0
   36.9910   28.6840   40.9790 C   0  0  0  0  0  0  0  0  0  0  0  0
   36.5800   27.9640   42.0430 N   0  0  0  0  0  0  0  0  0  0  0  0
   37.1290   28.1440   43.2710 C   0  0  0  0  0  0  0  0  0  0  0  0
   38.1150   29.0600   43.4670 N   0  0  0  0  0  0  0  0  0  0  0  0
   39.3310   30.5220   42.5770 H   0  0  0  0  0  0  0  0  0  0  0  0
   36.7800   27.5520   44.1100 H   0  0  0  0  0  0  0  0  0  0  0  0
   35.2100   29.3860   39.3720 C   0  0  1  0  0  3  0  0  0  0  0  0
   36.4470   28.5460   39.6250 C   0  0  2  0  0  3  0  0  0  0  0  0
   35.9670   27.2700   39.3480 O   0  0  0  0  0  0  0  0  0  0  0  0
   35.4120   27.4370   38.0670 C   0  0  0  0  0  2  0  0  0  0  0  0
   34.7230   28.7710   38.0750 C   0  0  1  0  0  3  0  0  0  0  0  0
   34.3060   29.2030   40.4000 O   0  0  0  0  0  0  0  0  0  0  0  0
   34.5470   28.3680   40.8790 H   0  0  0  0  0  0  0  0  0  0  0  0
   33.3390   28.6650   38.0350 O   0  0  0  0  0  0  0  0  0  0  0  0
   33.0270   27.7490   37.8430 H   0  0  0  0  0  0  0  0  0  0  0  0
   38.5100   30.4330   40.1360 O   0  0  0  0  0  0  0  0  0  0  0  0
   39.0930   32.8670   40.9400 O   0  0  0  0  0  0  0  0  0  0  0  0
   38.1370   32.1110   40.0640 P   0  0  0  0  0  0  0  0  0  0  0  0
   38.3250   32.6770   38.4830 O   0  0  0  0  0  0  0  0  0  0  0  0
   39.2880   32.8920   38.3670 H   0  0  0  0  0  0  0  0  0  0  0  0
   36.5660   32.3910   40.5890 O   0  0  0  0  0  0  0  0  0  0  0  0
   36.1780   33.0950   40.0120 H   0  0  0  0  0  0  0  0  0  0  0  0
  1  7  1  0  0  0  0
  1  6  1  0  0  0  0
  2  1  2  0  0  0  0
  3  2  1  0  0  0  0
  3  4  2  0  0  0  0
  4  5  1  0  0  0  0
  5  6  2  0  0  0  0
  5  8  1  0  0  0  0
  9 10  1  0  0  0  0
  9 14  1  1  0  0  0
 10  3  1  1  0  0  0
 11 10  1  0  0  0  0
 12 13  1  0  0  0  0
 12 11  1  0  0  0  0
 13 16  1  1  0  0  0
 13  9  1  0  0  0  0
 14 15  1  0  0  0  0
 17 16  1  0  0  0  0
 18  2  1  0  0  0  0
 20 18  1  0  0  0  0
 20 23  1  0  0  0  0
 20 19  2  0  0  0  0
 21 20  1  0  0  0  0
 22 21  1  0  0  0  0
 24 23  1  0  0  0  0
M  END
>  <minimizedAffinity>
-5.05715704

$$$$

 OpenBabel03252502173D

 24 25  0  0  1  0  0  0  0  0999 V2000
   40.3070   31.7030   40.4450 C   0  0  0  0  0  0  0  0  0  0  0  0
   39.4530   30.5980   40.5150 C   0  0  0  0  0  0  0  0  0  0  0  0
   39.5220   29.7910   41.6620 C   0  0  0  0  0  0  0  0  0  0  0  0
   40.3980   30.1060   42.6380 N   0  0  0  0  0  0  0  0  0  0  0  0
   41.2110   31.1870   42.5330 C   0  0  0  0  0  0  0  0  0  0  0  0
   41.1680   31.9890   41.4350 N   0  0  0  0  0  0  0  0  0  0  0  0
   40.2690   32.3360   39.5700 H   0  0  0  0  0  0  0  0  0  0  0  0
   41.9070   31.4180   43.3330 H   0  0  0  0  0  0  0  0  0  0  0  0
   37.2460   28.9610   42.2760 C   0  0  1  0  0  3  0  0  0  0  0  0
   38.6120   28.6420   41.7020 C   0  0  2  0  0  3  0  0  0  0  0  0
   39.0350   27.6310   42.5610 O   0  0  0  0  0  0  0  0  0  0  0  0
   37.9590   26.7290   42.5030 C   0  0  0  0  0  2  0  0  0  0  0  0
   36.7090   27.5610   42.4980 C   0  0  1  0  0  3  0  0  0  0  0  0
   37.3900   29.6510   43.4630 O   0  0  0  0  0  0  0  0  0  0  0  0
   38.3150   29.5100   43.7940 H   0  0  0  0  0  0  0  0  0  0  0  0
   35.9870   27.4600   43.6800 O   0  0  0  0  0  0  0  0  0  0  0  0
   36.3120   26.7400   44.2710 H   0  0  0  0  0  0  0  0  0  0  0  0
   38.5990   30.3780   39.4520 O   0  0  0  0  0  0  0  0  0  0  0  0
   36.1700   30.6700   38.4910 O   0  0  0  0  0  0  0  0  0  0  0  0
   37.2810   31.4390   39.1430 P   0  0  0  0  0  0  0  0  0  0  0  0
   36.6920   32.0680   40.5970 O   0  0  0  0  0  0  0  0  0  0  0  0
   36.0580   31.3970   40.9640 H   0  0  0  0  0  0  0  0  0  0  0  0
   37.7550   32.6930   38.1300 O   0  0  0  0  0  0  0  0  0  0  0  0
   37.3080   33.5180   38.4430 H   0  0  0  0  0  0  0  0  0  0  0  0
  1  2  2  0  0  0  0
  1  6  1  0  0  0  0
  2  3  1  0  0  0  0
  3  4  2  0  0  0  0
  5  4  1  0  0  0  0
  5  8  1  0  0  0  0
  6  5  2  0  0  0  0
  7  1  1  0  0  0  0
  9 13  1  0  0  0  0
  9 14  1  1  0  0  0
 10  3  1  1  0  0  0
 10  9  1  0  0  0  0
 10 11  1  0  0  0  0
 12 11  1  0  0  0  0
 13 12  1  0  0  0  0
 13 16  1  1  0  0  0
 14 15  1  0  0  0  0
 16 17  1  0  0  0  0
 18  2  1  0  0  0  0
 19 20  2  0  0  0  0
 20 18  1  0  0  0  0
 20 21  1  0  0  0  0
 21 22  1  0  0  0  0
 23 24  1  0  0  0  0
 23 20  1  0  0  0  0
M  END
>  <minimizedAffinity>
-4.90664434

$$$$

 OpenBabel03252502173D

 24 25  0  0  1  0  0  0  0  0999 V2000
   36.7400   28.6200   37.2710 C   0  0  0  0  0  0  0  0  0  0  0  0
   37.3080   29.6380   38.0430 C   0  0  0  0  0  0  0  0  0  0  0  0
   38.7020   29.7940   37.9960 C   0  0  0  0  0  0  0  0  0  0  0  0
   39.4320   28.9670   37.2200 N   0  0  0  0  0  0  0  0  0  0  0  0
   38.8450   27.9900   36.4850 C   0  0  0  0  0  0  0  0  0  0  0  0
   37.4970   27.8130   36.5080 N   0  0  0  0  0  0  0  0  0  0  0  0
   35.6690   28.4840   37.2930 H   0  0  0  0  0  0  0  0  0  0  0  0
   39.4550   27.3380   35.8690 H   0  0  0  0  0  0  0  0  0  0  0  0
   39.2400   32.2310   38.1450 C   0  0  1  0  0  3  0  0  0  0  0  0
   39.2620   30.8710   38.8180 C   0  0  2  0  0  3  0  0  0  0  0  0
   40.6220   30.7210   39.0750 O   0  0  0  0  0  0  0  0  0  0  0  0
   40.9230   31.9110   39.7600 C   0  0  0  0  0  2  0  0  0  0  0  0
   40.1660   33.0040   39.0640 C   0  0  1  0  0  3  0  0  0  0  0  0
   39.7520   32.1250   36.8680 O   0  0  0  0  0  0  0  0  0  0  0  0
   40.2710   31.2810   36.8100 H   0  0  0  0  0  0  0  0  0  0  0  0
   40.9910   33.8720   38.3610 O   0  0  0  0  0  0  0  0  0  0  0  0
   41.9490   33.7380   38.5590 H   0  0  0  0  0  0  0  0  0  0  0  0
   36.4560   30.4220   38.7980 O   0  0  0  0  0  0  0  0  0  0  0  0
   36.6110   28.7080   40.7850 O   0  0  0  0  0  0  0  0  0  0  0  0
   35.7570   29.8210   40.2500 P   0  0  0  0  0  0  0  0  0  0  0  0
   35.7090   31.0420   41.4170 O   0  0  0  0  0  0  0  0  0  0  0  0
   36.5990   31.0550   41.8570 H   0  0  0  0  0  0  0  0  0  0  0  0
   34.2060   29.2410   39.9660 O   0  0  0  0  0  0  0  0  0  0  0  0
   33.6450   29.4910   40.7410 H   0  0  0  0  0  0  0  0  0  0  0  0
  1  7  1  0  0  0  0
  1  2  1  0  0  0  0
  2 18  1  0  0  0  0
  3  2  2  0  0  0  0
  4  3  1  0  0  0  0
  5  6  1  0  0  0  0
  5  4  2  0  0  0  0
  6  1  2  0  0  0  0
  8  5  1  0  0  0  0
  9 14  1  6  0  0  0
  9 10  1  0  0  0  0
  9 13  1  0  0  0  0
 10  3  1  6  0  0  0
 10 11  1  0  0  0  0
 11 12  1  0  0  0  0
 13 16  1  6  0  0  0
 13 12  1  0  0  0  0
 15 14  1  0  0  0  0
 16 17  1  0  0  0  0
 18 20  1  0  0  0  0
 20 19  2  0  0  0  0
 20 21  1  0  0  0  0
 21 22  1  0  0  0  0
 23 20  1  0  0  0  0
 23 24  1  0  0  0  0
M  END
>  <minimizedAffinity>
-4.84542418

$$$$

 OpenBabel03252502173D

 24 25  0  0  1  0  0  0  0  0999 V2000
   36.2570   29.5620   36.6420 C   0  0  0  0  0  0  0  0  0  0  0  0
   37.0680   29.6250   37.7800 C   0  0  0  0  0  0  0  0  0  0  0  0
   36.5300   29.1650   38.9910 C   0  0  0  0  0  0  0  0  0  0  0  0
   35.2690   28.6880   39.0140 N   0  0  0  0  0  0  0  0  0  0  0  0
   34.5120   28.6430   37.8890 C   0  0  0  0  0  0  0  0  0  0  0  0
   35.0040   29.0810   36.6990 N   0  0  0  0  0  0  0  0  0  0  0  0
   36.6530   29.9120   35.7000 H   0  0  0  0  0  0  0  0  0  0  0  0
   33.5000   28.2540   37.9340 H   0  0  0  0  0  0  0  0  0  0  0  0
   36.9070   28.4610   41.3600 C   0  0  1  0  0  3  0  0  0  0  0  0
   37.4080   29.2450   40.1630 C   0  0  2  0  0  3  0  0  0  0  0  0
   37.5000   30.5260   40.7000 O   0  0  0  0  0  0  0  0  0  0  0  0
   38.2840   30.3080   41.8460 C   0  0  0  0  0  2  0  0  0  0  0  0
   37.8050   29.0180   42.4470 C   0  0  1  0  0  3  0  0  0  0  0  0
   35.5780   28.7600   41.5870 O   0  0  0  0  0  0  0  0  0  0  0  0
   35.3660   29.6090   41.1200 H   0  0  0  0  0  0  0  0  0  0  0  0
   37.1250   29.1980   43.6440 O   0  0  0  0  0  0  0  0  0  0  0  0
   37.2020   30.1160   43.9970 H   0  0  0  0  0  0  0  0  0  0  0  0
   38.3440   30.1340   37.6310 O   0  0  0  0  0  0  0  0  0  0  0  0
   40.0300   32.1260   37.9440 O   0  0  0  0  0  0  0  0  0  0  0  0
   38.6140   31.8310   37.5470 P   0  0  0  0  0  0  0  0  0  0  0  0
   38.3970   32.3730   35.9610 O   0  0  0  0  0  0  0  0  0  0  0  0
   39.2560   32.2180   35.4850 H   0  0  0  0  0  0  0  0  0  0  0  0
   37.5680   32.6490   38.5770 O   0  0  0  0  0  0  0  0  0  0  0  0
   37.2820   33.4780   38.1190 H   0  0  0  0  0  0  0  0  0  0  0  0
  1  6  2  0  0  0  0
  1  2  1  0  0  0  0
  2  3  2  0  0  0  0
  3  4  1  0  0  0  0
  5  8  1  0  0  0  0
  5  4  2  0  0  0  0
  6  5  1  0  0  0  0
  7  1  1  0  0  0  0
  9 14  1  1  0  0  0
  9 13  1  0  0  0  0
 10  3  1  6  0  0  0
 10 11  1  0  0  0  0
 10  9  1  0  0  0  0
 11 12  1  0  0  0  0
 12 13  1  0  0  0  0
 13 16  1  1  0  0  0
 15 14  1  0  0  0  0
 16 17  1  0  0  0  0
 18  2  1  0  0  0  0
 20 18  1  0  0  0  0
 20 19  2  0  0  0  0
 20 23  1  0  0  0  0
 21 20  1  0  0  0  0
 22 21  1  0  0  0  0
 24 23  1  0  0  0  0
M  END
>  <minimizedAffinity>
-4.82464743

$$$$

 OpenBabel03252502173D

 24 25  0  0  1  0  0  0  0  0999 V2000
   37.8760   29.0370   40.0560 C   0  0  0  0  0  0  0  0  0  0  0  0
   38.8000   30.0550   39.8020 C   0  0  0  0  0  0  0  0  0  0  0  0
   39.2680   30.8000   40.8950 C   0  0  0  0  0  0  0  0  0  0  0  0
   38.8150   30.5120   42.1330 N   0  0  0  0  0  0  0  0  0  0  0  0
   37.9180   29.5150   42.3390 C   0  0  0  0  0  0  0  0  0  0  0  0
   37.4450   28.7750   41.3010 N   0  0  0  0  0  0  0  0  0  0  0  0
   37.5040   28.4520   39.2280 H   0  0  0  0  0  0  0  0  0  0  0  0
   37.5690   29.3030   43.3450 H   0  0  0  0  0  0  0  0  0  0  0  0
   41.5000   31.7920   41.4260 C   0  0  1  0  0  3  0  0  0  0  0  0
   40.2360   31.8590   40.5920 C   0  0  2  0  0  3  0  0  0  0  0  0
   39.7750   33.1350   40.9040 O   0  0  0  0  0  0  0  0  0  0  0  0
   40.9050   33.9280   40.6340 C   0  0  0  0  0  2  0  0  0  0  0  0
   42.0920   33.1570   41.1350 C   0  0  1  0  0  3  0  0  0  0  0  0
   41.1700   31.6480   42.7590 O   0  0  0  0  0  0  0  0  0  0  0  0
   40.2220   31.9180   42.8750 H   0  0  0  0  0  0  0  0  0  0  0  0
   42.6700   33.7260   42.2620 O   0  0  0  0  0  0  0  0  0  0  0  0
   42.3210   34.6270   42.4630 H   0  0  0  0  0  0  0  0  0  0  0  0
   39.1890   30.2560   38.4920 O   0  0  0  0  0  0  0  0  0  0  0  0
   37.3810   32.1530   38.2870 O   0  0  0  0  0  0  0  0  0  0  0  0
   38.3020   31.3060   37.4580 P   0  0  0  0  0  0  0  0  0  0  0  0
   39.3580   32.3410   36.6390 O   0  0  0  0  0  0  0  0  0  0  0  0
   39.5420   33.1040   37.2480 H   0  0  0  0  0  0  0  0  0  0  0  0
   37.3970   30.4230   36.3520 O   0  0  0  0  0  0  0  0  0  0  0  0
   37.4290   30.9010   35.4860 H   0  0  0  0  0  0  0  0  0  0  0  0
  1  6  1  0  0  0  0
  2  1  2  0  0  0  0
  2  3  1  0  0  0  0
  3  4  2  0  0  0  0
  4  5  1  0  0  0  0
  5  8  1  0  0  0  0
  6  5  2  0  0  0  0
  7  1  1  0  0  0  0
  9 14  1  1  0  0  0
 10  3  1  1  0  0  0
 10 11  1  0  0  0  0
 10  9  1  0  0  0  0
 12 11  1  0  0  0  0
 12 13  1  0  0  0  0
 13  9  1  0  0  0  0
 13 16  1  1  0  0  0
 14 15  1  0  0  0  0
 16 17  1  0  0  0  0
 18  2  1  0  0  0  0
 20 19  2  0  0  0  0
 20 18  1  0  0  0  0
 21 22  1  0  0  0  0
 21 20  1  0  0  0  0
 23 20  1  0  0  0  0
 24 23  1  0  0  0  0
M  END
>  <minimizedAffinity>
-4.81359768

$$$$

 OpenBabel03252502173D

 24 25  0  0  1  0  0  0  0  0999 V2000
   38.6340   24.9470   42.3620 C   0  0  0  0  0  0  0  0  0  0  0  0
   37.9380   25.8870   41.5950 C   0  0  0  0  0  0  0  0  0  0  0  0
   38.1590   27.2450   41.8680 C   0  0  0  0  0  0  0  0  0  0  0  0
   39.0210   27.5890   42.8470 N   0  0  0  0  0  0  0  0  0  0  0  0
   39.6780   26.6470   43.5700 C   0  0  0  0  0  0  0  0  0  0  0  0
   39.4860   25.3230   43.3290 N   0  0  0  0  0  0  0  0  0  0  0  0
   38.4770   23.8960   42.1660 H   0  0  0  0  0  0  0  0  0  0  0  0
   40.3670   26.9510   44.3520 H   0  0  0  0  0  0  0  0  0  0  0  0
   37.4440   29.6220   41.5770 C   0  0  1  0  0  3  0  0  0  0  0  0
   37.4130   28.2030   41.0460 C   0  0  2  0  0  3  0  0  0  0  0  0
   36.0440   27.9560   41.0140 O   0  0  0  0  0  0  0  0  0  0  0  0
   35.5660   29.0530   40.2750 C   0  0  0  0  0  2  0  0  0  0  0  0
   36.3430   30.2490   40.7430 C   0  0  1  0  0  3  0  0  0  0  0  0
   37.1320   29.6210   42.9230 O   0  0  0  0  0  0  0  0  0  0  0  0
   36.6850   28.7620   43.1370 H   0  0  0  0  0  0  0  0  0  0  0  0
   35.5740   31.1400   41.4800 O   0  0  0  0  0  0  0  0  0  0  0  0
   34.6090   30.9370   41.4440 H   0  0  0  0  0  0  0  0  0  0  0  0
   37.0810   25.4120   40.6200 O   0  0  0  0  0  0  0  0  0  0  0  0
   36.7660   24.8100   38.0810 O   0  0  0  0  0  0  0  0  0  0  0  0
   37.6860   24.5760   39.2440 P   0  0  0  0  0  0  0  0  0  0  0  0
   39.2100   25.1750   38.8270 O   0  0  0  0  0  0  0  0  0  0  0  0
   39.0590   25.9800   38.2640 H   0  0  0  0  0  0  0  0  0  0  0  0
   37.7840   22.9270   39.5490 O   0  0  0  0  0  0  0  0  0  0  0  0
   38.6110   22.5910   39.1220 H   0  0  0  0  0  0  0  0  0  0  0  0
  1  6  1  0  0  0  0
  2  3  1  0  0  0  0
  2  1  2  0  0  0  0
  3  4  2  0  0  0  0
  4  5  1  0  0  0  0
  5  8  1  0  0  0  0
  6  5  2  0  0  0  0
  7  1  1  0  0  0  0
  9 14  1  1  0  0  0
 10  9  1  0  0  0  0
 10  3  1  1  0  0  0
 11 10  1  0  0  0  0
 12 13  1  0  0  0  0
 12 11  1  0  0  0  0
 13 16  1  1  0  0  0
 13  9  1  0  0  0  0
 14 15  1  0  0  0  0
 17 16  1  0  0  0  0
 18  2  1  0  0  0  0
 19 20  2  0  0  0  0
 20 23  1  0  0  0  0
 20 18  1  0  0  0  0
 21 20  1  0  0  0  0
 22 21  1  0  0  0  0
 24 23  1  0  0  0  0
M  END
>  <minimizedAffinity>
-4.75681639

$$$$
