
 OpenBabel03252508303D

 39 42  0  0  1  0  0  0  0  0999 V2000
   38.5740   30.8850   39.2810 N   0  0  0  0  0  0  0  0  0  0  0  0
   37.5530   30.2890   40.1390 C   0  0  2  0  0  0  0  0  0  0  0  0
   36.6000   31.2690   40.6660 C   0  0  0  0  0  0  0  0  0  0  0  0
   36.8530   32.6630   40.3390 N   0  0  0  0  0  0  0  0  0  0  0  0
   38.1830   33.0530   40.0880 C   0  0  0  0  0  0  0  0  0  0  0  0
   39.1670   31.9230   40.1110 C   0  0  2  0  0  0  0  0  0  0  0  0
   39.3060   30.1460   39.1250 H   0  0  0  0  0  0  0  0  0  0  0  0
   37.1010   29.4880   39.4700 H   0  0  0  0  0  0  0  0  0  0  0  0
   35.6510   31.0770   40.0440 H   0  0  0  0  0  0  0  0  0  0  0  0
   36.1910   31.1750   41.6590 H   0  0  0  0  0  0  0  0  0  0  0  0
   36.1280   33.1450   39.8130 H   0  0  0  0  0  0  0  0  0  0  0  0
   38.4900   33.7430   40.9250 H   0  0  0  0  0  0  0  0  0  0  0  0
   38.2120   33.6660   39.1870 H   0  0  0  0  0  0  0  0  0  0  0  0
   39.2730   31.5570   41.1290 H   0  0  0  0  0  0  0  0  0  0  0  0
   39.5050   28.2480   42.3460 C   0  0  0  0  0  0  0  0  0  0  0  0
   38.5210   28.7360   43.1790 C   0  0  0  0  0  0  0  0  0  0  0  0
   37.6850   29.5710   42.4120 C   0  0  0  0  0  0  0  0  0  0  0  0
   38.1880   29.5480   41.1850 N   0  0  0  0  0  0  0  0  0  0  0  0
   39.2470   28.7840   41.1330 N   0  0  0  0  0  0  0  0  0  0  0  0
   38.4910   28.4560   44.2310 H   0  0  0  0  0  0  0  0  0  0  0  0
   36.8860   29.9930   43.0130 H   0  0  0  0  0  0  0  0  0  0  0  0
   42.7650   26.9000   43.6800 C   0  0  0  0  0  0  0  0  0  0  0  0
   41.7560   27.8340   43.3370 C   0  0  0  0  0  0  0  0  0  0  0  0
   40.5950   27.3500   42.7350 C   0  0  0  0  0  0  0  0  0  0  0  0
   40.4750   26.0310   42.5040 N   0  0  0  0  0  0  0  0  0  0  0  0
   41.4540   25.1510   42.8400 C   0  0  0  0  0  0  0  0  0  0  0  0
   42.5750   25.6070   43.4200 N   0  0  0  0  0  0  0  0  0  0  0  0
   43.5990   27.4050   44.1330 H   0  0  0  0  0  0  0  0  0  0  0  0
   41.8170   28.9150   43.5080 H   0  0  0  0  0  0  0  0  0  0  0  0
   41.3500   24.0830   42.6510 H   0  0  0  0  0  0  0  0  0  0  0  0
   40.5750   33.0730   38.3490 C   0  0  1  0  0  3  0  0  0  0  0  0
   40.5000   32.2300   39.5580 C   0  0  2  0  0  3  0  0  0  0  0  0
   41.2090   31.0900   39.1870 O   0  0  0  0  0  0  0  0  0  0  0  0
   42.2150   31.4430   38.3280 C   0  0  0  0  0  2  0  0  0  0  0  0
   42.0750   32.9330   38.0510 C   0  0  1  0  0  3  0  0  0  0  0  0
   39.9330   32.6100   37.2330 O   0  0  0  0  0  0  0  0  0  0  0  0
   40.1820   31.7190   36.9500 H   0  0  0  0  0  0  0  0  0  0  0  0
   42.3940   33.2780   36.7570 O   0  0  0  0  0  0  0  0  0  0  0  0
   42.8600   34.1530   36.7680 H   0  0  0  0  0  0  0  0  0  0  0  0
  1  6  1  0  0  0  0
  1  2  1  0  0  0  0
  2  8  1  6  0  0  0
  2  3  1  0  0  0  0
  2 18  1  0  0  0  0
  3 10  1  0  0  0  0
  4  3  1  0  0  0  0
  5  6  1  0  0  0  0
  5  4  1  0  0  0  0
  5 12  1  0  0  0  0
  6 14  1  1  0  0  0
  7  1  1  0  0  0  0
  9  3  1  0  0  0  0
 11  4  1  0  0  0  0
 13  5  1  0  0  0  0
 15 24  1  0  0  0  0
 15 16  1  0  0  0  0
 16 20  1  0  0  0  0
 17 21  1  0  0  0  0
 17 16  2  0  0  0  0
 18 17  1  0  0  0  0
 19 18  1  0  0  0  0
 19 15  2  0  0  0  0
 22 28  1  0  0  0  0
 23 29  1  0  0  0  0
 23 22  2  0  0  0  0
 24 23  1  0  0  0  0
 25 24  2  0  0  0  0
 25 26  1  0  0  0  0
 26 27  2  0  0  0  0
 27 22  1  0  0  0  0
 30 26  1  0  0  0  0
 31 36  1  6  0  0  0
 31 32  1  0  0  0  0
 32 33  1  6  0  0  0
 32  6  1  0  0  0  0
 34 33  1  0  0  0  0
 35 38  1  6  0  0  0
 35 34  1  0  0  0  0
 35 31  1  0  0  0  0
 37 36  1  0  0  0  0
 38 39  1  0  0  0  0
M  END
>  <minimizedAffinity>
-6.12861061

$$$$

 OpenBabel03252508303D

 39 42  0  0  1  0  0  0  0  0999 V2000
   37.7890   29.5380   39.8650 N   0  0  0  0  0  0  0  0  0  0  0  0
   37.2200   28.3790   40.5500 C   0  0  2  0  0  0  0  0  0  0  0  0
   35.8860   28.6320   41.0980 C   0  0  0  0  0  0  0  0  0  0  0  0
   35.3720   29.9850   40.9610 N   0  0  0  0  0  0  0  0  0  0  0  0
   36.3020   31.0410   40.8810 C   0  0  0  0  0  0  0  0  0  0  0  0
   37.7320   30.5960   40.8610 C   0  0  2  0  0  0  0  0  0  0  0  0
   38.8020   29.3180   39.6920 H   0  0  0  0  0  0  0  0  0  0  0  0
   37.2690   27.5690   39.7530 H   0  0  0  0  0  0  0  0  0  0  0  0
   35.1910   28.0700   40.3730 H   0  0  0  0  0  0  0  0  0  0  0  0
   35.5710   28.1940   42.0310 H   0  0  0  0  0  0  0  0  0  0  0  0
   34.5110   30.0930   40.4310 H   0  0  0  0  0  0  0  0  0  0  0  0
   36.1850   31.6570   41.8170 H   0  0  0  0  0  0  0  0  0  0  0  0
   36.0180   31.7060   40.0640 H   0  0  0  0  0  0  0  0  0  0  0  0
   37.9980   30.1930   41.8350 H   0  0  0  0  0  0  0  0  0  0  0  0
   39.9130   27.3100   42.6600 C   0  0  0  0  0  0  0  0  0  0  0  0
   38.8140   27.1750   43.4820 C   0  0  0  0  0  0  0  0  0  0  0  0
   37.6800   27.5810   42.7520 C   0  0  0  0  0  0  0  0  0  0  0  0
   38.1340   27.9300   41.5560 N   0  0  0  0  0  0  0  0  0  0  0  0
   39.4300   27.7780   41.4890 N   0  0  0  0  0  0  0  0  0  0  0  0
   38.9220   26.8080   44.5020 H   0  0  0  0  0  0  0  0  0  0  0  0
   36.7760   27.5030   43.3470 H   0  0  0  0  0  0  0  0  0  0  0  0
   43.5370   27.6530   43.6470 C   0  0  0  0  0  0  0  0  0  0  0  0
   42.2120   28.0260   43.3090 C   0  0  0  0  0  0  0  0  0  0  0  0
   41.3000   27.0100   43.0220 C   0  0  0  0  0  0  0  0  0  0  0  0
   41.7050   25.7290   43.0760 N   0  0  0  0  0  0  0  0  0  0  0  0
   42.9800   25.3920   43.4020 C   0  0  0  0  0  0  0  0  0  0  0  0
   43.8640   26.3610   43.6800 N   0  0  0  0  0  0  0  0  0  0  0  0
   44.1300   28.5280   43.8430 H   0  0  0  0  0  0  0  0  0  0  0  0
   41.8450   29.0570   43.2540 H   0  0  0  0  0  0  0  0  0  0  0  0
   43.3000   24.3510   43.4440 H   0  0  0  0  0  0  0  0  0  0  0  0
   40.0130   31.6520   41.1710 C   0  0  1  0  0  3  0  0  0  0  0  0
   38.7130   31.6280   40.4730 C   0  0  2  0  0  3  0  0  0  0  0  0
   38.2380   32.9250   40.6560 O   0  0  0  0  0  0  0  0  0  0  0  0
   39.2940   33.7940   40.6810 C   0  0  0  0  0  2  0  0  0  0  0  0
   40.5680   32.9650   40.6010 C   0  0  1  0  0  3  0  0  0  0  0  0
   39.9800   31.8230   42.5290 O   0  0  0  0  0  0  0  0  0  0  0  0
   39.5000   32.6040   42.8380 H   0  0  0  0  0  0  0  0  0  0  0  0
   41.5990   33.4780   41.3570 O   0  0  0  0  0  0  0  0  0  0  0  0
   42.4500   33.3420   40.8660 H   0  0  0  0  0  0  0  0  0  0  0  0
  1  2  1  0  0  0  0
  1  6  1  0  0  0  0
  2  8  1  6  0  0  0
  2  3  1  0  0  0  0
  2 18  1  0  0  0  0
  3 10  1  0  0  0  0
  4  3  1  0  0  0  0
  5  4  1  0  0  0  0
  5 12  1  0  0  0  0
  6  5  1  0  0  0  0
  6 14  1  1  0  0  0
  7  1  1  0  0  0  0
  9  3  1  0  0  0  0
 11  4  1  0  0  0  0
 13  5  1  0  0  0  0
 15 24  1  0  0  0  0
 15 16  1  0  0  0  0
 16 20  1  0  0  0  0
 17 21  1  0  0  0  0
 17 16  2  0  0  0  0
 18 17  1  0  0  0  0
 19 18  1  0  0  0  0
 19 15  2  0  0  0  0
 22 27  1  0  0  0  0
 22 28  1  0  0  0  0
 23 22  2  0  0  0  0
 24 25  2  0  0  0  0
 24 23  1  0  0  0  0
 25 26  1  0  0  0  0
 26 30  1  0  0  0  0
 26 27  2  0  0  0  0
 29 23  1  0  0  0  0
 31 36  1  1  0  0  0
 32 33  1  1  0  0  0
 32  6  1  0  0  0  0
 32 31  1  0  0  0  0
 33 34  1  0  0  0  0
 35 34  1  0  0  0  0
 35 31  1  0  0  0  0
 35 38  1  1  0  0  0
 36 37  1  0  0  0  0
 39 38  1  0  0  0  0
M  END
>  <minimizedAffinity>
-6.03879976

$$$$

 OpenBabel03252508303D

 39 42  0  0  1  0  0  0  0  0999 V2000
   40.2010   32.5670   37.7770 N   0  0  0  0  0  0  0  0  0  0  0  0
   38.8880   32.1300   38.2470 C   0  0  2  0  0  0  0  0  0  0  0  0
   38.3040   33.0310   39.2440 C   0  0  0  0  0  0  0  0  0  0  0  0
   39.1290   34.1490   39.6720 N   0  0  0  0  0  0  0  0  0  0  0  0
   40.5290   34.0040   39.6020 C   0  0  0  0  0  0  0  0  0  0  0  0
   40.9800   32.7090   38.9970 C   0  0  2  0  0  0  0  0  0  0  0  0
   40.6070   31.7650   37.2320 H   0  0  0  0  0  0  0  0  0  0  0  0
   38.2970   32.0320   37.2810 H   0  0  0  0  0  0  0  0  0  0  0  0
   37.4890   33.5880   38.6520 H   0  0  0  0  0  0  0  0  0  0  0  0
   37.7120   32.6550   40.0620 H   0  0  0  0  0  0  0  0  0  0  0  0
   38.7580   35.0810   39.5010 H   0  0  0  0  0  0  0  0  0  0  0  0
   40.9150   33.9980   40.6610 H   0  0  0  0  0  0  0  0  0  0  0  0
   40.9590   34.8960   39.1460 H   0  0  0  0  0  0  0  0  0  0  0  0
   40.7450   31.8930   39.6750 H   0  0  0  0  0  0  0  0  0  0  0  0
   38.9550   28.9890   39.9720 C   0  0  0  0  0  0  0  0  0  0  0  0
   39.4080   28.6520   38.7140 C   0  0  0  0  0  0  0  0  0  0  0  0
   39.4170   29.8240   37.9330 C   0  0  0  0  0  0  0  0  0  0  0  0
   38.9820   30.7880   38.7330 N   0  0  0  0  0  0  0  0  0  0  0  0
   38.7080   30.3160   39.9210 N   0  0  0  0  0  0  0  0  0  0  0  0
   39.6850   27.6250   38.4770 H   0  0  0  0  0  0  0  0  0  0  0  0
   39.7620   29.6250   36.9230 H   0  0  0  0  0  0  0  0  0  0  0  0
   37.9240   26.0500   42.0990 C   0  0  0  0  0  0  0  0  0  0  0  0
   38.0530   26.8840   40.9600 C   0  0  0  0  0  0  0  0  0  0  0  0
   38.7770   28.0690   41.0970 C   0  0  0  0  0  0  0  0  0  0  0  0
   39.3190   28.3740   42.2890 N   0  0  0  0  0  0  0  0  0  0  0  0
   39.1840   27.5620   43.3690 C   0  0  0  0  0  0  0  0  0  0  0  0
   38.4900   26.4200   43.2480 N   0  0  0  0  0  0  0  0  0  0  0  0
   37.3470   25.1770   41.8550 H   0  0  0  0  0  0  0  0  0  0  0  0
   37.6260   26.6700   39.9750 H   0  0  0  0  0  0  0  0  0  0  0  0
   39.6270   27.8150   44.3320 H   0  0  0  0  0  0  0  0  0  0  0  0
   42.9990   33.8040   37.9320 C   0  0  1  0  0  3  0  0  0  0  0  0
   42.4070   32.6440   38.6260 C   0  0  2  0  0  3  0  0  0  0  0  0
   42.6970   31.5860   37.7680 O   0  0  0  0  0  0  0  0  0  0  0  0
   43.8950   31.8210   37.1500 C   0  0  0  0  0  2  0  0  0  0  0  0
   44.3680   33.2010   37.5820 C   0  0  1  0  0  3  0  0  0  0  0  0
   42.4360   34.1600   36.7350 O   0  0  0  0  0  0  0  0  0  0  0  0
   42.3830   33.4550   36.0750 H   0  0  0  0  0  0  0  0  0  0  0  0
   45.0130   33.8940   36.5820 O   0  0  0  0  0  0  0  0  0  0  0  0
   45.7600   34.4070   36.9820 H   0  0  0  0  0  0  0  0  0  0  0  0
  1  2  1  0  0  0  0
  1  6  1  0  0  0  0
  2  8  1  6  0  0  0
  2 18  1  0  0  0  0
  2  3  1  0  0  0  0
  3  4  1  0  0  0  0
  3 10  1  0  0  0  0
  5  4  1  0  0  0  0
  5 12  1  0  0  0  0
  6  5  1  0  0  0  0
  6 14  1  1  0  0  0
  7  1  1  0  0  0  0
  9  3  1  0  0  0  0
 11  4  1  0  0  0  0
 13  5  1  0  0  0  0
 15 24  1  0  0  0  0
 16 15  1  0  0  0  0
 17 16  2  0  0  0  0
 17 18  1  0  0  0  0
 18 19  1  0  0  0  0
 19 15  2  0  0  0  0
 20 16  1  0  0  0  0
 21 17  1  0  0  0  0
 22 27  1  0  0  0  0
 23 24  1  0  0  0  0
 23 22  2  0  0  0  0
 24 25  2  0  0  0  0
 25 26  1  0  0  0  0
 26 30  1  0  0  0  0
 27 26  2  0  0  0  0
 28 22  1  0  0  0  0
 29 23  1  0  0  0  0
 31 36  1  6  0  0  0
 31 32  1  0  0  0  0
 32 33  1  6  0  0  0
 32  6  1  0  0  0  0
 34 35  1  0  0  0  0
 34 33  1  0  0  0  0
 35 38  1  6  0  0  0
 35 31  1  0  0  0  0
 37 36  1  0  0  0  0
 38 39  1  0  0  0  0
M  END
>  <minimizedAffinity>
-5.95648956

$$$$

 OpenBabel03252508303D

 39 42  0  0  1  0  0  0  0  0999 V2000
   37.6910   29.2910   39.7870 N   0  0  0  0  0  0  0  0  0  0  0  0
   37.0550   28.3790   40.7360 C   0  0  2  0  0  0  0  0  0  0  0  0
   35.8420   28.9320   41.3410 C   0  0  0  0  0  0  0  0  0  0  0  0
   35.5030   30.3010   40.9860 N   0  0  0  0  0  0  0  0  0  0  0  0
   36.5510   31.1670   40.6150 C   0  0  0  0  0  0  0  0  0  0  0  0
   37.8960   30.5090   40.5550 C   0  0  2  0  0  0  0  0  0  0  0  0
   38.6380   28.8880   39.5700 H   0  0  0  0  0  0  0  0  0  0  0  0
   36.9000   27.4400   40.1140 H   0  0  0  0  0  0  0  0  0  0  0  0
   34.9960   28.3630   40.8080 H   0  0  0  0  0  0  0  0  0  0  0  0
   35.5830   28.7260   42.3680 H   0  0  0  0  0  0  0  0  0  0  0  0
   34.6080   30.4430   40.5240 H   0  0  0  0  0  0  0  0  0  0  0  0
   36.6310   31.9540   41.4180 H   0  0  0  0  0  0  0  0  0  0  0  0
   36.2660   31.7070   39.7110 H   0  0  0  0  0  0  0  0  0  0  0  0
   38.2180   30.2540   41.5610 H   0  0  0  0  0  0  0  0  0  0  0  0
   39.8250   27.3640   42.7730 C   0  0  0  0  0  0  0  0  0  0  0  0
   38.7880   27.4190   43.6800 C   0  0  0  0  0  0  0  0  0  0  0  0
   37.6310   27.8220   42.9850 C   0  0  0  0  0  0  0  0  0  0  0  0
   38.0120   27.9850   41.7250 N   0  0  0  0  0  0  0  0  0  0  0  0
   39.2850   27.7230   41.5870 N   0  0  0  0  0  0  0  0  0  0  0  0
   38.9510   27.1720   44.7280 H   0  0  0  0  0  0  0  0  0  0  0  0
   36.7740   27.8900   43.6470 H   0  0  0  0  0  0  0  0  0  0  0  0
   43.4870   27.5370   43.6580 C   0  0  0  0  0  0  0  0  0  0  0  0
   42.1660   27.9700   43.3850 C   0  0  0  0  0  0  0  0  0  0  0  0
   41.2130   27.0010   43.0720 C   0  0  0  0  0  0  0  0  0  0  0  0
   41.5760   25.7070   43.0400 N   0  0  0  0  0  0  0  0  0  0  0  0
   42.8480   25.3120   43.3050 C   0  0  0  0  0  0  0  0  0  0  0  0
   43.7720   26.2360   43.6080 N   0  0  0  0  0  0  0  0  0  0  0  0
   44.1140   28.3800   43.8830 H   0  0  0  0  0  0  0  0  0  0  0  0
   41.8320   29.0140   43.4000 H   0  0  0  0  0  0  0  0  0  0  0  0
   43.1350   24.2610   43.2790 H   0  0  0  0  0  0  0  0  0  0  0  0
   38.6610   31.8620   38.5560 C   0  0  1  0  0  3  0  0  0  0  0  0
   38.9550   31.2870   39.8830 C   0  0  2  0  0  3  0  0  0  0  0  0
   40.1110   30.5450   39.6530 O   0  0  0  0  0  0  0  0  0  0  0  0
   40.8620   31.1660   38.6920 C   0  0  0  0  0  2  0  0  0  0  0  0
   40.0670   32.3640   38.1960 C   0  0  1  0  0  3  0  0  0  0  0  0
   38.3190   30.9810   37.5650 O   0  0  0  0  0  0  0  0  0  0  0  0
   38.9510   30.2640   37.4100 H   0  0  0  0  0  0  0  0  0  0  0  0
   40.2180   32.5970   36.8470 O   0  0  0  0  0  0  0  0  0  0  0  0
   40.2360   33.5770   36.6940 H   0  0  0  0  0  0  0  0  0  0  0  0
  1  6  1  0  0  0  0
  1  2  1  0  0  0  0
  2  8  1  6  0  0  0
  2  3  1  0  0  0  0
  2 18  1  0  0  0  0
  3 10  1  0  0  0  0
  4  3  1  0  0  0  0
  5  4  1  0  0  0  0
  5 12  1  0  0  0  0
  6  5  1  0  0  0  0
  6 14  1  1  0  0  0
  7  1  1  0  0  0  0
  9  3  1  0  0  0  0
 11  4  1  0  0  0  0
 13  5  1  0  0  0  0
 15 24  1  0  0  0  0
 15 16  1  0  0  0  0
 16 20  1  0  0  0  0
 17 21  1  0  0  0  0
 17 16  2  0  0  0  0
 18 17  1  0  0  0  0
 19 18  1  0  0  0  0
 19 15  2  0  0  0  0
 22 28  1  0  0  0  0
 23 29  1  0  0  0  0
 23 22  2  0  0  0  0
 24 23  1  0  0  0  0
 25 24  2  0  0  0  0
 25 26  1  0  0  0  0
 26 27  2  0  0  0  0
 27 22  1  0  0  0  0
 30 26  1  0  0  0  0
 31 36  1  6  0  0  0
 31 32  1  0  0  0  0
 32 33  1  6  0  0  0
 32  6  1  0  0  0  0
 34 33  1  0  0  0  0
 35 38  1  6  0  0  0
 35 31  1  0  0  0  0
 35 34  1  0  0  0  0
 37 36  1  0  0  0  0
 39 38  1  0  0  0  0
M  END
>  <minimizedAffinity>
-5.87592316

$$$$

 OpenBabel03252508303D

 39 42  0  0  1  0  0  0  0  0999 V2000
   38.7970   27.8690   43.4190 N   0  0  0  0  0  0  0  0  0  0  0  0
   39.3180   26.5140   43.5890 C   0  0  2  0  0  0  0  0  0  0  0  0
   40.7790   26.4660   43.6790 C   0  0  0  0  0  0  0  0  0  0  0  0
   41.4830   27.7260   43.5060 N   0  0  0  0  0  0  0  0  0  0  0  0
   40.8680   28.7260   42.7260 C   0  0  0  0  0  0  0  0  0  0  0  0
   39.4950   28.3680   42.2440 C   0  0  2  0  0  0  0  0  0  0  0  0
   37.7810   27.7720   43.1670 H   0  0  0  0  0  0  0  0  0  0  0  0
   38.7650   26.1480   44.5120 H   0  0  0  0  0  0  0  0  0  0  0  0
   40.9690   26.2730   44.7980 H   0  0  0  0  0  0  0  0  0  0  0  0
   41.3410   25.6500   43.2540 H   0  0  0  0  0  0  0  0  0  0  0  0
   42.0510   28.0420   44.2880 H   0  0  0  0  0  0  0  0  0  0  0  0
   41.4950   28.8550   41.7980 H   0  0  0  0  0  0  0  0  0  0  0  0
   40.9340   29.6800   43.2510 H   0  0  0  0  0  0  0  0  0  0  0  0
   39.5680   27.5770   41.5020 H   0  0  0  0  0  0  0  0  0  0  0  0
   37.6240   24.7920   40.9400 C   0  0  0  0  0  0  0  0  0  0  0  0
   38.7350   24.0030   41.1510 C   0  0  0  0  0  0  0  0  0  0  0  0
   39.4920   24.5940   42.1810 C   0  0  0  0  0  0  0  0  0  0  0  0
   38.8220   25.6820   42.5350 N   0  0  0  0  0  0  0  0  0  0  0  0
   37.7350   25.8100   41.8210 N   0  0  0  0  0  0  0  0  0  0  0  0
   38.8970   23.0990   40.5650 H   0  0  0  0  0  0  0  0  0  0  0  0
   40.3880   24.0200   42.3950 H   0  0  0  0  0  0  0  0  0  0  0  0
   34.7280   23.2950   39.0440 C   0  0  0  0  0  0  0  0  0  0  0  0
   35.7150   23.4580   40.0480 C   0  0  0  0  0  0  0  0  0  0  0  0
   36.5740   24.5520   39.9470 C   0  0  0  0  0  0  0  0  0  0  0  0
   36.4380   25.4030   38.9150 N   0  0  0  0  0  0  0  0  0  0  0  0
   35.4850   25.2300   37.9630 C   0  0  0  0  0  0  0  0  0  0  0  0
   34.6530   24.1800   38.0510 N   0  0  0  0  0  0  0  0  0  0  0  0
   34.1390   22.4180   39.2430 H   0  0  0  0  0  0  0  0  0  0  0  0
   35.8590   22.7870   40.9020 H   0  0  0  0  0  0  0  0  0  0  0  0
   35.3790   25.9240   37.1300 H   0  0  0  0  0  0  0  0  0  0  0  0
   37.3440   29.7020   42.2260 C   0  0  1  0  0  3  0  0  0  0  0  0
   38.7030   29.4860   41.6950 C   0  0  2  0  0  3  0  0  0  0  0  0
   38.4880   29.3750   40.3240 O   0  0  0  0  0  0  0  0  0  0  0  0
   37.4380   30.1770   39.9650 C   0  0  0  0  0  2  0  0  0  0  0  0
   36.8700   30.7810   41.2410 C   0  0  1  0  0  3  0  0  0  0  0  0
   36.4570   28.6670   42.0940 O   0  0  0  0  0  0  0  0  0  0  0  0
   36.3400   28.3340   41.1930 H   0  0  0  0  0  0  0  0  0  0  0  0
   35.5000   30.9140   41.2170 O   0  0  0  0  0  0  0  0  0  0  0  0
   35.2550   31.7580   41.6770 H   0  0  0  0  0  0  0  0  0  0  0  0
  1  2  1  0  0  0  0
  2  3  1  0  0  0  0
  2  8  1  1  0  0  0
  3  9  1  0  0  0  0
  4  3  1  0  0  0  0
  4 11  1  0  0  0  0
  5 13  1  0  0  0  0
  5  4  1  0  0  0  0
  6 14  1  6  0  0  0
  6  5  1  0  0  0  0
  6  1  1  0  0  0  0
  7  1  1  0  0  0  0
 10  3  1  0  0  0  0
 12  5  1  0  0  0  0
 15 16  1  0  0  0  0
 15 19  2  0  0  0  0
 16 17  2  0  0  0  0
 17 21  1  0  0  0  0
 17 18  1  0  0  0  0
 18  2  1  0  0  0  0
 19 18  1  0  0  0  0
 20 16  1  0  0  0  0
 22 28  1  0  0  0  0
 22 23  1  0  0  0  0
 23 29  1  0  0  0  0
 24 23  2  0  0  0  0
 24 15  1  0  0  0  0
 25 24  1  0  0  0  0
 26 27  1  0  0  0  0
 26 25  2  0  0  0  0
 27 22  2  0  0  0  0
 30 26  1  0  0  0  0
 31 36  1  6  0  0  0
 32 33  1  6  0  0  0
 32 31  1  0  0  0  0
 32  6  1  0  0  0  0
 34 33  1  0  0  0  0
 34 35  1  0  0  0  0
 35 38  1  6  0  0  0
 35 31  1  0  0  0  0
 37 36  1  0  0  0  0
 38 39  1  0  0  0  0
M  END
>  <minimizedAffinity>
-5.80879593

$$$$

 OpenBabel03252508303D

 39 42  0  0  1  0  0  0  0  0999 V2000
   36.9610   29.9060   42.1650 N   0  0  0  0  0  0  0  0  0  0  0  0
   36.5670   28.5010   42.0970 C   0  0  2  0  0  0  0  0  0  0  0  0
   37.5820   27.5920   42.6330 C   0  0  0  0  0  0  0  0  0  0  0  0
   38.8340   28.1960   43.0630 N   0  0  0  0  0  0  0  0  0  0  0  0
   39.2330   29.3990   42.4480 C   0  0  0  0  0  0  0  0  0  0  0  0
   38.2380   29.9460   41.4710 C   0  0  2  0  0  0  0  0  0  0  0  0
   36.2660   30.4420   41.5840 H   0  0  0  0  0  0  0  0  0  0  0  0
   35.5720   28.4930   42.6490 H   0  0  0  0  0  0  0  0  0  0  0  0
   37.1440   27.2740   43.6490 H   0  0  0  0  0  0  0  0  0  0  0  0
   37.7540   26.6220   42.1960 H   0  0  0  0  0  0  0  0  0  0  0  0
   39.0830   28.0770   44.0420 H   0  0  0  0  0  0  0  0  0  0  0  0
   40.1600   29.1730   41.8480 H   0  0  0  0  0  0  0  0  0  0  0  0
   39.5550   30.1030   43.2170 H   0  0  0  0  0  0  0  0  0  0  0  0
   38.1970   29.3000   40.5980 H   0  0  0  0  0  0  0  0  0  0  0  0
   35.3780   28.1670   38.7320 C   0  0  0  0  0  0  0  0  0  0  0  0
   36.1160   27.0150   38.9070 C   0  0  0  0  0  0  0  0  0  0  0  0
   36.6470   27.0390   40.2110 C   0  0  0  0  0  0  0  0  0  0  0  0
   36.2170   28.1730   40.7490 N   0  0  0  0  0  0  0  0  0  0  0  0
   35.4790   28.8380   39.9000 N   0  0  0  0  0  0  0  0  0  0  0  0
   36.2030   26.2810   38.1060 H   0  0  0  0  0  0  0  0  0  0  0  0
   37.2460   26.1570   40.4120 H   0  0  0  0  0  0  0  0  0  0  0  0
   32.6900   29.2570   36.3220 C   0  0  0  0  0  0  0  0  0  0  0  0
   33.3110   28.8990   37.5450 C   0  0  0  0  0  0  0  0  0  0  0  0
   34.6620   28.5530   37.5140 C   0  0  0  0  0  0  0  0  0  0  0  0
   35.3190   28.5710   36.3410 N   0  0  0  0  0  0  0  0  0  0  0  0
   34.7060   28.9180   35.1800 C   0  0  0  0  0  0  0  0  0  0  0  0
   33.4070   29.2530   35.1980 N   0  0  0  0  0  0  0  0  0  0  0  0
   31.6560   29.4990   36.4880 H   0  0  0  0  0  0  0  0  0  0  0  0
   32.8100   28.8710   38.5180 H   0  0  0  0  0  0  0  0  0  0  0  0
   35.2450   28.9320   34.2330 H   0  0  0  0  0  0  0  0  0  0  0  0
   37.3020   32.1500   40.6480 C   0  0  1  0  0  3  0  0  0  0  0  0
   38.4700   31.3390   41.0410 C   0  0  2  0  0  3  0  0  0  0  0  0
   39.3030   31.4320   39.9290 O   0  0  0  0  0  0  0  0  0  0  0  0
   39.1430   32.6610   39.3470 C   0  0  0  0  0  2  0  0  0  0  0  0
   38.0370   33.3820   40.1020 C   0  0  1  0  0  3  0  0  0  0  0  0
   36.5470   31.6800   39.6060 O   0  0  0  0  0  0  0  0  0  0  0  0
   37.0330   31.5010   38.7890 H   0  0  0  0  0  0  0  0  0  0  0  0
   37.2410   34.1600   39.2900 O   0  0  0  0  0  0  0  0  0  0  0  0
   36.9990   34.9870   39.7810 H   0  0  0  0  0  0  0  0  0  0  0  0
  2  1  1  0  0  0  0
  2  3  1  0  0  0  0
  2  8  1  1  0  0  0
  3  4  1  0  0  0  0
  3  9  1  0  0  0  0
  4 11  1  0  0  0  0
  5  4  1  0  0  0  0
  5 13  1  0  0  0  0
  6 14  1  6  0  0  0
  6  1  1  0  0  0  0
  6  5  1  0  0  0  0
  7  1  1  0  0  0  0
 10  3  1  0  0  0  0
 12  5  1  0  0  0  0
 15 16  1  0  0  0  0
 15 19  2  0  0  0  0
 16 17  2  0  0  0  0
 17 21  1  0  0  0  0
 17 18  1  0  0  0  0
 18  2  1  0  0  0  0
 19 18  1  0  0  0  0
 20 16  1  0  0  0  0
 22 28  1  0  0  0  0
 22 23  1  0  0  0  0
 23 29  1  0  0  0  0
 24 23  2  0  0  0  0
 24 15  1  0  0  0  0
 25 24  1  0  0  0  0
 26 27  1  0  0  0  0
 26 25  2  0  0  0  0
 27 22  2  0  0  0  0
 30 26  1  0  0  0  0
 31 36  1  6  0  0  0
 31 32  1  0  0  0  0
 32 33  1  6  0  0  0
 32  6  1  0  0  0  0
 34 33  1  0  0  0  0
 34 35  1  0  0  0  0
 35 38  1  6  0  0  0
 35 31  1  0  0  0  0
 37 36  1  0  0  0  0
 38 39  1  0  0  0  0
M  END
>  <minimizedAffinity>
-5.7412529

$$$$

 OpenBabel03252508303D

 39 42  0  0  1  0  0  0  0  0999 V2000
   38.9450   32.6690   38.1500 N   0  0  0  0  0  0  0  0  0  0  0  0
   37.6620   32.1130   38.5760 C   0  0  2  0  0  0  0  0  0  0  0  0
   37.1080   32.7820   39.7550 C   0  0  0  0  0  0  0  0  0  0  0  0
   37.9320   33.8140   40.3650 N   0  0  0  0  0  0  0  0  0  0  0  0
   39.3290   33.7220   40.2110 C   0  0  0  0  0  0  0  0  0  0  0  0
   39.7750   32.5860   39.3410 C   0  0  2  0  0  0  0  0  0  0  0  0
   39.3410   32.0020   37.4400 H   0  0  0  0  0  0  0  0  0  0  0  0
   37.0300   32.1940   37.6340 H   0  0  0  0  0  0  0  0  0  0  0  0
   36.2570   33.4240   39.3210 H   0  0  0  0  0  0  0  0  0  0  0  0
   36.5610   32.2350   40.5060 H   0  0  0  0  0  0  0  0  0  0  0  0
   37.5370   34.7510   40.3990 H   0  0  0  0  0  0  0  0  0  0  0  0
   39.7620   33.5160   41.2310 H   0  0  0  0  0  0  0  0  0  0  0  0
   39.7230   34.6990   39.9250 H   0  0  0  0  0  0  0  0  0  0  0  0
   39.5850   31.6450   39.8520 H   0  0  0  0  0  0  0  0  0  0  0  0
   37.9470   28.7050   39.6480 C   0  0  0  0  0  0  0  0  0  0  0  0
   38.1490   28.6110   38.2880 C   0  0  0  0  0  0  0  0  0  0  0  0
   38.0500   29.9080   37.7480 C   0  0  0  0  0  0  0  0  0  0  0  0
   37.8020   30.7040   38.7800 N   0  0  0  0  0  0  0  0  0  0  0  0
   37.7380   30.0180   39.8900 N   0  0  0  0  0  0  0  0  0  0  0  0
   38.3440   27.6470   37.8180 H   0  0  0  0  0  0  0  0  0  0  0  0
   38.1960   29.9030   36.6730 H   0  0  0  0  0  0  0  0  0  0  0  0
   37.1060   26.4150   42.5240 C   0  0  0  0  0  0  0  0  0  0  0  0
   37.0330   27.5240   41.6460 C   0  0  0  0  0  0  0  0  0  0  0  0
   37.9510   27.5900   40.5980 C   0  0  0  0  0  0  0  0  0  0  0  0
   38.8610   26.6100   40.4590 N   0  0  0  0  0  0  0  0  0  0  0  0
   38.9150   25.5540   41.3110 C   0  0  0  0  0  0  0  0  0  0  0  0
   38.0360   25.4810   42.3220 N   0  0  0  0  0  0  0  0  0  0  0  0
   36.3460   26.4890   43.2800 H   0  0  0  0  0  0  0  0  0  0  0  0
   36.3070   28.3420   41.7270 H   0  0  0  0  0  0  0  0  0  0  0  0
   39.6550   24.7630   41.1920 H   0  0  0  0  0  0  0  0  0  0  0  0
   41.4750   32.5040   37.4660 C   0  0  1  0  0  3  0  0  0  0  0  0
   41.1850   32.6340   38.9070 C   0  0  2  0  0  3  0  0  0  0  0  0
   41.9610   31.6260   39.4730 O   0  0  0  0  0  0  0  0  0  0  0  0
   43.1050   31.4700   38.7380 C   0  0  0  0  0  2  0  0  0  0  0  0
   43.0050   32.3990   37.5380 C   0  0  1  0  0  3  0  0  0  0  0  0
   41.0540   31.3540   36.8540 O   0  0  0  0  0  0  0  0  0  0  0  0
   41.3600   30.5310   37.2610 H   0  0  0  0  0  0  0  0  0  0  0  0
   43.5550   31.8690   36.3910 O   0  0  0  0  0  0  0  0  0  0  0  0
   44.0030   32.5970   35.8880 H   0  0  0  0  0  0  0  0  0  0  0  0
  1  2  1  0  0  0  0
  1  6  1  0  0  0  0
  2  8  1  6  0  0  0
  2 18  1  0  0  0  0
  2  3  1  0  0  0  0
  3  4  1  0  0  0  0
  3 10  1  0  0  0  0
  4 11  1  0  0  0  0
  5  4  1  0  0  0  0
  5 12  1  0  0  0  0
  6 14  1  1  0  0  0
  6  5  1  0  0  0  0
  7  1  1  0  0  0  0
  9  3  1  0  0  0  0
 13  5  1  0  0  0  0
 15 19  2  0  0  0  0
 15 24  1  0  0  0  0
 16 15  1  0  0  0  0
 17 16  2  0  0  0  0
 17 18  1  0  0  0  0
 18 19  1  0  0  0  0
 20 16  1  0  0  0  0
 21 17  1  0  0  0  0
 22 28  1  0  0  0  0
 23 29  1  0  0  0  0
 23 22  2  0  0  0  0
 24 23  1  0  0  0  0
 25 24  2  0  0  0  0
 25 26  1  0  0  0  0
 26 27  2  0  0  0  0
 27 22  1  0  0  0  0
 30 26  1  0  0  0  0
 31 36  1  1  0  0  0
 31 35  1  0  0  0  0
 31 32  1  0  0  0  0
 32  6  1  0  0  0  0
 32 33  1  1  0  0  0
 34 33  1  0  0  0  0
 35 38  1  6  0  0  0
 35 34  1  0  0  0  0
 36 37  1  0  0  0  0
 39 38  1  0  0  0  0
M  END
>  <minimizedAffinity>
-5.71446228

$$$$

 OpenBabel03252508303D

 39 42  0  0  1  0  0  0  0  0999 V2000
   36.4110   30.8630   39.6010 N   0  0  0  0  0  0  0  0  0  0  0  0
   37.1430   31.5300   40.6760 C   0  0  2  0  0  0  0  0  0  0  0  0
   37.8460   32.7350   40.2320 C   0  0  0  0  0  0  0  0  0  0  0  0
   37.7870   33.0360   38.8100 N   0  0  0  0  0  0  0  0  0  0  0  0
   37.6120   31.9640   37.9130 C   0  0  0  0  0  0  0  0  0  0  0  0
   37.4200   30.6350   38.5790 C   0  0  2  0  0  0  0  0  0  0  0  0
   36.1180   29.9240   39.9730 H   0  0  0  0  0  0  0  0  0  0  0  0
   36.3360   31.7020   41.4580 H   0  0  0  0  0  0  0  0  0  0  0  0
   37.2010   33.5890   40.6530 H   0  0  0  0  0  0  0  0  0  0  0  0
   38.8050   33.0090   40.6430 H   0  0  0  0  0  0  0  0  0  0  0  0
   37.3630   33.9230   38.5500 H   0  0  0  0  0  0  0  0  0  0  0  0
   38.5640   31.8730   37.3160 H   0  0  0  0  0  0  0  0  0  0  0  0
   36.8420   32.2270   37.1870 H   0  0  0  0  0  0  0  0  0  0  0  0
   38.3510   30.3300   39.0490 H   0  0  0  0  0  0  0  0  0  0  0  0
   38.9490   28.7930   42.1240 C   0  0  0  0  0  0  0  0  0  0  0  0
   39.7920   29.8620   42.3450 C   0  0  0  0  0  0  0  0  0  0  0  0
   39.1820   31.0100   41.8030 C   0  0  0  0  0  0  0  0  0  0  0  0
   38.0300   30.5930   41.2950 N   0  0  0  0  0  0  0  0  0  0  0  0
   37.8820   29.3070   41.4740 N   0  0  0  0  0  0  0  0  0  0  0  0
   40.7420   29.7250   42.8610 H   0  0  0  0  0  0  0  0  0  0  0  0
   39.8010   31.8900   41.9400 H   0  0  0  0  0  0  0  0  0  0  0  0
   38.6640   25.0550   42.5330 C   0  0  0  0  0  0  0  0  0  0  0  0
   38.3550   26.3710   42.1090 C   0  0  0  0  0  0  0  0  0  0  0  0
   39.2000   27.4040   42.5140 C   0  0  0  0  0  0  0  0  0  0  0  0
   40.2650   27.1190   43.2830 N   0  0  0  0  0  0  0  0  0  0  0  0
   40.5460   25.8500   43.6800 C   0  0  0  0  0  0  0  0  0  0  0  0
   39.7390   24.8490   43.2950 N   0  0  0  0  0  0  0  0  0  0  0  0
   37.9370   24.3620   42.1520 H   0  0  0  0  0  0  0  0  0  0  0  0
   37.4970   26.6440   41.4840 H   0  0  0  0  0  0  0  0  0  0  0  0
   41.4110   25.6250   44.3020 H   0  0  0  0  0  0  0  0  0  0  0  0
   37.8840   28.4950   37.3080 C   0  0  1  0  0  3  0  0  0  0  0  0
   36.9330   29.5510   37.7030 C   0  0  2  0  0  3  0  0  0  0  0  0
   36.4560   30.0150   36.4800 O   0  0  0  0  0  0  0  0  0  0  0  0
   36.4170   28.9770   35.5880 C   0  0  0  0  0  2  0  0  0  0  0  0
   37.0130   27.7600   36.2790 C   0  0  1  0  0  3  0  0  0  0  0  0
   39.0020   28.8950   36.6270 O   0  0  0  0  0  0  0  0  0  0  0  0
   38.8380   29.4150   35.8280 H   0  0  0  0  0  0  0  0  0  0  0  0
   37.7500   26.9610   35.4340 O   0  0  0  0  0  0  0  0  0  0  0  0
   37.5990   26.0120   35.6810 H   0  0  0  0  0  0  0  0  0  0  0  0
  1  7  1  0  0  0  0
  1  2  1  0  0  0  0
  2 18  1  0  0  0  0
  2  8  1  1  0  0  0
  3 10  1  0  0  0  0
  3  9  1  0  0  0  0
  3  2  1  0  0  0  0
  4  3  1  0  0  0  0
  5  6  1  0  0  0  0
  5  4  1  0  0  0  0
  6 14  1  1  0  0  0
  6  1  1  0  0  0  0
 11  4  1  0  0  0  0
 12  5  1  0  0  0  0
 13  5  1  0  0  0  0
 15 16  1  0  0  0  0
 15 24  1  0  0  0  0
 16 20  1  0  0  0  0
 17 21  1  0  0  0  0
 17 16  2  0  0  0  0
 18 19  1  0  0  0  0
 18 17  1  0  0  0  0
 19 15  2  0  0  0  0
 22 27  1  0  0  0  0
 23 24  1  0  0  0  0
 23 22  2  0  0  0  0
 24 25  2  0  0  0  0
 25 26  1  0  0  0  0
 26 30  1  0  0  0  0
 27 26  2  0  0  0  0
 28 22  1  0  0  0  0
 29 23  1  0  0  0  0
 31 36  1  6  0  0  0
 31 32  1  0  0  0  0
 32 33  1  6  0  0  0
 32  6  1  0  0  0  0
 34 35  1  0  0  0  0
 34 33  1  0  0  0  0
 35 38  1  6  0  0  0
 35 31  1  0  0  0  0
 37 36  1  0  0  0  0
 38 39  1  0  0  0  0
M  END
>  <minimizedAffinity>
-5.48530912

$$$$

 OpenBabel03252508303D

 39 42  0  0  1  0  0  0  0  0999 V2000
   36.7820   29.7060   41.1990 N   0  0  0  0  0  0  0  0  0  0  0  0
   36.2770   28.4430   41.7340 C   0  0  2  0  0  0  0  0  0  0  0  0
   36.7890   28.1390   43.0720 C   0  0  0  0  0  0  0  0  0  0  0  0
   37.7640   29.0680   43.6220 N   0  0  0  0  0  0  0  0  0  0  0  0
   38.5650   29.7960   42.7210 C   0  0  0  0  0  0  0  0  0  0  0  0
   38.2280   29.5670   41.2790 C   0  0  2  0  0  0  0  0  0  0  0  0
   36.5210   29.7270   40.1810 H   0  0  0  0  0  0  0  0  0  0  0  0
   35.1500   28.5770   41.6680 H   0  0  0  0  0  0  0  0  0  0  0  0
   35.8880   28.3540   43.7560 H   0  0  0  0  0  0  0  0  0  0  0  0
   37.0100   27.1270   43.3720 H   0  0  0  0  0  0  0  0  0  0  0  0
   37.5080   29.5360   44.4880 H   0  0  0  0  0  0  0  0  0  0  0  0
   39.6240   29.4320   42.8500 H   0  0  0  0  0  0  0  0  0  0  0  0
   38.5840   30.8440   43.0250 H   0  0  0  0  0  0  0  0  0  0  0  0
   38.5110   28.5560   40.9990 H   0  0  0  0  0  0  0  0  0  0  0  0
   37.2370   25.5470   39.8530 C   0  0  0  0  0  0  0  0  0  0  0  0
   36.6340   26.3390   38.9000 C   0  0  0  0  0  0  0  0  0  0  0  0
   36.2020   27.5210   39.5340 C   0  0  0  0  0  0  0  0  0  0  0  0
   36.5560   27.3910   40.8050 N   0  0  0  0  0  0  0  0  0  0  0  0
   37.1570   26.2480   41.0060 N   0  0  0  0  0  0  0  0  0  0  0  0
   36.5610   26.0080   37.8640 H   0  0  0  0  0  0  0  0  0  0  0  0
   35.7120   28.1900   38.8340 H   0  0  0  0  0  0  0  0  0  0  0  0
   38.0310   21.8690   40.1020 C   0  0  0  0  0  0  0  0  0  0  0  0
   37.4170   23.1150   40.3790 C   0  0  0  0  0  0  0  0  0  0  0  0
   37.8180   24.2210   39.6290 C   0  0  0  0  0  0  0  0  0  0  0  0
   38.7600   24.0670   38.6820 N   0  0  0  0  0  0  0  0  0  0  0  0
   39.3370   22.8630   38.4320 C   0  0  0  0  0  0  0  0  0  0  0  0
   38.9580   21.7930   39.1480 N   0  0  0  0  0  0  0  0  0  0  0  0
   37.6320   21.1080   40.7480 H   0  0  0  0  0  0  0  0  0  0  0  0
   36.6480   23.2810   41.1410 H   0  0  0  0  0  0  0  0  0  0  0  0
   40.0990   22.7450   37.6630 H   0  0  0  0  0  0  0  0  0  0  0  0
   38.7330   31.9640   40.6420 C   0  0  1  0  0  3  0  0  0  0  0  0
   38.8220   30.5260   40.3280 C   0  0  2  0  0  3  0  0  0  0  0  0
   38.2580   30.4490   39.0560 O   0  0  0  0  0  0  0  0  0  0  0  0
   38.5390   31.5970   38.3670 C   0  0  0  0  0  2  0  0  0  0  0  0
   39.2690   32.5330   39.3190 C   0  0  1  0  0  3  0  0  0  0  0  0
   37.4750   32.4880   40.7850 O   0  0  0  0  0  0  0  0  0  0  0  0
   36.8770   32.3420   40.0380 H   0  0  0  0  0  0  0  0  0  0  0  0
   38.9400   33.8580   39.1390 O   0  0  0  0  0  0  0  0  0  0  0  0
   39.7550   34.4080   39.2720 H   0  0  0  0  0  0  0  0  0  0  0  0
  1  6  1  0  0  0  0
  1  2  1  0  0  0  0
  2  8  1  1  0  0  0
  2  3  1  0  0  0  0
  3 10  1  0  0  0  0
  3  4  1  0  0  0  0
  3  9  1  0  0  0  0
  4 11  1  0  0  0  0
  5 12  1  0  0  0  0
  5 13  1  0  0  0  0
  5  4  1  0  0  0  0
  6 14  1  6  0  0  0
  6  5  1  0  0  0  0
  7  1  1  0  0  0  0
 15 19  2  0  0  0  0
 16 17  2  0  0  0  0
 16 15  1  0  0  0  0
 17 18  1  0  0  0  0
 18 19  1  0  0  0  0
 18  2  1  0  0  0  0
 20 16  1  0  0  0  0
 21 17  1  0  0  0  0
 22 23  1  0  0  0  0
 22 28  1  0  0  0  0
 23 29  1  0  0  0  0
 24 15  1  0  0  0  0
 24 23  2  0  0  0  0
 25 24  1  0  0  0  0
 26 25  2  0  0  0  0
 26 27  1  0  0  0  0
 27 22  2  0  0  0  0
 30 26  1  0  0  0  0
 31 36  1  6  0  0  0
 32 33  1  6  0  0  0
 32 31  1  0  0  0  0
 32  6  1  0  0  0  0
 34 33  1  0  0  0  0
 34 35  1  0  0  0  0
 35 38  1  6  0  0  0
 35 31  1  0  0  0  0
 37 36  1  0  0  0  0
 38 39  1  0  0  0  0
M  END
>  <minimizedAffinity>
-5.47209024

$$$$
