
 OpenBabel03252509153D

 45 49  0  0  1  0  0  0  0  0999 V2000
   35.4150   28.3930   39.4480 S   0  0  0  0  0  0  0  0  0  0  0  0
   38.0190   25.3760   40.3650 C   0  0  0  0  0  0  0  0  0  0  0  0
   37.1010   26.2050   39.7180 C   0  0  0  0  0  0  0  0  0  0  0  0
   36.5810   27.3560   40.2870 C   0  0  0  0  0  0  0  0  0  0  0  0
   36.9920   27.7170   41.5810 C   0  0  0  0  0  0  0  0  0  0  0  0
   36.7160   28.7270   42.4310 N   0  0  0  0  0  0  0  0  0  0  0  0
   37.4140   28.5680   43.5680 C   0  0  0  0  0  0  0  0  0  0  0  0
   38.1270   27.4390   43.4040 N   0  0  0  0  0  0  0  0  0  0  0  0
   37.8950   26.8890   42.1980 C   0  0  0  0  0  0  0  0  0  0  0  0
   38.4310   25.7310   41.6500 C   0  0  0  0  0  0  0  0  0  0  0  0
   38.3690   24.5090   39.8530 H   0  0  0  0  0  0  0  0  0  0  0  0
   36.0430   29.5180   42.2100 H   0  0  0  0  0  0  0  0  0  0  0  0
   37.4130   29.2080   44.4450 H   0  0  0  0  0  0  0  0  0  0  0  0
   39.1360   25.1120   42.1700 H   0  0  0  0  0  0  0  0  0  0  0  0
   35.1260   24.7860   36.9760 C   0  0  0  0  0  0  0  0  0  0  0  0
   35.8520   25.1720   35.8420 C   0  0  0  0  0  0  0  0  0  0  0  0
   37.0160   25.9160   36.0300 C   0  0  0  0  0  0  0  0  0  0  0  0
   37.3980   26.2380   37.3000 N   0  0  0  0  0  0  0  0  0  0  0  0
   36.6620   25.8420   38.3680 C   0  0  0  0  0  0  0  0  0  0  0  0
   35.5260   25.1190   38.2420 N   0  0  0  0  0  0  0  0  0  0  0  0
   34.2380   24.2150   36.7670 H   0  0  0  0  0  0  0  0  0  0  0  0
   35.5550   24.9210   34.8500 H   0  0  0  0  0  0  0  0  0  0  0  0
   37.6520   26.2660   35.2310 H   0  0  0  0  0  0  0  0  0  0  0  0
   37.4630   30.0540   39.3480 N   0  0  0  0  0  0  0  0  0  0  0  0
   36.1540   29.8850   38.7400 C   0  0  1  0  0  0  0  0  0  0  0  0
   36.2690   29.6110   37.2350 C   0  0  0  0  0  0  0  0  0  0  0  0
   37.2060   30.4040   36.6050 O   0  0  0  0  0  0  0  0  0  0  0  0
   37.7060   31.4430   37.3580 C   0  0  0  0  0  0  0  0  0  0  0  0
   38.3450   30.8700   38.5950 C   0  0  1  0  0  0  0  0  0  0  0  0
   37.3050   30.3060   40.3280 H   0  0  0  0  0  0  0  0  0  0  0  0
   35.5380   30.7750   38.8810 H   0  0  0  0  0  0  0  0  0  0  0  0
   36.4650   28.5280   37.0880 H   0  0  0  0  0  0  0  0  0  0  0  0
   35.3280   29.8650   36.7580 H   0  0  0  0  0  0  0  0  0  0  0  0
   36.8620   32.0980   37.6460 H   0  0  0  0  0  0  0  0  0  0  0  0
   38.4420   31.9760   36.7600 H   0  0  0  0  0  0  0  0  0  0  0  0
   39.1930   30.2320   38.2650 H   0  0  0  0  0  0  0  0  0  0  0  0
   37.9600   33.1580   39.5480 C   0  0  2  0  0  3  0  0  0  0  0  0
   38.9490   32.0110   39.3600 C   0  0  2  0  0  3  0  0  0  0  0  0
   39.9870   32.6600   38.7530 O   0  0  0  0  0  0  0  0  0  0  0  0
   40.2330   33.7170   39.6280 C   0  0  0  0  0  2  0  0  0  0  0  0
   38.9190   34.1550   40.2140 C   0  0  2  0  0  3  0  0  0  0  0  0
   36.9150   32.8440   40.3830 O   0  0  0  0  0  0  0  0  0  0  0  0
   36.1520   32.5050   39.8300 H   0  0  0  0  0  0  0  0  0  0  0  0
   38.8890   33.8080   41.5840 O   0  0  0  0  0  0  0  0  0  0  0  0
   39.7220   33.3250   41.8210 H   0  0  0  0  0  0  0  0  0  0  0  0
  1  4  1  0  0  0  0
  2 10  1  0  0  0  0
  3  4  1  0  0  0  0
  3  2  2  0  0  0  0
  4  5  2  0  0  0  0
  5  9  1  0  0  0  0
  5  6  1  0  0  0  0
  6  7  1  0  0  0  0
  7 13  1  0  0  0  0
  8  7  2  0  0  0  0
  9  8  1  0  0  0  0
 10 14  1  0  0  0  0
 10  9  2  0  0  0  0
 11  2  1  0  0  0  0
 12  6  1  0  0  0  0
 15 20  1  0  0  0  0
 16 17  1  0  0  0  0
 16 15  2  0  0  0  0
 17 18  2  0  0  0  0
 18 19  1  0  0  0  0
 19  3  1  0  0  0  0
 20 19  2  0  0  0  0
 21 15  1  0  0  0  0
 22 16  1  0  0  0  0
 23 17  1  0  0  0  0
 24 30  1  0  0  0  0
 25 31  1  1  0  0  0
 25 24  1  0  0  0  0
 25  1  1  0  0  0  0
 26 25  1  0  0  0  0
 27 26  1  0  0  0  0
 27 28  1  0  0  0  0
 28 34  1  0  0  0  0
 28 29  1  0  0  0  0
 29 36  1  6  0  0  0
 29 24  1  0  0  0  0
 29 38  1  0  0  0  0
 32 26  1  0  0  0  0
 33 26  1  0  0  0  0
 35 28  1  0  0  0  0
 37 41  1  0  0  0  0
 37 42  1  1  0  0  0
 38 39  1  6  0  0  0
 38 37  1  0  0  0  0
 39 40  1  0  0  0  0
 40 41  1  0  0  0  0
 41 44  1  1  0  0  0
 43 42  1  0  0  0  0
 44 45  1  0  0  0  0
M  END
>  <minimizedAffinity>
-6.60944462

$$$$

 OpenBabel03252509153D

 45 49  0  0  1  0  0  0  0  0999 V2000
   39.7280   30.9020   42.5600 S   0  0  0  0  0  0  0  0  0  0  0  0
   36.8720   29.6060   39.9360 C   0  0  0  0  0  0  0  0  0  0  0  0
   37.8580   29.6680   40.9210 C   0  0  0  0  0  0  0  0  0  0  0  0
   38.4770   30.8470   41.3060 C   0  0  0  0  0  0  0  0  0  0  0  0
   38.1020   32.0460   40.6790 C   0  0  0  0  0  0  0  0  0  0  0  0
   38.4670   33.3390   40.7810 N   0  0  0  0  0  0  0  0  0  0  0  0
   37.7590   34.0810   39.9120 C   0  0  0  0  0  0  0  0  0  0  0  0
   36.9500   33.2190   39.2700 N   0  0  0  0  0  0  0  0  0  0  0  0
   37.1310   31.9620   39.7140 C   0  0  0  0  0  0  0  0  0  0  0  0
   36.4950   30.7950   39.3100 C   0  0  0  0  0  0  0  0  0  0  0  0
   36.4470   28.6570   39.7010 H   0  0  0  0  0  0  0  0  0  0  0  0
   39.2050   33.6930   41.4560 H   0  0  0  0  0  0  0  0  0  0  0  0
   37.8170   35.1540   39.7510 H   0  0  0  0  0  0  0  0  0  0  0  0
   35.7400   30.7760   38.5490 H   0  0  0  0  0  0  0  0  0  0  0  0
   38.0300   26.9310   43.3530 C   0  0  0  0  0  0  0  0  0  0  0  0
   39.0260   26.1050   42.8170 C   0  0  0  0  0  0  0  0  0  0  0  0
   39.6300   26.4960   41.6230 C   0  0  0  0  0  0  0  0  0  0  0  0
   39.2310   27.6580   41.0290 N   0  0  0  0  0  0  0  0  0  0  0  0
   38.2620   28.4260   41.5860 C   0  0  0  0  0  0  0  0  0  0  0  0
   37.6440   28.0930   42.7420 N   0  0  0  0  0  0  0  0  0  0  0  0
   37.6000   26.5770   44.2740 H   0  0  0  0  0  0  0  0  0  0  0  0
   39.3380   25.1980   43.2800 H   0  0  0  0  0  0  0  0  0  0  0  0
   40.4060   25.9390   41.1210 H   0  0  0  0  0  0  0  0  0  0  0  0
   41.3150   32.2950   40.9790 N   0  0  0  0  0  0  0  0  0  0  0  0
   41.3920   31.1800   41.9080 C   0  0  1  0  0  0  0  0  0  0  0  0
   42.2570   31.5280   43.1260 C   0  0  0  0  0  0  0  0  0  0  0  0
   43.4100   32.2140   42.8000 O   0  0  0  0  0  0  0  0  0  0  0  0
   43.7070   32.2690   41.4560 C   0  0  0  0  0  0  0  0  0  0  0  0
   42.5600   32.9330   40.7420 C   0  0  1  0  0  0  0  0  0  0  0  0
   40.7910   31.9660   40.1630 H   0  0  0  0  0  0  0  0  0  0  0  0
   41.8170   30.2970   41.4270 H   0  0  0  0  0  0  0  0  0  0  0  0
   41.6300   32.0810   43.8570 H   0  0  0  0  0  0  0  0  0  0  0  0
   42.6040   30.6090   43.5860 H   0  0  0  0  0  0  0  0  0  0  0  0
   43.8250   31.2330   41.0860 H   0  0  0  0  0  0  0  0  0  0  0  0
   44.6200   32.8470   41.3320 H   0  0  0  0  0  0  0  0  0  0  0  0
   42.4830   33.9710   41.1310 H   0  0  0  0  0  0  0  0  0  0  0  0
   41.7770   32.6930   38.3710 C   0  0  2  0  0  3  0  0  0  0  0  0
   42.9380   33.0520   39.2960 C   0  0  2  0  0  3  0  0  0  0  0  0
   43.8990   32.1880   38.8520 O   0  0  0  0  0  0  0  0  0  0  0  0
   43.9310   32.4510   37.4830 C   0  0  0  0  0  2  0  0  0  0  0  0
   42.5340   32.7860   37.0390 C   0  0  2  0  0  3  0  0  0  0  0  0
   40.7450   33.5990   38.4180 O   0  0  0  0  0  0  0  0  0  0  0  0
   40.0760   33.2900   39.0950 H   0  0  0  0  0  0  0  0  0  0  0  0
   42.4780   34.1570   36.6980 O   0  0  0  0  0  0  0  0  0  0  0  0
   43.3580   34.5770   36.8710 H   0  0  0  0  0  0  0  0  0  0  0  0
  2  3  1  0  0  0  0
  3  4  2  0  0  0  0
  3 19  1  0  0  0  0
  4  1  1  0  0  0  0
  5  6  1  0  0  0  0
  5  4  1  0  0  0  0
  6 12  1  0  0  0  0
  7  6  1  0  0  0  0
  8  9  1  0  0  0  0
  8  7  2  0  0  0  0
  9  5  2  0  0  0  0
 10  9  1  0  0  0  0
 10  2  2  0  0  0  0
 11  2  1  0  0  0  0
 13  7  1  0  0  0  0
 14 10  1  0  0  0  0
 15 21  1  0  0  0  0
 16 22  1  0  0  0  0
 16 15  1  0  0  0  0
 17 16  2  0  0  0  0
 18 19  2  0  0  0  0
 18 17  1  0  0  0  0
 19 20  1  0  0  0  0
 20 15  2  0  0  0  0
 23 17  1  0  0  0  0
 24 25  1  0  0  0  0
 25 31  1  6  0  0  0
 25  1  1  0  0  0  0
 25 26  1  0  0  0  0
 26 33  1  0  0  0  0
 26 32  1  0  0  0  0
 27 26  1  0  0  0  0
 28 27  1  0  0  0  0
 29 24  1  0  0  0  0
 29 36  1  1  0  0  0
 29 28  1  0  0  0  0
 30 24  1  0  0  0  0
 34 28  1  0  0  0  0
 35 28  1  0  0  0  0
 37 42  1  6  0  0  0
 37 38  1  0  0  0  0
 38 39  1  6  0  0  0
 38 29  1  0  0  0  0
 40 39  1  0  0  0  0
 41 44  1  1  0  0  0
 41 40  1  0  0  0  0
 41 37  1  0  0  0  0
 42 43  1  0  0  0  0
 44 45  1  0  0  0  0
M  END
>  <minimizedAffinity>
-6.5093708

$$$$

 OpenBabel03252509153D

 45 49  0  0  1  0  0  0  0  0999 V2000
   35.3750   28.4070   39.5110 S   0  0  0  0  0  0  0  0  0  0  0  0
   38.0150   25.3150   39.9480 C   0  0  0  0  0  0  0  0  0  0  0  0
   37.2650   26.4750   40.1430 C   0  0  0  0  0  0  0  0  0  0  0  0
   36.3160   26.9300   39.2420 C   0  0  0  0  0  0  0  0  0  0  0  0
   36.0890   26.1940   38.0670 C   0  0  0  0  0  0  0  0  0  0  0  0
   35.2790   26.3160   36.9970 N   0  0  0  0  0  0  0  0  0  0  0  0
   35.4870   25.2940   36.1500 C   0  0  0  0  0  0  0  0  0  0  0  0
   36.4430   24.5370   36.7180 N   0  0  0  0  0  0  0  0  0  0  0  0
   36.8370   25.0570   37.8960 C   0  0  0  0  0  0  0  0  0  0  0  0
   37.7930   24.5800   38.7830 C   0  0  0  0  0  0  0  0  0  0  0  0
   38.7250   25.0370   40.6930 H   0  0  0  0  0  0  0  0  0  0  0  0
   34.5880   27.1120   36.8670 H   0  0  0  0  0  0  0  0  0  0  0  0
   34.9950   25.1050   35.2000 H   0  0  0  0  0  0  0  0  0  0  0  0
   38.3560   23.6840   38.6070 H   0  0  0  0  0  0  0  0  0  0  0  0
   36.8980   27.7640   43.5540 C   0  0  0  0  0  0  0  0  0  0  0  0
   37.9190   28.7200   43.6340 C   0  0  0  0  0  0  0  0  0  0  0  0
   38.7250   28.9130   42.5140 C   0  0  0  0  0  0  0  0  0  0  0  0
   38.4910   28.1710   41.3930 N   0  0  0  0  0  0  0  0  0  0  0  0
   37.4900   27.2560   41.3630 C   0  0  0  0  0  0  0  0  0  0  0  0
   36.6790   27.0290   42.4220 N   0  0  0  0  0  0  0  0  0  0  0  0
   36.3100   27.6600   44.4500 H   0  0  0  0  0  0  0  0  0  0  0  0
   38.1020   29.3010   44.5080 H   0  0  0  0  0  0  0  0  0  0  0  0
   39.5380   29.6210   42.4620 H   0  0  0  0  0  0  0  0  0  0  0  0
   37.4320   30.0560   39.4050 N   0  0  0  0  0  0  0  0  0  0  0  0
   36.1280   29.8840   38.7870 C   0  0  1  0  0  0  0  0  0  0  0  0
   36.2560   29.5860   37.2880 C   0  0  0  0  0  0  0  0  0  0  0  0
   37.2030   30.3650   36.6550 O   0  0  0  0  0  0  0  0  0  0  0  0
   37.7010   31.4130   37.3960 C   0  0  0  0  0  0  0  0  0  0  0  0
   38.3250   30.8560   38.6480 C   0  0  1  0  0  0  0  0  0  0  0  0
   37.2660   30.3240   40.3790 H   0  0  0  0  0  0  0  0  0  0  0  0
   35.5150   30.7790   38.9080 H   0  0  0  0  0  0  0  0  0  0  0  0
   36.4480   28.5000   37.1590 H   0  0  0  0  0  0  0  0  0  0  0  0
   35.3210   29.8370   36.7970 H   0  0  0  0  0  0  0  0  0  0  0  0
   36.8570   32.0770   37.6660 H   0  0  0  0  0  0  0  0  0  0  0  0
   38.4450   31.9330   36.7970 H   0  0  0  0  0  0  0  0  0  0  0  0
   39.1730   30.2090   38.3360 H   0  0  0  0  0  0  0  0  0  0  0  0
   37.9380   33.1550   39.5740 C   0  0  2  0  0  3  0  0  0  0  0  0
   38.9270   32.0060   39.4010 C   0  0  2  0  0  3  0  0  0  0  0  0
   39.9670   32.6480   38.7890 O   0  0  0  0  0  0  0  0  0  0  0  0
   40.2100   33.7150   39.6530 C   0  0  0  0  0  2  0  0  0  0  0  0
   38.8950   34.1590   40.2300 C   0  0  2  0  0  3  0  0  0  0  0  0
   36.8910   32.8500   40.4100 O   0  0  0  0  0  0  0  0  0  0  0  0
   36.1290   32.5050   39.8600 H   0  0  0  0  0  0  0  0  0  0  0  0
   38.8620   33.8280   41.6040 O   0  0  0  0  0  0  0  0  0  0  0  0
   39.6940   33.3480   41.8480 H   0  0  0  0  0  0  0  0  0  0  0  0
  2  3  1  0  0  0  0
  2 11  1  0  0  0  0
  3 19  1  0  0  0  0
  4  1  1  0  0  0  0
  4  3  2  0  0  0  0
  5  4  1  0  0  0  0
  6  5  1  0  0  0  0
  7  8  2  0  0  0  0
  7  6  1  0  0  0  0
  8  9  1  0  0  0  0
  9  5  2  0  0  0  0
  9 10  1  0  0  0  0
 10  2  2  0  0  0  0
 12  6  1  0  0  0  0
 13  7  1  0  0  0  0
 14 10  1  0  0  0  0
 15 16  1  0  0  0  0
 15 21  1  0  0  0  0
 16 22  1  0  0  0  0
 17 16  2  0  0  0  0
 18 17  1  0  0  0  0
 19 18  2  0  0  0  0
 19 20  1  0  0  0  0
 20 15  2  0  0  0  0
 23 17  1  0  0  0  0
 24 30  1  0  0  0  0
 25 31  1  1  0  0  0
 25 24  1  0  0  0  0
 25  1  1  0  0  0  0
 26 25  1  0  0  0  0
 27 26  1  0  0  0  0
 27 28  1  0  0  0  0
 28 34  1  0  0  0  0
 28 29  1  0  0  0  0
 29 36  1  6  0  0  0
 29 38  1  0  0  0  0
 29 24  1  0  0  0  0
 32 26  1  0  0  0  0
 33 26  1  0  0  0  0
 35 28  1  0  0  0  0
 37 41  1  0  0  0  0
 37 42  1  1  0  0  0
 38 39  1  6  0  0  0
 38 37  1  0  0  0  0
 39 40  1  0  0  0  0
 40 41  1  0  0  0  0
 41 44  1  1  0  0  0
 43 42  1  0  0  0  0
 44 45  1  0  0  0  0
M  END
>  <minimizedAffinity>
-6.44812536

$$$$

 OpenBabel03252509153D

 45 49  0  0  1  0  0  0  0  0999 V2000
   37.6030   31.7440   37.4380 S   0  0  0  0  0  0  0  0  0  0  0  0
   36.0510   27.9610   37.4980 C   0  0  0  0  0  0  0  0  0  0  0  0
   36.5980   29.1920   37.8630 C   0  0  0  0  0  0  0  0  0  0  0  0
   36.9090   30.1880   36.9510 C   0  0  0  0  0  0  0  0  0  0  0  0
   36.6670   29.9580   35.5870 C   0  0  0  0  0  0  0  0  0  0  0  0
   36.8330   30.6610   34.4490 N   0  0  0  0  0  0  0  0  0  0  0  0
   36.4190   29.9310   33.3990 C   0  0  0  0  0  0  0  0  0  0  0  0
   35.9930   28.7620   33.9120 N   0  0  0  0  0  0  0  0  0  0  0  0
   36.1300   28.7420   35.2510 C   0  0  0  0  0  0  0  0  0  0  0  0
   35.8090   27.7280   36.1440 C   0  0  0  0  0  0  0  0  0  0  0  0
   35.8420   27.2500   38.2640 H   0  0  0  0  0  0  0  0  0  0  0  0
   37.2340   31.6430   34.4150 H   0  0  0  0  0  0  0  0  0  0  0  0
   36.4210   30.2120   32.3500 H   0  0  0  0  0  0  0  0  0  0  0  0
   35.3890   26.7900   35.8350 H   0  0  0  0  0  0  0  0  0  0  0  0
   36.2460   30.4770   41.2770 C   0  0  0  0  0  0  0  0  0  0  0  0
   37.3530   29.9210   41.9310 C   0  0  0  0  0  0  0  0  0  0  0  0
   38.2120   29.1090   41.1920 C   0  0  0  0  0  0  0  0  0  0  0  0
   37.9430   28.8890   39.8720 N   0  0  0  0  0  0  0  0  0  0  0  0
   36.8570   29.4490   39.2820 C   0  0  0  0  0  0  0  0  0  0  0  0
   35.9930   30.2440   39.9530 N   0  0  0  0  0  0  0  0  0  0  0  0
   35.6200   31.0930   41.9000 H   0  0  0  0  0  0  0  0  0  0  0  0
   37.5650   30.0920   42.9610 H   0  0  0  0  0  0  0  0  0  0  0  0
   39.0930   28.6300   41.5920 H   0  0  0  0  0  0  0  0  0  0  0  0
   40.1770   32.0810   36.9670 N   0  0  0  0  0  0  0  0  0  0  0  0
   39.3060   31.6200   38.0350 C   0  0  1  0  0  0  0  0  0  0  0  0
   39.3810   32.5460   39.2550 C   0  0  0  0  0  0  0  0  0  0  0  0
   40.6670   32.9450   39.5610 O   0  0  0  0  0  0  0  0  0  0  0  0
   41.6690   32.2830   38.8860 C   0  0  0  0  0  0  0  0  0  0  0  0
   41.4630   32.4860   37.4090 C   0  0  1  0  0  0  0  0  0  0  0  0
   40.1320   31.3790   36.2230 H   0  0  0  0  0  0  0  0  0  0  0  0
   39.5750   30.6110   38.3530 H   0  0  0  0  0  0  0  0  0  0  0  0
   38.7010   33.4080   39.0870 H   0  0  0  0  0  0  0  0  0  0  0  0
   39.0460   32.0020   40.1320 H   0  0  0  0  0  0  0  0  0  0  0  0
   41.5930   31.2050   39.1270 H   0  0  0  0  0  0  0  0  0  0  0  0
   42.6240   32.6990   39.1990 H   0  0  0  0  0  0  0  0  0  0  0  0
   41.5590   33.5740   37.2070 H   0  0  0  0  0  0  0  0  0  0  0  0
   42.6350   30.3170   36.9480 C   0  0  2  0  0  3  0  0  0  0  0  0
   42.6060   31.8230   36.7000 C   0  0  2  0  0  3  0  0  0  0  0  0
   43.8590   32.1780   37.1130 O   0  0  0  0  0  0  0  0  0  0  0  0
   44.6730   31.3190   36.3770 C   0  0  0  0  0  2  0  0  0  0  0  0
   43.9510   30.0100   36.2210 C   0  0  2  0  0  3  0  0  0  0  0  0
   41.5820   29.6490   36.3700 O   0  0  0  0  0  0  0  0  0  0  0  0
   40.8430   29.5720   37.0410 H   0  0  0  0  0  0  0  0  0  0  0  0
   43.5750   29.8520   34.8670 O   0  0  0  0  0  0  0  0  0  0  0  0
   43.8400   30.6570   34.3550 H   0  0  0  0  0  0  0  0  0  0  0  0
  1 25  1  0  0  0  0
  2  3  1  0  0  0  0
  2 11  1  0  0  0  0
  3 19  1  0  0  0  0
  4  1  1  0  0  0  0
  4  3  2  0  0  0  0
  5  4  1  0  0  0  0
  6  5  1  0  0  0  0
  7  8  2  0  0  0  0
  7  6  1  0  0  0  0
  8  9  1  0  0  0  0
  9  5  2  0  0  0  0
  9 10  1  0  0  0  0
 10  2  2  0  0  0  0
 12  6  1  0  0  0  0
 13  7  1  0  0  0  0
 14 10  1  0  0  0  0
 15 21  1  0  0  0  0
 15 16  1  0  0  0  0
 16 22  1  0  0  0  0
 17 23  1  0  0  0  0
 17 16  2  0  0  0  0
 18 17  1  0  0  0  0
 19 18  2  0  0  0  0
 19 20  1  0  0  0  0
 20 15  2  0  0  0  0
 24 29  1  0  0  0  0
 24 25  1  0  0  0  0
 25 31  1  1  0  0  0
 25 26  1  0  0  0  0
 26 27  1  0  0  0  0
 26 33  1  0  0  0  0
 28 34  1  0  0  0  0
 28 35  1  0  0  0  0
 28 27  1  0  0  0  0
 29 36  1  6  0  0  0
 29 28  1  0  0  0  0
 30 24  1  0  0  0  0
 32 26  1  0  0  0  0
 37 42  1  6  0  0  0
 38 37  1  0  0  0  0
 38 39  1  1  0  0  0
 38 29  1  0  0  0  0
 40 39  1  0  0  0  0
 41 44  1  6  0  0  0
 41 40  1  0  0  0  0
 41 37  1  0  0  0  0
 42 43  1  0  0  0  0
 45 44  1  0  0  0  0
M  END
>  <minimizedAffinity>
-6.41419935

$$$$

 OpenBabel03252509153D

 45 49  0  0  1  0  0  0  0  0999 V2000
   36.3030   30.5130   40.9320 S   0  0  0  0  0  0  0  0  0  0  0  0
   37.6130   31.0120   37.0910 C   0  0  0  0  0  0  0  0  0  0  0  0
   37.4350   31.1170   38.4710 C   0  0  0  0  0  0  0  0  0  0  0  0
   36.5140   30.3620   39.1790 C   0  0  0  0  0  0  0  0  0  0  0  0
   35.7120   29.4420   38.4840 C   0  0  0  0  0  0  0  0  0  0  0  0
   34.7440   28.5660   38.8170 N   0  0  0  0  0  0  0  0  0  0  0  0
   34.3140   27.9230   37.7170 C   0  0  0  0  0  0  0  0  0  0  0  0
   35.0370   28.4210   36.6970 N   0  0  0  0  0  0  0  0  0  0  0  0
   35.9050   29.3540   37.1280 C   0  0  0  0  0  0  0  0  0  0  0  0
   36.8210   30.0980   36.3950 C   0  0  0  0  0  0  0  0  0  0  0  0
   38.3450   31.6300   36.6240 H   0  0  0  0  0  0  0  0  0  0  0  0
   34.3920   28.4230   39.8080 H   0  0  0  0  0  0  0  0  0  0  0  0
   33.5450   27.1600   37.6500 H   0  0  0  0  0  0  0  0  0  0  0  0
   36.9370   29.9970   35.3340 H   0  0  0  0  0  0  0  0  0  0  0  0
   38.5060   34.1600   40.2090 C   0  0  0  0  0  0  0  0  0  0  0  0
   39.8150   33.8490   40.5960 C   0  0  0  0  0  0  0  0  0  0  0  0
   40.3200   32.5950   40.2560 C   0  0  0  0  0  0  0  0  0  0  0  0
   39.5240   31.7270   39.5650 N   0  0  0  0  0  0  0  0  0  0  0  0
   38.2610   32.0730   39.2120 C   0  0  0  0  0  0  0  0  0  0  0  0
   37.7240   33.2760   39.5170 N   0  0  0  0  0  0  0  0  0  0  0  0
   38.1730   35.1420   40.5000 H   0  0  0  0  0  0  0  0  0  0  0  0
   40.4370   34.5260   41.1350 H   0  0  0  0  0  0  0  0  0  0  0  0
   41.3120   32.2500   40.5020 H   0  0  0  0  0  0  0  0  0  0  0  0
   37.3250   28.0810   40.9010 N   0  0  0  0  0  0  0  0  0  0  0  0
   36.9620   29.1080   41.8620 C   0  0  1  0  0  0  0  0  0  0  0  0
   38.1960   29.6460   42.5970 C   0  0  0  0  0  0  0  0  0  0  0  0
   39.0830   28.6570   42.9720 O   0  0  0  0  0  0  0  0  0  0  0  0
   38.6230   27.3660   42.8390 C   0  0  0  0  0  0  0  0  0  0  0  0
   38.2610   27.1360   41.3960 C   0  0  1  0  0  0  0  0  0  0  0  0
   36.4510   27.7190   40.5090 H   0  0  0  0  0  0  0  0  0  0  0  0
   36.2620   28.7210   42.6050 H   0  0  0  0  0  0  0  0  0  0  0  0
   38.6740   30.4230   41.9640 H   0  0  0  0  0  0  0  0  0  0  0  0
   37.8800   30.1010   43.5310 H   0  0  0  0  0  0  0  0  0  0  0  0
   37.7200   27.2550   43.4700 H   0  0  0  0  0  0  0  0  0  0  0  0
   39.4140   26.6870   43.1470 H   0  0  0  0  0  0  0  0  0  0  0  0
   39.1920   27.2440   40.7990 H   0  0  0  0  0  0  0  0  0  0  0  0
   38.7210   24.9360   40.2830 C   0  0  2  0  0  3  0  0  0  0  0  0
   37.8360   25.7050   41.2600 C   0  0  2  0  0  3  0  0  0  0  0  0
   36.6010   25.4910   40.7150 O   0  0  0  0  0  0  0  0  0  0  0  0
   36.5570   24.1020   40.6050 C   0  0  0  0  0  2  0  0  0  0  0  0
   37.9430   23.6130   40.2890 C   0  0  2  0  0  3  0  0  0  0  0  0
   40.0060   24.7570   40.7370 O   0  0  0  0  0  0  0  0  0  0  0  0
   40.5750   25.5070   40.3960 H   0  0  0  0  0  0  0  0  0  0  0  0
   38.4490   22.9150   41.4100 O   0  0  0  0  0  0  0  0  0  0  0  0
   37.7880   22.9490   42.1470 H   0  0  0  0  0  0  0  0  0  0  0  0
  1 25  1  0  0  0  0
  2  3  1  0  0  0  0
  3  4  2  0  0  0  0
  3 19  1  0  0  0  0
  4  1  1  0  0  0  0
  5  6  1  0  0  0  0
  5  4  1  0  0  0  0
  6 12  1  0  0  0  0
  7  6  1  0  0  0  0
  8  9  1  0  0  0  0
  8  7  2  0  0  0  0
  9  5  2  0  0  0  0
 10  2  2  0  0  0  0
 10  9  1  0  0  0  0
 11  2  1  0  0  0  0
 13  7  1  0  0  0  0
 14 10  1  0  0  0  0
 15 21  1  0  0  0  0
 15 16  1  0  0  0  0
 16 22  1  0  0  0  0
 17 23  1  0  0  0  0
 17 16  2  0  0  0  0
 18 17  1  0  0  0  0
 19 20  1  0  0  0  0
 19 18  2  0  0  0  0
 20 15  2  0  0  0  0
 24 29  1  0  0  0  0
 24 25  1  0  0  0  0
 25 26  1  0  0  0  0
 25 31  1  1  0  0  0
 26 27  1  0  0  0  0
 26 33  1  0  0  0  0
 28 27  1  0  0  0  0
 28 35  1  0  0  0  0
 28 34  1  0  0  0  0
 29 36  1  6  0  0  0
 29 28  1  0  0  0  0
 30 24  1  0  0  0  0
 32 26  1  0  0  0  0
 37 41  1  0  0  0  0
 37 42  1  1  0  0  0
 37 38  1  0  0  0  0
 38 39  1  6  0  0  0
 38 29  1  0  0  0  0
 40 39  1  0  0  0  0
 41 40  1  0  0  0  0
 41 44  1  1  0  0  0
 43 42  1  0  0  0  0
 44 45  1  0  0  0  0
M  END
>  <minimizedAffinity>
-6.35501623

$$$$

 OpenBabel03252509153D

 45 49  0  0  1  0  0  0  0  0999 V2000
   37.4810   26.9880   38.4940 S   0  0  0  0  0  0  0  0  0  0  0  0
   35.9030   23.5380   40.0210 C   0  0  0  0  0  0  0  0  0  0  0  0
   36.6770   24.6790   39.8100 C   0  0  0  0  0  0  0  0  0  0  0  0
   36.4850   25.5440   38.7440 C   0  0  0  0  0  0  0  0  0  0  0  0
   35.4620   25.2660   37.8220 C   0  0  0  0  0  0  0  0  0  0  0  0
   34.9920   25.8510   36.7030 N   0  0  0  0  0  0  0  0  0  0  0  0
   33.9680   25.1330   36.2100 C   0  0  0  0  0  0  0  0  0  0  0  0
   33.8160   24.0910   37.0480 N   0  0  0  0  0  0  0  0  0  0  0  0
   34.7140   24.1390   38.0490 C   0  0  0  0  0  0  0  0  0  0  0  0
   34.8850   23.2580   39.1090 C   0  0  0  0  0  0  0  0  0  0  0  0
   36.1190   22.9270   40.8680 H   0  0  0  0  0  0  0  0  0  0  0  0
   35.3880   26.7460   36.2920 H   0  0  0  0  0  0  0  0  0  0  0  0
   33.3770   25.3370   35.3220 H   0  0  0  0  0  0  0  0  0  0  0  0
   34.2760   22.3870   39.2480 H   0  0  0  0  0  0  0  0  0  0  0  0
   38.4350   25.9350   42.7710 C   0  0  0  0  0  0  0  0  0  0  0  0
   39.7590   25.5470   42.5300 C   0  0  0  0  0  0  0  0  0  0  0  0
   40.0370   24.8570   41.3510 C   0  0  0  0  0  0  0  0  0  0  0  0
   39.0170   24.5890   40.4850 N   0  0  0  0  0  0  0  0  0  0  0  0
   37.7490   24.9840   40.7620 C   0  0  0  0  0  0  0  0  0  0  0  0
   37.4260   25.6560   41.8900 N   0  0  0  0  0  0  0  0  0  0  0  0
   38.2830   26.4630   43.6960 H   0  0  0  0  0  0  0  0  0  0  0  0
   40.5570   25.7570   43.2050 H   0  0  0  0  0  0  0  0  0  0  0  0
   41.0180   24.5120   41.0630 H   0  0  0  0  0  0  0  0  0  0  0  0
   37.7220   29.5300   39.1580 N   0  0  0  0  0  0  0  0  0  0  0  0
   37.1620   28.3010   39.6960 C   0  0  1  0  0  0  0  0  0  0  0  0
   35.6350   28.3890   39.8120 C   0  0  0  0  0  0  0  0  0  0  0  0
   35.1920   29.6010   40.3020 O   0  0  0  0  0  0  0  0  0  0  0  0
   36.1690   30.4270   40.8110 C   0  0  0  0  0  0  0  0  0  0  0  0
   37.1710   30.7080   39.7230 C   0  0  1  0  0  0  0  0  0  0  0  0
   38.7410   29.4260   39.1820 H   0  0  0  0  0  0  0  0  0  0  0  0
   37.5690   28.0840   40.6850 H   0  0  0  0  0  0  0  0  0  0  0  0
   35.1910   28.1460   38.8230 H   0  0  0  0  0  0  0  0  0  0  0  0
   35.2930   27.6580   40.5380 H   0  0  0  0  0  0  0  0  0  0  0  0
   36.6670   29.8980   41.6460 H   0  0  0  0  0  0  0  0  0  0  0  0
   35.6980   31.3490   41.1450 H   0  0  0  0  0  0  0  0  0  0  0  0
   36.6370   31.2500   38.9130 H   0  0  0  0  0  0  0  0  0  0  0  0
   38.0820   33.0430   39.6220 C   0  0  2  0  0  3  0  0  0  0  0  0
   38.1810   31.6680   40.2780 C   0  0  2  0  0  3  0  0  0  0  0  0
   39.4930   31.3640   40.0450 O   0  0  0  0  0  0  0  0  0  0  0  0
   40.1550   32.4800   40.5540 C   0  0  0  0  0  2  0  0  0  0  0  0
   39.2970   33.6880   40.3020 C   0  0  2  0  0  3  0  0  0  0  0  0
   36.9240   33.7130   39.9360 O   0  0  0  0  0  0  0  0  0  0  0  0
   36.2380   33.5190   39.2330 H   0  0  0  0  0  0  0  0  0  0  0  0
   38.7970   34.1610   41.5380 O   0  0  0  0  0  0  0  0  0  0  0  0
   39.0970   33.5610   42.2670 H   0  0  0  0  0  0  0  0  0  0  0  0
  1  4  1  0  0  0  0
  1 25  1  0  0  0  0
  2 11  1  0  0  0  0
  3  2  1  0  0  0  0
  3 19  1  0  0  0  0
  4  3  2  0  0  0  0
  5  9  2  0  0  0  0
  5  4  1  0  0  0  0
  6  5  1  0  0  0  0
  7  6  1  0  0  0  0
  7  8  2  0  0  0  0
  8  9  1  0  0  0  0
  9 10  1  0  0  0  0
 10 14  1  0  0  0  0
 10  2  2  0  0  0  0
 12  6  1  0  0  0  0
 13  7  1  0  0  0  0
 15 21  1  0  0  0  0
 16 15  1  0  0  0  0
 16 22  1  0  0  0  0
 17 16  2  0  0  0  0
 18 19  2  0  0  0  0
 18 17  1  0  0  0  0
 19 20  1  0  0  0  0
 20 15  2  0  0  0  0
 23 17  1  0  0  0  0
 24 30  1  0  0  0  0
 24 25  1  0  0  0  0
 24 29  1  0  0  0  0
 25 26  1  0  0  0  0
 25 31  1  1  0  0  0
 26 27  1  0  0  0  0
 26 33  1  0  0  0  0
 27 28  1  0  0  0  0
 28 35  1  0  0  0  0
 28 34  1  0  0  0  0
 29 36  1  6  0  0  0
 29 38  1  0  0  0  0
 29 28  1  0  0  0  0
 32 26  1  0  0  0  0
 37 42  1  1  0  0  0
 37 38  1  0  0  0  0
 37 41  1  0  0  0  0
 38 39  1  6  0  0  0
 39 40  1  0  0  0  0
 41 40  1  0  0  0  0
 41 44  1  1  0  0  0
 43 42  1  0  0  0  0
 44 45  1  0  0  0  0
M  END
>  <minimizedAffinity>
-6.1749897

$$$$

 OpenBabel03252509153D

 45 49  0  0  1  0  0  0  0  0999 V2000
   39.5200   28.9450   42.6530 S   0  0  0  0  0  0  0  0  0  0  0  0
   37.0370   26.7430   40.2640 C   0  0  0  0  0  0  0  0  0  0  0  0
   37.7160   27.7900   40.8870 C   0  0  0  0  0  0  0  0  0  0  0  0
   38.6710   27.5990   41.8740 C   0  0  0  0  0  0  0  0  0  0  0  0
   38.9780   26.2890   42.2750 C   0  0  0  0  0  0  0  0  0  0  0  0
   39.8170   25.7290   43.1680 N   0  0  0  0  0  0  0  0  0  0  0  0
   39.6940   24.3910   43.1310 C   0  0  0  0  0  0  0  0  0  0  0  0
   38.7610   24.1360   42.1960 N   0  0  0  0  0  0  0  0  0  0  0  0
   38.2990   25.2750   41.6490 C   0  0  0  0  0  0  0  0  0  0  0  0
   37.3390   25.4390   40.6580 C   0  0  0  0  0  0  0  0  0  0  0  0
   36.3170   26.9790   39.5140 H   0  0  0  0  0  0  0  0  0  0  0  0
   40.4690   26.2840   43.7960 H   0  0  0  0  0  0  0  0  0  0  0  0
   40.2290   23.6560   43.7250 H   0  0  0  0  0  0  0  0  0  0  0  0
   36.8320   24.6150   40.1950 H   0  0  0  0  0  0  0  0  0  0  0  0
   37.6810   30.9200   38.9810 C   0  0  0  0  0  0  0  0  0  0  0  0
   36.8230   31.7310   39.7350 C   0  0  0  0  0  0  0  0  0  0  0  0
   36.2630   31.1940   40.8940 C   0  0  0  0  0  0  0  0  0  0  0  0
   36.5710   29.9110   41.2440 N   0  0  0  0  0  0  0  0  0  0  0  0
   37.4070   29.1640   40.4820 C   0  0  0  0  0  0  0  0  0  0  0  0
   37.9770   29.6360   39.3490 N   0  0  0  0  0  0  0  0  0  0  0  0
   38.0800   31.3890   38.0980 H   0  0  0  0  0  0  0  0  0  0  0  0
   36.5830   32.7320   39.4630 H   0  0  0  0  0  0  0  0  0  0  0  0
   35.5920   31.7260   41.5500 H   0  0  0  0  0  0  0  0  0  0  0  0
   40.4090   30.9610   41.2020 N   0  0  0  0  0  0  0  0  0  0  0  0
   40.8450   29.6460   41.6400 C   0  0  1  0  0  0  0  0  0  0  0  0
   42.0630   29.7420   42.5670 C   0  0  0  0  0  0  0  0  0  0  0  0
   43.0050   30.6550   42.1380 O   0  0  0  0  0  0  0  0  0  0  0  0
   42.8170   31.1490   40.8670 C   0  0  0  0  0  0  0  0  0  0  0  0
   41.4690   31.8170   40.8090 C   0  0  1  0  0  0  0  0  0  0  0  0
   39.6480   30.8140   40.5330 H   0  0  0  0  0  0  0  0  0  0  0  0
   41.1100   29.0160   40.7880 H   0  0  0  0  0  0  0  0  0  0  0  0
   41.7070   29.9550   43.5970 H   0  0  0  0  0  0  0  0  0  0  0  0
   42.5830   28.7890   42.5660 H   0  0  0  0  0  0  0  0  0  0  0  0
   42.8400   30.2970   40.1590 H   0  0  0  0  0  0  0  0  0  0  0  0
   43.6080   31.8650   40.6580 H   0  0  0  0  0  0  0  0  0  0  0  0
   41.4920   32.6700   41.5200 H   0  0  0  0  0  0  0  0  0  0  0  0
   41.6910   31.4190   38.3420 C   0  0  2  0  0  3  0  0  0  0  0  0
   41.3200   32.4120   39.4410 C   0  0  2  0  0  3  0  0  0  0  0  0
   42.1540   33.4530   39.1420 O   0  0  0  0  0  0  0  0  0  0  0  0
   41.8690   33.6890   37.7980 C   0  0  0  0  0  2  0  0  0  0  0  0
   41.5600   32.3710   37.1460 C   0  0  2  0  0  3  0  0  0  0  0  0
   40.8110   30.3690   38.2390 O   0  0  0  0  0  0  0  0  0  0  0  0
   41.1460   29.6110   38.8000 H   0  0  0  0  0  0  0  0  0  0  0  0
   40.1860   32.3330   36.8160 O   0  0  0  0  0  0  0  0  0  0  0  0
   39.7480   33.1650   37.1290 H   0  0  0  0  0  0  0  0  0  0  0  0
  2 10  2  0  0  0  0
  2  3  1  0  0  0  0
  3  4  2  0  0  0  0
  4  5  1  0  0  0  0
  4  1  1  0  0  0  0
  5  6  1  0  0  0  0
  6 12  1  0  0  0  0
  7  6  1  0  0  0  0
  7 13  1  0  0  0  0
  8  7  2  0  0  0  0
  9  8  1  0  0  0  0
  9  5  2  0  0  0  0
 10  9  1  0  0  0  0
 11  2  1  0  0  0  0
 14 10  1  0  0  0  0
 15 20  2  0  0  0  0
 15 16  1  0  0  0  0
 16 17  2  0  0  0  0
 17 18  1  0  0  0  0
 17 23  1  0  0  0  0
 19  3  1  0  0  0  0
 19 18  2  0  0  0  0
 20 19  1  0  0  0  0
 21 15  1  0  0  0  0
 22 16  1  0  0  0  0
 24 25  1  0  0  0  0
 25 31  1  6  0  0  0
 25 26  1  0  0  0  0
 25  1  1  0  0  0  0
 26 32  1  0  0  0  0
 27 26  1  0  0  0  0
 28 27  1  0  0  0  0
 29 28  1  0  0  0  0
 29 24  1  0  0  0  0
 29 36  1  1  0  0  0
 30 24  1  0  0  0  0
 33 26  1  0  0  0  0
 34 28  1  0  0  0  0
 35 28  1  0  0  0  0
 37 42  1  6  0  0  0
 37 38  1  0  0  0  0
 38 39  1  1  0  0  0
 38 29  1  0  0  0  0
 40 39  1  0  0  0  0
 41 44  1  1  0  0  0
 41 40  1  0  0  0  0
 41 37  1  0  0  0  0
 42 43  1  0  0  0  0
 44 45  1  0  0  0  0
M  END
>  <minimizedAffinity>
-6.04507875

$$$$

 OpenBabel03252509153D

 45 49  0  0  1  0  0  0  0  0999 V2000
   35.9690   30.3650   39.8920 S   0  0  0  0  0  0  0  0  0  0  0  0
   36.5540   26.3300   39.5720 C   0  0  0  0  0  0  0  0  0  0  0  0
   36.2630   27.6680   39.3030 C   0  0  0  0  0  0  0  0  0  0  0  0
   36.3450   28.6720   40.2550 C   0  0  0  0  0  0  0  0  0  0  0  0
   36.7370   28.3370   41.5620 C   0  0  0  0  0  0  0  0  0  0  0  0
   36.9240   29.0130   42.7130 N   0  0  0  0  0  0  0  0  0  0  0  0
   37.3150   28.1650   43.6790 C   0  0  0  0  0  0  0  0  0  0  0  0
   37.3660   26.9510   43.1020 N   0  0  0  0  0  0  0  0  0  0  0  0
   37.0190   27.0170   41.8040 C   0  0  0  0  0  0  0  0  0  0  0  0
   36.9460   25.9930   40.8680 C   0  0  0  0  0  0  0  0  0  0  0  0
   36.4670   25.6220   38.7810 H   0  0  0  0  0  0  0  0  0  0  0  0
   36.7770   30.0590   42.8140 H   0  0  0  0  0  0  0  0  0  0  0  0
   37.5450   28.3970   44.7150 H   0  0  0  0  0  0  0  0  0  0  0  0
   37.1760   24.9720   41.1020 H   0  0  0  0  0  0  0  0  0  0  0  0
   34.1530   28.4360   36.4070 C   0  0  0  0  0  0  0  0  0  0  0  0
   35.0930   28.7210   35.4080 C   0  0  0  0  0  0  0  0  0  0  0  0
   36.4460   28.6460   35.7390 C   0  0  0  0  0  0  0  0  0  0  0  0
   36.7970   28.3020   37.0120 N   0  0  0  0  0  0  0  0  0  0  0  0
   35.8510   28.0350   37.9460 C   0  0  0  0  0  0  0  0  0  0  0  0
   34.5260   28.0930   37.6780 N   0  0  0  0  0  0  0  0  0  0  0  0
   33.1270   28.5120   36.0910 H   0  0  0  0  0  0  0  0  0  0  0  0
   34.8200   28.9900   34.4140 H   0  0  0  0  0  0  0  0  0  0  0  0
   37.2530   28.8440   35.0510 H   0  0  0  0  0  0  0  0  0  0  0  0
   38.5980   30.5760   39.8180 N   0  0  0  0  0  0  0  0  0  0  0  0
   37.4230   31.3490   39.4550 C   0  0  1  0  0  0  0  0  0  0  0  0
   37.3370   31.5550   37.9370 C   0  0  0  0  0  0  0  0  0  0  0  0
   38.5520   31.8640   37.3580 O   0  0  0  0  0  0  0  0  0  0  0  0
   39.5700   32.1590   38.2380 C   0  0  0  0  0  0  0  0  0  0  0  0
   39.7790   30.9720   39.1400 C   0  0  1  0  0  0  0  0  0  0  0  0
   38.6290   30.5450   40.8410 H   0  0  0  0  0  0  0  0  0  0  0  0
   37.4340   32.3300   39.9340 H   0  0  0  0  0  0  0  0  0  0  0  0
   36.8710   30.6540   37.4840 H   0  0  0  0  0  0  0  0  0  0  0  0
   36.7080   32.4150   37.7330 H   0  0  0  0  0  0  0  0  0  0  0  0
   39.2610   33.0340   38.8420 H   0  0  0  0  0  0  0  0  0  0  0  0
   40.4690   32.3650   37.6620 H   0  0  0  0  0  0  0  0  0  0  0  0
   40.0990   30.1220   38.5000 H   0  0  0  0  0  0  0  0  0  0  0  0
   40.7730   32.6320   40.7350 C   0  0  2  0  0  3  0  0  0  0  0  0
   40.9400   31.2860   40.0350 C   0  0  2  0  0  3  0  0  0  0  0  0
   42.1470   31.4630   39.4180 O   0  0  0  0  0  0  0  0  0  0  0  0
   42.9680   31.8600   40.4720 C   0  0  0  0  0  2  0  0  0  0  0  0
   42.1450   32.6830   41.4220 C   0  0  2  0  0  3  0  0  0  0  0  0
   39.7560   32.6430   41.6590 O   0  0  0  0  0  0  0  0  0  0  0  0
   38.9190   32.9650   41.2130 H   0  0  0  0  0  0  0  0  0  0  0  0
   41.9630   31.9560   42.6210 O   0  0  0  0  0  0  0  0  0  0  0  0
   42.3860   31.0640   42.5330 H   0  0  0  0  0  0  0  0  0  0  0  0
  1  4  1  0  0  0  0
  2 10  1  0  0  0  0
  3  2  2  0  0  0  0
  3  4  1  0  0  0  0
  4  5  2  0  0  0  0
  5  9  1  0  0  0  0
  5  6  1  0  0  0  0
  6 12  1  0  0  0  0
  6  7  1  0  0  0  0
  7 13  1  0  0  0  0
  8  7  2  0  0  0  0
  9  8  1  0  0  0  0
 10 14  1  0  0  0  0
 10  9  2  0  0  0  0
 11  2  1  0  0  0  0
 15 20  1  0  0  0  0
 16 17  1  0  0  0  0
 16 15  2  0  0  0  0
 17 18  2  0  0  0  0
 18 19  1  0  0  0  0
 19  3  1  0  0  0  0
 20 19  2  0  0  0  0
 21 15  1  0  0  0  0
 22 16  1  0  0  0  0
 23 17  1  0  0  0  0
 24 30  1  0  0  0  0
 25 24  1  0  0  0  0
 25  1  1  0  0  0  0
 25 31  1  1  0  0  0
 26 25  1  0  0  0  0
 27 26  1  0  0  0  0
 27 28  1  0  0  0  0
 28 34  1  0  0  0  0
 28 29  1  0  0  0  0
 29 36  1  6  0  0  0
 29 24  1  0  0  0  0
 29 38  1  0  0  0  0
 32 26  1  0  0  0  0
 33 26  1  0  0  0  0
 35 28  1  0  0  0  0
 37 41  1  0  0  0  0
 37 42  1  1  0  0  0
 38 39  1  6  0  0  0
 38 37  1  0  0  0  0
 39 40  1  0  0  0  0
 40 41  1  0  0  0  0
 41 44  1  1  0  0  0
 43 42  1  0  0  0  0
 45 44  1  0  0  0  0
M  END
>  <minimizedAffinity>
-6.02385712

$$$$

 OpenBabel03252509153D

 45 49  0  0  1  0  0  0  0  0999 V2000
   36.6310   27.0450   38.3420 S   0  0  0  0  0  0  0  0  0  0  0  0
   36.9600   24.9130   41.8160 C   0  0  0  0  0  0  0  0  0  0  0  0
   36.8040   25.2820   40.4800 C   0  0  0  0  0  0  0  0  0  0  0  0
   36.8320   26.5980   40.0450 C   0  0  0  0  0  0  0  0  0  0  0  0
   37.0240   27.6200   40.9890 C   0  0  0  0  0  0  0  0  0  0  0  0
   37.1050   28.9650   40.9470 N   0  0  0  0  0  0  0  0  0  0  0  0
   37.3030   29.4470   42.1860 C   0  0  0  0  0  0  0  0  0  0  0  0
   37.3420   28.3730   42.9940 N   0  0  0  0  0  0  0  0  0  0  0  0
   37.1750   27.2340   42.2960 C   0  0  0  0  0  0  0  0  0  0  0  0
   37.1520   25.9250   42.7580 C   0  0  0  0  0  0  0  0  0  0  0  0
   36.9260   23.8770   42.0640 H   0  0  0  0  0  0  0  0  0  0  0  0
   37.0220   29.5340   40.0550 H   0  0  0  0  0  0  0  0  0  0  0  0
   37.4100   30.4850   42.4870 H   0  0  0  0  0  0  0  0  0  0  0  0
   37.2740   25.6680   43.7920 H   0  0  0  0  0  0  0  0  0  0  0  0
   37.4930   22.7180   37.9540 C   0  0  0  0  0  0  0  0  0  0  0  0
   36.2110   22.2630   37.6190 C   0  0  0  0  0  0  0  0  0  0  0  0
   35.1200   22.8430   38.2650 C   0  0  0  0  0  0  0  0  0  0  0  0
   35.3420   23.8220   39.1900 N   0  0  0  0  0  0  0  0  0  0  0  0
   36.6020   24.2290   39.4810 C   0  0  0  0  0  0  0  0  0  0  0  0
   37.6950   23.7000   38.8850 N   0  0  0  0  0  0  0  0  0  0  0  0
   38.2940   22.2320   37.4240 H   0  0  0  0  0  0  0  0  0  0  0  0
   36.0370   21.4990   36.8970 H   0  0  0  0  0  0  0  0  0  0  0  0
   34.0910   22.5720   38.0850 H   0  0  0  0  0  0  0  0  0  0  0  0
   38.1440   29.2040   38.2360 N   0  0  0  0  0  0  0  0  0  0  0  0
   36.7550   28.8240   38.0430 C   0  0  1  0  0  0  0  0  0  0  0  0
   36.3190   29.0260   36.5860 C   0  0  0  0  0  0  0  0  0  0  0  0
   36.7780   30.2070   36.0370 O   0  0  0  0  0  0  0  0  0  0  0  0
   37.3380   31.0960   36.9270 C   0  0  0  0  0  0  0  0  0  0  0  0
   38.5010   30.4230   37.6060 C   0  0  1  0  0  0  0  0  0  0  0  0
   38.3390   29.1150   39.2380 H   0  0  0  0  0  0  0  0  0  0  0  0
   36.0940   29.4130   38.6830 H   0  0  0  0  0  0  0  0  0  0  0  0
   36.6330   28.1380   35.9970 H   0  0  0  0  0  0  0  0  0  0  0  0
   35.2380   29.1070   36.5490 H   0  0  0  0  0  0  0  0  0  0  0  0
   36.5710   31.3600   37.6800 H   0  0  0  0  0  0  0  0  0  0  0  0
   37.6730   31.9700   36.3720 H   0  0  0  0  0  0  0  0  0  0  0  0
   39.2510   30.1870   36.8210 H   0  0  0  0  0  0  0  0  0  0  0  0
   40.5060   31.8790   37.9950 C   0  0  2  0  0  3  0  0  0  0  0  0
   39.1400   31.4330   38.5110 C   0  0  2  0  0  3  0  0  0  0  0  0
   39.4660   30.9970   39.7650 O   0  0  0  0  0  0  0  0  0  0  0  0
   40.1410   32.0940   40.2980 C   0  0  0  0  0  2  0  0  0  0  0  0
   40.9030   32.7600   39.1870 C   0  0  2  0  0  3  0  0  0  0  0  0
   40.4360   32.6140   36.8370 O   0  0  0  0  0  0  0  0  0  0  0  0
   40.5350   31.9950   36.0560 H   0  0  0  0  0  0  0  0  0  0  0  0
   40.3090   34.0130   38.9100 O   0  0  0  0  0  0  0  0  0  0  0  0
   39.5110   34.1340   39.4840 H   0  0  0  0  0  0  0  0  0  0  0  0
  1  4  1  0  0  0  0
  2 11  1  0  0  0  0
  2 10  1  0  0  0  0
  3  2  2  0  0  0  0
  4  3  1  0  0  0  0
  4  5  2  0  0  0  0
  5  9  1  0  0  0  0
  6  5  1  0  0  0  0
  6  7  1  0  0  0  0
  7 13  1  0  0  0  0
  7  8  2  0  0  0  0
  9 10  2  0  0  0  0
  9  8  1  0  0  0  0
 10 14  1  0  0  0  0
 12  6  1  0  0  0  0
 15 20  1  0  0  0  0
 16 15  2  0  0  0  0
 16 17  1  0  0  0  0
 17 18  2  0  0  0  0
 18 19  1  0  0  0  0
 19  3  1  0  0  0  0
 20 19  2  0  0  0  0
 21 15  1  0  0  0  0
 22 16  1  0  0  0  0
 23 17  1  0  0  0  0
 24 30  1  0  0  0  0
 25 24  1  0  0  0  0
 25  1  1  0  0  0  0
 25 31  1  1  0  0  0
 26 25  1  0  0  0  0
 27 26  1  0  0  0  0
 27 28  1  0  0  0  0
 28 29  1  0  0  0  0
 28 34  1  0  0  0  0
 29 36  1  6  0  0  0
 29 24  1  0  0  0  0
 29 38  1  0  0  0  0
 32 26  1  0  0  0  0
 33 26  1  0  0  0  0
 35 28  1  0  0  0  0
 37 42  1  6  0  0  0
 37 38  1  0  0  0  0
 37 41  1  0  0  0  0
 38 39  1  1  0  0  0
 39 40  1  0  0  0  0
 41 44  1  6  0  0  0
 41 40  1  0  0  0  0
 43 42  1  0  0  0  0
 44 45  1  0  0  0  0
M  END
>  <minimizedAffinity>
-6.01541233

$$$$
