
 OpenBabel03252505183D

 34 37  0  0  1  0  0  0  0  0999 V2000
   46.0030   32.5590   47.0670 C   0  0  0  0  0  0  0  0  0  0  0  0
   44.9150   32.5000   47.9130 C   0  0  0  0  0  0  0  0  0  0  0  0
   44.9650   31.6870   49.0370 C   0  0  0  0  0  0  0  0  0  0  0  0
   46.1220   30.9620   49.2590 C   0  0  0  0  0  0  0  0  0  0  0  0
   47.1850   31.0630   48.3720 C   0  0  0  0  0  0  0  0  0  0  0  0
   47.1370   31.8580   47.2740 N   0  0  0  0  0  0  0  0  0  0  0  0
   44.0040   33.0650   47.7460 H   0  0  0  0  0  0  0  0  0  0  0  0
   44.1070   31.6440   49.6990 H   0  0  0  0  0  0  0  0  0  0  0  0
   46.1790   30.3320   50.1170 H   0  0  0  0  0  0  0  0  0  0  0  0
   44.9430   35.1650   44.6840 C   0  0  0  0  0  0  0  0  0  0  0  0
   45.8320   35.0040   43.5960 C   0  0  0  0  0  0  0  0  0  0  0  0
   46.7640   34.0020   43.7340 C   0  0  0  0  0  0  0  0  0  0  0  0
   46.8110   33.2220   44.8640 N   0  0  0  0  0  0  0  0  0  0  0  0
   45.9230   33.4210   45.8920 C   0  0  0  0  0  0  0  0  0  0  0  0
   45.0000   34.3910   45.7870 N   0  0  0  0  0  0  0  0  0  0  0  0
   44.1850   35.9560   44.6080 H   0  0  0  0  0  0  0  0  0  0  0  0
   45.7670   35.6360   42.7200 H   0  0  0  0  0  0  0  0  0  0  0  0
   47.7360   33.7230   42.6260 C   0  0  0  0  0  0  0  0  0  0  0  0
   48.0710   34.9780   41.8200 C   0  0  0  0  0  0  0  0  0  0  0  0
   49.0840   34.2150   42.7330 C   0  0  0  0  0  0  0  0  0  0  0  0
   47.4960   32.8250   42.0110 H   0  0  0  0  0  0  0  0  0  0  0  0
   47.7500   35.9570   42.2310 H   0  0  0  0  0  0  0  0  0  0  0  0
   48.1600   34.8240   40.7470 H   0  0  0  0  0  0  0  0  0  0  0  0
   49.4440   34.7730   43.6260 H   0  0  0  0  0  0  0  0  0  0  0  0
   49.8880   33.7270   42.1530 H   0  0  0  0  0  0  0  0  0  0  0  0
   49.3330   30.8820   49.6460 C   0  0  1  0  0  3  0  0  0  0  0  0
   48.3970   30.2690   48.6540 C   0  0  2  0  0  3  0  0  0  0  0  0
   49.2130   30.0910   47.5430 O   0  0  0  0  0  0  0  0  0  0  0  0
   50.3300   29.4730   48.0570 C   0  0  0  0  0  2  0  0  0  0  0  0
   50.5510   29.9660   49.4620 C   0  0  2  0  0  3  0  0  0  0  0  0
   49.7070   32.1770   49.3820 O   0  0  0  0  0  0  0  0  0  0  0  0
   49.1650   32.8710   49.8320 H   0  0  0  0  0  0  0  0  0  0  0  0
   50.4580   28.8440   50.3090 O   0  0  0  0  0  0  0  0  0  0  0  0
   49.5100   28.5840   50.4290 H   0  0  0  0  0  0  0  0  0  0  0  0
  1  6  2  0  0  0  0
  1  2  1  0  0  0  0
  2  3  2  0  0  0  0
  3  4  1  0  0  0  0
  3  8  1  0  0  0  0
  4  9  1  0  0  0  0
  5  4  2  0  0  0  0
  6  5  1  0  0  0  0
  7  2  1  0  0  0  0
 10 15  1  0  0  0  0
 11 12  1  0  0  0  0
 11 10  2  0  0  0  0
 12 13  2  0  0  0  0
 13 14  1  0  0  0  0
 14  1  1  0  0  0  0
 15 14  2  0  0  0  0
 16 10  1  0  0  0  0
 17 11  1  0  0  0  0
 18 20  1  0  0  0  0
 18 12  1  0  0  0  0
 19 22  1  0  0  0  0
 19 18  1  0  0  0  0
 19 20  1  0  0  0  0
 20 24  1  0  0  0  0
 21 18  1  0  0  0  0
 23 19  1  0  0  0  0
 25 20  1  0  0  0  0
 26 31  1  6  0  0  0
 27  5  1  6  0  0  0
 27 26  1  0  0  0  0
 28 29  1  0  0  0  0
 28 27  1  0  0  0  0
 29 30  1  0  0  0  0
 30 26  1  0  0  0  0
 30 33  1  1  0  0  0
 31 32  1  0  0  0  0
 33 34  1  0  0  0  0
M  END
>  <minimizedAffinity>
-6.11062527

>  <minimizedRMSD>
1.2470361

$$$$
