
 OpenBabel03242520563D

 41 43  0  0  1  0  0  0  0  0999 V2000
   51.2740   32.2250   50.9280 C   0  0  0  0  0  0  0  0  0  0  0  0
   51.3920   31.0260   51.6730 C   0  0  0  0  0  0  0  0  0  0  0  0
   50.5540   29.9640   51.3700 C   0  0  0  0  0  0  0  0  0  0  0  0
   49.6650   30.1290   50.3780 N   0  0  0  0  0  0  0  0  0  0  0  0
   49.5610   31.2700   49.6800 C   0  0  0  0  0  0  0  0  0  0  0  0
   50.3640   32.3280   49.9470 N   0  0  0  0  0  0  0  0  0  0  0  0
   51.8510   33.1250   51.0470 H   0  0  0  0  0  0  0  0  0  0  0  0
   52.6370   32.4220   53.3540 C   0  0  2  0  0  0  0  0  0  0  0  0
   52.4400   31.1000   52.7360 C   0  0  1  0  0  0  0  0  0  0  0  0
   52.1690   30.2100   53.7680 O   0  0  0  0  0  0  0  0  0  0  0  0
   51.9200   30.8430   54.9300 C   0  0  0  0  0  0  0  0  0  0  0  0
   52.2620   32.2780   54.7810 C   0  0  2  0  0  0  0  0  0  0  0  0
   52.0020   33.4720   52.7050 O   0  0  0  0  0  0  0  0  0  0  0  0
   51.6940   34.1060   53.3990 H   0  0  0  0  0  0  0  0  0  0  0  0
   51.2490   33.1420   55.1860 O   0  0  0  0  0  0  0  0  0  0  0  0
   50.5410   32.5620   55.6080 H   0  0  0  0  0  0  0  0  0  0  0  0
   48.5540   31.4100   48.6260 C   0  0  0  0  0  0  0  0  0  0  0  0
   47.4950   32.1750   48.7720 C   0  0  0  0  0  0  0  0  0  0  0  0
   46.4860   32.3040   47.6950 C   0  0  0  0  0  0  0  0  0  0  0  0
   46.2210   31.2920   47.4060 H   0  0  0  0  0  0  0  0  0  0  0  0
   45.5610   32.7210   48.1930 H   0  0  0  0  0  0  0  0  0  0  0  0
   46.5330   32.7820   45.4060 C   0  0  0  0  0  0  0  0  0  0  0  0
   45.9470   31.7790   44.9400 O   0  0  0  0  0  0  0  0  0  0  0  0
   46.8610   33.2030   46.6910 N   0  0  0  0  0  0  0  0  0  0  0  0
   47.3390   34.1090   46.8170 H   0  0  0  0  0  0  0  0  0  0  0  0
   44.8460   35.1480   44.4730 Cl  0  0  0  0  0  0  0  0  0  0  0  0
   46.2110   34.5740   43.5710 C   0  0  0  0  0  0  0  0  0  0  0  0
   46.8340   33.5030   44.1620 C   0  0  0  0  0  0  0  0  0  0  0  0
   47.9590   32.9200   43.5590 C   0  0  0  0  0  0  0  0  0  0  0  0
   48.4510   33.4220   42.3590 C   0  0  0  0  0  0  0  0  0  0  0  0
   47.8050   34.5050   41.7810 C   0  0  0  0  0  0  0  0  0  0  0  0
   48.3700   35.1860   40.2750 Cl  0  0  0  0  0  0  0  0  0  0  0  0
   46.7000   35.0660   42.3880 C   0  0  0  0  0  0  0  0  0  0  0  0
   48.5320   32.0840   43.9190 H   0  0  0  0  0  0  0  0  0  0  0  0
   49.3090   33.0170   41.8500 H   0  0  0  0  0  0  0  0  0  0  0  0
   46.1500   35.9110   41.9910 H   0  0  0  0  0  0  0  0  0  0  0  0
   50.6390   28.8060   52.0540 O   0  0  0  0  0  0  0  0  0  0  0  0
   51.3890   27.7360   51.4530 C   0  0  0  0  0  0  0  0  0  0  0  0
   52.2370   28.2600   50.4730 F   0  0  0  0  0  0  0  0  0  0  0  0
   52.1990   27.2180   52.4600 F   0  0  0  0  0  0  0  0  0  0  0  0
   50.5920   26.7110   50.9560 F   0  0  0  0  0  0  0  0  0  0  0  0
  1  7  1  0  0  0  0
  1  2  1  0  0  0  0
  3  2  2  0  0  0  0
  3 37  1  0  0  0  0
  4  3  1  0  0  0  0
  5  6  1  0  0  0  0
  5  4  2  0  0  0  0
  6  1  2  0  0  0  0
  8 13  1  6  0  0  0
  8 12  1  0  0  0  0
  9  2  1  6  0  0  0
  9  8  1  0  0  0  0
  9 10  1  0  0  0  0
 10 11  1  0  0  0  0
 12 11  1  0  0  0  0
 12 15  1  6  0  0  0
 13 14  1  0  0  0  0
 15 16  1  0  0  0  0
 17 18  2  0  0  0  0
 17  5  1  0  0  0  0
 19 21  1  0  0  0  0
 19 18  1  0  0  0  0
 20 19  1  0  0  0  0
 22 24  1  0  0  0  0
 23 22  2  0  0  0  0
 24 25  1  0  0  0  0
 24 19  1  0  0  0  0
 27 28  1  0  0  0  0
 27 26  1  0  0  0  0
 28 22  1  0  0  0  0
 29 34  1  0  0  0  0
 29 28  2  0  0  0  0
 30 29  1  0  0  0  0
 31 30  2  0  0  0  0
 31 33  1  0  0  0  0
 32 31  1  0  0  0  0
 33 27  2  0  0  0  0
 35 30  1  0  0  0  0
 36 33  1  0  0  0  0
 38 37  1  0  0  0  0
 38 40  1  0  0  0  0
 39 38  1  0  0  0  0
 41 38  1  0  0  0  0
M  END
>  <minimizedAffinity>
-7.29066086

>  <minimizedRMSD>
0.468245745

$$$$
