
 OpenBabel03252507073D

 24 25  0  0  1  0  0  0  0  0999 V2000
   44.5930   35.6190   44.8170 C   0  0  0  0  0  0  0  0  0  0  0  0
   45.1670   35.6910   43.5370 C   0  0  0  0  0  0  0  0  0  0  0  0
   46.1520   34.7620   43.2300 C   0  0  0  0  0  0  0  0  0  0  0  0
   46.5210   33.8290   44.1640 N   0  0  0  0  0  0  0  0  0  0  0  0
   45.9450   33.7920   45.3860 C   0  0  0  0  0  0  0  0  0  0  0  0
   44.9890   34.6830   45.7030 N   0  0  0  0  0  0  0  0  0  0  0  0
   43.8220   36.3410   45.0650 H   0  0  0  0  0  0  0  0  0  0  0  0
   44.8080   36.4590   42.8760 H   0  0  0  0  0  0  0  0  0  0  0  0
   46.1400   33.1870   47.7800 C   0  0  2  0  0  3  0  0  0  0  0  0
   46.4070   32.7470   46.3360 C   0  0  1  0  0  3  0  0  0  0  0  0
   45.7000   31.5620   46.1970 O   0  0  0  0  0  0  0  0  0  0  0  0
   45.6500   30.9410   47.4140 C   0  0  0  0  0  2  0  0  0  0  0  0
   46.2190   31.8430   48.4710 C   0  0  2  0  0  3  0  0  0  0  0  0
   44.8270   33.6660   47.7920 O   0  0  0  0  0  0  0  0  0  0  0  0
   44.2970   33.3390   47.0020 H   0  0  0  0  0  0  0  0  0  0  0  0
   45.4390   31.8750   49.6230 O   0  0  0  0  0  0  0  0  0  0  0  0
   44.6700   32.4960   49.5280 H   0  0  0  0  0  0  0  0  0  0  0  0
   46.7190   34.8380   41.9560 O   0  0  0  0  0  0  0  0  0  0  0  0
   48.6200   33.1480   41.2220 O   0  0  0  0  0  0  0  0  0  0  0  0
   48.4030   34.5550   41.7670 P   0  0  0  0  0  0  0  0  0  0  0  0
   49.0250   35.7230   40.7490 O   0  0  0  0  0  0  0  0  0  0  0  0
   48.6060   35.6330   39.8770 H   0  0  0  0  0  0  0  0  0  0  0  0
   49.0990   34.6310   43.3120 O   0  0  0  0  0  0  0  0  0  0  0  0
   48.8650   33.7940   43.7860 H   0  0  0  0  0  0  0  0  0  0  0  0
  1  7  1  0  0  0  0
  1  6  1  0  0  0  0
  2  1  2  0  0  0  0
  3  2  1  0  0  0  0
  3  4  2  0  0  0  0
  4  5  1  0  0  0  0
  5  6  2  0  0  0  0
  8  2  1  0  0  0  0
  9 14  1  6  0  0  0
  9 13  1  0  0  0  0
 10  5  1  6  0  0  0
 10  9  1  0  0  0  0
 11 10  1  0  0  0  0
 11 12  1  0  0  0  0
 12 13  1  0  0  0  0
 13 16  1  1  0  0  0
 15 14  1  0  0  0  0
 17 16  1  0  0  0  0
 18  3  1  0  0  0  0
 19 20  2  0  0  0  0
 20 18  1  0  0  0  0
 20 23  1  0  0  0  0
 21 20  1  0  0  0  0
 22 21  1  0  0  0  0
 23 24  1  0  0  0  0
M  END
>  <minimizedAffinity>
-6.19197798

>  <minimizedRMSD>
0.612081289

$$$$
