
 OpenBabel03242518373D

 35 38  0  0  1  0  0  0  0  0999 V2000
   37.0380   27.4540   42.5420 C   0  0  0  0  0  0  0  0  0  0  0  0
   37.8210   28.4570   43.0930 C   0  0  0  0  0  0  0  0  0  0  0  0
   37.6200   29.6300   42.3830 C   0  0  0  0  0  0  0  0  0  0  0  0
   36.7110   29.2790   41.4180 C   0  0  0  0  0  0  0  0  0  0  0  0
   36.3820   28.0080   41.5230 O   0  0  0  0  0  0  0  0  0  0  0  0
   38.4690   28.2610   43.9570 H   0  0  0  0  0  0  0  0  0  0  0  0
   38.1120   30.5740   42.6050 H   0  0  0  0  0  0  0  0  0  0  0  0
   36.1720   30.1980   40.4060 C   0  0  2  0  0  0  0  0  0  0  0  0
   35.7640   29.6750   39.0870 C   0  0  0  0  0  0  0  0  0  0  0  0
   37.0860   30.3730   39.1740 C   0  0  1  0  0  0  0  0  0  0  0  0
   35.7550   31.1510   40.8020 H   0  0  0  0  0  0  0  0  0  0  0  0
   35.8520   28.5750   38.9530 H   0  0  0  0  0  0  0  0  0  0  0  0
   34.9100   30.1680   38.5780 H   0  0  0  0  0  0  0  0  0  0  0  0
   38.0240   29.8030   39.1380 H   0  0  0  0  0  0  0  0  0  0  0  0
   37.8420   31.6840   37.2180 C   0  0  1  0  0  3  0  0  0  0  0  0
   37.0980   31.7420   38.5240 C   0  0  2  0  0  3  0  0  0  0  0  0
   37.8780   32.6450   39.2420 O   0  0  0  0  0  0  0  0  0  0  0  0
   39.1910   32.3050   39.0210 C   0  0  0  0  0  2  0  0  0  0  0  0
   39.2820   31.6550   37.6610 C   0  0  2  0  0  3  0  0  0  0  0  0
   37.4720   30.6030   36.4340 O   0  0  0  0  0  0  0  0  0  0  0  0
   37.0440   30.9100   35.5760 H   0  0  0  0  0  0  0  0  0  0  0  0
   40.0900   32.3890   36.7900 O   0  0  0  0  0  0  0  0  0  0  0  0
   39.6390   32.3330   35.8990 H   0  0  0  0  0  0  0  0  0  0  0  0
   36.8730   26.0960   42.8830 O   0  0  0  0  0  0  0  0  0  0  0  0
   37.4180   25.1010   42.0380 C   0  0  0  0  0  0  0  0  0  0  0  0
   36.6130   24.2820   41.5580 O   0  0  0  0  0  0  0  0  0  0  0  0
   38.8330   25.1650   41.8400 C   0  0  0  0  0  0  0  0  0  0  0  0
   39.5790   24.8790   42.9510 C   0  0  0  0  0  0  0  0  0  0  0  0
   40.9700   24.9220   42.8350 C   0  0  0  0  0  0  0  0  0  0  0  0
   41.5080   25.2440   41.6310 N   0  0  0  0  0  0  0  0  0  0  0  0
   40.7390   25.5150   40.5730 C   0  0  0  0  0  0  0  0  0  0  0  0
   39.4120   25.4730   40.6950 N   0  0  0  0  0  0  0  0  0  0  0  0
   39.2580   24.6120   43.9520 H   0  0  0  0  0  0  0  0  0  0  0  0
   41.6360   24.7150   43.6420 H   0  0  0  0  0  0  0  0  0  0  0  0
   41.1000   25.7790   39.5850 H   0  0  0  0  0  0  0  0  0  0  0  0
  1 24  1  0  0  0  0
  1  2  2  0  0  0  0
  2  6  1  0  0  0  0
  3  7  1  0  0  0  0
  3  2  1  0  0  0  0
  4  5  1  0  0  0  0
  4  3  2  0  0  0  0
  5  1  1  0  0  0  0
  8 11  1  1  0  0  0
  8  4  1  0  0  0  0
  9 10  1  0  0  0  0
  9  8  1  0  0  0  0
 10 14  1  6  0  0  0
 10  8  1  0  0  0  0
 12  9  1  0  0  0  0
 13  9  1  0  0  0  0
 15 20  1  1  0  0  0
 15 19  1  0  0  0  0
 15 16  1  0  0  0  0
 16 10  1  0  0  0  0
 16 17  1  1  0  0  0
 18 17  1  0  0  0  0
 19 22  1  6  0  0  0
 19 18  1  0  0  0  0
 21 20  1  0  0  0  0
 23 22  1  0  0  0  0
 25 24  1  0  0  0  0
 26 25  2  0  0  0  0
 27 25  1  0  0  0  0
 27 28  1  0  0  0  0
 28 33  1  0  0  0  0
 29 28  2  0  0  0  0
 29 34  1  0  0  0  0
 30 29  1  0  0  0  0
 31 32  1  0  0  0  0
 31 30  2  0  0  0  0
 32 27  2  0  0  0  0
 35 31  1  0  0  0  0
M  END
>  <minimizedAffinity>
-6.04962254

$$$$

 OpenBabel03242518373D

 35 38  0  0  1  0  0  0  0  0999 V2000
   36.5330   28.7360   41.7880 C   0  0  0  0  0  0  0  0  0  0  0  0
   35.5990   28.8500   40.7700 C   0  0  0  0  0  0  0  0  0  0  0  0
   35.8650   29.9950   40.0370 C   0  0  0  0  0  0  0  0  0  0  0  0
   36.9660   30.5330   40.6540 C   0  0  0  0  0  0  0  0  0  0  0  0
   37.3430   29.7880   41.6730 O   0  0  0  0  0  0  0  0  0  0  0  0
   34.8070   28.1010   40.6400 H   0  0  0  0  0  0  0  0  0  0  0  0
   35.2840   30.3250   39.1790 H   0  0  0  0  0  0  0  0  0  0  0  0
   37.6380   31.7700   40.2330 C   0  0  2  0  0  0  0  0  0  0  0  0
   37.2230   32.4380   38.9830 C   0  0  0  0  0  0  0  0  0  0  0  0
   38.4750   31.6160   38.9440 C   0  0  1  0  0  0  0  0  0  0  0  0
   38.1510   32.3330   41.0430 H   0  0  0  0  0  0  0  0  0  0  0  0
   36.3700   31.9710   38.4440 H   0  0  0  0  0  0  0  0  0  0  0  0
   37.2860   33.5450   38.9440 H   0  0  0  0  0  0  0  0  0  0  0  0
   38.4870   30.6370   38.4460 H   0  0  0  0  0  0  0  0  0  0  0  0
   40.3710   32.2680   37.4970 C   0  0  1  0  0  3  0  0  0  0  0  0
   39.7430   32.4390   38.8530 C   0  0  2  0  0  3  0  0  0  0  0  0
   40.7430   31.9350   39.6820 O   0  0  0  0  0  0  0  0  0  0  0  0
   41.2070   30.7830   39.0940 C   0  0  0  0  0  2  0  0  0  0  0  0
   41.0150   30.9100   37.6020 C   0  0  2  0  0  3  0  0  0  0  0  0
   39.4570   32.3790   36.4610 O   0  0  0  0  0  0  0  0  0  0  0  0
   39.6660   33.1750   35.8800 H   0  0  0  0  0  0  0  0  0  0  0  0
   42.2320   30.8770   36.9190 O   0  0  0  0  0  0  0  0  0  0  0  0
   42.1390   31.5440   36.1780 H   0  0  0  0  0  0  0  0  0  0  0  0
   36.7090   27.7690   42.7980 O   0  0  0  0  0  0  0  0  0  0  0  0
   37.9290   27.0550   42.8640 C   0  0  0  0  0  0  0  0  0  0  0  0
   38.7710   27.4740   43.6790 O   0  0  0  0  0  0  0  0  0  0  0  0
   38.0380   25.9340   41.9820 C   0  0  0  0  0  0  0  0  0  0  0  0
   37.0310   25.0160   42.0980 C   0  0  0  0  0  0  0  0  0  0  0  0
   37.0710   23.8930   41.2670 C   0  0  0  0  0  0  0  0  0  0  0  0
   38.1010   23.7730   40.3920 N   0  0  0  0  0  0  0  0  0  0  0  0
   39.0610   24.6970   40.3140 C   0  0  0  0  0  0  0  0  0  0  0  0
   39.0150   25.7650   41.1120 N   0  0  0  0  0  0  0  0  0  0  0  0
   36.1680   25.0110   42.7550 H   0  0  0  0  0  0  0  0  0  0  0  0
   36.3330   23.1230   41.2820 H   0  0  0  0  0  0  0  0  0  0  0  0
   39.9110   24.6650   39.6400 H   0  0  0  0  0  0  0  0  0  0  0  0
  1 24  1  0  0  0  0
  2  1  2  0  0  0  0
  3  4  2  0  0  0  0
  3  2  1  0  0  0  0
  4  5  1  0  0  0  0
  5  1  1  0  0  0  0
  6  2  1  0  0  0  0
  7  3  1  0  0  0  0
  8  4  1  0  0  0  0
  8 11  1  1  0  0  0
  9  8  1  0  0  0  0
 10 14  1  6  0  0  0
 10  9  1  0  0  0  0
 10  8  1  0  0  0  0
 12  9  1  0  0  0  0
 13  9  1  0  0  0  0
 15 20  1  6  0  0  0
 15 19  1  0  0  0  0
 15 16  1  0  0  0  0
 16 10  1  0  0  0  0
 16 17  1  1  0  0  0
 18 17  1  0  0  0  0
 19 22  1  6  0  0  0
 19 18  1  0  0  0  0
 21 20  1  0  0  0  0
 23 22  1  0  0  0  0
 24 25  1  0  0  0  0
 25 26  2  0  0  0  0
 27 28  1  0  0  0  0
 27 25  1  0  0  0  0
 28 33  1  0  0  0  0
 29 34  1  0  0  0  0
 29 28  2  0  0  0  0
 30 29  1  0  0  0  0
 31 30  2  0  0  0  0
 31 32  1  0  0  0  0
 32 27  2  0  0  0  0
 35 31  1  0  0  0  0
M  END
>  <minimizedAffinity>
-5.9500041

$$$$

 OpenBabel03242518373D

 35 38  0  0  1  0  0  0  0  0999 V2000
   37.1970   27.2690   42.3490 C   0  0  0  0  0  0  0  0  0  0  0  0
   37.8070   28.3070   43.0350 C   0  0  0  0  0  0  0  0  0  0  0  0
   37.5210   29.5020   42.3980 C   0  0  0  0  0  0  0  0  0  0  0  0
   36.7370   29.1300   41.3350 C   0  0  0  0  0  0  0  0  0  0  0  0
   36.5580   27.8250   41.3200 O   0  0  0  0  0  0  0  0  0  0  0  0
   38.4060   28.1170   43.9360 H   0  0  0  0  0  0  0  0  0  0  0  0
   37.8760   30.4760   42.7280 H   0  0  0  0  0  0  0  0  0  0  0  0
   36.1700   30.0600   40.3500 C   0  0  2  0  0  0  0  0  0  0  0  0
   35.7540   29.5580   39.0250 C   0  0  0  0  0  0  0  0  0  0  0  0
   37.0660   30.2760   39.1100 C   0  0  1  0  0  0  0  0  0  0  0  0
   35.7420   30.9970   40.7700 H   0  0  0  0  0  0  0  0  0  0  0  0
   35.8590   28.4620   38.8670 H   0  0  0  0  0  0  0  0  0  0  0  0
   34.8850   30.0460   38.5370 H   0  0  0  0  0  0  0  0  0  0  0  0
   38.0120   29.7230   39.0500 H   0  0  0  0  0  0  0  0  0  0  0  0
   37.8080   31.6480   37.1920 C   0  0  1  0  0  3  0  0  0  0  0  0
   37.0460   31.6570   38.4880 C   0  0  2  0  0  3  0  0  0  0  0  0
   37.7900   32.5670   39.2360 O   0  0  0  0  0  0  0  0  0  0  0  0
   39.1150   32.2700   39.0250 C   0  0  0  0  0  2  0  0  0  0  0  0
   39.2430   31.6510   37.6530 C   0  0  2  0  0  3  0  0  0  0  0  0
   37.4800   30.5740   36.3800 O   0  0  0  0  0  0  0  0  0  0  0  0
   37.0540   30.8860   35.5230 H   0  0  0  0  0  0  0  0  0  0  0  0
   40.0400   32.4260   36.8090 O   0  0  0  0  0  0  0  0  0  0  0  0
   39.6030   32.3760   35.9100 H   0  0  0  0  0  0  0  0  0  0  0  0
   37.1710   25.8780   42.5760 O   0  0  0  0  0  0  0  0  0  0  0  0
   38.0590   25.0450   41.8540 C   0  0  0  0  0  0  0  0  0  0  0  0
   39.2730   25.2260   42.0560 O   0  0  0  0  0  0  0  0  0  0  0  0
   37.4420   24.0950   40.9810 C   0  0  0  0  0  0  0  0  0  0  0  0
   38.2080   22.9970   40.6990 C   0  0  0  0  0  0  0  0  0  0  0  0
   37.6710   22.0250   39.8500 C   0  0  0  0  0  0  0  0  0  0  0  0
   36.4240   22.2200   39.3530 N   0  0  0  0  0  0  0  0  0  0  0  0
   35.7130   23.3080   39.6580 C   0  0  0  0  0  0  0  0  0  0  0  0
   36.2340   24.2300   40.4670 N   0  0  0  0  0  0  0  0  0  0  0  0
   39.2060   22.7420   41.0370 H   0  0  0  0  0  0  0  0  0  0  0  0
   38.1890   21.1350   39.5710 H   0  0  0  0  0  0  0  0  0  0  0  0
   34.7130   23.5270   39.2970 H   0  0  0  0  0  0  0  0  0  0  0  0
  1 24  1  0  0  0  0
  1  2  2  0  0  0  0
  2  6  1  0  0  0  0
  3  7  1  0  0  0  0
  3  2  1  0  0  0  0
  4  3  2  0  0  0  0
  5  4  1  0  0  0  0
  5  1  1  0  0  0  0
  8 11  1  1  0  0  0
  8  4  1  0  0  0  0
  9 10  1  0  0  0  0
  9  8  1  0  0  0  0
 10 14  1  6  0  0  0
 10  8  1  0  0  0  0
 12  9  1  0  0  0  0
 13  9  1  0  0  0  0
 15 20  1  1  0  0  0
 15 19  1  0  0  0  0
 15 16  1  0  0  0  0
 16 10  1  0  0  0  0
 16 17  1  1  0  0  0
 18 17  1  0  0  0  0
 19 22  1  6  0  0  0
 19 18  1  0  0  0  0
 21 20  1  0  0  0  0
 23 22  1  0  0  0  0
 25 26  2  0  0  0  0
 25 24  1  0  0  0  0
 27 25  1  0  0  0  0
 28 27  1  0  0  0  0
 28 33  1  0  0  0  0
 29 28  2  0  0  0  0
 30 31  2  0  0  0  0
 30 29  1  0  0  0  0
 31 32  1  0  0  0  0
 32 27  2  0  0  0  0
 34 29  1  0  0  0  0
 35 31  1  0  0  0  0
M  END
>  <minimizedAffinity>
-5.88019419

$$$$

 OpenBabel03242518373D

 35 38  0  0  1  0  0  0  0  0999 V2000
   36.5130   28.7100   41.8090 C   0  0  0  0  0  0  0  0  0  0  0  0
   35.5080   28.8790   40.8690 C   0  0  0  0  0  0  0  0  0  0  0  0
   35.7510   30.0370   40.1490 C   0  0  0  0  0  0  0  0  0  0  0  0
   36.9110   30.5270   40.6940 C   0  0  0  0  0  0  0  0  0  0  0  0
   37.3420   29.7430   41.6610 O   0  0  0  0  0  0  0  0  0  0  0  0
   34.6870   28.1560   40.7800 H   0  0  0  0  0  0  0  0  0  0  0  0
   35.1160   30.4070   39.3470 H   0  0  0  0  0  0  0  0  0  0  0  0
   37.5840   31.7570   40.2570 C   0  0  2  0  0  0  0  0  0  0  0  0
   37.1960   32.3890   38.9800 C   0  0  0  0  0  0  0  0  0  0  0  0
   38.4540   31.5750   38.9930 C   0  0  1  0  0  0  0  0  0  0  0  0
   38.0740   32.3450   41.0640 H   0  0  0  0  0  0  0  0  0  0  0  0
   36.3600   31.9010   38.4320 H   0  0  0  0  0  0  0  0  0  0  0  0
   37.2520   33.4950   38.9130 H   0  0  0  0  0  0  0  0  0  0  0  0
   38.4840   30.5830   38.5230 H   0  0  0  0  0  0  0  0  0  0  0  0
   40.3520   32.2440   37.5570 C   0  0  1  0  0  3  0  0  0  0  0  0
   39.7180   32.4050   38.9110 C   0  0  2  0  0  3  0  0  0  0  0  0
   40.7170   31.9020   39.7410 O   0  0  0  0  0  0  0  0  0  0  0  0
   41.1900   30.7550   39.1490 C   0  0  0  0  0  2  0  0  0  0  0  0
   41.0020   30.8890   37.6570 C   0  0  2  0  0  3  0  0  0  0  0  0
   39.4410   32.3560   36.5180 O   0  0  0  0  0  0  0  0  0  0  0  0
   39.6490   33.1550   35.9420 H   0  0  0  0  0  0  0  0  0  0  0  0
   42.2220   30.8660   36.9780 O   0  0  0  0  0  0  0  0  0  0  0  0
   42.1280   31.5350   36.2410 H   0  0  0  0  0  0  0  0  0  0  0  0
   36.7370   27.7100   42.7770 O   0  0  0  0  0  0  0  0  0  0  0  0
   37.5400   26.5940   42.4420 C   0  0  0  0  0  0  0  0  0  0  0  0
   36.9380   25.5290   42.2150 O   0  0  0  0  0  0  0  0  0  0  0  0
   38.9500   26.8360   42.4070 C   0  0  0  0  0  0  0  0  0  0  0  0
   39.5440   26.9340   43.6350 C   0  0  0  0  0  0  0  0  0  0  0  0
   40.9200   27.1700   43.6790 C   0  0  0  0  0  0  0  0  0  0  0  0
   41.5930   27.2880   42.5070 N   0  0  0  0  0  0  0  0  0  0  0  0
   40.9690   27.1840   41.3310 C   0  0  0  0  0  0  0  0  0  0  0  0
   39.6560   26.9600   41.2990 N   0  0  0  0  0  0  0  0  0  0  0  0
   39.1070   26.8560   44.6250 H   0  0  0  0  0  0  0  0  0  0  0  0
   41.4730   27.2620   44.5870 H   0  0  0  0  0  0  0  0  0  0  0  0
   41.4440   27.2680   40.3580 H   0  0  0  0  0  0  0  0  0  0  0  0
  1 24  1  0  0  0  0
  2  1  2  0  0  0  0
  3  4  2  0  0  0  0
  3  2  1  0  0  0  0
  4  5  1  0  0  0  0
  5  1  1  0  0  0  0
  6  2  1  0  0  0  0
  7  3  1  0  0  0  0
  8  4  1  0  0  0  0
  8 11  1  1  0  0  0
  9 10  1  0  0  0  0
  9  8  1  0  0  0  0
 10 14  1  6  0  0  0
 10  8  1  0  0  0  0
 12  9  1  0  0  0  0
 13  9  1  0  0  0  0
 15 20  1  6  0  0  0
 15 19  1  0  0  0  0
 15 16  1  0  0  0  0
 16 10  1  0  0  0  0
 16 17  1  1  0  0  0
 18 17  1  0  0  0  0
 19 22  1  6  0  0  0
 19 18  1  0  0  0  0
 21 20  1  0  0  0  0
 23 22  1  0  0  0  0
 25 24  1  0  0  0  0
 26 25  2  0  0  0  0
 27 25  1  0  0  0  0
 27 28  1  0  0  0  0
 28 29  2  0  0  0  0
 28 33  1  0  0  0  0
 29 34  1  0  0  0  0
 30 29  1  0  0  0  0
 31 30  2  0  0  0  0
 32 31  1  0  0  0  0
 32 27  2  0  0  0  0
 35 31  1  0  0  0  0
M  END
>  <minimizedAffinity>
-5.78700256

$$$$

 OpenBabel03242518373D

 35 38  0  0  1  0  0  0  0  0999 V2000
   37.9570   29.3950   42.2360 C   0  0  0  0  0  0  0  0  0  0  0  0
   39.1230   29.5340   42.9710 C   0  0  0  0  0  0  0  0  0  0  0  0
   39.7970   30.6660   42.5430 C   0  0  0  0  0  0  0  0  0  0  0  0
   38.9970   31.1700   41.5490 C   0  0  0  0  0  0  0  0  0  0  0  0
   37.9280   30.4180   41.3820 O   0  0  0  0  0  0  0  0  0  0  0  0
   39.3900   28.8110   43.7540 H   0  0  0  0  0  0  0  0  0  0  0  0
   40.7440   31.0090   42.9530 H   0  0  0  0  0  0  0  0  0  0  0  0
   39.2880   32.3870   40.7790 C   0  0  2  0  0  0  0  0  0  0  0  0
   38.4810   32.7070   39.5860 C   0  0  0  0  0  0  0  0  0  0  0  0
   39.8360   32.1100   39.3620 C   0  0  1  0  0  0  0  0  0  0  0  0
   39.8380   33.1800   41.3320 H   0  0  0  0  0  0  0  0  0  0  0  0
   37.6460   32.0070   39.3620 H   0  0  0  0  0  0  0  0  0  0  0  0
   38.3020   33.7780   39.3560 H   0  0  0  0  0  0  0  0  0  0  0  0
   39.9420   31.0660   39.0410 H   0  0  0  0  0  0  0  0  0  0  0  0
   41.1710   32.7690   37.3880 C   0  0  1  0  0  3  0  0  0  0  0  0
   40.8540   33.0930   38.8220 C   0  0  2  0  0  3  0  0  0  0  0  0
   42.1000   32.9230   39.4210 O   0  0  0  0  0  0  0  0  0  0  0  0
   42.6390   31.7700   38.9050 C   0  0  0  0  0  2  0  0  0  0  0  0
   42.0840   31.5770   37.5140 C   0  0  2  0  0  3  0  0  0  0  0  0
   40.0380   32.5330   36.6250 O   0  0  0  0  0  0  0  0  0  0  0  0
   39.9410   33.2260   35.9010 H   0  0  0  0  0  0  0  0  0  0  0  0
   43.0890   31.6100   36.5460 O   0  0  0  0  0  0  0  0  0  0  0  0
   42.6930   32.0990   35.7680 H   0  0  0  0  0  0  0  0  0  0  0  0
   36.9300   28.4300   42.2750 O   0  0  0  0  0  0  0  0  0  0  0  0
   36.7430   27.5760   41.1620 C   0  0  0  0  0  0  0  0  0  0  0  0
   35.9370   27.9640   40.2970 O   0  0  0  0  0  0  0  0  0  0  0  0
   37.5110   26.3700   41.1730 C   0  0  0  0  0  0  0  0  0  0  0  0
   37.1230   25.4530   42.1120 C   0  0  0  0  0  0  0  0  0  0  0  0
   37.8280   24.2490   42.1830 C   0  0  0  0  0  0  0  0  0  0  0  0
   38.8570   24.0520   41.3200 N   0  0  0  0  0  0  0  0  0  0  0  0
   39.1990   24.9760   40.4190 C   0  0  0  0  0  0  0  0  0  0  0  0
   38.5210   26.1220   40.3600 N   0  0  0  0  0  0  0  0  0  0  0  0
   36.3240   25.5060   42.8440 H   0  0  0  0  0  0  0  0  0  0  0  0
   37.6010   23.4740   42.8790 H   0  0  0  0  0  0  0  0  0  0  0  0
   40.0080   24.8850   39.7010 H   0  0  0  0  0  0  0  0  0  0  0  0
  1 24  1  0  0  0  0
  1  2  2  0  0  0  0
  2  6  1  0  0  0  0
  3  7  1  0  0  0  0
  3  2  1  0  0  0  0
  4  3  2  0  0  0  0
  5  4  1  0  0  0  0
  5  1  1  0  0  0  0
  8 11  1  1  0  0  0
  8  4  1  0  0  0  0
  9  8  1  0  0  0  0
 10 14  1  6  0  0  0
 10  9  1  0  0  0  0
 10  8  1  0  0  0  0
 12  9  1  0  0  0  0
 13  9  1  0  0  0  0
 15 20  1  6  0  0  0
 15 19  1  0  0  0  0
 15 16  1  0  0  0  0
 16 10  1  0  0  0  0
 16 17  1  1  0  0  0
 18 17  1  0  0  0  0
 19 22  1  6  0  0  0
 19 18  1  0  0  0  0
 21 20  1  0  0  0  0
 23 22  1  0  0  0  0
 25 27  1  0  0  0  0
 25 24  1  0  0  0  0
 26 25  2  0  0  0  0
 27 28  1  0  0  0  0
 28 29  2  0  0  0  0
 28 33  1  0  0  0  0
 29 34  1  0  0  0  0
 30 29  1  0  0  0  0
 31 30  2  0  0  0  0
 32 31  1  0  0  0  0
 32 27  2  0  0  0  0
 35 31  1  0  0  0  0
M  END
>  <minimizedAffinity>
-5.59513474

$$$$

 OpenBabel03242518373D

 35 38  0  0  1  0  0  0  0  0999 V2000
   36.6080   30.7240   40.8500 C   0  0  0  0  0  0  0  0  0  0  0  0
   35.7060   29.9110   40.1830 C   0  0  0  0  0  0  0  0  0  0  0  0
   35.7070   28.6560   40.7690 C   0  0  0  0  0  0  0  0  0  0  0  0
   36.6260   28.7650   41.7810 C   0  0  0  0  0  0  0  0  0  0  0  0
   37.1430   29.9770   41.8150 O   0  0  0  0  0  0  0  0  0  0  0  0
   35.1220   30.2890   39.3330 H   0  0  0  0  0  0  0  0  0  0  0  0
   35.0880   27.8240   40.4400 H   0  0  0  0  0  0  0  0  0  0  0  0
   36.9830   27.6810   42.7050 C   0  0  2  0  0  0  0  0  0  0  0  0
   38.3320   27.6430   43.3030 C   0  0  0  0  0  0  0  0  0  0  0  0
   38.0600   26.7210   42.1530 C   0  0  1  0  0  0  0  0  0  0  0  0
   36.1240   27.1680   43.1910 H   0  0  0  0  0  0  0  0  0  0  0  0
   39.0030   28.4910   43.0400 H   0  0  0  0  0  0  0  0  0  0  0  0
   38.4310   27.2350   44.3290 H   0  0  0  0  0  0  0  0  0  0  0  0
   38.4780   26.9270   41.1590 H   0  0  0  0  0  0  0  0  0  0  0  0
   39.0250   24.4610   41.8850 C   0  0  1  0  0  3  0  0  0  0  0  0
   37.9440   25.2650   42.5540 C   0  0  2  0  0  3  0  0  0  0  0  0
   36.7990   24.6760   42.0240 O   0  0  0  0  0  0  0  0  0  0  0  0
   37.0250   24.4990   40.6800 C   0  0  0  0  0  2  0  0  0  0  0  0
   38.5110   24.3270   40.4750 C   0  0  2  0  0  3  0  0  0  0  0  0
   40.2740   25.0550   41.9760 O   0  0  0  0  0  0  0  0  0  0  0  0
   40.9060   24.4840   42.5130 H   0  0  0  0  0  0  0  0  0  0  0  0
   38.8190   23.0730   39.9450 O   0  0  0  0  0  0  0  0  0  0  0  0
   39.6620   22.7900   40.4040 H   0  0  0  0  0  0  0  0  0  0  0  0
   36.9820   32.0700   40.6590 O   0  0  0  0  0  0  0  0  0  0  0  0
   37.8600   32.3980   39.5990 C   0  0  0  0  0  0  0  0  0  0  0  0
   37.3660   32.4110   38.4570 O   0  0  0  0  0  0  0  0  0  0  0  0
   39.2110   32.6760   39.9790 C   0  0  0  0  0  0  0  0  0  0  0  0
   39.5530   34.0000   39.9450 C   0  0  0  0  0  0  0  0  0  0  0  0
   40.8580   34.3480   40.3030 C   0  0  0  0  0  0  0  0  0  0  0  0
   41.7130   33.3590   40.6650 N   0  0  0  0  0  0  0  0  0  0  0  0
   41.3330   32.0790   40.6840 C   0  0  0  0  0  0  0  0  0  0  0  0
   40.0860   31.7570   40.3400 N   0  0  0  0  0  0  0  0  0  0  0  0
   38.9560   34.8640   39.6750 H   0  0  0  0  0  0  0  0  0  0  0  0
   41.2200   35.3510   40.3080 H   0  0  0  0  0  0  0  0  0  0  0  0
   41.9630   31.2400   40.9620 H   0  0  0  0  0  0  0  0  0  0  0  0
  1  5  1  0  0  0  0
  2  3  1  0  0  0  0
  2  1  2  0  0  0  0
  3  4  2  0  0  0  0
  4  5  1  0  0  0  0
  4  8  1  0  0  0  0
  6  2  1  0  0  0  0
  7  3  1  0  0  0  0
  8 11  1  1  0  0  0
  8  9  1  0  0  0  0
  9 13  1  0  0  0  0
 10 14  1  6  0  0  0
 10 16  1  0  0  0  0
 10  8  1  0  0  0  0
 10  9  1  0  0  0  0
 12  9  1  0  0  0  0
 15 20  1  6  0  0  0
 15 16  1  0  0  0  0
 16 17  1  6  0  0  0
 18 17  1  0  0  0  0
 19 22  1  1  0  0  0
 19 18  1  0  0  0  0
 19 15  1  0  0  0  0
 20 21  1  0  0  0  0
 22 23  1  0  0  0  0
 24  1  1  0  0  0  0
 25 27  1  0  0  0  0
 25 24  1  0  0  0  0
 26 25  2  0  0  0  0
 27 32  1  0  0  0  0
 28 27  2  0  0  0  0
 28 29  1  0  0  0  0
 29 34  1  0  0  0  0
 29 30  2  0  0  0  0
 30 31  1  0  0  0  0
 31 35  1  0  0  0  0
 32 31  2  0  0  0  0
 33 28  1  0  0  0  0
M  END
>  <minimizedAffinity>
-5.59504843

$$$$

 OpenBabel03242518373D

 35 38  0  0  1  0  0  0  0  0999 V2000
   36.4800   28.4660   40.9010 C   0  0  0  0  0  0  0  0  0  0  0  0
   35.7930   28.3490   39.7030 C   0  0  0  0  0  0  0  0  0  0  0  0
   35.9060   29.5360   38.9980 C   0  0  0  0  0  0  0  0  0  0  0  0
   36.6680   30.3330   39.8140 C   0  0  0  0  0  0  0  0  0  0  0  0
   36.9940   29.6950   40.9200 O   0  0  0  0  0  0  0  0  0  0  0  0
   35.2700   27.4200   39.4370 H   0  0  0  0  0  0  0  0  0  0  0  0
   35.4610   29.7160   38.0220 H   0  0  0  0  0  0  0  0  0  0  0  0
   37.0710   31.7090   39.4970 C   0  0  2  0  0  0  0  0  0  0  0  0
   37.3510   32.0850   38.0970 C   0  0  0  0  0  0  0  0  0  0  0  0
   38.5260   31.8310   38.9920 C   0  0  1  0  0  0  0  0  0  0  0  0
   36.7870   32.4750   40.2530 H   0  0  0  0  0  0  0  0  0  0  0  0
   37.1920   31.2860   37.3400 H   0  0  0  0  0  0  0  0  0  0  0  0
   37.1080   33.1200   37.7820 H   0  0  0  0  0  0  0  0  0  0  0  0
   39.1190   30.9130   38.8910 H   0  0  0  0  0  0  0  0  0  0  0  0
   40.5980   33.1390   38.6610 C   0  0  1  0  0  3  0  0  0  0  0  0
   39.2780   33.0870   39.3810 C   0  0  2  0  0  3  0  0  0  0  0  0
   39.6950   33.0450   40.7100 O   0  0  0  0  0  0  0  0  0  0  0  0
   40.7390   32.1550   40.7740 C   0  0  0  0  0  2  0  0  0  0  0  0
   41.4330   32.1510   39.4330 C   0  0  2  0  0  3  0  0  0  0  0  0
   40.4870   32.8490   37.3100 O   0  0  0  0  0  0  0  0  0  0  0  0
   40.7430   33.6440   36.7490 H   0  0  0  0  0  0  0  0  0  0  0  0
   42.7570   32.5840   39.5340 O   0  0  0  0  0  0  0  0  0  0  0  0
   42.9190   33.1370   38.7160 H   0  0  0  0  0  0  0  0  0  0  0  0
   36.6760   27.5610   41.9650 O   0  0  0  0  0  0  0  0  0  0  0  0
   37.8010   27.7220   42.8080 C   0  0  0  0  0  0  0  0  0  0  0  0
   37.7180   28.6120   43.6750 O   0  0  0  0  0  0  0  0  0  0  0  0
   38.8940   26.8360   42.5570 C   0  0  0  0  0  0  0  0  0  0  0  0
   39.4580   26.2910   43.6780 C   0  0  0  0  0  0  0  0  0  0  0  0
   40.5340   25.4150   43.5110 C   0  0  0  0  0  0  0  0  0  0  0  0
   40.9600   25.1500   42.2500 N   0  0  0  0  0  0  0  0  0  0  0  0
   40.3770   25.7050   41.1850 C   0  0  0  0  0  0  0  0  0  0  0  0
   39.3520   26.5410   41.3550 N   0  0  0  0  0  0  0  0  0  0  0  0
   39.2010   26.4320   44.7220 H   0  0  0  0  0  0  0  0  0  0  0  0
   41.0390   24.9410   44.3210 H   0  0  0  0  0  0  0  0  0  0  0  0
   40.6650   25.5380   40.1520 H   0  0  0  0  0  0  0  0  0  0  0  0
  1  5  1  0  0  0  0
  1 24  1  0  0  0  0
  2  1  2  0  0  0  0
  3  2  1  0  0  0  0
  3  4  2  0  0  0  0
  4  5  1  0  0  0  0
  6  2  1  0  0  0  0
  7  3  1  0  0  0  0
  8  4  1  0  0  0  0
  8 11  1  1  0  0  0
  9 10  1  0  0  0  0
  9  8  1  0  0  0  0
 10 14  1  6  0  0  0
 10 16  1  0  0  0  0
 10  8  1  0  0  0  0
 12  9  1  0  0  0  0
 13  9  1  0  0  0  0
 15 20  1  6  0  0  0
 15 16  1  0  0  0  0
 15 19  1  0  0  0  0
 16 17  1  1  0  0  0
 17 18  1  0  0  0  0
 19 22  1  1  0  0  0
 19 18  1  0  0  0  0
 21 20  1  0  0  0  0
 23 22  1  0  0  0  0
 24 25  1  0  0  0  0
 25 26  2  0  0  0  0
 27 25  1  0  0  0  0
 27 28  1  0  0  0  0
 28 33  1  0  0  0  0
 29 28  2  0  0  0  0
 29 34  1  0  0  0  0
 30 29  1  0  0  0  0
 31 32  1  0  0  0  0
 31 30  2  0  0  0  0
 32 27  2  0  0  0  0
 35 31  1  0  0  0  0
M  END
>  <minimizedAffinity>
-5.38400793

$$$$

 OpenBabel03242518373D

 35 38  0  0  1  0  0  0  0  0999 V2000
   37.6990   29.5160   42.0710 C   0  0  0  0  0  0  0  0  0  0  0  0
   38.7570   29.5220   42.9670 C   0  0  0  0  0  0  0  0  0  0  0  0
   39.6070   30.5710   42.6590 C   0  0  0  0  0  0  0  0  0  0  0  0
   39.0170   31.1650   41.5710 C   0  0  0  0  0  0  0  0  0  0  0  0
   37.9070   30.5370   41.2410 O   0  0  0  0  0  0  0  0  0  0  0  0
   38.8280   28.7720   43.7660 H   0  0  0  0  0  0  0  0  0  0  0  0
   40.5170   30.8060   43.2050 H   0  0  0  0  0  0  0  0  0  0  0  0
   39.5480   32.3430   40.8730 C   0  0  2  0  0  0  0  0  0  0  0  0
   38.7170   33.0330   39.8670 C   0  0  0  0  0  0  0  0  0  0  0  0
   39.7890   32.1160   39.3640 C   0  0  1  0  0  0  0  0  0  0  0  0
   40.3800   32.8690   41.3910 H   0  0  0  0  0  0  0  0  0  0  0  0
   37.6890   32.6300   39.7280 H   0  0  0  0  0  0  0  0  0  0  0  0
   38.8350   34.1310   39.7660 H   0  0  0  0  0  0  0  0  0  0  0  0
   39.5340   31.1360   38.9390 H   0  0  0  0  0  0  0  0  0  0  0  0
   41.1100   32.4480   37.3010 C   0  0  1  0  0  3  0  0  0  0  0  0
   40.9690   32.8370   38.7470 C   0  0  2  0  0  3  0  0  0  0  0  0
   42.1780   32.3850   39.2700 O   0  0  0  0  0  0  0  0  0  0  0  0
   42.4040   31.1380   38.7390 C   0  0  0  0  0  2  0  0  0  0  0  0
   41.7310   31.0780   37.3880 C   0  0  2  0  0  3  0  0  0  0  0  0
   39.9070   32.4790   36.6140 O   0  0  0  0  0  0  0  0  0  0  0  0
   39.9260   33.1750   35.8860 H   0  0  0  0  0  0  0  0  0  0  0  0
   42.6530   30.8780   36.3590 O   0  0  0  0  0  0  0  0  0  0  0  0
   42.3310   31.4440   35.6000 H   0  0  0  0  0  0  0  0  0  0  0  0
   36.5770   28.6730   41.9470 O   0  0  0  0  0  0  0  0  0  0  0  0
   36.6180   27.6020   41.0220 C   0  0  0  0  0  0  0  0  0  0  0  0
   36.9130   26.4850   41.4850 O   0  0  0  0  0  0  0  0  0  0  0  0
   36.3110   27.9430   39.6680 C   0  0  0  0  0  0  0  0  0  0  0  0
   35.1780   28.6930   39.5100 C   0  0  0  0  0  0  0  0  0  0  0  0
   34.8140   29.0630   38.2120 C   0  0  0  0  0  0  0  0  0  0  0  0
   35.6010   28.6620   37.1820 N   0  0  0  0  0  0  0  0  0  0  0  0
   36.6990   27.9310   37.3860 C   0  0  0  0  0  0  0  0  0  0  0  0
   37.0370   27.5810   38.6270 N   0  0  0  0  0  0  0  0  0  0  0  0
   34.4830   29.0640   40.2540 H   0  0  0  0  0  0  0  0  0  0  0  0
   33.9500   29.6460   37.9870 H   0  0  0  0  0  0  0  0  0  0  0  0
   37.3720   27.5770   36.6110 H   0  0  0  0  0  0  0  0  0  0  0  0
  1  2  2  0  0  0  0
  2  6  1  0  0  0  0
  3  2  1  0  0  0  0
  3  7  1  0  0  0  0
  4  3  2  0  0  0  0
  5  4  1  0  0  0  0
  5  1  1  0  0  0  0
  8 11  1  1  0  0  0
  8  4  1  0  0  0  0
  9  8  1  0  0  0  0
 10 14  1  6  0  0  0
 10  9  1  0  0  0  0
 10  8  1  0  0  0  0
 12  9  1  0  0  0  0
 13  9  1  0  0  0  0
 15 20  1  1  0  0  0
 15 19  1  0  0  0  0
 15 16  1  0  0  0  0
 16 17  1  1  0  0  0
 16 10  1  0  0  0  0
 18 17  1  0  0  0  0
 19 22  1  6  0  0  0
 19 18  1  0  0  0  0
 21 20  1  0  0  0  0
 23 22  1  0  0  0  0
 24  1  1  0  0  0  0
 25 26  2  0  0  0  0
 25 24  1  0  0  0  0
 27 25  1  0  0  0  0
 28 27  1  0  0  0  0
 28 33  1  0  0  0  0
 29 28  2  0  0  0  0
 30 31  2  0  0  0  0
 30 29  1  0  0  0  0
 31 32  1  0  0  0  0
 32 27  2  0  0  0  0
 34 29  1  0  0  0  0
 35 31  1  0  0  0  0
M  END
>  <minimizedAffinity>
-5.31114244

$$$$

 OpenBabel03242518373D

 35 38  0  0  1  0  0  0  0  0999 V2000
   37.8250   30.5350   40.1830 C   0  0  0  0  0  0  0  0  0  0  0  0
   37.0770   31.6620   39.8810 C   0  0  0  0  0  0  0  0  0  0  0  0
   37.9130   32.7660   39.8550 C   0  0  0  0  0  0  0  0  0  0  0  0
   39.1500   32.2500   40.1490 C   0  0  0  0  0  0  0  0  0  0  0  0
   39.0820   30.9480   40.3380 O   0  0  0  0  0  0  0  0  0  0  0  0
   35.9960   31.5950   39.7040 H   0  0  0  0  0  0  0  0  0  0  0  0
   37.5850   33.7810   39.6420 H   0  0  0  0  0  0  0  0  0  0  0  0
   40.3850   33.0410   40.2350 C   0  0  2  0  0  0  0  0  0  0  0  0
   40.4660   34.3490   39.5540 C   0  0  0  0  0  0  0  0  0  0  0  0
   41.1300   33.1820   38.8890 C   0  0  1  0  0  0  0  0  0  0  0  0
   41.0460   32.7990   41.0960 H   0  0  0  0  0  0  0  0  0  0  0  0
   39.5400   34.6840   39.0380 H   0  0  0  0  0  0  0  0  0  0  0  0
   41.0820   35.1400   40.0280 H   0  0  0  0  0  0  0  0  0  0  0  0
   40.6860   32.7180   37.9990 H   0  0  0  0  0  0  0  0  0  0  0  0
   43.2080   33.3720   37.5620 C   0  0  1  0  0  3  0  0  0  0  0  0
   42.6430   33.2260   38.9490 C   0  0  2  0  0  3  0  0  0  0  0  0
   43.1770   31.9980   39.3330 O   0  0  0  0  0  0  0  0  0  0  0  0
   43.0420   31.1490   38.2620 C   0  0  0  0  0  2  0  0  0  0  0  0
   43.0650   31.9810   37.0010 C   0  0  2  0  0  3  0  0  0  0  0  0
   42.5660   34.3480   36.8180 O   0  0  0  0  0  0  0  0  0  0  0  0
   43.1960   35.0990   36.5890 H   0  0  0  0  0  0  0  0  0  0  0  0
   44.1500   31.6540   36.1860 O   0  0  0  0  0  0  0  0  0  0  0  0
   44.4690   32.5240   35.8070 H   0  0  0  0  0  0  0  0  0  0  0  0
   37.4650   29.1790   40.3280 O   0  0  0  0  0  0  0  0  0  0  0  0
   37.5570   28.5740   41.6040 C   0  0  0  0  0  0  0  0  0  0  0  0
   36.8810   29.0940   42.5110 O   0  0  0  0  0  0  0  0  0  0  0  0
   38.4180   27.4350   41.6880 C   0  0  0  0  0  0  0  0  0  0  0  0
   38.9660   27.0440   40.4970 C   0  0  0  0  0  0  0  0  0  0  0  0
   39.8180   25.9370   40.5010 C   0  0  0  0  0  0  0  0  0  0  0  0
   40.0580   25.3110   41.6800 N   0  0  0  0  0  0  0  0  0  0  0  0
   39.4990   25.7290   42.8190 C   0  0  0  0  0  0  0  0  0  0  0  0
   38.6870   26.7860   42.8050 N   0  0  0  0  0  0  0  0  0  0  0  0
   38.8450   27.4670   39.5060 H   0  0  0  0  0  0  0  0  0  0  0  0
   40.2940   25.5570   39.6250 H   0  0  0  0  0  0  0  0  0  0  0  0
   39.6460   25.2770   43.7940 H   0  0  0  0  0  0  0  0  0  0  0  0
  1 24  1  0  0  0  0
  1  5  1  0  0  0  0
  2  1  2  0  0  0  0
  3  2  1  0  0  0  0
  3  4  2  0  0  0  0
  4  8  1  0  0  0  0
  4  5  1  0  0  0  0
  6  2  1  0  0  0  0
  7  3  1  0  0  0  0
  8 11  1  1  0  0  0
  9 13  1  0  0  0  0
  9  8  1  0  0  0  0
 10 14  1  6  0  0  0
 10 16  1  0  0  0  0
 10  9  1  0  0  0  0
 10  8  1  0  0  0  0
 12  9  1  0  0  0  0
 15 20  1  6  0  0  0
 15 16  1  0  0  0  0
 16 17  1  6  0  0  0
 18 17  1  0  0  0  0
 19 22  1  6  0  0  0
 19 15  1  0  0  0  0
 19 18  1  0  0  0  0
 21 20  1  0  0  0  0
 23 22  1  0  0  0  0
 24 25  1  0  0  0  0
 25 27  1  0  0  0  0
 25 26  2  0  0  0  0
 27 32  1  0  0  0  0
 28 29  1  0  0  0  0
 28 27  2  0  0  0  0
 29 30  2  0  0  0  0
 30 31  1  0  0  0  0
 31 35  1  0  0  0  0
 32 31  2  0  0  0  0
 33 28  1  0  0  0  0
 34 29  1  0  0  0  0
M  END
>  <minimizedAffinity>
-5.25329304

$$$$
