
 OpenBabel03252509203D

 25 27  0  0  1  0  0  0  0  0999 V2000
   45.6140   34.3870   44.8850 C   0  0  0  0  0  0  0  0  0  0  0  0
   46.4260   34.3410   43.7100 C   0  0  0  0  0  0  0  0  0  0  0  0
   47.3060   33.2800   43.6640 C   0  0  0  0  0  0  0  0  0  0  0  0
   47.3520   32.3630   44.7000 N   0  0  0  0  0  0  0  0  0  0  0  0
   46.5750   32.4370   45.7850 C   0  0  0  0  0  0  0  0  0  0  0  0
   45.6920   33.4680   45.8750 N   0  0  0  0  0  0  0  0  0  0  0  0
   44.8660   35.0630   45.2020 H   0  0  0  0  0  0  0  0  0  0  0  0
   46.7720   31.6240   46.4640 H   0  0  0  0  0  0  0  0  0  0  0  0
   48.1390   33.0970   42.4270 C   0  0  0  0  0  0  0  0  0  0  0  0
   49.5090   33.7920   42.5880 C   0  0  0  0  0  0  0  0  0  0  0  0
   49.3050   32.2520   42.5190 C   0  0  0  0  0  0  0  0  0  0  0  0
   47.7100   33.4130   41.4420 H   0  0  0  0  0  0  0  0  0  0  0  0
   49.9610   34.1950   41.6670 H   0  0  0  0  0  0  0  0  0  0  0  0
   49.7600   34.2180   43.5520 H   0  0  0  0  0  0  0  0  0  0  0  0
   49.7030   31.7380   41.5970 H   0  0  0  0  0  0  0  0  0  0  0  0
   49.5510   31.7150   43.4690 H   0  0  0  0  0  0  0  0  0  0  0  0
   44.8620   36.1620   42.9550 C   0  0  1  0  0  3  0  0  0  0  0  0
   46.1510   35.3980   42.7810 C   0  0  2  0  0  3  0  0  0  0  0  0
   45.7840   34.8080   41.5340 O   0  0  0  0  0  0  0  0  0  0  0  0
   44.5200   34.2470   41.7290 C   0  0  0  0  0  2  0  0  0  0  0  0
   43.8630   35.0690   42.8500 C   0  0  2  0  0  3  0  0  0  0  0  0
   44.7860   37.0370   43.9610 O   0  0  0  0  0  0  0  0  0  0  0  0
   45.6520   37.4090   44.1960 H   0  0  0  0  0  0  0  0  0  0  0  0
   42.6080   35.5520   42.4290 O   0  0  0  0  0  0  0  0  0  0  0  0
   41.9480   34.8950   42.7630 H   0  0  0  0  0  0  0  0  0  0  0  0
  1  7  1  0  0  0  0
  1  6  1  0  0  0  0
  2  1  2  0  0  0  0
  3  2  1  0  0  0  0
  3  4  2  0  0  0  0
  4  5  1  0  0  0  0
  5  6  2  0  0  0  0
  5  8  1  0  0  0  0
  9 11  1  0  0  0  0
  9 10  1  0  0  0  0
  9  3  1  0  0  0  0
 10 14  1  0  0  0  0
 11 10  1  0  0  0  0
 11 16  1  0  0  0  0
 12  9  1  0  0  0  0
 13 10  1  0  0  0  0
 15 11  1  0  0  0  0
 17 22  1  1  0  0  0
 18 17  1  0  0  0  0
 18  2  1  1  0  0  0
 19 20  1  0  0  0  0
 19 18  1  0  0  0  0
 20 21  1  0  0  0  0
 21 24  1  6  0  0  0
 21 17  1  0  0  0  0
 22 23  1  0  0  0  0
 24 25  1  0  0  0  0
M  END
>  <minimizedAffinity>
-4.90454102

>  <minimizedRMSD>
2.06256318

$$$$
