
 OpenBabel03252505203D

 34 37  0  0  1  0  0  0  0  0999 V2000
   37.8140   30.4800   39.6480 C   0  0  0  0  0  0  0  0  0  0  0  0
   36.7920   31.3560   39.9510 C   0  0  0  0  0  0  0  0  0  0  0  0
   36.9920   32.7200   39.7990 C   0  0  0  0  0  0  0  0  0  0  0  0
   38.2270   33.1450   39.3430 C   0  0  0  0  0  0  0  0  0  0  0  0
   39.2170   32.2170   39.0550 C   0  0  0  0  0  0  0  0  0  0  0  0
   39.0230   30.8830   39.2030 N   0  0  0  0  0  0  0  0  0  0  0  0
   35.8200   31.0300   40.3080 H   0  0  0  0  0  0  0  0  0  0  0  0
   36.1850   33.4050   40.0380 H   0  0  0  0  0  0  0  0  0  0  0  0
   38.4000   34.1900   39.2200 H   0  0  0  0  0  0  0  0  0  0  0  0
   37.1580   26.9180   38.9580 C   0  0  0  0  0  0  0  0  0  0  0  0
   37.1090   26.3320   40.2440 C   0  0  0  0  0  0  0  0  0  0  0  0
   37.3100   27.1940   41.2980 C   0  0  0  0  0  0  0  0  0  0  0  0
   37.5410   28.5320   41.0900 N   0  0  0  0  0  0  0  0  0  0  0  0
   37.5770   29.0500   39.8190 C   0  0  0  0  0  0  0  0  0  0  0  0
   37.3850   28.2350   38.7700 N   0  0  0  0  0  0  0  0  0  0  0  0
   37.0010   26.2600   38.0930 H   0  0  0  0  0  0  0  0  0  0  0  0
   36.9250   25.2740   40.3720 H   0  0  0  0  0  0  0  0  0  0  0  0
   37.2480   26.6840   42.7070 C   0  0  0  0  0  0  0  0  0  0  0  0
   38.0180   27.5770   43.6800 C   0  0  0  0  0  0  0  0  0  0  0  0
   36.4650   27.4010   43.6790 C   0  0  0  0  0  0  0  0  0  0  0  0
   37.4480   25.5930   42.8160 H   0  0  0  0  0  0  0  0  0  0  0  0
   38.3530   28.5690   43.3150 H   0  0  0  0  0  0  0  0  0  0  0  0
   38.5740   27.0450   44.4470 H   0  0  0  0  0  0  0  0  0  0  0  0
   35.8760   28.3080   43.4160 H   0  0  0  0  0  0  0  0  0  0  0  0
   36.1010   26.8730   44.5790 H   0  0  0  0  0  0  0  0  0  0  0  0
   40.8930   32.2760   37.1950 C   0  0  1  0  0  3  0  0  0  0  0  0
   40.5180   32.7220   38.5720 C   0  0  2  0  0  3  0  0  0  0  0  0
   41.5970   32.2890   39.3320 O   0  0  0  0  0  0  0  0  0  0  0  0
   42.6900   32.7410   38.6290 C   0  0  0  0  0  2  0  0  0  0  0  0
   42.3600   32.7290   37.1610 C   0  0  2  0  0  3  0  0  0  0  0  0
   40.8410   30.9210   36.9800 O   0  0  0  0  0  0  0  0  0  0  0  0
   39.9950   30.5900   36.5910 H   0  0  0  0  0  0  0  0  0  0  0  0
   42.4570   34.0590   36.7090 O   0  0  0  0  0  0  0  0  0  0  0  0
   41.6630   34.5770   37.0000 H   0  0  0  0  0  0  0  0  0  0  0  0
  1 14  1  0  0  0  0
  1  2  1  0  0  0  0
  2  7  1  0  0  0  0
  3  2  2  0  0  0  0
  3  8  1  0  0  0  0
  4  3  1  0  0  0  0
  5  6  1  0  0  0  0
  5  4  2  0  0  0  0
  6  1  2  0  0  0  0
  9  4  1  0  0  0  0
 10 11  1  0  0  0  0
 11 17  1  0  0  0  0
 11 12  2  0  0  0  0
 12 18  1  0  0  0  0
 13 12  1  0  0  0  0
 14 13  2  0  0  0  0
 15 10  2  0  0  0  0
 15 14  1  0  0  0  0
 16 10  1  0  0  0  0
 18 21  1  0  0  0  0
 18 20  1  0  0  0  0
 18 19  1  0  0  0  0
 19 23  1  0  0  0  0
 20 19  1  0  0  0  0
 20 25  1  0  0  0  0
 22 19  1  0  0  0  0
 24 20  1  0  0  0  0
 26 31  1  1  0  0  0
 26 27  1  0  0  0  0
 27  5  1  1  0  0  0
 27 28  1  0  0  0  0
 29 28  1  0  0  0  0
 30 33  1  1  0  0  0
 30 26  1  0  0  0  0
 30 29  1  0  0  0  0
 32 31  1  0  0  0  0
 33 34  1  0  0  0  0
M  END
>  <minimizedAffinity>
-6.32475519

$$$$

 OpenBabel03252505203D

 34 37  0  0  1  0  0  0  0  0999 V2000
   38.3260   30.5080   40.6590 C   0  0  0  0  0  0  0  0  0  0  0  0
   37.1130   31.1490   40.5180 C   0  0  0  0  0  0  0  0  0  0  0  0
   37.0420   32.3250   39.7850 C   0  0  0  0  0  0  0  0  0  0  0  0
   38.2090   32.8060   39.2200 C   0  0  0  0  0  0  0  0  0  0  0  0
   39.4010   32.1170   39.3970 C   0  0  0  0  0  0  0  0  0  0  0  0
   39.4720   30.9670   40.1130 N   0  0  0  0  0  0  0  0  0  0  0  0
   36.1930   30.7770   40.9570 H   0  0  0  0  0  0  0  0  0  0  0  0
   36.0850   32.8250   39.6760 H   0  0  0  0  0  0  0  0  0  0  0  0
   38.1740   33.7080   38.6530 H   0  0  0  0  0  0  0  0  0  0  0  0
   39.0850   28.0360   43.2880 C   0  0  0  0  0  0  0  0  0  0  0  0
   38.4270   26.8650   42.8450 C   0  0  0  0  0  0  0  0  0  0  0  0
   37.7440   26.9800   41.6560 C   0  0  0  0  0  0  0  0  0  0  0  0
   37.7170   28.1650   40.9620 N   0  0  0  0  0  0  0  0  0  0  0  0
   38.3740   29.2730   41.4370 C   0  0  0  0  0  0  0  0  0  0  0  0
   39.0490   29.1930   42.5950 N   0  0  0  0  0  0  0  0  0  0  0  0
   39.6390   27.9800   44.2330 H   0  0  0  0  0  0  0  0  0  0  0  0
   38.4690   25.9470   43.4160 H   0  0  0  0  0  0  0  0  0  0  0  0
   37.0380   25.7900   41.0780 C   0  0  0  0  0  0  0  0  0  0  0  0
   37.9980   24.6420   40.7650 C   0  0  0  0  0  0  0  0  0  0  0  0
   36.8990   24.6000   41.8740 C   0  0  0  0  0  0  0  0  0  0  0  0
   36.3150   26.0290   40.2630 H   0  0  0  0  0  0  0  0  0  0  0  0
   39.0300   24.7100   41.1640 H   0  0  0  0  0  0  0  0  0  0  0  0
   37.7880   24.1080   39.8410 H   0  0  0  0  0  0  0  0  0  0  0  0
   37.2710   24.5380   42.9210 H   0  0  0  0  0  0  0  0  0  0  0  0
   36.0930   23.8810   41.6410 H   0  0  0  0  0  0  0  0  0  0  0  0
   40.8440   32.2580   37.3550 C   0  0  1  0  0  3  0  0  0  0  0  0
   40.6180   32.6720   38.7740 C   0  0  2  0  0  3  0  0  0  0  0  0
   41.7930   32.2650   39.3950 O   0  0  0  0  0  0  0  0  0  0  0  0
   42.7810   32.7640   38.5770 C   0  0  0  0  0  2  0  0  0  0  0  0
   42.2810   32.7610   37.1570 C   0  0  2  0  0  3  0  0  0  0  0  0
   40.8100   30.9060   37.1240 O   0  0  0  0  0  0  0  0  0  0  0  0
   39.9350   30.5520   36.8300 H   0  0  0  0  0  0  0  0  0  0  0  0
   42.2810   34.1000   36.7210 O   0  0  0  0  0  0  0  0  0  0  0  0
   41.5110   34.5870   37.1110 H   0  0  0  0  0  0  0  0  0  0  0  0
  1 14  1  0  0  0  0
  2  1  1  0  0  0  0
  2  7  1  0  0  0  0
  3  2  2  0  0  0  0
  4  5  2  0  0  0  0
  4  3  1  0  0  0  0
  5  6  1  0  0  0  0
  6  1  2  0  0  0  0
  8  3  1  0  0  0  0
  9  4  1  0  0  0  0
 10 16  1  0  0  0  0
 11 10  1  0  0  0  0
 11 17  1  0  0  0  0
 12 11  2  0  0  0  0
 13 14  2  0  0  0  0
 13 12  1  0  0  0  0
 14 15  1  0  0  0  0
 15 10  2  0  0  0  0
 18 12  1  0  0  0  0
 18 20  1  0  0  0  0
 19 18  1  0  0  0  0
 19 22  1  0  0  0  0
 19 20  1  0  0  0  0
 20 24  1  0  0  0  0
 21 18  1  0  0  0  0
 23 19  1  0  0  0  0
 25 20  1  0  0  0  0
 26 31  1  1  0  0  0
 26 27  1  0  0  0  0
 27 28  1  0  0  0  0
 27  5  1  1  0  0  0
 29 28  1  0  0  0  0
 30 33  1  1  0  0  0
 30 26  1  0  0  0  0
 30 29  1  0  0  0  0
 32 31  1  0  0  0  0
 33 34  1  0  0  0  0
M  END
>  <minimizedAffinity>
-6.08927917

$$$$

 OpenBabel03252505203D

 34 37  0  0  1  0  0  0  0  0999 V2000
   37.5640   28.6860   41.4680 C   0  0  0  0  0  0  0  0  0  0  0  0
   36.2080   28.5140   41.2830 C   0  0  0  0  0  0  0  0  0  0  0  0
   35.4700   29.5090   40.6580 C   0  0  0  0  0  0  0  0  0  0  0  0
   36.1400   30.6460   40.2430 C   0  0  0  0  0  0  0  0  0  0  0  0
   37.5070   30.7630   40.4560 C   0  0  0  0  0  0  0  0  0  0  0  0
   38.2290   29.7900   41.0670 N   0  0  0  0  0  0  0  0  0  0  0  0
   35.6760   27.6250   41.6060 H   0  0  0  0  0  0  0  0  0  0  0  0
   34.4040   29.3690   40.5150 H   0  0  0  0  0  0  0  0  0  0  0  0
   35.5900   31.4210   39.7610 H   0  0  0  0  0  0  0  0  0  0  0  0
   39.9030   26.8880   43.6800 C   0  0  0  0  0  0  0  0  0  0  0  0
   39.7230   25.5310   43.3230 C   0  0  0  0  0  0  0  0  0  0  0  0
   38.7970   25.2940   42.3340 C   0  0  0  0  0  0  0  0  0  0  0  0
   38.1030   26.3240   41.7460 N   0  0  0  0  0  0  0  0  0  0  0  0
   38.3160   27.6250   42.1300 C   0  0  0  0  0  0  0  0  0  0  0  0
   39.2150   27.8890   43.0920 N   0  0  0  0  0  0  0  0  0  0  0  0
   40.6350   27.1140   44.4650 H   0  0  0  0  0  0  0  0  0  0  0  0
   40.2870   24.7450   43.8060 H   0  0  0  0  0  0  0  0  0  0  0  0
   38.5500   23.8940   41.8560 C   0  0  0  0  0  0  0  0  0  0  0  0
   37.2570   23.7770   41.0500 C   0  0  0  0  0  0  0  0  0  0  0  0
   38.6900   23.5950   40.4550 C   0  0  0  0  0  0  0  0  0  0  0  0
   38.6890   23.1060   42.6320 H   0  0  0  0  0  0  0  0  0  0  0  0
   36.7590   24.7160   40.7330 H   0  0  0  0  0  0  0  0  0  0  0  0
   36.6810   22.8740   41.2360 H   0  0  0  0  0  0  0  0  0  0  0  0
   39.0050   24.3620   39.7120 H   0  0  0  0  0  0  0  0  0  0  0  0
   38.8850   22.5550   40.1380 H   0  0  0  0  0  0  0  0  0  0  0  0
   39.5330   32.2300   40.5740 C   0  0  1  0  0  3  0  0  0  0  0  0
   38.1740   31.9950   39.9940 C   0  0  2  0  0  3  0  0  0  0  0  0
   37.4950   33.1570   40.3420 O   0  0  0  0  0  0  0  0  0  0  0  0
   38.3530   34.1610   39.9550 C   0  0  0  0  0  2  0  0  0  0  0  0
   39.7690   33.6770   40.1170 C   0  0  2  0  0  3  0  0  0  0  0  0
   39.6050   32.1780   41.9430 O   0  0  0  0  0  0  0  0  0  0  0  0
   39.8660   31.3010   42.3170 H   0  0  0  0  0  0  0  0  0  0  0  0
   40.3580   33.7030   38.8380 O   0  0  0  0  0  0  0  0  0  0  0  0
   40.0370   32.9360   38.2990 H   0  0  0  0  0  0  0  0  0  0  0  0
  1 14  1  0  0  0  0
  2  1  1  0  0  0  0
  2  7  1  0  0  0  0
  3  2  2  0  0  0  0
  4  5  2  0  0  0  0
  4  3  1  0  0  0  0
  5  6  1  0  0  0  0
  6  1  2  0  0  0  0
  8  3  1  0  0  0  0
  9  4  1  0  0  0  0
 10 16  1  0  0  0  0
 11 10  1  0  0  0  0
 11 17  1  0  0  0  0
 12 11  2  0  0  0  0
 13 14  2  0  0  0  0
 13 12  1  0  0  0  0
 14 15  1  0  0  0  0
 15 10  2  0  0  0  0
 18 12  1  0  0  0  0
 18 21  1  0  0  0  0
 19 23  1  0  0  0  0
 19 18  1  0  0  0  0
 20 19  1  0  0  0  0
 20 18  1  0  0  0  0
 22 19  1  0  0  0  0
 24 20  1  0  0  0  0
 25 20  1  0  0  0  0
 26 31  1  1  0  0  0
 27 28  1  0  0  0  0
 27  5  1  1  0  0  0
 27 26  1  0  0  0  0
 29 30  1  0  0  0  0
 29 28  1  0  0  0  0
 30 33  1  6  0  0  0
 30 26  1  0  0  0  0
 31 32  1  0  0  0  0
 34 33  1  0  0  0  0
M  END
>  <minimizedAffinity>
-6.08806419

$$$$

 OpenBabel03252505203D

 34 37  0  0  1  0  0  0  0  0999 V2000
   38.1930   30.0590   39.6580 C   0  0  0  0  0  0  0  0  0  0  0  0
   37.1710   29.9170   38.7430 C   0  0  0  0  0  0  0  0  0  0  0  0
   37.1740   30.6860   37.5880 C   0  0  0  0  0  0  0  0  0  0  0  0
   38.2200   31.5730   37.4060 C   0  0  0  0  0  0  0  0  0  0  0  0
   39.2210   31.6720   38.3620 C   0  0  0  0  0  0  0  0  0  0  0  0
   39.2180   30.9210   39.4910 N   0  0  0  0  0  0  0  0  0  0  0  0
   36.3480   29.2230   38.8790 H   0  0  0  0  0  0  0  0  0  0  0  0
   36.3680   30.5700   36.8710 H   0  0  0  0  0  0  0  0  0  0  0  0
   38.2400   32.1720   36.5240 H   0  0  0  0  0  0  0  0  0  0  0  0
   37.1510   28.5430   42.8540 C   0  0  0  0  0  0  0  0  0  0  0  0
   38.2060   27.6520   43.1600 C   0  0  0  0  0  0  0  0  0  0  0  0
   39.2330   27.6090   42.2450 C   0  0  0  0  0  0  0  0  0  0  0  0
   39.2130   28.3900   41.1150 N   0  0  0  0  0  0  0  0  0  0  0  0
   38.1640   29.2400   40.8660 C   0  0  0  0  0  0  0  0  0  0  0  0
   37.1470   29.3040   41.7400 N   0  0  0  0  0  0  0  0  0  0  0  0
   36.3150   28.6020   43.5620 H   0  0  0  0  0  0  0  0  0  0  0  0
   38.1900   27.0510   44.0590 H   0  0  0  0  0  0  0  0  0  0  0  0
   40.4180   26.7220   42.4870 C   0  0  0  0  0  0  0  0  0  0  0  0
   41.2540   27.1860   43.6800 C   0  0  0  0  0  0  0  0  0  0  0  0
   40.4270   25.8610   43.6400 C   0  0  0  0  0  0  0  0  0  0  0  0
   41.0060   26.4720   41.5740 H   0  0  0  0  0  0  0  0  0  0  0  0
   40.8210   27.9620   44.3440 H   0  0  0  0  0  0  0  0  0  0  0  0
   42.3300   27.1010   43.5450 H   0  0  0  0  0  0  0  0  0  0  0  0
   39.5690   25.8060   44.3480 H   0  0  0  0  0  0  0  0  0  0  0  0
   41.0700   24.9630   43.6420 H   0  0  0  0  0  0  0  0  0  0  0  0
   41.5090   32.0650   37.4240 C   0  0  1  0  0  3  0  0  0  0  0  0
   40.3140   32.6340   38.1200 C   0  0  2  0  0  3  0  0  0  0  0  0
   40.8640   33.1520   39.2860 O   0  0  0  0  0  0  0  0  0  0  0  0
   41.9380   33.8870   38.8380 C   0  0  0  0  0  2  0  0  0  0  0  0
   42.4990   33.2230   37.6090 C   0  0  2  0  0  3  0  0  0  0  0  0
   42.0380   30.9330   37.9930 O   0  0  0  0  0  0  0  0  0  0  0  0
   41.7150   30.0810   37.6100 H   0  0  0  0  0  0  0  0  0  0  0  0
   42.3810   34.1490   36.5550 O   0  0  0  0  0  0  0  0  0  0  0  0
   41.4420   34.1920   36.2410 H   0  0  0  0  0  0  0  0  0  0  0  0
  1 14  1  0  0  0  0
  2  7  1  0  0  0  0
  2  1  2  0  0  0  0
  3  2  1  0  0  0  0
  4  3  2  0  0  0  0
  4  5  1  0  0  0  0
  5  6  2  0  0  0  0
  6  1  1  0  0  0  0
  8  3  1  0  0  0  0
  9  4  1  0  0  0  0
 10 11  1  0  0  0  0
 10 16  1  0  0  0  0
 11 17  1  0  0  0  0
 12 18  1  0  0  0  0
 12 11  2  0  0  0  0
 13 12  1  0  0  0  0
 14 13  2  0  0  0  0
 14 15  1  0  0  0  0
 15 10  2  0  0  0  0
 18 20  1  0  0  0  0
 18 19  1  0  0  0  0
 19 22  1  0  0  0  0
 20 25  1  0  0  0  0
 20 19  1  0  0  0  0
 20 24  1  0  0  0  0
 21 18  1  0  0  0  0
 23 19  1  0  0  0  0
 26 30  1  0  0  0  0
 26 31  1  1  0  0  0
 26 27  1  0  0  0  0
 27  5  1  1  0  0  0
 27 28  1  0  0  0  0
 29 28  1  0  0  0  0
 30 33  1  6  0  0  0
 30 29  1  0  0  0  0
 32 31  1  0  0  0  0
 34 33  1  0  0  0  0
M  END
>  <minimizedAffinity>
-5.67512226

$$$$

 OpenBabel03252505203D

 34 37  0  0  1  0  0  0  0  0999 V2000
   37.3580   27.0480   41.5090 C   0  0  0  0  0  0  0  0  0  0  0  0
   37.6380   26.8870   42.8490 C   0  0  0  0  0  0  0  0  0  0  0  0
   38.0670   27.9760   43.5940 C   0  0  0  0  0  0  0  0  0  0  0  0
   38.1950   29.1920   42.9460 C   0  0  0  0  0  0  0  0  0  0  0  0
   37.8980   29.2920   41.5950 C   0  0  0  0  0  0  0  0  0  0  0  0
   37.4780   28.2280   40.8660 N   0  0  0  0  0  0  0  0  0  0  0  0
   37.5400   25.9370   43.3650 H   0  0  0  0  0  0  0  0  0  0  0  0
   38.2870   27.8450   44.6490 H   0  0  0  0  0  0  0  0  0  0  0  0
   38.5230   30.0400   43.5020 H   0  0  0  0  0  0  0  0  0  0  0  0
   36.5970   23.5810   40.5080 C   0  0  0  0  0  0  0  0  0  0  0  0
   36.0490   23.7210   39.2110 C   0  0  0  0  0  0  0  0  0  0  0  0
   35.9610   25.0090   38.7390 C   0  0  0  0  0  0  0  0  0  0  0  0
   36.3840   26.0760   39.4940 N   0  0  0  0  0  0  0  0  0  0  0  0
   36.9100   25.8850   40.7480 C   0  0  0  0  0  0  0  0  0  0  0  0
   37.0090   24.6380   41.2370 N   0  0  0  0  0  0  0  0  0  0  0  0
   36.6820   22.5660   40.9170 H   0  0  0  0  0  0  0  0  0  0  0  0
   35.7260   22.8590   38.6430 H   0  0  0  0  0  0  0  0  0  0  0  0
   35.4250   25.2690   37.3630 C   0  0  0  0  0  0  0  0  0  0  0  0
   33.9670   24.8330   37.2180 C   0  0  0  0  0  0  0  0  0  0  0  0
   34.4560   26.3170   37.1730 C   0  0  0  0  0  0  0  0  0  0  0  0
   36.0940   24.9440   36.5330 H   0  0  0  0  0  0  0  0  0  0  0  0
   33.4110   24.5760   38.1420 H   0  0  0  0  0  0  0  0  0  0  0  0
   33.7210   24.3660   36.2670 H   0  0  0  0  0  0  0  0  0  0  0  0
   34.1100   26.9650   38.0090 H   0  0  0  0  0  0  0  0  0  0  0  0
   34.3350   26.7700   36.1720 H   0  0  0  0  0  0  0  0  0  0  0  0
   36.8210   31.4620   40.9600 C   0  0  1  0  0  3  0  0  0  0  0  0
   38.0510   30.6120   40.9510 C   0  0  2  0  0  3  0  0  0  0  0  0
   38.3520   30.5350   39.5960 O   0  0  0  0  0  0  0  0  0  0  0  0
   38.2980   31.8450   39.1780 C   0  0  0  0  0  2  0  0  0  0  0  0
   37.2570   32.5690   39.9900 C   0  0  2  0  0  3  0  0  0  0  0  0
   35.6870   30.8630   40.4710 O   0  0  0  0  0  0  0  0  0  0  0  0
   35.1060   30.4450   41.1520 H   0  0  0  0  0  0  0  0  0  0  0  0
   37.9220   33.6000   40.6810 O   0  0  0  0  0  0  0  0  0  0  0  0
   38.4250   33.2270   41.4490 H   0  0  0  0  0  0  0  0  0  0  0  0
  1  2  1  0  0  0  0
  2  7  1  0  0  0  0
  2  3  2  0  0  0  0
  3  8  1  0  0  0  0
  4  9  1  0  0  0  0
  4  3  1  0  0  0  0
  5  4  2  0  0  0  0
  6  1  2  0  0  0  0
  6  5  1  0  0  0  0
 10 16  1  0  0  0  0
 10 15  1  0  0  0  0
 11 10  2  0  0  0  0
 12 11  1  0  0  0  0
 12 13  2  0  0  0  0
 13 14  1  0  0  0  0
 14 15  2  0  0  0  0
 14  1  1  0  0  0  0
 17 11  1  0  0  0  0
 18 12  1  0  0  0  0
 19 18  1  0  0  0  0
 19 22  1  0  0  0  0
 20 19  1  0  0  0  0
 20 18  1  0  0  0  0
 20 24  1  0  0  0  0
 21 18  1  0  0  0  0
 23 19  1  0  0  0  0
 25 20  1  0  0  0  0
 26 31  1  6  0  0  0
 27 26  1  0  0  0  0
 27  5  1  6  0  0  0
 28 27  1  0  0  0  0
 29 28  1  0  0  0  0
 29 30  1  0  0  0  0
 30 33  1  1  0  0  0
 30 26  1  0  0  0  0
 31 32  1  0  0  0  0
 33 34  1  0  0  0  0
M  END
>  <minimizedAffinity>
-5.66985035

$$$$

 OpenBabel03252505203D

 34 37  0  0  1  0  0  0  0  0999 V2000
   37.5270   28.6110   41.2220 C   0  0  0  0  0  0  0  0  0  0  0  0
   36.1650   28.4730   41.0530 C   0  0  0  0  0  0  0  0  0  0  0  0
   35.4340   29.5180   40.5050 C   0  0  0  0  0  0  0  0  0  0  0  0
   36.1170   30.6670   40.1480 C   0  0  0  0  0  0  0  0  0  0  0  0
   37.4890   30.7470   40.3420 C   0  0  0  0  0  0  0  0  0  0  0  0
   38.2040   29.7270   40.8780 N   0  0  0  0  0  0  0  0  0  0  0  0
   35.6230   27.5750   41.3300 H   0  0  0  0  0  0  0  0  0  0  0  0
   34.3630   29.4040   40.3730 H   0  0  0  0  0  0  0  0  0  0  0  0
   35.5730   31.4790   39.7250 H   0  0  0  0  0  0  0  0  0  0  0  0
   38.5120   25.2300   42.3160 C   0  0  0  0  0  0  0  0  0  0  0  0
   39.7540   25.4370   42.9600 C   0  0  0  0  0  0  0  0  0  0  0  0
   40.2020   26.7370   42.9860 C   0  0  0  0  0  0  0  0  0  0  0  0
   39.4740   27.7530   42.4160 N   0  0  0  0  0  0  0  0  0  0  0  0
   38.2720   27.4980   41.8030 C   0  0  0  0  0  0  0  0  0  0  0  0
   37.8070   26.2380   41.7620 N   0  0  0  0  0  0  0  0  0  0  0  0
   38.1240   24.2040   42.2770 H   0  0  0  0  0  0  0  0  0  0  0  0
   40.3020   24.6140   43.3990 H   0  0  0  0  0  0  0  0  0  0  0  0
   41.4920   27.0740   43.6710 C   0  0  0  0  0  0  0  0  0  0  0  0
   42.4770   25.9050   43.6580 C   0  0  0  0  0  0  0  0  0  0  0  0
   42.6840   27.2450   42.8820 C   0  0  0  0  0  0  0  0  0  0  0  0
   41.3770   27.5750   44.6600 H   0  0  0  0  0  0  0  0  0  0  0  0
   42.2450   25.0410   43.0020 H   0  0  0  0  0  0  0  0  0  0  0  0
   43.0450   25.7730   44.5760 H   0  0  0  0  0  0  0  0  0  0  0  0
   42.6780   27.1660   41.7720 H   0  0  0  0  0  0  0  0  0  0  0  0
   43.5220   27.8400   43.2860 H   0  0  0  0  0  0  0  0  0  0  0  0
   39.5190   32.1980   40.5590 C   0  0  1  0  0  3  0  0  0  0  0  0
   38.1700   31.9950   39.9440 C   0  0  2  0  0  3  0  0  0  0  0  0
   37.4890   33.1440   40.3280 O   0  0  0  0  0  0  0  0  0  0  0  0
   38.3580   34.1590   40.0000 C   0  0  0  0  0  2  0  0  0  0  0  0
   39.7690   33.6620   40.1680 C   0  0  2  0  0  3  0  0  0  0  0  0
   39.5650   32.0890   41.9260 O   0  0  0  0  0  0  0  0  0  0  0  0
   39.8160   31.1950   42.2670 H   0  0  0  0  0  0  0  0  0  0  0  0
   40.3820   33.7380   38.9020 O   0  0  0  0  0  0  0  0  0  0  0  0
   40.0680   32.9960   38.3250 H   0  0  0  0  0  0  0  0  0  0  0  0
  1 14  1  0  0  0  0
  2  1  1  0  0  0  0
  2  7  1  0  0  0  0
  3  2  2  0  0  0  0
  4  5  2  0  0  0  0
  4  3  1  0  0  0  0
  5  6  1  0  0  0  0
  6  1  2  0  0  0  0
  8  3  1  0  0  0  0
  9  4  1  0  0  0  0
 10 11  1  0  0  0  0
 11 12  2  0  0  0  0
 11 17  1  0  0  0  0
 12 18  1  0  0  0  0
 13 12  1  0  0  0  0
 14 13  2  0  0  0  0
 15 14  1  0  0  0  0
 15 10  2  0  0  0  0
 16 10  1  0  0  0  0
 18 21  1  0  0  0  0
 19 18  1  0  0  0  0
 19 23  1  0  0  0  0
 20 25  1  0  0  0  0
 20 19  1  0  0  0  0
 20 18  1  0  0  0  0
 22 19  1  0  0  0  0
 24 20  1  0  0  0  0
 26 31  1  1  0  0  0
 27 28  1  0  0  0  0
 27  5  1  1  0  0  0
 27 26  1  0  0  0  0
 29 30  1  0  0  0  0
 29 28  1  0  0  0  0
 30 33  1  6  0  0  0
 30 26  1  0  0  0  0
 31 32  1  0  0  0  0
 34 33  1  0  0  0  0
M  END
>  <minimizedAffinity>
-5.55701399

$$$$

 OpenBabel03252505203D

 34 37  0  0  1  0  0  0  0  0999 V2000
   37.2580   28.8480   41.3560 C   0  0  0  0  0  0  0  0  0  0  0  0
   37.2870   29.1290   42.7060 C   0  0  0  0  0  0  0  0  0  0  0  0
   37.2950   28.0880   43.6230 C   0  0  0  0  0  0  0  0  0  0  0  0
   37.2740   26.7950   43.1310 C   0  0  0  0  0  0  0  0  0  0  0  0
   37.2450   26.5740   41.7620 C   0  0  0  0  0  0  0  0  0  0  0  0
   37.2370   27.5910   40.8650 N   0  0  0  0  0  0  0  0  0  0  0  0
   37.3040   30.1410   43.0990 H   0  0  0  0  0  0  0  0  0  0  0  0
   37.3180   28.3140   44.6830 H   0  0  0  0  0  0  0  0  0  0  0  0
   37.2800   25.9820   43.8200 H   0  0  0  0  0  0  0  0  0  0  0  0
   37.2300   32.2500   39.9350 C   0  0  0  0  0  0  0  0  0  0  0  0
   37.2030   32.0280   38.5380 C   0  0  0  0  0  0  0  0  0  0  0  0
   37.2000   30.7100   38.1460 C   0  0  0  0  0  0  0  0  0  0  0  0
   37.2220   29.6920   39.0680 N   0  0  0  0  0  0  0  0  0  0  0  0
   37.2470   29.9630   40.4140 C   0  0  0  0  0  0  0  0  0  0  0  0
   37.2510   31.2400   40.8290 N   0  0  0  0  0  0  0  0  0  0  0  0
   37.2340   33.2910   40.2840 H   0  0  0  0  0  0  0  0  0  0  0  0
   37.1860   32.8530   37.8390 H   0  0  0  0  0  0  0  0  0  0  0  0
   37.1400   30.3600   36.6890 C   0  0  0  0  0  0  0  0  0  0  0  0
   37.5470   28.9110   36.4240 C   0  0  0  0  0  0  0  0  0  0  0  0
   36.1050   29.4770   36.2200 C   0  0  0  0  0  0  0  0  0  0  0  0
   37.6110   31.1080   36.0110 H   0  0  0  0  0  0  0  0  0  0  0  0
   37.6400   28.2330   37.2970 H   0  0  0  0  0  0  0  0  0  0  0  0
   38.1490   28.7600   35.5310 H   0  0  0  0  0  0  0  0  0  0  0  0
   35.3240   29.0640   36.8980 H   0  0  0  0  0  0  0  0  0  0  0  0
   35.8090   29.5020   35.1560 H   0  0  0  0  0  0  0  0  0  0  0  0
   38.5380   24.6560   40.8020 C   0  0  1  0  0  3  0  0  0  0  0  0
   37.2230   25.1750   41.2890 C   0  0  2  0  0  3  0  0  0  0  0  0
   36.3960   24.9750   40.1900 O   0  0  0  0  0  0  0  0  0  0  0  0
   36.6430   23.6690   39.8330 C   0  0  0  0  0  2  0  0  0  0  0  0
   38.0790   23.3450   40.1480 C   0  0  2  0  0  3  0  0  0  0  0  0
   39.1630   25.4300   39.8560 O   0  0  0  0  0  0  0  0  0  0  0  0
   39.8260   26.0720   40.2100 H   0  0  0  0  0  0  0  0  0  0  0  0
   38.0640   22.2990   41.0910 O   0  0  0  0  0  0  0  0  0  0  0  0
   37.8290   22.6510   41.9870 H   0  0  0  0  0  0  0  0  0  0  0  0
  1  2  1  0  0  0  0
  2  7  1  0  0  0  0
  2  3  2  0  0  0  0
  3  8  1  0  0  0  0
  4  3  1  0  0  0  0
  4  9  1  0  0  0  0
  5  4  2  0  0  0  0
  6  1  2  0  0  0  0
  6  5  1  0  0  0  0
 10 16  1  0  0  0  0
 10 15  1  0  0  0  0
 11 10  2  0  0  0  0
 12 11  1  0  0  0  0
 12 13  2  0  0  0  0
 13 14  1  0  0  0  0
 14 15  2  0  0  0  0
 14  1  1  0  0  0  0
 17 11  1  0  0  0  0
 18 12  1  0  0  0  0
 19 18  1  0  0  0  0
 19 22  1  0  0  0  0
 20 19  1  0  0  0  0
 20 18  1  0  0  0  0
 20 24  1  0  0  0  0
 21 18  1  0  0  0  0
 23 19  1  0  0  0  0
 25 20  1  0  0  0  0
 26 31  1  6  0  0  0
 26 27  1  0  0  0  0
 27  5  1  6  0  0  0
 28 27  1  0  0  0  0
 29 30  1  0  0  0  0
 29 28  1  0  0  0  0
 30 26  1  0  0  0  0
 30 33  1  1  0  0  0
 31 32  1  0  0  0  0
 33 34  1  0  0  0  0
M  END
>  <minimizedAffinity>
-5.46998405

$$$$

 OpenBabel03252505203D

 34 37  0  0  1  0  0  0  0  0999 V2000
   36.8620   28.1620   38.4260 C   0  0  0  0  0  0  0  0  0  0  0  0
   36.3180   28.5010   37.2050 C   0  0  0  0  0  0  0  0  0  0  0  0
   36.5120   29.7780   36.6990 C   0  0  0  0  0  0  0  0  0  0  0  0
   37.2550   30.6660   37.4550 C   0  0  0  0  0  0  0  0  0  0  0  0
   37.7780   30.2680   38.6770 C   0  0  0  0  0  0  0  0  0  0  0  0
   37.5890   29.0200   39.1730 N   0  0  0  0  0  0  0  0  0  0  0  0
   35.7340   27.8090   36.6060 H   0  0  0  0  0  0  0  0  0  0  0  0
   36.0810   30.0390   35.7380 H   0  0  0  0  0  0  0  0  0  0  0  0
   37.4150   31.6520   37.0830 H   0  0  0  0  0  0  0  0  0  0  0  0
   35.7950   24.6450   38.7170 C   0  0  0  0  0  0  0  0  0  0  0  0
   36.2450   24.2650   40.0030 C   0  0  0  0  0  0  0  0  0  0  0  0
   36.9040   25.2400   40.7150 C   0  0  0  0  0  0  0  0  0  0  0  0
   37.1000   26.4950   40.1900 N   0  0  0  0  0  0  0  0  0  0  0  0
   36.6410   26.8120   38.9360 C   0  0  0  0  0  0  0  0  0  0  0  0
   35.9940   25.8810   38.2160 N   0  0  0  0  0  0  0  0  0  0  0  0
   35.2650   23.8910   38.1210 H   0  0  0  0  0  0  0  0  0  0  0  0
   36.0740   23.2680   40.3850 H   0  0  0  0  0  0  0  0  0  0  0  0
   37.3960   24.9550   42.1020 C   0  0  0  0  0  0  0  0  0  0  0  0
   38.7790   24.3040   42.1030 C   0  0  0  0  0  0  0  0  0  0  0  0
   38.4750   25.7400   42.6400 C   0  0  0  0  0  0  0  0  0  0  0  0
   36.6500   24.4650   42.7690 H   0  0  0  0  0  0  0  0  0  0  0  0
   39.3470   24.2960   41.1510 H   0  0  0  0  0  0  0  0  0  0  0  0
   38.9160   23.5190   42.8430 H   0  0  0  0  0  0  0  0  0  0  0  0
   38.9420   26.5760   42.0730 H   0  0  0  0  0  0  0  0  0  0  0  0
   38.5990   25.8150   43.7360 H   0  0  0  0  0  0  0  0  0  0  0  0
   37.8970   31.7630   40.6830 C   0  0  1  0  0  3  0  0  0  0  0  0
   38.5640   31.2540   39.4450 C   0  0  2  0  0  3  0  0  0  0  0  0
   38.8240   32.4240   38.7410 O   0  0  0  0  0  0  0  0  0  0  0  0
   39.4190   33.2390   39.6770 C   0  0  0  0  0  2  0  0  0  0  0  0
   38.8360   32.9270   41.0300 C   0  0  2  0  0  3  0  0  0  0  0  0
   36.6270   32.2540   40.5070 O   0  0  0  0  0  0  0  0  0  0  0  0
   35.9000   31.6070   40.6770 H   0  0  0  0  0  0  0  0  0  0  0  0
   39.8990   32.4800   41.8390 O   0  0  0  0  0  0  0  0  0  0  0  0
   40.1410   31.5490   41.6020 H   0  0  0  0  0  0  0  0  0  0  0  0
  1 14  1  0  0  0  0
  1  6  1  0  0  0  0
  2  1  2  0  0  0  0
  3  2  1  0  0  0  0
  3  4  2  0  0  0  0
  4  5  1  0  0  0  0
  5  6  2  0  0  0  0
  7  2  1  0  0  0  0
  8  3  1  0  0  0  0
  9  4  1  0  0  0  0
 10 11  1  0  0  0  0
 11 17  1  0  0  0  0
 11 12  2  0  0  0  0
 12 18  1  0  0  0  0
 13 12  1  0  0  0  0
 14 13  2  0  0  0  0
 15 10  2  0  0  0  0
 15 14  1  0  0  0  0
 16 10  1  0  0  0  0
 18 19  1  0  0  0  0
 18 20  1  0  0  0  0
 18 21  1  0  0  0  0
 19 20  1  0  0  0  0
 19 23  1  0  0  0  0
 20 25  1  0  0  0  0
 22 19  1  0  0  0  0
 24 20  1  0  0  0  0
 26 31  1  6  0  0  0
 26 30  1  0  0  0  0
 27  5  1  6  0  0  0
 27 26  1  0  0  0  0
 28 27  1  0  0  0  0
 28 29  1  0  0  0  0
 29 30  1  0  0  0  0
 30 33  1  1  0  0  0
 31 32  1  0  0  0  0
 34 33  1  0  0  0  0
M  END
>  <minimizedAffinity>
-5.4689641

$$$$

 OpenBabel03252505203D

 34 37  0  0  1  0  0  0  0  0999 V2000
   40.3390   28.4970   42.4780 C   0  0  0  0  0  0  0  0  0  0  0  0
   41.5870   28.7350   43.0140 C   0  0  0  0  0  0  0  0  0  0  0  0
   42.1030   30.0230   43.0030 C   0  0  0  0  0  0  0  0  0  0  0  0
   41.3280   31.0240   42.4470 C   0  0  0  0  0  0  0  0  0  0  0  0
   40.0790   30.7240   41.9230 C   0  0  0  0  0  0  0  0  0  0  0  0
   39.5730   29.4660   41.9330 N   0  0  0  0  0  0  0  0  0  0  0  0
   42.2010   27.9540   43.4520 H   0  0  0  0  0  0  0  0  0  0  0  0
   43.0860   30.2040   43.4260 H   0  0  0  0  0  0  0  0  0  0  0  0
   41.7080   32.0200   42.4300 H   0  0  0  0  0  0  0  0  0  0  0  0
   39.9040   24.9130   43.2290 C   0  0  0  0  0  0  0  0  0  0  0  0
   38.7740   24.5460   42.4620 C   0  0  0  0  0  0  0  0  0  0  0  0
   38.2060   25.5550   41.7200 C   0  0  0  0  0  0  0  0  0  0  0  0
   38.7200   26.8290   41.7380 N   0  0  0  0  0  0  0  0  0  0  0  0
   39.8210   27.1320   42.5010 C   0  0  0  0  0  0  0  0  0  0  0  0
   40.3980   26.1690   43.2360 N   0  0  0  0  0  0  0  0  0  0  0  0
   40.3830   24.1330   43.8340 H   0  0  0  0  0  0  0  0  0  0  0  0
   38.3950   23.5330   42.4710 H   0  0  0  0  0  0  0  0  0  0  0  0
   37.0220   25.2690   40.8450 C   0  0  0  0  0  0  0  0  0  0  0  0
   37.3640   24.3130   39.7030 C   0  0  0  0  0  0  0  0  0  0  0  0
   36.4120   23.9660   40.8920 C   0  0  0  0  0  0  0  0  0  0  0  0
   36.4400   26.1690   40.5410 H   0  0  0  0  0  0  0  0  0  0  0  0
   38.3390   23.7860   39.7450 H   0  0  0  0  0  0  0  0  0  0  0  0
   36.8970   24.5510   38.7500 H   0  0  0  0  0  0  0  0  0  0  0  0
   36.7700   23.1670   41.5800 H   0  0  0  0  0  0  0  0  0  0  0  0
   35.3620   23.8460   40.5700 H   0  0  0  0  0  0  0  0  0  0  0  0
   38.5300   31.4750   40.1040 C   0  0  1  0  0  3  0  0  0  0  0  0
   39.2910   31.8290   41.3410 C   0  0  2  0  0  3  0  0  0  0  0  0
   40.0690   32.9010   40.9190 O   0  0  0  0  0  0  0  0  0  0  0  0
   39.1670   33.7260   40.2870 C   0  0  0  0  0  2  0  0  0  0  0  0
   38.1010   32.8770   39.6470 C   0  0  2  0  0  3  0  0  0  0  0  0
   39.2690   30.8890   39.1060 O   0  0  0  0  0  0  0  0  0  0  0  0
   39.2570   29.9010   39.1010 H   0  0  0  0  0  0  0  0  0  0  0  0
   36.8780   33.2390   40.2430 O   0  0  0  0  0  0  0  0  0  0  0  0
   36.8090   32.8430   41.1490 H   0  0  0  0  0  0  0  0  0  0  0  0
  1 14  1  0  0  0  0
  1  2  1  0  0  0  0
  2  7  1  0  0  0  0
  3  2  2  0  0  0  0
  3  8  1  0  0  0  0
  4  3  1  0  0  0  0
  5  6  1  0  0  0  0
  5  4  2  0  0  0  0
  6  1  2  0  0  0  0
  9  4  1  0  0  0  0
 10 15  1  0  0  0  0
 10 16  1  0  0  0  0
 11 17  1  0  0  0  0
 11 10  2  0  0  0  0
 12 13  2  0  0  0  0
 12 11  1  0  0  0  0
 13 14  1  0  0  0  0
 14 15  2  0  0  0  0
 18 20  1  0  0  0  0
 18 12  1  0  0  0  0
 19 22  1  0  0  0  0
 19 18  1  0  0  0  0
 19 20  1  0  0  0  0
 20 24  1  0  0  0  0
 21 18  1  0  0  0  0
 23 19  1  0  0  0  0
 25 20  1  0  0  0  0
 26 31  1  6  0  0  0
 26 27  1  0  0  0  0
 27  5  1  6  0  0  0
 28 27  1  0  0  0  0
 29 28  1  0  0  0  0
 30 26  1  0  0  0  0
 30 33  1  1  0  0  0
 30 29  1  0  0  0  0
 32 31  1  0  0  0  0
 33 34  1  0  0  0  0
M  END
>  <minimizedAffinity>
-5.42938089

$$$$
