
 OpenBabel03252505153D

 25 27  0  0  1  0  0  0  0  0999 V2000
   44.5670   35.5350   44.7900 C   0  0  0  0  0  0  0  0  0  0  0  0
   45.3620   35.2630   43.6670 C   0  0  0  0  0  0  0  0  0  0  0  0
   46.2940   34.2450   43.8480 C   0  0  0  0  0  0  0  0  0  0  0  0
   46.3810   33.5920   45.0560 N   0  0  0  0  0  0  0  0  0  0  0  0
   45.5830   33.9020   46.1020 C   0  0  0  0  0  0  0  0  0  0  0  0
   44.6790   34.8820   45.9450 N   0  0  0  0  0  0  0  0  0  0  0  0
   43.8370   36.3080   44.7030 H   0  0  0  0  0  0  0  0  0  0  0  0
   45.3010   35.7660   42.7240 H   0  0  0  0  0  0  0  0  0  0  0  0
   47.2070   33.8340   42.7250 C   0  0  0  0  0  0  0  0  0  0  0  0
   47.5360   34.9770   41.7930 C   0  0  0  0  0  0  0  0  0  0  0  0
   48.5800   34.3240   42.7380 C   0  0  0  0  0  0  0  0  0  0  0  0
   46.9860   32.8460   42.2530 H   0  0  0  0  0  0  0  0  0  0  0  0
   47.5960   34.6880   40.7300 H   0  0  0  0  0  0  0  0  0  0  0  0
   47.1770   35.9740   42.0550 H   0  0  0  0  0  0  0  0  0  0  0  0
   49.3830   33.7560   42.1970 H   0  0  0  0  0  0  0  0  0  0  0  0
   48.9300   35.0110   43.5260 H   0  0  0  0  0  0  0  0  0  0  0  0
   46.8490   31.9510   46.9560 C   0  0  2  0  0  3  0  0  0  0  0  0
   45.8690   33.0580   47.2920 C   0  0  2  0  0  3  0  0  0  0  0  0
   44.7040   32.4550   47.7490 O   0  0  0  0  0  0  0  0  0  0  0  0
   45.0730   31.2160   48.2680 C   0  0  0  0  0  2  0  0  0  0  0  0
   45.9750   30.7230   47.1320 C   0  0  1  0  0  3  0  0  0  0  0  0
   47.8720   31.8670   47.8980 O   0  0  0  0  0  0  0  0  0  0  0  0
   48.4860   32.6500   47.8530 H   0  0  0  0  0  0  0  0  0  0  0  0
   45.2020   30.5990   45.9810 O   0  0  0  0  0  0  0  0  0  0  0  0
   44.2710   30.3570   46.2790 H   0  0  0  0  0  0  0  0  0  0  0  0
  1  6  1  0  0  0  0
  2  3  1  0  0  0  0
  2  1  2  0  0  0  0
  3  4  2  0  0  0  0
  4  5  1  0  0  0  0
  6  5  2  0  0  0  0
  7  1  1  0  0  0  0
  8  2  1  0  0  0  0
  9 11  1  0  0  0  0
  9  3  1  0  0  0  0
 10 14  1  0  0  0  0
 10  9  1  0  0  0  0
 10 11  1  0  0  0  0
 11 16  1  0  0  0  0
 12  9  1  0  0  0  0
 13 10  1  0  0  0  0
 15 11  1  0  0  0  0
 17 21  1  0  0  0  0
 17 18  1  0  0  0  0
 17 22  1  1  0  0  0
 18  5  1  6  0  0  0
 18 19  1  0  0  0  0
 19 20  1  0  0  0  0
 21 24  1  6  0  0  0
 21 20  1  0  0  0  0
 23 22  1  0  0  0  0
 24 25  1  0  0  0  0
M  END
>  <minimizedAffinity>
-4.94039726

>  <minimizedRMSD>
1.28904295

$$$$
