
 OpenBabel03252507573D

 27 29  0  0  1  0  0  0  0  0999 V2000
   46.3920   32.6850   45.7510 C   0  0  1  0  0  0  0  0  0  0  0  0
   47.1270   33.0030   47.0140 C   0  0  0  0  0  0  0  0  0  0  0  0
   45.6470   32.8460   47.0370 C   0  0  2  0  0  0  0  0  0  0  0  0
   46.5070   31.7020   45.2960 H   0  0  0  0  0  0  0  0  0  0  0  0
   47.6160   34.0020   47.0140 H   0  0  0  0  0  0  0  0  0  0  0  0
   47.7690   32.1830   47.4000 H   0  0  0  0  0  0  0  0  0  0  0  0
   45.1190   33.8210   47.2380 H   0  0  0  0  0  0  0  0  0  0  0  0
   46.6530   34.8750   42.8160 C   0  0  0  0  0  0  0  0  0  0  0  0
   45.5650   35.7720   42.9710 C   0  0  0  0  0  0  0  0  0  0  0  0
   44.7510   35.5920   44.1020 C   0  0  0  0  0  0  0  0  0  0  0  0
   45.0510   34.5830   44.9690 N   0  0  0  0  0  0  0  0  0  0  0  0
   46.1150   33.7610   44.7490 C   0  0  0  0  0  0  0  0  0  0  0  0
   46.9200   33.8820   43.6990 N   0  0  0  0  0  0  0  0  0  0  0  0
   45.3650   36.5510   42.2670 H   0  0  0  0  0  0  0  0  0  0  0  0
   43.9180   36.2360   44.2720 H   0  0  0  0  0  0  0  0  0  0  0  0
   47.4510   35.1150   41.6490 C   0  0  0  0  0  0  0  0  0  0  0  0
   48.5630   35.7290   41.6380 O   0  0  0  0  0  0  0  0  0  0  0  0
   47.1470   34.7750   40.6480 H   0  0  0  0  0  0  0  0  0  0  0  0
   45.4500   30.3330   47.2250 C   0  0  2  0  0  3  0  0  0  0  0  0
   45.0910   31.6800   47.7720 C   0  0  1  0  0  3  0  0  0  0  0  0
   45.5570   31.5800   49.0800 O   0  0  0  0  0  0  0  0  0  0  0  0
   45.1390   30.3550   49.5390 C   0  0  0  0  0  2  0  0  0  0  0  0
   44.9080   29.4460   48.3520 C   0  0  2  0  0  3  0  0  0  0  0  0
   46.8170   30.2190   47.1590 O   0  0  0  0  0  0  0  0  0  0  0  0
   47.1850   29.7600   47.9580 H   0  0  0  0  0  0  0  0  0  0  0  0
   45.6570   28.2860   48.3980 O   0  0  0  0  0  0  0  0  0  0  0  0
   45.0230   27.5480   48.5820 H   0  0  0  0  0  0  0  0  0  0  0  0
  1  4  1  6  0  0  0
  1  2  1  0  0  0  0
  1  3  1  0  0  0  0
  2  5  1  0  0  0  0
  2  3  1  0  0  0  0
  2  6  1  0  0  0  0
  3  7  1  1  0  0  0
  3 20  1  0  0  0  0
  8  9  2  0  0  0  0
  8 13  1  0  0  0  0
  9 10  1  0  0  0  0
 10 15  1  0  0  0  0
 10 11  2  0  0  0  0
 12 11  1  0  0  0  0
 12  1  1  0  0  0  0
 13 12  2  0  0  0  0
 14  9  1  0  0  0  0
 16  8  1  0  0  0  0
 17 16  2  0  0  0  0
 18 16  1  0  0  0  0
 19 24  1  1  0  0  0
 19 20  1  0  0  0  0
 19 23  1  0  0  0  0
 20 21  1  1  0  0  0
 21 22  1  0  0  0  0
 23 26  1  1  0  0  0
 23 22  1  0  0  0  0
 24 25  1  0  0  0  0
 26 27  1  0  0  0  0
M  END
>  <minimizedAffinity>
-4.67799234

>  <minimizedRMSD>
1.46809709

$$$$
