
 OpenBabel03252508293D

 39 42  0  0  1  0  0  0  0  0999 V2000
   42.8310   32.7710   40.1150 N   0  0  0  0  0  0  0  0  0  0  0  0
   42.5920   33.6630   41.2480 C   0  0  2  0  0  0  0  0  0  0  0  0
   41.5900   34.6930   40.9670 C   0  0  0  0  0  0  0  0  0  0  0  0
   41.0560   34.7310   39.6150 N   0  0  0  0  0  0  0  0  0  0  0  0
   41.8690   34.2500   38.5690 C   0  0  0  0  0  0  0  0  0  0  0  0
   43.1730   33.6710   39.0260 C   0  0  2  0  0  0  0  0  0  0  0  0
   43.6910   32.2120   40.3480 H   0  0  0  0  0  0  0  0  0  0  0  0
   42.3210   32.9410   42.0820 H   0  0  0  0  0  0  0  0  0  0  0  0
   40.6650   34.3280   41.5460 H   0  0  0  0  0  0  0  0  0  0  0  0
   41.6780   35.6880   41.3730 H   0  0  0  0  0  0  0  0  0  0  0  0
   40.0540   34.5890   39.5170 H   0  0  0  0  0  0  0  0  0  0  0  0
   42.1350   35.1340   37.9230 H   0  0  0  0  0  0  0  0  0  0  0  0
   41.2770   33.5950   37.9290 H   0  0  0  0  0  0  0  0  0  0  0  0
   43.8100   34.4680   39.4000 H   0  0  0  0  0  0  0  0  0  0  0  0
   45.9420   34.5910   42.1240 C   0  0  0  0  0  0  0  0  0  0  0  0
   45.2040   35.6680   42.5690 C   0  0  0  0  0  0  0  0  0  0  0  0
   43.8520   35.4170   42.2670 C   0  0  0  0  0  0  0  0  0  0  0  0
   43.8350   34.2310   41.6720 N   0  0  0  0  0  0  0  0  0  0  0  0
   45.0430   33.7410   41.5810 N   0  0  0  0  0  0  0  0  0  0  0  0
   45.6890   36.5130   43.0570 H   0  0  0  0  0  0  0  0  0  0  0  0
   43.2140   36.2340   42.5890 H   0  0  0  0  0  0  0  0  0  0  0  0
   49.6460   35.2980   42.1330 C   0  0  0  0  0  0  0  0  0  0  0  0
   48.2520   35.5250   42.0220 C   0  0  0  0  0  0  0  0  0  0  0  0
   47.3950   34.4430   42.2240 C   0  0  0  0  0  0  0  0  0  0  0  0
   47.9160   33.2380   42.5130 N   0  0  0  0  0  0  0  0  0  0  0  0
   49.2560   33.0400   42.6160 C   0  0  0  0  0  0  0  0  0  0  0  0
   50.0880   34.0740   42.4240 N   0  0  0  0  0  0  0  0  0  0  0  0
   50.1860   36.2100   41.9550 H   0  0  0  0  0  0  0  0  0  0  0  0
   47.7910   36.4910   41.7870 H   0  0  0  0  0  0  0  0  0  0  0  0
   49.6700   32.0600   42.8520 H   0  0  0  0  0  0  0  0  0  0  0  0
   44.7690   31.7820   38.4780 C   0  0  1  0  0  3  0  0  0  0  0  0
   43.9100   32.8890   38.0140 C   0  0  2  0  0  3  0  0  0  0  0  0
   44.7840   33.6660   37.2580 O   0  0  0  0  0  0  0  0  0  0  0  0
   45.7060   32.8530   36.6570 C   0  0  0  0  0  2  0  0  0  0  0  0
   45.4540   31.4350   37.1500 C   0  0  1  0  0  3  0  0  0  0  0  0
   45.7800   32.1070   39.3410 O   0  0  0  0  0  0  0  0  0  0  0  0
   46.3830   32.7990   39.0330 H   0  0  0  0  0  0  0  0  0  0  0  0
   46.6100   30.7050   37.3210 O   0  0  0  0  0  0  0  0  0  0  0  0
   46.4360   29.7690   37.0460 H   0  0  0  0  0  0  0  0  0  0  0  0
  1  7  1  0  0  0  0
  1  2  1  0  0  0  0
  2 18  1  0  0  0  0
  2  8  1  1  0  0  0
  3  2  1  0  0  0  0
  3 10  1  0  0  0  0
  3  9  1  0  0  0  0
  4  3  1  0  0  0  0
  5  6  1  0  0  0  0
  5  4  1  0  0  0  0
  6 14  1  1  0  0  0
  6  1  1  0  0  0  0
 11  4  1  0  0  0  0
 12  5  1  0  0  0  0
 13  5  1  0  0  0  0
 15 24  1  0  0  0  0
 15 16  1  0  0  0  0
 16 20  1  0  0  0  0
 17 16  2  0  0  0  0
 17 21  1  0  0  0  0
 18 17  1  0  0  0  0
 19 18  1  0  0  0  0
 19 15  2  0  0  0  0
 22 27  1  0  0  0  0
 23 22  2  0  0  0  0
 23 24  1  0  0  0  0
 24 25  2  0  0  0  0
 25 26  1  0  0  0  0
 26 30  1  0  0  0  0
 27 26  2  0  0  0  0
 28 22  1  0  0  0  0
 29 23  1  0  0  0  0
 31 36  1  1  0  0  0
 32 33  1  1  0  0  0
 32 31  1  0  0  0  0
 32  6  1  0  0  0  0
 34 35  1  0  0  0  0
 34 33  1  0  0  0  0
 35 38  1  1  0  0  0
 35 31  1  0  0  0  0
 37 36  1  0  0  0  0
 39 38  1  0  0  0  0
M  END
>  <minimizedAffinity>
-4.91863346

>  <minimizedRMSD>
1.71545541

$$$$
