
 OpenBabel03242520363D

 35 38  0  0  1  0  0  0  0  0999 V2000
   46.7570   32.7890   42.2370 C   0  0  0  0  0  0  0  0  0  0  0  0
   48.0230   32.6320   41.5740 C   0  0  0  0  0  0  0  0  0  0  0  0
   48.9750   31.8880   42.2200 C   0  0  0  0  0  0  0  0  0  0  0  0
   48.6970   31.3400   43.4290 N   0  0  0  0  0  0  0  0  0  0  0  0
   47.4910   31.5080   44.0260 C   0  0  0  0  0  0  0  0  0  0  0  0
   46.5340   32.2340   43.4160 N   0  0  0  0  0  0  0  0  0  0  0  0
   45.9670   33.3630   41.7780 H   0  0  0  0  0  0  0  0  0  0  0  0
   49.9630   31.7170   41.7920 H   0  0  0  0  0  0  0  0  0  0  0  0
   48.2910   33.2620   40.2600 C   0  0  1  0  0  0  0  0  0  0  0  0
   47.4280   34.2660   39.7100 C   0  0  0  0  0  0  0  0  0  0  0  0
   48.7150   34.7440   40.2520 C   0  0  1  0  0  0  0  0  0  0  0  0
   49.0580   32.6650   39.6850 H   0  0  0  0  0  0  0  0  0  0  0  0
   46.4870   34.5160   40.2490 H   0  0  0  0  0  0  0  0  0  0  0  0
   47.2450   34.3740   38.5950 H   0  0  0  0  0  0  0  0  0  0  0  0
   49.4500   35.0750   39.4740 H   0  0  0  0  0  0  0  0  0  0  0  0
   48.8390   35.4980   41.5230 C   0  0  0  0  0  0  0  0  0  0  0  0
   49.3800   36.7560   41.3260 F   0  0  0  0  0  0  0  0  0  0  0  0
   49.6210   34.8080   42.4480 F   0  0  0  0  0  0  0  0  0  0  0  0
   47.5730   35.6770   42.0200 F   0  0  0  0  0  0  0  0  0  0  0  0
   47.2730   30.8670   45.3470 C   0  0  2  0  0  0  0  0  0  0  0  0
   46.7020   29.4660   45.2610 C   0  0  0  0  0  0  0  0  0  0  0  0
   45.9000   30.5980   45.8410 C   0  0  1  0  0  0  0  0  0  0  0  0
   48.1090   31.0020   46.0320 H   0  0  0  0  0  0  0  0  0  0  0  0
   46.3530   29.0670   44.2970 H   0  0  0  0  0  0  0  0  0  0  0  0
   46.9940   28.7020   46.0120 H   0  0  0  0  0  0  0  0  0  0  0  0
   45.0590   31.0210   45.2550 H   0  0  0  0  0  0  0  0  0  0  0  0
   45.0580   31.9080   47.8280 C   0  0  1  0  0  0  0  0  0  0  0  0
   45.7170   30.6700   47.3420 C   0  0  2  0  0  0  0  0  0  0  0  0
   46.9210   30.4880   47.9670 O   0  0  0  0  0  0  0  0  0  0  0  0
   47.1870   31.5980   48.7480 C   0  0  0  0  0  0  0  0  0  0  0  0
   45.8660   32.2530   49.0670 C   0  0  2  0  0  0  0  0  0  0  0  0
   45.1650   32.9820   46.9510 O   0  0  0  0  0  0  0  0  0  0  0  0
   45.7670   33.6910   47.2950 H   0  0  0  0  0  0  0  0  0  0  0  0
   45.2900   31.7780   50.2340 O   0  0  0  0  0  0  0  0  0  0  0  0
   44.3430   31.4900   50.1040 H   0  0  0  0  0  0  0  0  0  0  0  0
  1  6  1  0  0  0  0
  2  3  1  0  0  0  0
  2  1  2  0  0  0  0
  3  4  2  0  0  0  0
  4  5  1  0  0  0  0
  5 20  1  0  0  0  0
  6  5  2  0  0  0  0
  7  1  1  0  0  0  0
  8  3  1  0  0  0  0
  9 12  1  6  0  0  0
  9  2  1  0  0  0  0
 10 13  1  0  0  0  0
 10 11  1  0  0  0  0
 10  9  1  0  0  0  0
 11 15  1  6  0  0  0
 11  9  1  0  0  0  0
 11 16  1  0  0  0  0
 14 10  1  0  0  0  0
 16 19  1  0  0  0  0
 16 18  1  0  0  0  0
 17 16  1  0  0  0  0
 20 22  1  0  0  0  0
 20 23  1  1  0  0  0
 21 20  1  0  0  0  0
 21 22  1  0  0  0  0
 21 25  1  0  0  0  0
 22 26  1  6  0  0  0
 22 28  1  0  0  0  0
 24 21  1  0  0  0  0
 27 32  1  6  0  0  0
 27 31  1  0  0  0  0
 28 27  1  0  0  0  0
 28 29  1  1  0  0  0
 29 30  1  0  0  0  0
 30 31  1  0  0  0  0
 31 34  1  1  0  0  0
 32 33  1  0  0  0  0
 35 34  1  0  0  0  0
M  END
>  <minimizedAffinity>
-5.91410875

>  <minimizedRMSD>
1.91253912

$$$$
