
 OpenBabel03252502493D

 45 48  0  0  1  0  0  0  0  0999 V2000
   38.4270   29.3820   43.1480 C   0  0  0  0  0  0  0  0  0  0  0  0
   38.7450   29.9080   44.0960 H   0  0  0  0  0  0  0  0  0  0  0  0
   37.5510   29.9700   42.8050 H   0  0  0  0  0  0  0  0  0  0  0  0
   38.0710   27.9520   43.3910 C   0  0  1  0  0  0  0  0  0  0  0  0
   36.6180   27.5780   43.3400 C   0  0  0  0  0  0  0  0  0  0  0  0
   37.5710   27.1790   42.2680 C   0  0  2  0  0  0  0  0  0  0  0  0
   38.6190   27.4900   44.2060 H   0  0  0  0  0  0  0  0  0  0  0  0
   35.8820   28.3940   43.1530 H   0  0  0  0  0  0  0  0  0  0  0  0
   36.2140   26.8390   44.0660 H   0  0  0  0  0  0  0  0  0  0  0  0
   37.3150   27.5790   41.2850 H   0  0  0  0  0  0  0  0  0  0  0  0
   37.9270   25.7700   42.3180 N   0  0  0  0  0  0  0  0  0  0  0  0
   39.1640   25.4600   41.7000 C   0  0  0  0  0  0  0  0  0  0  0  0
   39.3430   23.9620   41.8580 C   0  0  0  0  0  0  0  0  0  0  0  0
   38.3290   23.2270   41.1900 N   0  0  0  0  0  0  0  0  0  0  0  0
   37.0710   23.9400   41.0580 C   0  0  0  0  0  0  0  0  0  0  0  0
   36.8710   24.8540   42.2680 C   0  0  0  0  0  0  0  0  0  0  0  0
   39.1770   25.6920   40.6200 H   0  0  0  0  0  0  0  0  0  0  0  0
   40.0040   25.9750   42.1720 H   0  0  0  0  0  0  0  0  0  0  0  0
   39.2860   23.7590   42.9460 H   0  0  0  0  0  0  0  0  0  0  0  0
   40.3600   23.6490   41.5440 H   0  0  0  0  0  0  0  0  0  0  0  0
   38.1750   22.3360   41.7280 H   0  0  0  0  0  0  0  0  0  0  0  0
   36.2130   23.2690   40.9530 H   0  0  0  0  0  0  0  0  0  0  0  0
   37.1610   24.6220   40.1810 H   0  0  0  0  0  0  0  0  0  0  0  0
   36.6930   24.2570   43.1980 H   0  0  0  0  0  0  0  0  0  0  0  0
   35.9070   25.4030   42.0780 H   0  0  0  0  0  0  0  0  0  0  0  0
   39.5060   29.3890   42.1010 C   0  0  0  0  0  0  0  0  0  0  0  0
   40.4770   29.5540   42.6470 H   0  0  0  0  0  0  0  0  0  0  0  0
   39.6490   28.4840   41.5340 H   0  0  0  0  0  0  0  0  0  0  0  0
   38.0010   32.2640   40.2040 C   0  0  0  0  0  0  0  0  0  0  0  0
   38.1040   31.0790   40.9870 C   0  0  0  0  0  0  0  0  0  0  0  0
   39.3580   30.6370   41.2850 C   0  0  0  0  0  0  0  0  0  0  0  0
   40.4340   31.3270   40.8340 N   0  0  0  0  0  0  0  0  0  0  0  0
   40.3300   32.4200   40.1120 C   0  0  0  0  0  0  0  0  0  0  0  0
   39.1270   32.9070   39.7870 N   0  0  0  0  0  0  0  0  0  0  0  0
   36.9750   32.5890   39.9860 H   0  0  0  0  0  0  0  0  0  0  0  0
   37.2300   30.5540   41.3290 H   0  0  0  0  0  0  0  0  0  0  0  0
   41.3470   33.9850   38.4730 C   0  0  1  0  0  3  0  0  0  0  0  0
   41.5700   33.0880   39.6790 C   0  0  2  0  0  3  0  0  0  0  0  0
   42.4990   32.1900   39.1480 O   0  0  0  0  0  0  0  0  0  0  0  0
   43.4840   33.0100   38.6130 C   0  0  0  0  0  2  0  0  0  0  0  0
   42.7750   34.2000   38.0090 C   0  0  1  0  0  3  0  0  0  0  0  0
   40.6740   33.3040   37.4790 O   0  0  0  0  0  0  0  0  0  0  0  0
   41.2930   32.9790   36.7710 H   0  0  0  0  0  0  0  0  0  0  0  0
   42.8560   34.2140   36.6240 O   0  0  0  0  0  0  0  0  0  0  0  0
   43.6510   33.6510   36.3970 H   0  0  0  0  0  0  0  0  0  0  0  0
  1  4  1  0  0  0  0
  1  2  1  0  0  0  0
  3  1  1  0  0  0  0
  4  7  1  1  0  0  0
  5  4  1  0  0  0  0
  5  9  1  0  0  0  0
  6 10  1  6  0  0  0
  6 11  1  0  0  0  0
  6  5  1  0  0  0  0
  6  4  1  0  0  0  0
  8  5  1  0  0  0  0
 12 13  1  0  0  0  0
 12 18  1  0  0  0  0
 12 11  1  0  0  0  0
 13 19  1  0  0  0  0
 14 21  1  0  0  0  0
 14 13  1  0  0  0  0
 15 14  1  0  0  0  0
 15 16  1  0  0  0  0
 16 11  1  0  0  0  0
 16 24  1  0  0  0  0
 17 12  1  0  0  0  0
 20 13  1  0  0  0  0
 22 15  1  0  0  0  0
 23 15  1  0  0  0  0
 25 16  1  0  0  0  0
 26 27  1  0  0  0  0
 26  1  1  0  0  0  0
 28 26  1  0  0  0  0
 29 30  1  0  0  0  0
 30 31  2  0  0  0  0
 30 36  1  0  0  0  0
 31 26  1  0  0  0  0
 32 31  1  0  0  0  0
 33 32  2  0  0  0  0
 34 33  1  0  0  0  0
 34 29  2  0  0  0  0
 35 29  1  0  0  0  0
 37 42  1  6  0  0  0
 37 38  1  0  0  0  0
 38 33  1  6  0  0  0
 39 38  1  0  0  0  0
 40 39  1  0  0  0  0
 41 44  1  6  0  0  0
 41 37  1  0  0  0  0
 41 40  1  0  0  0  0
 43 42  1  0  0  0  0
 45 44  1  0  0  0  0
M  END
>  <minimizedAffinity>
-6.16406727

$$$$

 OpenBabel03252502493D

 45 48  0  0  1  0  0  0  0  0999 V2000
   35.9860   29.3730   38.9680 C   0  0  0  0  0  0  0  0  0  0  0  0
   34.8900   29.5880   39.1430 H   0  0  0  0  0  0  0  0  0  0  0  0
   36.0210   28.2690   38.8620 H   0  0  0  0  0  0  0  0  0  0  0  0
   36.8380   29.8470   40.0980 C   0  0  1  0  0  0  0  0  0  0  0  0
   36.1920   30.7070   41.1460 C   0  0  0  0  0  0  0  0  0  0  0  0
   36.5810   29.2960   41.4180 C   0  0  2  0  0  0  0  0  0  0  0  0
   37.8270   30.1800   39.8010 H   0  0  0  0  0  0  0  0  0  0  0  0
   35.1180   30.9700   41.0050 H   0  0  0  0  0  0  0  0  0  0  0  0
   36.7550   31.5610   41.5820 H   0  0  0  0  0  0  0  0  0  0  0  0
   35.7380   28.6540   41.6840 H   0  0  0  0  0  0  0  0  0  0  0  0
   37.7670   29.1810   42.2500 N   0  0  0  0  0  0  0  0  0  0  0  0
   38.9770   29.0450   41.5260 C   0  0  0  0  0  0  0  0  0  0  0  0
   40.0750   28.9390   42.5670 C   0  0  0  0  0  0  0  0  0  0  0  0
   39.9280   27.7890   43.3870 N   0  0  0  0  0  0  0  0  0  0  0  0
   38.5570   27.3300   43.5220 C   0  0  0  0  0  0  0  0  0  0  0  0
   37.6090   28.5300   43.4790 C   0  0  0  0  0  0  0  0  0  0  0  0
   39.0080   28.1320   40.9050 H   0  0  0  0  0  0  0  0  0  0  0  0
   39.1730   29.9060   40.8820 H   0  0  0  0  0  0  0  0  0  0  0  0
   39.9900   29.8490   43.1960 H   0  0  0  0  0  0  0  0  0  0  0  0
   41.0760   28.9880   42.0940 H   0  0  0  0  0  0  0  0  0  0  0  0
   40.3180   28.0210   44.3350 H   0  0  0  0  0  0  0  0  0  0  0  0
   38.3910   26.7580   44.4410 H   0  0  0  0  0  0  0  0  0  0  0  0
   38.3130   26.7240   42.6200 H   0  0  0  0  0  0  0  0  0  0  0  0
   37.7240   29.1670   44.3910 H   0  0  0  0  0  0  0  0  0  0  0  0
   36.5710   28.0990   43.5440 H   0  0  0  0  0  0  0  0  0  0  0  0
   36.5060   30.0360   37.7230 C   0  0  0  0  0  0  0  0  0  0  0  0
   35.8970   29.6280   36.8680 H   0  0  0  0  0  0  0  0  0  0  0  0
   36.4070   31.1070   37.6570 H   0  0  0  0  0  0  0  0  0  0  0  0
   39.3250   27.7530   36.7380 C   0  0  0  0  0  0  0  0  0  0  0  0
   38.0050   28.2290   36.9830 C   0  0  0  0  0  0  0  0  0  0  0  0
   37.8790   29.5030   37.4480 C   0  0  0  0  0  0  0  0  0  0  0  0
   38.9900   30.2520   37.6540 N   0  0  0  0  0  0  0  0  0  0  0  0
   40.2040   29.8060   37.4260 C   0  0  0  0  0  0  0  0  0  0  0  0
   40.3960   28.5630   36.9680 N   0  0  0  0  0  0  0  0  0  0  0  0
   39.3860   26.7230   36.3650 H   0  0  0  0  0  0  0  0  0  0  0  0
   37.1440   27.6080   36.8080 H   0  0  0  0  0  0  0  0  0  0  0  0
   40.9180   32.1710   37.6890 C   0  0  1  0  0  3  0  0  0  0  0  0
   41.3380   30.7100   37.6860 C   0  0  2  0  0  3  0  0  0  0  0  0
   42.2600   30.7220   36.6370 O   0  0  0  0  0  0  0  0  0  0  0  0
   43.1190   31.7640   36.9620 C   0  0  0  0  0  2  0  0  0  0  0  0
   42.2660   32.8550   37.5640 C   0  0  1  0  0  3  0  0  0  0  0  0
   40.1850   32.4670   36.5570 O   0  0  0  0  0  0  0  0  0  0  0  0
   40.7400   32.9170   35.8650 H   0  0  0  0  0  0  0  0  0  0  0  0
   42.1880   33.9740   36.7470 O   0  0  0  0  0  0  0  0  0  0  0  0
   42.9890   33.9250   36.1500 H   0  0  0  0  0  0  0  0  0  0  0  0
  1  2  1  0  0  0  0
  1  4  1  0  0  0  0
  3  1  1  0  0  0  0
  4  7  1  6  0  0  0
  4  5  1  0  0  0  0
  4  6  1  0  0  0  0
  5  6  1  0  0  0  0
  5  9  1  0  0  0  0
  6 10  1  1  0  0  0
  6 11  1  0  0  0  0
  8  5  1  0  0  0  0
 11 16  1  0  0  0  0
 12 11  1  0  0  0  0
 12 13  1  0  0  0  0
 13 19  1  0  0  0  0
 13 14  1  0  0  0  0
 14 15  1  0  0  0  0
 14 21  1  0  0  0  0
 15 22  1  0  0  0  0
 16 15  1  0  0  0  0
 16 25  1  0  0  0  0
 16 24  1  0  0  0  0
 17 12  1  0  0  0  0
 18 12  1  0  0  0  0
 20 13  1  0  0  0  0
 23 15  1  0  0  0  0
 26  1  1  0  0  0  0
 27 26  1  0  0  0  0
 28 26  1  0  0  0  0
 29 34  2  0  0  0  0
 29 30  1  0  0  0  0
 30 31  2  0  0  0  0
 31 32  1  0  0  0  0
 31 26  1  0  0  0  0
 33 32  2  0  0  0  0
 34 33  1  0  0  0  0
 35 29  1  0  0  0  0
 36 30  1  0  0  0  0
 37 42  1  6  0  0  0
 38 33  1  6  0  0  0
 38 37  1  0  0  0  0
 39 40  1  0  0  0  0
 39 38  1  0  0  0  0
 40 41  1  0  0  0  0
 41 44  1  6  0  0  0
 41 37  1  0  0  0  0
 43 42  1  0  0  0  0
 45 44  1  0  0  0  0
M  END
>  <minimizedAffinity>
-5.9121213

$$$$

 OpenBabel03252502493D

 45 48  0  0  1  0  0  0  0  0999 V2000
   37.4390   29.8420   41.9350 C   0  0  0  0  0  0  0  0  0  0  0  0
   37.3620   30.8530   42.4340 H   0  0  0  0  0  0  0  0  0  0  0  0
   36.3890   29.6030   41.6680 H   0  0  0  0  0  0  0  0  0  0  0  0
   38.0270   28.8110   42.8410 C   0  0  1  0  0  0  0  0  0  0  0  0
   37.0810   28.0000   43.6800 C   0  0  0  0  0  0  0  0  0  0  0  0
   37.8000   27.4140   42.5150 C   0  0  2  0  0  0  0  0  0  0  0  0
   38.9170   29.1390   43.3690 H   0  0  0  0  0  0  0  0  0  0  0  0
   35.9940   28.2330   43.6010 H   0  0  0  0  0  0  0  0  0  0  0  0
   37.3570   27.7400   44.7250 H   0  0  0  0  0  0  0  0  0  0  0  0
   37.1350   27.0460   41.7310 H   0  0  0  0  0  0  0  0  0  0  0  0
   38.8910   26.5340   42.9010 N   0  0  0  0  0  0  0  0  0  0  0  0
   40.0600   27.2090   43.3310 C   0  0  0  0  0  0  0  0  0  0  0  0
   41.0620   26.1240   43.6790 C   0  0  0  0  0  0  0  0  0  0  0  0
   41.4080   25.3310   42.5540 N   0  0  0  0  0  0  0  0  0  0  0  0
   40.3710   25.2610   41.5380 C   0  0  0  0  0  0  0  0  0  0  0  0
   38.9960   25.3240   42.2060 C   0  0  0  0  0  0  0  0  0  0  0  0
   40.5060   27.8430   42.5440 H   0  0  0  0  0  0  0  0  0  0  0  0
   39.8800   27.8290   44.2110 H   0  0  0  0  0  0  0  0  0  0  0  0
   40.5690   25.4840   44.4390 H   0  0  0  0  0  0  0  0  0  0  0  0
   41.9550   26.5540   44.1760 H   0  0  0  0  0  0  0  0  0  0  0  0
   41.6280   24.3630   42.9010 H   0  0  0  0  0  0  0  0  0  0  0  0
   40.4440   24.3600   40.9220 H   0  0  0  0  0  0  0  0  0  0  0  0
   40.4450   26.1830   40.9180 H   0  0  0  0  0  0  0  0  0  0  0  0
   38.7930   24.3970   42.7980 H   0  0  0  0  0  0  0  0  0  0  0  0
   38.2490   25.3100   41.3630 H   0  0  0  0  0  0  0  0  0  0  0  0
   38.2980   29.8780   40.7020 C   0  0  0  0  0  0  0  0  0  0  0  0
   39.3080   29.4830   41.0070 H   0  0  0  0  0  0  0  0  0  0  0  0
   37.9930   29.2650   39.8700 H   0  0  0  0  0  0  0  0  0  0  0  0
   37.8330   33.5230   39.9100 C   0  0  0  0  0  0  0  0  0  0  0  0
   37.5290   32.1690   40.2340 C   0  0  0  0  0  0  0  0  0  0  0  0
   38.5790   31.3120   40.3680 C   0  0  0  0  0  0  0  0  0  0  0  0
   39.8430   31.7700   40.1930 N   0  0  0  0  0  0  0  0  0  0  0  0
   40.1140   33.0200   39.8950 C   0  0  0  0  0  0  0  0  0  0  0  0
   39.1280   33.9120   39.7510 N   0  0  0  0  0  0  0  0  0  0  0  0
   36.9620   34.1830   39.8110 H   0  0  0  0  0  0  0  0  0  0  0  0
   36.5140   31.8380   40.3660 H   0  0  0  0  0  0  0  0  0  0  0  0
   41.7610   34.1950   38.4540 C   0  0  1  0  0  3  0  0  0  0  0  0
   41.5270   33.4050   39.7300 C   0  0  2  0  0  3  0  0  0  0  0  0
   42.3530   32.3040   39.4910 O   0  0  0  0  0  0  0  0  0  0  0  0
   43.5750   32.8730   39.1570 C   0  0  0  0  0  2  0  0  0  0  0  0
   43.2690   34.1000   38.3310 C   0  0  1  0  0  3  0  0  0  0  0  0
   41.2040   33.5450   37.3710 O   0  0  0  0  0  0  0  0  0  0  0  0
   41.8860   33.0410   36.8520 H   0  0  0  0  0  0  0  0  0  0  0  0
   43.6570   33.9530   37.0070 O   0  0  0  0  0  0  0  0  0  0  0  0
   44.3540   33.2360   37.0100 H   0  0  0  0  0  0  0  0  0  0  0  0
  1  2  1  0  0  0  0
  1  4  1  0  0  0  0
  3  1  1  0  0  0  0
  4  7  1  1  0  0  0
  4  5  1  0  0  0  0
  5  9  1  0  0  0  0
  6 10  1  6  0  0  0
  6  4  1  0  0  0  0
  6 11  1  0  0  0  0
  6  5  1  0  0  0  0
  8  5  1  0  0  0  0
 11 12  1  0  0  0  0
 12 13  1  0  0  0  0
 12 18  1  0  0  0  0
 13 20  1  0  0  0  0
 13 19  1  0  0  0  0
 14 21  1  0  0  0  0
 14 13  1  0  0  0  0
 15 16  1  0  0  0  0
 15 14  1  0  0  0  0
 16 24  1  0  0  0  0
 16 11  1  0  0  0  0
 17 12  1  0  0  0  0
 22 15  1  0  0  0  0
 23 15  1  0  0  0  0
 25 16  1  0  0  0  0
 26 27  1  0  0  0  0
 26  1  1  0  0  0  0
 28 26  1  0  0  0  0
 29 30  1  0  0  0  0
 30 36  1  0  0  0  0
 30 31  2  0  0  0  0
 31 26  1  0  0  0  0
 32 31  1  0  0  0  0
 33 32  2  0  0  0  0
 34 33  1  0  0  0  0
 34 29  2  0  0  0  0
 35 29  1  0  0  0  0
 37 42  1  6  0  0  0
 37 38  1  0  0  0  0
 38 33  1  6  0  0  0
 39 38  1  0  0  0  0
 40 39  1  0  0  0  0
 41 44  1  6  0  0  0
 41 37  1  0  0  0  0
 41 40  1  0  0  0  0
 43 42  1  0  0  0  0
 44 45  1  0  0  0  0
M  END
>  <minimizedAffinity>
-5.71436977

$$$$

 OpenBabel03252502493D

 45 48  0  0  1  0  0  0  0  0999 V2000
   36.8110   29.2200   41.2820 C   0  0  0  0  0  0  0  0  0  0  0  0
   36.7320   30.1750   41.8810 H   0  0  0  0  0  0  0  0  0  0  0  0
   35.7530   28.9190   41.1300 H   0  0  0  0  0  0  0  0  0  0  0  0
   37.5850   28.1660   42.0040 C   0  0  1  0  0  0  0  0  0  0  0  0
   37.5890   28.2110   43.5060 C   0  0  0  0  0  0  0  0  0  0  0  0
   36.8380   27.1700   42.7520 C   0  0  2  0  0  0  0  0  0  0  0  0
   38.5530   27.9460   41.5660 H   0  0  0  0  0  0  0  0  0  0  0  0
   37.0390   29.0460   43.9970 H   0  0  0  0  0  0  0  0  0  0  0  0
   38.5210   27.9690   44.0610 H   0  0  0  0  0  0  0  0  0  0  0  0
   35.7620   27.1890   42.9350 H   0  0  0  0  0  0  0  0  0  0  0  0
   37.4750   25.8640   42.7930 N   0  0  0  0  0  0  0  0  0  0  0  0
   38.8910   25.9060   42.7710 C   0  0  0  0  0  0  0  0  0  0  0  0
   39.3500   24.4600   42.8170 C   0  0  0  0  0  0  0  0  0  0  0  0
   38.9200   23.7240   41.6820 N   0  0  0  0  0  0  0  0  0  0  0  0
   37.6990   24.2270   41.0780 C   0  0  0  0  0  0  0  0  0  0  0  0
   36.7960   24.8150   42.1640 C   0  0  0  0  0  0  0  0  0  0  0  0
   39.2960   26.3610   41.8500 H   0  0  0  0  0  0  0  0  0  0  0  0
   39.3030   26.4410   43.6290 H   0  0  0  0  0  0  0  0  0  0  0  0
   38.8960   24.0230   43.7300 H   0  0  0  0  0  0  0  0  0  0  0  0
   40.4470   24.3960   42.9640 H   0  0  0  0  0  0  0  0  0  0  0  0
   38.7800   22.7260   41.9840 H   0  0  0  0  0  0  0  0  0  0  0  0
   37.1560   23.4590   40.5180 H   0  0  0  0  0  0  0  0  0  0  0  0
   37.9750   25.0850   40.4230 H   0  0  0  0  0  0  0  0  0  0  0  0
   36.3990   24.0130   42.8360 H   0  0  0  0  0  0  0  0  0  0  0  0
   35.8960   25.2220   41.6230 H   0  0  0  0  0  0  0  0  0  0  0  0
   37.4920   29.4300   39.9590 C   0  0  0  0  0  0  0  0  0  0  0  0
   38.4860   28.9060   40.0270 H   0  0  0  0  0  0  0  0  0  0  0  0
   37.0120   29.0170   39.0870 H   0  0  0  0  0  0  0  0  0  0  0  0
   37.3110   33.1490   39.4470 C   0  0  0  0  0  0  0  0  0  0  0  0
   36.9100   31.7860   39.5450 C   0  0  0  0  0  0  0  0  0  0  0  0
   37.8740   30.8750   39.8540 C   0  0  0  0  0  0  0  0  0  0  0  0
   39.1490   31.2920   40.0520 N   0  0  0  0  0  0  0  0  0  0  0  0
   39.5100   32.5520   39.9600 C   0  0  0  0  0  0  0  0  0  0  0  0
   38.6100   33.4960   39.6610 N   0  0  0  0  0  0  0  0  0  0  0  0
   36.5060   33.8530   39.1970 H   0  0  0  0  0  0  0  0  0  0  0  0
   35.8890   31.4880   39.3810 H   0  0  0  0  0  0  0  0  0  0  0  0
   41.5420   32.0340   41.2920 C   0  0  1  0  0  3  0  0  0  0  0  0
   40.9250   32.8890   40.1980 C   0  0  2  0  0  3  0  0  0  0  0  0
   41.0810   34.1580   40.7590 O   0  0  0  0  0  0  0  0  0  0  0  0
   42.4270   34.2060   41.1000 C   0  0  0  0  0  2  0  0  0  0  0  0
   42.7960   32.8300   41.6020 C   0  0  1  0  0  3  0  0  0  0  0  0
   40.7460   32.0390   42.4190 O   0  0  0  0  0  0  0  0  0  0  0  0
   41.0850   32.6710   43.1080 H   0  0  0  0  0  0  0  0  0  0  0  0
   43.0710   32.8230   42.9620 O   0  0  0  0  0  0  0  0  0  0  0  0
   43.3080   33.7670   43.1920 H   0  0  0  0  0  0  0  0  0  0  0  0
  1  2  1  0  0  0  0
  1  4  1  0  0  0  0
  3  1  1  0  0  0  0
  4  7  1  6  0  0  0
  4  6  1  0  0  0  0
  4  5  1  0  0  0  0
  5  8  1  0  0  0  0
  5  9  1  0  0  0  0
  6 11  1  0  0  0  0
  6 10  1  6  0  0  0
  6  5  1  0  0  0  0
 12 11  1  0  0  0  0
 12 13  1  0  0  0  0
 12 18  1  0  0  0  0
 13 20  1  0  0  0  0
 13 19  1  0  0  0  0
 14 21  1  0  0  0  0
 14 13  1  0  0  0  0
 15 14  1  0  0  0  0
 15 16  1  0  0  0  0
 16 11  1  0  0  0  0
 16 24  1  0  0  0  0
 17 12  1  0  0  0  0
 22 15  1  0  0  0  0
 23 15  1  0  0  0  0
 25 16  1  0  0  0  0
 26 27  1  0  0  0  0
 26  1  1  0  0  0  0
 28 26  1  0  0  0  0
 29 30  2  0  0  0  0
 29 34  1  0  0  0  0
 30 31  1  0  0  0  0
 31 26  1  0  0  0  0
 31 32  2  0  0  0  0
 33 32  1  0  0  0  0
 34 33  2  0  0  0  0
 35 29  1  0  0  0  0
 36 30  1  0  0  0  0
 37 41  1  0  0  0  0
 37 42  1  1  0  0  0
 38 33  1  1  0  0  0
 38 39  1  0  0  0  0
 38 37  1  0  0  0  0
 39 40  1  0  0  0  0
 40 41  1  0  0  0  0
 41 44  1  1  0  0  0
 42 43  1  0  0  0  0
 44 45  1  0  0  0  0
M  END
>  <minimizedAffinity>
-5.7072134

$$$$

 OpenBabel03252502493D

 45 48  0  0  1  0  0  0  0  0999 V2000
   36.0330   29.6510   39.5610 C   0  0  0  0  0  0  0  0  0  0  0  0
   36.2400   28.7180   38.9570 H   0  0  0  0  0  0  0  0  0  0  0  0
   35.1450   30.0910   39.0640 H   0  0  0  0  0  0  0  0  0  0  0  0
   37.1920   30.5930   39.5560 C   0  0  1  0  0  0  0  0  0  0  0  0
   37.2480   31.6220   38.4640 C   0  0  0  0  0  0  0  0  0  0  0  0
   36.9330   31.9860   39.8730 C   0  0  2  0  0  0  0  0  0  0  0  0
   38.1470   30.1240   39.7710 H   0  0  0  0  0  0  0  0  0  0  0  0
   36.4370   31.6070   37.7000 H   0  0  0  0  0  0  0  0  0  0  0  0
   38.2250   31.8800   38.0000 H   0  0  0  0  0  0  0  0  0  0  0  0
   35.9460   32.4360   39.9980 H   0  0  0  0  0  0  0  0  0  0  0  0
   38.0350   32.6510   40.5500 N   0  0  0  0  0  0  0  0  0  0  0  0
   38.5010   33.8190   39.8980 C   0  0  0  0  0  0  0  0  0  0  0  0
   39.6360   34.3480   40.7550 C   0  0  0  0  0  0  0  0  0  0  0  0
   40.7190   33.4350   40.8350 N   0  0  0  0  0  0  0  0  0  0  0  0
   40.3340   32.0440   40.6680 C   0  0  0  0  0  0  0  0  0  0  0  0
   38.9330   31.8290   41.2410 C   0  0  0  0  0  0  0  0  0  0  0  0
   38.9020   33.6190   38.8890 H   0  0  0  0  0  0  0  0  0  0  0  0
   37.7250   34.5840   39.8150 H   0  0  0  0  0  0  0  0  0  0  0  0
   39.2100   34.5000   41.7680 H   0  0  0  0  0  0  0  0  0  0  0  0
   39.9600   35.3500   40.4080 H   0  0  0  0  0  0  0  0  0  0  0  0
   41.1770   33.5650   41.7730 H   0  0  0  0  0  0  0  0  0  0  0  0
   41.0390   31.3520   41.1380 H   0  0  0  0  0  0  0  0  0  0  0  0
   40.2430   31.8480   39.5750 H   0  0  0  0  0  0  0  0  0  0  0  0
   38.9330   31.9300   42.3550 H   0  0  0  0  0  0  0  0  0  0  0  0
   38.6840   30.7500   41.0390 H   0  0  0  0  0  0  0  0  0  0  0  0
   35.7290   29.3430   41.0010 C   0  0  0  0  0  0  0  0  0  0  0  0
   36.0290   30.2550   41.5900 H   0  0  0  0  0  0  0  0  0  0  0  0
   34.6990   29.1640   41.2600 H   0  0  0  0  0  0  0  0  0  0  0  0
   38.2850   27.4990   43.0490 C   0  0  0  0  0  0  0  0  0  0  0  0
   37.3690   28.5090   42.6370 C   0  0  0  0  0  0  0  0  0  0  0  0
   36.6970   28.3000   41.4710 C   0  0  0  0  0  0  0  0  0  0  0  0
   36.9200   27.1640   40.7640 N   0  0  0  0  0  0  0  0  0  0  0  0
   37.7670   26.2380   41.1520 C   0  0  0  0  0  0  0  0  0  0  0  0
   38.4580   26.3830   42.2890 N   0  0  0  0  0  0  0  0  0  0  0  0
   38.8080   27.7030   43.9930 H   0  0  0  0  0  0  0  0  0  0  0  0
   37.2150   29.3990   43.2200 H   0  0  0  0  0  0  0  0  0  0  0  0
   37.3510   23.7960   40.9530 C   0  0  1  0  0  3  0  0  0  0  0  0
   37.9280   25.0430   40.3040 C   0  0  2  0  0  3  0  0  0  0  0  0
   39.2640   24.6590   40.1760 O   0  0  0  0  0  0  0  0  0  0  0  0
   39.1950   23.4270   39.5390 C   0  0  0  0  0  2  0  0  0  0  0  0
   37.9920   22.7130   40.1070 C   0  0  1  0  0  3  0  0  0  0  0  0
   37.8200   23.6610   42.2440 O   0  0  0  0  0  0  0  0  0  0  0  0
   38.5660   23.0050   42.2990 H   0  0  0  0  0  0  0  0  0  0  0  0
   38.3460   21.6160   40.8800 O   0  0  0  0  0  0  0  0  0  0  0  0
   39.2650   21.3620   40.5770 H   0  0  0  0  0  0  0  0  0  0  0  0
  1 26  1  0  0  0  0
  2  1  1  0  0  0  0
  3  1  1  0  0  0  0
  4  1  1  0  0  0  0
  4  7  1  1  0  0  0
  4  6  1  0  0  0  0
  5  4  1  0  0  0  0
  5  6  1  0  0  0  0
  6 10  1  1  0  0  0
  6 11  1  0  0  0  0
  8  5  1  0  0  0  0
  9  5  1  0  0  0  0
 11 16  1  0  0  0  0
 12 11  1  0  0  0  0
 12 13  1  0  0  0  0
 13 14  1  0  0  0  0
 13 19  1  0  0  0  0
 14 21  1  0  0  0  0
 15 14  1  0  0  0  0
 15 22  1  0  0  0  0
 15 16  1  0  0  0  0
 16 24  1  0  0  0  0
 17 12  1  0  0  0  0
 18 12  1  0  0  0  0
 20 13  1  0  0  0  0
 23 15  1  0  0  0  0
 25 16  1  0  0  0  0
 26 28  1  0  0  0  0
 26 31  1  0  0  0  0
 26 27  1  0  0  0  0
 29 35  1  0  0  0  0
 30 29  1  0  0  0  0
 30 36  1  0  0  0  0
 31 30  2  0  0  0  0
 32 33  2  0  0  0  0
 32 31  1  0  0  0  0
 33 34  1  0  0  0  0
 34 29  2  0  0  0  0
 37 42  1  1  0  0  0
 38 37  1  0  0  0  0
 38 33  1  1  0  0  0
 39 38  1  0  0  0  0
 40 41  1  0  0  0  0
 40 39  1  0  0  0  0
 41 44  1  1  0  0  0
 41 37  1  0  0  0  0
 42 43  1  0  0  0  0
 45 44  1  0  0  0  0
M  END
>  <minimizedAffinity>
-5.63154459

$$$$

 OpenBabel03252502493D

 45 48  0  0  1  0  0  0  0  0999 V2000
   36.5920   27.5670   42.8360 C   0  0  0  0  0  0  0  0  0  0  0  0
   35.8900   27.4740   43.7170 H   0  0  0  0  0  0  0  0  0  0  0  0
   35.9090   27.7210   41.9750 H   0  0  0  0  0  0  0  0  0  0  0  0
   37.4360   26.3490   42.6590 C   0  0  1  0  0  0  0  0  0  0  0  0
   37.1930   25.5020   41.4420 C   0  0  0  0  0  0  0  0  0  0  0  0
   38.4090   26.3500   41.5800 C   0  0  2  0  0  0  0  0  0  0  0  0
   37.5930   25.7800   43.5700 H   0  0  0  0  0  0  0  0  0  0  0  0
   36.3740   25.8140   40.7540 H   0  0  0  0  0  0  0  0  0  0  0  0
   37.2430   24.3950   41.5240 H   0  0  0  0  0  0  0  0  0  0  0  0
   38.4980   27.1150   40.8070 H   0  0  0  0  0  0  0  0  0  0  0  0
   39.6100   25.5830   41.8680 N   0  0  0  0  0  0  0  0  0  0  0  0
   40.4570   26.1700   42.8400 C   0  0  0  0  0  0  0  0  0  0  0  0
   41.6360   25.2260   42.9880 C   0  0  0  0  0  0  0  0  0  0  0  0
   42.3780   25.1000   41.7850 N   0  0  0  0  0  0  0  0  0  0  0  0
   41.5970   25.3310   40.5820 C   0  0  0  0  0  0  0  0  0  0  0  0
   40.1600   24.8570   40.8060 C   0  0  0  0  0  0  0  0  0  0  0  0
   40.8480   27.1550   42.5330 H   0  0  0  0  0  0  0  0  0  0  0  0
   39.9620   26.2830   43.8070 H   0  0  0  0  0  0  0  0  0  0  0  0
   41.2060   24.2390   43.2580 H   0  0  0  0  0  0  0  0  0  0  0  0
   42.2760   25.5220   43.8440 H   0  0  0  0  0  0  0  0  0  0  0  0
   42.7850   24.1310   41.7620 H   0  0  0  0  0  0  0  0  0  0  0  0
   42.0200   24.8340   39.7030 H   0  0  0  0  0  0  0  0  0  0  0  0
   41.5290   26.4320   40.4300 H   0  0  0  0  0  0  0  0  0  0  0  0
   40.1120   23.7430   40.8940 H   0  0  0  0  0  0  0  0  0  0  0  0
   39.6070   25.1050   39.8570 H   0  0  0  0  0  0  0  0  0  0  0  0
   37.5320   28.7320   42.9740 C   0  0  0  0  0  0  0  0  0  0  0  0
   37.1060   29.3890   43.7840 H   0  0  0  0  0  0  0  0  0  0  0  0
   38.5410   28.5170   43.2850 H   0  0  0  0  0  0  0  0  0  0  0  0
   36.1380   30.4230   39.9200 C   0  0  0  0  0  0  0  0  0  0  0  0
   36.2170   29.6100   41.0870 C   0  0  0  0  0  0  0  0  0  0  0  0
   37.4090   29.5820   41.7460 C   0  0  0  0  0  0  0  0  0  0  0  0
   38.4500   30.3130   41.2770 N   0  0  0  0  0  0  0  0  0  0  0  0
   38.3680   31.0600   40.2000 C   0  0  0  0  0  0  0  0  0  0  0  0
   37.2250   31.1320   39.5080 N   0  0  0  0  0  0  0  0  0  0  0  0
   35.1630   30.4200   39.4170 H   0  0  0  0  0  0  0  0  0  0  0  0
   35.3720   29.0410   41.4330 H   0  0  0  0  0  0  0  0  0  0  0  0
   40.6010   31.9030   40.8920 C   0  0  1  0  0  3  0  0  0  0  0  0
   39.5650   31.8130   39.7840 C   0  0  2  0  0  3  0  0  0  0  0  0
   39.2980   33.1700   39.5880 O   0  0  0  0  0  0  0  0  0  0  0  0
   40.5550   33.7340   39.4160 C   0  0  0  0  0  2  0  0  0  0  0  0
   41.4840   33.0190   40.3680 C   0  0  1  0  0  3  0  0  0  0  0  0
   40.0190   32.3370   42.0660 O   0  0  0  0  0  0  0  0  0  0  0  0
   40.1790   33.3060   42.2210 H   0  0  0  0  0  0  0  0  0  0  0  0
   41.9180   33.8410   41.3970 O   0  0  0  0  0  0  0  0  0  0  0  0
   41.8050   34.7760   41.0590 H   0  0  0  0  0  0  0  0  0  0  0  0
  1 26  1  0  0  0  0
  1  2  1  0  0  0  0
  3  1  1  0  0  0  0
  4  1  1  0  0  0  0
  4  7  1  1  0  0  0
  5  9  1  0  0  0  0
  5  6  1  0  0  0  0
  5  4  1  0  0  0  0
  6 10  1  6  0  0  0
  6 11  1  0  0  0  0
  6  4  1  0  0  0  0
  8  5  1  0  0  0  0
 11 12  1  0  0  0  0
 12 13  1  0  0  0  0
 12 18  1  0  0  0  0
 13 19  1  0  0  0  0
 13 20  1  0  0  0  0
 14 13  1  0  0  0  0
 15 16  1  0  0  0  0
 15 14  1  0  0  0  0
 16 24  1  0  0  0  0
 16 11  1  0  0  0  0
 17 12  1  0  0  0  0
 21 14  1  0  0  0  0
 22 15  1  0  0  0  0
 23 15  1  0  0  0  0
 25 16  1  0  0  0  0
 26 28  1  0  0  0  0
 26 27  1  0  0  0  0
 29 30  1  0  0  0  0
 30 36  1  0  0  0  0
 30 31  2  0  0  0  0
 31 26  1  0  0  0  0
 32 31  1  0  0  0  0
 33 32  2  0  0  0  0
 34 29  2  0  0  0  0
 34 33  1  0  0  0  0
 35 29  1  0  0  0  0
 37 42  1  1  0  0  0
 38 33  1  1  0  0  0
 38 37  1  0  0  0  0
 39 38  1  0  0  0  0
 40 39  1  0  0  0  0
 40 41  1  0  0  0  0
 41 37  1  0  0  0  0
 41 44  1  1  0  0  0
 42 43  1  0  0  0  0
 45 44  1  0  0  0  0
M  END
>  <minimizedAffinity>
-5.54151917

$$$$

 OpenBabel03252502493D

 45 48  0  0  1  0  0  0  0  0999 V2000
   36.8560   24.1610   41.2950 C   0  0  0  0  0  0  0  0  0  0  0  0
   36.1830   23.3500   41.7050 H   0  0  0  0  0  0  0  0  0  0  0  0
   36.3950   25.0970   41.6730 H   0  0  0  0  0  0  0  0  0  0  0  0
   36.9170   24.1380   39.8030 C   0  0  1  0  0  0  0  0  0  0  0  0
   35.6650   23.7700   39.0600 C   0  0  0  0  0  0  0  0  0  0  0  0
   36.1860   25.1640   39.0800 C   0  0  2  0  0  0  0  0  0  0  0  0
   37.8190   23.6880   39.4020 H   0  0  0  0  0  0  0  0  0  0  0  0
   34.7670   23.5030   39.6640 H   0  0  0  0  0  0  0  0  0  0  0  0
   35.7330   23.1360   38.1490 H   0  0  0  0  0  0  0  0  0  0  0  0
   35.4940   25.8820   39.5250 H   0  0  0  0  0  0  0  0  0  0  0  0
   36.8080   25.5600   37.8270 N   0  0  0  0  0  0  0  0  0  0  0  0
   35.8960   25.7650   36.7630 C   0  0  0  0  0  0  0  0  0  0  0  0
   36.7390   26.1630   35.5650 C   0  0  0  0  0  0  0  0  0  0  0  0
   37.6360   25.1350   35.1750 N   0  0  0  0  0  0  0  0  0  0  0  0
   38.0310   24.2510   36.2590 C   0  0  0  0  0  0  0  0  0  0  0  0
   38.0810   25.0400   37.5690 C   0  0  0  0  0  0  0  0  0  0  0  0
   35.3330   24.8540   36.4950 H   0  0  0  0  0  0  0  0  0  0  0  0
   35.1800   26.5610   36.9790 H   0  0  0  0  0  0  0  0  0  0  0  0
   37.3190   27.0540   35.8810 H   0  0  0  0  0  0  0  0  0  0  0  0
   36.0990   26.4990   34.7240 H   0  0  0  0  0  0  0  0  0  0  0  0
   38.4890   25.5940   34.7660 H   0  0  0  0  0  0  0  0  0  0  0  0
   38.9960   23.7670   36.0790 H   0  0  0  0  0  0  0  0  0  0  0  0
   37.2210   23.5000   36.3930 H   0  0  0  0  0  0  0  0  0  0  0  0
   38.9220   25.7770   37.5630 H   0  0  0  0  0  0  0  0  0  0  0  0
   38.3480   24.2890   38.3640 H   0  0  0  0  0  0  0  0  0  0  0  0
   38.2690   24.0340   41.7910 C   0  0  0  0  0  0  0  0  0  0  0  0
   38.2160   23.4640   42.7600 H   0  0  0  0  0  0  0  0  0  0  0  0
   38.9600   23.4830   41.1750 H   0  0  0  0  0  0  0  0  0  0  0  0
   39.9910   26.7940   43.6750 C   0  0  0  0  0  0  0  0  0  0  0  0
   39.5700   25.4880   43.2930 C   0  0  0  0  0  0  0  0  0  0  0  0
   38.7390   25.3920   42.2180 C   0  0  0  0  0  0  0  0  0  0  0  0
   38.3540   26.5170   41.5680 N   0  0  0  0  0  0  0  0  0  0  0  0
   38.7470   27.7180   41.9270 C   0  0  0  0  0  0  0  0  0  0  0  0
   39.5640   27.8800   42.9740 N   0  0  0  0  0  0  0  0  0  0  0  0
   40.6590   26.8310   44.5440 H   0  0  0  0  0  0  0  0  0  0  0  0
   39.8940   24.6140   43.8310 H   0  0  0  0  0  0  0  0  0  0  0  0
   37.5990   29.9190   42.0190 C   0  0  1  0  0  3  0  0  0  0  0  0
   38.2650   28.8700   41.1440 C   0  0  2  0  0  3  0  0  0  0  0  0
   37.1980   28.5350   40.3070 O   0  0  0  0  0  0  0  0  0  0  0  0
   36.7550   29.7610   39.8280 C   0  0  0  0  0  2  0  0  0  0  0  0
   36.8670   30.7390   40.9730 C   0  0  1  0  0  3  0  0  0  0  0  0
   36.6550   29.3380   42.8410 O   0  0  0  0  0  0  0  0  0  0  0  0
   35.7330   29.4540   42.4840 H   0  0  0  0  0  0  0  0  0  0  0  0
   35.6260   31.1520   41.4370 O   0  0  0  0  0  0  0  0  0  0  0  0
   34.9910   30.9880   40.6810 H   0  0  0  0  0  0  0  0  0  0  0  0
  1  3  1  0  0  0  0
  1  2  1  0  0  0  0
  1 26  1  0  0  0  0
  4  7  1  6  0  0  0
  4  1  1  0  0  0  0
  5  6  1  0  0  0  0
  5  8  1  0  0  0  0
  5  4  1  0  0  0  0
  6 10  1  1  0  0  0
  6  4  1  0  0  0  0
  9  5  1  0  0  0  0
 11  6  1  0  0  0  0
 12 18  1  0  0  0  0
 12 11  1  0  0  0  0
 13 19  1  0  0  0  0
 13 12  1  0  0  0  0
 14 13  1  0  0  0  0
 14 15  1  0  0  0  0
 15 23  1  0  0  0  0
 15 16  1  0  0  0  0
 16 11  1  0  0  0  0
 16 25  1  0  0  0  0
 17 12  1  0  0  0  0
 20 13  1  0  0  0  0
 21 14  1  0  0  0  0
 22 15  1  0  0  0  0
 24 16  1  0  0  0  0
 26 31  1  0  0  0  0
 26 27  1  0  0  0  0
 28 26  1  0  0  0  0
 29 35  1  0  0  0  0
 30 29  1  0  0  0  0
 30 36  1  0  0  0  0
 31 30  2  0  0  0  0
 32 33  2  0  0  0  0
 32 31  1  0  0  0  0
 33 34  1  0  0  0  0
 34 29  2  0  0  0  0
 37 42  1  1  0  0  0
 38 33  1  1  0  0  0
 38 37  1  0  0  0  0
 39 38  1  0  0  0  0
 40 39  1  0  0  0  0
 40 41  1  0  0  0  0
 41 44  1  1  0  0  0
 41 37  1  0  0  0  0
 43 42  1  0  0  0  0
 45 44  1  0  0  0  0
M  END
>  <minimizedAffinity>
-5.5216856

$$$$

 OpenBabel03252502493D

 45 48  0  0  1  0  0  0  0  0999 V2000
   38.8310   29.2610   37.6810 C   0  0  0  0  0  0  0  0  0  0  0  0
   38.7840   28.4760   36.8680 H   0  0  0  0  0  0  0  0  0  0  0  0
   39.8940   29.5810   37.6720 H   0  0  0  0  0  0  0  0  0  0  0  0
   38.4310   28.7150   39.0120 C   0  0  1  0  0  0  0  0  0  0  0  0
   38.8340   27.3050   39.3370 C   0  0  0  0  0  0  0  0  0  0  0  0
   39.4790   28.4770   39.9890 C   0  0  2  0  0  0  0  0  0  0  0  0
   37.4180   28.9650   39.3090 H   0  0  0  0  0  0  0  0  0  0  0  0
   39.3830   26.7330   38.5530 H   0  0  0  0  0  0  0  0  0  0  0  0
   38.1300   26.6450   39.8890 H   0  0  0  0  0  0  0  0  0  0  0  0
   40.5520   28.5470   39.7980 H   0  0  0  0  0  0  0  0  0  0  0  0
   39.0550   28.6690   41.3670 N   0  0  0  0  0  0  0  0  0  0  0  0
   38.4450   27.5320   41.9520 C   0  0  0  0  0  0  0  0  0  0  0  0
   38.0810   27.9390   43.3680 C   0  0  0  0  0  0  0  0  0  0  0  0
   37.1380   29.0000   43.3950 N   0  0  0  0  0  0  0  0  0  0  0  0
   37.1860   29.8650   42.2290 C   0  0  0  0  0  0  0  0  0  0  0  0
   38.6240   29.9530   41.7170 C   0  0  0  0  0  0  0  0  0  0  0  0
   37.5180   27.2260   41.4370 H   0  0  0  0  0  0  0  0  0  0  0  0
   39.1190   26.6720   41.9870 H   0  0  0  0  0  0  0  0  0  0  0  0
   39.0250   28.2770   43.8420 H   0  0  0  0  0  0  0  0  0  0  0  0
   37.7410   27.0640   43.9570 H   0  0  0  0  0  0  0  0  0  0  0  0
   37.3200   29.5660   44.2620 H   0  0  0  0  0  0  0  0  0  0  0  0
   36.8010   30.8690   42.4310 H   0  0  0  0  0  0  0  0  0  0  0  0
   36.6100   29.3660   41.4160 H   0  0  0  0  0  0  0  0  0  0  0  0
   39.2750   30.5110   42.4360 H   0  0  0  0  0  0  0  0  0  0  0  0
   38.5790   30.5970   40.7940 H   0  0  0  0  0  0  0  0  0  0  0  0
   37.9280   30.4290   37.4000 C   0  0  0  0  0  0  0  0  0  0  0  0
   38.2180   30.8170   36.3840 H   0  0  0  0  0  0  0  0  0  0  0  0
   36.8710   30.2310   37.3380 H   0  0  0  0  0  0  0  0  0  0  0  0
   37.7400   33.2620   39.8630 C   0  0  0  0  0  0  0  0  0  0  0  0
   37.3360   32.1980   39.0070 C   0  0  0  0  0  0  0  0  0  0  0  0
   38.3150   31.5500   38.3160 C   0  0  0  0  0  0  0  0  0  0  0  0
   39.6070   31.9350   38.4670 N   0  0  0  0  0  0  0  0  0  0  0  0
   39.9700   32.9180   39.2590 C   0  0  0  0  0  0  0  0  0  0  0  0
   39.0570   33.5930   39.9660 N   0  0  0  0  0  0  0  0  0  0  0  0
   36.9240   33.7590   40.4030 H   0  0  0  0  0  0  0  0  0  0  0  0
   36.3030   31.9170   38.9100 H   0  0  0  0  0  0  0  0  0  0  0  0
   41.8600   34.1270   38.1910 C   0  0  1  0  0  3  0  0  0  0  0  0
   41.4040   33.2480   39.3440 C   0  0  2  0  0  3  0  0  0  0  0  0
   42.2190   32.1330   39.1400 O   0  0  0  0  0  0  0  0  0  0  0  0
   43.4970   32.6680   39.0460 C   0  0  0  0  0  2  0  0  0  0  0  0
   43.3650   33.9700   38.2920 C   0  0  1  0  0  3  0  0  0  0  0  0
   41.4570   33.5920   36.9840 O   0  0  0  0  0  0  0  0  0  0  0  0
   42.1940   33.0990   36.5340 H   0  0  0  0  0  0  0  0  0  0  0  0
   43.9490   33.9120   37.0350 O   0  0  0  0  0  0  0  0  0  0  0  0
   44.6130   33.1650   37.0830 H   0  0  0  0  0  0  0  0  0  0  0  0
  1  4  1  0  0  0  0
  2  1  1  0  0  0  0
  3  1  1  0  0  0  0
  4  7  1  1  0  0  0
  4  5  1  0  0  0  0
  4  6  1  0  0  0  0
  5  9  1  0  0  0  0
  5  6  1  0  0  0  0
  6 10  1  6  0  0  0
  6 11  1  0  0  0  0
  8  5  1  0  0  0  0
 11 16  1  0  0  0  0
 11 12  1  0  0  0  0
 12 18  1  0  0  0  0
 12 13  1  0  0  0  0
 13 14  1  0  0  0  0
 13 19  1  0  0  0  0
 13 20  1  0  0  0  0
 14 21  1  0  0  0  0
 15 22  1  0  0  0  0
 15 14  1  0  0  0  0
 16 15  1  0  0  0  0
 16 24  1  0  0  0  0
 17 12  1  0  0  0  0
 23 15  1  0  0  0  0
 25 16  1  0  0  0  0
 26  1  1  0  0  0  0
 26 31  1  0  0  0  0
 27 26  1  0  0  0  0
 28 26  1  0  0  0  0
 29 34  1  0  0  0  0
 29 35  1  0  0  0  0
 30 29  2  0  0  0  0
 31 32  2  0  0  0  0
 31 30  1  0  0  0  0
 32 33  1  0  0  0  0
 33 34  2  0  0  0  0
 36 30  1  0  0  0  0
 37 42  1  6  0  0  0
 37 41  1  0  0  0  0
 37 38  1  0  0  0  0
 38 33  1  6  0  0  0
 39 38  1  0  0  0  0
 40 39  1  0  0  0  0
 41 44  1  6  0  0  0
 41 40  1  0  0  0  0
 43 42  1  0  0  0  0
 44 45  1  0  0  0  0
M  END
>  <minimizedAffinity>
-5.5162549

$$$$

 OpenBabel03252502493D

 45 48  0  0  1  0  0  0  0  0999 V2000
   36.4850   30.4630   38.4860 C   0  0  0  0  0  0  0  0  0  0  0  0
   35.9010   31.4300   38.5320 H   0  0  0  0  0  0  0  0  0  0  0  0
   35.9970   29.9040   37.6620 H   0  0  0  0  0  0  0  0  0  0  0  0
   36.4250   29.7110   39.7750 C   0  0  1  0  0  0  0  0  0  0  0  0
   35.1120   29.0900   40.1590 C   0  0  0  0  0  0  0  0  0  0  0  0
   36.2690   28.2680   39.7090 C   0  0  2  0  0  0  0  0  0  0  0  0
   36.9440   30.1930   40.5960 H   0  0  0  0  0  0  0  0  0  0  0  0
   34.2470   29.2520   39.4760 H   0  0  0  0  0  0  0  0  0  0  0  0
   34.7870   29.1050   41.2220 H   0  0  0  0  0  0  0  0  0  0  0  0
   36.0690   27.6920   38.8030 H   0  0  0  0  0  0  0  0  0  0  0  0
   36.9200   27.5540   40.7960 N   0  0  0  0  0  0  0  0  0  0  0  0
   36.5460   27.9970   42.0890 C   0  0  0  0  0  0  0  0  0  0  0  0
   37.3300   27.1370   43.0640 C   0  0  0  0  0  0  0  0  0  0  0  0
   38.7310   27.3160   42.9320 N   0  0  0  0  0  0  0  0  0  0  0  0
   39.1530   27.7250   41.6030 C   0  0  0  0  0  0  0  0  0  0  0  0
   38.2240   27.1050   40.5580 C   0  0  0  0  0  0  0  0  0  0  0  0
   36.8120   29.0510   42.2780 H   0  0  0  0  0  0  0  0  0  0  0  0
   35.4780   27.8710   42.2770 H   0  0  0  0  0  0  0  0  0  0  0  0
   37.0710   26.0860   42.8220 H   0  0  0  0  0  0  0  0  0  0  0  0
   36.9850   27.3020   44.1050 H   0  0  0  0  0  0  0  0  0  0  0  0
   39.1940   26.4070   43.1850 H   0  0  0  0  0  0  0  0  0  0  0  0
   40.1900   27.4520   41.3860 H   0  0  0  0  0  0  0  0  0  0  0  0
   38.9990   28.8250   41.5240 H   0  0  0  0  0  0  0  0  0  0  0  0
   38.3590   25.9960   40.5060 H   0  0  0  0  0  0  0  0  0  0  0  0
   38.5790   27.4970   39.5650 H   0  0  0  0  0  0  0  0  0  0  0  0
   37.9390   30.6880   38.1800 C   0  0  0  0  0  0  0  0  0  0  0  0
   38.5020   29.8540   38.6860 H   0  0  0  0  0  0  0  0  0  0  0  0
   38.2370   30.6450   37.1460 H   0  0  0  0  0  0  0  0  0  0  0  0
   37.9520   34.0370   39.8860 C   0  0  0  0  0  0  0  0  0  0  0  0
   37.4850   32.8910   39.1810 C   0  0  0  0  0  0  0  0  0  0  0  0
   38.3920   31.9060   38.9250 C   0  0  0  0  0  0  0  0  0  0  0  0
   39.6730   32.0530   39.3420 N   0  0  0  0  0  0  0  0  0  0  0  0
   40.0950   33.1140   39.9910 C   0  0  0  0  0  0  0  0  0  0  0  0
   39.2540   34.1160   40.2750 N   0  0  0  0  0  0  0  0  0  0  0  0
   37.1930   34.8080   40.0730 H   0  0  0  0  0  0  0  0  0  0  0  0
   36.4610   32.8050   38.8640 H   0  0  0  0  0  0  0  0  0  0  0  0
   41.8600   32.0780   41.4000 C   0  0  1  0  0  3  0  0  0  0  0  0
   41.5110   33.1640   40.3960 C   0  0  2  0  0  3  0  0  0  0  0  0
   41.8080   34.3010   41.1510 O   0  0  0  0  0  0  0  0  0  0  0  0
   43.0980   34.0680   41.6080 C   0  0  0  0  0  2  0  0  0  0  0  0
   43.1830   32.5950   41.9310 C   0  0  1  0  0  3  0  0  0  0  0  0
   40.9560   32.0740   42.4440 O   0  0  0  0  0  0  0  0  0  0  0  0
   41.3150   32.5400   43.2450 H   0  0  0  0  0  0  0  0  0  0  0  0
   43.3040   32.3600   43.2930 O   0  0  0  0  0  0  0  0  0  0  0  0
   43.6640   33.2100   43.6800 H   0  0  0  0  0  0  0  0  0  0  0  0
  1  2  1  0  0  0  0
  1  4  1  0  0  0  0
  3  1  1  0  0  0  0
  4  5  1  0  0  0  0
  4  7  1  1  0  0  0
  5  9  1  0  0  0  0
  6 10  1  6  0  0  0
  6  4  1  0  0  0  0
  6  5  1  0  0  0  0
  6 11  1  0  0  0  0
  8  5  1  0  0  0  0
 11 12  1  0  0  0  0
 12 18  1  0  0  0  0
 12 17  1  0  0  0  0
 12 13  1  0  0  0  0
 13 20  1  0  0  0  0
 14 13  1  0  0  0  0
 14 21  1  0  0  0  0
 15 14  1  0  0  0  0
 16 11  1  0  0  0  0
 16 15  1  0  0  0  0
 19 13  1  0  0  0  0
 22 15  1  0  0  0  0
 23 15  1  0  0  0  0
 24 16  1  0  0  0  0
 25 16  1  0  0  0  0
 26  1  1  0  0  0  0
 26 27  1  0  0  0  0
 26 31  1  0  0  0  0
 28 26  1  0  0  0  0
 29 35  1  0  0  0  0
 29 34  1  0  0  0  0
 30 29  2  0  0  0  0
 31 30  1  0  0  0  0
 31 32  2  0  0  0  0
 32 33  1  0  0  0  0
 33 34  2  0  0  0  0
 36 30  1  0  0  0  0
 37 41  1  0  0  0  0
 37 42  1  1  0  0  0
 38 33  1  1  0  0  0
 38 39  1  0  0  0  0
 38 37  1  0  0  0  0
 39 40  1  0  0  0  0
 40 41  1  0  0  0  0
 41 44  1  1  0  0  0
 42 43  1  0  0  0  0
 44 45  1  0  0  0  0
M  END
>  <minimizedAffinity>
-5.481462

$$$$
