
 OpenBabel03242523463D

 19 20  0  0  1  0  0  0  0  0999 V2000
   44.7130   35.2120   44.3120 C   0  0  0  0  0  0  0  0  0  0  0  0
   45.4650   35.3600   43.1340 C   0  0  0  0  0  0  0  0  0  0  0  0
   46.6480   34.6160   43.0280 C   0  0  0  0  0  0  0  0  0  0  0  0
   47.0100   33.7950   44.0570 N   0  0  0  0  0  0  0  0  0  0  0  0
   46.2520   33.6880   45.1680 C   0  0  0  0  0  0  0  0  0  0  0  0
   45.1230   34.3840   45.2940 N   0  0  0  0  0  0  0  0  0  0  0  0
   45.2010   36.0010   42.3120 H   0  0  0  0  0  0  0  0  0  0  0  0
   46.6050   33.0120   45.9480 H   0  0  0  0  0  0  0  0  0  0  0  0
   48.5690   33.5250   41.8500 C   0  0  1  0  0  3  0  0  0  0  0  0
   47.5490   34.6450   41.8840 C   0  0  1  0  0  3  0  0  0  0  0  0
   46.8860   34.4120   40.6830 O   0  0  0  0  0  0  0  0  0  0  0  0
   47.8580   34.2160   39.7240 C   0  0  0  0  0  2  0  0  0  0  0  0
   49.0970   33.7230   40.4240 C   0  0  2  0  0  3  0  0  0  0  0  0
   49.5820   33.6720   42.7820 O   0  0  0  0  0  0  0  0  0  0  0  0
   49.8780   32.7910   43.1720 H   0  0  0  0  0  0  0  0  0  0  0  0
   49.5930   32.5470   39.8970 O   0  0  0  0  0  0  0  0  0  0  0  0
   50.5790   32.5870   39.7640 H   0  0  0  0  0  0  0  0  0  0  0  0
   43.5620   35.9370   44.4130 O   0  0  0  0  0  0  0  0  0  0  0  0
   43.5560   36.8810   44.0460 H   0  0  0  0  0  0  0  0  0  0  0  0
  1 18  1  0  0  0  0
  1  6  1  0  0  0  0
  2  1  2  0  0  0  0
  3  2  1  0  0  0  0
  3  4  2  0  0  0  0
  4  5  1  0  0  0  0
  5  6  2  0  0  0  0
  5  8  1  0  0  0  0
  7  2  1  0  0  0  0
  9 10  1  0  0  0  0
  9 14  1  1  0  0  0
 10  3  1  1  0  0  0
 11 10  1  0  0  0  0
 12 13  1  0  0  0  0
 12 11  1  0  0  0  0
 13 16  1  6  0  0  0
 13  9  1  0  0  0  0
 14 15  1  0  0  0  0
 17 16  1  0  0  0  0
 19 18  1  0  0  0  0
M  END
>  <minimizedAffinity>
-4.62076521

>  <minimizedRMSD>
2.17469931

$$$$
