
 OpenBabel03242513373D

 34 37  0  0  1  0  0  0  0  0999 V2000
   47.7340   32.1860   44.1110 C   0  0  0  0  0  0  0  0  0  0  0  0
   47.8340   32.9050   42.9480 C   0  0  0  0  0  0  0  0  0  0  0  0
   47.0340   34.0250   42.8040 C   0  0  0  0  0  0  0  0  0  0  0  0
   46.1490   34.4490   43.7680 C   0  0  0  0  0  0  0  0  0  0  0  0
   45.2600   35.4500   43.9440 N   0  0  0  0  0  0  0  0  0  0  0  0
   44.6590   35.3390   45.1490 C   0  0  0  0  0  0  0  0  0  0  0  0
   45.1860   34.2410   45.7330 N   0  0  0  0  0  0  0  0  0  0  0  0
   46.0990   33.6780   44.9150 C   0  0  0  0  0  0  0  0  0  0  0  0
   46.8630   32.5610   45.1160 C   0  0  0  0  0  0  0  0  0  0  0  0
   48.3700   31.3150   44.1970 H   0  0  0  0  0  0  0  0  0  0  0  0
   47.0890   34.6220   41.8890 H   0  0  0  0  0  0  0  0  0  0  0  0
   45.1010   36.1830   43.2150 H   0  0  0  0  0  0  0  0  0  0  0  0
   43.9120   36.0010   45.5410 H   0  0  0  0  0  0  0  0  0  0  0  0
   49.2110   31.9470   39.6890 C   0  0  0  0  0  0  0  0  0  0  0  0
   50.5650   31.7940   39.9590 C   0  0  0  0  0  0  0  0  0  0  0  0
   50.9790   32.0260   41.2760 C   0  0  0  0  0  0  0  0  0  0  0  0
   50.0610   32.3840   42.2140 N   0  0  0  0  0  0  0  0  0  0  0  0
   48.7490   32.5180   41.8820 C   0  0  0  0  0  0  0  0  0  0  0  0
   48.3210   32.3060   40.6470 N   0  0  0  0  0  0  0  0  0  0  0  0
   48.8400   31.7780   38.6800 H   0  0  0  0  0  0  0  0  0  0  0  0
   52.0320   31.9030   41.4730 H   0  0  0  0  0  0  0  0  0  0  0  0
   51.4490   31.4000   38.8430 C   0  0  0  0  0  0  0  0  0  0  0  0
   52.7270   31.7150   39.2300 F   0  0  0  0  0  0  0  0  0  0  0  0
   51.0930   32.1370   37.7340 F   0  0  0  0  0  0  0  0  0  0  0  0
   51.2710   30.0430   38.6150 F   0  0  0  0  0  0  0  0  0  0  0  0
   46.8680   32.6110   47.6000 C   0  0  1  0  0  0  0  0  0  0  0  0
   46.7840   31.7530   46.3640 C   0  0  1  0  0  0  0  0  0  0  0  0
   45.5990   31.0370   46.4130 O   0  0  0  0  0  0  0  0  0  0  0  0
   45.1710   31.0310   47.7330 C   0  0  0  0  0  0  0  0  0  0  0  0
   45.5620   32.3820   48.2970 C   0  0  1  0  0  0  0  0  0  0  0  0
   47.9230   32.2300   48.4250 O   0  0  0  0  0  0  0  0  0  0  0  0
   48.6630   31.8190   47.9000 H   0  0  0  0  0  0  0  0  0  0  0  0
   45.7520   32.2420   49.6630 O   0  0  0  0  0  0  0  0  0  0  0  0
   46.6350   31.8320   49.8040 H   0  0  0  0  0  0  0  0  0  0  0  0
  1 10  1  0  0  0  0
  1  9  1  0  0  0  0
  2  1  2  0  0  0  0
  3  2  1  0  0  0  0
  3  4  2  0  0  0  0
  4  5  1  0  0  0  0
  4  8  1  0  0  0  0
  5  6  1  0  0  0  0
  6 13  1  0  0  0  0
  6  7  2  0  0  0  0
  8  9  2  0  0  0  0
  8  7  1  0  0  0  0
 11  3  1  0  0  0  0
 12  5  1  0  0  0  0
 14 15  2  0  0  0  0
 14 19  1  0  0  0  0
 15 16  1  0  0  0  0
 16 21  1  0  0  0  0
 16 17  2  0  0  0  0
 18 17  1  0  0  0  0
 18  2  1  0  0  0  0
 19 18  2  0  0  0  0
 20 14  1  0  0  0  0
 22 23  1  0  0  0  0
 22 15  1  0  0  0  0
 24 22  1  0  0  0  0
 25 22  1  0  0  0  0
 26 30  1  0  0  0  0
 26 31  1  1  0  0  0
 27  9  1  6  0  0  0
 27 28  1  0  0  0  0
 27 26  1  0  0  0  0
 28 29  1  0  0  0  0
 29 30  1  0  0  0  0
 30 33  1  1  0  0  0
 32 31  1  0  0  0  0
 33 34  1  0  0  0  0
M  END
>  <minimizedAffinity>
-6.39008904

>  <minimizedRMSD>
4.16840124

$$$$
