
 OpenBabel03252509213D

 25 27  0  0  1  0  0  0  0  0999 V2000
   44.9410   34.2800   43.9390 C   0  0  0  0  0  0  0  0  0  0  0  0
   45.5400   34.7170   42.7180 C   0  0  0  0  0  0  0  0  0  0  0  0
   46.8800   34.4140   42.5970 C   0  0  0  0  0  0  0  0  0  0  0  0
   47.5390   33.7370   43.6080 N   0  0  0  0  0  0  0  0  0  0  0  0
   46.9450   33.3410   44.7390 C   0  0  0  0  0  0  0  0  0  0  0  0
   45.6230   33.6200   44.9030 N   0  0  0  0  0  0  0  0  0  0  0  0
   43.9570   34.3640   44.3140 H   0  0  0  0  0  0  0  0  0  0  0  0
   47.6380   32.8310   45.3880 H   0  0  0  0  0  0  0  0  0  0  0  0
   47.5750   34.7550   41.3100 C   0  0  0  0  0  0  0  0  0  0  0  0
   48.8080   35.6460   41.5770 C   0  0  0  0  0  0  0  0  0  0  0  0
   48.8770   34.1770   41.0730 C   0  0  0  0  0  0  0  0  0  0  0  0
   46.9800   35.2330   40.4900 H   0  0  0  0  0  0  0  0  0  0  0  0
   49.0650   36.3710   40.7880 H   0  0  0  0  0  0  0  0  0  0  0  0
   49.0950   35.8330   42.6060 H   0  0  0  0  0  0  0  0  0  0  0  0
   49.2450   34.0290   40.0170 H   0  0  0  0  0  0  0  0  0  0  0  0
   49.3290   33.4620   41.8050 H   0  0  0  0  0  0  0  0  0  0  0  0
   43.1510   35.1020   42.0290 C   0  0  1  0  0  3  0  0  0  0  0  0
   44.6220   35.3680   41.8290 C   0  0  2  0  0  3  0  0  0  0  0  0
   44.6980   34.7190   40.5600 O   0  0  0  0  0  0  0  0  0  0  0  0
   44.1100   33.4650   40.7300 C   0  0  0  0  0  2  0  0  0  0  0  0
   43.1020   33.6250   41.8800 C   0  0  2  0  0  3  0  0  0  0  0  0
   42.5460   35.6840   43.0680 O   0  0  0  0  0  0  0  0  0  0  0  0
   42.9670   36.5230   43.3190 H   0  0  0  0  0  0  0  0  0  0  0  0
   41.8260   33.1870   41.4760 O   0  0  0  0  0  0  0  0  0  0  0  0
   41.7610   32.2480   41.7830 H   0  0  0  0  0  0  0  0  0  0  0  0
  1  7  1  0  0  0  0
  1  6  1  0  0  0  0
  2  1  2  0  0  0  0
  3  2  1  0  0  0  0
  3  4  2  0  0  0  0
  4  5  1  0  0  0  0
  5  6  2  0  0  0  0
  5  8  1  0  0  0  0
  9 10  1  0  0  0  0
  9  3  1  0  0  0  0
 10 14  1  0  0  0  0
 11  9  1  0  0  0  0
 11 10  1  0  0  0  0
 11 16  1  0  0  0  0
 12  9  1  0  0  0  0
 13 10  1  0  0  0  0
 15 11  1  0  0  0  0
 17 22  1  1  0  0  0
 18 17  1  0  0  0  0
 18  2  1  1  0  0  0
 19 20  1  0  0  0  0
 19 18  1  0  0  0  0
 20 21  1  0  0  0  0
 21 24  1  6  0  0  0
 21 17  1  0  0  0  0
 22 23  1  0  0  0  0
 24 25  1  0  0  0  0
M  END
>  <minimizedAffinity>
-4.82426643

>  <minimizedRMSD>
2.18413949

$$$$
