
 OpenBabel03252505153D

 25 27  0  0  1  0  0  0  0  0999 V2000
   44.8900   35.5420   43.8830 C   0  0  0  0  0  0  0  0  0  0  0  0
   45.9050   35.3700   42.9300 C   0  0  0  0  0  0  0  0  0  0  0  0
   46.8600   34.4140   43.2640 C   0  0  0  0  0  0  0  0  0  0  0  0
   46.7640   33.7240   44.4510 N   0  0  0  0  0  0  0  0  0  0  0  0
   45.7580   33.9370   45.3290 C   0  0  0  0  0  0  0  0  0  0  0  0
   44.8280   34.8550   45.0220 N   0  0  0  0  0  0  0  0  0  0  0  0
   44.1340   36.2640   43.6740 H   0  0  0  0  0  0  0  0  0  0  0  0
   45.9880   35.9020   42.0050 H   0  0  0  0  0  0  0  0  0  0  0  0
   48.0010   34.1110   42.3310 C   0  0  0  0  0  0  0  0  0  0  0  0
   48.4340   35.3170   41.5290 C   0  0  0  0  0  0  0  0  0  0  0  0
   49.3100   34.6730   42.6370 C   0  0  0  0  0  0  0  0  0  0  0  0
   47.9400   33.1390   41.7850 H   0  0  0  0  0  0  0  0  0  0  0  0
   48.7200   35.0870   40.4890 H   0  0  0  0  0  0  0  0  0  0  0  0
   47.9680   36.2780   41.7540 H   0  0  0  0  0  0  0  0  0  0  0  0
   50.2380   34.1790   42.2450 H   0  0  0  0  0  0  0  0  0  0  0  0
   49.4550   35.3370   43.5060 H   0  0  0  0  0  0  0  0  0  0  0  0
   47.3180   32.6950   46.8000 C   0  0  2  0  0  3  0  0  0  0  0  0
   45.8750   33.0710   46.5310 C   0  0  2  0  0  3  0  0  0  0  0  0
   45.1670   31.8890   46.3480 O   0  0  0  0  0  0  0  0  0  0  0  0
   45.8600   30.8970   47.0360 C   0  0  0  0  0  2  0  0  0  0  0  0
   47.2830   31.1980   46.5530 C   0  0  1  0  0  3  0  0  0  0  0  0
   47.6600   32.8850   48.1360 O   0  0  0  0  0  0  0  0  0  0  0  0
   47.6930   33.8490   48.3810 H   0  0  0  0  0  0  0  0  0  0  0  0
   47.3250   31.0050   45.1750 O   0  0  0  0  0  0  0  0  0  0  0  0
   46.6610   30.2810   44.9600 H   0  0  0  0  0  0  0  0  0  0  0  0
  1  6  1  0  0  0  0
  2  3  1  0  0  0  0
  2  1  2  0  0  0  0
  3  4  2  0  0  0  0
  4  5  1  0  0  0  0
  6  5  2  0  0  0  0
  7  1  1  0  0  0  0
  8  2  1  0  0  0  0
  9 11  1  0  0  0  0
  9  3  1  0  0  0  0
 10 14  1  0  0  0  0
 10  9  1  0  0  0  0
 10 11  1  0  0  0  0
 11 16  1  0  0  0  0
 12  9  1  0  0  0  0
 13 10  1  0  0  0  0
 15 11  1  0  0  0  0
 17 22  1  1  0  0  0
 18  5  1  6  0  0  0
 18 17  1  0  0  0  0
 19 18  1  0  0  0  0
 19 20  1  0  0  0  0
 21 24  1  6  0  0  0
 21 17  1  0  0  0  0
 21 20  1  0  0  0  0
 22 23  1  0  0  0  0
 25 24  1  0  0  0  0
M  END
>  <minimizedAffinity>
-4.68758583

>  <minimizedRMSD>
0.908729672

$$$$
