
 OpenBabel03252505453D

 25 27  0  0  1  0  0  0  0  0999 V2000
   42.8190   35.4400   41.6440 C   0  0  1  0  0  0  0  0  0  0  0  0
   43.6980   34.2680   42.0280 C   0  0  2  0  0  0  0  0  0  0  0  0
   44.1750   35.3830   41.1460 C   0  0  0  0  0  0  0  0  0  0  0  0
   42.5370   36.1490   42.4890 H   0  0  0  0  0  0  0  0  0  0  0  0
   44.1060   34.3600   43.0790 H   0  0  0  0  0  0  0  0  0  0  0  0
   44.8880   36.1440   41.5520 H   0  0  0  0  0  0  0  0  0  0  0  0
   44.2820   35.2640   40.0500 H   0  0  0  0  0  0  0  0  0  0  0  0
   41.6210   35.0910   40.8530 C   0  0  0  0  0  0  0  0  0  0  0  0
   41.6860   35.3230   39.4640 C   0  0  0  0  0  0  0  0  0  0  0  0
   40.5510   34.9920   38.6860 C   0  0  0  0  0  0  0  0  0  0  0  0
   39.4610   34.4630   39.3540 N   0  0  0  0  0  0  0  0  0  0  0  0
   39.4710   34.2700   40.6870 C   0  0  0  0  0  0  0  0  0  0  0  0
   40.5340   34.5790   41.4270 N   0  0  0  0  0  0  0  0  0  0  0  0
   42.5400   35.7370   38.9430 H   0  0  0  0  0  0  0  0  0  0  0  0
   40.5150   35.1370   37.6150 H   0  0  0  0  0  0  0  0  0  0  0  0
   38.5640   33.8470   41.1300 H   0  0  0  0  0  0  0  0  0  0  0  0
   44.4630   32.5300   40.3510 C   0  0  1  0  0  3  0  0  0  0  0  0
   43.5620   32.9060   41.4770 C   0  0  1  0  0  3  0  0  0  0  0  0
   43.9350   32.0030   42.4740 O   0  0  0  0  0  0  0  0  0  0  0  0
   45.3400   32.1620   42.5010 C   0  0  0  0  0  2  0  0  0  0  0  0
   45.7420   32.1440   41.0360 C   0  0  1  0  0  3  0  0  0  0  0  0
   43.9380   31.3750   39.7510 O   0  0  0  0  0  0  0  0  0  0  0  0
   44.1460   30.5920   40.3160 H   0  0  0  0  0  0  0  0  0  0  0  0
   46.0810   30.8130   40.7530 O   0  0  0  0  0  0  0  0  0  0  0  0
   46.9910   30.6700   41.1040 H   0  0  0  0  0  0  0  0  0  0  0  0
  1  2  1  0  0  0  0
  1  4  1  1  0  0  0
  2  5  1  1  0  0  0
  3  6  1  0  0  0  0
  3  1  1  0  0  0  0
  3  2  1  0  0  0  0
  7  3  1  0  0  0  0
  8 13  1  0  0  0  0
  8  1  1  0  0  0  0
  9  8  2  0  0  0  0
 10 11  2  0  0  0  0
 10  9  1  0  0  0  0
 11 12  1  0  0  0  0
 12 16  1  0  0  0  0
 12 13  2  0  0  0  0
 14  9  1  0  0  0  0
 15 10  1  0  0  0  0
 17 22  1  1  0  0  0
 17 21  1  0  0  0  0
 17 18  1  0  0  0  0
 18  2  1  0  0  0  0
 18 19  1  1  0  0  0
 19 20  1  0  0  0  0
 21 24  1  6  0  0  0
 21 20  1  0  0  0  0
 22 23  1  0  0  0  0
 24 25  1  0  0  0  0
M  END
>  <minimizedAffinity>
-3.33702111

>  <minimizedRMSD>
7.52070618

$$$$
