
 OpenBabel03242510083D

 28 30  0  0  1  0  0  0  0  0999 V2000
   44.6960   33.0650   41.2220 Br  0  0  0  0  0  0  0  0  0  0  0  0
   46.3600   33.9910   40.9950 C   0  0  0  0  0  0  0  0  0  0  0  0
   46.8750   34.7510   42.0300 C   0  0  0  0  0  0  0  0  0  0  0  0
   48.0790   35.4260   41.8770 C   0  0  0  0  0  0  0  0  0  0  0  0
   48.7360   35.3170   40.6830 C   0  0  0  0  0  0  0  0  0  0  0  0
   48.2010   34.5560   39.6780 C   0  0  0  0  0  0  0  0  0  0  0  0
   47.0230   33.8820   39.7950 C   0  0  0  0  0  0  0  0  0  0  0  0
   48.4890   36.0190   42.6680 H   0  0  0  0  0  0  0  0  0  0  0  0
   49.6780   35.8350   40.5390 H   0  0  0  0  0  0  0  0  0  0  0  0
   48.7400   34.4870   38.7460 H   0  0  0  0  0  0  0  0  0  0  0  0
   45.6830   33.9280   45.3820 C   0  0  0  0  0  0  0  0  0  0  0  0
   44.7350   34.9440   45.6520 C   0  0  0  0  0  0  0  0  0  0  0  0
   44.5220   35.9080   44.6580 C   0  0  0  0  0  0  0  0  0  0  0  0
   45.2320   35.8070   43.5100 N   0  0  0  0  0  0  0  0  0  0  0  0
   46.1300   34.8290   43.2740 C   0  0  0  0  0  0  0  0  0  0  0  0
   46.3510   33.8860   44.2250 N   0  0  0  0  0  0  0  0  0  0  0  0
   45.7870   33.2260   46.1970 H   0  0  0  0  0  0  0  0  0  0  0  0
   44.1710   35.0250   46.5640 H   0  0  0  0  0  0  0  0  0  0  0  0
   43.8300   36.7290   44.7430 H   0  0  0  0  0  0  0  0  0  0  0  0
   47.1770   33.1480   37.4090 C   0  0  1  0  0  3  0  0  0  0  0  0
   46.4400   33.0670   38.7330 C   0  0  2  0  0  3  0  0  0  0  0  0
   45.1610   33.4150   38.3360 O   0  0  0  0  0  0  0  0  0  0  0  0
   44.9310   32.4590   37.3230 C   0  0  0  0  0  2  0  0  0  0  0  0
   46.2070   32.3450   36.5450 C   0  0  2  0  0  3  0  0  0  0  0  0
   47.1450   34.4470   36.8890 O   0  0  0  0  0  0  0  0  0  0  0  0
   46.2640   34.6630   36.4930 H   0  0  0  0  0  0  0  0  0  0  0  0
   46.6770   31.0270   36.5320 O   0  0  0  0  0  0  0  0  0  0  0  0
   46.3960   30.5690   37.3460 H   0  0  0  0  0  0  0  0  0  0  0  0
  2  1  1  0  0  0  0
  2  3  1  0  0  0  0
  3 15  1  0  0  0  0
  4  3  2  0  0  0  0
  4  8  1  0  0  0  0
  5  4  1  0  0  0  0
  6  7  1  0  0  0  0
  6  5  2  0  0  0  0
  7  2  2  0  0  0  0
  9  5  1  0  0  0  0
 10  6  1  0  0  0  0
 11 12  1  0  0  0  0
 11 17  1  0  0  0  0
 12 18  1  0  0  0  0
 13 19  1  0  0  0  0
 13 12  2  0  0  0  0
 14 13  1  0  0  0  0
 15 14  2  0  0  0  0
 15 16  1  0  0  0  0
 16 11  2  0  0  0  0
 20 25  1  6  0  0  0
 20 21  1  0  0  0  0
 21  7  1  1  0  0  0
 22 21  1  0  0  0  0
 23 22  1  0  0  0  0
 24 27  1  1  0  0  0
 24 23  1  0  0  0  0
 24 20  1  0  0  0  0
 26 25  1  0  0  0  0
 27 28  1  0  0  0  0
M  END
>  <minimizedAffinity>
-6.29583454

>  <minimizedRMSD>
0.180048093

$$$$
