
 OpenBabel03252506553D

 38 42  0  0  1  0  0  0  0  0999 V2000
   47.2120   31.3870   45.0840 C   0  0  0  0  0  0  0  0  0  0  0  0
   46.9000   32.7320   45.0690 C   0  0  0  0  0  0  0  0  0  0  0  0
   46.3050   33.3790   46.1350 C   0  0  0  0  0  0  0  0  0  0  0  0
   45.9920   32.6760   47.2870 C   0  0  0  0  0  0  0  0  0  0  0  0
   45.4230   32.9590   48.4950 N   0  0  0  0  0  0  0  0  0  0  0  0
   45.3870   31.8220   49.2300 C   0  0  0  0  0  0  0  0  0  0  0  0
   45.9350   30.8420   48.4680 N   0  0  0  0  0  0  0  0  0  0  0  0
   46.3120   31.3330   47.2820 C   0  0  0  0  0  0  0  0  0  0  0  0
   46.9010   30.6660   46.2390 C   0  0  0  0  0  0  0  0  0  0  0  0
   47.6740   30.8920   44.2530 H   0  0  0  0  0  0  0  0  0  0  0  0
   46.0580   34.4420   46.1250 H   0  0  0  0  0  0  0  0  0  0  0  0
   45.0940   33.9200   48.7440 H   0  0  0  0  0  0  0  0  0  0  0  0
   44.9800   31.7570   50.2490 H   0  0  0  0  0  0  0  0  0  0  0  0
   46.6240   35.1730   42.3210 C   0  0  0  0  0  0  0  0  0  0  0  0
   47.8130   34.9750   41.6260 C   0  0  0  0  0  0  0  0  0  0  0  0
   48.7040   34.0160   42.0900 C   0  0  0  0  0  0  0  0  0  0  0  0
   48.3690   33.3050   43.2180 N   0  0  0  0  0  0  0  0  0  0  0  0
   47.2120   33.5140   43.8740 C   0  0  0  0  0  0  0  0  0  0  0  0
   46.3510   34.4380   43.4290 N   0  0  0  0  0  0  0  0  0  0  0  0
   45.9070   35.9090   41.9910 H   0  0  0  0  0  0  0  0  0  0  0  0
   48.0290   35.5550   40.7510 H   0  0  0  0  0  0  0  0  0  0  0  0
   49.6420   33.8160   41.5930 H   0  0  0  0  0  0  0  0  0  0  0  0
   47.2020   29.2320   46.3340 C   0  0  0  0  0  0  0  0  0  0  0  0
   48.4790   28.7060   46.4300 C   0  0  0  0  0  0  0  0  0  0  0  0
   48.2590   27.3280   46.4970 C   0  0  0  0  0  0  0  0  0  0  0  0
   46.8850   27.1000   46.4380 C   0  0  0  0  0  0  0  0  0  0  0  0
   46.3040   28.2780   46.3420 O   0  0  0  0  0  0  0  0  0  0  0  0
   49.4400   29.2020   46.4520 H   0  0  0  0  0  0  0  0  0  0  0  0
   48.9960   26.5490   46.5790 H   0  0  0  0  0  0  0  0  0  0  0  0
   44.8210   25.9320   47.2310 C   0  0  2  0  0  3  0  0  0  0  0  0
   46.1440   25.8350   46.4720 C   0  0  1  0  0  3  0  0  0  0  0  0
   45.6750   25.4120   45.2290 O   0  0  0  0  0  0  0  0  0  0  0  0
   44.9660   24.2610   45.5770 C   0  0  0  0  0  2  0  0  0  0  0  0
   44.2170   24.5880   46.8490 C   0  0  2  0  0  3  0  0  0  0  0  0
   44.0120   26.9170   46.6330 O   0  0  0  0  0  0  0  0  0  0  0  0
   43.5620   26.5490   45.8230 H   0  0  0  0  0  0  0  0  0  0  0  0
   42.8430   24.6550   46.6530 O   0  0  0  0  0  0  0  0  0  0  0  0
   42.4610   25.1620   47.4130 H   0  0  0  0  0  0  0  0  0  0  0  0
  1  9  1  0  0  0  0
  2  1  2  0  0  0  0
  2  3  1  0  0  0  0
  3  4  2  0  0  0  0
  4  5  1  0  0  0  0
  5 12  1  0  0  0  0
  5  6  1  0  0  0  0
  6 13  1  0  0  0  0
  7  6  2  0  0  0  0
  8  4  1  0  0  0  0
  8  7  1  0  0  0  0
  9 23  1  0  0  0  0
  9  8  2  0  0  0  0
 10  1  1  0  0  0  0
 11  3  1  0  0  0  0
 14 19  1  0  0  0  0
 15 16  1  0  0  0  0
 15 14  2  0  0  0  0
 16 17  2  0  0  0  0
 17 18  1  0  0  0  0
 18  2  1  0  0  0  0
 19 18  2  0  0  0  0
 20 14  1  0  0  0  0
 21 15  1  0  0  0  0
 22 16  1  0  0  0  0
 23 27  1  0  0  0  0
 23 24  2  0  0  0  0
 24 28  1  0  0  0  0
 24 25  1  0  0  0  0
 25 29  1  0  0  0  0
 26 25  2  0  0  0  0
 27 26  1  0  0  0  0
 30 35  1  6  0  0  0
 31 26  1  6  0  0  0
 31 30  1  0  0  0  0
 32 33  1  0  0  0  0
 32 31  1  0  0  0  0
 33 34  1  0  0  0  0
 34 37  1  6  0  0  0
 34 30  1  0  0  0  0
 36 35  1  0  0  0  0
 37 38  1  0  0  0  0
M  END
>  <minimizedAffinity>
-5.66548681

>  <minimizedRMSD>
0.460833728

$$$$
