
 OpenBabel03252501373D

 35 37  0  0  1  0  0  0  0  0999 V2000
   43.3430   33.9300   38.3340 Cl  0  0  0  0  0  0  0  0  0  0  0  0
   42.1920   34.4560   39.5500 C   0  0  0  0  0  0  0  0  0  0  0  0
   42.5780   35.0490   40.7500 C   0  0  0  0  0  0  0  0  0  0  0  0
   41.6230   35.4280   41.6380 C   0  0  0  0  0  0  0  0  0  0  0  0
   40.2670   35.2700   41.4420 C   0  0  0  0  0  0  0  0  0  0  0  0
   39.8570   34.6800   40.2440 C   0  0  0  0  0  0  0  0  0  0  0  0
   38.1510   34.4380   39.9040 Cl  0  0  0  0  0  0  0  0  0  0  0  0
   40.8410   34.2950   39.3410 C   0  0  0  0  0  0  0  0  0  0  0  0
   41.9720   35.8830   42.5570 H   0  0  0  0  0  0  0  0  0  0  0  0
   39.5360   35.5910   42.1830 H   0  0  0  0  0  0  0  0  0  0  0  0
   40.2440   32.1870   38.3240 C   0  0  1  0  0  0  0  0  0  0  0  0
   40.4200   33.6580   38.0510 C   0  0  1  0  0  0  0  0  0  0  0  0
   39.1710   34.1470   37.6540 O   0  0  0  0  0  0  0  0  0  0  0  0
   38.4490   33.0870   37.1360 C   0  0  0  0  0  0  0  0  0  0  0  0
   38.8050   31.8990   37.9870 C   0  0  1  0  0  0  0  0  0  0  0  0
   41.0870   31.4400   37.4790 O   0  0  0  0  0  0  0  0  0  0  0  0
   41.1200   30.5020   37.7580 H   0  0  0  0  0  0  0  0  0  0  0  0
   38.6930   30.6820   37.2800 O   0  0  0  0  0  0  0  0  0  0  0  0
   37.7330   30.4250   37.3450 H   0  0  0  0  0  0  0  0  0  0  0  0
   43.9460   35.2010   40.9350 O   0  0  0  0  0  0  0  0  0  0  0  0
   44.5390   34.5820   42.0460 C   0  0  0  0  0  0  0  0  0  0  0  0
   44.3490   33.3710   42.4180 O   0  0  0  0  0  0  0  0  0  0  0  0
   45.4420   35.2900   42.8920 N   0  0  0  0  0  0  0  0  0  0  0  0
   45.6970   36.2670   42.7140 H   0  0  0  0  0  0  0  0  0  0  0  0
   45.8750   34.3930   43.9580 C   0  0  0  0  0  0  0  0  0  0  0  0
   45.3450   34.3810   45.2280 C   0  0  0  0  0  0  0  0  0  0  0  0
   45.8780   33.4590   46.1100 C   0  0  0  0  0  0  0  0  0  0  0  0
   46.8700   32.6490   45.6630 N   0  0  0  0  0  0  0  0  0  0  0  0
   47.3530   32.7000   44.4150 C   0  0  0  0  0  0  0  0  0  0  0  0
   46.8480   33.5920   43.5330 N   0  0  0  0  0  0  0  0  0  0  0  0
   45.4630   33.4500   47.1040 H   0  0  0  0  0  0  0  0  0  0  0  0
   48.1450   32.0090   44.1580 H   0  0  0  0  0  0  0  0  0  0  0  0
   44.3120   35.3050   45.5080 N   0  0  0  0  0  0  0  0  0  0  0  0
   44.2320   35.7680   46.4280 H   0  0  0  0  0  0  0  0  0  0  0  0
   43.6170   35.5270   44.7780 H   0  0  0  0  0  0  0  0  0  0  0  0
  1  2  1  0  0  0  0
  2  3  1  0  0  0  0
  3 20  1  0  0  0  0
  3  4  2  0  0  0  0
  4  9  1  0  0  0  0
  5  4  1  0  0  0  0
  5 10  1  0  0  0  0
  6  5  2  0  0  0  0
  7  6  1  0  0  0  0
  8  2  2  0  0  0  0
  8  6  1  0  0  0  0
 11 16  1  6  0  0  0
 12 11  1  0  0  0  0
 12  8  1  1  0  0  0
 13 12  1  0  0  0  0
 14 13  1  0  0  0  0
 14 15  1  0  0  0  0
 15 18  1  6  0  0  0
 15 11  1  0  0  0  0
 16 17  1  0  0  0  0
 18 19  1  0  0  0  0
 20 21  1  0  0  0  0
 21 22  2  0  0  0  0
 21 23  1  0  0  0  0
 23 25  1  0  0  0  0
 24 23  1  0  0  0  0
 25 26  1  0  0  0  0
 26 33  1  0  0  0  0
 26 27  2  0  0  0  0
 27 31  1  0  0  0  0
 28 27  1  0  0  0  0
 29 28  2  0  0  0  0
 30 25  2  0  0  0  0
 30 29  1  0  0  0  0
 32 29  1  0  0  0  0
 33 34  1  0  0  0  0
 35 33  1  0  0  0  0
M  END
>  <minimizedAffinity>
-6.53230333

>  <minimizedRMSD>
1.13496983

$$$$
