
 OpenBabel03242520173D

 25 27  0  0  1  0  0  0  0  0999 V2000
   37.1370   26.8160   41.6300 C   0  0  0  0  0  0  0  0  0  0  0  0
   37.4790   28.0170   40.9740 C   0  0  0  0  0  0  0  0  0  0  0  0
   37.6310   29.1880   41.7470 C   0  0  0  0  0  0  0  0  0  0  0  0
   37.4360   29.0820   43.0910 N   0  0  0  0  0  0  0  0  0  0  0  0
   37.1060   27.9000   43.6730 C   0  0  0  0  0  0  0  0  0  0  0  0
   36.9600   26.7780   42.9500 N   0  0  0  0  0  0  0  0  0  0  0  0
   37.6210   28.0290   39.8860 H   0  0  0  0  0  0  0  0  0  0  0  0
   36.9770   27.9450   44.7600 H   0  0  0  0  0  0  0  0  0  0  0  0
   36.9820   25.6020   40.7960 C   0  0  0  0  0  0  0  0  0  0  0  0
   38.1710   24.6150   40.9380 C   0  0  0  0  0  0  0  0  0  0  0  0
   36.7700   24.2800   41.3460 C   0  0  0  0  0  0  0  0  0  0  0  0
   36.6730   25.8130   39.7450 H   0  0  0  0  0  0  0  0  0  0  0  0
   38.5920   24.3140   39.9660 H   0  0  0  0  0  0  0  0  0  0  0  0
   38.9410   24.8450   41.6990 H   0  0  0  0  0  0  0  0  0  0  0  0
   36.6710   24.1420   42.4600 H   0  0  0  0  0  0  0  0  0  0  0  0
   36.2190   23.5150   40.7760 H   0  0  0  0  0  0  0  0  0  0  0  0
   36.8700   31.4090   40.9360 C   0  0  1  0  0  3  0  0  0  0  0  0
   37.9910   30.4420   41.0360 C   0  0  2  0  0  3  0  0  0  0  0  0
   38.3790   30.1000   39.7450 O   0  0  0  0  0  0  0  0  0  0  0  0
   38.0610   31.1760   38.9300 C   0  0  0  0  0  2  0  0  0  0  0  0
   36.8350   31.8210   39.4880 C   0  0  2  0  0  3  0  0  0  0  0  0
   35.6510   30.9160   41.3840 O   0  0  0  0  0  0  0  0  0  0  0  0
   35.2530   30.3550   40.6930 H   0  0  0  0  0  0  0  0  0  0  0  0
   36.9410   33.2100   39.3440 O   0  0  0  0  0  0  0  0  0  0  0  0
   36.0840   33.6680   39.2730 H   0  0  0  0  0  0  0  0  0  0  0  0
  1  6  1  0  0  0  0
  2  1  2  0  0  0  0
  2  3  1  0  0  0  0
  3  4  2  0  0  0  0
  4  5  1  0  0  0  0
  5  8  1  0  0  0  0
  6  5  2  0  0  0  0
  7  2  1  0  0  0  0
  9 10  1  0  0  0  0
  9 11  1  0  0  0  0
  9  1  1  0  0  0  0
 10 11  1  0  0  0  0
 10 14  1  0  0  0  0
 11 15  1  0  0  0  0
 12  9  1  0  0  0  0
 13 10  1  0  0  0  0
 16 11  1  0  0  0  0
 17 18  1  0  0  0  0
 17 22  1  6  0  0  0
 18  3  1  1  0  0  0
 19 18  1  0  0  0  0
 20 21  1  0  0  0  0
 20 19  1  0  0  0  0
 21 24  1  1  0  0  0
 21 17  1  0  0  0  0
 23 22  1  0  0  0  0
 25 24  1  0  0  0  0
M  END
>  <minimizedAffinity>
-5.36107016

$$$$

 OpenBabel03242520173D

 25 27  0  0  1  0  0  0  0  0999 V2000
   37.3340   26.8120   41.0960 C   0  0  0  0  0  0  0  0  0  0  0  0
   37.8270   28.1330   41.1530 C   0  0  0  0  0  0  0  0  0  0  0  0
   37.4700   29.0300   40.1230 C   0  0  0  0  0  0  0  0  0  0  0  0
   36.6650   28.5580   39.1300 N   0  0  0  0  0  0  0  0  0  0  0  0
   36.2190   27.2750   39.1230 C   0  0  0  0  0  0  0  0  0  0  0  0
   36.5490   26.4110   40.0970 N   0  0  0  0  0  0  0  0  0  0  0  0
   38.4720   28.4450   41.9830 H   0  0  0  0  0  0  0  0  0  0  0  0
   35.5790   27.0180   38.2720 H   0  0  0  0  0  0  0  0  0  0  0  0
   37.7240   25.8900   42.1880 C   0  0  0  0  0  0  0  0  0  0  0  0
   36.8870   24.5840   42.2050 C   0  0  0  0  0  0  0  0  0  0  0  0
   38.3650   24.6120   41.9600 C   0  0  0  0  0  0  0  0  0  0  0  0
   37.8330   26.3890   43.1800 H   0  0  0  0  0  0  0  0  0  0  0  0
   36.4550   24.3690   43.1940 H   0  0  0  0  0  0  0  0  0  0  0  0
   36.1810   24.4170   41.3700 H   0  0  0  0  0  0  0  0  0  0  0  0
   38.6310   24.2940   40.9140 H   0  0  0  0  0  0  0  0  0  0  0  0
   39.0360   24.1770   42.7180 H   0  0  0  0  0  0  0  0  0  0  0  0
   36.9970   31.4080   40.6610 C   0  0  1  0  0  3  0  0  0  0  0  0
   37.9990   30.4160   40.2020 C   0  0  2  0  0  3  0  0  0  0  0  0
   38.4120   30.7840   38.9250 O   0  0  0  0  0  0  0  0  0  0  0  0
   38.2530   32.1590   38.8300 C   0  0  0  0  0  2  0  0  0  0  0  0
   37.0780   32.5390   39.6700 C   0  0  2  0  0  3  0  0  0  0  0  0
   35.7100   30.9000   40.7910 O   0  0  0  0  0  0  0  0  0  0  0  0
   35.2890   30.8540   39.9130 H   0  0  0  0  0  0  0  0  0  0  0  0
   37.3420   33.7610   40.3030 O   0  0  0  0  0  0  0  0  0  0  0  0
   36.5450   34.2820   40.5070 H   0  0  0  0  0  0  0  0  0  0  0  0
  1  2  1  0  0  0  0
  1  9  1  0  0  0  0
  2  7  1  0  0  0  0
  3  2  2  0  0  0  0
  4  3  1  0  0  0  0
  5  4  2  0  0  0  0
  5  6  1  0  0  0  0
  6  1  2  0  0  0  0
  8  5  1  0  0  0  0
  9 10  1  0  0  0  0
  9 12  1  0  0  0  0
 10 13  1  0  0  0  0
 11  9  1  0  0  0  0
 11 10  1  0  0  0  0
 11 16  1  0  0  0  0
 14 10  1  0  0  0  0
 15 11  1  0  0  0  0
 17 22  1  6  0  0  0
 18  3  1  6  0  0  0
 18 17  1  0  0  0  0
 19 18  1  0  0  0  0
 20 19  1  0  0  0  0
 20 21  1  0  0  0  0
 21 24  1  1  0  0  0
 21 17  1  0  0  0  0
 23 22  1  0  0  0  0
 24 25  1  0  0  0  0
M  END
>  <minimizedAffinity>
-4.8845911

$$$$

 OpenBabel03242520173D

 25 27  0  0  1  0  0  0  0  0999 V2000
   41.1320   33.1380   38.5280 C   0  0  0  0  0  0  0  0  0  0  0  0
   40.1830   32.1090   38.7050 C   0  0  0  0  0  0  0  0  0  0  0  0
   39.3450   32.1530   39.8400 C   0  0  0  0  0  0  0  0  0  0  0  0
   39.5090   33.1960   40.7010 N   0  0  0  0  0  0  0  0  0  0  0  0
   40.4390   34.1610   40.4840 C   0  0  0  0  0  0  0  0  0  0  0  0
   41.2420   34.1330   39.4070 N   0  0  0  0  0  0  0  0  0  0  0  0
   40.1070   31.2990   37.9700 H   0  0  0  0  0  0  0  0  0  0  0  0
   40.4730   34.9460   41.2480 H   0  0  0  0  0  0  0  0  0  0  0  0
   42.0000   33.0690   37.3300 C   0  0  0  0  0  0  0  0  0  0  0  0
   43.4680   32.6990   37.6660 C   0  0  0  0  0  0  0  0  0  0  0  0
   42.5720   31.8360   36.8320 C   0  0  0  0  0  0  0  0  0  0  0  0
   41.8830   33.9370   36.6380 H   0  0  0  0  0  0  0  0  0  0  0  0
   44.1950   33.3990   37.2250 H   0  0  0  0  0  0  0  0  0  0  0  0
   43.7010   32.4240   38.7120 H   0  0  0  0  0  0  0  0  0  0  0  0
   42.3300   30.8590   37.3350 H   0  0  0  0  0  0  0  0  0  0  0  0
   42.8000   31.7150   35.7610 H   0  0  0  0  0  0  0  0  0  0  0  0
   36.9470   31.5340   40.0270 C   0  0  1  0  0  3  0  0  0  0  0  0
   38.3530   31.0600   40.0070 C   0  0  2  0  0  3  0  0  0  0  0  0
   38.6120   30.4370   41.2230 O   0  0  0  0  0  0  0  0  0  0  0  0
   37.4010   29.9470   41.6920 C   0  0  0  0  0  2  0  0  0  0  0  0
   36.3270   30.8790   41.2330 C   0  0  2  0  0  3  0  0  0  0  0  0
   36.8120   32.9170   40.0380 O   0  0  0  0  0  0  0  0  0  0  0  0
   36.9560   33.2500   40.9430 H   0  0  0  0  0  0  0  0  0  0  0  0
   35.1910   30.1360   40.8890 O   0  0  0  0  0  0  0  0  0  0  0  0
   34.3530   30.6220   40.9900 H   0  0  0  0  0  0  0  0  0  0  0  0
  1  2  2  0  0  0  0
  1  6  1  0  0  0  0
  2  3  1  0  0  0  0
  3  4  2  0  0  0  0
  5  4  1  0  0  0  0
  5  8  1  0  0  0  0
  6  5  2  0  0  0  0
  7  2  1  0  0  0  0
  9 10  1  0  0  0  0
  9  1  1  0  0  0  0
 10 14  1  0  0  0  0
 11  9  1  0  0  0  0
 11 15  1  0  0  0  0
 11 10  1  0  0  0  0
 12  9  1  0  0  0  0
 13 10  1  0  0  0  0
 16 11  1  0  0  0  0
 17 22  1  1  0  0  0
 17 21  1  0  0  0  0
 18  3  1  1  0  0  0
 18 17  1  0  0  0  0
 18 19  1  0  0  0  0
 19 20  1  0  0  0  0
 21 24  1  6  0  0  0
 21 20  1  0  0  0  0
 22 23  1  0  0  0  0
 24 25  1  0  0  0  0
M  END
>  <minimizedAffinity>
-4.78278589

$$$$

 OpenBabel03242520173D

 25 27  0  0  1  0  0  0  0  0999 V2000
   37.4440   28.8800   42.0130 C   0  0  0  0  0  0  0  0  0  0  0  0
   38.0410   29.9160   41.2630 C   0  0  0  0  0  0  0  0  0  0  0  0
   37.3340   30.4470   40.1640 C   0  0  0  0  0  0  0  0  0  0  0  0
   36.1060   29.9210   39.8940 N   0  0  0  0  0  0  0  0  0  0  0  0
   35.5760   28.9230   40.6490 C   0  0  0  0  0  0  0  0  0  0  0  0
   36.2380   28.4090   41.6980 N   0  0  0  0  0  0  0  0  0  0  0  0
   39.0350   30.2910   41.5380 H   0  0  0  0  0  0  0  0  0  0  0  0
   34.5830   28.5860   40.3310 H   0  0  0  0  0  0  0  0  0  0  0  0
   38.2070   28.3400   43.1610 C   0  0  0  0  0  0  0  0  0  0  0  0
   38.7580   26.9120   42.9040 C   0  0  0  0  0  0  0  0  0  0  0  0
   39.6350   28.1050   43.1270 C   0  0  0  0  0  0  0  0  0  0  0  0
   37.6980   28.4750   44.1450 H   0  0  0  0  0  0  0  0  0  0  0  0
   38.5020   26.2060   43.7090 H   0  0  0  0  0  0  0  0  0  0  0  0
   38.6300   26.4880   41.8890 H   0  0  0  0  0  0  0  0  0  0  0  0
   40.2300   28.3760   42.2100 H   0  0  0  0  0  0  0  0  0  0  0  0
   40.2350   28.1560   44.0500 H   0  0  0  0  0  0  0  0  0  0  0  0
   38.2600   31.1720   37.9760 C   0  0  1  0  0  3  0  0  0  0  0  0
   37.9810   31.5360   39.3870 C   0  0  2  0  0  3  0  0  0  0  0  0
   39.1940   31.8300   40.0020 O   0  0  0  0  0  0  0  0  0  0  0  0
   40.0520   32.2770   39.0080 C   0  0  0  0  0  2  0  0  0  0  0  0
   39.6960   31.5620   37.7450 C   0  0  2  0  0  3  0  0  0  0  0  0
   38.0080   29.8400   37.6710 O   0  0  0  0  0  0  0  0  0  0  0  0
   38.7530   29.2910   37.9780 H   0  0  0  0  0  0  0  0  0  0  0  0
   39.8240   32.4450   36.6650 O   0  0  0  0  0  0  0  0  0  0  0  0
   40.0300   32.0090   35.8190 H   0  0  0  0  0  0  0  0  0  0  0  0
  1  9  1  0  0  0  0
  2  7  1  0  0  0  0
  2  1  2  0  0  0  0
  3  2  1  0  0  0  0
  4  3  2  0  0  0  0
  4  5  1  0  0  0  0
  5  6  2  0  0  0  0
  6  1  1  0  0  0  0
  8  5  1  0  0  0  0
  9 12  1  0  0  0  0
 10 11  1  0  0  0  0
 10  9  1  0  0  0  0
 10 13  1  0  0  0  0
 11  9  1  0  0  0  0
 11 16  1  0  0  0  0
 14 10  1  0  0  0  0
 15 11  1  0  0  0  0
 17 22  1  1  0  0  0
 17 18  1  0  0  0  0
 18 19  1  0  0  0  0
 18  3  1  1  0  0  0
 20 19  1  0  0  0  0
 21 24  1  6  0  0  0
 21 17  1  0  0  0  0
 21 20  1  0  0  0  0
 22 23  1  0  0  0  0
 25 24  1  0  0  0  0
M  END
>  <minimizedAffinity>
-4.68322134

$$$$

 OpenBabel03242520173D

 25 27  0  0  1  0  0  0  0  0999 V2000
   35.5230   29.2600   37.8370 C   0  0  0  0  0  0  0  0  0  0  0  0
   36.0010   29.8880   39.0060 C   0  0  0  0  0  0  0  0  0  0  0  0
   37.1410   30.7150   38.9090 C   0  0  0  0  0  0  0  0  0  0  0  0
   37.7100   30.8570   37.6790 N   0  0  0  0  0  0  0  0  0  0  0  0
   37.2090   30.2290   36.5840 C   0  0  0  0  0  0  0  0  0  0  0  0
   36.1250   29.4400   36.6620 N   0  0  0  0  0  0  0  0  0  0  0  0
   35.4920   29.7280   39.9650 H   0  0  0  0  0  0  0  0  0  0  0  0
   37.7550   30.4230   35.6550 H   0  0  0  0  0  0  0  0  0  0  0  0
   34.3270   28.3960   37.9660 C   0  0  0  0  0  0  0  0  0  0  0  0
   33.0650   29.0060   37.3000 C   0  0  0  0  0  0  0  0  0  0  0  0
   33.7010   27.7290   36.8430 C   0  0  0  0  0  0  0  0  0  0  0  0
   34.1660   28.0000   38.9970 H   0  0  0  0  0  0  0  0  0  0  0  0
   32.1950   29.0250   37.9750 H   0  0  0  0  0  0  0  0  0  0  0  0
   33.1920   29.9390   36.7190 H   0  0  0  0  0  0  0  0  0  0  0  0
   34.1490   27.8190   35.8140 H   0  0  0  0  0  0  0  0  0  0  0  0
   33.1540   26.7840   36.9850 H   0  0  0  0  0  0  0  0  0  0  0  0
   37.6050   32.8480   40.0940 C   0  0  1  0  0  3  0  0  0  0  0  0
   37.6290   31.3660   40.1520 C   0  0  2  0  0  3  0  0  0  0  0  0
   38.9460   30.9650   40.3490 O   0  0  0  0  0  0  0  0  0  0  0  0
   39.5870   32.0000   41.0160 C   0  0  0  0  0  2  0  0  0  0  0  0
   38.9680   33.2830   40.5640 C   0  0  2  0  0  3  0  0  0  0  0  0
   37.2780   33.3640   38.8460 O   0  0  0  0  0  0  0  0  0  0  0  0
   38.0620   33.3360   38.2670 H   0  0  0  0  0  0  0  0  0  0  0  0
   38.8830   34.1600   41.6530 O   0  0  0  0  0  0  0  0  0  0  0  0
   38.9040   35.1020   41.4060 H   0  0  0  0  0  0  0  0  0  0  0  0
  1  9  1  0  0  0  0
  1  2  1  0  0  0  0
  2  7  1  0  0  0  0
  3  2  2  0  0  0  0
  4  3  1  0  0  0  0
  5  6  1  0  0  0  0
  5  4  2  0  0  0  0
  6  1  2  0  0  0  0
  8  5  1  0  0  0  0
  9 12  1  0  0  0  0
 10  9  1  0  0  0  0
 10 13  1  0  0  0  0
 11 16  1  0  0  0  0
 11 10  1  0  0  0  0
 11  9  1  0  0  0  0
 14 10  1  0  0  0  0
 15 11  1  0  0  0  0
 17 22  1  6  0  0  0
 17 18  1  0  0  0  0
 17 21  1  0  0  0  0
 18  3  1  6  0  0  0
 18 19  1  0  0  0  0
 19 20  1  0  0  0  0
 21 20  1  0  0  0  0
 21 24  1  1  0  0  0
 23 22  1  0  0  0  0
 25 24  1  0  0  0  0
M  END
>  <minimizedAffinity>
-4.61930084

$$$$

 OpenBabel03242520173D

 25 27  0  0  1  0  0  0  0  0999 V2000
   36.8240   27.7690   41.1950 C   0  0  0  0  0  0  0  0  0  0  0  0
   36.8150   28.9470   40.4180 C   0  0  0  0  0  0  0  0  0  0  0  0
   36.7030   28.8290   39.0160 C   0  0  0  0  0  0  0  0  0  0  0  0
   36.6080   27.5720   38.4980 N   0  0  0  0  0  0  0  0  0  0  0  0
   36.6220   26.4710   39.2920 C   0  0  0  0  0  0  0  0  0  0  0  0
   36.7260   26.5680   40.6270 N   0  0  0  0  0  0  0  0  0  0  0  0
   36.8960   29.9270   40.9030 H   0  0  0  0  0  0  0  0  0  0  0  0
   36.5380   25.5180   38.7560 H   0  0  0  0  0  0  0  0  0  0  0  0
   36.9440   27.9210   42.6640 C   0  0  0  0  0  0  0  0  0  0  0  0
   38.3440   27.5240   43.2000 C   0  0  0  0  0  0  0  0  0  0  0  0
   37.7890   28.9110   43.2950 C   0  0  0  0  0  0  0  0  0  0  0  0
   36.0860   27.4900   43.2330 H   0  0  0  0  0  0  0  0  0  0  0  0
   38.2920   26.8070   44.0350 H   0  0  0  0  0  0  0  0  0  0  0  0
   39.1280   27.2800   42.4580 H   0  0  0  0  0  0  0  0  0  0  0  0
   38.3640   29.6460   42.6650 H   0  0  0  0  0  0  0  0  0  0  0  0
   37.5360   29.3150   44.2890 H   0  0  0  0  0  0  0  0  0  0  0  0
   37.8570   30.2050   37.3010 C   0  0  1  0  0  3  0  0  0  0  0  0
   36.6970   30.0810   38.2160 C   0  0  2  0  0  3  0  0  0  0  0  0
   36.7360   31.1500   39.1060 O   0  0  0  0  0  0  0  0  0  0  0  0
   37.3890   32.1890   38.4580 C   0  0  0  0  0  2  0  0  0  0  0  0
   38.4050   31.5860   37.5430 C   0  0  2  0  0  3  0  0  0  0  0  0
   38.8160   29.2110   37.4590 O   0  0  0  0  0  0  0  0  0  0  0  0
   39.3770   29.4220   38.2270 H   0  0  0  0  0  0  0  0  0  0  0  0
   38.4590   32.3350   36.3600 O   0  0  0  0  0  0  0  0  0  0  0  0
   39.3220   32.3040   35.9110 H   0  0  0  0  0  0  0  0  0  0  0  0
  1  9  1  0  0  0  0
  2  7  1  0  0  0  0
  2  1  2  0  0  0  0
  3  2  1  0  0  0  0
  4  3  2  0  0  0  0
  4  5  1  0  0  0  0
  5  6  2  0  0  0  0
  6  1  1  0  0  0  0
  8  5  1  0  0  0  0
  9 10  1  0  0  0  0
  9 12  1  0  0  0  0
  9 11  1  0  0  0  0
 10 11  1  0  0  0  0
 10 13  1  0  0  0  0
 11 16  1  0  0  0  0
 14 10  1  0  0  0  0
 15 11  1  0  0  0  0
 17 22  1  1  0  0  0
 17 21  1  0  0  0  0
 17 18  1  0  0  0  0
 18  3  1  1  0  0  0
 18 19  1  0  0  0  0
 20 19  1  0  0  0  0
 21 24  1  6  0  0  0
 21 20  1  0  0  0  0
 22 23  1  0  0  0  0
 25 24  1  0  0  0  0
M  END
>  <minimizedAffinity>
-4.57851028

$$$$

 OpenBabel03242520173D

 25 27  0  0  1  0  0  0  0  0999 V2000
   37.0200   28.7850   41.2850 C   0  0  0  0  0  0  0  0  0  0  0  0
   37.5270   28.6540   39.9750 C   0  0  0  0  0  0  0  0  0  0  0  0
   37.4460   29.7640   39.1070 C   0  0  0  0  0  0  0  0  0  0  0  0
   36.8780   30.9030   39.5950 N   0  0  0  0  0  0  0  0  0  0  0  0
   36.4040   30.9750   40.8660 C   0  0  0  0  0  0  0  0  0  0  0  0
   36.4760   29.9280   41.7030 N   0  0  0  0  0  0  0  0  0  0  0  0
   37.9710   27.7060   39.6480 H   0  0  0  0  0  0  0  0  0  0  0  0
   35.9720   31.9440   41.1390 H   0  0  0  0  0  0  0  0  0  0  0  0
   37.1160   27.6060   42.1750 C   0  0  0  0  0  0  0  0  0  0  0  0
   38.2650   27.7220   43.2110 C   0  0  0  0  0  0  0  0  0  0  0  0
   36.8180   27.6510   43.5910 C   0  0  0  0  0  0  0  0  0  0  0  0
   37.0680   26.6290   41.6370 H   0  0  0  0  0  0  0  0  0  0  0  0
   38.9220   26.8380   43.2180 H   0  0  0  0  0  0  0  0  0  0  0  0
   38.8150   28.6800   43.2620 H   0  0  0  0  0  0  0  0  0  0  0  0
   36.4520   28.6070   44.0600 H   0  0  0  0  0  0  0  0  0  0  0  0
   36.4510   26.7550   44.1180 H   0  0  0  0  0  0  0  0  0  0  0  0
   36.9390   29.6200   36.6800 C   0  0  1  0  0  3  0  0  0  0  0  0
   37.9850   29.6060   37.7310 C   0  0  2  0  0  3  0  0  0  0  0  0
   38.6360   28.3780   37.6720 O   0  0  0  0  0  0  0  0  0  0  0  0
   38.5310   27.9290   36.3630 C   0  0  0  0  0  2  0  0  0  0  0  0
   37.2300   28.4200   35.8180 C   0  0  2  0  0  3  0  0  0  0  0  0
   35.6380   29.6260   37.1700 O   0  0  0  0  0  0  0  0  0  0  0  0
   35.3860   28.7220   37.4340 H   0  0  0  0  0  0  0  0  0  0  0  0
   37.4010   28.7790   34.4750 O   0  0  0  0  0  0  0  0  0  0  0  0
   36.5930   28.7000   33.9370 H   0  0  0  0  0  0  0  0  0  0  0  0
  1  6  1  0  0  0  0
  1  9  1  0  0  0  0
  2  1  2  0  0  0  0
  3  4  2  0  0  0  0
  3  2  1  0  0  0  0
  4  5  1  0  0  0  0
  5  8  1  0  0  0  0
  5  6  2  0  0  0  0
  7  2  1  0  0  0  0
  9 10  1  0  0  0  0
  9 11  1  0  0  0  0
 10 13  1  0  0  0  0
 10 14  1  0  0  0  0
 10 11  1  0  0  0  0
 11 15  1  0  0  0  0
 11 16  1  0  0  0  0
 12  9  1  0  0  0  0
 17 22  1  1  0  0  0
 17 18  1  0  0  0  0
 18  3  1  1  0  0  0
 19 18  1  0  0  0  0
 20 19  1  0  0  0  0
 21 24  1  6  0  0  0
 21 20  1  0  0  0  0
 21 17  1  0  0  0  0
 22 23  1  0  0  0  0
 25 24  1  0  0  0  0
M  END
>  <minimizedAffinity>
-4.55263281

$$$$

 OpenBabel03242520173D

 25 27  0  0  1  0  0  0  0  0999 V2000
   37.2440   27.0660   41.6970 C   0  0  0  0  0  0  0  0  0  0  0  0
   37.3250   28.0830   40.7230 C   0  0  0  0  0  0  0  0  0  0  0  0
   37.5200   29.4140   41.1530 C   0  0  0  0  0  0  0  0  0  0  0  0
   37.6190   29.6310   42.4950 N   0  0  0  0  0  0  0  0  0  0  0  0
   37.5340   28.6140   43.3910 C   0  0  0  0  0  0  0  0  0  0  0  0
   37.3500   27.3440   42.9960 N   0  0  0  0  0  0  0  0  0  0  0  0
   37.2360   27.8350   39.6590 H   0  0  0  0  0  0  0  0  0  0  0  0
   37.6300   28.9180   44.4390 H   0  0  0  0  0  0  0  0  0  0  0  0
   37.0380   25.6790   41.2200 C   0  0  0  0  0  0  0  0  0  0  0  0
   38.3100   24.7990   41.3490 C   0  0  0  0  0  0  0  0  0  0  0  0
   37.0410   24.5260   42.0970 C   0  0  0  0  0  0  0  0  0  0  0  0
   36.5220   25.6130   40.2330 H   0  0  0  0  0  0  0  0  0  0  0  0
   38.5660   24.2830   40.4100 H   0  0  0  0  0  0  0  0  0  0  0  0
   39.1860   25.2360   41.8650 H   0  0  0  0  0  0  0  0  0  0  0  0
   37.1620   24.6640   43.2080 H   0  0  0  0  0  0  0  0  0  0  0  0
   36.4600   23.6260   41.8430 H   0  0  0  0  0  0  0  0  0  0  0  0
   38.9770   30.9770   39.8890 C   0  0  1  0  0  3  0  0  0  0  0  0
   37.6010   30.4700   40.1120 C   0  0  2  0  0  3  0  0  0  0  0  0
   36.8130   31.5380   40.5310 O   0  0  0  0  0  0  0  0  0  0  0  0
   37.3780   32.6880   40.0000 C   0  0  0  0  0  2  0  0  0  0  0  0
   38.8560   32.4780   39.9300 C   0  0  2  0  0  3  0  0  0  0  0  0
   39.9170   30.4900   40.7890 O   0  0  0  0  0  0  0  0  0  0  0  0
   39.8510   30.9840   41.6270 H   0  0  0  0  0  0  0  0  0  0  0  0
   39.3490   33.0680   38.7590 O   0  0  0  0  0  0  0  0  0  0  0  0
   40.2770   33.3560   38.8200 H   0  0  0  0  0  0  0  0  0  0  0  0
  1  6  1  0  0  0  0
  2  3  1  0  0  0  0
  2  1  2  0  0  0  0
  3  4  2  0  0  0  0
  4  5  1  0  0  0  0
  5  8  1  0  0  0  0
  6  5  2  0  0  0  0
  7  2  1  0  0  0  0
  9 10  1  0  0  0  0
  9  1  1  0  0  0  0
  9 11  1  0  0  0  0
 10 14  1  0  0  0  0
 10 11  1  0  0  0  0
 11 15  1  0  0  0  0
 12  9  1  0  0  0  0
 13 10  1  0  0  0  0
 16 11  1  0  0  0  0
 17 21  1  0  0  0  0
 17 18  1  0  0  0  0
 17 22  1  1  0  0  0
 18 19  1  0  0  0  0
 18  3  1  1  0  0  0
 20 19  1  0  0  0  0
 21 24  1  6  0  0  0
 21 20  1  0  0  0  0
 22 23  1  0  0  0  0
 24 25  1  0  0  0  0
M  END
>  <minimizedAffinity>
-4.51405764

$$$$

 OpenBabel03242520173D

 25 27  0  0  1  0  0  0  0  0999 V2000
   39.0560   31.3230   40.7740 C   0  0  0  0  0  0  0  0  0  0  0  0
   40.2980   31.8450   40.3530 C   0  0  0  0  0  0  0  0  0  0  0  0
   40.3320   33.1460   39.8060 C   0  0  0  0  0  0  0  0  0  0  0  0
   39.1510   33.8210   39.7190 N   0  0  0  0  0  0  0  0  0  0  0  0
   37.9830   33.2710   40.1390 C   0  0  0  0  0  0  0  0  0  0  0  0
   37.9360   32.0360   40.6630 N   0  0  0  0  0  0  0  0  0  0  0  0
   41.2100   31.2440   40.4520 H   0  0  0  0  0  0  0  0  0  0  0  0
   37.1040   33.9140   40.0170 H   0  0  0  0  0  0  0  0  0  0  0  0
   39.0470   29.9560   41.3430 C   0  0  0  0  0  0  0  0  0  0  0  0
   39.0770   29.9460   42.8940 C   0  0  0  0  0  0  0  0  0  0  0  0
   37.9330   29.4110   42.0890 C   0  0  0  0  0  0  0  0  0  0  0  0
   39.7730   29.2610   40.8570 H   0  0  0  0  0  0  0  0  0  0  0  0
   39.8690   29.2980   43.3000 H   0  0  0  0  0  0  0  0  0  0  0  0
   38.9930   30.9190   43.4150 H   0  0  0  0  0  0  0  0  0  0  0  0
   36.9940   30.0190   42.2240 H   0  0  0  0  0  0  0  0  0  0  0  0
   37.7390   28.3270   42.0980 H   0  0  0  0  0  0  0  0  0  0  0  0
   41.8180   33.6990   37.8950 C   0  0  1  0  0  3  0  0  0  0  0  0
   41.6490   33.6760   39.3680 C   0  0  2  0  0  3  0  0  0  0  0  0
   42.6340   32.8510   39.9000 O   0  0  0  0  0  0  0  0  0  0  0  0
   43.7060   32.8840   39.0200 C   0  0  0  0  0  2  0  0  0  0  0  0
   43.1560   33.0570   37.6420 C   0  0  2  0  0  3  0  0  0  0  0  0
   40.7870   33.0860   37.1930 O   0  0  0  0  0  0  0  0  0  0  0  0
   40.9120   32.1200   37.2100 H   0  0  0  0  0  0  0  0  0  0  0  0
   44.0040   33.9010   36.9120 O   0  0  0  0  0  0  0  0  0  0  0  0
   43.9870   33.7440   35.9510 H   0  0  0  0  0  0  0  0  0  0  0  0
  1  9  1  0  0  0  0
  2  7  1  0  0  0  0
  2  1  2  0  0  0  0
  3  2  1  0  0  0  0
  4  3  2  0  0  0  0
  4  5  1  0  0  0  0
  5  6  2  0  0  0  0
  6  1  1  0  0  0  0
  8  5  1  0  0  0  0
  9 11  1  0  0  0  0
  9 10  1  0  0  0  0
 10 13  1  0  0  0  0
 10 14  1  0  0  0  0
 11 16  1  0  0  0  0
 11 15  1  0  0  0  0
 11 10  1  0  0  0  0
 12  9  1  0  0  0  0
 17 22  1  6  0  0  0
 17 18  1  0  0  0  0
 18  3  1  6  0  0  0
 18 19  1  0  0  0  0
 20 19  1  0  0  0  0
 21 24  1  6  0  0  0
 21 17  1  0  0  0  0
 21 20  1  0  0  0  0
 22 23  1  0  0  0  0
 25 24  1  0  0  0  0
M  END
>  <minimizedAffinity>
-4.48444653

$$$$
