
 OpenBabel03242513293D

 37 40  0  0  1  0  0  0  0  0999 V2000
   46.3380   33.5980   41.1970 C   0  0  0  0  0  0  0  0  0  0  0  0
   46.7660   34.6050   42.0480 C   0  0  0  0  0  0  0  0  0  0  0  0
   47.8320   35.3400   41.6620 C   0  0  0  0  0  0  0  0  0  0  0  0
   48.4900   35.1100   40.4580 C   0  0  0  0  0  0  0  0  0  0  0  0
   48.0640   34.1130   39.6190 C   0  0  0  0  0  0  0  0  0  0  0  0
   46.9680   33.3330   39.9810 C   0  0  0  0  0  0  0  0  0  0  0  0
   48.1490   36.1290   42.3530 H   0  0  0  0  0  0  0  0  0  0  0  0
   49.3200   35.7490   40.2510 H   0  0  0  0  0  0  0  0  0  0  0  0
   48.5710   33.9340   38.6890 H   0  0  0  0  0  0  0  0  0  0  0  0
   44.5140   35.9930   44.7320 C   0  0  0  0  0  0  0  0  0  0  0  0
   45.1960   35.8450   43.5210 C   0  0  0  0  0  0  0  0  0  0  0  0
   46.0420   34.7950   43.2860 C   0  0  0  0  0  0  0  0  0  0  0  0
   46.1500   33.9240   44.3310 N   0  0  0  0  0  0  0  0  0  0  0  0
   45.5100   34.0410   45.4990 C   0  0  0  0  0  0  0  0  0  0  0  0
   44.6860   35.0860   45.7000 N   0  0  0  0  0  0  0  0  0  0  0  0
   43.8570   36.8610   44.8380 H   0  0  0  0  0  0  0  0  0  0  0  0
   45.0530   36.5880   42.7380 H   0  0  0  0  0  0  0  0  0  0  0  0
   45.7050   33.2640   46.2270 H   0  0  0  0  0  0  0  0  0  0  0  0
   45.2450   32.8130   41.5500 O   0  0  0  0  0  0  0  0  0  0  0  0
   44.2960   33.0450   41.3260 H   0  0  0  0  0  0  0  0  0  0  0  0
   46.4870   32.3170   39.1900 O   0  0  0  0  0  0  0  0  0  0  0  0
   46.6740   32.2040   37.8610 C   0  0  0  0  0  0  0  0  0  0  0  0
   45.8780   32.6020   36.8080 C   0  0  0  0  0  0  0  0  0  0  0  0
   46.2850   32.3770   35.5290 C   0  0  0  0  0  0  0  0  0  0  0  0
   47.5410   31.7250   35.3720 C   0  0  0  0  0  0  0  0  0  0  0  0
   48.1050   31.4550   37.0800 S   0  0  0  0  0  0  0  0  0  0  0  0
   44.9400   33.0890   37.0350 H   0  0  0  0  0  0  0  0  0  0  0  0
   45.7320   32.6520   34.6430 H   0  0  0  0  0  0  0  0  0  0  0  0
   49.4330   32.2690   34.0020 C   0  0  2  0  0  0  0  0  0  0  0  0
   48.3380   31.2980   34.2400 C   0  0  2  0  0  0  0  0  0  0  0  0
   47.5080   31.3070   33.1210 O   0  0  0  0  0  0  0  0  0  0  0  0
   48.3100   31.6450   32.0390 C   0  0  0  0  0  0  0  0  0  0  0  0
   49.1670   32.7490   32.5790 C   0  0  1  0  0  0  0  0  0  0  0  0
   50.6940   31.6590   33.9520 O   0  0  0  0  0  0  0  0  0  0  0  0
   50.8080   30.9630   34.6360 H   0  0  0  0  0  0  0  0  0  0  0  0
   48.3950   33.9080   32.5900 O   0  0  0  0  0  0  0  0  0  0  0  0
   47.4850   33.6970   32.9260 H   0  0  0  0  0  0  0  0  0  0  0  0
  1 19  1  0  0  0  0
  1  2  1  0  0  0  0
  2 12  1  0  0  0  0
  3  2  2  0  0  0  0
  3  7  1  0  0  0  0
  4  3  1  0  0  0  0
  5  6  1  0  0  0  0
  5  4  2  0  0  0  0
  6  1  2  0  0  0  0
  8  4  1  0  0  0  0
  9  5  1  0  0  0  0
 10 16  1  0  0  0  0
 10 15  1  0  0  0  0
 11 10  2  0  0  0  0
 12 11  1  0  0  0  0
 12 13  2  0  0  0  0
 13 14  1  0  0  0  0
 14 15  2  0  0  0  0
 14 18  1  0  0  0  0
 17 11  1  0  0  0  0
 20 19  1  0  0  0  0
 21  6  1  0  0  0  0
 22 21  1  0  0  0  0
 23 27  1  0  0  0  0
 23 22  2  0  0  0  0
 24 23  1  0  0  0  0
 25 24  2  0  0  0  0
 25 26  1  0  0  0  0
 26 22  1  0  0  0  0
 28 24  1  0  0  0  0
 29 34  1  6  0  0  0
 29 30  1  0  0  0  0
 30 25  1  1  0  0  0
 31 30  1  0  0  0  0
 32 33  1  0  0  0  0
 32 31  1  0  0  0  0
 33 36  1  1  0  0  0
 33 29  1  0  0  0  0
 34 35  1  0  0  0  0
 36 37  1  0  0  0  0
M  END
>  <minimizedAffinity>
-6.81884575

>  <minimizedRMSD>
0.788205564

$$$$
