
 OpenBabel03252506553D

 38 42  0  0  1  0  0  0  0  0999 V2000
   47.2370   31.3710   45.1390 C   0  0  0  0  0  0  0  0  0  0  0  0
   46.8870   32.7070   45.1200 C   0  0  0  0  0  0  0  0  0  0  0  0
   46.2770   33.3390   46.1860 C   0  0  0  0  0  0  0  0  0  0  0  0
   45.9870   32.6320   47.3410 C   0  0  0  0  0  0  0  0  0  0  0  0
   45.4150   32.9030   48.5500 N   0  0  0  0  0  0  0  0  0  0  0  0
   45.4130   31.7680   49.2890 C   0  0  0  0  0  0  0  0  0  0  0  0
   45.9860   30.8010   48.5280 N   0  0  0  0  0  0  0  0  0  0  0  0
   46.3460   31.2990   47.3390 C   0  0  0  0  0  0  0  0  0  0  0  0
   46.9510   30.6450   46.2970 C   0  0  0  0  0  0  0  0  0  0  0  0
   47.7100   30.8860   44.3070 H   0  0  0  0  0  0  0  0  0  0  0  0
   46.0000   34.3950   46.1730 H   0  0  0  0  0  0  0  0  0  0  0  0
   45.0590   33.8550   48.7970 H   0  0  0  0  0  0  0  0  0  0  0  0
   45.0110   31.6940   50.3100 H   0  0  0  0  0  0  0  0  0  0  0  0
   46.5580   35.1670   42.3960 C   0  0  0  0  0  0  0  0  0  0  0  0
   47.7260   34.9620   41.6670 C   0  0  0  0  0  0  0  0  0  0  0  0
   48.6200   33.9930   42.1000 C   0  0  0  0  0  0  0  0  0  0  0  0
   48.3100   33.2780   43.2330 N   0  0  0  0  0  0  0  0  0  0  0  0
   47.1730   33.4930   43.9220 C   0  0  0  0  0  0  0  0  0  0  0  0
   46.3090   34.4270   43.5060 N   0  0  0  0  0  0  0  0  0  0  0  0
   45.8380   35.9110   42.0900 H   0  0  0  0  0  0  0  0  0  0  0  0
   47.9220   35.5460   40.7900 H   0  0  0  0  0  0  0  0  0  0  0  0
   49.5430   33.7870   41.5770 H   0  0  0  0  0  0  0  0  0  0  0  0
   47.2920   29.2200   46.3960 C   0  0  0  0  0  0  0  0  0  0  0  0
   48.5800   28.7170   46.3120 C   0  0  0  0  0  0  0  0  0  0  0  0
   48.4010   27.3400   46.4610 C   0  0  0  0  0  0  0  0  0  0  0  0
   47.0390   27.0900   46.6240 C   0  0  0  0  0  0  0  0  0  0  0  0
   46.4260   28.2540   46.5770 O   0  0  0  0  0  0  0  0  0  0  0  0
   49.5220   29.2290   46.1670 H   0  0  0  0  0  0  0  0  0  0  0  0
   49.1570   26.5760   46.4560 H   0  0  0  0  0  0  0  0  0  0  0  0
   44.8660   25.9890   47.1880 C   0  0  2  0  0  3  0  0  0  0  0  0
   46.3390   25.8150   46.8170 C   0  0  1  0  0  3  0  0  0  0  0  0
   46.2030   25.0550   45.6570 O   0  0  0  0  0  0  0  0  0  0  0  0
   45.4520   23.9730   46.1200 C   0  0  0  0  0  2  0  0  0  0  0  0
   44.4040   24.5460   47.0460 C   0  0  2  0  0  3  0  0  0  0  0  0
   44.2130   26.7190   46.1770 O   0  0  0  0  0  0  0  0  0  0  0  0
   43.9860   26.1210   45.4120 H   0  0  0  0  0  0  0  0  0  0  0  0
   43.1200   24.4440   46.5220 O   0  0  0  0  0  0  0  0  0  0  0  0
   42.5510   25.0940   47.0070 H   0  0  0  0  0  0  0  0  0  0  0  0
  1  9  1  0  0  0  0
  2  1  2  0  0  0  0
  2  3  1  0  0  0  0
  3  4  2  0  0  0  0
  4  5  1  0  0  0  0
  5 12  1  0  0  0  0
  5  6  1  0  0  0  0
  6 13  1  0  0  0  0
  7  6  2  0  0  0  0
  8  4  1  0  0  0  0
  8  7  1  0  0  0  0
  9 23  1  0  0  0  0
  9  8  2  0  0  0  0
 10  1  1  0  0  0  0
 11  3  1  0  0  0  0
 14 19  1  0  0  0  0
 15 16  1  0  0  0  0
 15 14  2  0  0  0  0
 16 17  2  0  0  0  0
 17 18  1  0  0  0  0
 18  2  1  0  0  0  0
 19 18  2  0  0  0  0
 20 14  1  0  0  0  0
 21 15  1  0  0  0  0
 22 16  1  0  0  0  0
 23 27  1  0  0  0  0
 24 23  2  0  0  0  0
 24 25  1  0  0  0  0
 25 26  2  0  0  0  0
 27 26  1  0  0  0  0
 28 24  1  0  0  0  0
 29 25  1  0  0  0  0
 30 35  1  6  0  0  0
 31 26  1  6  0  0  0
 31 30  1  0  0  0  0
 32 33  1  0  0  0  0
 32 31  1  0  0  0  0
 33 34  1  0  0  0  0
 34 37  1  6  0  0  0
 34 30  1  0  0  0  0
 36 35  1  0  0  0  0
 37 38  1  0  0  0  0
M  END
>  <minimizedAffinity>
-5.66210413

>  <minimizedRMSD>
0.871513784

$$$$
