
 OpenBabel03242514483D

 44 47  0  0  1  0  0  0  0  0999 V2000
   46.1530   34.3550   43.7300 C   0  0  0  0  0  0  0  0  0  0  0  0
   47.1050   33.3530   43.6380 C   0  0  0  0  0  0  0  0  0  0  0  0
   47.2920   32.5540   44.7820 C   0  0  0  0  0  0  0  0  0  0  0  0
   46.5520   32.7930   45.8930 N   0  0  0  0  0  0  0  0  0  0  0  0
   45.6430   33.7820   45.9230 C   0  0  0  0  0  0  0  0  0  0  0  0
   45.4550   34.5410   44.8580 N   0  0  0  0  0  0  0  0  0  0  0  0
   48.0050   31.7430   44.8230 H   0  0  0  0  0  0  0  0  0  0  0  0
   45.1170   33.8790   46.8580 H   0  0  0  0  0  0  0  0  0  0  0  0
   49.0720   34.0360   42.2630 C   0  0  2  0  0  0  0  0  0  0  0  0
   47.8750   33.0510   42.4000 C   0  0  1  0  0  0  0  0  0  0  0  0
   48.3260   31.7960   42.2730 O   0  0  0  0  0  0  0  0  0  0  0  0
   49.6980   31.7680   42.3600 C   0  0  0  0  0  0  0  0  0  0  0  0
   50.1260   33.0510   41.7140 C   0  0  1  0  0  0  0  0  0  0  0  0
   48.9800   34.7870   41.4910 H   0  0  0  0  0  0  0  0  0  0  0  0
   47.4750   33.3430   41.4750 H   0  0  0  0  0  0  0  0  0  0  0  0
   49.9950   31.6550   43.4070 H   0  0  0  0  0  0  0  0  0  0  0  0
   50.0280   30.8760   41.7580 H   0  0  0  0  0  0  0  0  0  0  0  0
   51.1270   33.3960   42.0140 H   0  0  0  0  0  0  0  0  0  0  0  0
   49.4840   34.5940   43.4020 O   0  0  0  0  0  0  0  0  0  0  0  0
   50.1490   34.0030   43.8610 H   0  0  0  0  0  0  0  0  0  0  0  0
   49.9920   32.8730   40.3540 O   0  0  0  0  0  0  0  0  0  0  0  0
   49.3790   32.1380   40.0990 H   0  0  0  0  0  0  0  0  0  0  0  0
   45.9540   35.2210   42.5360 C   0  0  0  0  0  0  0  0  0  0  0  0
   46.7670   35.2630   41.8350 H   0  0  0  0  0  0  0  0  0  0  0  0
   45.9280   36.2630   42.9900 H   0  0  0  0  0  0  0  0  0  0  0  0
   45.5940   33.5380   40.2350 F   0  0  0  0  0  0  0  0  0  0  0  0
   44.5600   34.1810   40.7630 C   0  0  0  0  0  0  0  0  0  0  0  0
   44.6670   34.9990   41.8650 C   0  0  0  0  0  0  0  0  0  0  0  0
   43.5440   35.6270   42.3570 C   0  0  0  0  0  0  0  0  0  0  0  0
   42.3450   35.3990   41.7070 C   0  0  0  0  0  0  0  0  0  0  0  0
   42.1760   34.5980   40.6080 C   0  0  0  0  0  0  0  0  0  0  0  0
   43.3310   33.9730   40.1310 C   0  0  0  0  0  0  0  0  0  0  0  0
   43.5670   36.2780   43.2160 H   0  0  0  0  0  0  0  0  0  0  0  0
   41.4670   35.9040   42.1110 H   0  0  0  0  0  0  0  0  0  0  0  0
   41.2170   34.4650   40.1540 H   0  0  0  0  0  0  0  0  0  0  0  0
   41.7400   32.9430   38.5050 C   0  0  2  0  0  0  0  0  0  0  0  0
   43.1850   33.0940   38.9380 C   0  0  2  0  0  0  0  0  0  0  0  0
   43.6330   31.8300   39.2840 O   0  0  0  0  0  0  0  0  0  0  0  0
   42.7240   30.8870   38.8830 C   0  0  0  0  0  0  0  0  0  0  0  0
   41.8240   31.5610   37.8570 C   0  0  2  0  0  0  0  0  0  0  0  0
   41.3780   33.9110   37.5730 O   0  0  0  0  0  0  0  0  0  0  0  0
   40.6700   34.4710   37.9840 H   0  0  0  0  0  0  0  0  0  0  0  0
   42.5270   31.6270   36.6810 O   0  0  0  0  0  0  0  0  0  0  0  0
   43.4850   31.3990   36.7890 H   0  0  0  0  0  0  0  0  0  0  0  0
  1  6  1  0  0  0  0
  2  1  2  0  0  0  0
  2  3  1  0  0  0  0
  3  7  1  0  0  0  0
  3  4  2  0  0  0  0
  4  5  1  0  0  0  0
  5  8  1  0  0  0  0
  6  5  2  0  0  0  0
  9 14  1  6  0  0  0
  9 10  1  0  0  0  0
  9 19  1  0  0  0  0
 10 15  1  6  0  0  0
 10  2  1  0  0  0  0
 11 12  1  0  0  0  0
 11 10  1  0  0  0  0
 12 16  1  0  0  0  0
 13 18  1  1  0  0  0
 13  9  1  0  0  0  0
 13 12  1  0  0  0  0
 17 12  1  0  0  0  0
 19 20  1  0  0  0  0
 21 13  1  0  0  0  0
 22 21  1  0  0  0  0
 23 25  1  0  0  0  0
 23  1  1  0  0  0  0
 24 23  1  0  0  0  0
 26 27  1  0  0  0  0
 27 28  1  0  0  0  0
 28 29  2  0  0  0  0
 28 23  1  0  0  0  0
 29 33  1  0  0  0  0
 30 34  1  0  0  0  0
 30 29  1  0  0  0  0
 31 30  2  0  0  0  0
 32 31  1  0  0  0  0
 32 27  2  0  0  0  0
 35 31  1  0  0  0  0
 36 41  1  6  0  0  0
 36 37  1  0  0  0  0
 37 38  1  0  0  0  0
 37 32  1  1  0  0  0
 39 38  1  0  0  0  0
 40 43  1  6  0  0  0
 40 36  1  0  0  0  0
 40 39  1  0  0  0  0
 41 42  1  0  0  0  0
 43 44  1  0  0  0  0
M  END
>  <minimizedAffinity>
-6.44037342

>  <minimizedRMSD>
0.714749873

$$$$
