
 OpenBabel03252509113D

 31 34  0  0  1  0  0  0  0  0999 V2000
   50.1950   29.8190   43.3200 C   0  0  0  0  0  0  0  0  0  0  0  0
   50.2310   29.9810   41.9570 C   0  0  0  0  0  0  0  0  0  0  0  0
   49.1540   30.4560   41.2040 C   0  0  0  0  0  0  0  0  0  0  0  0
   47.9690   30.7880   41.8700 C   0  0  0  0  0  0  0  0  0  0  0  0
   46.7560   31.2600   41.5220 N   0  0  0  0  0  0  0  0  0  0  0  0
   45.9880   31.3860   42.6460 C   0  0  0  0  0  0  0  0  0  0  0  0
   46.7510   30.9850   43.6850 N   0  0  0  0  0  0  0  0  0  0  0  0
   47.9640   30.6140   43.2490 C   0  0  0  0  0  0  0  0  0  0  0  0
   49.0200   30.1460   43.9970 C   0  0  0  0  0  0  0  0  0  0  0  0
   51.0730   29.4430   43.8390 H   0  0  0  0  0  0  0  0  0  0  0  0
   46.4360   31.4930   40.5820 H   0  0  0  0  0  0  0  0  0  0  0  0
   44.9700   31.7350   42.7230 H   0  0  0  0  0  0  0  0  0  0  0  0
   48.9520   30.0330   45.0670 H   0  0  0  0  0  0  0  0  0  0  0  0
   52.7330   28.0570   40.0630 C   0  0  0  0  0  0  0  0  0  0  0  0
   53.7210   29.0070   39.8270 C   0  0  0  0  0  0  0  0  0  0  0  0
   53.5440   30.3270   40.3220 C   0  0  0  0  0  0  0  0  0  0  0  0
   52.3880   30.6000   41.0170 N   0  0  0  0  0  0  0  0  0  0  0  0
   51.4520   29.6520   41.2260 C   0  0  0  0  0  0  0  0  0  0  0  0
   51.6590   28.4340   40.7470 N   0  0  0  0  0  0  0  0  0  0  0  0
   52.8010   27.0360   39.7170 H   0  0  0  0  0  0  0  0  0  0  0  0
   54.6090   28.7360   39.2730 H   0  0  0  0  0  0  0  0  0  0  0  0
   54.2830   31.0770   40.1570 H   0  0  0  0  0  0  0  0  0  0  0  0
   49.4960   32.0270   39.2960 C   0  0  2  0  0  3  0  0  0  0  0  0
   49.1330   30.6460   39.7350 C   0  0  1  0  0  3  0  0  0  0  0  0
   50.0210   29.7650   39.0910 O   0  0  0  0  0  0  0  0  0  0  0  0
   50.3150   30.3390   37.8750 C   0  0  0  0  0  2  0  0  0  0  0  0
   50.5050   31.7900   38.1710 C   0  0  2  0  0  3  0  0  0  0  0  0
   50.1610   32.7530   40.2800 O   0  0  0  0  0  0  0  0  0  0  0  0
   50.6240   33.5050   39.8360 H   0  0  0  0  0  0  0  0  0  0  0  0
   51.7840   32.1450   38.5560 O   0  0  0  0  0  0  0  0  0  0  0  0
   52.3400   32.3560   37.7740 H   0  0  0  0  0  0  0  0  0  0  0  0
  1 10  1  0  0  0  0
  1  9  1  0  0  0  0
  2  1  2  0  0  0  0
  3  4  2  0  0  0  0
  3  2  1  0  0  0  0
  4  8  1  0  0  0  0
  5  4  1  0  0  0  0
  5  6  1  0  0  0  0
  6 12  1  0  0  0  0
  6  7  2  0  0  0  0
  8  7  1  0  0  0  0
  8  9  2  0  0  0  0
  9 13  1  0  0  0  0
 11  5  1  0  0  0  0
 14 19  1  0  0  0  0
 15 14  2  0  0  0  0
 15 16  1  0  0  0  0
 16 17  2  0  0  0  0
 17 18  1  0  0  0  0
 18  2  1  0  0  0  0
 19 18  2  0  0  0  0
 20 14  1  0  0  0  0
 21 15  1  0  0  0  0
 22 16  1  0  0  0  0
 23 24  1  0  0  0  0
 23 28  1  1  0  0  0
 24  3  1  1  0  0  0
 25 24  1  0  0  0  0
 26 27  1  0  0  0  0
 26 25  1  0  0  0  0
 27 30  1  1  0  0  0
 27 23  1  0  0  0  0
 29 28  1  0  0  0  0
 31 30  1  0  0  0  0
M  END
>  <minimizedAffinity>
-2.87658858

>  <minimizedRMSD>
8.00460052

$$$$
