
 OpenBabel03252509203D

 25 27  0  0  1  0  0  0  0  0999 V2000
   44.9420   34.2780   43.9380 C   0  0  0  0  0  0  0  0  0  0  0  0
   45.5410   34.7160   42.7170 C   0  0  0  0  0  0  0  0  0  0  0  0
   46.8810   34.4120   42.5960 C   0  0  0  0  0  0  0  0  0  0  0  0
   47.5390   33.7350   43.6070 N   0  0  0  0  0  0  0  0  0  0  0  0
   46.9450   33.3380   44.7370 C   0  0  0  0  0  0  0  0  0  0  0  0
   45.6230   33.6170   44.9010 N   0  0  0  0  0  0  0  0  0  0  0  0
   43.9570   34.3620   44.3130 H   0  0  0  0  0  0  0  0  0  0  0  0
   47.6380   32.8280   45.3860 H   0  0  0  0  0  0  0  0  0  0  0  0
   47.5760   34.7530   41.3090 C   0  0  0  0  0  0  0  0  0  0  0  0
   48.8080   35.6460   41.5770 C   0  0  0  0  0  0  0  0  0  0  0  0
   48.8780   34.1770   41.0730 C   0  0  0  0  0  0  0  0  0  0  0  0
   46.9810   35.2310   40.4890 H   0  0  0  0  0  0  0  0  0  0  0  0
   49.0650   36.3710   40.7870 H   0  0  0  0  0  0  0  0  0  0  0  0
   49.0940   35.8330   42.6050 H   0  0  0  0  0  0  0  0  0  0  0  0
   49.2470   34.0300   40.0160 H   0  0  0  0  0  0  0  0  0  0  0  0
   49.3310   33.4620   41.8050 H   0  0  0  0  0  0  0  0  0  0  0  0
   43.1510   35.1020   42.0290 C   0  0  1  0  0  3  0  0  0  0  0  0
   44.6230   35.3670   41.8280 C   0  0  2  0  0  3  0  0  0  0  0  0
   44.6980   34.7180   40.5590 O   0  0  0  0  0  0  0  0  0  0  0  0
   44.1090   33.4650   40.7300 C   0  0  0  0  0  2  0  0  0  0  0  0
   43.1020   33.6250   41.8800 C   0  0  2  0  0  3  0  0  0  0  0  0
   42.5470   35.6850   43.0680 O   0  0  0  0  0  0  0  0  0  0  0  0
   42.9690   36.5230   43.3180 H   0  0  0  0  0  0  0  0  0  0  0  0
   41.8250   33.1870   41.4770 O   0  0  0  0  0  0  0  0  0  0  0  0
   41.7590   32.2490   41.7830 H   0  0  0  0  0  0  0  0  0  0  0  0
  1  7  1  0  0  0  0
  1  6  1  0  0  0  0
  2  1  2  0  0  0  0
  3  2  1  0  0  0  0
  3  4  2  0  0  0  0
  4  5  1  0  0  0  0
  5  6  2  0  0  0  0
  5  8  1  0  0  0  0
  9 10  1  0  0  0  0
  9  3  1  0  0  0  0
 10 14  1  0  0  0  0
 11  9  1  0  0  0  0
 11 10  1  0  0  0  0
 11 16  1  0  0  0  0
 12  9  1  0  0  0  0
 13 10  1  0  0  0  0
 15 11  1  0  0  0  0
 17 22  1  1  0  0  0
 18 17  1  0  0  0  0
 18  2  1  1  0  0  0
 19 20  1  0  0  0  0
 19 18  1  0  0  0  0
 20 21  1  0  0  0  0
 21 24  1  6  0  0  0
 21 17  1  0  0  0  0
 22 23  1  0  0  0  0
 24 25  1  0  0  0  0
M  END
>  <minimizedAffinity>
-4.82449865

>  <minimizedRMSD>
1.75730288

$$$$
