
 OpenBabel03242520253D

 24 25  0  0  1  0  0  0  0  0999 V2000
   38.0820   30.8220   37.6840 C   0  0  0  0  0  0  0  0  0  0  0  0
   38.2710   30.5580   39.0640 C   0  0  0  0  0  0  0  0  0  0  0  0
   37.9800   29.2850   39.5280 C   0  0  0  0  0  0  0  0  0  0  0  0
   37.5250   28.3440   38.6420 N   0  0  0  0  0  0  0  0  0  0  0  0
   37.3560   28.6210   37.3440 C   0  0  0  0  0  0  0  0  0  0  0  0
   37.6270   29.8450   36.8500 N   0  0  0  0  0  0  0  0  0  0  0  0
   38.3040   31.8090   37.3020 H   0  0  0  0  0  0  0  0  0  0  0  0
   36.9910   27.7650   36.7880 H   0  0  0  0  0  0  0  0  0  0  0  0
   37.8460   32.8380   39.7140 C   0  0  2  0  0  3  0  0  0  0  0  0
   38.7710   31.6640   39.9260 C   0  0  2  0  0  3  0  0  0  0  0  0
   39.9530   32.1060   39.3490 O   0  0  0  0  0  0  0  0  0  0  0  0
   40.1070   33.4450   39.6110 C   0  0  0  0  0  2  0  0  0  0  0  0
   38.7770   34.0060   40.0490 C   0  0  2  0  0  3  0  0  0  0  0  0
   36.8030   32.8780   40.6360 O   0  0  0  0  0  0  0  0  0  0  0  0
   36.0490   33.3520   40.1840 H   0  0  0  0  0  0  0  0  0  0  0  0
   38.8140   34.1610   41.4370 O   0  0  0  0  0  0  0  0  0  0  0  0
   38.5580   35.0870   41.6910 H   0  0  0  0  0  0  0  0  0  0  0  0
   38.1690   29.0390   40.8830 O   0  0  0  0  0  0  0  0  0  0  0  0
   36.0910   27.6770   41.7770 O   0  0  0  0  0  0  0  0  0  0  0  0
   36.7880   29.0280   41.9170 P   0  0  0  0  0  0  0  0  0  0  0  0
   37.3030   29.3000   43.4920 O   0  0  0  0  0  0  0  0  0  0  0  0
   38.0810   28.7100   43.6720 H   0  0  0  0  0  0  0  0  0  0  0  0
   35.7280   30.2210   41.3810 O   0  0  0  0  0  0  0  0  0  0  0  0
   35.4090   30.8320   42.0900 H   0  0  0  0  0  0  0  0  0  0  0  0
  1  2  1  0  0  0  0
  2  3  2  0  0  0  0
  3 18  1  0  0  0  0
  4  3  1  0  0  0  0
  5  4  2  0  0  0  0
  6  5  1  0  0  0  0
  6  1  2  0  0  0  0
  7  1  1  0  0  0  0
  8  5  1  0  0  0  0
  9 10  1  0  0  0  0
  9 13  1  0  0  0  0
  9 14  1  1  0  0  0
 10  2  1  6  0  0  0
 11 12  1  0  0  0  0
 11 10  1  0  0  0  0
 12 13  1  0  0  0  0
 13 16  1  1  0  0  0
 15 14  1  0  0  0  0
 16 17  1  0  0  0  0
 18 20  1  0  0  0  0
 19 20  2  0  0  0  0
 20 21  1  0  0  0  0
 21 22  1  0  0  0  0
 23 20  1  0  0  0  0
 23 24  1  0  0  0  0
M  END
>  <minimizedAffinity>
-5.31810665

$$$$

 OpenBabel03242520253D

 24 25  0  0  1  0  0  0  0  0999 V2000
   38.8930   30.4350   42.1420 C   0  0  0  0  0  0  0  0  0  0  0  0
   38.7360   30.3930   40.7340 C   0  0  0  0  0  0  0  0  0  0  0  0
   39.7980   30.8120   39.9490 C   0  0  0  0  0  0  0  0  0  0  0  0
   40.9450   31.2450   40.5610 N   0  0  0  0  0  0  0  0  0  0  0  0
   41.0650   31.2740   41.8930 C   0  0  0  0  0  0  0  0  0  0  0  0
   40.0590   30.8760   42.6950 N   0  0  0  0  0  0  0  0  0  0  0  0
   38.0760   30.1120   42.7730 H   0  0  0  0  0  0  0  0  0  0  0  0
   42.0350   31.6440   42.2070 H   0  0  0  0  0  0  0  0  0  0  0  0
   36.4460   29.9370   41.3230 C   0  0  2  0  0  3  0  0  0  0  0  0
   37.4400   29.9000   40.1890 C   0  0  2  0  0  3  0  0  0  0  0  0
   37.5990   28.5390   39.9720 O   0  0  0  0  0  0  0  0  0  0  0  0
   36.3890   27.9140   40.1410 C   0  0  0  0  0  2  0  0  0  0  0  0
   35.4650   28.8460   40.8830 C   0  0  2  0  0  3  0  0  0  0  0  0
   35.7260   31.1270   41.3740 O   0  0  0  0  0  0  0  0  0  0  0  0
   35.4630   31.2540   42.3290 H   0  0  0  0  0  0  0  0  0  0  0  0
   34.5760   29.3960   39.9570 O   0  0  0  0  0  0  0  0  0  0  0  0
   33.6370   29.2680   40.2570 H   0  0  0  0  0  0  0  0  0  0  0  0
   39.6310   30.7660   38.5690 O   0  0  0  0  0  0  0  0  0  0  0  0
   41.5980   31.7590   37.1140 O   0  0  0  0  0  0  0  0  0  0  0  0
   40.2000   32.0950   37.6280 P   0  0  0  0  0  0  0  0  0  0  0  0
   39.1210   32.3520   36.3670 O   0  0  0  0  0  0  0  0  0  0  0  0
   38.9200   31.4770   35.9460 H   0  0  0  0  0  0  0  0  0  0  0  0
   40.3240   33.4350   38.6420 O   0  0  0  0  0  0  0  0  0  0  0  0
   39.8890   34.2510   38.2920 H   0  0  0  0  0  0  0  0  0  0  0  0
  1  6  1  0  0  0  0
  1  7  1  0  0  0  0
  2  1  2  0  0  0  0
  3  4  2  0  0  0  0
  3  2  1  0  0  0  0
  4  5  1  0  0  0  0
  5  8  1  0  0  0  0
  5  6  2  0  0  0  0
  9 14  1  6  0  0  0
 10  2  1  1  0  0  0
 10  9  1  0  0  0  0
 11 12  1  0  0  0  0
 11 10  1  0  0  0  0
 12 13  1  0  0  0  0
 13 16  1  6  0  0  0
 13  9  1  0  0  0  0
 14 15  1  0  0  0  0
 16 17  1  0  0  0  0
 18  3  1  0  0  0  0
 19 20  2  0  0  0  0
 20 18  1  0  0  0  0
 20 23  1  0  0  0  0
 21 20  1  0  0  0  0
 22 21  1  0  0  0  0
 24 23  1  0  0  0  0
M  END
>  <minimizedAffinity>
-5.31099653

$$$$

 OpenBabel03242520253D

 24 25  0  0  1  0  0  0  0  0999 V2000
   41.7120   29.8850   40.4570 C   0  0  0  0  0  0  0  0  0  0  0  0
   40.4530   30.5360   40.4360 C   0  0  0  0  0  0  0  0  0  0  0  0
   39.5660   30.2730   41.4680 C   0  0  0  0  0  0  0  0  0  0  0  0
   39.9400   29.4000   42.4560 N   0  0  0  0  0  0  0  0  0  0  0  0
   41.1360   28.7990   42.4510 C   0  0  0  0  0  0  0  0  0  0  0  0
   42.0280   29.0270   41.4670 N   0  0  0  0  0  0  0  0  0  0  0  0
   42.4180   30.0780   39.6610 H   0  0  0  0  0  0  0  0  0  0  0  0
   41.2660   28.1430   43.3040 H   0  0  0  0  0  0  0  0  0  0  0  0
   40.7940   30.8640   38.0740 C   0  0  2  0  0  3  0  0  0  0  0  0
   40.1640   31.4650   39.3070 C   0  0  2  0  0  3  0  0  0  0  0  0
   40.9400   32.5950   39.5200 O   0  0  0  0  0  0  0  0  0  0  0  0
   41.2730   33.1460   38.3080 C   0  0  0  0  0  2  0  0  0  0  0  0
   41.0330   32.1190   37.2300 C   0  0  2  0  0  3  0  0  0  0  0  0
   39.9150   30.0580   37.3550 O   0  0  0  0  0  0  0  0  0  0  0  0
   40.4800   29.3880   36.8750 H   0  0  0  0  0  0  0  0  0  0  0  0
   39.8430   32.4500   36.5790 O   0  0  0  0  0  0  0  0  0  0  0  0
   39.9860   32.5020   35.5970 H   0  0  0  0  0  0  0  0  0  0  0  0
   38.3350   30.9180   41.4350 O   0  0  0  0  0  0  0  0  0  0  0  0
   36.8900   28.8930   40.5520 O   0  0  0  0  0  0  0  0  0  0  0  0
   36.9060   29.9720   41.6310 P   0  0  0  0  0  0  0  0  0  0  0  0
   36.9180   29.3080   43.1730 O   0  0  0  0  0  0  0  0  0  0  0  0
   37.8150   28.9170   43.3380 H   0  0  0  0  0  0  0  0  0  0  0  0
   35.5790   30.9790   41.3840 O   0  0  0  0  0  0  0  0  0  0  0  0
   34.8930   30.9300   42.0940 H   0  0  0  0  0  0  0  0  0  0  0  0
  1  6  1  0  0  0  0
  2  1  2  0  0  0  0
  2  3  1  0  0  0  0
  3  4  2  0  0  0  0
  5  4  1  0  0  0  0
  5  8  1  0  0  0  0
  6  5  2  0  0  0  0
  7  1  1  0  0  0  0
  9 14  1  6  0  0  0
  9 10  1  0  0  0  0
 10 11  1  0  0  0  0
 10  2  1  1  0  0  0
 12 11  1  0  0  0  0
 13 16  1  1  0  0  0
 13  9  1  0  0  0  0
 13 12  1  0  0  0  0
 15 14  1  0  0  0  0
 17 16  1  0  0  0  0
 18  3  1  0  0  0  0
 18 20  1  0  0  0  0
 19 20  2  0  0  0  0
 20 21  1  0  0  0  0
 21 22  1  0  0  0  0
 23 20  1  0  0  0  0
 23 24  1  0  0  0  0
M  END
>  <minimizedAffinity>
-5.15900755

$$$$

 OpenBabel03242520253D

 24 25  0  0  1  0  0  0  0  0999 V2000
   41.0680   29.8810   42.5710 C   0  0  0  0  0  0  0  0  0  0  0  0
   39.8880   29.8010   41.7910 C   0  0  0  0  0  0  0  0  0  0  0  0
   39.6400   30.8160   40.8810 C   0  0  0  0  0  0  0  0  0  0  0  0
   40.5380   31.8460   40.7750 N   0  0  0  0  0  0  0  0  0  0  0  0
   41.6450   31.8950   41.5260 C   0  0  0  0  0  0  0  0  0  0  0  0
   41.9250   30.9290   42.4220 N   0  0  0  0  0  0  0  0  0  0  0  0
   41.2800   29.0980   43.2870 H   0  0  0  0  0  0  0  0  0  0  0  0
   42.2420   32.7750   41.3140 H   0  0  0  0  0  0  0  0  0  0  0  0
   38.0680   28.9820   43.1390 C   0  0  2  0  0  3  0  0  0  0  0  0
   38.9890   28.6310   41.9970 C   0  0  2  0  0  3  0  0  0  0  0  0
   39.7750   27.6260   42.5430 O   0  0  0  0  0  0  0  0  0  0  0  0
   38.9970   26.8420   43.3590 C   0  0  0  0  0  2  0  0  0  0  0  0
   37.7250   27.5890   43.6740 C   0  0  2  0  0  3  0  0  0  0  0  0
   36.8710   29.5530   42.7130 O   0  0  0  0  0  0  0  0  0  0  0  0
   36.5570   30.1350   43.4620 H   0  0  0  0  0  0  0  0  0  0  0  0
   36.7040   27.0500   42.8890 O   0  0  0  0  0  0  0  0  0  0  0  0
   35.9290   26.7910   43.4540 H   0  0  0  0  0  0  0  0  0  0  0  0
   38.4790   30.7270   40.1210 O   0  0  0  0  0  0  0  0  0  0  0  0
   37.0950   32.4790   38.7120 O   0  0  0  0  0  0  0  0  0  0  0  0
   37.3740   32.0500   40.1500 P   0  0  0  0  0  0  0  0  0  0  0  0
   35.9730   31.5540   40.9320 O   0  0  0  0  0  0  0  0  0  0  0  0
   35.7050   30.6730   40.5630 H   0  0  0  0  0  0  0  0  0  0  0  0
   38.1220   33.3350   40.9430 O   0  0  0  0  0  0  0  0  0  0  0  0
   37.5770   33.7450   41.6590 H   0  0  0  0  0  0  0  0  0  0  0  0
  1  7  1  0  0  0  0
  2  1  2  0  0  0  0
  3  2  1  0  0  0  0
  4  3  2  0  0  0  0
  4  5  1  0  0  0  0
  5  6  2  0  0  0  0
  6  1  1  0  0  0  0
  8  5  1  0  0  0  0
  9 14  1  6  0  0  0
  9 13  1  0  0  0  0
 10  2  1  1  0  0  0
 10 11  1  0  0  0  0
 10  9  1  0  0  0  0
 11 12  1  0  0  0  0
 12 13  1  0  0  0  0
 13 16  1  6  0  0  0
 14 15  1  0  0  0  0
 16 17  1  0  0  0  0
 18 20  1  0  0  0  0
 18  3  1  0  0  0  0
 19 20  2  0  0  0  0
 20 21  1  0  0  0  0
 20 23  1  0  0  0  0
 22 21  1  0  0  0  0
 23 24  1  0  0  0  0
M  END
>  <minimizedAffinity>
-5.10231924

$$$$

 OpenBabel03242520253D

 24 25  0  0  1  0  0  0  0  0999 V2000
   40.9270   28.9720   42.6830 C   0  0  0  0  0  0  0  0  0  0  0  0
   39.5120   28.9380   42.6060 C   0  0  0  0  0  0  0  0  0  0  0  0
   38.8490   30.1150   42.2970 C   0  0  0  0  0  0  0  0  0  0  0  0
   39.5830   31.2520   42.0820 N   0  0  0  0  0  0  0  0  0  0  0  0
   40.9190   31.2550   42.1610 C   0  0  0  0  0  0  0  0  0  0  0  0
   41.6030   30.1330   42.4580 N   0  0  0  0  0  0  0  0  0  0  0  0
   41.4630   28.0640   42.9220 H   0  0  0  0  0  0  0  0  0  0  0  0
   41.3370   32.2350   41.9630 H   0  0  0  0  0  0  0  0  0  0  0  0
   38.3530   27.1260   41.5220 C   0  0  2  0  0  3  0  0  0  0  0  0
   38.8280   27.6390   42.8600 C   0  0  2  0  0  3  0  0  0  0  0  0
   37.6370   27.9440   43.5040 O   0  0  0  0  0  0  0  0  0  0  0  0
   36.6950   27.0020   43.1730 C   0  0  0  0  0  2  0  0  0  0  0  0
   37.1670   26.2570   41.9500 C   0  0  2  0  0  3  0  0  0  0  0  0
   39.2720   26.2770   40.9120 O   0  0  0  0  0  0  0  0  0  0  0  0
   39.1140   26.3560   39.9280 H   0  0  0  0  0  0  0  0  0  0  0  0
   37.6520   25.0150   42.3640 O   0  0  0  0  0  0  0  0  0  0  0  0
   37.2200   24.2830   41.8500 H   0  0  0  0  0  0  0  0  0  0  0  0
   37.4620   30.0680   42.2250 O   0  0  0  0  0  0  0  0  0  0  0  0
   37.4440   30.0230   39.5840 O   0  0  0  0  0  0  0  0  0  0  0  0
   36.6950   30.6110   40.7780 P   0  0  0  0  0  0  0  0  0  0  0  0
   35.0910   30.1160   40.8100 O   0  0  0  0  0  0  0  0  0  0  0  0
   35.0650   29.1590   41.0730 H   0  0  0  0  0  0  0  0  0  0  0  0
   36.8400   32.2880   40.7110 O   0  0  0  0  0  0  0  0  0  0  0  0
   35.9920   32.7640   40.5330 H   0  0  0  0  0  0  0  0  0  0  0  0
  1  7  1  0  0  0  0
  2  1  1  0  0  0  0
  3  2  2  0  0  0  0
  4  5  2  0  0  0  0
  4  3  1  0  0  0  0
  5  6  1  0  0  0  0
  6  1  2  0  0  0  0
  8  5  1  0  0  0  0
  9 14  1  1  0  0  0
  9 13  1  0  0  0  0
  9 10  1  0  0  0  0
 10  2  1  6  0  0  0
 10 11  1  0  0  0  0
 12 11  1  0  0  0  0
 13 16  1  1  0  0  0
 13 12  1  0  0  0  0
 15 14  1  0  0  0  0
 17 16  1  0  0  0  0
 18  3  1  0  0  0  0
 19 20  2  0  0  0  0
 20 21  1  0  0  0  0
 20 18  1  0  0  0  0
 21 22  1  0  0  0  0
 23 20  1  0  0  0  0
 24 23  1  0  0  0  0
M  END
>  <minimizedAffinity>
-4.92870808

$$$$

 OpenBabel03242520253D

 24 25  0  0  1  0  0  0  0  0999 V2000
   38.0520   28.5090   38.1430 C   0  0  0  0  0  0  0  0  0  0  0  0
   37.5560   28.9360   39.4000 C   0  0  0  0  0  0  0  0  0  0  0  0
   36.8310   28.0280   40.1560 C   0  0  0  0  0  0  0  0  0  0  0  0
   36.6260   26.7670   39.6600 N   0  0  0  0  0  0  0  0  0  0  0  0
   37.1070   26.3910   38.4700 C   0  0  0  0  0  0  0  0  0  0  0  0
   37.8170   27.2410   37.7030 N   0  0  0  0  0  0  0  0  0  0  0  0
   38.6210   29.2020   37.5390 H   0  0  0  0  0  0  0  0  0  0  0  0
   36.8530   25.3640   38.2340 H   0  0  0  0  0  0  0  0  0  0  0  0
   36.5910   31.1350   39.5860 C   0  0  2  0  0  3  0  0  0  0  0  0
   37.8460   30.3330   39.8300 C   0  0  2  0  0  3  0  0  0  0  0  0
   38.7240   30.8560   38.8910 O   0  0  0  0  0  0  0  0  0  0  0  0
   38.5140   32.2090   38.7880 C   0  0  0  0  0  2  0  0  0  0  0  0
   37.1750   32.5380   39.3980 C   0  0  2  0  0  3  0  0  0  0  0  0
   35.7600   31.1920   40.7020 O   0  0  0  0  0  0  0  0  0  0  0  0
   34.8320   31.3180   40.3520 H   0  0  0  0  0  0  0  0  0  0  0  0
   37.4040   33.0960   40.6580 O   0  0  0  0  0  0  0  0  0  0  0  0
   36.9320   33.9660   40.7450 H   0  0  0  0  0  0  0  0  0  0  0  0
   36.3500   28.4600   41.3870 O   0  0  0  0  0  0  0  0  0  0  0  0
   36.1790   27.1620   43.6800 O   0  0  0  0  0  0  0  0  0  0  0  0
   37.1660   27.9430   42.8160 P   0  0  0  0  0  0  0  0  0  0  0  0
   38.4790   26.9980   42.3640 O   0  0  0  0  0  0  0  0  0  0  0  0
   38.1720   26.3420   41.6860 H   0  0  0  0  0  0  0  0  0  0  0  0
   37.6360   29.3160   43.6710 O   0  0  0  0  0  0  0  0  0  0  0  0
   38.5860   29.3190   43.9460 H   0  0  0  0  0  0  0  0  0  0  0  0
  1  2  1  0  0  0  0
  2  3  2  0  0  0  0
  3 18  1  0  0  0  0
  4  3  1  0  0  0  0
  5  4  2  0  0  0  0
  6  1  2  0  0  0  0
  6  5  1  0  0  0  0
  7  1  1  0  0  0  0
  8  5  1  0  0  0  0
  9 10  1  0  0  0  0
  9 14  1  1  0  0  0
 10  2  1  6  0  0  0
 11 10  1  0  0  0  0
 12 11  1  0  0  0  0
 12 13  1  0  0  0  0
 13  9  1  0  0  0  0
 13 16  1  1  0  0  0
 15 14  1  0  0  0  0
 16 17  1  0  0  0  0
 18 20  1  0  0  0  0
 20 23  1  0  0  0  0
 20 19  2  0  0  0  0
 21 20  1  0  0  0  0
 22 21  1  0  0  0  0
 23 24  1  0  0  0  0
M  END
>  <minimizedAffinity>
-4.89512157

$$$$

 OpenBabel03242520253D

 24 25  0  0  1  0  0  0  0  0999 V2000
   39.2200   30.8260   41.5440 C   0  0  0  0  0  0  0  0  0  0  0  0
   38.4050   30.8720   40.3850 C   0  0  0  0  0  0  0  0  0  0  0  0
   37.2400   30.1210   40.3780 C   0  0  0  0  0  0  0  0  0  0  0  0
   36.9290   29.3710   41.4820 N   0  0  0  0  0  0  0  0  0  0  0  0
   37.7170   29.3460   42.5630 C   0  0  0  0  0  0  0  0  0  0  0  0
   38.8580   30.0610   42.6120 N   0  0  0  0  0  0  0  0  0  0  0  0
   40.1320   31.4050   41.5690 H   0  0  0  0  0  0  0  0  0  0  0  0
   37.3210   28.7030   43.3410 H   0  0  0  0  0  0  0  0  0  0  0  0
   39.6700   30.8470   38.3360 C   0  0  2  0  0  3  0  0  0  0  0  0
   38.8510   31.7260   39.2490 C   0  0  2  0  0  3  0  0  0  0  0  0
   39.8030   32.5950   39.7630 O   0  0  0  0  0  0  0  0  0  0  0  0
   40.7100   32.9000   38.7780 C   0  0  0  0  0  2  0  0  0  0  0  0
   40.5770   31.8860   37.6700 C   0  0  2  0  0  3  0  0  0  0  0  0
   38.9130   30.2670   37.3210 O   0  0  0  0  0  0  0  0  0  0  0  0
   39.3780   29.4160   37.0790 H   0  0  0  0  0  0  0  0  0  0  0  0
   39.8730   32.4840   36.6230 O   0  0  0  0  0  0  0  0  0  0  0  0
   40.3740   32.3940   35.7700 H   0  0  0  0  0  0  0  0  0  0  0  0
   36.4500   30.1750   39.2350 O   0  0  0  0  0  0  0  0  0  0  0  0
   34.6270   29.1380   37.6320 O   0  0  0  0  0  0  0  0  0  0  0  0
   35.2180   28.9860   39.0310 P   0  0  0  0  0  0  0  0  0  0  0  0
   35.9040   27.4690   39.2530 O   0  0  0  0  0  0  0  0  0  0  0  0
   36.7460   27.4280   38.7280 H   0  0  0  0  0  0  0  0  0  0  0  0
   34.0000   29.3010   40.1510 O   0  0  0  0  0  0  0  0  0  0  0  0
   33.7240   28.5160   40.6840 H   0  0  0  0  0  0  0  0  0  0  0  0
  1  7  1  0  0  0  0
  1  6  1  0  0  0  0
  2  1  2  0  0  0  0
  3  2  1  0  0  0  0
  3  4  2  0  0  0  0
  4  5  1  0  0  0  0
  5  6  2  0  0  0  0
  5  8  1  0  0  0  0
  9 14  1  6  0  0  0
  9 10  1  0  0  0  0
 10 11  1  0  0  0  0
 10  2  1  1  0  0  0
 12 11  1  0  0  0  0
 13 16  1  6  0  0  0
 13  9  1  0  0  0  0
 13 12  1  0  0  0  0
 15 14  1  0  0  0  0
 17 16  1  0  0  0  0
 18  3  1  0  0  0  0
 19 20  2  0  0  0  0
 20 18  1  0  0  0  0
 20 21  1  0  0  0  0
 20 23  1  0  0  0  0
 22 21  1  0  0  0  0
 23 24  1  0  0  0  0
M  END
>  <minimizedAffinity>
-4.83512115

$$$$

 OpenBabel03242520253D

 24 25  0  0  1  0  0  0  0  0999 V2000
   35.9830   29.8290   37.8220 C   0  0  0  0  0  0  0  0  0  0  0  0
   36.5730   30.1640   39.0660 C   0  0  0  0  0  0  0  0  0  0  0  0
   35.9030   29.8020   40.2230 C   0  0  0  0  0  0  0  0  0  0  0  0
   34.7070   29.1410   40.1160 N   0  0  0  0  0  0  0  0  0  0  0  0
   34.1730   28.8370   38.9280 C   0  0  0  0  0  0  0  0  0  0  0  0
   34.7910   29.1710   37.7780 N   0  0  0  0  0  0  0  0  0  0  0  0
   36.4910   30.1030   36.9070 H   0  0  0  0  0  0  0  0  0  0  0  0
   33.2270   28.3170   39.0270 H   0  0  0  0  0  0  0  0  0  0  0  0
   37.8740   31.7720   37.8310 C   0  0  2  0  0  3  0  0  0  0  0  0
   37.8780   30.8830   39.0510 C   0  0  2  0  0  3  0  0  0  0  0  0
   38.8420   29.9380   38.7310 O   0  0  0  0  0  0  0  0  0  0  0  0
   39.8630   30.5520   38.0490 C   0  0  0  0  0  2  0  0  0  0  0  0
   39.3760   31.8900   37.5540 C   0  0  2  0  0  3  0  0  0  0  0  0
   37.4130   33.0580   38.0990 O   0  0  0  0  0  0  0  0  0  0  0  0
   37.0280   33.4000   37.2430 H   0  0  0  0  0  0  0  0  0  0  0  0
   39.9050   32.8760   38.3900 O   0  0  0  0  0  0  0  0  0  0  0  0
   40.3700   33.5730   37.8560 H   0  0  0  0  0  0  0  0  0  0  0  0
   36.4930   30.1360   41.4370 O   0  0  0  0  0  0  0  0  0  0  0  0
   38.1570   28.0860   41.3950 O   0  0  0  0  0  0  0  0  0  0  0  0
   37.2710   28.8920   42.3420 P   0  0  0  0  0  0  0  0  0  0  0  0
   38.1670   29.6100   43.5690 O   0  0  0  0  0  0  0  0  0  0  0  0
   38.6870   30.3580   43.1770 H   0  0  0  0  0  0  0  0  0  0  0  0
   36.0800   27.8640   42.9450 O   0  0  0  0  0  0  0  0  0  0  0  0
   36.1540   27.6790   43.9130 H   0  0  0  0  0  0  0  0  0  0  0  0
  1  2  1  0  0  0  0
  2  3  2  0  0  0  0
  3 18  1  0  0  0  0
  4  3  1  0  0  0  0
  5  8  1  0  0  0  0
  5  4  2  0  0  0  0
  6  1  2  0  0  0  0
  6  5  1  0  0  0  0
  7  1  1  0  0  0  0
  9 14  1  1  0  0  0
  9 10  1  0  0  0  0
 10  2  1  6  0  0  0
 11 10  1  0  0  0  0
 12 11  1  0  0  0  0
 13  9  1  0  0  0  0
 13 12  1  0  0  0  0
 13 16  1  1  0  0  0
 15 14  1  0  0  0  0
 17 16  1  0  0  0  0
 18 20  1  0  0  0  0
 19 20  2  0  0  0  0
 20 23  1  0  0  0  0
 20 21  1  0  0  0  0
 22 21  1  0  0  0  0
 23 24  1  0  0  0  0
M  END
>  <minimizedAffinity>
-4.82624197

$$$$

 OpenBabel03242520253D

 24 25  0  0  1  0  0  0  0  0999 V2000
   40.2620   28.5180   38.6600 C   0  0  0  0  0  0  0  0  0  0  0  0
   39.8320   29.7070   39.3000 C   0  0  0  0  0  0  0  0  0  0  0  0
   38.7510   29.6270   40.1630 C   0  0  0  0  0  0  0  0  0  0  0  0
   38.1490   28.4120   40.3600 N   0  0  0  0  0  0  0  0  0  0  0  0
   38.5760   27.3050   39.7410 C   0  0  0  0  0  0  0  0  0  0  0  0
   39.6230   27.3380   38.8940 N   0  0  0  0  0  0  0  0  0  0  0  0
   41.1040   28.5600   37.9820 H   0  0  0  0  0  0  0  0  0  0  0  0
   37.9880   26.4350   40.0100 H   0  0  0  0  0  0  0  0  0  0  0  0
   39.8960   31.6000   37.8120 C   0  0  2  0  0  3  0  0  0  0  0  0
   40.5700   30.9680   39.0050 C   0  0  2  0  0  3  0  0  0  0  0  0
   41.8000   30.5890   38.4890 O   0  0  0  0  0  0  0  0  0  0  0  0
   42.2290   31.5470   37.6040 C   0  0  0  0  0  2  0  0  0  0  0  0
   41.0530   32.4100   37.2210 C   0  0  2  0  0  3  0  0  0  0  0  0
   38.9080   32.5150   38.1700 O   0  0  0  0  0  0  0  0  0  0  0  0
   38.2540   32.5280   37.4150 H   0  0  0  0  0  0  0  0  0  0  0  0
   41.1580   33.6130   37.9220 O   0  0  0  0  0  0  0  0  0  0  0  0
   41.1020   34.3860   37.3000 H   0  0  0  0  0  0  0  0  0  0  0  0
   38.3390   30.8000   40.7850 O   0  0  0  0  0  0  0  0  0  0  0  0
   36.4940   31.0360   38.9100 O   0  0  0  0  0  0  0  0  0  0  0  0
   36.8180   31.4780   40.3350 P   0  0  0  0  0  0  0  0  0  0  0  0
   35.6580   30.9480   41.4280 O   0  0  0  0  0  0  0  0  0  0  0  0
   35.7660   29.9690   41.5460 H   0  0  0  0  0  0  0  0  0  0  0  0
   36.9750   33.1550   40.3390 O   0  0  0  0  0  0  0  0  0  0  0  0
   36.2700   33.6290   40.8450 H   0  0  0  0  0  0  0  0  0  0  0  0
  1  6  2  0  0  0  0
  1  2  1  0  0  0  0
  2  3  2  0  0  0  0
  3  4  1  0  0  0  0
  3 18  1  0  0  0  0
  5  8  1  0  0  0  0
  5  4  2  0  0  0  0
  6  5  1  0  0  0  0
  7  1  1  0  0  0  0
  9 14  1  1  0  0  0
  9 10  1  0  0  0  0
 10  2  1  6  0  0  0
 11 10  1  0  0  0  0
 12 11  1  0  0  0  0
 13 12  1  0  0  0  0
 13  9  1  0  0  0  0
 13 16  1  1  0  0  0
 15 14  1  0  0  0  0
 17 16  1  0  0  0  0
 19 20  2  0  0  0  0
 20 23  1  0  0  0  0
 20 18  1  0  0  0  0
 20 21  1  0  0  0  0
 21 22  1  0  0  0  0
 23 24  1  0  0  0  0
M  END
>  <minimizedAffinity>
-4.76506805

$$$$
