
 OpenBabel03252505163D

 25 27  0  0  1  0  0  0  0  0999 V2000
   35.7680   30.0420   39.8240 C   0  0  0  0  0  0  0  0  0  0  0  0
   35.7810   28.8390   40.5460 C   0  0  0  0  0  0  0  0  0  0  0  0
   36.8460   28.7030   41.4300 C   0  0  0  0  0  0  0  0  0  0  0  0
   37.7830   29.7050   41.5450 N   0  0  0  0  0  0  0  0  0  0  0  0
   37.7130   30.8440   40.8190 C   0  0  0  0  0  0  0  0  0  0  0  0
   36.6920   30.9900   39.9600 N   0  0  0  0  0  0  0  0  0  0  0  0
   34.9710   30.1930   39.1320 H   0  0  0  0  0  0  0  0  0  0  0  0
   35.0570   28.0550   40.4630 H   0  0  0  0  0  0  0  0  0  0  0  0
   36.9830   27.4710   42.2830 C   0  0  0  0  0  0  0  0  0  0  0  0
   38.0830   27.5950   43.3130 C   0  0  0  0  0  0  0  0  0  0  0  0
   36.5750   27.5500   43.6800 C   0  0  0  0  0  0  0  0  0  0  0  0
   36.9030   26.4950   41.7470 H   0  0  0  0  0  0  0  0  0  0  0  0
   38.6500   26.6640   43.4790 H   0  0  0  0  0  0  0  0  0  0  0  0
   38.5930   28.5550   43.4080 H   0  0  0  0  0  0  0  0  0  0  0  0
   36.2730   26.6190   44.2300 H   0  0  0  0  0  0  0  0  0  0  0  0
   36.2130   28.4980   44.1130 H   0  0  0  0  0  0  0  0  0  0  0  0
   38.5420   33.1710   40.6280 C   0  0  2  0  0  3  0  0  0  0  0  0
   38.8380   31.7680   41.1210 C   0  0  2  0  0  3  0  0  0  0  0  0
   39.9990   31.3420   40.4870 O   0  0  0  0  0  0  0  0  0  0  0  0
   40.7170   32.4880   40.1570 C   0  0  0  0  0  2  0  0  0  0  0  0
   39.5910   33.3260   39.5420 C   0  0  1  0  0  3  0  0  0  0  0  0
   38.8130   34.1270   41.6030 O   0  0  0  0  0  0  0  0  0  0  0  0
   38.1700   34.0800   42.3610 H   0  0  0  0  0  0  0  0  0  0  0  0
   39.1190   32.6620   38.4130 O   0  0  0  0  0  0  0  0  0  0  0  0
   39.8990   32.1580   38.0230 H   0  0  0  0  0  0  0  0  0  0  0  0
  1  6  2  0  0  0  0
  1  2  1  0  0  0  0
  2  3  2  0  0  0  0
  3  4  1  0  0  0  0
  3  9  1  0  0  0  0
  5  4  2  0  0  0  0
  6  5  1  0  0  0  0
  7  1  1  0  0  0  0
  8  2  1  0  0  0  0
  9 10  1  0  0  0  0
  9 11  1  0  0  0  0
 10 14  1  0  0  0  0
 10 13  1  0  0  0  0
 10 11  1  0  0  0  0
 11 16  1  0  0  0  0
 11 15  1  0  0  0  0
 12  9  1  0  0  0  0
 17 18  1  0  0  0  0
 17 22  1  1  0  0  0
 18  5  1  6  0  0  0
 19 18  1  0  0  0  0
 20 19  1  0  0  0  0
 21 24  1  6  0  0  0
 21 20  1  0  0  0  0
 21 17  1  0  0  0  0
 22 23  1  0  0  0  0
 25 24  1  0  0  0  0
M  END
>  <minimizedAffinity>
-5.24859285

$$$$

 OpenBabel03252505163D

 25 27  0  0  1  0  0  0  0  0999 V2000
   39.9290   27.6990   43.3190 C   0  0  0  0  0  0  0  0  0  0  0  0
   39.1530   26.5350   43.2030 C   0  0  0  0  0  0  0  0  0  0  0  0
   37.9620   26.6980   42.5020 C   0  0  0  0  0  0  0  0  0  0  0  0
   37.6260   27.9280   41.9850 N   0  0  0  0  0  0  0  0  0  0  0  0
   38.4190   29.0130   42.1310 C   0  0  0  0  0  0  0  0  0  0  0  0
   39.5710   28.8740   42.8050 N   0  0  0  0  0  0  0  0  0  0  0  0
   40.8510   27.6260   43.8490 H   0  0  0  0  0  0  0  0  0  0  0  0
   39.4070   25.5750   43.6020 H   0  0  0  0  0  0  0  0  0  0  0  0
   37.0350   25.5340   42.2860 C   0  0  0  0  0  0  0  0  0  0  0  0
   36.9510   25.1170   40.8350 C   0  0  0  0  0  0  0  0  0  0  0  0
   37.6160   24.2440   41.9330 C   0  0  0  0  0  0  0  0  0  0  0  0
   36.0760   25.5600   42.8580 H   0  0  0  0  0  0  0  0  0  0  0  0
   35.9420   24.8060   40.5140 H   0  0  0  0  0  0  0  0  0  0  0  0
   37.6100   25.6110   40.1190 H   0  0  0  0  0  0  0  0  0  0  0  0
   37.0570   23.2970   42.1550 H   0  0  0  0  0  0  0  0  0  0  0  0
   38.7040   24.1320   41.7880 H   0  0  0  0  0  0  0  0  0  0  0  0
   36.4090   29.9710   41.0440 C   0  0  2  0  0  3  0  0  0  0  0  0
   37.8380   30.2200   41.4850 C   0  0  2  0  0  3  0  0  0  0  0  0
   38.5680   30.5620   40.3520 O   0  0  0  0  0  0  0  0  0  0  0  0
   37.6630   31.1050   39.4450 C   0  0  0  0  0  2  0  0  0  0  0  0
   36.5490   30.0560   39.5350 C   0  0  1  0  0  3  0  0  0  0  0  0
   35.5620   31.0030   41.4380 O   0  0  0  0  0  0  0  0  0  0  0  0
   35.4290   31.0220   42.4250 H   0  0  0  0  0  0  0  0  0  0  0  0
   37.0610   28.8370   39.0980 O   0  0  0  0  0  0  0  0  0  0  0  0
   37.7610   29.0460   38.4050 H   0  0  0  0  0  0  0  0  0  0  0  0
  1  7  1  0  0  0  0
  2  1  1  0  0  0  0
  2  8  1  0  0  0  0
  3  2  2  0  0  0  0
  4  5  2  0  0  0  0
  4  3  1  0  0  0  0
  5  6  1  0  0  0  0
  6  1  2  0  0  0  0
  9  3  1  0  0  0  0
  9 12  1  0  0  0  0
 10 11  1  0  0  0  0
 10  9  1  0  0  0  0
 11 15  1  0  0  0  0
 11  9  1  0  0  0  0
 13 10  1  0  0  0  0
 14 10  1  0  0  0  0
 16 11  1  0  0  0  0
 17 22  1  1  0  0  0
 17 18  1  0  0  0  0
 18  5  1  6  0  0  0
 19 18  1  0  0  0  0
 20 21  1  0  0  0  0
 20 19  1  0  0  0  0
 21 24  1  1  0  0  0
 21 17  1  0  0  0  0
 22 23  1  0  0  0  0
 25 24  1  0  0  0  0
M  END
>  <minimizedAffinity>
-5.00033808

$$$$

 OpenBabel03252505163D

 25 27  0  0  1  0  0  0  0  0999 V2000
   35.7350   29.2720   39.9270 C   0  0  0  0  0  0  0  0  0  0  0  0
   36.1680   28.7950   41.1730 C   0  0  0  0  0  0  0  0  0  0  0  0
   37.1450   29.5740   41.7860 C   0  0  0  0  0  0  0  0  0  0  0  0
   37.6100   30.7130   41.1690 N   0  0  0  0  0  0  0  0  0  0  0  0
   37.1500   31.1200   39.9650 C   0  0  0  0  0  0  0  0  0  0  0  0
   36.2080   30.3800   39.3600 N   0  0  0  0  0  0  0  0  0  0  0  0
   34.9870   28.7100   39.4160 H   0  0  0  0  0  0  0  0  0  0  0  0
   35.8120   27.9110   41.6600 H   0  0  0  0  0  0  0  0  0  0  0  0
   37.6950   29.1940   43.1330 C   0  0  0  0  0  0  0  0  0  0  0  0
   37.1130   27.9010   43.6570 C   0  0  0  0  0  0  0  0  0  0  0  0
   38.5930   28.0490   43.2130 C   0  0  0  0  0  0  0  0  0  0  0  0
   37.8110   30.0280   43.8670 H   0  0  0  0  0  0  0  0  0  0  0  0
   36.9310   27.8980   44.7450 H   0  0  0  0  0  0  0  0  0  0  0  0
   36.4480   27.3350   43.0030 H   0  0  0  0  0  0  0  0  0  0  0  0
   39.3260   27.9680   44.0590 H   0  0  0  0  0  0  0  0  0  0  0  0
   38.8320   27.4500   42.3180 H   0  0  0  0  0  0  0  0  0  0  0  0
   39.2950   32.1700   39.3040 C   0  0  2  0  0  3  0  0  0  0  0  0
   37.8060   32.3740   39.5110 C   0  0  2  0  0  3  0  0  0  0  0  0
   37.6540   33.3730   40.4660 O   0  0  0  0  0  0  0  0  0  0  0  0
   38.8010   34.1600   40.4060 C   0  0  0  0  0  2  0  0  0  0  0  0
   39.8660   33.0580   40.3940 C   0  0  1  0  0  3  0  0  0  0  0  0
   39.7200   32.6880   38.0850 O   0  0  0  0  0  0  0  0  0  0  0  0
   39.3730   32.1630   37.3130 H   0  0  0  0  0  0  0  0  0  0  0  0
   39.7780   32.3530   41.5910 O   0  0  0  0  0  0  0  0  0  0  0  0
   39.4630   33.0040   42.2920 H   0  0  0  0  0  0  0  0  0  0  0  0
  1  2  1  0  0  0  0
  2  8  1  0  0  0  0
  2  3  2  0  0  0  0
  3  9  1  0  0  0  0
  4  3  1  0  0  0  0
  5  4  2  0  0  0  0
  6  1  2  0  0  0  0
  6  5  1  0  0  0  0
  7  1  1  0  0  0  0
  9 11  1  0  0  0  0
  9 10  1  0  0  0  0
  9 12  1  0  0  0  0
 10 13  1  0  0  0  0
 11 10  1  0  0  0  0
 11 15  1  0  0  0  0
 14 10  1  0  0  0  0
 16 11  1  0  0  0  0
 17 22  1  6  0  0  0
 17 18  1  0  0  0  0
 17 21  1  0  0  0  0
 18  5  1  1  0  0  0
 18 19  1  0  0  0  0
 20 19  1  0  0  0  0
 21 20  1  0  0  0  0
 21 24  1  1  0  0  0
 23 22  1  0  0  0  0
 24 25  1  0  0  0  0
M  END
>  <minimizedAffinity>
-4.9995141

$$$$

 OpenBabel03252505163D

 25 27  0  0  1  0  0  0  0  0999 V2000
   40.5410   29.4220   42.2890 C   0  0  0  0  0  0  0  0  0  0  0  0
   39.4350   28.6610   42.6990 C   0  0  0  0  0  0  0  0  0  0  0  0
   38.2730   28.8850   41.9670 C   0  0  0  0  0  0  0  0  0  0  0  0
   38.2690   29.7920   40.9330 N   0  0  0  0  0  0  0  0  0  0  0  0
   39.3710   30.4940   40.5860 C   0  0  0  0  0  0  0  0  0  0  0  0
   40.5010   30.2910   41.2810 N   0  0  0  0  0  0  0  0  0  0  0  0
   41.4560   29.2870   42.8180 H   0  0  0  0  0  0  0  0  0  0  0  0
   39.4290   27.9540   43.5020 H   0  0  0  0  0  0  0  0  0  0  0  0
   37.0100   28.1300   42.2850 C   0  0  0  0  0  0  0  0  0  0  0  0
   37.2670   26.6780   42.6140 C   0  0  0  0  0  0  0  0  0  0  0  0
   36.7830   27.7150   43.6630 C   0  0  0  0  0  0  0  0  0  0  0  0
   36.1320   28.3510   41.6310 H   0  0  0  0  0  0  0  0  0  0  0  0
   36.4990   25.9870   42.2270 H   0  0  0  0  0  0  0  0  0  0  0  0
   38.3020   26.3410   42.6830 H   0  0  0  0  0  0  0  0  0  0  0  0
   35.7380   27.5310   44.0290 H   0  0  0  0  0  0  0  0  0  0  0  0
   37.5340   27.9110   44.4470 H   0  0  0  0  0  0  0  0  0  0  0  0
   38.9390   32.8390   39.9090 C   0  0  2  0  0  3  0  0  0  0  0  0
   39.1140   31.4070   39.4410 C   0  0  2  0  0  3  0  0  0  0  0  0
   37.9450   31.0410   38.7830 O   0  0  0  0  0  0  0  0  0  0  0  0
   37.3720   32.2160   38.3050 C   0  0  0  0  0  2  0  0  0  0  0  0
   37.4810   33.0840   39.5640 C   0  0  1  0  0  3  0  0  0  0  0  0
   39.6980   33.7240   39.1500 O   0  0  0  0  0  0  0  0  0  0  0  0
   40.6740   33.6160   39.3130 H   0  0  0  0  0  0  0  0  0  0  0  0
   36.7140   32.4980   40.5670 O   0  0  0  0  0  0  0  0  0  0  0  0
   35.9460   32.0310   40.1120 H   0  0  0  0  0  0  0  0  0  0  0  0
  1  2  1  0  0  0  0
  1  7  1  0  0  0  0
  2  8  1  0  0  0  0
  3  9  1  0  0  0  0
  3  2  2  0  0  0  0
  4  3  1  0  0  0  0
  5  4  2  0  0  0  0
  5  6  1  0  0  0  0
  6  1  2  0  0  0  0
  9 10  1  0  0  0  0
  9 11  1  0  0  0  0
 10 14  1  0  0  0  0
 10 11  1  0  0  0  0
 11 15  1  0  0  0  0
 11 16  1  0  0  0  0
 12  9  1  0  0  0  0
 13 10  1  0  0  0  0
 17 22  1  6  0  0  0
 18 17  1  0  0  0  0
 18  5  1  1  0  0  0
 19 18  1  0  0  0  0
 20 19  1  0  0  0  0
 20 21  1  0  0  0  0
 21 17  1  0  0  0  0
 21 24  1  1  0  0  0
 22 23  1  0  0  0  0
 25 24  1  0  0  0  0
M  END
>  <minimizedAffinity>
-4.99833727

$$$$

 OpenBabel03252505163D

 25 27  0  0  1  0  0  0  0  0999 V2000
   36.3560   28.2820   41.6790 C   0  0  0  0  0  0  0  0  0  0  0  0
   37.0520   27.4640   42.5820 C   0  0  0  0  0  0  0  0  0  0  0  0
   38.3990   27.7810   42.7340 C   0  0  0  0  0  0  0  0  0  0  0  0
   38.9480   28.8260   42.0260 N   0  0  0  0  0  0  0  0  0  0  0  0
   38.2210   29.5780   41.1700 C   0  0  0  0  0  0  0  0  0  0  0  0
   36.9210   29.2860   41.0120 N   0  0  0  0  0  0  0  0  0  0  0  0
   35.3200   28.0800   41.5270 H   0  0  0  0  0  0  0  0  0  0  0  0
   36.6320   26.6500   43.1360 H   0  0  0  0  0  0  0  0  0  0  0  0
   39.2680   26.9980   43.6800 C   0  0  0  0  0  0  0  0  0  0  0  0
   39.6040   25.6200   43.1570 C   0  0  0  0  0  0  0  0  0  0  0  0
   40.6540   26.7540   43.3000 C   0  0  0  0  0  0  0  0  0  0  0  0
   39.0060   27.0770   44.7620 H   0  0  0  0  0  0  0  0  0  0  0  0
   39.6270   24.8380   43.9350 H   0  0  0  0  0  0  0  0  0  0  0  0
   39.2820   25.3600   42.1480 H   0  0  0  0  0  0  0  0  0  0  0  0
   41.4260   26.5560   44.0910 H   0  0  0  0  0  0  0  0  0  0  0  0
   41.0460   27.0970   42.3280 H   0  0  0  0  0  0  0  0  0  0  0  0
   39.0450   31.9070   41.3670 C   0  0  2  0  0  3  0  0  0  0  0  0
   39.0390   30.6420   40.5300 C   0  0  2  0  0  3  0  0  0  0  0  0
   38.5160   30.9720   39.2850 O   0  0  0  0  0  0  0  0  0  0  0  0
   38.7640   32.3290   39.0960 C   0  0  0  0  0  2  0  0  0  0  0  0
   38.3010   32.8650   40.4550 C   0  0  1  0  0  3  0  0  0  0  0  0
   40.3320   32.4090   41.5310 O   0  0  0  0  0  0  0  0  0  0  0  0
   40.8910   31.8250   42.1120 H   0  0  0  0  0  0  0  0  0  0  0  0
   36.9420   32.5950   40.5910 O   0  0  0  0  0  0  0  0  0  0  0  0
   36.5450   32.6190   39.6660 H   0  0  0  0  0  0  0  0  0  0  0  0
  1  2  1  0  0  0  0
  2  3  2  0  0  0  0
  2  8  1  0  0  0  0
  3  9  1  0  0  0  0
  4  3  1  0  0  0  0
  5  4  2  0  0  0  0
  6  5  1  0  0  0  0
  6  1  2  0  0  0  0
  7  1  1  0  0  0  0
  9 12  1  0  0  0  0
 10 11  1  0  0  0  0
 10  9  1  0  0  0  0
 10 13  1  0  0  0  0
 11  9  1  0  0  0  0
 11 15  1  0  0  0  0
 14 10  1  0  0  0  0
 16 11  1  0  0  0  0
 17 22  1  6  0  0  0
 18  5  1  1  0  0  0
 18 17  1  0  0  0  0
 19 18  1  0  0  0  0
 20 19  1  0  0  0  0
 20 21  1  0  0  0  0
 21 24  1  6  0  0  0
 21 17  1  0  0  0  0
 22 23  1  0  0  0  0
 25 24  1  0  0  0  0
M  END
>  <minimizedAffinity>
-4.86962891

$$$$

 OpenBabel03252505163D

 25 27  0  0  1  0  0  0  0  0999 V2000
   36.8960   26.5670   38.9910 C   0  0  0  0  0  0  0  0  0  0  0  0
   36.8550   26.1190   40.3200 C   0  0  0  0  0  0  0  0  0  0  0  0
   37.2150   27.0740   41.2660 C   0  0  0  0  0  0  0  0  0  0  0  0
   37.5740   28.3430   40.8690 N   0  0  0  0  0  0  0  0  0  0  0  0
   37.5920   28.7120   39.5680 C   0  0  0  0  0  0  0  0  0  0  0  0
   37.2480   27.8030   38.6430 N   0  0  0  0  0  0  0  0  0  0  0  0
   36.6290   25.8720   38.2280 H   0  0  0  0  0  0  0  0  0  0  0  0
   36.5780   25.1360   40.6380 H   0  0  0  0  0  0  0  0  0  0  0  0
   37.2050   26.7420   42.7330 C   0  0  0  0  0  0  0  0  0  0  0  0
   38.3180   27.4270   43.4940 C   0  0  0  0  0  0  0  0  0  0  0  0
   36.8180   27.7860   43.6740 C   0  0  0  0  0  0  0  0  0  0  0  0
   37.0020   25.6750   42.9910 H   0  0  0  0  0  0  0  0  0  0  0  0
   38.7670   26.8080   44.2880 H   0  0  0  0  0  0  0  0  0  0  0  0
   38.9430   28.1420   42.9570 H   0  0  0  0  0  0  0  0  0  0  0  0
   36.4080   27.5090   44.6820 H   0  0  0  0  0  0  0  0  0  0  0  0
   36.5780   28.8040   43.3260 H   0  0  0  0  0  0  0  0  0  0  0  0
   38.1680   30.8200   40.7370 C   0  0  2  0  0  3  0  0  0  0  0  0
   38.0120   30.1280   39.3970 C   0  0  2  0  0  3  0  0  0  0  0  0
   37.0550   30.8330   38.6760 O   0  0  0  0  0  0  0  0  0  0  0  0
   37.0680   32.1370   39.1650 C   0  0  0  0  0  2  0  0  0  0  0  0
   37.0520   31.8450   40.6700 C   0  0  1  0  0  3  0  0  0  0  0  0
   39.3680   31.5200   40.8170 O   0  0  0  0  0  0  0  0  0  0  0  0
   40.1550   30.9120   40.8530 H   0  0  0  0  0  0  0  0  0  0  0  0
   35.8650   31.1850   40.9740 O   0  0  0  0  0  0  0  0  0  0  0  0
   35.1700   31.5190   40.3260 H   0  0  0  0  0  0  0  0  0  0  0  0
  1  2  1  0  0  0  0
  2  8  1  0  0  0  0
  2  3  2  0  0  0  0
  3  9  1  0  0  0  0
  4  3  1  0  0  0  0
  5  4  2  0  0  0  0
  6  1  2  0  0  0  0
  6  5  1  0  0  0  0
  7  1  1  0  0  0  0
  9 12  1  0  0  0  0
  9 10  1  0  0  0  0
  9 11  1  0  0  0  0
 10 11  1  0  0  0  0
 10 13  1  0  0  0  0
 11 15  1  0  0  0  0
 14 10  1  0  0  0  0
 16 11  1  0  0  0  0
 17 22  1  6  0  0  0
 18  5  1  1  0  0  0
 18 17  1  0  0  0  0
 19 20  1  0  0  0  0
 19 18  1  0  0  0  0
 20 21  1  0  0  0  0
 21 17  1  0  0  0  0
 21 24  1  6  0  0  0
 22 23  1  0  0  0  0
 25 24  1  0  0  0  0
M  END
>  <minimizedAffinity>
-4.81065464

$$$$

 OpenBabel03252505163D

 25 27  0  0  1  0  0  0  0  0999 V2000
   37.5790   28.8020   43.6460 C   0  0  0  0  0  0  0  0  0  0  0  0
   37.3070   27.4250   43.6330 C   0  0  0  0  0  0  0  0  0  0  0  0
   37.2340   26.8600   42.3630 C   0  0  0  0  0  0  0  0  0  0  0  0
   37.4230   27.6400   41.2450 N   0  0  0  0  0  0  0  0  0  0  0  0
   37.6830   28.9640   41.3260 C   0  0  0  0  0  0  0  0  0  0  0  0
   37.7570   29.5260   42.5430 N   0  0  0  0  0  0  0  0  0  0  0  0
   37.6440   29.2830   44.5950 H   0  0  0  0  0  0  0  0  0  0  0  0
   37.1580   26.8110   44.4970 H   0  0  0  0  0  0  0  0  0  0  0  0
   36.9620   25.3900   42.1940 C   0  0  0  0  0  0  0  0  0  0  0  0
   37.0720   24.9390   40.7550 C   0  0  0  0  0  0  0  0  0  0  0  0
   38.0800   24.5160   41.8570 C   0  0  0  0  0  0  0  0  0  0  0  0
   36.1100   24.9790   42.7870 H   0  0  0  0  0  0  0  0  0  0  0  0
   36.3260   24.1810   40.4630 H   0  0  0  0  0  0  0  0  0  0  0  0
   37.4140   25.6640   40.0140 H   0  0  0  0  0  0  0  0  0  0  0  0
   38.0350   23.4240   42.1120 H   0  0  0  0  0  0  0  0  0  0  0  0
   39.0900   24.9250   41.6910 H   0  0  0  0  0  0  0  0  0  0  0  0
   38.5090   30.9440   40.0860 C   0  0  2  0  0  3  0  0  0  0  0  0
   37.8480   29.5830   39.9850 C   0  0  2  0  0  3  0  0  0  0  0  0
   36.6090   29.7690   39.3820 O   0  0  0  0  0  0  0  0  0  0  0  0
   36.7100   30.9220   38.6090 C   0  0  0  0  0  2  0  0  0  0  0  0
   37.3830   31.8520   39.6250 C   0  0  1  0  0  3  0  0  0  0  0  0
   39.5490   31.0800   39.1710 O   0  0  0  0  0  0  0  0  0  0  0  0
   40.3260   30.5020   39.4000 H   0  0  0  0  0  0  0  0  0  0  0  0
   36.5190   32.0180   40.7040 O   0  0  0  0  0  0  0  0  0  0  0  0
   35.5820   31.9520   40.3410 H   0  0  0  0  0  0  0  0  0  0  0  0
  1  7  1  0  0  0  0
  2  1  1  0  0  0  0
  2  8  1  0  0  0  0
  3  2  2  0  0  0  0
  4  5  2  0  0  0  0
  4  3  1  0  0  0  0
  5  6  1  0  0  0  0
  6  1  2  0  0  0  0
  9  3  1  0  0  0  0
  9 12  1  0  0  0  0
 10 11  1  0  0  0  0
 10  9  1  0  0  0  0
 11 15  1  0  0  0  0
 11  9  1  0  0  0  0
 13 10  1  0  0  0  0
 14 10  1  0  0  0  0
 16 11  1  0  0  0  0
 17 22  1  6  0  0  0
 18 17  1  0  0  0  0
 18  5  1  1  0  0  0
 19 18  1  0  0  0  0
 20 19  1  0  0  0  0
 20 21  1  0  0  0  0
 21 17  1  0  0  0  0
 21 24  1  1  0  0  0
 22 23  1  0  0  0  0
 25 24  1  0  0  0  0
M  END
>  <minimizedAffinity>
-4.79358625

$$$$

 OpenBabel03252505163D

 25 27  0  0  1  0  0  0  0  0999 V2000
   39.2350   27.2540   39.3620 C   0  0  0  0  0  0  0  0  0  0  0  0
   38.8000   26.1840   40.1590 C   0  0  0  0  0  0  0  0  0  0  0  0
   38.0360   26.5540   41.2620 C   0  0  0  0  0  0  0  0  0  0  0  0
   37.7620   27.8820   41.5000 N   0  0  0  0  0  0  0  0  0  0  0  0
   38.2110   28.8670   40.6900 C   0  0  0  0  0  0  0  0  0  0  0  0
   38.9490   28.5280   39.6230 N   0  0  0  0  0  0  0  0  0  0  0  0
   39.8250   27.0220   38.5040 H   0  0  0  0  0  0  0  0  0  0  0  0
   39.0090   25.1500   39.9820 H   0  0  0  0  0  0  0  0  0  0  0  0
   37.4890   25.5140   42.2000 C   0  0  0  0  0  0  0  0  0  0  0  0
   36.7290   24.4230   41.4800 C   0  0  0  0  0  0  0  0  0  0  0  0
   38.0920   24.1870   42.1860 C   0  0  0  0  0  0  0  0  0  0  0  0
   37.0410   25.8980   43.1480 H   0  0  0  0  0  0  0  0  0  0  0  0
   35.8360   24.0650   42.0200 H   0  0  0  0  0  0  0  0  0  0  0  0
   36.7250   24.4330   40.3890 H   0  0  0  0  0  0  0  0  0  0  0  0
   38.0210   23.5290   43.0920 H   0  0  0  0  0  0  0  0  0  0  0  0
   38.9010   23.9380   41.4790 H   0  0  0  0  0  0  0  0  0  0  0  0
   36.4860   30.6360   40.4940 C   0  0  2  0  0  3  0  0  0  0  0  0
   37.7820   30.2120   41.1580 C   0  0  2  0  0  3  0  0  0  0  0  0
   38.7430   31.1650   40.8380 O   0  0  0  0  0  0  0  0  0  0  0  0
   38.0580   32.3500   40.5830 C   0  0  0  0  0  2  0  0  0  0  0  0
   36.9560   31.8150   39.6620 C   0  0  1  0  0  3  0  0  0  0  0  0
   35.5700   31.1240   41.4200 O   0  0  0  0  0  0  0  0  0  0  0  0
   35.2220   30.4070   42.0160 H   0  0  0  0  0  0  0  0  0  0  0  0
   37.5560   31.3000   38.5160 O   0  0  0  0  0  0  0  0  0  0  0  0
   38.3910   31.8390   38.3550 H   0  0  0  0  0  0  0  0  0  0  0  0
  1  6  2  0  0  0  0
  1  2  1  0  0  0  0
  2  3  2  0  0  0  0
  3  4  1  0  0  0  0
  3  9  1  0  0  0  0
  5  4  2  0  0  0  0
  6  5  1  0  0  0  0
  7  1  1  0  0  0  0
  8  2  1  0  0  0  0
  9 12  1  0  0  0  0
 10 13  1  0  0  0  0
 10 11  1  0  0  0  0
 10  9  1  0  0  0  0
 11  9  1  0  0  0  0
 11 15  1  0  0  0  0
 14 10  1  0  0  0  0
 16 11  1  0  0  0  0
 17 18  1  0  0  0  0
 17 22  1  1  0  0  0
 18  5  1  6  0  0  0
 19 18  1  0  0  0  0
 20 19  1  0  0  0  0
 21 24  1  6  0  0  0
 21 17  1  0  0  0  0
 21 20  1  0  0  0  0
 22 23  1  0  0  0  0
 25 24  1  0  0  0  0
M  END
>  <minimizedAffinity>
-4.6851511

$$$$

 OpenBabel03252505163D

 25 27  0  0  1  0  0  0  0  0999 V2000
   40.2220   29.4360   42.5650 C   0  0  0  0  0  0  0  0  0  0  0  0
   39.1490   28.5740   42.8360 C   0  0  0  0  0  0  0  0  0  0  0  0
   37.9470   28.9360   42.2340 C   0  0  0  0  0  0  0  0  0  0  0  0
   37.8790   30.0610   41.4450 N   0  0  0  0  0  0  0  0  0  0  0  0
   38.9530   30.8510   41.2210 C   0  0  0  0  0  0  0  0  0  0  0  0
   40.1200   30.5170   41.7950 N   0  0  0  0  0  0  0  0  0  0  0  0
   41.1650   29.2030   43.0040 H   0  0  0  0  0  0  0  0  0  0  0  0
   39.1930   27.6980   43.4480 H   0  0  0  0  0  0  0  0  0  0  0  0
   36.7120   28.0980   42.4240 C   0  0  0  0  0  0  0  0  0  0  0  0
   37.0010   26.6150   42.3780 C   0  0  0  0  0  0  0  0  0  0  0  0
   36.5660   27.3580   43.6710 C   0  0  0  0  0  0  0  0  0  0  0  0
   35.7970   28.4490   41.8880 H   0  0  0  0  0  0  0  0  0  0  0  0
   36.2210   26.0200   41.8750 H   0  0  0  0  0  0  0  0  0  0  0  0
   38.0430   26.2960   42.3110 H   0  0  0  0  0  0  0  0  0  0  0  0
   35.5440   27.0660   44.0330 H   0  0  0  0  0  0  0  0  0  0  0  0
   37.3570   27.3770   44.4390 H   0  0  0  0  0  0  0  0  0  0  0  0
   39.5920   32.0910   39.1730 C   0  0  2  0  0  3  0  0  0  0  0  0
   38.6260   32.0010   40.3380 C   0  0  2  0  0  3  0  0  0  0  0  0
   38.7170   33.1960   41.0440 O   0  0  0  0  0  0  0  0  0  0  0  0
   39.1500   34.1610   40.1400 C   0  0  0  0  0  2  0  0  0  0  0  0
   40.3040   33.3950   39.4820 C   0  0  1  0  0  3  0  0  0  0  0  0
   38.9250   32.2610   37.9630 O   0  0  0  0  0  0  0  0  0  0  0  0
   38.4210   31.4450   37.6960 H   0  0  0  0  0  0  0  0  0  0  0  0
   41.2600   33.1240   40.4560 O   0  0  0  0  0  0  0  0  0  0  0  0
   41.2210   33.8790   41.1220 H   0  0  0  0  0  0  0  0  0  0  0  0
  1  2  1  0  0  0  0
  1  7  1  0  0  0  0
  2  8  1  0  0  0  0
  3  9  1  0  0  0  0
  3  2  2  0  0  0  0
  4  3  1  0  0  0  0
  5  4  2  0  0  0  0
  5  6  1  0  0  0  0
  6  1  2  0  0  0  0
  9 11  1  0  0  0  0
 10  9  1  0  0  0  0
 10 11  1  0  0  0  0
 11 15  1  0  0  0  0
 11 16  1  0  0  0  0
 12  9  1  0  0  0  0
 13 10  1  0  0  0  0
 14 10  1  0  0  0  0
 17 22  1  6  0  0  0
 17 21  1  0  0  0  0
 17 18  1  0  0  0  0
 18 19  1  0  0  0  0
 18  5  1  1  0  0  0
 20 19  1  0  0  0  0
 21 20  1  0  0  0  0
 21 24  1  1  0  0  0
 23 22  1  0  0  0  0
 24 25  1  0  0  0  0
M  END
>  <minimizedAffinity>
-4.6645155

$$$$
