
 OpenBabel03242518143D

 31 33  0  0  1  0  0  0  0  0999 V2000
   36.8210   29.4780   40.9250 C   0  0  0  0  0  0  0  0  0  0  0  0
   36.2440   30.7840   40.8540 C   0  0  0  0  0  0  0  0  0  0  0  0
   36.9560   31.7740   40.2310 C   0  0  0  0  0  0  0  0  0  0  0  0
   38.2630   31.4460   39.6700 C   0  0  0  0  0  0  0  0  0  0  0  0
   38.4670   29.7000   40.0450 S   0  0  0  0  0  0  0  0  0  0  0  0
   35.2770   30.9060   41.3010 H   0  0  0  0  0  0  0  0  0  0  0  0
   36.5960   32.7640   40.1380 H   0  0  0  0  0  0  0  0  0  0  0  0
   39.4470   31.7380   37.6480 C   0  0  2  0  0  3  0  0  0  0  0  0
   39.1490   32.2920   39.0000 C   0  0  2  0  0  3  0  0  0  0  0  0
   40.3460   32.3930   39.6890 O   0  0  0  0  0  0  0  0  0  0  0  0
   41.3810   32.3660   38.7820 C   0  0  0  0  0  2  0  0  0  0  0  0
   40.8340   32.2820   37.3980 C   0  0  1  0  0  3  0  0  0  0  0  0
   38.5140   32.1790   36.7120 O   0  0  0  0  0  0  0  0  0  0  0  0
   37.9660   32.8850   37.1390 H   0  0  0  0  0  0  0  0  0  0  0  0
   41.5100   31.3300   36.6120 O   0  0  0  0  0  0  0  0  0  0  0  0
   41.2760   30.4280   36.9400 H   0  0  0  0  0  0  0  0  0  0  0  0
   36.4550   28.2000   41.4610 C   0  0  0  0  0  0  0  0  0  0  0  0
   36.9460   27.3940   40.8600 H   0  0  0  0  0  0  0  0  0  0  0  0
   35.3630   28.0370   41.3530 H   0  0  0  0  0  0  0  0  0  0  0  0
   36.8590   27.9510   42.8970 C   0  0  0  0  0  0  0  0  0  0  0  0
   35.9980   27.7370   43.5190 H   0  0  0  0  0  0  0  0  0  0  0  0
   37.3130   28.8950   43.3080 H   0  0  0  0  0  0  0  0  0  0  0  0
   37.8660   26.9120   42.9300 C   0  0  0  0  0  0  0  0  0  0  0  0
   39.0310   27.0250   43.6790 C   0  0  0  0  0  0  0  0  0  0  0  0
   39.9490   25.9830   43.6600 C   0  0  0  0  0  0  0  0  0  0  0  0
   39.6550   24.8930   42.8990 N   0  0  0  0  0  0  0  0  0  0  0  0
   38.5240   24.7990   42.1800 C   0  0  0  0  0  0  0  0  0  0  0  0
   37.6600   25.7970   42.2080 N   0  0  0  0  0  0  0  0  0  0  0  0
   39.2000   27.9190   44.2610 H   0  0  0  0  0  0  0  0  0  0  0  0
   40.8680   26.0340   44.2290 H   0  0  0  0  0  0  0  0  0  0  0  0
   38.3420   23.9060   41.5910 H   0  0  0  0  0  0  0  0  0  0  0  0
  1 17  1  0  0  0  0
  2  1  2  0  0  0  0
  2  6  1  0  0  0  0
  3  2  1  0  0  0  0
  4  5  1  0  0  0  0
  4  3  2  0  0  0  0
  5  1  1  0  0  0  0
  7  3  1  0  0  0  0
  8 13  1  6  0  0  0
  8  9  1  0  0  0  0
  9  4  1  1  0  0  0
  9 10  1  0  0  0  0
 11 10  1  0  0  0  0
 12 15  1  6  0  0  0
 12  8  1  0  0  0  0
 12 11  1  0  0  0  0
 13 14  1  0  0  0  0
 15 16  1  0  0  0  0
 17 20  1  0  0  0  0
 18 17  1  0  0  0  0
 19 17  1  0  0  0  0
 20 23  1  0  0  0  0
 20 22  1  0  0  0  0
 20 21  1  0  0  0  0
 23 24  1  0  0  0  0
 24 29  1  0  0  0  0
 25 24  2  0  0  0  0
 25 30  1  0  0  0  0
 26 25  1  0  0  0  0
 27 28  1  0  0  0  0
 27 26  2  0  0  0  0
 28 23  2  0  0  0  0
 31 27  1  0  0  0  0
M  END
>  <minimizedAffinity>
-5.60561943

$$$$

 OpenBabel03242518143D

 31 33  0  0  1  0  0  0  0  0999 V2000
   38.4950   30.3650   41.4990 C   0  0  0  0  0  0  0  0  0  0  0  0
   39.8600   30.6470   41.8140 C   0  0  0  0  0  0  0  0  0  0  0  0
   40.5220   31.5750   41.0560 C   0  0  0  0  0  0  0  0  0  0  0  0
   39.8020   32.2280   39.9670 C   0  0  0  0  0  0  0  0  0  0  0  0
   38.1600   31.5000   40.0380 S   0  0  0  0  0  0  0  0  0  0  0  0
   40.2850   30.1050   42.6360 H   0  0  0  0  0  0  0  0  0  0  0  0
   41.5330   31.8370   41.2270 H   0  0  0  0  0  0  0  0  0  0  0  0
   40.8580   32.5270   37.8760 C   0  0  2  0  0  3  0  0  0  0  0  0
   40.2790   33.1940   39.0780 C   0  0  2  0  0  3  0  0  0  0  0  0
   41.2800   33.9500   39.6650 O   0  0  0  0  0  0  0  0  0  0  0  0
   42.2760   34.1600   38.7380 C   0  0  0  0  0  2  0  0  0  0  0  0
   41.8930   33.5370   37.4400 C   0  0  1  0  0  3  0  0  0  0  0  0
   39.8790   32.3020   36.9110 O   0  0  0  0  0  0  0  0  0  0  0  0
   39.0600   32.7830   37.1900 H   0  0  0  0  0  0  0  0  0  0  0  0
   42.9510   32.8130   36.8610 O   0  0  0  0  0  0  0  0  0  0  0  0
   43.1060   31.9980   37.3980 H   0  0  0  0  0  0  0  0  0  0  0  0
   37.4610   29.5050   41.9960 C   0  0  0  0  0  0  0  0  0  0  0  0
   37.3140   28.6560   41.2830 H   0  0  0  0  0  0  0  0  0  0  0  0
   36.4940   30.0480   42.0280 H   0  0  0  0  0  0  0  0  0  0  0  0
   37.7260   28.8750   43.3440 C   0  0  0  0  0  0  0  0  0  0  0  0
   36.8490   28.9160   43.9800 H   0  0  0  0  0  0  0  0  0  0  0  0
   38.5190   29.4750   43.8700 H   0  0  0  0  0  0  0  0  0  0  0  0
   38.2300   27.5320   43.1470 C   0  0  0  0  0  0  0  0  0  0  0  0
   39.4440   27.1060   43.6710 C   0  0  0  0  0  0  0  0  0  0  0  0
   39.8590   25.8010   43.4380 C   0  0  0  0  0  0  0  0  0  0  0  0
   39.0450   25.0000   42.6980 N   0  0  0  0  0  0  0  0  0  0  0  0
   37.8730   25.4270   42.1960 C   0  0  0  0  0  0  0  0  0  0  0  0
   37.4910   26.6700   42.4270 N   0  0  0  0  0  0  0  0  0  0  0  0
   40.0410   27.7960   44.2510 H   0  0  0  0  0  0  0  0  0  0  0  0
   40.7970   25.4320   43.8290 H   0  0  0  0  0  0  0  0  0  0  0  0
   37.2640   24.7440   41.6130 H   0  0  0  0  0  0  0  0  0  0  0  0
  1  2  2  0  0  0  0
  1 17  1  0  0  0  0
  2  6  1  0  0  0  0
  3  7  1  0  0  0  0
  3  2  1  0  0  0  0
  4  5  1  0  0  0  0
  4  3  2  0  0  0  0
  5  1  1  0  0  0  0
  8 13  1  6  0  0  0
  8  9  1  0  0  0  0
  9 10  1  0  0  0  0
  9  4  1  1  0  0  0
 11 10  1  0  0  0  0
 12 15  1  1  0  0  0
 12  8  1  0  0  0  0
 12 11  1  0  0  0  0
 13 14  1  0  0  0  0
 15 16  1  0  0  0  0
 17 19  1  0  0  0  0
 17 20  1  0  0  0  0
 18 17  1  0  0  0  0
 20 22  1  0  0  0  0
 20 21  1  0  0  0  0
 23 20  1  0  0  0  0
 23 24  1  0  0  0  0
 24 29  1  0  0  0  0
 25 24  2  0  0  0  0
 25 30  1  0  0  0  0
 26 25  1  0  0  0  0
 27 28  1  0  0  0  0
 27 26  2  0  0  0  0
 28 23  2  0  0  0  0
 31 27  1  0  0  0  0
M  END
>  <minimizedAffinity>
-5.43444395

$$$$

 OpenBabel03242518143D

 31 33  0  0  1  0  0  0  0  0999 V2000
   37.8000   29.3020   41.8960 C   0  0  0  0  0  0  0  0  0  0  0  0
   38.7380   29.8060   42.8500 C   0  0  0  0  0  0  0  0  0  0  0  0
   39.6220   30.7700   42.4430 C   0  0  0  0  0  0  0  0  0  0  0  0
   39.5600   31.2340   41.0610 C   0  0  0  0  0  0  0  0  0  0  0  0
   38.2200   30.2740   40.3430 S   0  0  0  0  0  0  0  0  0  0  0  0
   38.6900   29.3900   43.8370 H   0  0  0  0  0  0  0  0  0  0  0  0
   40.3450   31.1920   43.0900 H   0  0  0  0  0  0  0  0  0  0  0  0
   39.7100   32.6440   39.1720 C   0  0  2  0  0  3  0  0  0  0  0  0
   40.3570   32.1990   40.4400 C   0  0  2  0  0  3  0  0  0  0  0  0
   41.5990   31.6760   40.1200 O   0  0  0  0  0  0  0  0  0  0  0  0
   41.9620   32.1310   38.8730 C   0  0  0  0  0  2  0  0  0  0  0  0
   40.9100   33.0470   38.3470 C   0  0  1  0  0  3  0  0  0  0  0  0
   38.8320   33.7010   39.4050 O   0  0  0  0  0  0  0  0  0  0  0  0
   38.9670   34.0080   40.3370 H   0  0  0  0  0  0  0  0  0  0  0  0
   40.5900   32.7790   37.0030 O   0  0  0  0  0  0  0  0  0  0  0  0
   40.1010   31.9220   36.9610 H   0  0  0  0  0  0  0  0  0  0  0  0
   36.7440   28.3330   41.8780 C   0  0  0  0  0  0  0  0  0  0  0  0
   36.8270   27.7160   40.9480 H   0  0  0  0  0  0  0  0  0  0  0  0
   35.7590   28.8400   41.8190 H   0  0  0  0  0  0  0  0  0  0  0  0
   36.7350   27.3520   43.0280 C   0  0  0  0  0  0  0  0  0  0  0  0
   35.7240   27.1170   43.3390 H   0  0  0  0  0  0  0  0  0  0  0  0
   37.2290   27.8380   43.9150 H   0  0  0  0  0  0  0  0  0  0  0  0
   37.5090   26.1860   42.6600 C   0  0  0  0  0  0  0  0  0  0  0  0
   36.9600   25.1120   41.9690 C   0  0  0  0  0  0  0  0  0  0  0  0
   37.7680   24.0290   41.6520 C   0  0  0  0  0  0  0  0  0  0  0  0
   39.0720   24.0760   42.0400 N   0  0  0  0  0  0  0  0  0  0  0  0
   39.5890   25.1220   42.7090 C   0  0  0  0  0  0  0  0  0  0  0  0
   38.8080   26.1450   43.0030 N   0  0  0  0  0  0  0  0  0  0  0  0
   35.9160   25.1410   41.6920 H   0  0  0  0  0  0  0  0  0  0  0  0
   37.3770   23.1750   41.1160 H   0  0  0  0  0  0  0  0  0  0  0  0
   40.6360   25.1040   42.9930 H   0  0  0  0  0  0  0  0  0  0  0  0
  1  2  2  0  0  0  0
  2  6  1  0  0  0  0
  3  2  1  0  0  0  0
  3  7  1  0  0  0  0
  4  3  2  0  0  0  0
  5  4  1  0  0  0  0
  5  1  1  0  0  0  0
  8 13  1  1  0  0  0
  8  9  1  0  0  0  0
  9  4  1  6  0  0  0
 10  9  1  0  0  0  0
 11 10  1  0  0  0  0
 12 15  1  6  0  0  0
 12 11  1  0  0  0  0
 12  8  1  0  0  0  0
 13 14  1  0  0  0  0
 16 15  1  0  0  0  0
 17  1  1  0  0  0  0
 17 20  1  0  0  0  0
 18 17  1  0  0  0  0
 19 17  1  0  0  0  0
 20 21  1  0  0  0  0
 20 22  1  0  0  0  0
 23 28  1  0  0  0  0
 23 20  1  0  0  0  0
 24 23  2  0  0  0  0
 25 24  1  0  0  0  0
 25 26  2  0  0  0  0
 26 27  1  0  0  0  0
 27 31  1  0  0  0  0
 27 28  2  0  0  0  0
 29 24  1  0  0  0  0
 30 25  1  0  0  0  0
M  END
>  <minimizedAffinity>
-5.42555952

$$$$

 OpenBabel03242518143D

 31 33  0  0  1  0  0  0  0  0999 V2000
   37.0450   26.0700   41.5770 C   0  0  0  0  0  0  0  0  0  0  0  0
   36.7970   26.6980   40.3160 C   0  0  0  0  0  0  0  0  0  0  0  0
   36.9910   28.0500   40.2160 C   0  0  0  0  0  0  0  0  0  0  0  0
   37.4420   28.7790   41.3970 C   0  0  0  0  0  0  0  0  0  0  0  0
   37.5860   27.5080   42.6610 S   0  0  0  0  0  0  0  0  0  0  0  0
   36.4690   26.0600   39.5190 H   0  0  0  0  0  0  0  0  0  0  0  0
   36.8290   28.5860   39.3180 H   0  0  0  0  0  0  0  0  0  0  0  0
   36.7240   30.9160   40.6930 C   0  0  2  0  0  3  0  0  0  0  0  0
   37.7000   30.1460   41.5180 C   0  0  2  0  0  3  0  0  0  0  0  0
   38.9720   30.4470   41.0590 O   0  0  0  0  0  0  0  0  0  0  0  0
   38.9150   31.6200   40.3400 C   0  0  0  0  0  2  0  0  0  0  0  0
   37.5240   32.1530   40.3560 C   0  0  1  0  0  3  0  0  0  0  0  0
   35.5700   31.1970   41.4210 O   0  0  0  0  0  0  0  0  0  0  0  0
   35.7400   30.9550   42.3660 H   0  0  0  0  0  0  0  0  0  0  0  0
   37.0980   32.5790   39.0850 O   0  0  0  0  0  0  0  0  0  0  0  0
   36.9660   31.7840   38.5140 H   0  0  0  0  0  0  0  0  0  0  0  0
   36.9730   24.7450   42.1180 C   0  0  0  0  0  0  0  0  0  0  0  0
   35.9620   24.3150   41.9060 H   0  0  0  0  0  0  0  0  0  0  0  0
   37.0640   24.7780   43.2240 H   0  0  0  0  0  0  0  0  0  0  0  0
   37.9710   23.7540   41.5630 C   0  0  0  0  0  0  0  0  0  0  0  0
   37.7130   23.4580   40.5520 H   0  0  0  0  0  0  0  0  0  0  0  0
   37.9260   22.8170   42.1830 H   0  0  0  0  0  0  0  0  0  0  0  0
   39.3020   24.3110   41.6770 C   0  0  0  0  0  0  0  0  0  0  0  0
   39.9390   24.4780   42.9000 C   0  0  0  0  0  0  0  0  0  0  0  0
   41.2180   25.0190   42.9270 C   0  0  0  0  0  0  0  0  0  0  0  0
   41.7860   25.3630   41.7390 N   0  0  0  0  0  0  0  0  0  0  0  0
   41.1560   25.1960   40.5630 C   0  0  0  0  0  0  0  0  0  0  0  0
   39.9410   24.6800   40.5530 N   0  0  0  0  0  0  0  0  0  0  0  0
   39.4290   24.1830   43.8060 H   0  0  0  0  0  0  0  0  0  0  0  0
   41.7460   25.1650   43.8600 H   0  0  0  0  0  0  0  0  0  0  0  0
   41.6580   25.4880   39.6460 H   0  0  0  0  0  0  0  0  0  0  0  0
  1 17  1  0  0  0  0
  1  5  1  0  0  0  0
  2  1  2  0  0  0  0
  3  2  1  0  0  0  0
  3  4  2  0  0  0  0
  4  5  1  0  0  0  0
  6  2  1  0  0  0  0
  7  3  1  0  0  0  0
  8 13  1  1  0  0  0
  8  9  1  0  0  0  0
  9  4  1  6  0  0  0
 10  9  1  0  0  0  0
 11 12  1  0  0  0  0
 11 10  1  0  0  0  0
 12 15  1  6  0  0  0
 12  8  1  0  0  0  0
 13 14  1  0  0  0  0
 16 15  1  0  0  0  0
 17 19  1  0  0  0  0
 18 17  1  0  0  0  0
 20 23  1  0  0  0  0
 20 17  1  0  0  0  0
 20 22  1  0  0  0  0
 21 20  1  0  0  0  0
 23 24  1  0  0  0  0
 24 25  2  0  0  0  0
 24 29  1  0  0  0  0
 25 30  1  0  0  0  0
 26 25  1  0  0  0  0
 27 26  2  0  0  0  0
 28 27  1  0  0  0  0
 28 23  2  0  0  0  0
 31 27  1  0  0  0  0
M  END
>  <minimizedAffinity>
-5.40510988

$$$$

 OpenBabel03242518143D

 31 33  0  0  1  0  0  0  0  0999 V2000
   36.5770   28.6090   41.8420 C   0  0  0  0  0  0  0  0  0  0  0  0
   35.7270   29.0170   40.7670 C   0  0  0  0  0  0  0  0  0  0  0  0
   36.1210   30.0790   39.9980 C   0  0  0  0  0  0  0  0  0  0  0  0
   37.3850   30.7380   40.3120 C   0  0  0  0  0  0  0  0  0  0  0  0
   38.0100   29.8200   41.7270 S   0  0  0  0  0  0  0  0  0  0  0  0
   34.8230   28.4580   40.6310 H   0  0  0  0  0  0  0  0  0  0  0  0
   35.5480   30.4410   39.1850 H   0  0  0  0  0  0  0  0  0  0  0  0
   39.3830   31.9820   40.1230 C   0  0  2  0  0  3  0  0  0  0  0  0
   37.9720   31.8280   39.6660 C   0  0  2  0  0  3  0  0  0  0  0  0
   37.2990   32.9990   39.9700 O   0  0  0  0  0  0  0  0  0  0  0  0
   38.2220   34.0000   40.1720 C   0  0  0  0  0  2  0  0  0  0  0  0
   39.5960   33.4680   39.9490 C   0  0  1  0  0  3  0  0  0  0  0  0
   40.2470   31.2150   39.3440 O   0  0  0  0  0  0  0  0  0  0  0  0
   39.7330   30.8720   38.5690 H   0  0  0  0  0  0  0  0  0  0  0  0
   40.4970   33.8710   40.9520 O   0  0  0  0  0  0  0  0  0  0  0  0
   40.2690   33.3980   41.7880 H   0  0  0  0  0  0  0  0  0  0  0  0
   36.5640   27.6010   42.8610 C   0  0  0  0  0  0  0  0  0  0  0  0
   35.8160   26.8140   42.5920 H   0  0  0  0  0  0  0  0  0  0  0  0
   36.2170   28.0330   43.8230 H   0  0  0  0  0  0  0  0  0  0  0  0
   37.8710   26.8740   43.0820 C   0  0  0  0  0  0  0  0  0  0  0  0
   37.9680   26.5370   44.1070 H   0  0  0  0  0  0  0  0  0  0  0  0
   38.7150   27.5980   42.9100 H   0  0  0  0  0  0  0  0  0  0  0  0
   37.9860   25.8060   42.1120 C   0  0  0  0  0  0  0  0  0  0  0  0
   37.1100   24.7270   42.0810 C   0  0  0  0  0  0  0  0  0  0  0  0
   37.2860   23.7420   41.1190 C   0  0  0  0  0  0  0  0  0  0  0  0
   38.3210   23.8860   40.2460 N   0  0  0  0  0  0  0  0  0  0  0  0
   39.1600   24.9350   40.2890 C   0  0  0  0  0  0  0  0  0  0  0  0
   38.9800   25.8640   41.2090 N   0  0  0  0  0  0  0  0  0  0  0  0
   36.3100   24.6760   42.8050 H   0  0  0  0  0  0  0  0  0  0  0  0
   36.6260   22.8870   41.0640 H   0  0  0  0  0  0  0  0  0  0  0  0
   39.9680   24.9970   39.5670 H   0  0  0  0  0  0  0  0  0  0  0  0
  1 17  1  0  0  0  0
  2  1  2  0  0  0  0
  3  4  2  0  0  0  0
  3  2  1  0  0  0  0
  4  5  1  0  0  0  0
  5  1  1  0  0  0  0
  6  2  1  0  0  0  0
  7  3  1  0  0  0  0
  8 13  1  6  0  0  0
  9 10  1  0  0  0  0
  9  8  1  0  0  0  0
  9  4  1  1  0  0  0
 10 11  1  0  0  0  0
 12  8  1  0  0  0  0
 12 11  1  0  0  0  0
 12 15  1  1  0  0  0
 14 13  1  0  0  0  0
 15 16  1  0  0  0  0
 17 20  1  0  0  0  0
 17 19  1  0  0  0  0
 18 17  1  0  0  0  0
 20 21  1  0  0  0  0
 22 20  1  0  0  0  0
 23 20  1  0  0  0  0
 24 23  1  0  0  0  0
 24 29  1  0  0  0  0
 25 24  2  0  0  0  0
 26 27  2  0  0  0  0
 26 25  1  0  0  0  0
 27 28  1  0  0  0  0
 28 23  2  0  0  0  0
 30 25  1  0  0  0  0
 31 27  1  0  0  0  0
M  END
>  <minimizedAffinity>
-5.15886164

$$$$

 OpenBabel03242518143D

 31 33  0  0  1  0  0  0  0  0999 V2000
   37.4280   26.3890   42.3920 C   0  0  0  0  0  0  0  0  0  0  0  0
   38.2550   27.0700   43.3390 C   0  0  0  0  0  0  0  0  0  0  0  0
   38.4360   28.4190   43.1890 C   0  0  0  0  0  0  0  0  0  0  0  0
   37.7770   29.0920   42.0740 C   0  0  0  0  0  0  0  0  0  0  0  0
   36.8910   27.7710   41.2360 S   0  0  0  0  0  0  0  0  0  0  0  0
   38.6860   26.4720   44.1170 H   0  0  0  0  0  0  0  0  0  0  0  0
   39.0330   28.9930   43.8490 H   0  0  0  0  0  0  0  0  0  0  0  0
   36.7510   30.7560   40.7490 C   0  0  2  0  0  3  0  0  0  0  0  0
   37.8250   30.4460   41.7370 C   0  0  2  0  0  3  0  0  0  0  0  0
   39.0410   30.7630   41.1520 O   0  0  0  0  0  0  0  0  0  0  0  0
   38.8140   31.6170   40.0970 C   0  0  0  0  0  2  0  0  0  0  0  0
   37.3570   31.9180   39.9980 C   0  0  1  0  0  3  0  0  0  0  0  0
   35.5620   31.0880   41.3950 O   0  0  0  0  0  0  0  0  0  0  0  0
   35.7590   31.1930   42.3600 H   0  0  0  0  0  0  0  0  0  0  0  0
   36.8820   31.8420   38.6760 O   0  0  0  0  0  0  0  0  0  0  0  0
   36.8760   30.8940   38.3980 H   0  0  0  0  0  0  0  0  0  0  0  0
   36.9850   25.0450   42.1650 C   0  0  0  0  0  0  0  0  0  0  0  0
   36.2660   25.0340   41.3080 H   0  0  0  0  0  0  0  0  0  0  0  0
   36.4150   24.6770   43.0440 H   0  0  0  0  0  0  0  0  0  0  0  0
   38.0650   24.0480   41.8150 C   0  0  0  0  0  0  0  0  0  0  0  0
   37.7160   23.0290   41.9320 H   0  0  0  0  0  0  0  0  0  0  0  0
   38.9150   24.1730   42.5420 H   0  0  0  0  0  0  0  0  0  0  0  0
   38.5600   24.3370   40.4860 C   0  0  0  0  0  0  0  0  0  0  0  0
   39.8910   24.6480   40.2360 C   0  0  0  0  0  0  0  0  0  0  0  0
   40.2890   24.9120   38.9320 C   0  0  0  0  0  0  0  0  0  0  0  0
   39.3430   24.8520   37.9560 N   0  0  0  0  0  0  0  0  0  0  0  0
   38.0580   24.5500   38.2130 C   0  0  0  0  0  0  0  0  0  0  0  0
   37.6940   24.3010   39.4580 N   0  0  0  0  0  0  0  0  0  0  0  0
   40.5900   24.6780   41.0590 H   0  0  0  0  0  0  0  0  0  0  0  0
   41.3160   25.1590   38.6970 H   0  0  0  0  0  0  0  0  0  0  0  0
   37.3460   24.5170   37.3950 H   0  0  0  0  0  0  0  0  0  0  0  0
  1  2  2  0  0  0  0
  2  6  1  0  0  0  0
  3  2  1  0  0  0  0
  3  7  1  0  0  0  0
  4  3  2  0  0  0  0
  5  4  1  0  0  0  0
  5  1  1  0  0  0  0
  8 13  1  1  0  0  0
  8  9  1  0  0  0  0
  9  4  1  6  0  0  0
 10  9  1  0  0  0  0
 11 10  1  0  0  0  0
 12 15  1  6  0  0  0
 12 11  1  0  0  0  0
 12  8  1  0  0  0  0
 13 14  1  0  0  0  0
 16 15  1  0  0  0  0
 17  1  1  0  0  0  0
 17 19  1  0  0  0  0
 18 17  1  0  0  0  0
 20 21  1  0  0  0  0
 20 17  1  0  0  0  0
 20 22  1  0  0  0  0
 23 20  1  0  0  0  0
 24 23  1  0  0  0  0
 24 29  1  0  0  0  0
 25 24  2  0  0  0  0
 26 27  2  0  0  0  0
 26 25  1  0  0  0  0
 27 28  1  0  0  0  0
 28 23  2  0  0  0  0
 30 25  1  0  0  0  0
 31 27  1  0  0  0  0
M  END
>  <minimizedAffinity>
-5.11520243

$$$$

 OpenBabel03242518143D

 31 33  0  0  1  0  0  0  0  0999 V2000
   37.1710   30.7950   39.4340 C   0  0  0  0  0  0  0  0  0  0  0  0
   36.8390   32.1640   39.6780 C   0  0  0  0  0  0  0  0  0  0  0  0
   37.8480   33.0890   39.6550 C   0  0  0  0  0  0  0  0  0  0  0  0
   39.2070   32.6320   39.3820 C   0  0  0  0  0  0  0  0  0  0  0  0
   39.0300   30.8580   39.1580 S   0  0  0  0  0  0  0  0  0  0  0  0
   35.8060   32.3810   39.8660 H   0  0  0  0  0  0  0  0  0  0  0  0
   37.6820   34.1200   39.8250 H   0  0  0  0  0  0  0  0  0  0  0  0
   41.3410   32.7520   38.3770 C   0  0  2  0  0  3  0  0  0  0  0  0
   40.3740   33.3970   39.3130 C   0  0  2  0  0  3  0  0  0  0  0  0
   40.9810   33.4800   40.5560 O   0  0  0  0  0  0  0  0  0  0  0  0
   42.3410   33.3520   40.3930 C   0  0  0  0  0  2  0  0  0  0  0  0
   42.6630   33.2150   38.9440 C   0  0  1  0  0  3  0  0  0  0  0  0
   41.1310   33.1830   37.0690 O   0  0  0  0  0  0  0  0  0  0  0  0
   40.4900   33.9380   37.0970 H   0  0  0  0  0  0  0  0  0  0  0  0
   43.5940   32.1890   38.6970 O   0  0  0  0  0  0  0  0  0  0  0  0
   43.1530   31.3200   38.8530 H   0  0  0  0  0  0  0  0  0  0  0  0
   36.4730   29.5440   39.3690 C   0  0  0  0  0  0  0  0  0  0  0  0
   37.2090   28.7210   39.1880 H   0  0  0  0  0  0  0  0  0  0  0  0
   35.7850   29.5340   38.4980 H   0  0  0  0  0  0  0  0  0  0  0  0
   35.7110   29.1540   40.6150 C   0  0  0  0  0  0  0  0  0  0  0  0
   34.8600   28.5260   40.3770 H   0  0  0  0  0  0  0  0  0  0  0  0
   35.2890   30.0860   41.0820 H   0  0  0  0  0  0  0  0  0  0  0  0
   36.6260   28.5480   41.5580 C   0  0  0  0  0  0  0  0  0  0  0  0
   36.9330   27.1930   41.5360 C   0  0  0  0  0  0  0  0  0  0  0  0
   37.8220   26.6870   42.4750 C   0  0  0  0  0  0  0  0  0  0  0  0
   38.3510   27.5550   43.3790 N   0  0  0  0  0  0  0  0  0  0  0  0
   38.0440   28.8640   43.3890 C   0  0  0  0  0  0  0  0  0  0  0  0
   37.1970   29.3310   42.4890 N   0  0  0  0  0  0  0  0  0  0  0  0
   36.4760   26.5600   40.7880 H   0  0  0  0  0  0  0  0  0  0  0  0
   38.0850   25.6370   42.4900 H   0  0  0  0  0  0  0  0  0  0  0  0
   38.4960   29.5100   44.1340 H   0  0  0  0  0  0  0  0  0  0  0  0
  1  2  2  0  0  0  0
  2  6  1  0  0  0  0
  3  2  1  0  0  0  0
  3  7  1  0  0  0  0
  4  3  2  0  0  0  0
  5  4  1  0  0  0  0
  5  1  1  0  0  0  0
  8 13  1  6  0  0  0
  8 12  1  0  0  0  0
  8  9  1  0  0  0  0
  9  4  1  1  0  0  0
  9 10  1  0  0  0  0
 11 10  1  0  0  0  0
 12 15  1  1  0  0  0
 12 11  1  0  0  0  0
 13 14  1  0  0  0  0
 15 16  1  0  0  0  0
 17  1  1  0  0  0  0
 17 20  1  0  0  0  0
 18 17  1  0  0  0  0
 19 17  1  0  0  0  0
 20 22  1  0  0  0  0
 20 23  1  0  0  0  0
 21 20  1  0  0  0  0
 23 28  1  0  0  0  0
 24 23  2  0  0  0  0
 24 25  1  0  0  0  0
 25 30  1  0  0  0  0
 25 26  2  0  0  0  0
 26 27  1  0  0  0  0
 27 31  1  0  0  0  0
 28 27  2  0  0  0  0
 29 24  1  0  0  0  0
M  END
>  <minimizedAffinity>
-5.07832146

$$$$

 OpenBabel03242518143D

 31 33  0  0  1  0  0  0  0  0999 V2000
   36.8860   29.4680   41.6900 C   0  0  0  0  0  0  0  0  0  0  0  0
   37.6480   29.2380   42.8770 C   0  0  0  0  0  0  0  0  0  0  0  0
   38.0940   27.9670   43.1250 C   0  0  0  0  0  0  0  0  0  0  0  0
   37.7710   26.9150   42.1660 C   0  0  0  0  0  0  0  0  0  0  0  0
   36.8180   27.7630   40.9000 S   0  0  0  0  0  0  0  0  0  0  0  0
   37.8240   30.0870   43.5070 H   0  0  0  0  0  0  0  0  0  0  0  0
   38.6640   27.7170   43.9810 H   0  0  0  0  0  0  0  0  0  0  0  0
   39.1030   25.2560   41.1410 C   0  0  2  0  0  3  0  0  0  0  0  0
   38.1200   25.5640   42.2200 C   0  0  2  0  0  3  0  0  0  0  0  0
   37.0090   24.7620   42.0210 O   0  0  0  0  0  0  0  0  0  0  0  0
   37.3630   23.7090   41.2080 C   0  0  0  0  0  2  0  0  0  0  0  0
   38.8140   23.7960   40.8780 C   0  0  1  0  0  3  0  0  0  0  0  0
   40.4070   25.4810   41.5760 O   0  0  0  0  0  0  0  0  0  0  0  0
   40.3790   25.6420   42.5530 H   0  0  0  0  0  0  0  0  0  0  0  0
   39.0670   23.5700   39.5130 O   0  0  0  0  0  0  0  0  0  0  0  0
   38.7320   24.3440   38.9980 H   0  0  0  0  0  0  0  0  0  0  0  0
   36.2420   30.5820   41.0590 C   0  0  0  0  0  0  0  0  0  0  0  0
   36.4760   31.5150   41.6310 H   0  0  0  0  0  0  0  0  0  0  0  0
   35.1390   30.4650   41.1070 H   0  0  0  0  0  0  0  0  0  0  0  0
   36.6550   30.8560   39.6310 C   0  0  0  0  0  0  0  0  0  0  0  0
   35.8110   31.1690   39.0280 H   0  0  0  0  0  0  0  0  0  0  0  0
   37.0250   29.8960   39.1760 H   0  0  0  0  0  0  0  0  0  0  0  0
   37.7460   31.8080   39.6300 C   0  0  0  0  0  0  0  0  0  0  0  0
   39.0050   31.5000   39.1300 C   0  0  0  0  0  0  0  0  0  0  0  0
   40.0000   32.4690   39.1630 C   0  0  0  0  0  0  0  0  0  0  0  0
   39.6850   33.6830   39.6920 N   0  0  0  0  0  0  0  0  0  0  0  0
   38.4620   33.9660   40.1730 C   0  0  0  0  0  0  0  0  0  0  0  0
   37.5260   33.0350   40.1340 N   0  0  0  0  0  0  0  0  0  0  0  0
   39.1860   30.5150   38.7240 H   0  0  0  0  0  0  0  0  0  0  0  0
   40.9930   32.2670   38.7840 H   0  0  0  0  0  0  0  0  0  0  0  0
   38.2680   34.9510   40.5830 H   0  0  0  0  0  0  0  0  0  0  0  0
  1  2  2  0  0  0  0
  2  3  1  0  0  0  0
  2  6  1  0  0  0  0
  3  7  1  0  0  0  0
  4  3  2  0  0  0  0
  5  1  1  0  0  0  0
  5  4  1  0  0  0  0
  8 13  1  1  0  0  0
  8  9  1  0  0  0  0
  9  4  1  6  0  0  0
 10  9  1  0  0  0  0
 11 10  1  0  0  0  0
 12 15  1  6  0  0  0
 12  8  1  0  0  0  0
 12 11  1  0  0  0  0
 13 14  1  0  0  0  0
 16 15  1  0  0  0  0
 17 19  1  0  0  0  0
 17 18  1  0  0  0  0
 17  1  1  0  0  0  0
 20 17  1  0  0  0  0
 21 20  1  0  0  0  0
 22 20  1  0  0  0  0
 23 20  1  0  0  0  0
 23 28  1  0  0  0  0
 24 25  1  0  0  0  0
 24 23  2  0  0  0  0
 25 26  2  0  0  0  0
 26 27  1  0  0  0  0
 27 31  1  0  0  0  0
 28 27  2  0  0  0  0
 29 24  1  0  0  0  0
 30 25  1  0  0  0  0
M  END
>  <minimizedAffinity>
-4.90833807

$$$$

 OpenBabel03242518143D

 31 33  0  0  1  0  0  0  0  0999 V2000
   37.3470   29.8620   37.7460 C   0  0  0  0  0  0  0  0  0  0  0  0
   37.2900   31.2530   38.0700 C   0  0  0  0  0  0  0  0  0  0  0  0
   38.4680   31.9130   38.3000 C   0  0  0  0  0  0  0  0  0  0  0  0
   39.7170   31.1660   38.2010 C   0  0  0  0  0  0  0  0  0  0  0  0
   39.1920   29.5010   37.7740 S   0  0  0  0  0  0  0  0  0  0  0  0
   36.3150   31.6960   38.1140 H   0  0  0  0  0  0  0  0  0  0  0  0
   38.5080   32.9420   38.5450 H   0  0  0  0  0  0  0  0  0  0  0  0
   41.0960   33.0740   38.0030 C   0  0  2  0  0  3  0  0  0  0  0  0
   41.0180   31.6360   38.3940 C   0  0  2  0  0  3  0  0  0  0  0  0
   41.9150   30.9350   37.6040 O   0  0  0  0  0  0  0  0  0  0  0  0
   42.8270   31.8210   37.0780 C   0  0  0  0  0  2  0  0  0  0  0  0
   42.5420   33.1940   37.5820 C   0  0  1  0  0  3  0  0  0  0  0  0
   40.7730   33.9000   39.0780 O   0  0  0  0  0  0  0  0  0  0  0  0
   40.7220   33.3360   39.8910 H   0  0  0  0  0  0  0  0  0  0  0  0
   42.5900   34.1610   36.5610 O   0  0  0  0  0  0  0  0  0  0  0  0
   41.8080   34.0350   35.9710 H   0  0  0  0  0  0  0  0  0  0  0  0
   36.4120   28.8180   37.4460 C   0  0  0  0  0  0  0  0  0  0  0  0
   36.9620   27.8490   37.3430 H   0  0  0  0  0  0  0  0  0  0  0  0
   35.9340   29.0030   36.4620 H   0  0  0  0  0  0  0  0  0  0  0  0
   35.3410   28.5790   38.4860 C   0  0  0  0  0  0  0  0  0  0  0  0
   34.5560   27.9350   38.1060 H   0  0  0  0  0  0  0  0  0  0  0  0
   34.8490   29.5620   38.7250 H   0  0  0  0  0  0  0  0  0  0  0  0
   35.9600   28.0770   39.6940 C   0  0  0  0  0  0  0  0  0  0  0  0
   35.9610   28.7920   40.8860 C   0  0  0  0  0  0  0  0  0  0  0  0
   36.5760   28.2420   42.0030 C   0  0  0  0  0  0  0  0  0  0  0  0
   37.1540   27.0180   41.8700 N   0  0  0  0  0  0  0  0  0  0  0  0
   37.1470   26.3380   40.7100 C   0  0  0  0  0  0  0  0  0  0  0  0
   36.5570   26.8730   39.6560 N   0  0  0  0  0  0  0  0  0  0  0  0
   35.4820   29.7600   40.9210 H   0  0  0  0  0  0  0  0  0  0  0  0
   36.5970   28.7690   42.9480 H   0  0  0  0  0  0  0  0  0  0  0  0
   37.6240   25.3650   40.6620 H   0  0  0  0  0  0  0  0  0  0  0  0
  1  5  1  0  0  0  0
  1  2  2  0  0  0  0
  2  6  1  0  0  0  0
  2  3  1  0  0  0  0
  3  7  1  0  0  0  0
  4  3  2  0  0  0  0
  5  4  1  0  0  0  0
  8  9  1  0  0  0  0
  8 13  1  1  0  0  0
  9  4  1  6  0  0  0
 10  9  1  0  0  0  0
 11 12  1  0  0  0  0
 11 10  1  0  0  0  0
 12 15  1  6  0  0  0
 12  8  1  0  0  0  0
 13 14  1  0  0  0  0
 16 15  1  0  0  0  0
 17  1  1  0  0  0  0
 17 20  1  0  0  0  0
 18 17  1  0  0  0  0
 19 17  1  0  0  0  0
 20 22  1  0  0  0  0
 20 23  1  0  0  0  0
 21 20  1  0  0  0  0
 23 24  1  0  0  0  0
 24 29  1  0  0  0  0
 24 25  2  0  0  0  0
 25 30  1  0  0  0  0
 26 25  1  0  0  0  0
 27 26  2  0  0  0  0
 28 23  2  0  0  0  0
 28 27  1  0  0  0  0
 31 27  1  0  0  0  0
M  END
>  <minimizedAffinity>
-4.90606403

$$$$
