
 OpenBabel03252506553D

 38 42  0  0  1  0  0  0  0  0999 V2000
   47.3560   31.4920   45.1000 C   0  0  0  0  0  0  0  0  0  0  0  0
   46.9310   32.8030   45.0100 C   0  0  0  0  0  0  0  0  0  0  0  0
   46.2230   33.4340   46.0150 C   0  0  0  0  0  0  0  0  0  0  0  0
   45.9070   32.7510   47.1780 C   0  0  0  0  0  0  0  0  0  0  0  0
   45.2490   33.0280   48.3410 N   0  0  0  0  0  0  0  0  0  0  0  0
   45.2700   31.9210   49.1210 C   0  0  0  0  0  0  0  0  0  0  0  0
   45.9420   30.9650   48.4310 N   0  0  0  0  0  0  0  0  0  0  0  0
   46.3420   31.4420   47.2470 C   0  0  0  0  0  0  0  0  0  0  0  0
   47.0440   30.7910   46.2660 C   0  0  0  0  0  0  0  0  0  0  0  0
   47.9050   31.0080   44.3160 H   0  0  0  0  0  0  0  0  0  0  0  0
   45.8860   34.4700   45.9460 H   0  0  0  0  0  0  0  0  0  0  0  0
   44.8250   33.9650   48.5310 H   0  0  0  0  0  0  0  0  0  0  0  0
   44.8130   31.8590   50.1190 H   0  0  0  0  0  0  0  0  0  0  0  0
   46.6550   35.2010   42.2260 C   0  0  0  0  0  0  0  0  0  0  0  0
   47.8390   34.9830   41.5270 C   0  0  0  0  0  0  0  0  0  0  0  0
   48.7260   34.0260   42.0010 C   0  0  0  0  0  0  0  0  0  0  0  0
   48.3920   33.3350   43.1420 N   0  0  0  0  0  0  0  0  0  0  0  0
   47.2410   33.5630   43.8020 C   0  0  0  0  0  0  0  0  0  0  0  0
   46.3840   34.4860   43.3470 N   0  0  0  0  0  0  0  0  0  0  0  0
   45.9410   35.9360   41.8880 H   0  0  0  0  0  0  0  0  0  0  0  0
   48.0530   35.5480   40.6410 H   0  0  0  0  0  0  0  0  0  0  0  0
   49.6600   33.8110   41.5020 H   0  0  0  0  0  0  0  0  0  0  0  0
   47.4610   29.3930   46.4390 C   0  0  0  0  0  0  0  0  0  0  0  0
   48.7770   28.9810   46.5710 C   0  0  0  0  0  0  0  0  0  0  0  0
   48.6710   27.5940   46.7080 C   0  0  0  0  0  0  0  0  0  0  0  0
   47.3210   27.2510   46.6520 C   0  0  0  0  0  0  0  0  0  0  0  0
   46.6450   28.3690   46.4900 O   0  0  0  0  0  0  0  0  0  0  0  0
   49.6930   29.5560   46.5730 H   0  0  0  0  0  0  0  0  0  0  0  0
   49.4680   26.8850   46.8350 H   0  0  0  0  0  0  0  0  0  0  0  0
   45.5010   25.9010   47.7100 C   0  0  2  0  0  3  0  0  0  0  0  0
   46.6870   25.9310   46.7470 C   0  0  1  0  0  3  0  0  0  0  0  0
   46.0540   25.5140   45.5780 O   0  0  0  0  0  0  0  0  0  0  0  0
   45.4940   24.3010   45.9810 C   0  0  0  0  0  2  0  0  0  0  0  0
   44.9410   24.5280   47.3700 C   0  0  2  0  0  3  0  0  0  0  0  0
   44.5380   26.8390   47.2930 O   0  0  0  0  0  0  0  0  0  0  0  0
   43.9890   26.4640   46.5490 H   0  0  0  0  0  0  0  0  0  0  0  0
   43.5510   24.4930   47.3980 O   0  0  0  0  0  0  0  0  0  0  0  0
   43.2630   24.9450   48.2310 H   0  0  0  0  0  0  0  0  0  0  0  0
  1  9  1  0  0  0  0
  2  1  2  0  0  0  0
  2  3  1  0  0  0  0
  3  4  2  0  0  0  0
  4  8  1  0  0  0  0
  4  5  1  0  0  0  0
  5 12  1  0  0  0  0
  5  6  1  0  0  0  0
  6 13  1  0  0  0  0
  7  6  2  0  0  0  0
  8  7  1  0  0  0  0
  9 23  1  0  0  0  0
  9  8  2  0  0  0  0
 10  1  1  0  0  0  0
 11  3  1  0  0  0  0
 14 19  1  0  0  0  0
 15 16  1  0  0  0  0
 15 14  2  0  0  0  0
 16 17  2  0  0  0  0
 17 18  1  0  0  0  0
 18  2  1  0  0  0  0
 19 18  2  0  0  0  0
 20 14  1  0  0  0  0
 21 15  1  0  0  0  0
 22 16  1  0  0  0  0
 23 27  1  0  0  0  0
 23 24  2  0  0  0  0
 24 28  1  0  0  0  0
 24 25  1  0  0  0  0
 25 29  1  0  0  0  0
 26 25  2  0  0  0  0
 27 26  1  0  0  0  0
 30 35  1  6  0  0  0
 31 26  1  6  0  0  0
 31 30  1  0  0  0  0
 32 33  1  0  0  0  0
 32 31  1  0  0  0  0
 33 34  1  0  0  0  0
 34 37  1  6  0  0  0
 34 30  1  0  0  0  0
 36 35  1  0  0  0  0
 37 38  1  0  0  0  0
M  END
>  <minimizedAffinity>
-5.65073109

>  <minimizedRMSD>
0.310596466

$$$$
