
 OpenBabel03252503423D

 21 22  0  0  1  0  0  0  0  0999 V2000
   36.9110   27.3360   42.5050 C   0  0  0  0  0  0  0  0  0  0  0  0
   37.1310   26.2680   41.6330 C   0  0  0  0  0  0  0  0  0  0  0  0
   37.6640   26.5660   40.3800 C   0  0  0  0  0  0  0  0  0  0  0  0
   37.9360   27.8590   40.0770 N   0  0  0  0  0  0  0  0  0  0  0  0
   37.7110   28.8620   40.9390 C   0  0  0  0  0  0  0  0  0  0  0  0
   37.1940   28.6160   42.1690 N   0  0  0  0  0  0  0  0  0  0  0  0
   36.4990   27.2480   43.5160 H   0  0  0  0  0  0  0  0  0  0  0  0
   37.8160   25.7180   39.7410 H   0  0  0  0  0  0  0  0  0  0  0  0
   36.8270   31.0260   40.0480 C   0  0  2  0  0  3  0  0  0  0  0  0
   38.0480   30.2110   40.4910 C   0  0  1  0  0  3  0  0  0  0  0  0
   38.5540   31.0370   41.4830 O   0  0  0  0  0  0  0  0  0  0  0  0
   38.5500   32.3020   40.9550 C   0  0  0  0  0  2  0  0  0  0  0  0
   37.5530   32.3610   39.8250 C   0  0  2  0  0  3  0  0  0  0  0  0
   36.0220   31.2200   41.1500 O   0  0  0  0  0  0  0  0  0  0  0  0
   35.4770   32.0440   41.1090 H   0  0  0  0  0  0  0  0  0  0  0  0
   36.7070   33.4410   39.8590 O   0  0  0  0  0  0  0  0  0  0  0  0
   36.9330   34.0310   39.0950 H   0  0  0  0  0  0  0  0  0  0  0  0
   36.7680   24.9340   42.1510 C   0  0  0  0  0  0  0  0  0  0  0  0
   37.4510   24.5720   42.9470 H   0  0  0  0  0  0  0  0  0  0  0  0
   35.7050   24.8870   42.4520 H   0  0  0  0  0  0  0  0  0  0  0  0
   36.9140   24.2000   41.3130 H   0  0  0  0  0  0  0  0  0  0  0  0
  1  7  1  0  0  0  0
  2 18  1  0  0  0  0
  2  1  2  0  0  0  0
  3  2  1  0  0  0  0
  4  3  2  0  0  0  0
  4  5  1  0  0  0  0
  5  6  2  0  0  0  0
  6  1  1  0  0  0  0
  8  3  1  0  0  0  0
  9 10  1  0  0  0  0
  9 14  1  1  0  0  0
 10  5  1  1  0  0  0
 10 11  1  0  0  0  0
 12 11  1  0  0  0  0
 13 16  1  1  0  0  0
 13  9  1  0  0  0  0
 13 12  1  0  0  0  0
 15 14  1  0  0  0  0
 17 16  1  0  0  0  0
 18 20  1  0  0  0  0
 18 19  1  0  0  0  0
 21 18  1  0  0  0  0
M  END
>  <minimizedAffinity>
-4.86822987

$$$$

 OpenBabel03252503423D

 21 22  0  0  1  0  0  0  0  0999 V2000
   37.7910   26.8820   40.5560 C   0  0  0  0  0  0  0  0  0  0  0  0
   37.2530   26.7020   41.8320 C   0  0  0  0  0  0  0  0  0  0  0  0
   37.0250   27.8440   42.5970 C   0  0  0  0  0  0  0  0  0  0  0  0
   37.3350   29.0540   42.0700 N   0  0  0  0  0  0  0  0  0  0  0  0
   37.8520   29.1920   40.8390 C   0  0  0  0  0  0  0  0  0  0  0  0
   38.0890   28.1060   40.0620 N   0  0  0  0  0  0  0  0  0  0  0  0
   38.0190   26.0760   39.8500 H   0  0  0  0  0  0  0  0  0  0  0  0
   36.6120   27.6610   43.5690 H   0  0  0  0  0  0  0  0  0  0  0  0
   36.8980   31.3100   39.9120 C   0  0  2  0  0  3  0  0  0  0  0  0
   38.1420   30.5510   40.3890 C   0  0  1  0  0  3  0  0  0  0  0  0
   38.5870   31.4040   41.3870 O   0  0  0  0  0  0  0  0  0  0  0  0
   38.5410   32.6650   40.8500 C   0  0  0  0  0  2  0  0  0  0  0  0
   37.5700   32.6730   39.6960 C   0  0  2  0  0  3  0  0  0  0  0  0
   36.0580   31.4750   40.9920 O   0  0  0  0  0  0  0  0  0  0  0  0
   35.4790   32.2760   40.9330 H   0  0  0  0  0  0  0  0  0  0  0  0
   36.6780   33.7160   39.7020 O   0  0  0  0  0  0  0  0  0  0  0  0
   36.8970   34.3110   38.9390 H   0  0  0  0  0  0  0  0  0  0  0  0
   36.9850   25.3020   42.2210 C   0  0  0  0  0  0  0  0  0  0  0  0
   36.1320   24.8500   41.6740 H   0  0  0  0  0  0  0  0  0  0  0  0
   37.8980   24.6810   42.1680 H   0  0  0  0  0  0  0  0  0  0  0  0
   36.6460   25.3140   43.2920 H   0  0  0  0  0  0  0  0  0  0  0  0
  1  2  1  0  0  0  0
  2 18  1  0  0  0  0
  2  3  2  0  0  0  0
  3  8  1  0  0  0  0
  4  3  1  0  0  0  0
  5  4  2  0  0  0  0
  6  1  2  0  0  0  0
  6  5  1  0  0  0  0
  7  1  1  0  0  0  0
  9 10  1  0  0  0  0
  9 14  1  1  0  0  0
 10  5  1  1  0  0  0
 10 11  1  0  0  0  0
 12 11  1  0  0  0  0
 13 16  1  1  0  0  0
 13  9  1  0  0  0  0
 13 12  1  0  0  0  0
 15 14  1  0  0  0  0
 17 16  1  0  0  0  0
 18 21  1  0  0  0  0
 19 18  1  0  0  0  0
 20 18  1  0  0  0  0
M  END
>  <minimizedAffinity>
-4.85204363

$$$$

 OpenBabel03252503423D

 21 22  0  0  1  0  0  0  0  0999 V2000
   37.2920   29.6170   39.0020 C   0  0  0  0  0  0  0  0  0  0  0  0
   36.3790   30.1350   39.9240 C   0  0  0  0  0  0  0  0  0  0  0  0
   36.7360   31.3090   40.5850 C   0  0  0  0  0  0  0  0  0  0  0  0
   37.9330   31.8780   40.3040 N   0  0  0  0  0  0  0  0  0  0  0  0
   38.7880   31.3530   39.4110 C   0  0  0  0  0  0  0  0  0  0  0  0
   38.4800   30.2120   38.7450 N   0  0  0  0  0  0  0  0  0  0  0  0
   37.1420   28.7060   38.4130 H   0  0  0  0  0  0  0  0  0  0  0  0
   36.0080   31.6720   41.2840 H   0  0  0  0  0  0  0  0  0  0  0  0
   40.5960   31.9120   37.7750 C   0  0  2  0  0  3  0  0  0  0  0  0
   40.0460   32.0640   39.1990 C   0  0  1  0  0  3  0  0  0  0  0  0
   39.9470   33.4440   39.2830 O   0  0  0  0  0  0  0  0  0  0  0  0
   41.1310   33.9350   38.7960 C   0  0  0  0  0  2  0  0  0  0  0  0
   41.7700   32.8920   37.9130 C   0  0  2  0  0  3  0  0  0  0  0  0
   39.7080   32.5140   36.9100 O   0  0  0  0  0  0  0  0  0  0  0  0
   40.1260   32.8590   36.0820 H   0  0  0  0  0  0  0  0  0  0  0  0
   42.2210   33.3590   36.7040 O   0  0  0  0  0  0  0  0  0  0  0  0
   43.2120   33.3160   36.7100 H   0  0  0  0  0  0  0  0  0  0  0  0
   35.1290   29.3660   40.0880 C   0  0  0  0  0  0  0  0  0  0  0  0
   34.4540   29.4340   39.2100 H   0  0  0  0  0  0  0  0  0  0  0  0
   35.3290   28.3200   40.3880 H   0  0  0  0  0  0  0  0  0  0  0  0
   34.5470   29.8500   40.9180 H   0  0  0  0  0  0  0  0  0  0  0  0
  1  2  1  0  0  0  0
  2 18  1  0  0  0  0
  2  3  2  0  0  0  0
  3  8  1  0  0  0  0
  4  3  1  0  0  0  0
  5  4  2  0  0  0  0
  6  1  2  0  0  0  0
  6  5  1  0  0  0  0
  7  1  1  0  0  0  0
  9 14  1  6  0  0  0
  9 13  1  0  0  0  0
  9 10  1  0  0  0  0
 10 11  1  0  0  0  0
 10  5  1  6  0  0  0
 12 11  1  0  0  0  0
 13 16  1  6  0  0  0
 13 12  1  0  0  0  0
 15 14  1  0  0  0  0
 16 17  1  0  0  0  0
 18 20  1  0  0  0  0
 18 21  1  0  0  0  0
 19 18  1  0  0  0  0
M  END
>  <minimizedAffinity>
-4.60375977

$$$$

 OpenBabel03252503423D

 21 22  0  0  1  0  0  0  0  0999 V2000
   36.1960   28.1820   41.4810 C   0  0  0  0  0  0  0  0  0  0  0  0
   37.1940   27.7740   42.3670 C   0  0  0  0  0  0  0  0  0  0  0  0
   38.1770   28.7050   42.6960 C   0  0  0  0  0  0  0  0  0  0  0  0
   38.1140   29.9420   42.1450 N   0  0  0  0  0  0  0  0  0  0  0  0
   37.1400   30.3020   41.2940 C   0  0  0  0  0  0  0  0  0  0  0  0
   36.1640   29.4260   40.9480 N   0  0  0  0  0  0  0  0  0  0  0  0
   35.3650   27.5560   41.1380 H   0  0  0  0  0  0  0  0  0  0  0  0
   38.9240   28.3510   43.3790 H   0  0  0  0  0  0  0  0  0  0  0  0
   38.5950   32.2710   40.7790 C   0  0  2  0  0  3  0  0  0  0  0  0
   37.1860   31.6650   40.7700 C   0  0  1  0  0  3  0  0  0  0  0  0
   36.8750   31.7740   39.4240 O   0  0  0  0  0  0  0  0  0  0  0  0
   37.2310   33.0460   39.0590 C   0  0  0  0  0  2  0  0  0  0  0  0
   38.2530   33.5700   40.0370 C   0  0  2  0  0  3  0  0  0  0  0  0
   39.3780   31.5410   39.9110 O   0  0  0  0  0  0  0  0  0  0  0  0
   40.1210   32.0560   39.5110 H   0  0  0  0  0  0  0  0  0  0  0  0
   39.3500   34.1610   39.4610 O   0  0  0  0  0  0  0  0  0  0  0  0
   39.3170   35.1310   39.6630 H   0  0  0  0  0  0  0  0  0  0  0  0
   37.0860   26.3850   42.8570 C   0  0  0  0  0  0  0  0  0  0  0  0
   36.2410   26.2320   43.5610 H   0  0  0  0  0  0  0  0  0  0  0  0
   37.0790   25.6570   42.0250 H   0  0  0  0  0  0  0  0  0  0  0  0
   37.9980   26.1780   43.4790 H   0  0  0  0  0  0  0  0  0  0  0  0
  1  2  1  0  0  0  0
  2  3  2  0  0  0  0
  2 18  1  0  0  0  0
  3  8  1  0  0  0  0
  4  3  1  0  0  0  0
  5  4  2  0  0  0  0
  6  5  1  0  0  0  0
  6  1  2  0  0  0  0
  7  1  1  0  0  0  0
  9 14  1  6  0  0  0
 10  9  1  0  0  0  0
 10  5  1  6  0  0  0
 11 10  1  0  0  0  0
 12 11  1  0  0  0  0
 12 13  1  0  0  0  0
 13 16  1  6  0  0  0
 13  9  1  0  0  0  0
 15 14  1  0  0  0  0
 16 17  1  0  0  0  0
 18 21  1  0  0  0  0
 18 19  1  0  0  0  0
 20 18  1  0  0  0  0
M  END
>  <minimizedAffinity>
-4.43263435

$$$$

 OpenBabel03252503423D

 21 22  0  0  1  0  0  0  0  0999 V2000
   36.0590   29.4810   36.9880 C   0  0  0  0  0  0  0  0  0  0  0  0
   35.0380   28.9330   37.7670 C   0  0  0  0  0  0  0  0  0  0  0  0
   35.0900   29.1600   39.1420 C   0  0  0  0  0  0  0  0  0  0  0  0
   36.1170   29.8890   39.6430 N   0  0  0  0  0  0  0  0  0  0  0  0
   37.0840   30.4010   38.8650 C   0  0  0  0  0  0  0  0  0  0  0  0
   37.0700   30.2040   37.5230 N   0  0  0  0  0  0  0  0  0  0  0  0
   36.1420   29.3820   35.9010 H   0  0  0  0  0  0  0  0  0  0  0  0
   34.2880   28.7230   39.7020 H   0  0  0  0  0  0  0  0  0  0  0  0
   37.7610   32.6380   39.7580 C   0  0  2  0  0  3  0  0  0  0  0  0
   38.1350   31.1680   39.5300 C   0  0  1  0  0  3  0  0  0  0  0  0
   38.3990   30.7730   40.8310 O   0  0  0  0  0  0  0  0  0  0  0  0
   39.1910   31.7550   41.3680 C   0  0  0  0  0  2  0  0  0  0  0  0
   38.9940   33.0280   40.5830 C   0  0  2  0  0  3  0  0  0  0  0  0
   36.6980   32.6750   40.6350 O   0  0  0  0  0  0  0  0  0  0  0  0
   36.6530   33.5030   41.1760 H   0  0  0  0  0  0  0  0  0  0  0  0
   38.7920   34.1500   41.3480 O   0  0  0  0  0  0  0  0  0  0  0  0
   39.5850   34.7370   41.2460 H   0  0  0  0  0  0  0  0  0  0  0  0
   34.0100   28.1700   37.0310 C   0  0  0  0  0  0  0  0  0  0  0  0
   33.3480   28.8110   36.4110 H   0  0  0  0  0  0  0  0  0  0  0  0
   34.4530   27.3380   36.4540 H   0  0  0  0  0  0  0  0  0  0  0  0
   33.3170   27.7220   37.7930 H   0  0  0  0  0  0  0  0  0  0  0  0
  1  6  2  0  0  0  0
  1  2  1  0  0  0  0
  2  3  2  0  0  0  0
  3  4  1  0  0  0  0
  3  8  1  0  0  0  0
  5  4  2  0  0  0  0
  6  5  1  0  0  0  0
  7  1  1  0  0  0  0
  9 13  1  0  0  0  0
  9 14  1  1  0  0  0
 10  5  1  1  0  0  0
 10  9  1  0  0  0  0
 10 11  1  0  0  0  0
 11 12  1  0  0  0  0
 13 16  1  1  0  0  0
 13 12  1  0  0  0  0
 14 15  1  0  0  0  0
 17 16  1  0  0  0  0
 18  2  1  0  0  0  0
 18 21  1  0  0  0  0
 19 18  1  0  0  0  0
 20 18  1  0  0  0  0
M  END
>  <minimizedAffinity>
-4.37088251

$$$$

 OpenBabel03252503423D

 21 22  0  0  1  0  0  0  0  0999 V2000
   38.2870   24.7900   39.5970 C   0  0  0  0  0  0  0  0  0  0  0  0
   37.8700   24.0710   40.7190 C   0  0  0  0  0  0  0  0  0  0  0  0
   37.4190   24.8020   41.8170 C   0  0  0  0  0  0  0  0  0  0  0  0
   37.4100   26.1550   41.7380 N   0  0  0  0  0  0  0  0  0  0  0  0
   37.8180   26.8160   40.6440 C   0  0  0  0  0  0  0  0  0  0  0  0
   38.2640   26.1420   39.5540 N   0  0  0  0  0  0  0  0  0  0  0  0
   38.6620   24.3450   38.6700 H   0  0  0  0  0  0  0  0  0  0  0  0
   37.1090   24.2120   42.6560 H   0  0  0  0  0  0  0  0  0  0  0  0
   36.3260   28.8230   40.6850 C   0  0  2  0  0  3  0  0  0  0  0  0
   37.7580   28.2750   40.6870 C   0  0  1  0  0  3  0  0  0  0  0  0
   38.2380   28.8350   41.8600 O   0  0  0  0  0  0  0  0  0  0  0  0
   37.8560   30.1520   41.8310 C   0  0  0  0  0  2  0  0  0  0  0  0
   36.6810   30.3010   40.8970 C   0  0  2  0  0  3  0  0  0  0  0  0
   35.7130   28.4170   41.8510 O   0  0  0  0  0  0  0  0  0  0  0  0
   34.9990   29.0270   42.1630 H   0  0  0  0  0  0  0  0  0  0  0  0
   35.6370   31.0360   41.3990 O   0  0  0  0  0  0  0  0  0  0  0  0
   35.5820   31.8820   40.8840 H   0  0  0  0  0  0  0  0  0  0  0  0
   37.9580   22.6010   40.6060 C   0  0  0  0  0  0  0  0  0  0  0  0
   37.2090   22.1680   39.9110 H   0  0  0  0  0  0  0  0  0  0  0  0
   38.9870   22.2690   40.3780 H   0  0  0  0  0  0  0  0  0  0  0  0
   37.6790   22.1720   41.6070 H   0  0  0  0  0  0  0  0  0  0  0  0
  1  2  1  0  0  0  0
  2  3  2  0  0  0  0
  3  8  1  0  0  0  0
  4  3  1  0  0  0  0
  5  4  2  0  0  0  0
  6  1  2  0  0  0  0
  6  5  1  0  0  0  0
  7  1  1  0  0  0  0
  9 10  1  0  0  0  0
  9 13  1  0  0  0  0
  9 14  1  1  0  0  0
 10  5  1  1  0  0  0
 10 11  1  0  0  0  0
 12 11  1  0  0  0  0
 13 16  1  1  0  0  0
 13 12  1  0  0  0  0
 14 15  1  0  0  0  0
 17 16  1  0  0  0  0
 18  2  1  0  0  0  0
 18 21  1  0  0  0  0
 19 18  1  0  0  0  0
 20 18  1  0  0  0  0
M  END
>  <minimizedAffinity>
-4.34464169

$$$$

 OpenBabel03252503423D

 21 22  0  0  1  0  0  0  0  0999 V2000
   39.4110   26.7290   42.8550 C   0  0  0  0  0  0  0  0  0  0  0  0
   38.9640   25.4290   42.6100 C   0  0  0  0  0  0  0  0  0  0  0  0
   37.7300   25.2850   41.9790 C   0  0  0  0  0  0  0  0  0  0  0  0
   37.0360   26.4000   41.6420 N   0  0  0  0  0  0  0  0  0  0  0  0
   37.4940   27.6360   41.8940 C   0  0  0  0  0  0  0  0  0  0  0  0
   38.6910   27.8200   42.5060 N   0  0  0  0  0  0  0  0  0  0  0  0
   40.3580   26.9870   43.3410 H   0  0  0  0  0  0  0  0  0  0  0  0
   37.4250   24.2710   41.8090 H   0  0  0  0  0  0  0  0  0  0  0  0
   37.3050   30.1230   41.7020 C   0  0  2  0  0  3  0  0  0  0  0  0
   36.6500   28.7540   41.4800 C   0  0  1  0  0  3  0  0  0  0  0  0
   36.4020   28.8140   40.1190 O   0  0  0  0  0  0  0  0  0  0  0  0
   35.8430   30.0450   39.8920 C   0  0  0  0  0  2  0  0  0  0  0  0
   36.2220   30.9710   41.0210 C   0  0  2  0  0  3  0  0  0  0  0  0
   38.4110   30.2040   40.8830 O   0  0  0  0  0  0  0  0  0  0  0  0
   38.6440   31.1270   40.6130 H   0  0  0  0  0  0  0  0  0  0  0  0
   36.6770   32.2040   40.6250 O   0  0  0  0  0  0  0  0  0  0  0  0
   36.0030   32.8800   40.8920 H   0  0  0  0  0  0  0  0  0  0  0  0
   39.8670   24.3470   43.0540 C   0  0  0  0  0  0  0  0  0  0  0  0
   40.7900   24.2670   42.4420 H   0  0  0  0  0  0  0  0  0  0  0  0
   40.0820   24.4130   44.1360 H   0  0  0  0  0  0  0  0  0  0  0  0
   39.3360   23.3740   42.8730 H   0  0  0  0  0  0  0  0  0  0  0  0
  1  7  1  0  0  0  0
  2  1  1  0  0  0  0
  2 18  1  0  0  0  0
  3  2  2  0  0  0  0
  4  5  2  0  0  0  0
  4  3  1  0  0  0  0
  5  6  1  0  0  0  0
  6  1  2  0  0  0  0
  8  3  1  0  0  0  0
  9 14  1  6  0  0  0
 10  9  1  0  0  0  0
 10  5  1  6  0  0  0
 11 10  1  0  0  0  0
 12 11  1  0  0  0  0
 12 13  1  0  0  0  0
 13 16  1  6  0  0  0
 13  9  1  0  0  0  0
 15 14  1  0  0  0  0
 16 17  1  0  0  0  0
 18 20  1  0  0  0  0
 19 18  1  0  0  0  0
 21 18  1  0  0  0  0
M  END
>  <minimizedAffinity>
-4.34436512

$$$$

 OpenBabel03252503423D

 21 22  0  0  1  0  0  0  0  0999 V2000
   37.5400   27.8930   41.0880 C   0  0  0  0  0  0  0  0  0  0  0  0
   37.4250   28.2320   42.4370 C   0  0  0  0  0  0  0  0  0  0  0  0
   38.0490   29.4050   42.8570 C   0  0  0  0  0  0  0  0  0  0  0  0
   38.7250   30.1460   41.9460 N   0  0  0  0  0  0  0  0  0  0  0  0
   38.8160   29.7920   40.6550 C   0  0  0  0  0  0  0  0  0  0  0  0
   38.2240   28.6580   40.2040 N   0  0  0  0  0  0  0  0  0  0  0  0
   37.1010   27.0040   40.6230 H   0  0  0  0  0  0  0  0  0  0  0  0
   37.9360   29.6270   43.9000 H   0  0  0  0  0  0  0  0  0  0  0  0
   39.0820   30.6550   38.3220 C   0  0  2  0  0  3  0  0  0  0  0  0
   39.5730   30.6780   39.7740 C   0  0  1  0  0  3  0  0  0  0  0  0
   39.4390   32.0270   40.0630 O   0  0  0  0  0  0  0  0  0  0  0  0
   39.9810   32.6940   38.9950 C   0  0  0  0  0  2  0  0  0  0  0  0
   39.9800   31.7820   37.7930 C   0  0  2  0  0  3  0  0  0  0  0  0
   37.7990   31.1590   38.2980 O   0  0  0  0  0  0  0  0  0  0  0  0
   37.5520   31.5880   37.4420 H   0  0  0  0  0  0  0  0  0  0  0  0
   39.5010   32.3510   36.6400 O   0  0  0  0  0  0  0  0  0  0  0  0
   40.2590   32.4460   36.0070 H   0  0  0  0  0  0  0  0  0  0  0  0
   36.6460   27.2920   43.2690 C   0  0  0  0  0  0  0  0  0  0  0  0
   35.5580   27.3150   43.0540 H   0  0  0  0  0  0  0  0  0  0  0  0
   37.0630   26.2690   43.2290 H   0  0  0  0  0  0  0  0  0  0  0  0
   36.7210   27.6470   44.3320 H   0  0  0  0  0  0  0  0  0  0  0  0
  1  2  1  0  0  0  0
  2  3  2  0  0  0  0
  2 18  1  0  0  0  0
  3  8  1  0  0  0  0
  4  3  1  0  0  0  0
  5  4  2  0  0  0  0
  6  5  1  0  0  0  0
  6  1  2  0  0  0  0
  7  1  1  0  0  0  0
  9 14  1  1  0  0  0
  9 10  1  0  0  0  0
 10 11  1  0  0  0  0
 10  5  1  1  0  0  0
 12 11  1  0  0  0  0
 13 16  1  6  0  0  0
 13  9  1  0  0  0  0
 13 12  1  0  0  0  0
 15 14  1  0  0  0  0
 17 16  1  0  0  0  0
 18 21  1  0  0  0  0
 19 18  1  0  0  0  0
 20 18  1  0  0  0  0
M  END
>  <minimizedAffinity>
-4.32538462

$$$$

 OpenBabel03252503423D

 21 22  0  0  1  0  0  0  0  0999 V2000
   39.3370   25.9920   41.4270 C   0  0  0  0  0  0  0  0  0  0  0  0
   39.4660   25.8690   42.8120 C   0  0  0  0  0  0  0  0  0  0  0  0
   39.3830   27.0370   43.5670 C   0  0  0  0  0  0  0  0  0  0  0  0
   39.1850   28.2150   42.9260 N   0  0  0  0  0  0  0  0  0  0  0  0
   39.0660   28.2980   41.5920 C   0  0  0  0  0  0  0  0  0  0  0  0
   39.1410   27.1850   40.8200 N   0  0  0  0  0  0  0  0  0  0  0  0
   39.3820   25.1600   40.7160 H   0  0  0  0  0  0  0  0  0  0  0  0
   39.4870   26.8990   44.6250 H   0  0  0  0  0  0  0  0  0  0  0  0
   37.3750   30.0130   40.9150 C   0  0  2  0  0  3  0  0  0  0  0  0
   38.8560   29.6280   41.0250 C   0  0  1  0  0  3  0  0  0  0  0  0
   39.3270   30.6680   41.8090 O   0  0  0  0  0  0  0  0  0  0  0  0
   38.8080   31.8140   41.2640 C   0  0  0  0  0  2  0  0  0  0  0  0
   37.5840   31.4620   40.4560 C   0  0  2  0  0  3  0  0  0  0  0  0
   36.8610   30.0960   42.1900 O   0  0  0  0  0  0  0  0  0  0  0  0
   36.1020   30.7250   42.2770 H   0  0  0  0  0  0  0  0  0  0  0  0
   36.4910   32.2590   40.6900 O   0  0  0  0  0  0  0  0  0  0  0  0
   36.3250   32.7990   39.8750 H   0  0  0  0  0  0  0  0  0  0  0  0
   39.6770   24.4970   43.3160 C   0  0  0  0  0  0  0  0  0  0  0  0
   38.7760   23.8550   43.2290 H   0  0  0  0  0  0  0  0  0  0  0  0
   40.5730   24.0300   42.8690 H   0  0  0  0  0  0  0  0  0  0  0  0
   39.8510   24.5720   44.4230 H   0  0  0  0  0  0  0  0  0  0  0  0
  1  2  1  0  0  0  0
  2 18  1  0  0  0  0
  2  3  2  0  0  0  0
  3  8  1  0  0  0  0
  4  3  1  0  0  0  0
  5  4  2  0  0  0  0
  6  1  2  0  0  0  0
  6  5  1  0  0  0  0
  7  1  1  0  0  0  0
  9 10  1  0  0  0  0
  9 14  1  1  0  0  0
 10  5  1  1  0  0  0
 10 11  1  0  0  0  0
 12 11  1  0  0  0  0
 13 16  1  1  0  0  0
 13  9  1  0  0  0  0
 13 12  1  0  0  0  0
 14 15  1  0  0  0  0
 17 16  1  0  0  0  0
 18 21  1  0  0  0  0
 19 18  1  0  0  0  0
 20 18  1  0  0  0  0
M  END
>  <minimizedAffinity>
-4.23317146

$$$$
