
 OpenBabel03252507073D

 24 25  0  0  1  0  0  0  0  0999 V2000
   44.6230   36.0480   44.5340 C   0  0  0  0  0  0  0  0  0  0  0  0
   45.2570   36.0630   43.2810 C   0  0  0  0  0  0  0  0  0  0  0  0
   46.0590   34.9760   42.9620 C   0  0  0  0  0  0  0  0  0  0  0  0
   46.2010   33.9490   43.8590 N   0  0  0  0  0  0  0  0  0  0  0  0
   45.5750   33.9720   45.0570 C   0  0  0  0  0  0  0  0  0  0  0  0
   44.7930   35.0160   45.3850 N   0  0  0  0  0  0  0  0  0  0  0  0
   43.9950   36.8940   44.7920 H   0  0  0  0  0  0  0  0  0  0  0  0
   45.0810   36.9140   42.6480 H   0  0  0  0  0  0  0  0  0  0  0  0
   46.4890   31.6740   45.2240 C   0  0  2  0  0  3  0  0  0  0  0  0
   45.7860   32.8170   45.9680 C   0  0  1  0  0  3  0  0  0  0  0  0
   46.6390   33.1240   47.0170 O   0  0  0  0  0  0  0  0  0  0  0  0
   47.3110   31.9880   47.3790 C   0  0  0  0  0  2  0  0  0  0  0  0
   47.0080   30.8870   46.4070 C   0  0  2  0  0  3  0  0  0  0  0  0
   47.5460   32.2700   44.5300 O   0  0  0  0  0  0  0  0  0  0  0  0
   47.7830   33.1740   44.9040 H   0  0  0  0  0  0  0  0  0  0  0  0
   48.1470   30.1850   46.0220 O   0  0  0  0  0  0  0  0  0  0  0  0
   48.6470   30.6590   45.3060 H   0  0  0  0  0  0  0  0  0  0  0  0
   46.6860   34.9960   41.7150 O   0  0  0  0  0  0  0  0  0  0  0  0
   48.5780   33.3170   40.9330 O   0  0  0  0  0  0  0  0  0  0  0  0
   48.3690   34.6650   41.6140 P   0  0  0  0  0  0  0  0  0  0  0  0
   49.1040   35.9080   40.7770 O   0  0  0  0  0  0  0  0  0  0  0  0
   48.7490   35.9300   39.8730 H   0  0  0  0  0  0  0  0  0  0  0  0
   48.9510   34.5440   43.2030 O   0  0  0  0  0  0  0  0  0  0  0  0
   48.6540   33.6720   43.5640 H   0  0  0  0  0  0  0  0  0  0  0  0
  1  7  1  0  0  0  0
  1  6  1  0  0  0  0
  2  1  2  0  0  0  0
  3  2  1  0  0  0  0
  3  4  2  0  0  0  0
  4  5  1  0  0  0  0
  5  6  2  0  0  0  0
  8  2  1  0  0  0  0
  9 14  1  6  0  0  0
  9 10  1  0  0  0  0
  9 13  1  0  0  0  0
 10  5  1  6  0  0  0
 10 11  1  0  0  0  0
 11 12  1  0  0  0  0
 13 16  1  6  0  0  0
 13 12  1  0  0  0  0
 14 15  1  0  0  0  0
 17 16  1  0  0  0  0
 18  3  1  0  0  0  0
 19 20  2  0  0  0  0
 20 18  1  0  0  0  0
 20 23  1  0  0  0  0
 21 20  1  0  0  0  0
 22 21  1  0  0  0  0
 23 24  1  0  0  0  0
M  END
>  <minimizedAffinity>
-5.44681168

>  <minimizedRMSD>
0.40768984

$$$$
