
 OpenBabel03252504363D

 42 44  0  0  1  0  0  0  0  0999 V2000
   39.1110   33.1660   40.7690 C   0  0  0  0  0  0  0  0  0  0  0  0
   39.0640   34.2130   41.2330 H   0  0  0  0  0  0  0  0  0  0  0  0
   38.1360   33.0050   40.3380 H   0  0  0  0  0  0  0  0  0  0  0  0
   40.9260   34.4840   39.7340 C   0  0  0  0  0  0  0  0  0  0  0  0
   40.0920   33.3720   39.6310 C   0  0  0  0  0  0  0  0  0  0  0  0
   40.2040   32.5630   38.5330 C   0  0  0  0  0  0  0  0  0  0  0  0
   41.1220   32.9170   37.6370 N   0  0  0  0  0  0  0  0  0  0  0  0
   41.9100   33.9700   37.7350 C   0  0  0  0  0  0  0  0  0  0  0  0
   41.8400   34.8200   38.8210 N   0  0  0  0  0  0  0  0  0  0  0  0
   42.8460   34.2370   36.6990 N   0  0  0  0  0  0  0  0  0  0  0  0
   40.8690   35.1490   40.5860 H   0  0  0  0  0  0  0  0  0  0  0  0
   43.7410   33.7190   36.5710 H   0  0  0  0  0  0  0  0  0  0  0  0
   42.4750   35.0190   36.1160 H   0  0  0  0  0  0  0  0  0  0  0  0
   38.1660   31.7020   37.5590 C   0  0  2  0  0  3  0  0  0  0  0  0
   39.3300   31.4000   38.4310 C   0  0  1  0  0  3  0  0  0  0  0  0
   39.9980   30.4290   37.6330 O   0  0  0  0  0  0  0  0  0  0  0  0
   38.9740   29.5070   37.3130 C   0  0  0  0  0  2  0  0  0  0  0  0
   37.7070   30.3200   37.1480 C   0  0  1  0  0  3  0  0  0  0  0  0
   38.6990   32.2820   36.3830 O   0  0  0  0  0  0  0  0  0  0  0  0
   38.2330   31.9430   35.5840 H   0  0  0  0  0  0  0  0  0  0  0  0
   36.7070   29.9260   38.0220 O   0  0  0  0  0  0  0  0  0  0  0  0
   36.1440   30.7150   38.2230 H   0  0  0  0  0  0  0  0  0  0  0  0
   39.6050   32.3810   41.7550 O   0  0  0  0  0  0  0  0  0  0  0  0
   39.2670   31.1000   42.1270 C   0  0  0  0  0  3  0  0  0  0  0  0
   40.1390   30.1500   41.7590 C   0  0  0  0  0  3  0  0  0  0  0  0
   39.9470   28.6800   42.0710 C   0  0  0  0  0  0  0  0  0  0  0  0
   40.1980   28.5320   43.1400 H   0  0  0  0  0  0  0  0  0  0  0  0
   40.6340   28.0730   41.4420 H   0  0  0  0  0  0  0  0  0  0  0  0
   38.6190   28.3800   41.8570 O   0  0  0  0  0  0  0  0  0  0  0  0
   39.0230   27.0340   44.1280 O   0  0  0  0  0  0  0  0  0  0  0  0
   37.9650   27.6160   43.2040 P   0  0  1  0  0  0  0  0  0  0  0  0
   37.0950   28.7510   44.1400 O   0  0  0  0  0  0  0  0  0  0  0  0
   37.0270   29.5930   43.6390 H   0  0  0  0  0  0  0  0  0  0  0  0
   36.8770   26.4230   42.7580 O   0  0  0  0  0  0  0  0  0  0  0  0
   37.4990   25.3680   42.0940 C   0  0  0  0  0  0  0  0  0  0  0  0
   37.2310   25.2680   40.6100 C   0  0  0  0  0  0  0  0  0  0  0  0
   36.6060   24.2810   41.5800 C   0  0  0  0  0  0  0  0  0  0  0  0
   38.5270   25.0990   42.3880 H   0  0  0  0  0  0  0  0  0  0  0  0
   36.5960   26.0530   40.1580 H   0  0  0  0  0  0  0  0  0  0  0  0
   38.0410   24.9080   39.9560 H   0  0  0  0  0  0  0  0  0  0  0  0
   36.9830   23.2470   41.4980 H   0  0  0  0  0  0  0  0  0  0  0  0
   35.5100   24.3810   41.6890 H   0  0  0  0  0  0  0  0  0  0  0  0
  1  2  1  0  0  0  0
  1 23  1  0  0  0  0
  3  1  1  0  0  0  0
  4 11  1  0  0  0  0
  5  4  1  0  0  0  0
  5  1  1  0  0  0  0
  6  5  2  0  0  0  0
  7  8  2  0  0  0  0
  7  6  1  0  0  0  0
  8  9  1  0  0  0  0
  9  4  2  0  0  0  0
 10  8  1  0  0  0  0
 12 10  1  0  0  0  0
 13 10  1  0  0  0  0
 14 19  1  6  0  0  0
 14 15  1  0  0  0  0
 15  6  1  6  0  0  0
 16 15  1  0  0  0  0
 17 16  1  0  0  0  0
 18 17  1  0  0  0  0
 18 14  1  0  0  0  0
 18 21  1  1  0  0  0
 20 19  1  0  0  0  0
 21 22  1  0  0  0  0
 23 24  1  0  0  0  0
 25 26  1  0  0  0  0
 25 24  2  0  0  0  0
 26 27  1  0  0  0  0
 28 26  1  0  0  0  0
 29 26  1  0  0  0  0
 29 31  1  0  0  0  0
 31 30  2  1  0  0  0
 31 32  1  0  0  0  0
 33 32  1  0  0  0  0
 34 31  1  0  0  0  0
 35 38  1  0  0  0  0
 35 34  1  0  0  0  0
 36 37  1  0  0  0  0
 36 35  1  0  0  0  0
 37 42  1  0  0  0  0
 37 35  1  0  0  0  0
 39 36  1  0  0  0  0
 40 36  1  0  0  0  0
 41 37  1  0  0  0  0
M  END
>  <minimizedAffinity>
-6.04402828

$$$$

 OpenBabel03252504363D

 42 44  0  0  1  0  0  0  0  0999 V2000
   37.8400   30.8200   37.4160 C   0  0  0  0  0  0  0  0  0  0  0  0
   37.1120   31.4140   36.7590 H   0  0  0  0  0  0  0  0  0  0  0  0
   38.7070   30.6540   36.7980 H   0  0  0  0  0  0  0  0  0  0  0  0
   37.1570   32.5530   39.0400 C   0  0  0  0  0  0  0  0  0  0  0  0
   38.2140   31.8440   38.4720 C   0  0  0  0  0  0  0  0  0  0  0  0
   39.4890   32.1180   38.8850 C   0  0  0  0  0  0  0  0  0  0  0  0
   39.6120   33.0590   39.8180 N   0  0  0  0  0  0  0  0  0  0  0  0
   38.6120   33.7290   40.3550 C   0  0  0  0  0  0  0  0  0  0  0  0
   37.3050   33.4940   39.9750 N   0  0  0  0  0  0  0  0  0  0  0  0
   38.8850   34.7160   41.3410 N   0  0  0  0  0  0  0  0  0  0  0  0
   36.1340   32.3670   38.7410 H   0  0  0  0  0  0  0  0  0  0  0  0
   39.1270   34.5030   42.3310 H   0  0  0  0  0  0  0  0  0  0  0  0
   38.8020   35.6560   40.8940 H   0  0  0  0  0  0  0  0  0  0  0  0
   41.0750   32.0570   37.0610 C   0  0  2  0  0  3  0  0  0  0  0  0
   40.5910   31.3720   38.2880 C   0  0  1  0  0  3  0  0  0  0  0  0
   41.7260   31.5340   39.1310 O   0  0  0  0  0  0  0  0  0  0  0  0
   42.7980   31.0800   38.3280 C   0  0  0  0  0  2  0  0  0  0  0  0
   42.4700   31.4920   36.9080 C   0  0  1  0  0  3  0  0  0  0  0  0
   41.2610   33.4140   37.4190 O   0  0  0  0  0  0  0  0  0  0  0  0
   42.0860   33.7720   37.0180 H   0  0  0  0  0  0  0  0  0  0  0  0
   42.3990   30.4110   36.0450 O   0  0  0  0  0  0  0  0  0  0  0  0
   41.7540   30.6310   35.3280 H   0  0  0  0  0  0  0  0  0  0  0  0
   37.0970   29.8030   37.9100 O   0  0  0  0  0  0  0  0  0  0  0  0
   37.4650   28.7220   38.6790 C   0  0  0  0  0  3  0  0  0  0  0  0
   36.9290   28.6870   39.9070 C   0  0  0  0  0  3  0  0  0  0  0  0
   37.2120   27.5830   40.9050 C   0  0  0  0  0  0  0  0  0  0  0  0
   38.3030   27.5840   41.1000 H   0  0  0  0  0  0  0  0  0  0  0  0
   36.9150   26.6030   40.4710 H   0  0  0  0  0  0  0  0  0  0  0  0
   36.5300   27.8840   42.0640 O   0  0  0  0  0  0  0  0  0  0  0  0
   38.5120   29.4970   42.8400 O   0  0  0  0  0  0  0  0  0  0  0  0
   37.6010   28.3580   43.2700 P   0  0  1  0  0  0  0  0  0  0  0  0
   36.7240   28.9410   44.6170 O   0  0  0  0  0  0  0  0  0  0  0  0
   35.7700   28.7540   44.4810 H   0  0  0  0  0  0  0  0  0  0  0  0
   38.5180   27.0670   43.8130 O   0  0  0  0  0  0  0  0  0  0  0  0
   39.8780   27.2570   43.5840 C   0  0  0  0  0  0  0  0  0  0  0  0
   40.4690   26.4970   42.4180 C   0  0  0  0  0  0  0  0  0  0  0  0
   40.7720   26.0850   43.8480 C   0  0  0  0  0  0  0  0  0  0  0  0
   40.2950   28.2680   43.7240 H   0  0  0  0  0  0  0  0  0  0  0  0
   39.7760   25.8790   41.8160 H   0  0  0  0  0  0  0  0  0  0  0  0
   41.2720   26.9760   41.8360 H   0  0  0  0  0  0  0  0  0  0  0  0
   41.8170   26.2440   44.1650 H   0  0  0  0  0  0  0  0  0  0  0  0
   40.3270   25.1180   44.1480 H   0  0  0  0  0  0  0  0  0  0  0  0
  1 23  1  0  0  0  0
  1  5  1  0  0  0  0
  2  1  1  0  0  0  0
  3  1  1  0  0  0  0
  4  9  1  0  0  0  0
  5  6  1  0  0  0  0
  5  4  2  0  0  0  0
  6  7  2  0  0  0  0
  7  8  1  0  0  0  0
  8 10  1  0  0  0  0
  9  8  2  0  0  0  0
 10 12  1  0  0  0  0
 11  4  1  0  0  0  0
 13 10  1  0  0  0  0
 14 19  1  1  0  0  0
 14 15  1  0  0  0  0
 15  6  1  1  0  0  0
 15 16  1  0  0  0  0
 17 16  1  0  0  0  0
 18 21  1  6  0  0  0
 18 14  1  0  0  0  0
 18 17  1  0  0  0  0
 20 19  1  0  0  0  0
 22 21  1  0  0  0  0
 23 24  1  0  0  0  0
 24 25  2  0  0  0  0
 25 26  1  0  0  0  0
 26 27  1  0  0  0  0
 26 29  1  0  0  0  0
 28 26  1  0  0  0  0
 29 31  1  0  0  0  0
 31 30  2  6  0  0  0
 31 34  1  0  0  0  0
 31 32  1  0  0  0  0
 33 32  1  0  0  0  0
 35 38  1  0  0  0  0
 35 34  1  0  0  0  0
 35 37  1  0  0  0  0
 36 35  1  0  0  0  0
 36 37  1  0  0  0  0
 37 42  1  0  0  0  0
 37 41  1  0  0  0  0
 39 36  1  0  0  0  0
 40 36  1  0  0  0  0
M  END
>  <minimizedAffinity>
-5.94561005

$$$$

 OpenBabel03252504363D

 42 44  0  0  1  0  0  0  0  0999 V2000
   41.1810   32.1230   37.1150 C   0  0  0  0  0  0  0  0  0  0  0  0
   40.1940   32.3440   37.6540 H   0  0  0  0  0  0  0  0  0  0  0  0
   41.1100   32.6420   36.1730 H   0  0  0  0  0  0  0  0  0  0  0  0
   43.5270   32.6630   37.6700 C   0  0  0  0  0  0  0  0  0  0  0  0
   42.1830   32.8670   37.9770 C   0  0  0  0  0  0  0  0  0  0  0  0
   41.8630   33.6970   39.0170 C   0  0  0  0  0  0  0  0  0  0  0  0
   42.8880   34.2520   39.6590 N   0  0  0  0  0  0  0  0  0  0  0  0
   44.1590   34.0580   39.3680 C   0  0  0  0  0  0  0  0  0  0  0  0
   44.5390   33.2310   38.3290 N   0  0  0  0  0  0  0  0  0  0  0  0
   45.1570   34.7100   40.1410 N   0  0  0  0  0  0  0  0  0  0  0  0
   43.8220   32.0140   36.8550 H   0  0  0  0  0  0  0  0  0  0  0  0
   45.4050   35.7170   40.0480 H   0  0  0  0  0  0  0  0  0  0  0  0
   45.5730   34.0110   40.7960 H   0  0  0  0  0  0  0  0  0  0  0  0
   40.0410   33.0340   40.4620 C   0  0  2  0  0  3  0  0  0  0  0  0
   40.4550   33.9080   39.3330 C   0  0  1  0  0  3  0  0  0  0  0  0
   40.3390   35.1850   39.9490 O   0  0  0  0  0  0  0  0  0  0  0  0
   39.0420   35.1620   40.5120 C   0  0  0  0  0  2  0  0  0  0  0  0
   38.8070   33.7400   40.9780 C   0  0  1  0  0  3  0  0  0  0  0  0
   41.0190   33.2100   41.4700 O   0  0  0  0  0  0  0  0  0  0  0  0
   40.6000   33.2560   42.3600 H   0  0  0  0  0  0  0  0  0  0  0  0
   37.7020   33.1610   40.3760 O   0  0  0  0  0  0  0  0  0  0  0  0
   37.8600   32.1860   40.3160 H   0  0  0  0  0  0  0  0  0  0  0  0
   41.3140   30.7790   37.1920 O   0  0  0  0  0  0  0  0  0  0  0  0
   40.5290   29.8400   37.8210 C   0  0  0  0  0  3  0  0  0  0  0  0
   39.3960   30.3110   38.3600 C   0  0  0  0  0  3  0  0  0  0  0  0
   38.4000   29.4380   39.0970 C   0  0  0  0  0  0  0  0  0  0  0  0
   38.8880   29.0970   40.0310 H   0  0  0  0  0  0  0  0  0  0  0  0
   38.1430   28.5560   38.4700 H   0  0  0  0  0  0  0  0  0  0  0  0
   37.3060   30.2190   39.3980 O   0  0  0  0  0  0  0  0  0  0  0  0
   38.0210   30.4180   41.9640 O   0  0  0  0  0  0  0  0  0  0  0  0
   36.8900   30.0470   41.0180 P   0  0  1  0  0  0  0  0  0  0  0  0
   35.5980   31.1030   41.3930 O   0  0  0  0  0  0  0  0  0  0  0  0
   35.2580   31.4980   40.5600 H   0  0  0  0  0  0  0  0  0  0  0  0
   36.3560   28.4950   41.3480 O   0  0  0  0  0  0  0  0  0  0  0  0
   37.1800   27.8390   42.2600 C   0  0  0  0  0  0  0  0  0  0  0  0
   36.8930   26.3710   42.4780 C   0  0  0  0  0  0  0  0  0  0  0  0
   36.5430   27.3980   43.5410 C   0  0  0  0  0  0  0  0  0  0  0  0
   38.2510   28.1000   42.2760 H   0  0  0  0  0  0  0  0  0  0  0  0
   36.0810   25.9210   41.8780 H   0  0  0  0  0  0  0  0  0  0  0  0
   37.7420   25.6970   42.6700 H   0  0  0  0  0  0  0  0  0  0  0  0
   37.1430   27.3330   44.4660 H   0  0  0  0  0  0  0  0  0  0  0  0
   35.4570   27.5490   43.6890 H   0  0  0  0  0  0  0  0  0  0  0  0
  1 23  1  0  0  0  0
  1  2  1  0  0  0  0
  1  5  1  0  0  0  0
  3  1  1  0  0  0  0
  4  5  2  0  0  0  0
  4  9  1  0  0  0  0
  5  6  1  0  0  0  0
  6  7  2  0  0  0  0
  8  7  1  0  0  0  0
  8 10  1  0  0  0  0
  9  8  2  0  0  0  0
 10 13  1  0  0  0  0
 11  4  1  0  0  0  0
 12 10  1  0  0  0  0
 14 18  1  0  0  0  0
 14 19  1  1  0  0  0
 15  6  1  1  0  0  0
 15 16  1  0  0  0  0
 15 14  1  0  0  0  0
 16 17  1  0  0  0  0
 17 18  1  0  0  0  0
 18 21  1  6  0  0  0
 19 20  1  0  0  0  0
 22 21  1  0  0  0  0
 23 24  1  0  0  0  0
 24 25  2  0  0  0  0
 25 26  1  0  0  0  0
 26 29  1  0  0  0  0
 26 27  1  0  0  0  0
 28 26  1  0  0  0  0
 29 31  1  0  0  0  0
 31 34  1  0  0  0  0
 31 32  1  0  0  0  0
 31 30  2  1  0  0  0
 33 32  1  0  0  0  0
 34 35  1  0  0  0  0
 35 38  1  0  0  0  0
 35 36  1  0  0  0  0
 35 37  1  0  0  0  0
 36 40  1  0  0  0  0
 36 37  1  0  0  0  0
 37 42  1  0  0  0  0
 37 41  1  0  0  0  0
 39 36  1  0  0  0  0
M  END
>  <minimizedAffinity>
-5.88975191

$$$$

 OpenBabel03252504363D

 42 44  0  0  1  0  0  0  0  0999 V2000
   41.3610   31.8490   41.5880 C   0  0  0  0  0  0  0  0  0  0  0  0
   42.0250   32.4550   42.3000 H   0  0  0  0  0  0  0  0  0  0  0  0
   40.3500   32.0790   41.8810 H   0  0  0  0  0  0  0  0  0  0  0  0
   42.9160   33.0170   40.0640 C   0  0  0  0  0  0  0  0  0  0  0  0
   41.6240   32.5320   40.2590 C   0  0  0  0  0  0  0  0  0  0  0  0
   40.6980   32.7060   39.2670 C   0  0  0  0  0  0  0  0  0  0  0  0
   41.1220   33.3380   38.1760 N   0  0  0  0  0  0  0  0  0  0  0  0
   42.3440   33.7970   37.9920 C   0  0  0  0  0  0  0  0  0  0  0  0
   43.3180   33.6500   38.9600 N   0  0  0  0  0  0  0  0  0  0  0  0
   42.6620   34.4620   36.7770 N   0  0  0  0  0  0  0  0  0  0  0  0
   43.6780   32.9000   40.8240 H   0  0  0  0  0  0  0  0  0  0  0  0
   42.8290   33.9770   35.8710 H   0  0  0  0  0  0  0  0  0  0  0  0
   42.6910   35.4890   36.9640 H   0  0  0  0  0  0  0  0  0  0  0  0
   38.4930   33.2330   40.1070 C   0  0  2  0  0  3  0  0  0  0  0  0
   39.3480   32.1940   39.4760 C   0  0  1  0  0  3  0  0  0  0  0  0
   38.7240   32.0950   38.2010 O   0  0  0  0  0  0  0  0  0  0  0  0
   37.3560   31.9250   38.5180 C   0  0  0  0  0  2  0  0  0  0  0  0
   37.1000   32.7560   39.7570 C   0  0  1  0  0  3  0  0  0  0  0  0
   38.6850   34.4110   39.3480 O   0  0  0  0  0  0  0  0  0  0  0  0
   37.8320   34.8840   39.2150 H   0  0  0  0  0  0  0  0  0  0  0  0
   36.6300   31.9970   40.8160 O   0  0  0  0  0  0  0  0  0  0  0  0
   36.9290   32.4250   41.6580 H   0  0  0  0  0  0  0  0  0  0  0  0
   41.8630   30.5940   41.6440 O   0  0  0  0  0  0  0  0  0  0  0  0
   41.2310   29.3760   41.5400 C   0  0  0  0  0  3  0  0  0  0  0  0
   40.7020   28.9080   42.6800 C   0  0  0  0  0  3  0  0  0  0  0  0
   39.9690   27.5850   42.7740 C   0  0  0  0  0  0  0  0  0  0  0  0
   40.6690   26.8500   43.2180 H   0  0  0  0  0  0  0  0  0  0  0  0
   39.6780   27.2490   41.7540 H   0  0  0  0  0  0  0  0  0  0  0  0
   38.8880   27.7670   43.6070 O   0  0  0  0  0  0  0  0  0  0  0  0
   36.2900   27.2980   43.2020 O   0  0  0  0  0  0  0  0  0  0  0  0
   37.5000   28.0770   42.7100 P   0  0  1  0  0  0  0  0  0  0  0  0
   37.0850   29.7290   42.8500 O   0  0  0  0  0  0  0  0  0  0  0  0
   37.8130   30.2030   43.3080 H   0  0  0  0  0  0  0  0  0  0  0  0
   37.7480   27.7780   41.0820 O   0  0  0  0  0  0  0  0  0  0  0  0
   36.5870   27.3450   40.4450 C   0  0  0  0  0  0  0  0  0  0  0  0
   36.6290   27.3150   38.9340 C   0  0  0  0  0  0  0  0  0  0  0  0
   35.8250   28.3740   39.6690 C   0  0  0  0  0  0  0  0  0  0  0  0
   36.0220   26.5150   40.8990 H   0  0  0  0  0  0  0  0  0  0  0  0
   37.5810   27.6030   38.4510 H   0  0  0  0  0  0  0  0  0  0  0  0
   36.0790   26.5170   38.4120 H   0  0  0  0  0  0  0  0  0  0  0  0
   34.7300   28.2860   39.5570 H   0  0  0  0  0  0  0  0  0  0  0  0
   36.2320   29.3990   39.5790 H   0  0  0  0  0  0  0  0  0  0  0  0
  1 23  1  0  0  0  0
  1  3  1  0  0  0  0
  1  2  1  0  0  0  0
  4  5  1  0  0  0  0
  4 11  1  0  0  0  0
  5  1  1  0  0  0  0
  6  5  2  0  0  0  0
  7  6  1  0  0  0  0
  8  7  2  0  0  0  0
  8  9  1  0  0  0  0
  9  4  2  0  0  0  0
 10 13  1  0  0  0  0
 10  8  1  0  0  0  0
 12 10  1  0  0  0  0
 14 19  1  6  0  0  0
 15  6  1  6  0  0  0
 15 14  1  0  0  0  0
 16 17  1  0  0  0  0
 16 15  1  0  0  0  0
 17 18  1  0  0  0  0
 18 14  1  0  0  0  0
 18 21  1  1  0  0  0
 20 19  1  0  0  0  0
 21 22  1  0  0  0  0
 24 23  1  0  0  0  0
 24 25  2  0  0  0  0
 25 26  1  0  0  0  0
 26 27  1  0  0  0  0
 26 29  1  0  0  0  0
 28 26  1  0  0  0  0
 31 32  1  0  0  0  0
 31 30  2  1  0  0  0
 31 29  1  0  0  0  0
 32 33  1  0  0  0  0
 34 31  1  0  0  0  0
 35 38  1  0  0  0  0
 35 34  1  0  0  0  0
 36 37  1  0  0  0  0
 36 35  1  0  0  0  0
 37 35  1  0  0  0  0
 39 36  1  0  0  0  0
 40 36  1  0  0  0  0
 41 37  1  0  0  0  0
 42 37  1  0  0  0  0
M  END
>  <minimizedAffinity>
-5.83242702

$$$$

 OpenBabel03252504363D

 42 44  0  0  1  0  0  0  0  0999 V2000
   41.3450   31.6620   41.5250 C   0  0  0  0  0  0  0  0  0  0  0  0
   41.9570   32.2720   42.2780 H   0  0  0  0  0  0  0  0  0  0  0  0
   40.3150   31.8440   41.7850 H   0  0  0  0  0  0  0  0  0  0  0  0
   42.9410   32.8280   40.0420 C   0  0  0  0  0  0  0  0  0  0  0  0
   41.6300   32.3920   40.2250 C   0  0  0  0  0  0  0  0  0  0  0  0
   40.7060   32.6510   39.2500 C   0  0  0  0  0  0  0  0  0  0  0  0
   41.1510   33.3130   38.1850 N   0  0  0  0  0  0  0  0  0  0  0  0
   42.3910   33.7260   38.0120 C   0  0  0  0  0  0  0  0  0  0  0  0
   43.3640   33.4910   38.9640 N   0  0  0  0  0  0  0  0  0  0  0  0
   42.7310   34.4300   36.8250 N   0  0  0  0  0  0  0  0  0  0  0  0
   43.7020   32.6430   40.7890 H   0  0  0  0  0  0  0  0  0  0  0  0
   42.8710   33.9790   35.8970 H   0  0  0  0  0  0  0  0  0  0  0  0
   42.8070   35.4450   37.0580 H   0  0  0  0  0  0  0  0  0  0  0  0
   38.5210   33.2530   40.0930 C   0  0  2  0  0  3  0  0  0  0  0  0
   39.3360   32.1910   39.4470 C   0  0  1  0  0  3  0  0  0  0  0  0
   38.7130   32.1390   38.1690 O   0  0  0  0  0  0  0  0  0  0  0  0
   37.3380   32.0180   38.4790 C   0  0  0  0  0  2  0  0  0  0  0  0
   37.1120   32.8390   39.7310 C   0  0  1  0  0  3  0  0  0  0  0  0
   38.7630   34.4350   39.3540 O   0  0  0  0  0  0  0  0  0  0  0  0
   37.9300   34.9440   39.2270 H   0  0  0  0  0  0  0  0  0  0  0  0
   36.6090   32.0820   40.7770 O   0  0  0  0  0  0  0  0  0  0  0  0
   36.9220   32.4830   41.6260 H   0  0  0  0  0  0  0  0  0  0  0  0
   41.8940   30.4260   41.5660 O   0  0  0  0  0  0  0  0  0  0  0  0
   41.7140   29.4000   42.4650 C   0  0  0  0  0  3  0  0  0  0  0  0
   41.8950   28.1680   41.9690 C   0  0  0  0  0  3  0  0  0  0  0  0
   41.7400   26.9080   42.7970 C   0  0  0  0  0  0  0  0  0  0  0  0
   41.0110   27.1290   43.6020 H   0  0  0  0  0  0  0  0  0  0  0  0
   42.7200   26.6370   43.2490 H   0  0  0  0  0  0  0  0  0  0  0  0
   41.2410   25.9260   41.9700 O   0  0  0  0  0  0  0  0  0  0  0  0
   38.7340   25.2560   41.3370 O   0  0  0  0  0  0  0  0  0  0  0  0
   39.7140   25.4450   42.4840 P   0  0  1  0  0  0  0  0  0  0  0  0
   39.8240   23.9280   43.2640 O   0  0  0  0  0  0  0  0  0  0  0  0
   40.7710   23.7000   43.3860 H   0  0  0  0  0  0  0  0  0  0  0  0
   39.0820   26.5180   43.6030 O   0  0  0  0  0  0  0  0  0  0  0  0
   38.0760   27.3130   43.0570 C   0  0  0  0  0  0  0  0  0  0  0  0
   38.1300   28.7840   43.4040 C   0  0  0  0  0  0  0  0  0  0  0  0
   37.0750   27.8790   44.0170 C   0  0  0  0  0  0  0  0  0  0  0  0
   37.7450   27.1020   42.0270 H   0  0  0  0  0  0  0  0  0  0  0  0
   38.9760   29.1240   44.0300 H   0  0  0  0  0  0  0  0  0  0  0  0
   37.8090   29.5120   42.6420 H   0  0  0  0  0  0  0  0  0  0  0  0
   36.0420   28.0800   43.6850 H   0  0  0  0  0  0  0  0  0  0  0  0
   37.2010   27.7020   45.1010 H   0  0  0  0  0  0  0  0  0  0  0  0
  1 23  1  0  0  0  0
  1  3  1  0  0  0  0
  1  2  1  0  0  0  0
  4  5  1  0  0  0  0
  4 11  1  0  0  0  0
  5  1  1  0  0  0  0
  6  5  2  0  0  0  0
  7  6  1  0  0  0  0
  8  7  2  0  0  0  0
  8  9  1  0  0  0  0
  9  4  2  0  0  0  0
 10 13  1  0  0  0  0
 10  8  1  0  0  0  0
 12 10  1  0  0  0  0
 14 19  1  6  0  0  0
 15  6  1  6  0  0  0
 15 14  1  0  0  0  0
 16 17  1  0  0  0  0
 16 15  1  0  0  0  0
 17 18  1  0  0  0  0
 18 14  1  0  0  0  0
 18 21  1  1  0  0  0
 20 19  1  0  0  0  0
 21 22  1  0  0  0  0
 23 24  1  0  0  0  0
 25 24  2  0  0  0  0
 25 26  1  0  0  0  0
 26 28  1  0  0  0  0
 26 27  1  0  0  0  0
 29 31  1  0  0  0  0
 29 26  1  0  0  0  0
 31 30  2  6  0  0  0
 31 32  1  0  0  0  0
 31 34  1  0  0  0  0
 32 33  1  0  0  0  0
 35 36  1  0  0  0  0
 35 34  1  0  0  0  0
 35 37  1  0  0  0  0
 36 37  1  0  0  0  0
 36 39  1  0  0  0  0
 37 42  1  0  0  0  0
 38 35  1  0  0  0  0
 40 36  1  0  0  0  0
 41 37  1  0  0  0  0
M  END
>  <minimizedAffinity>
-5.81867123

$$$$

 OpenBabel03252504363D

 42 44  0  0  1  0  0  0  0  0999 V2000
   36.8270   30.1460   41.3980 C   0  0  0  0  0  0  0  0  0  0  0  0
   37.8850   30.4600   41.7060 H   0  0  0  0  0  0  0  0  0  0  0  0
   36.1860   30.9440   41.7350 H   0  0  0  0  0  0  0  0  0  0  0  0
   36.6990   29.0290   39.1980 C   0  0  0  0  0  0  0  0  0  0  0  0
   36.9050   30.2240   39.8850 C   0  0  0  0  0  0  0  0  0  0  0  0
   37.1670   31.3600   39.1690 C   0  0  0  0  0  0  0  0  0  0  0  0
   37.2020   31.2220   37.8460 N   0  0  0  0  0  0  0  0  0  0  0  0
   37.0080   30.0920   37.1960 C   0  0  0  0  0  0  0  0  0  0  0  0
   36.7410   28.9150   37.8690 N   0  0  0  0  0  0  0  0  0  0  0  0
   37.0800   30.0830   35.7770 N   0  0  0  0  0  0  0  0  0  0  0  0
   36.4900   28.1090   39.7270 H   0  0  0  0  0  0  0  0  0  0  0  0
   36.3300   30.4420   35.1510 H   0  0  0  0  0  0  0  0  0  0  0  0
   37.9970   29.6670   35.4980 H   0  0  0  0  0  0  0  0  0  0  0  0
   38.8340   32.8820   40.0370 C   0  0  2  0  0  3  0  0  0  0  0  0
   37.3800   32.6080   39.8930 C   0  0  1  0  0  3  0  0  0  0  0  0
   37.0070   33.6760   39.0290 O   0  0  0  0  0  0  0  0  0  0  0  0
   37.5500   34.8170   39.6650 C   0  0  0  0  0  2  0  0  0  0  0  0
   38.8550   34.3730   40.2920 C   0  0  1  0  0  3  0  0  0  0  0  0
   39.3910   32.7180   38.7460 O   0  0  0  0  0  0  0  0  0  0  0  0
   40.0600   33.4170   38.5630 H   0  0  0  0  0  0  0  0  0  0  0  0
   38.8770   34.5690   41.6640 O   0  0  0  0  0  0  0  0  0  0  0  0
   39.4620   33.8790   42.0650 H   0  0  0  0  0  0  0  0  0  0  0  0
   36.7040   28.8780   41.8540 O   0  0  0  0  0  0  0  0  0  0  0  0
   37.5200   28.1470   42.6870 C   0  0  0  0  0  3  0  0  0  0  0  0
   38.8330   28.2520   42.4370 C   0  0  0  0  0  3  0  0  0  0  0  0
   39.8920   27.5240   43.2390 C   0  0  0  0  0  0  0  0  0  0  0  0
   40.1630   28.1730   44.0960 H   0  0  0  0  0  0  0  0  0  0  0  0
   40.7900   27.3570   42.6040 H   0  0  0  0  0  0  0  0  0  0  0  0
   39.3340   26.3510   43.6970 O   0  0  0  0  0  0  0  0  0  0  0  0
   41.4140   25.0800   42.6070 O   0  0  0  0  0  0  0  0  0  0  0  0
   39.9080   25.0420   42.8130 P   0  0  1  0  0  0  0  0  0  0  0  0
   39.5860   23.5930   43.6610 O   0  0  0  0  0  0  0  0  0  0  0  0
   39.0050   23.7940   44.4270 H   0  0  0  0  0  0  0  0  0  0  0  0
   39.1330   24.9190   41.3340 O   0  0  0  0  0  0  0  0  0  0  0  0
   38.0390   24.0580   41.3860 C   0  0  0  0  0  0  0  0  0  0  0  0
   36.8900   24.3870   40.4600 C   0  0  0  0  0  0  0  0  0  0  0  0
   36.7720   24.6190   41.9560 C   0  0  0  0  0  0  0  0  0  0  0  0
   38.2280   22.9790   41.5070 H   0  0  0  0  0  0  0  0  0  0  0  0
   37.0160   25.2580   39.7900 H   0  0  0  0  0  0  0  0  0  0  0  0
   36.3200   23.5550   40.0180 H   0  0  0  0  0  0  0  0  0  0  0  0
   36.0560   23.9570   42.4730 H   0  0  0  0  0  0  0  0  0  0  0  0
   36.7330   25.6840   42.2510 H   0  0  0  0  0  0  0  0  0  0  0  0
  1  2  1  0  0  0  0
  1  3  1  0  0  0  0
  1 23  1  0  0  0  0
  4 11  1  0  0  0  0
  4  5  1  0  0  0  0
  5  1  1  0  0  0  0
  6  5  2  0  0  0  0
  7  6  1  0  0  0  0
  8  7  2  0  0  0  0
  8  9  1  0  0  0  0
  9  4  2  0  0  0  0
 10  8  1  0  0  0  0
 12 10  1  0  0  0  0
 13 10  1  0  0  0  0
 14 19  1  6  0  0  0
 14 18  1  0  0  0  0
 15  6  1  6  0  0  0
 15 14  1  0  0  0  0
 16 17  1  0  0  0  0
 16 15  1  0  0  0  0
 17 18  1  0  0  0  0
 18 21  1  1  0  0  0
 20 19  1  0  0  0  0
 21 22  1  0  0  0  0
 23 24  1  0  0  0  0
 25 24  2  0  0  0  0
 25 26  1  0  0  0  0
 26 29  1  0  0  0  0
 26 27  1  0  0  0  0
 28 26  1  0  0  0  0
 31 30  2  6  0  0  0
 31 32  1  0  0  0  0
 31 29  1  0  0  0  0
 32 33  1  0  0  0  0
 34 35  1  0  0  0  0
 34 31  1  0  0  0  0
 35 38  1  0  0  0  0
 35 37  1  0  0  0  0
 36 35  1  0  0  0  0
 36 37  1  0  0  0  0
 37 42  1  0  0  0  0
 37 41  1  0  0  0  0
 39 36  1  0  0  0  0
 40 36  1  0  0  0  0
M  END
>  <minimizedAffinity>
-5.7743206

$$$$

 OpenBabel03252504363D

 42 44  0  0  1  0  0  0  0  0999 V2000
   40.1280   31.1850   42.1250 C   0  0  0  0  0  0  0  0  0  0  0  0
   40.8760   32.0040   42.4150 H   0  0  0  0  0  0  0  0  0  0  0  0
   39.6080   30.9430   43.0380 H   0  0  0  0  0  0  0  0  0  0  0  0
   39.4300   33.3010   41.0560 C   0  0  0  0  0  0  0  0  0  0  0  0
   39.1640   31.9440   41.2320 C   0  0  0  0  0  0  0  0  0  0  0  0
   38.0750   31.4000   40.6090 C   0  0  0  0  0  0  0  0  0  0  0  0
   37.3450   32.2340   39.8720 N   0  0  0  0  0  0  0  0  0  0  0  0
   37.5970   33.5170   39.7070 C   0  0  0  0  0  0  0  0  0  0  0  0
   38.6830   34.1180   40.3120 N   0  0  0  0  0  0  0  0  0  0  0  0
   36.7300   34.2970   38.8950 N   0  0  0  0  0  0  0  0  0  0  0  0
   40.2820   33.7700   41.5310 H   0  0  0  0  0  0  0  0  0  0  0  0
   36.7290   34.2790   37.8540 H   0  0  0  0  0  0  0  0  0  0  0  0
   36.1190   34.8670   39.5210 H   0  0  0  0  0  0  0  0  0  0  0  0
   36.7760   29.7820   41.8520 C   0  0  2  0  0  3  0  0  0  0  0  0
   37.8020   29.9790   40.7950 C   0  0  1  0  0  3  0  0  0  0  0  0
   37.0790   29.5270   39.6560 O   0  0  0  0  0  0  0  0  0  0  0  0
   36.5770   28.2690   40.0630 C   0  0  0  0  0  2  0  0  0  0  0  0
   36.2530   28.3980   41.5360 C   0  0  1  0  0  3  0  0  0  0  0  0
   35.7140   30.6630   41.5340 O   0  0  0  0  0  0  0  0  0  0  0  0
   34.8440   30.2280   41.6830 H   0  0  0  0  0  0  0  0  0  0  0  0
   36.9530   27.4910   42.3140 O   0  0  0  0  0  0  0  0  0  0  0  0
   37.0940   27.8950   43.2070 H   0  0  0  0  0  0  0  0  0  0  0  0
   40.8670   30.2750   41.4500 O   0  0  0  0  0  0  0  0  0  0  0  0
   41.1780   28.9720   41.7630 C   0  0  0  0  0  3  0  0  0  0  0  0
   40.6820   28.5290   42.9270 C   0  0  0  0  0  3  0  0  0  0  0  0
   40.9150   27.1260   43.4500 C   0  0  0  0  0  0  0  0  0  0  0  0
   41.2760   27.2180   44.4930 H   0  0  0  0  0  0  0  0  0  0  0  0
   41.6930   26.6240   42.8320 H   0  0  0  0  0  0  0  0  0  0  0  0
   39.7050   26.4680   43.4280 O   0  0  0  0  0  0  0  0  0  0  0  0
   41.0540   25.1130   41.5620 O   0  0  0  0  0  0  0  0  0  0  0  0
   39.7660   25.1620   42.3700 P   0  0  1  0  0  0  0  0  0  0  0  0
   39.7120   23.7030   43.2580 O   0  0  0  0  0  0  0  0  0  0  0  0
   39.5130   23.9080   44.1980 H   0  0  0  0  0  0  0  0  0  0  0  0
   38.4460   25.1500   41.3410 O   0  0  0  0  0  0  0  0  0  0  0  0
   37.5960   24.0760   41.5910 C   0  0  0  0  0  0  0  0  0  0  0  0
   37.5380   23.0110   40.5190 C   0  0  0  0  0  0  0  0  0  0  0  0
   36.3780   23.9700   40.7250 C   0  0  0  0  0  0  0  0  0  0  0  0
   37.5360   23.6860   42.6200 H   0  0  0  0  0  0  0  0  0  0  0  0
   38.1950   23.1450   39.6390 H   0  0  0  0  0  0  0  0  0  0  0  0
   37.4050   21.9630   40.8300 H   0  0  0  0  0  0  0  0  0  0  0  0
   35.4570   23.5060   41.1190 H   0  0  0  0  0  0  0  0  0  0  0  0
   36.2320   24.6920   39.9010 H   0  0  0  0  0  0  0  0  0  0  0  0
  1  2  1  0  0  0  0
  1  3  1  0  0  0  0
  4  5  1  0  0  0  0
  4 11  1  0  0  0  0
  5  1  1  0  0  0  0
  6  5  2  0  0  0  0
  7  6  1  0  0  0  0
  8  7  2  0  0  0  0
  8  9  1  0  0  0  0
  9  4  2  0  0  0  0
 10 13  1  0  0  0  0
 10  8  1  0  0  0  0
 12 10  1  0  0  0  0
 14 19  1  6  0  0  0
 15  6  1  6  0  0  0
 15 14  1  0  0  0  0
 16 17  1  0  0  0  0
 16 15  1  0  0  0  0
 17 18  1  0  0  0  0
 18 14  1  0  0  0  0
 18 21  1  1  0  0  0
 19 20  1  0  0  0  0
 21 22  1  0  0  0  0
 23 24  1  0  0  0  0
 23  1  1  0  0  0  0
 24 25  2  0  0  0  0
 25 26  1  0  0  0  0
 26 27  1  0  0  0  0
 28 26  1  0  0  0  0
 29 26  1  0  0  0  0
 31 30  2  6  0  0  0
 31 32  1  0  0  0  0
 31 29  1  0  0  0  0
 32 33  1  0  0  0  0
 34 35  1  0  0  0  0
 34 31  1  0  0  0  0
 35 38  1  0  0  0  0
 36 37  1  0  0  0  0
 36 40  1  0  0  0  0
 36 35  1  0  0  0  0
 37 41  1  0  0  0  0
 37 35  1  0  0  0  0
 39 36  1  0  0  0  0
 42 37  1  0  0  0  0
M  END
>  <minimizedAffinity>
-5.66612196

$$$$

 OpenBabel03252504363D

 42 44  0  0  1  0  0  0  0  0999 V2000
   37.8380   27.8250   39.1410 C   0  0  0  0  0  0  0  0  0  0  0  0
   38.1560   28.8560   38.7550 H   0  0  0  0  0  0  0  0  0  0  0  0
   38.7270   27.2180   39.0870 H   0  0  0  0  0  0  0  0  0  0  0  0
   37.2470   27.0060   41.3960 C   0  0  0  0  0  0  0  0  0  0  0  0
   37.5610   28.1100   40.6050 C   0  0  0  0  0  0  0  0  0  0  0  0
   37.5890   29.3490   41.1840 C   0  0  0  0  0  0  0  0  0  0  0  0
   37.3090   29.3930   42.4840 N   0  0  0  0  0  0  0  0  0  0  0  0
   37.0110   28.3490   43.2320 C   0  0  0  0  0  0  0  0  0  0  0  0
   36.9680   27.0750   42.6990 N   0  0  0  0  0  0  0  0  0  0  0  0
   36.7250   28.5390   44.6110 N   0  0  0  0  0  0  0  0  0  0  0  0
   37.2130   26.0090   40.9760 H   0  0  0  0  0  0  0  0  0  0  0  0
   37.4470   28.7130   45.3400 H   0  0  0  0  0  0  0  0  0  0  0  0
   35.6910   28.4740   44.7420 H   0  0  0  0  0  0  0  0  0  0  0  0
   36.6820   31.1990   39.9180 C   0  0  2  0  0  3  0  0  0  0  0  0
   37.9200   30.5010   40.3530 C   0  0  1  0  0  3  0  0  0  0  0  0
   38.4850   31.4950   41.2000 O   0  0  0  0  0  0  0  0  0  0  0  0
   38.4600   32.6610   40.4000 C   0  0  0  0  0  2  0  0  0  0  0  0
   37.1980   32.5760   39.5660 C   0  0  1  0  0  3  0  0  0  0  0  0
   35.9060   31.3800   41.0870 O   0  0  0  0  0  0  0  0  0  0  0  0
   35.4870   32.2710   41.0940 H   0  0  0  0  0  0  0  0  0  0  0  0
   37.4600   32.5980   38.2060 O   0  0  0  0  0  0  0  0  0  0  0  0
   36.7500   32.0830   37.7470 H   0  0  0  0  0  0  0  0  0  0  0  0
   36.7180   27.5320   38.4400 O   0  0  0  0  0  0  0  0  0  0  0  0
   36.1070   28.2110   37.4110 C   0  0  0  0  0  3  0  0  0  0  0  0
   34.7740   28.3100   37.5040 C   0  0  0  0  0  3  0  0  0  0  0  0
   33.9190   29.0150   36.4710 C   0  0  0  0  0  0  0  0  0  0  0  0
   33.7790   28.3160   35.6230 H   0  0  0  0  0  0  0  0  0  0  0  0
   34.4450   29.9280   36.1140 H   0  0  0  0  0  0  0  0  0  0  0  0
   32.7030   29.2920   37.0560 O   0  0  0  0  0  0  0  0  0  0  0  0
   31.9010   28.6950   34.5790 O   0  0  0  0  0  0  0  0  0  0  0  0
   31.4450   28.8830   36.0180 P   0  0  1  0  0  0  0  0  0  0  0  0
   30.7700   27.3880   36.4970 O   0  0  0  0  0  0  0  0  0  0  0  0
   31.1510   27.1290   37.3640 H   0  0  0  0  0  0  0  0  0  0  0  0
   30.2110   30.0130   36.0820 O   0  0  0  0  0  0  0  0  0  0  0  0
   30.6880   31.2970   36.3370 C   0  0  0  0  0  0  0  0  0  0  0  0
   29.7530   32.4330   35.9900 C   0  0  0  0  0  0  0  0  0  0  0  0
   30.9820   32.1510   35.1430 C   0  0  0  0  0  0  0  0  0  0  0  0
   31.2820   31.4610   37.2510 H   0  0  0  0  0  0  0  0  0  0  0  0
   28.7560   32.1640   35.5960 H   0  0  0  0  0  0  0  0  0  0  0  0
   29.7610   33.3290   36.6300 H   0  0  0  0  0  0  0  0  0  0  0  0
   31.7690   32.9240   35.1940 H   0  0  0  0  0  0  0  0  0  0  0  0
   30.7590   31.7660   34.1300 H   0  0  0  0  0  0  0  0  0  0  0  0
  1  5  1  0  0  0  0
  2  1  1  0  0  0  0
  3  1  1  0  0  0  0
  4  9  1  0  0  0  0
  5  6  1  0  0  0  0
  5  4  2  0  0  0  0
  6  7  2  0  0  0  0
  7  8  1  0  0  0  0
  8 10  1  0  0  0  0
  9  8  2  0  0  0  0
 10 13  1  0  0  0  0
 10 12  1  0  0  0  0
 11  4  1  0  0  0  0
 14 15  1  0  0  0  0
 14 19  1  1  0  0  0
 15  6  1  1  0  0  0
 15 16  1  0  0  0  0
 17 16  1  0  0  0  0
 18 21  1  6  0  0  0
 18 14  1  0  0  0  0
 18 17  1  0  0  0  0
 19 20  1  0  0  0  0
 22 21  1  0  0  0  0
 23  1  1  0  0  0  0
 24 25  2  0  0  0  0
 24 23  1  0  0  0  0
 26 29  1  0  0  0  0
 26 25  1  0  0  0  0
 27 26  1  0  0  0  0
 28 26  1  0  0  0  0
 31 30  2  6  0  0  0
 31 34  1  0  0  0  0
 31 32  1  0  0  0  0
 31 29  1  0  0  0  0
 32 33  1  0  0  0  0
 34 35  1  0  0  0  0
 35 38  1  0  0  0  0
 36 35  1  0  0  0  0
 36 40  1  0  0  0  0
 37 41  1  0  0  0  0
 37 36  1  0  0  0  0
 37 35  1  0  0  0  0
 39 36  1  0  0  0  0
 42 37  1  0  0  0  0
M  END
>  <minimizedAffinity>
-5.64097595

$$$$

 OpenBabel03252504363D

 42 44  0  0  1  0  0  0  0  0999 V2000
   41.0620   29.1610   38.1340 C   0  0  0  0  0  0  0  0  0  0  0  0
   39.9190   29.2010   38.1990 H   0  0  0  0  0  0  0  0  0  0  0  0
   41.2740   28.5640   37.2610 H   0  0  0  0  0  0  0  0  0  0  0  0
   42.6590   30.8140   37.2280 C   0  0  0  0  0  0  0  0  0  0  0  0
   41.4080   30.6010   37.8040 C   0  0  0  0  0  0  0  0  0  0  0  0
   40.5970   31.6770   38.0360 C   0  0  0  0  0  0  0  0  0  0  0  0
   41.0850   32.8640   37.6830 N   0  0  0  0  0  0  0  0  0  0  0  0
   42.2680   33.0660   37.1380 C   0  0  0  0  0  0  0  0  0  0  0  0
   43.1280   32.0150   36.8820 N   0  0  0  0  0  0  0  0  0  0  0  0
   42.6690   34.3900   36.8150 N   0  0  0  0  0  0  0  0  0  0  0  0
   43.3310   29.9900   37.0280 H   0  0  0  0  0  0  0  0  0  0  0  0
   42.3230   34.9210   35.9880 H   0  0  0  0  0  0  0  0  0  0  0  0
   43.3470   34.7130   37.5400 H   0  0  0  0  0  0  0  0  0  0  0  0
   39.0830   32.3570   39.7950 C   0  0  2  0  0  3  0  0  0  0  0  0
   39.2880   31.4480   38.6370 C   0  0  1  0  0  3  0  0  0  0  0  0
   38.3080   31.9590   37.7410 O   0  0  0  0  0  0  0  0  0  0  0  0
   37.1340   32.0030   38.5290 C   0  0  0  0  0  2  0  0  0  0  0  0
   37.5770   32.3700   39.9300 C   0  0  1  0  0  3  0  0  0  0  0  0
   39.4270   33.6520   39.3400 O   0  0  0  0  0  0  0  0  0  0  0  0
   38.7940   34.3230   39.6840 H   0  0  0  0  0  0  0  0  0  0  0  0
   37.2240   31.4100   40.8650 O   0  0  0  0  0  0  0  0  0  0  0  0
   37.8970   31.4260   41.5910 H   0  0  0  0  0  0  0  0  0  0  0  0
   41.4600   28.7950   39.3740 O   0  0  0  0  0  0  0  0  0  0  0  0
   40.7210   28.5210   40.5020 C   0  0  0  0  0  3  0  0  0  0  0  0
   40.6970   29.4970   41.4200 C   0  0  0  0  0  3  0  0  0  0  0  0
   39.9440   29.3880   42.7300 C   0  0  0  0  0  0  0  0  0  0  0  0
   40.1660   30.3000   43.3180 H   0  0  0  0  0  0  0  0  0  0  0  0
   40.2980   28.4930   43.2890 H   0  0  0  0  0  0  0  0  0  0  0  0
   38.6000   29.3370   42.4340 O   0  0  0  0  0  0  0  0  0  0  0  0
   38.8460   27.2350   44.0630 O   0  0  0  0  0  0  0  0  0  0  0  0
   37.8610   28.0800   43.2710 P   0  0  1  0  0  0  0  0  0  0  0  0
   36.7650   28.7210   44.4160 O   0  0  0  0  0  0  0  0  0  0  0  0
   36.6750   29.6880   44.2650 H   0  0  0  0  0  0  0  0  0  0  0  0
   36.9690   27.1050   42.2430 O   0  0  0  0  0  0  0  0  0  0  0  0
   37.4870   25.8150   42.1640 C   0  0  0  0  0  0  0  0  0  0  0  0
   38.2670   25.4880   40.9110 C   0  0  0  0  0  0  0  0  0  0  0  0
   36.8800   24.9120   41.1340 C   0  0  0  0  0  0  0  0  0  0  0  0
   37.8900   25.3570   43.0810 H   0  0  0  0  0  0  0  0  0  0  0  0
   38.3980   26.3010   40.1720 H   0  0  0  0  0  0  0  0  0  0  0  0
   39.1290   24.8080   40.9950 H   0  0  0  0  0  0  0  0  0  0  0  0
   36.8510   23.8210   41.3010 H   0  0  0  0  0  0  0  0  0  0  0  0
   36.1060   25.3080   40.4510 H   0  0  0  0  0  0  0  0  0  0  0  0
  1  2  1  0  0  0  0
  1 23  1  0  0  0  0
  3  1  1  0  0  0  0
  4  5  1  0  0  0  0
  5  6  2  0  0  0  0
  5  1  1  0  0  0  0
  7  6  1  0  0  0  0
  8  7  2  0  0  0  0
  9  8  1  0  0  0  0
  9  4  2  0  0  0  0
 10  8  1  0  0  0  0
 10 13  1  0  0  0  0
 11  4  1  0  0  0  0
 12 10  1  0  0  0  0
 14 19  1  6  0  0  0
 14 18  1  0  0  0  0
 15  6  1  6  0  0  0
 15 14  1  0  0  0  0
 16 17  1  0  0  0  0
 16 15  1  0  0  0  0
 17 18  1  0  0  0  0
 18 21  1  1  0  0  0
 19 20  1  0  0  0  0
 21 22  1  0  0  0  0
 23 24  1  0  0  0  0
 24 25  2  0  0  0  0
 25 26  1  0  0  0  0
 26 28  1  0  0  0  0
 26 27  1  0  0  0  0
 29 26  1  0  0  0  0
 29 31  1  0  0  0  0
 31 30  2  1  0  0  0
 31 32  1  0  0  0  0
 33 32  1  0  0  0  0
 34 31  1  0  0  0  0
 35 34  1  0  0  0  0
 35 38  1  0  0  0  0
 36 40  1  0  0  0  0
 36 37  1  0  0  0  0
 36 35  1  0  0  0  0
 37 41  1  0  0  0  0
 37 35  1  0  0  0  0
 39 36  1  0  0  0  0
 42 37  1  0  0  0  0
M  END
>  <minimizedAffinity>
-5.5051713

$$$$
