
 OpenBabel03252507133D

 42 44  0  0  1  0  0  0  0  0999 V2000
   46.5360   34.9040   42.0730 C   0  0  2  0  0  0  0  0  0  0  0  0
   45.6310   35.7400   42.8960 C   0  0  0  0  0  0  0  0  0  0  0  0
   44.2540   35.7470   42.3400 C   0  0  0  0  0  0  0  0  0  0  0  0
   43.6270   34.5100   42.3670 O   0  0  0  0  0  0  0  0  0  0  0  0
   44.5450   33.4840   42.4180 C   0  0  0  0  0  0  0  0  0  0  0  0
   45.7120   33.7860   41.4830 C   0  0  1  0  0  0  0  0  0  0  0  0
   46.9340   35.5590   41.2480 H   0  0  0  0  0  0  0  0  0  0  0  0
   45.5580   35.3830   43.9530 H   0  0  0  0  0  0  0  0  0  0  0  0
   45.9690   36.8080   42.9800 H   0  0  0  0  0  0  0  0  0  0  0  0
   44.0810   36.3450   41.4390 H   0  0  0  0  0  0  0  0  0  0  0  0
   43.6560   36.3310   43.1200 H   0  0  0  0  0  0  0  0  0  0  0  0
   44.9790   33.3850   43.4560 H   0  0  0  0  0  0  0  0  0  0  0  0
   44.1450   32.5130   42.1300 H   0  0  0  0  0  0  0  0  0  0  0  0
   46.3460   32.8700   41.7550 H   0  0  0  0  0  0  0  0  0  0  0  0
   46.4060   33.2910   39.0210 C   0  0  2  0  0  0  0  0  0  0  0  0
   45.4910   33.6050   40.0750 C   0  0  1  0  0  0  0  0  0  0  0  0
   44.3660   32.7870   39.7690 O   0  0  0  0  0  0  0  0  0  0  0  0
   44.1460   33.1590   38.4180 C   0  0  0  0  0  0  0  0  0  0  0  0
   45.5100   32.7780   37.8830 C   0  0  2  0  0  0  0  0  0  0  0  0
   47.3930   32.3700   39.1170 O   0  0  0  0  0  0  0  0  0  0  0  0
   47.1410   31.4580   39.3310 H   0  0  0  0  0  0  0  0  0  0  0  0
   45.5650   31.4080   37.8850 O   0  0  0  0  0  0  0  0  0  0  0  0
   45.8260   30.9700   37.0590 H   0  0  0  0  0  0  0  0  0  0  0  0
   47.6490   34.4710   42.6910 O   0  0  0  0  0  0  0  0  0  0  0  0
   50.2450   34.8530   42.7250 O   0  0  0  0  0  0  0  0  0  0  0  0
   49.0790   34.5430   41.8670 P   0  0  2  0  0  0  0  0  0  0  0  0
   48.9700   35.7950   40.7180 O   0  0  0  0  0  0  0  0  0  0  0  0
   49.6070   35.5900   39.9880 H   0  0  0  0  0  0  0  0  0  0  0  0
   49.3470   33.0800   40.9940 O   0  0  0  0  0  0  0  0  0  0  0  0
   49.5560   31.3220   42.5520 C   0  0  0  0  0  0  0  0  0  0  0  0
   50.1030   32.0530   41.5250 C   0  0  0  0  0  0  0  0  0  0  0  0
   51.4020   31.7190   41.0660 C   0  0  0  0  0  0  0  0  0  0  0  0
   52.0260   30.6860   41.6820 N   0  0  0  0  0  0  0  0  0  0  0  0
   51.4720   30.0060   42.6640 C   0  0  0  0  0  0  0  0  0  0  0  0
   50.2270   30.3360   43.0930 N   0  0  0  0  0  0  0  0  0  0  0  0
   47.1220   30.8260   42.7030 C   0  0  0  0  0  0  0  0  0  0  0  0
   47.0270   30.5090   41.4730 O   0  0  0  0  0  0  0  0  0  0  0  0
   48.3700   31.2520   43.3310 N   0  0  0  0  0  0  0  0  0  0  0  0
   51.7640   32.3350   40.2610 H   0  0  0  0  0  0  0  0  0  0  0  0
   52.0390   29.1880   43.1070 H   0  0  0  0  0  0  0  0  0  0  0  0
   46.1960   30.7460   43.2210 H   0  0  0  0  0  0  0  0  0  0  0  0
   48.2490   31.4730   44.3260 H   0  0  0  0  0  0  0  0  0  0  0  0
  1  7  1  6  0  0  0
  1 24  1  0  0  0  0
  1  2  1  0  0  0  0
  2  9  1  0  0  0  0
  2  8  1  0  0  0  0
  3  4  1  0  0  0  0
  3  2  1  0  0  0  0
  3 11  1  0  0  0  0
  4  5  1  0  0  0  0
  5 12  1  0  0  0  0
  6 14  1  1  0  0  0
  6  1  1  0  0  0  0
  6  5  1  0  0  0  0
 10  3  1  0  0  0  0
 13  5  1  0  0  0  0
 15 20  1  1  0  0  0
 15 16  1  0  0  0  0
 16 17  1  1  0  0  0
 16  6  1  0  0  0  0
 18 17  1  0  0  0  0
 19 22  1  1  0  0  0
 19 18  1  0  0  0  0
 19 15  1  0  0  0  0
 20 21  1  0  0  0  0
 23 22  1  0  0  0  0
 26 24  1  0  0  0  0
 26 25  2  1  0  0  0
 27 26  1  0  0  0  0
 28 27  1  0  0  0  0
 29 31  1  0  0  0  0
 29 26  1  0  0  0  0
 30 35  1  0  0  0  0
 30 38  1  0  0  0  0
 31 30  2  0  0  0  0
 32 31  1  0  0  0  0
 32 33  2  0  0  0  0
 33 34  1  0  0  0  0
 34 35  2  0  0  0  0
 34 40  1  0  0  0  0
 36 41  1  0  0  0  0
 36 38  1  0  0  0  0
 37 36  2  0  0  0  0
 38 42  1  0  0  0  0
 39 32  1  0  0  0  0
M  END
>  <minimizedAffinity>
-4.7649188

>  <minimizedRMSD>
0.958750486

$$$$
