
 OpenBabel03242512073D

 27 29  0  0  1  0  0  0  0  0999 V2000
   37.0760   28.5090   41.1590 C   0  0  1  0  0  0  0  0  0  0  0  0
   35.5130   28.5320   41.0580 C   0  0  0  0  0  0  0  0  0  0  0  0
   36.3620   29.7580   41.0330 C   0  0  2  0  0  0  0  0  0  0  0  0
   37.3860   27.7860   40.3520 H   0  0  0  0  0  0  0  0  0  0  0  0
   35.0320   28.1500   40.1640 H   0  0  0  0  0  0  0  0  0  0  0  0
   34.9530   28.3170   41.9910 H   0  0  0  0  0  0  0  0  0  0  0  0
   36.3230   30.3900   41.9470 H   0  0  0  0  0  0  0  0  0  0  0  0
   37.3880   31.6200   39.8210 C   0  0  1  0  0  3  0  0  0  0  0  0
   36.3100   30.5380   39.7410 C   0  0  1  0  0  3  0  0  0  0  0  0
   36.7420   29.8100   38.6490 O   0  0  0  0  0  0  0  0  0  0  0  0
   37.2170   30.6900   37.7020 C   0  0  0  0  0  2  0  0  0  0  0  0
   37.3800   32.0420   38.3470 C   0  0  2  0  0  3  0  0  0  0  0  0
   37.0680   32.6380   40.6770 O   0  0  0  0  0  0  0  0  0  0  0  0
   37.7270   32.6180   41.4380 H   0  0  0  0  0  0  0  0  0  0  0  0
   38.5870   32.6620   38.0340 O   0  0  0  0  0  0  0  0  0  0  0  0
   38.5240   33.5730   38.4210 H   0  0  0  0  0  0  0  0  0  0  0  0
   37.5510   28.0350   42.4920 C   0  0  0  0  0  0  0  0  0  0  0  0
   37.3250   28.7770   43.4530 O   0  0  0  0  0  0  0  0  0  0  0  0
   37.7670   25.6230   42.1750 C   0  0  0  0  0  0  0  0  0  0  0  0
   38.2260   26.7950   42.7110 C   0  0  0  0  0  0  0  0  0  0  0  0
   39.4010   26.7730   43.4870 C   0  0  0  0  0  0  0  0  0  0  0  0
   40.0400   25.5850   43.6790 N   0  0  0  0  0  0  0  0  0  0  0  0
   39.5590   24.4420   43.1350 C   0  0  0  0  0  0  0  0  0  0  0  0
   38.4520   24.4670   42.4040 N   0  0  0  0  0  0  0  0  0  0  0  0
   36.8760   25.5550   41.5690 H   0  0  0  0  0  0  0  0  0  0  0  0
   39.7590   27.7160   43.9100 H   0  0  0  0  0  0  0  0  0  0  0  0
   40.1180   23.5130   43.3240 H   0  0  0  0  0  0  0  0  0  0  0  0
  1  4  1  6  0  0  0
  1 17  1  0  0  0  0
  2  1  1  0  0  0  0
  2  6  1  0  0  0  0
  3  2  1  0  0  0  0
  3  1  1  0  0  0  0
  3  7  1  1  0  0  0
  5  2  1  0  0  0  0
  8 13  1  1  0  0  0
  9 10  1  6  0  0  0
  9  8  1  0  0  0  0
  9  3  1  0  0  0  0
 11 12  1  0  0  0  0
 11 10  1  0  0  0  0
 12 15  1  6  0  0  0
 12  8  1  0  0  0  0
 13 14  1  0  0  0  0
 15 16  1  0  0  0  0
 17 20  1  0  0  0  0
 17 18  2  0  0  0  0
 19 24  2  0  0  0  0
 19 20  1  0  0  0  0
 20 21  2  0  0  0  0
 21 22  1  0  0  0  0
 21 26  1  0  0  0  0
 23 27  1  0  0  0  0
 23 22  2  0  0  0  0
 24 23  1  0  0  0  0
 25 19  1  0  0  0  0
M  END
>  <minimizedAffinity>
-5.23188925

$$$$

 OpenBabel03242512073D

 27 29  0  0  1  0  0  0  0  0999 V2000
   39.8680   29.8960   40.1570 C   0  0  1  0  0  0  0  0  0  0  0  0
   39.0530   29.9850   38.8220 C   0  0  0  0  0  0  0  0  0  0  0  0
   39.9750   31.0550   39.3030 C   0  0  2  0  0  0  0  0  0  0  0  0
   40.4020   28.9070   40.0790 H   0  0  0  0  0  0  0  0  0  0  0  0
   39.3130   29.3330   37.9960 H   0  0  0  0  0  0  0  0  0  0  0  0
   37.9640   30.1690   38.9180 H   0  0  0  0  0  0  0  0  0  0  0  0
   39.4860   31.9810   39.6760 H   0  0  0  0  0  0  0  0  0  0  0  0
   40.9000   32.5920   37.6380 C   0  0  1  0  0  3  0  0  0  0  0  0
   41.1720   31.3040   38.4170 C   0  0  1  0  0  3  0  0  0  0  0  0
   42.3080   31.6530   39.1220 O   0  0  0  0  0  0  0  0  0  0  0  0
   43.1160   32.4030   38.2980 C   0  0  0  0  0  2  0  0  0  0  0  0
   42.3150   32.8170   37.0900 C   0  0  2  0  0  3  0  0  0  0  0  0
   39.9590   32.4410   36.6570 O   0  0  0  0  0  0  0  0  0  0  0  0
   39.1620   33.0040   36.9060 H   0  0  0  0  0  0  0  0  0  0  0  0
   42.4750   34.1580   36.7530 O   0  0  0  0  0  0  0  0  0  0  0  0
   41.9930   34.2730   35.8940 H   0  0  0  0  0  0  0  0  0  0  0  0
   38.9870   29.9170   41.3620 C   0  0  0  0  0  0  0  0  0  0  0  0
   38.8540   31.0060   41.9280 O   0  0  0  0  0  0  0  0  0  0  0  0
   38.3650   27.5570   41.2540 C   0  0  0  0  0  0  0  0  0  0  0  0
   38.3000   28.7740   41.8760 C   0  0  0  0  0  0  0  0  0  0  0  0
   37.5430   28.8940   43.0570 C   0  0  0  0  0  0  0  0  0  0  0  0
   36.9010   27.7940   43.5410 N   0  0  0  0  0  0  0  0  0  0  0  0
   36.9860   26.6030   42.9010 C   0  0  0  0  0  0  0  0  0  0  0  0
   37.7000   26.4950   41.7880 N   0  0  0  0  0  0  0  0  0  0  0  0
   38.9230   27.3830   40.3450 H   0  0  0  0  0  0  0  0  0  0  0  0
   37.4990   29.8710   43.5460 H   0  0  0  0  0  0  0  0  0  0  0  0
   36.4460   25.7500   43.3390 H   0  0  0  0  0  0  0  0  0  0  0  0
  1  4  1  1  0  0  0
  1 17  1  0  0  0  0
  2  6  1  0  0  0  0
  2  3  1  0  0  0  0
  2  1  1  0  0  0  0
  3  7  1  1  0  0  0
  3  1  1  0  0  0  0
  5  2  1  0  0  0  0
  8 13  1  6  0  0  0
  8  9  1  0  0  0  0
  9 10  1  1  0  0  0
  9  3  1  0  0  0  0
 11 10  1  0  0  0  0
 12 15  1  1  0  0  0
 12  8  1  0  0  0  0
 12 11  1  0  0  0  0
 13 14  1  0  0  0  0
 16 15  1  0  0  0  0
 17 20  1  0  0  0  0
 17 18  2  0  0  0  0
 19 24  2  0  0  0  0
 19 20  1  0  0  0  0
 20 21  2  0  0  0  0
 21 22  1  0  0  0  0
 21 26  1  0  0  0  0
 23 27  1  0  0  0  0
 23 22  2  0  0  0  0
 24 23  1  0  0  0  0
 25 19  1  0  0  0  0
M  END
>  <minimizedAffinity>
-5.03838968

$$$$

 OpenBabel03242512073D

 27 29  0  0  1  0  0  0  0  0999 V2000
   38.2480   28.4470   40.9980 C   0  0  1  0  0  0  0  0  0  0  0  0
   38.0520   27.8400   39.5670 C   0  0  0  0  0  0  0  0  0  0  0  0
   37.0420   28.7030   40.2470 C   0  0  2  0  0  0  0  0  0  0  0  0
   39.2470   28.9650   40.9340 H   0  0  0  0  0  0  0  0  0  0  0  0
   38.6580   28.2060   38.7470 H   0  0  0  0  0  0  0  0  0  0  0  0
   37.8410   26.7530   39.5150 H   0  0  0  0  0  0  0  0  0  0  0  0
   36.1270   28.1840   40.6050 H   0  0  0  0  0  0  0  0  0  0  0  0
   36.7600   31.1010   40.6490 C   0  0  1  0  0  3  0  0  0  0  0  0
   36.7760   30.0230   39.5640 C   0  0  1  0  0  3  0  0  0  0  0  0
   37.8290   30.4510   38.7780 O   0  0  0  0  0  0  0  0  0  0  0  0
   37.7760   31.8240   38.6920 C   0  0  0  0  0  2  0  0  0  0  0  0
   36.8110   32.3300   39.7340 C   0  0  2  0  0  3  0  0  0  0  0  0
   35.6420   31.0590   41.4360 O   0  0  0  0  0  0  0  0  0  0  0  0
   35.9310   30.8180   42.3700 H   0  0  0  0  0  0  0  0  0  0  0  0
   37.2940   33.4230   40.4490 O   0  0  0  0  0  0  0  0  0  0  0  0
   36.5360   33.7240   41.0140 H   0  0  0  0  0  0  0  0  0  0  0  0
   38.2760   27.3980   42.0600 C   0  0  0  0  0  0  0  0  0  0  0  0
   37.1810   26.9880   42.4580 O   0  0  0  0  0  0  0  0  0  0  0  0
   39.6900   25.5000   42.6640 C   0  0  0  0  0  0  0  0  0  0  0  0
   39.4720   26.8500   42.6190 C   0  0  0  0  0  0  0  0  0  0  0  0
   40.4580   27.7160   43.1290 C   0  0  0  0  0  0  0  0  0  0  0  0
   41.5970   27.1810   43.6500 N   0  0  0  0  0  0  0  0  0  0  0  0
   41.7830   25.8390   43.6800 C   0  0  0  0  0  0  0  0  0  0  0  0
   40.8500   25.0260   43.1980 N   0  0  0  0  0  0  0  0  0  0  0  0
   38.9840   24.7720   42.2940 H   0  0  0  0  0  0  0  0  0  0  0  0
   40.2730   28.7920   43.0870 H   0  0  0  0  0  0  0  0  0  0  0  0
   42.7220   25.4640   44.1130 H   0  0  0  0  0  0  0  0  0  0  0  0
  1  4  1  1  0  0  0
  1 17  1  0  0  0  0
  2  3  1  0  0  0  0
  2  1  1  0  0  0  0
  3  7  1  1  0  0  0
  3  1  1  0  0  0  0
  5  2  1  0  0  0  0
  6  2  1  0  0  0  0
  8 13  1  6  0  0  0
  9 10  1  6  0  0  0
  9  3  1  0  0  0  0
  9  8  1  0  0  0  0
 11 10  1  0  0  0  0
 11 12  1  0  0  0  0
 12 15  1  1  0  0  0
 12  8  1  0  0  0  0
 13 14  1  0  0  0  0
 15 16  1  0  0  0  0
 17 18  2  0  0  0  0
 17 20  1  0  0  0  0
 19 24  1  0  0  0  0
 20 19  2  0  0  0  0
 20 21  1  0  0  0  0
 21 22  2  0  0  0  0
 22 23  1  0  0  0  0
 23 27  1  0  0  0  0
 24 23  2  0  0  0  0
 25 19  1  0  0  0  0
 26 21  1  0  0  0  0
M  END
>  <minimizedAffinity>
-4.9477191

$$$$

 OpenBabel03242512073D

 27 29  0  0  1  0  0  0  0  0999 V2000
   37.8550   30.7340   40.1260 C   0  0  1  0  0  0  0  0  0  0  0  0
   37.4760   30.9880   38.6270 C   0  0  0  0  0  0  0  0  0  0  0  0
   37.6100   32.0730   39.6430 C   0  0  2  0  0  0  0  0  0  0  0  0
   38.7970   30.1200   40.0640 H   0  0  0  0  0  0  0  0  0  0  0  0
   38.2220   30.8310   37.8570 H   0  0  0  0  0  0  0  0  0  0  0  0
   36.4510   30.7010   38.3200 H   0  0  0  0  0  0  0  0  0  0  0  0
   36.6590   32.5430   39.9750 H   0  0  0  0  0  0  0  0  0  0  0  0
   39.3860   33.3680   40.7190 C   0  0  1  0  0  3  0  0  0  0  0  0
   38.7240   33.0570   39.3760 C   0  0  1  0  0  3  0  0  0  0  0  0
   39.7810   32.5040   38.6780 O   0  0  0  0  0  0  0  0  0  0  0  0
   40.9210   33.2130   38.9860 C   0  0  0  0  0  2  0  0  0  0  0  0
   40.6350   34.0810   40.1840 C   0  0  2  0  0  3  0  0  0  0  0  0
   38.6180   34.1590   41.5290 O   0  0  0  0  0  0  0  0  0  0  0  0
   38.3640   33.6150   42.3380 H   0  0  0  0  0  0  0  0  0  0  0  0
   41.6400   34.0420   41.1470 O   0  0  0  0  0  0  0  0  0  0  0  0
   41.3880   34.7270   41.8190 H   0  0  0  0  0  0  0  0  0  0  0  0
   36.7930   29.9830   40.8590 C   0  0  0  0  0  0  0  0  0  0  0  0
   35.7510   30.6000   41.1030 O   0  0  0  0  0  0  0  0  0  0  0  0
   37.0820   28.2840   42.5890 C   0  0  0  0  0  0  0  0  0  0  0  0
   36.9120   28.6210   41.2740 C   0  0  0  0  0  0  0  0  0  0  0  0
   36.8430   27.5950   40.3120 C   0  0  0  0  0  0  0  0  0  0  0  0
   36.9480   26.3000   40.7230 N   0  0  0  0  0  0  0  0  0  0  0  0
   37.1160   25.9990   42.0340 C   0  0  0  0  0  0  0  0  0  0  0  0
   37.1810   26.9700   42.9370 N   0  0  0  0  0  0  0  0  0  0  0  0
   37.1450   29.0100   43.3850 H   0  0  0  0  0  0  0  0  0  0  0  0
   36.7060   27.8760   39.2650 H   0  0  0  0  0  0  0  0  0  0  0  0
   37.1950   24.9360   42.3060 H   0  0  0  0  0  0  0  0  0  0  0  0
  1  4  1  1  0  0  0
  1 17  1  0  0  0  0
  2  3  1  0  0  0  0
  2  1  1  0  0  0  0
  3  7  1  1  0  0  0
  3  1  1  0  0  0  0
  5  2  1  0  0  0  0
  6  2  1  0  0  0  0
  8 13  1  1  0  0  0
  9 10  1  6  0  0  0
  9  3  1  0  0  0  0
  9  8  1  0  0  0  0
 10 11  1  0  0  0  0
 11 12  1  0  0  0  0
 12  8  1  0  0  0  0
 12 15  1  1  0  0  0
 13 14  1  0  0  0  0
 15 16  1  0  0  0  0
 17 18  2  0  0  0  0
 17 20  1  0  0  0  0
 19 24  1  0  0  0  0
 19 25  1  0  0  0  0
 20 19  2  0  0  0  0
 21 22  2  0  0  0  0
 21 20  1  0  0  0  0
 22 23  1  0  0  0  0
 23 27  1  0  0  0  0
 23 24  2  0  0  0  0
 26 21  1  0  0  0  0
M  END
>  <minimizedAffinity>
-4.92098761

$$$$

 OpenBabel03242512073D

 27 29  0  0  1  0  0  0  0  0999 V2000
   37.4690   29.3700   42.2600 C   0  0  1  0  0  0  0  0  0  0  0  0
   38.8600   29.6790   42.9130 C   0  0  0  0  0  0  0  0  0  0  0  0
   38.6350   29.5980   41.4400 C   0  0  2  0  0  0  0  0  0  0  0  0
   36.7780   30.1230   42.7340 H   0  0  0  0  0  0  0  0  0  0  0  0
   39.0110   30.6270   43.4170 H   0  0  0  0  0  0  0  0  0  0  0  0
   39.3800   28.8290   43.3980 H   0  0  0  0  0  0  0  0  0  0  0  0
   39.0590   28.7020   40.9370 H   0  0  0  0  0  0  0  0  0  0  0  0
   37.4890   31.4280   40.2880 C   0  0  1  0  0  3  0  0  0  0  0  0
   38.8630   30.8910   40.6930 C   0  0  1  0  0  3  0  0  0  0  0  0
   39.3210   31.9130   41.5030 O   0  0  0  0  0  0  0  0  0  0  0  0
   38.9460   33.1130   40.9410 C   0  0  0  0  0  2  0  0  0  0  0  0
   37.9240   32.8380   39.8680 C   0  0  2  0  0  3  0  0  0  0  0  0
   36.9090   30.7170   39.2740 O   0  0  0  0  0  0  0  0  0  0  0  0
   36.0820   30.2750   39.6420 H   0  0  0  0  0  0  0  0  0  0  0  0
   36.8290   33.6960   39.9150 O   0  0  0  0  0  0  0  0  0  0  0  0
   36.2950   33.4880   39.1050 H   0  0  0  0  0  0  0  0  0  0  0  0
   37.0030   27.9820   42.5520 C   0  0  0  0  0  0  0  0  0  0  0  0
   36.5420   27.7820   43.6800 O   0  0  0  0  0  0  0  0  0  0  0  0
   37.5390   25.6730   41.9640 C   0  0  0  0  0  0  0  0  0  0  0  0
   37.0530   26.9030   41.6160 C   0  0  0  0  0  0  0  0  0  0  0  0
   36.5830   27.1020   40.3040 C   0  0  0  0  0  0  0  0  0  0  0  0
   36.6270   26.0620   39.4250 N   0  0  0  0  0  0  0  0  0  0  0  0
   37.1140   24.8550   39.8010 C   0  0  0  0  0  0  0  0  0  0  0  0
   37.5570   24.6720   41.0390 N   0  0  0  0  0  0  0  0  0  0  0  0
   37.9180   25.4410   42.9490 H   0  0  0  0  0  0  0  0  0  0  0  0
   36.1960   28.0890   40.0370 H   0  0  0  0  0  0  0  0  0  0  0  0
   37.1260   24.0520   39.0490 H   0  0  0  0  0  0  0  0  0  0  0  0
  1 17  1  0  0  0  0
  1  4  1  1  0  0  0
  1  2  1  0  0  0  0
  2  6  1  0  0  0  0
  2  5  1  0  0  0  0
  3  7  1  6  0  0  0
  3  1  1  0  0  0  0
  3  2  1  0  0  0  0
  8 13  1  6  0  0  0
  8  9  1  0  0  0  0
  9  3  1  0  0  0  0
  9 10  1  1  0  0  0
 11 10  1  0  0  0  0
 12 15  1  1  0  0  0
 12  8  1  0  0  0  0
 12 11  1  0  0  0  0
 13 14  1  0  0  0  0
 16 15  1  0  0  0  0
 17 18  2  0  0  0  0
 19 25  1  0  0  0  0
 20 19  1  0  0  0  0
 20 17  1  0  0  0  0
 21 20  2  0  0  0  0
 22 23  2  0  0  0  0
 22 21  1  0  0  0  0
 23 24  1  0  0  0  0
 24 19  2  0  0  0  0
 26 21  1  0  0  0  0
 27 23  1  0  0  0  0
M  END
>  <minimizedAffinity>
-4.91364336

$$$$

 OpenBabel03242512073D

 27 29  0  0  1  0  0  0  0  0999 V2000
   38.4040   29.1320   40.8350 C   0  0  1  0  0  0  0  0  0  0  0  0
   39.1570   28.8950   39.4820 C   0  0  0  0  0  0  0  0  0  0  0  0
   37.9590   29.7740   39.6210 C   0  0  2  0  0  0  0  0  0  0  0  0
   39.2210   29.4460   41.5440 H   0  0  0  0  0  0  0  0  0  0  0  0
   40.1530   29.3020   39.3500 H   0  0  0  0  0  0  0  0  0  0  0  0
   39.0120   27.9070   39.0000 H   0  0  0  0  0  0  0  0  0  0  0  0
   37.0180   29.3800   39.1790 H   0  0  0  0  0  0  0  0  0  0  0  0
   37.7500   32.0230   40.5640 C   0  0  1  0  0  3  0  0  0  0  0  0
   38.2100   31.2360   39.3360 C   0  0  1  0  0  3  0  0  0  0  0  0
   39.5530   31.5590   39.2990 O   0  0  0  0  0  0  0  0  0  0  0  0
   39.6870   32.8900   39.6260 C   0  0  0  0  0  2  0  0  0  0  0  0
   38.3820   33.3730   40.2040 C   0  0  2  0  0  3  0  0  0  0  0  0
   36.3890   32.0800   40.6900 O   0  0  0  0  0  0  0  0  0  0  0  0
   36.1370   31.5790   41.5270 H   0  0  0  0  0  0  0  0  0  0  0  0
   38.5380   34.1360   41.3590 O   0  0  0  0  0  0  0  0  0  0  0  0
   37.6320   34.4790   41.5720 H   0  0  0  0  0  0  0  0  0  0  0  0
   37.7310   27.8960   41.3330 C   0  0  0  0  0  0  0  0  0  0  0  0
   36.5090   27.8290   41.1670 O   0  0  0  0  0  0  0  0  0  0  0  0
   39.4760   27.0170   42.7980 C   0  0  0  0  0  0  0  0  0  0  0  0
   38.4110   26.8090   41.9660 C   0  0  0  0  0  0  0  0  0  0  0  0
   37.9710   25.4910   41.7390 C   0  0  0  0  0  0  0  0  0  0  0  0
   38.6220   24.4660   42.3570 N   0  0  0  0  0  0  0  0  0  0  0  0
   39.6740   24.7050   43.1770 C   0  0  0  0  0  0  0  0  0  0  0  0
   40.0850   25.9490   43.3860 N   0  0  0  0  0  0  0  0  0  0  0  0
   39.8740   27.9960   43.0230 H   0  0  0  0  0  0  0  0  0  0  0  0
   37.1190   25.3380   41.0730 H   0  0  0  0  0  0  0  0  0  0  0  0
   40.1610   23.8380   43.6470 H   0  0  0  0  0  0  0  0  0  0  0  0
  1 17  1  0  0  0  0
  1  4  1  1  0  0  0
  2  3  1  0  0  0  0
  2  1  1  0  0  0  0
  3  7  1  6  0  0  0
  3  1  1  0  0  0  0
  5  2  1  0  0  0  0
  6  2  1  0  0  0  0
  8 13  1  6  0  0  0
  9 10  1  1  0  0  0
  9  3  1  0  0  0  0
  9  8  1  0  0  0  0
 10 11  1  0  0  0  0
 11 12  1  0  0  0  0
 12  8  1  0  0  0  0
 12 15  1  1  0  0  0
 13 14  1  0  0  0  0
 15 16  1  0  0  0  0
 17 20  1  0  0  0  0
 18 17  2  0  0  0  0
 19 25  1  0  0  0  0
 19 24  1  0  0  0  0
 20 19  2  0  0  0  0
 21 20  1  0  0  0  0
 21 22  2  0  0  0  0
 22 23  1  0  0  0  0
 23 24  2  0  0  0  0
 23 27  1  0  0  0  0
 26 21  1  0  0  0  0
M  END
>  <minimizedAffinity>
-4.81903791

$$$$

 OpenBabel03242512073D

 27 29  0  0  1  0  0  0  0  0999 V2000
   37.3050   27.7050   40.0040 C   0  0  1  0  0  0  0  0  0  0  0  0
   36.1490   27.5660   38.9560 C   0  0  0  0  0  0  0  0  0  0  0  0
   36.1940   28.6270   40.0050 C   0  0  2  0  0  0  0  0  0  0  0  0
   38.2380   27.7210   39.3730 H   0  0  0  0  0  0  0  0  0  0  0  0
   36.3490   27.7840   37.9130 H   0  0  0  0  0  0  0  0  0  0  0  0
   35.4410   26.7270   39.1080 H   0  0  0  0  0  0  0  0  0  0  0  0
   35.4670   28.5110   40.8380 H   0  0  0  0  0  0  0  0  0  0  0  0
   36.6400   30.9410   40.6620 C   0  0  1  0  0  3  0  0  0  0  0  0
   36.3060   30.0360   39.4750 C   0  0  1  0  0  3  0  0  0  0  0  0
   37.4150   30.2280   38.6730 O   0  0  0  0  0  0  0  0  0  0  0  0
   37.7650   31.5590   38.7290 C   0  0  0  0  0  2  0  0  0  0  0  0
   37.0230   32.2000   39.8730 C   0  0  2  0  0  3  0  0  0  0  0  0
   35.5820   31.1340   41.5080 O   0  0  0  0  0  0  0  0  0  0  0  0
   35.8160   30.7150   42.3930 H   0  0  0  0  0  0  0  0  0  0  0  0
   37.8250   33.0180   40.6640 O   0  0  0  0  0  0  0  0  0  0  0  0
   37.2060   33.4580   41.3010 H   0  0  0  0  0  0  0  0  0  0  0  0
   37.3450   26.5590   40.9590 C   0  0  0  0  0  0  0  0  0  0  0  0
   36.9710   26.7910   42.1140 O   0  0  0  0  0  0  0  0  0  0  0  0
   38.9550   25.0150   39.9660 C   0  0  0  0  0  0  0  0  0  0  0  0
   37.7720   25.2390   40.6160 C   0  0  0  0  0  0  0  0  0  0  0  0
   36.9670   24.1380   40.9610 C   0  0  0  0  0  0  0  0  0  0  0  0
   37.3910   22.8850   40.6360 N   0  0  0  0  0  0  0  0  0  0  0  0
   38.5680   22.6960   39.9920 C   0  0  0  0  0  0  0  0  0  0  0  0
   39.3240   23.7370   39.6680 N   0  0  0  0  0  0  0  0  0  0  0  0
   39.6280   25.8040   39.6670 H   0  0  0  0  0  0  0  0  0  0  0  0
   36.0240   24.3290   41.4810 H   0  0  0  0  0  0  0  0  0  0  0  0
   38.8590   21.6610   39.7550 H   0  0  0  0  0  0  0  0  0  0  0  0
  1  4  1  6  0  0  0
  1  3  1  0  0  0  0
  1 17  1  0  0  0  0
  2  6  1  0  0  0  0
  2  1  1  0  0  0  0
  2  3  1  0  0  0  0
  3  7  1  1  0  0  0
  5  2  1  0  0  0  0
  8 13  1  1  0  0  0
  9 10  1  6  0  0  0
  9  3  1  0  0  0  0
  9  8  1  0  0  0  0
 10 11  1  0  0  0  0
 11 12  1  0  0  0  0
 12  8  1  0  0  0  0
 12 15  1  1  0  0  0
 13 14  1  0  0  0  0
 15 16  1  0  0  0  0
 17 18  2  0  0  0  0
 19 20  1  0  0  0  0
 20 17  1  0  0  0  0
 20 21  2  0  0  0  0
 21 26  1  0  0  0  0
 22 21  1  0  0  0  0
 23 22  2  0  0  0  0
 24 19  2  0  0  0  0
 24 23  1  0  0  0  0
 25 19  1  0  0  0  0
 27 23  1  0  0  0  0
M  END
>  <minimizedAffinity>
-4.79676723

$$$$

 OpenBabel03242512073D

 27 29  0  0  1  0  0  0  0  0999 V2000
   36.9640   26.9930   42.2360 C   0  0  1  0  0  0  0  0  0  0  0  0
   36.7460   27.5610   43.6790 C   0  0  0  0  0  0  0  0  0  0  0  0
   37.6300   28.2010   42.6610 C   0  0  2  0  0  0  0  0  0  0  0  0
   35.9170   26.8630   41.8390 H   0  0  0  0  0  0  0  0  0  0  0  0
   35.7830   27.9800   43.9460 H   0  0  0  0  0  0  0  0  0  0  0  0
   37.2370   27.0100   44.5070 H   0  0  0  0  0  0  0  0  0  0  0  0
   38.7220   28.1130   42.8480 H   0  0  0  0  0  0  0  0  0  0  0  0
   38.3300   30.1700   41.3890 C   0  0  1  0  0  3  0  0  0  0  0  0
   37.1880   29.5730   42.2140 C   0  0  1  0  0  3  0  0  0  0  0  0
   36.1720   29.5390   41.2780 O   0  0  0  0  0  0  0  0  0  0  0  0
   36.2410   30.6880   40.5210 C   0  0  0  0  0  2  0  0  0  0  0  0
   37.5640   31.3560   40.7880 C   0  0  2  0  0  3  0  0  0  0  0  0
   39.4030   30.5490   42.1480 O   0  0  0  0  0  0  0  0  0  0  0  0
   40.1820   29.9630   41.8930 H   0  0  0  0  0  0  0  0  0  0  0  0
   38.2090   31.7870   39.6310 O   0  0  0  0  0  0  0  0  0  0  0  0
   38.9990   32.2990   39.9450 H   0  0  0  0  0  0  0  0  0  0  0  0
   37.6810   25.6840   42.2440 C   0  0  0  0  0  0  0  0  0  0  0  0
   36.9770   24.6700   42.2970 O   0  0  0  0  0  0  0  0  0  0  0  0
   39.8430   25.2740   43.3040 C   0  0  0  0  0  0  0  0  0  0  0  0
   39.1020   25.5450   42.1860 C   0  0  0  0  0  0  0  0  0  0  0  0
   39.7620   25.6780   40.9490 C   0  0  0  0  0  0  0  0  0  0  0  0
   41.1160   25.5330   40.9060 N   0  0  0  0  0  0  0  0  0  0  0  0
   41.8210   25.2650   42.0320 C   0  0  0  0  0  0  0  0  0  0  0  0
   41.1950   25.1410   43.1960 N   0  0  0  0  0  0  0  0  0  0  0  0
   39.4130   25.1580   44.2880 H   0  0  0  0  0  0  0  0  0  0  0  0
   39.1590   25.8940   40.0630 H   0  0  0  0  0  0  0  0  0  0  0  0
   42.9120   25.1590   41.9370 H   0  0  0  0  0  0  0  0  0  0  0  0
  1  4  1  6  0  0  0
  1 17  1  0  0  0  0
  1  3  1  0  0  0  0
  1  2  1  0  0  0  0
  2  5  1  0  0  0  0
  2  6  1  0  0  0  0
  3  7  1  1  0  0  0
  3  2  1  0  0  0  0
  8 13  1  1  0  0  0
  8  9  1  0  0  0  0
  9 10  1  6  0  0  0
  9  3  1  0  0  0  0
 11 12  1  0  0  0  0
 11 10  1  0  0  0  0
 12 15  1  6  0  0  0
 12  8  1  0  0  0  0
 14 13  1  0  0  0  0
 15 16  1  0  0  0  0
 17 18  2  0  0  0  0
 19 25  1  0  0  0  0
 20 17  1  0  0  0  0
 20 19  2  0  0  0  0
 21 20  1  0  0  0  0
 22 21  2  0  0  0  0
 22 23  1  0  0  0  0
 23 24  2  0  0  0  0
 24 19  1  0  0  0  0
 26 21  1  0  0  0  0
 27 23  1  0  0  0  0
M  END
>  <minimizedAffinity>
-4.71739101

$$$$

 OpenBabel03242512073D

 27 29  0  0  1  0  0  0  0  0999 V2000
   37.4830   29.5590   39.3850 C   0  0  1  0  0  0  0  0  0  0  0  0
   38.0070   29.5200   37.9090 C   0  0  0  0  0  0  0  0  0  0  0  0
   37.2390   30.6620   38.4860 C   0  0  2  0  0  0  0  0  0  0  0  0
   38.4010   29.3360   40.0000 H   0  0  0  0  0  0  0  0  0  0  0  0
   39.0730   29.5830   37.7210 H   0  0  0  0  0  0  0  0  0  0  0  0
   37.4710   28.8460   37.2100 H   0  0  0  0  0  0  0  0  0  0  0  0
   36.1940   30.7720   38.1240 H   0  0  0  0  0  0  0  0  0  0  0  0
   37.9700   32.4170   40.0280 C   0  0  1  0  0  3  0  0  0  0  0  0
   38.0040   31.9610   38.5680 C   0  0  1  0  0  3  0  0  0  0  0  0
   39.3630   31.8060   38.3690 O   0  0  0  0  0  0  0  0  0  0  0  0
   40.0160   32.8310   39.0150 C   0  0  0  0  0  2  0  0  0  0  0  0
   39.0390   33.5130   39.9370 C   0  0  2  0  0  3  0  0  0  0  0  0
   36.7460   32.8870   40.4170 O   0  0  0  0  0  0  0  0  0  0  0  0
   36.3850   32.2590   41.1180 H   0  0  0  0  0  0  0  0  0  0  0  0
   39.5570   33.7630   41.2050 O   0  0  0  0  0  0  0  0  0  0  0  0
   38.8680   34.3040   41.6700 H   0  0  0  0  0  0  0  0  0  0  0  0
   36.4270   28.5360   39.6380 C   0  0  0  0  0  0  0  0  0  0  0  0
   35.3060   28.7750   39.1780 O   0  0  0  0  0  0  0  0  0  0  0  0
   36.6040   26.1020   39.7380 C   0  0  0  0  0  0  0  0  0  0  0  0
   36.6400   27.3200   40.3590 C   0  0  0  0  0  0  0  0  0  0  0  0
   36.9060   27.3710   41.7410 C   0  0  0  0  0  0  0  0  0  0  0  0
   37.1170   26.2050   42.4130 N   0  0  0  0  0  0  0  0  0  0  0  0
   37.0740   25.0140   41.7690 C   0  0  0  0  0  0  0  0  0  0  0  0
   36.8230   24.9710   40.4660 N   0  0  0  0  0  0  0  0  0  0  0  0
   36.4070   25.9780   38.6830 H   0  0  0  0  0  0  0  0  0  0  0  0
   36.9330   28.3500   42.2260 H   0  0  0  0  0  0  0  0  0  0  0  0
   37.2520   24.1060   42.3640 H   0  0  0  0  0  0  0  0  0  0  0  0
  1 17  1  0  0  0  0
  1  4  1  1  0  0  0
  2  3  1  0  0  0  0
  2  1  1  0  0  0  0
  3  7  1  6  0  0  0
  3  9  1  0  0  0  0
  3  1  1  0  0  0  0
  5  2  1  0  0  0  0
  6  2  1  0  0  0  0
  8 13  1  6  0  0  0
  9 10  1  1  0  0  0
  9  8  1  0  0  0  0
 10 11  1  0  0  0  0
 11 12  1  0  0  0  0
 12  8  1  0  0  0  0
 12 15  1  1  0  0  0
 13 14  1  0  0  0  0
 15 16  1  0  0  0  0
 17 20  1  0  0  0  0
 18 17  2  0  0  0  0
 19 20  2  0  0  0  0
 19 24  1  0  0  0  0
 20 21  1  0  0  0  0
 21 26  1  0  0  0  0
 21 22  2  0  0  0  0
 23 27  1  0  0  0  0
 23 22  1  0  0  0  0
 24 23  2  0  0  0  0
 25 19  1  0  0  0  0
M  END
>  <minimizedAffinity>
-4.69992685

$$$$
