
 OpenBabel03252504563D

 31 33  0  0  1  0  0  0  0  0999 V2000
   47.1190   34.6010   41.6230 N   0  0  0  0  0  0  0  0  0  0  0  0
   47.5360   34.3130   40.2830 C   0  0  0  0  0  0  0  0  0  0  0  0
   48.7460   35.2040   40.1510 C   0  0  0  0  0  0  0  0  0  0  0  0
   48.9860   35.8960   41.4390 C   0  0  0  0  0  0  0  0  0  0  0  0
   48.1440   35.0010   42.4460 C   0  0  2  0  0  0  0  0  0  0  0  0
   47.2430   33.7070   39.4610 H   0  0  0  0  0  0  0  0  0  0  0  0
   49.3750   35.2920   39.2530 H   0  0  0  0  0  0  0  0  0  0  0  0
   48.6340   36.9120   41.4480 H   0  0  0  0  0  0  0  0  0  0  0  0
   50.0370   35.7740   41.6940 H   0  0  0  0  0  0  0  0  0  0  0  0
   48.0190   35.6720   43.2870 H   0  0  0  0  0  0  0  0  0  0  0  0
   50.3250   33.7320   41.9260 C   0  0  2  0  0  0  0  0  0  0  0  0
   49.1900   33.9520   42.8240 C   0  0  2  0  0  0  0  0  0  0  0  0
   48.5990   32.7100   43.0350 O   0  0  0  0  0  0  0  0  0  0  0  0
   49.1430   31.7800   42.1780 C   0  0  0  0  0  0  0  0  0  0  0  0
   49.7790   32.5980   41.0480 C   0  0  2  0  0  0  0  0  0  0  0  0
   51.4310   33.2390   42.6640 O   0  0  0  0  0  0  0  0  0  0  0  0
   51.6000   33.7850   43.4560 H   0  0  0  0  0  0  0  0  0  0  0  0
   50.8380   31.9650   40.4550 O   0  0  0  0  0  0  0  0  0  0  0  0
   50.5510   31.1570   39.9670 H   0  0  0  0  0  0  0  0  0  0  0  0
   45.7700   34.5300   41.8910 C   0  0  0  0  0  0  0  0  0  0  0  0
   45.0720   35.0810   41.2130 H   0  0  0  0  0  0  0  0  0  0  0  0
   45.4220   33.4580   41.7270 H   0  0  0  0  0  0  0  0  0  0  0  0
   44.4160   36.0940   45.0550 C   0  0  0  0  0  0  0  0  0  0  0  0
   44.7750   35.9740   43.7100 C   0  0  0  0  0  0  0  0  0  0  0  0
   45.3780   34.8400   43.2520 C   0  0  0  0  0  0  0  0  0  0  0  0
   45.5840   33.9050   44.1750 N   0  0  0  0  0  0  0  0  0  0  0  0
   45.2470   33.9880   45.5030 C   0  0  0  0  0  0  0  0  0  0  0  0
   44.6600   35.0970   45.9310 N   0  0  0  0  0  0  0  0  0  0  0  0
   43.9430   37.0420   45.2910 H   0  0  0  0  0  0  0  0  0  0  0  0
   44.5890   36.7640   42.9900 H   0  0  0  0  0  0  0  0  0  0  0  0
   45.4750   33.1490   46.1410 H   0  0  0  0  0  0  0  0  0  0  0  0
  1 20  1  0  0  0  0
  1  5  1  0  0  0  0
  2  1  1  0  0  0  0
  3  2  2  0  0  0  0
  3  4  1  0  0  0  0
  4  8  1  0  0  0  0
  4  9  1  0  0  0  0
  4  5  1  0  0  0  0
  5 12  1  0  0  0  0
  5 10  1  1  0  0  0
  6  2  1  0  0  0  0
  7  3  1  0  0  0  0
 11 16  1  1  0  0  0
 11 12  1  0  0  0  0
 12 13  1  6  0  0  0
 14 13  1  0  0  0  0
 15 18  1  1  0  0  0
 15 11  1  0  0  0  0
 15 14  1  0  0  0  0
 16 17  1  0  0  0  0
 19 18  1  0  0  0  0
 20 25  1  0  0  0  0
 21 20  1  0  0  0  0
 22 20  1  0  0  0  0
 23 29  1  0  0  0  0
 23 28  1  0  0  0  0
 24 23  2  0  0  0  0
 25 24  1  0  0  0  0
 25 26  2  0  0  0  0
 26 27  1  0  0  0  0
 27 28  2  0  0  0  0
 27 31  1  0  0  0  0
 30 24  1  0  0  0  0
M  END
>  <minimizedAffinity>
-5.6723175

>  <minimizedRMSD>
0.748325229

$$$$
