
 OpenBabel03252509143D

 45 49  0  0  1  0  0  0  0  0999 V2000
   44.5750   35.0250   42.4750 S   0  0  0  0  0  0  0  0  0  0  0  0
   47.4260   32.4780   43.9280 C   0  0  0  0  0  0  0  0  0  0  0  0
   46.6300   33.2640   43.0940 C   0  0  0  0  0  0  0  0  0  0  0  0
   45.5730   34.0340   43.5530 C   0  0  0  0  0  0  0  0  0  0  0  0
   45.2780   34.0310   44.9260 C   0  0  0  0  0  0  0  0  0  0  0  0
   44.3640   34.6290   45.7140 N   0  0  0  0  0  0  0  0  0  0  0  0
   44.5510   34.2560   46.9920 C   0  0  0  0  0  0  0  0  0  0  0  0
   45.6000   33.4140   46.9770 N   0  0  0  0  0  0  0  0  0  0  0  0
   46.0730   33.2520   45.7280 C   0  0  0  0  0  0  0  0  0  0  0  0
   47.1370   32.4720   45.2930 C   0  0  0  0  0  0  0  0  0  0  0  0
   48.2190   31.9150   43.4920 H   0  0  0  0  0  0  0  0  0  0  0  0
   43.6170   35.2930   45.3550 H   0  0  0  0  0  0  0  0  0  0  0  0
   43.9820   34.5620   47.8650 H   0  0  0  0  0  0  0  0  0  0  0  0
   47.7330   31.8760   45.9580 H   0  0  0  0  0  0  0  0  0  0  0  0
   46.8000   32.2460   39.5770 C   0  0  0  0  0  0  0  0  0  0  0  0
   47.4770   33.3170   38.9790 C   0  0  0  0  0  0  0  0  0  0  0  0
   47.8690   34.3810   39.7910 C   0  0  0  0  0  0  0  0  0  0  0  0
   47.5810   34.3370   41.1240 N   0  0  0  0  0  0  0  0  0  0  0  0
   46.9230   33.2780   41.6580 C   0  0  0  0  0  0  0  0  0  0  0  0
   46.5200   32.2210   40.9160 N   0  0  0  0  0  0  0  0  0  0  0  0
   46.5230   31.4570   38.9000 H   0  0  0  0  0  0  0  0  0  0  0  0
   47.7020   33.3520   37.9380 H   0  0  0  0  0  0  0  0  0  0  0  0
   48.3950   35.2550   39.4380 H   0  0  0  0  0  0  0  0  0  0  0  0
   42.3300   34.1520   41.3990 N   0  0  0  0  0  0  0  0  0  0  0  0
   43.7630   34.0740   41.1680 C   0  0  1  0  0  0  0  0  0  0  0  0
   44.1540   34.7640   39.8550 C   0  0  0  0  0  0  0  0  0  0  0  0
   43.2890   34.4910   38.8150 O   0  0  0  0  0  0  0  0  0  0  0  0
   42.3740   33.4900   39.0520 C   0  0  0  0  0  0  0  0  0  0  0  0
   41.5470   33.8740   40.2500 C   0  0  1  0  0  0  0  0  0  0  0  0
   42.1360   33.6090   42.2460 H   0  0  0  0  0  0  0  0  0  0  0  0
   44.0980   33.0360   41.1230 H   0  0  0  0  0  0  0  0  0  0  0  0
   44.2540   35.8540   40.0460 H   0  0  0  0  0  0  0  0  0  0  0  0
   45.1120   34.3770   39.5250 H   0  0  0  0  0  0  0  0  0  0  0  0
   42.9310   32.5580   39.2690 H   0  0  0  0  0  0  0  0  0  0  0  0
   41.7450   33.3860   38.1710 H   0  0  0  0  0  0  0  0  0  0  0  0
   40.9950   34.8020   39.9880 H   0  0  0  0  0  0  0  0  0  0  0  0
   40.1780   32.5920   41.9160 C   0  0  2  0  0  3  0  0  0  0  0  0
   40.5100   32.8070   40.4420 C   0  0  2  0  0  3  0  0  0  0  0  0
   40.8700   31.5420   40.0690 O   0  0  0  0  0  0  0  0  0  0  0  0
   39.7750   30.7850   40.4820 C   0  0  0  0  0  2  0  0  0  0  0  0
   39.2340   31.3930   41.7460 C   0  0  2  0  0  3  0  0  0  0  0  0
   39.5270   33.6580   42.4880 O   0  0  0  0  0  0  0  0  0  0  0  0
   40.2050   34.2630   42.9070 H   0  0  0  0  0  0  0  0  0  0  0  0
   37.9760   31.9760   41.4720 O   0  0  0  0  0  0  0  0  0  0  0  0
   37.7680   31.8780   40.5070 H   0  0  0  0  0  0  0  0  0  0  0  0
  1  4  1  0  0  0  0
  2 10  1  0  0  0  0
  3  4  1  0  0  0  0
  3  2  2  0  0  0  0
  4  5  2  0  0  0  0
  5  6  1  0  0  0  0
  5  9  1  0  0  0  0
  6  7  1  0  0  0  0
  7 13  1  0  0  0  0
  8  7  2  0  0  0  0
  9  8  1  0  0  0  0
 10  9  2  0  0  0  0
 10 14  1  0  0  0  0
 11  2  1  0  0  0  0
 12  6  1  0  0  0  0
 15 20  1  0  0  0  0
 16 15  2  0  0  0  0
 16 17  1  0  0  0  0
 17 18  2  0  0  0  0
 18 19  1  0  0  0  0
 19  3  1  0  0  0  0
 20 19  2  0  0  0  0
 21 15  1  0  0  0  0
 22 16  1  0  0  0  0
 23 17  1  0  0  0  0
 24 30  1  0  0  0  0
 25 31  1  1  0  0  0
 25 24  1  0  0  0  0
 25  1  1  0  0  0  0
 26 32  1  0  0  0  0
 26 25  1  0  0  0  0
 27 28  1  0  0  0  0
 27 26  1  0  0  0  0
 28 34  1  0  0  0  0
 28 29  1  0  0  0  0
 29 36  1  6  0  0  0
 29 38  1  0  0  0  0
 29 24  1  0  0  0  0
 33 26  1  0  0  0  0
 35 28  1  0  0  0  0
 37 42  1  6  0  0  0
 38 39  1  1  0  0  0
 38 37  1  0  0  0  0
 39 40  1  0  0  0  0
 40 41  1  0  0  0  0
 41 44  1  6  0  0  0
 41 37  1  0  0  0  0
 42 43  1  0  0  0  0
 45 44  1  0  0  0  0
M  END
>  <minimizedAffinity>
-5.73174095

>  <minimizedRMSD>
1.91932869

$$$$
