
 OpenBabel03252505153D

 25 27  0  0  1  0  0  0  0  0999 V2000
   44.7390   36.0800   44.2970 C   0  0  0  0  0  0  0  0  0  0  0  0
   45.4700   36.0610   43.1000 C   0  0  0  0  0  0  0  0  0  0  0  0
   46.2220   34.9080   42.8970 C   0  0  0  0  0  0  0  0  0  0  0  0
   46.2090   33.8990   43.8330 N   0  0  0  0  0  0  0  0  0  0  0  0
   45.4790   33.9780   44.9680 C   0  0  0  0  0  0  0  0  0  0  0  0
   44.7490   35.0840   45.1800 N   0  0  0  0  0  0  0  0  0  0  0  0
   44.1460   36.9430   44.5000 H   0  0  0  0  0  0  0  0  0  0  0  0
   45.4870   36.8410   42.3670 H   0  0  0  0  0  0  0  0  0  0  0  0
   47.0470   34.7400   41.6500 C   0  0  0  0  0  0  0  0  0  0  0  0
   48.3530   35.4980   41.7090 C   0  0  0  0  0  0  0  0  0  0  0  0
   48.2680   33.9480   41.7320 C   0  0  0  0  0  0  0  0  0  0  0  0
   46.4860   34.7770   40.6850 H   0  0  0  0  0  0  0  0  0  0  0  0
   48.6530   35.9530   40.7500 H   0  0  0  0  0  0  0  0  0  0  0  0
   48.6150   36.0000   42.6420 H   0  0  0  0  0  0  0  0  0  0  0  0
   48.6840   33.4610   40.8100 H   0  0  0  0  0  0  0  0  0  0  0  0
   48.6020   33.5170   42.6910 H   0  0  0  0  0  0  0  0  0  0  0  0
   47.0510   32.6270   46.3260 C   0  0  2  0  0  3  0  0  0  0  0  0
   45.6310   32.7650   45.8140 C   0  0  2  0  0  3  0  0  0  0  0  0
   45.3420   31.6220   45.0790 O   0  0  0  0  0  0  0  0  0  0  0  0
   46.1620   30.6110   45.5730 C   0  0  0  0  0  2  0  0  0  0  0  0
   47.4970   31.3630   45.6130 C   0  0  1  0  0  3  0  0  0  0  0  0
   47.0820   32.3610   47.6930 O   0  0  0  0  0  0  0  0  0  0  0  0
   46.7890   33.1440   48.2330 H   0  0  0  0  0  0  0  0  0  0  0  0
   47.8360   31.7220   44.3110 O   0  0  0  0  0  0  0  0  0  0  0  0
   47.4600   31.0110   43.7040 H   0  0  0  0  0  0  0  0  0  0  0  0
  1  7  1  0  0  0  0
  1  6  1  0  0  0  0
  2  1  2  0  0  0  0
  3  2  1  0  0  0  0
  3  4  2  0  0  0  0
  4  5  1  0  0  0  0
  5  6  2  0  0  0  0
  8  2  1  0  0  0  0
  9 10  1  0  0  0  0
  9 11  1  0  0  0  0
  9  3  1  0  0  0  0
 10 11  1  0  0  0  0
 10 14  1  0  0  0  0
 11 16  1  0  0  0  0
 12  9  1  0  0  0  0
 13 10  1  0  0  0  0
 15 11  1  0  0  0  0
 17 22  1  1  0  0  0
 18  5  1  6  0  0  0
 18 17  1  0  0  0  0
 19 20  1  0  0  0  0
 19 18  1  0  0  0  0
 20 21  1  0  0  0  0
 21 24  1  6  0  0  0
 21 17  1  0  0  0  0
 22 23  1  0  0  0  0
 25 24  1  0  0  0  0
M  END
>  <minimizedAffinity>
-4.31865978

>  <minimizedRMSD>
0.646703959

$$$$
