
 OpenBabel03242523463D

 19 20  0  0  1  0  0  0  0  0999 V2000
   44.9670   35.4170   44.1510 C   0  0  0  0  0  0  0  0  0  0  0  0
   45.9450   35.0620   43.2060 C   0  0  0  0  0  0  0  0  0  0  0  0
   46.8350   34.0380   43.5560 C   0  0  0  0  0  0  0  0  0  0  0  0
   46.7140   33.4410   44.7780 N   0  0  0  0  0  0  0  0  0  0  0  0
   45.7560   33.8190   45.6500 C   0  0  0  0  0  0  0  0  0  0  0  0
   44.8970   34.7890   45.3430 N   0  0  0  0  0  0  0  0  0  0  0  0
   46.0600   35.5180   42.2390 H   0  0  0  0  0  0  0  0  0  0  0  0
   45.7200   33.2960   46.6070 H   0  0  0  0  0  0  0  0  0  0  0  0
   49.1600   34.3980   42.6970 C   0  0  1  0  0  3  0  0  0  0  0  0
   47.9090   33.5430   42.7050 C   0  0  1  0  0  3  0  0  0  0  0  0
   48.4350   32.3400   43.1650 O   0  0  0  0  0  0  0  0  0  0  0  0
   49.5860   32.1070   42.4390 C   0  0  0  0  0  2  0  0  0  0  0  0
   50.1030   33.4390   41.9630 C   0  0  2  0  0  3  0  0  0  0  0  0
   49.0130   35.5830   41.9980 O   0  0  0  0  0  0  0  0  0  0  0  0
   49.5130   36.3470   42.4240 H   0  0  0  0  0  0  0  0  0  0  0  0
   51.4230   33.6650   42.3010 O   0  0  0  0  0  0  0  0  0  0  0  0
   51.9490   34.0180   41.5340 H   0  0  0  0  0  0  0  0  0  0  0  0
   44.1010   36.4140   43.8090 O   0  0  0  0  0  0  0  0  0  0  0  0
   44.4600   37.2020   43.2840 H   0  0  0  0  0  0  0  0  0  0  0  0
  1  6  1  0  0  0  0
  2  3  1  0  0  0  0
  2  1  2  0  0  0  0
  3  4  2  0  0  0  0
  4  5  1  0  0  0  0
  5  8  1  0  0  0  0
  6  5  2  0  0  0  0
  7  2  1  0  0  0  0
  9 14  1  6  0  0  0
  9 10  1  0  0  0  0
 10 11  1  0  0  0  0
 10  3  1  1  0  0  0
 12 11  1  0  0  0  0
 13 16  1  1  0  0  0
 13 12  1  0  0  0  0
 13  9  1  0  0  0  0
 14 15  1  0  0  0  0
 17 16  1  0  0  0  0
 18  1  1  0  0  0  0
 19 18  1  0  0  0  0
M  END
>  <minimizedAffinity>
-5.00866222

>  <minimizedRMSD>
0.550782204

$$$$
