
 OpenBabel03252505453D

 25 27  0  0  1  0  0  0  0  0999 V2000
   35.5520   29.2810   40.3970 C   0  0  1  0  0  0  0  0  0  0  0  0
   36.1040   30.0410   39.2100 C   0  0  2  0  0  0  0  0  0  0  0  0
   35.3510   28.7530   39.0660 C   0  0  0  0  0  0  0  0  0  0  0  0
   34.7000   29.7850   40.9600 H   0  0  0  0  0  0  0  0  0  0  0  0
   35.4660   30.9340   38.9350 H   0  0  0  0  0  0  0  0  0  0  0  0
   34.3010   28.7660   38.6780 H   0  0  0  0  0  0  0  0  0  0  0  0
   35.8580   27.7930   38.8450 H   0  0  0  0  0  0  0  0  0  0  0  0
   36.5660   28.7850   41.3500 C   0  0  0  0  0  0  0  0  0  0  0  0
   36.9030   27.4180   41.2670 C   0  0  0  0  0  0  0  0  0  0  0  0
   37.8760   26.9230   42.1670 C   0  0  0  0  0  0  0  0  0  0  0  0
   38.4240   27.8240   43.0620 N   0  0  0  0  0  0  0  0  0  0  0  0
   38.0510   29.1180   43.0840 C   0  0  0  0  0  0  0  0  0  0  0  0
   37.1370   29.5930   42.2410 N   0  0  0  0  0  0  0  0  0  0  0  0
   36.4730   26.7150   40.5650 H   0  0  0  0  0  0  0  0  0  0  0  0
   38.1930   25.8890   42.1720 H   0  0  0  0  0  0  0  0  0  0  0  0
   38.5380   29.7580   43.8260 H   0  0  0  0  0  0  0  0  0  0  0  0
   37.8650   30.1900   37.3950 C   0  0  1  0  0  3  0  0  0  0  0  0
   37.5330   30.0990   38.8450 C   0  0  1  0  0  3  0  0  0  0  0  0
   38.0560   31.2910   39.3480 O   0  0  0  0  0  0  0  0  0  0  0  0
   37.4960   32.2480   38.4690 C   0  0  0  0  0  2  0  0  0  0  0  0
   37.7100   31.6510   37.0880 C   0  0  1  0  0  3  0  0  0  0  0  0
   39.2210   29.8650   37.2470 O   0  0  0  0  0  0  0  0  0  0  0  0
   39.7720   30.6360   37.5280 H   0  0  0  0  0  0  0  0  0  0  0  0
   38.9160   32.1960   36.6240 O   0  0  0  0  0  0  0  0  0  0  0  0
   38.7130   33.1060   36.3040 H   0  0  0  0  0  0  0  0  0  0  0  0
  1  4  1  1  0  0  0
  1  8  1  0  0  0  0
  2  5  1  6  0  0  0
  2  1  1  0  0  0  0
  3  2  1  0  0  0  0
  3  1  1  0  0  0  0
  6  3  1  0  0  0  0
  7  3  1  0  0  0  0
  8 13  1  0  0  0  0
  9  8  2  0  0  0  0
  9 10  1  0  0  0  0
 10 15  1  0  0  0  0
 10 11  2  0  0  0  0
 11 12  1  0  0  0  0
 12 16  1  0  0  0  0
 13 12  2  0  0  0  0
 14  9  1  0  0  0  0
 17 22  1  1  0  0  0
 17 18  1  0  0  0  0
 18  2  1  0  0  0  0
 18 19  1  1  0  0  0
 20 19  1  0  0  0  0
 21 24  1  1  0  0  0
 21 17  1  0  0  0  0
 21 20  1  0  0  0  0
 22 23  1  0  0  0  0
 25 24  1  0  0  0  0
M  END
>  <minimizedAffinity>
-4.97806358

$$$$

 OpenBabel03252505453D

 25 27  0  0  1  0  0  0  0  0999 V2000
   40.0610   29.4510   42.0300 C   0  0  1  0  0  0  0  0  0  0  0  0
   39.7290   30.5050   40.9940 C   0  0  2  0  0  0  0  0  0  0  0  0
   40.1320   30.8480   42.3960 C   0  0  0  0  0  0  0  0  0  0  0  0
   41.0090   28.8480   41.8400 H   0  0  0  0  0  0  0  0  0  0  0  0
   40.5750   30.6710   40.2600 H   0  0  0  0  0  0  0  0  0  0  0  0
   41.1550   31.2610   42.5930 H   0  0  0  0  0  0  0  0  0  0  0  0
   39.4010   31.1860   43.1560 H   0  0  0  0  0  0  0  0  0  0  0  0
   38.9470   28.5480   42.3840 C   0  0  0  0  0  0  0  0  0  0  0  0
   38.8200   27.3660   41.6260 C   0  0  0  0  0  0  0  0  0  0  0  0
   37.7630   26.4840   41.9530 C   0  0  0  0  0  0  0  0  0  0  0  0
   36.9330   26.8530   42.9960 N   0  0  0  0  0  0  0  0  0  0  0  0
   37.1160   28.0010   43.6760 C   0  0  0  0  0  0  0  0  0  0  0  0
   38.1070   28.8370   43.3760 N   0  0  0  0  0  0  0  0  0  0  0  0
   39.4710   27.0800   40.8100 H   0  0  0  0  0  0  0  0  0  0  0  0
   37.5930   25.5570   41.4230 H   0  0  0  0  0  0  0  0  0  0  0  0
   36.4100   28.2110   44.4860 H   0  0  0  0  0  0  0  0  0  0  0  0
   37.8260   32.1710   40.8430 C   0  0  1  0  0  3  0  0  0  0  0  0
   38.3640   30.8170   40.5280 C   0  0  1  0  0  3  0  0  0  0  0  0
   38.3780   30.8190   39.1320 O   0  0  0  0  0  0  0  0  0  0  0  0
   39.0620   32.0250   38.8490 C   0  0  0  0  0  2  0  0  0  0  0  0
   38.4120   33.0440   39.7710 C   0  0  1  0  0  3  0  0  0  0  0  0
   36.4380   32.1340   40.6520 O   0  0  0  0  0  0  0  0  0  0  0  0
   36.2430   32.1680   39.6840 H   0  0  0  0  0  0  0  0  0  0  0  0
   37.4010   33.6490   39.0110 O   0  0  0  0  0  0  0  0  0  0  0  0
   37.8400   34.3130   38.4310 H   0  0  0  0  0  0  0  0  0  0  0  0
  1  4  1  6  0  0  0
  1  8  1  0  0  0  0
  1  3  1  0  0  0  0
  2  5  1  6  0  0  0
  2  1  1  0  0  0  0
  2  3  1  0  0  0  0
  3  6  1  0  0  0  0
  3  7  1  0  0  0  0
  8 13  1  0  0  0  0
  9 10  1  0  0  0  0
  9  8  2  0  0  0  0
 10 11  2  0  0  0  0
 11 12  1  0  0  0  0
 12 16  1  0  0  0  0
 13 12  2  0  0  0  0
 14  9  1  0  0  0  0
 15 10  1  0  0  0  0
 17 22  1  6  0  0  0
 18 19  1  6  0  0  0
 18 17  1  0  0  0  0
 18  2  1  0  0  0  0
 20 19  1  0  0  0  0
 20 21  1  0  0  0  0
 21 24  1  6  0  0  0
 21 17  1  0  0  0  0
 23 22  1  0  0  0  0
 25 24  1  0  0  0  0
M  END
>  <minimizedAffinity>
-4.60566282

$$$$

 OpenBabel03252505453D

 25 27  0  0  1  0  0  0  0  0999 V2000
   38.4460   26.7720   39.5540 C   0  0  1  0  0  0  0  0  0  0  0  0
   37.4040   27.8600   39.7090 C   0  0  2  0  0  0  0  0  0  0  0  0
   38.8400   28.1540   39.3950 C   0  0  0  0  0  0  0  0  0  0  0  0
   38.3240   26.0920   38.6480 H   0  0  0  0  0  0  0  0  0  0  0  0
   36.7440   27.9600   38.7950 H   0  0  0  0  0  0  0  0  0  0  0  0
   39.1260   28.4760   38.3610 H   0  0  0  0  0  0  0  0  0  0  0  0
   39.5430   28.5460   40.1560 H   0  0  0  0  0  0  0  0  0  0  0  0
   38.6940   25.9640   40.7650 C   0  0  0  0  0  0  0  0  0  0  0  0
   37.8560   24.8490   40.9690 C   0  0  0  0  0  0  0  0  0  0  0  0
   38.0800   24.0580   42.1210 C   0  0  0  0  0  0  0  0  0  0  0  0
   39.1100   24.4440   42.9610 N   0  0  0  0  0  0  0  0  0  0  0  0
   39.8700   25.5250   42.7010 C   0  0  0  0  0  0  0  0  0  0  0  0
   39.6670   26.2750   41.6200 N   0  0  0  0  0  0  0  0  0  0  0  0
   37.0520   24.5490   40.3100 H   0  0  0  0  0  0  0  0  0  0  0  0
   37.4850   23.1860   42.3550 H   0  0  0  0  0  0  0  0  0  0  0  0
   40.6610   25.7540   43.4210 H   0  0  0  0  0  0  0  0  0  0  0  0
   37.2720   29.6130   41.5340 C   0  0  1  0  0  3  0  0  0  0  0  0
   36.8330   28.2930   41.0000 C   0  0  1  0  0  3  0  0  0  0  0  0
   35.4620   28.4830   40.8190 O   0  0  0  0  0  0  0  0  0  0  0  0
   35.4310   29.6850   40.0740 C   0  0  0  0  0  2  0  0  0  0  0  0
   36.4070   30.5970   40.8010 C   0  0  1  0  0  3  0  0  0  0  0  0
   36.9200   29.6630   42.8900 O   0  0  0  0  0  0  0  0  0  0  0  0
   35.9510   29.8370   42.9680 H   0  0  0  0  0  0  0  0  0  0  0  0
   35.6290   31.3440   41.6970 O   0  0  0  0  0  0  0  0  0  0  0  0
   35.2010   32.0600   41.1740 H   0  0  0  0  0  0  0  0  0  0  0  0
  1  4  1  6  0  0  0
  1  2  1  0  0  0  0
  1  8  1  0  0  0  0
  2  5  1  6  0  0  0
  2 18  1  0  0  0  0
  3  1  1  0  0  0  0
  3  2  1  0  0  0  0
  3  7  1  0  0  0  0
  6  3  1  0  0  0  0
  8  9  2  0  0  0  0
  8 13  1  0  0  0  0
  9 10  1  0  0  0  0
 10 15  1  0  0  0  0
 10 11  2  0  0  0  0
 12 11  1  0  0  0  0
 12 16  1  0  0  0  0
 13 12  2  0  0  0  0
 14  9  1  0  0  0  0
 17 22  1  1  0  0  0
 18 19  1  6  0  0  0
 18 17  1  0  0  0  0
 20 21  1  0  0  0  0
 20 19  1  0  0  0  0
 21 17  1  0  0  0  0
 21 24  1  1  0  0  0
 22 23  1  0  0  0  0
 25 24  1  0  0  0  0
M  END
>  <minimizedAffinity>
-4.57597351

$$$$

 OpenBabel03252505453D

 25 27  0  0  1  0  0  0  0  0999 V2000
   37.4920   30.5780   38.2860 C   0  0  1  0  0  0  0  0  0  0  0  0
   37.4180   29.3990   39.2330 C   0  0  2  0  0  0  0  0  0  0  0  0
   36.1970   30.0690   38.6790 C   0  0  0  0  0  0  0  0  0  0  0  0
   37.9160   30.3600   37.2520 H   0  0  0  0  0  0  0  0  0  0  0  0
   37.6300   28.4150   38.7160 H   0  0  0  0  0  0  0  0  0  0  0  0
   35.5990   29.5580   37.8820 H   0  0  0  0  0  0  0  0  0  0  0  0
   35.5720   30.7540   39.2840 H   0  0  0  0  0  0  0  0  0  0  0  0
   38.1190   31.7930   38.8450 C   0  0  0  0  0  0  0  0  0  0  0  0
   37.2500   32.7810   39.3530 C   0  0  0  0  0  0  0  0  0  0  0  0
   37.8290   33.9510   39.8980 C   0  0  0  0  0  0  0  0  0  0  0  0
   39.2110   34.0340   39.8900 N   0  0  0  0  0  0  0  0  0  0  0  0
   39.9780   33.0480   39.3860 C   0  0  0  0  0  0  0  0  0  0  0  0
   39.4420   31.9440   38.8710 N   0  0  0  0  0  0  0  0  0  0  0  0
   36.1700   32.7140   39.3580 H   0  0  0  0  0  0  0  0  0  0  0  0
   37.2380   34.7580   40.3080 H   0  0  0  0  0  0  0  0  0  0  0  0
   41.0610   33.2000   39.4230 H   0  0  0  0  0  0  0  0  0  0  0  0
   36.6300   29.0060   41.6090 C   0  0  1  0  0  3  0  0  0  0  0  0
   37.6990   29.4710   40.6800 C   0  0  1  0  0  3  0  0  0  0  0  0
   38.7430   28.5880   40.9580 O   0  0  0  0  0  0  0  0  0  0  0  0
   38.0990   27.3320   40.8530 C   0  0  0  0  0  2  0  0  0  0  0  0
   36.8050   27.5150   41.6310 C   0  0  1  0  0  3  0  0  0  0  0  0
   36.9360   29.4890   42.8890 O   0  0  0  0  0  0  0  0  0  0  0  0
   37.6590   28.9400   43.2790 H   0  0  0  0  0  0  0  0  0  0  0  0
   37.0800   27.0620   42.9300 O   0  0  0  0  0  0  0  0  0  0  0  0
   37.0370   26.0780   42.9030 H   0  0  0  0  0  0  0  0  0  0  0  0
  1  4  1  6  0  0  0
  1  3  1  0  0  0  0
  1  8  1  0  0  0  0
  1  2  1  0  0  0  0
  2  5  1  6  0  0  0
  2 18  1  0  0  0  0
  3  2  1  0  0  0  0
  3  7  1  0  0  0  0
  6  3  1  0  0  0  0
  8 13  2  0  0  0  0
  8  9  1  0  0  0  0
  9 14  1  0  0  0  0
  9 10  2  0  0  0  0
 10 15  1  0  0  0  0
 11 10  1  0  0  0  0
 12 16  1  0  0  0  0
 12 11  2  0  0  0  0
 13 12  1  0  0  0  0
 17 21  1  0  0  0  0
 17 22  1  1  0  0  0
 18 19  1  6  0  0  0
 18 17  1  0  0  0  0
 20 19  1  0  0  0  0
 20 21  1  0  0  0  0
 21 24  1  1  0  0  0
 22 23  1  0  0  0  0
 25 24  1  0  0  0  0
M  END
>  <minimizedAffinity>
-4.55314207

$$$$

 OpenBabel03252505453D

 25 27  0  0  1  0  0  0  0  0999 V2000
   38.7860   26.7040   42.9200 C   0  0  1  0  0  0  0  0  0  0  0  0
   38.5080   28.0930   42.3860 C   0  0  2  0  0  0  0  0  0  0  0  0
   37.8320   27.5460   43.6070 C   0  0  0  0  0  0  0  0  0  0  0  0
   39.8280   26.5340   43.3470 H   0  0  0  0  0  0  0  0  0  0  0  0
   39.3250   28.8300   42.6510 H   0  0  0  0  0  0  0  0  0  0  0  0
   38.1320   27.9180   44.6190 H   0  0  0  0  0  0  0  0  0  0  0  0
   36.7810   27.1960   43.5940 H   0  0  0  0  0  0  0  0  0  0  0  0
   38.4240   25.5980   42.0100 C   0  0  0  0  0  0  0  0  0  0  0  0
   37.1190   25.0770   42.1290 C   0  0  0  0  0  0  0  0  0  0  0  0
   36.7490   24.0210   41.2640 C   0  0  0  0  0  0  0  0  0  0  0  0
   37.7020   23.5800   40.3630 N   0  0  0  0  0  0  0  0  0  0  0  0
   38.9320   24.1270   40.3070 C   0  0  0  0  0  0  0  0  0  0  0  0
   39.2890   25.1210   41.1170 N   0  0  0  0  0  0  0  0  0  0  0  0
   36.3750   25.4240   42.8350 H   0  0  0  0  0  0  0  0  0  0  0  0
   35.7700   23.5630   41.2870 H   0  0  0  0  0  0  0  0  0  0  0  0
   39.6200   23.7150   39.5630 H   0  0  0  0  0  0  0  0  0  0  0  0
   36.3270   28.8890   41.3720 C   0  0  1  0  0  3  0  0  0  0  0  0
   37.7130   28.3790   41.1750 C   0  0  1  0  0  3  0  0  0  0  0  0
   38.3270   29.4350   40.5000 O   0  0  0  0  0  0  0  0  0  0  0  0
   38.0010   30.5380   41.3250 C   0  0  0  0  0  2  0  0  0  0  0  0
   36.5200   30.3580   41.6140 C   0  0  1  0  0  3  0  0  0  0  0  0
   35.6420   28.7440   40.1570 O   0  0  0  0  0  0  0  0  0  0  0  0
   35.9280   29.4580   39.5360 H   0  0  0  0  0  0  0  0  0  0  0  0
   35.8510   31.1180   40.6430 O   0  0  0  0  0  0  0  0  0  0  0  0
   35.8930   32.0560   40.9380 H   0  0  0  0  0  0  0  0  0  0  0  0
  1  4  1  1  0  0  0
  1  3  1  0  0  0  0
  2  5  1  1  0  0  0
  2  1  1  0  0  0  0
  2  3  1  0  0  0  0
  3  6  1  0  0  0  0
  7  3  1  0  0  0  0
  8  9  1  0  0  0  0
  8  1  1  0  0  0  0
  9 14  1  0  0  0  0
 10 15  1  0  0  0  0
 10  9  2  0  0  0  0
 11 10  1  0  0  0  0
 12 11  2  0  0  0  0
 12 13  1  0  0  0  0
 13  8  2  0  0  0  0
 16 12  1  0  0  0  0
 17 22  1  6  0  0  0
 17 21  1  0  0  0  0
 18 19  1  6  0  0  0
 18 17  1  0  0  0  0
 18  2  1  0  0  0  0
 19 20  1  0  0  0  0
 20 21  1  0  0  0  0
 21 24  1  6  0  0  0
 23 22  1  0  0  0  0
 24 25  1  0  0  0  0
M  END
>  <minimizedAffinity>
-4.52446175

$$$$

 OpenBabel03252505453D

 25 27  0  0  1  0  0  0  0  0999 V2000
   36.3620   27.7980   42.3670 C   0  0  1  0  0  0  0  0  0  0  0  0
   37.3700   26.6910   42.5900 C   0  0  2  0  0  0  0  0  0  0  0  0
   36.9430   27.6280   43.6800 C   0  0  0  0  0  0  0  0  0  0  0  0
   35.2940   27.4640   42.1530 H   0  0  0  0  0  0  0  0  0  0  0  0
   36.8800   25.6750   42.6930 H   0  0  0  0  0  0  0  0  0  0  0  0
   36.2570   27.2640   44.4860 H   0  0  0  0  0  0  0  0  0  0  0  0
   37.5880   28.4560   44.0330 H   0  0  0  0  0  0  0  0  0  0  0  0
   36.7730   28.8340   41.3970 C   0  0  0  0  0  0  0  0  0  0  0  0
   36.4310   28.6130   40.0470 C   0  0  0  0  0  0  0  0  0  0  0  0
   36.8110   29.5940   39.1020 C   0  0  0  0  0  0  0  0  0  0  0  0
   37.4910   30.7010   39.5790 N   0  0  0  0  0  0  0  0  0  0  0  0
   37.7840   30.8440   40.8860 C   0  0  0  0  0  0  0  0  0  0  0  0
   37.4310   29.9250   41.7830 N   0  0  0  0  0  0  0  0  0  0  0  0
   35.8990   27.7460   39.6760 H   0  0  0  0  0  0  0  0  0  0  0  0
   36.5900   29.5050   38.0470 H   0  0  0  0  0  0  0  0  0  0  0  0
   38.3240   31.7510   41.1730 H   0  0  0  0  0  0  0  0  0  0  0  0
   39.8450   26.6060   43.1230 C   0  0  1  0  0  3  0  0  0  0  0  0
   38.7630   26.7190   42.1050 C   0  0  1  0  0  3  0  0  0  0  0  0
   38.9670   25.5800   41.3240 O   0  0  0  0  0  0  0  0  0  0  0  0
   39.0250   24.5610   42.3040 C   0  0  0  0  0  2  0  0  0  0  0  0
   39.9430   25.1290   43.3740 C   0  0  1  0  0  3  0  0  0  0  0  0
   41.0430   27.0160   42.5210 O   0  0  0  0  0  0  0  0  0  0  0  0
   41.3760   26.2930   41.9360 H   0  0  0  0  0  0  0  0  0  0  0  0
   41.2250   24.6520   43.0630 O   0  0  0  0  0  0  0  0  0  0  0  0
   41.2680   23.7220   43.3840 H   0  0  0  0  0  0  0  0  0  0  0  0
  1  4  1  6  0  0  0
  1  2  1  0  0  0  0
  1  3  1  0  0  0  0
  2  5  1  1  0  0  0
  2  3  1  0  0  0  0
  3  7  1  0  0  0  0
  3  6  1  0  0  0  0
  8 13  1  0  0  0  0
  8  1  1  0  0  0  0
  9  8  2  0  0  0  0
 10 11  2  0  0  0  0
 10  9  1  0  0  0  0
 11 12  1  0  0  0  0
 12 16  1  0  0  0  0
 12 13  2  0  0  0  0
 14  9  1  0  0  0  0
 15 10  1  0  0  0  0
 17 22  1  6  0  0  0
 17 21  1  0  0  0  0
 18 19  1  6  0  0  0
 18  2  1  0  0  0  0
 18 17  1  0  0  0  0
 19 20  1  0  0  0  0
 20 21  1  0  0  0  0
 21 24  1  6  0  0  0
 23 22  1  0  0  0  0
 24 25  1  0  0  0  0
M  END
>  <minimizedAffinity>
-4.51378584

$$$$

 OpenBabel03252505453D

 25 27  0  0  1  0  0  0  0  0999 V2000
   36.3340   30.8150   40.0690 C   0  0  1  0  0  0  0  0  0  0  0  0
   36.3780   30.0930   38.7390 C   0  0  2  0  0  0  0  0  0  0  0  0
   36.4670   29.3750   40.0510 C   0  0  0  0  0  0  0  0  0  0  0  0
   35.3430   31.3060   40.3370 H   0  0  0  0  0  0  0  0  0  0  0  0
   35.3530   29.9880   38.2700 H   0  0  0  0  0  0  0  0  0  0  0  0
   35.5890   28.7880   40.4230 H   0  0  0  0  0  0  0  0  0  0  0  0
   37.4230   28.9740   40.4420 H   0  0  0  0  0  0  0  0  0  0  0  0
   37.4480   31.7560   40.3080 C   0  0  0  0  0  0  0  0  0  0  0  0
   37.2890   33.0680   39.8180 C   0  0  0  0  0  0  0  0  0  0  0  0
   38.3410   33.9870   40.0400 C   0  0  0  0  0  0  0  0  0  0  0  0
   39.4490   33.5240   40.7270 N   0  0  0  0  0  0  0  0  0  0  0  0
   39.5310   32.2530   41.1660 C   0  0  0  0  0  0  0  0  0  0  0  0
   38.5460   31.3810   40.9610 N   0  0  0  0  0  0  0  0  0  0  0  0
   36.4210   33.4280   39.2810 H   0  0  0  0  0  0  0  0  0  0  0  0
   38.3020   35.0120   39.6980 H   0  0  0  0  0  0  0  0  0  0  0  0
   40.4450   31.9750   41.7000 H   0  0  0  0  0  0  0  0  0  0  0  0
   37.9880   28.7790   37.2890 C   0  0  1  0  0  3  0  0  0  0  0  0
   37.5370   30.0940   37.8250 C   0  0  1  0  0  3  0  0  0  0  0  0
   37.1670   30.7790   36.6660 O   0  0  0  0  0  0  0  0  0  0  0  0
   36.3080   29.8460   36.0380 C   0  0  0  0  0  2  0  0  0  0  0  0
   37.0580   28.5280   36.1380 C   0  0  1  0  0  3  0  0  0  0  0  0
   39.2770   28.9500   36.7660 O   0  0  0  0  0  0  0  0  0  0  0  0
   39.2140   29.4020   35.8890 H   0  0  0  0  0  0  0  0  0  0  0  0
   37.7700   28.4070   34.9360 O   0  0  0  0  0  0  0  0  0  0  0  0
   37.1280   28.1000   34.2550 H   0  0  0  0  0  0  0  0  0  0  0  0
  1  8  1  0  0  0  0
  1  4  1  1  0  0  0
  2  5  1  6  0  0  0
  2  3  1  0  0  0  0
  2  1  1  0  0  0  0
  3  1  1  0  0  0  0
  3  6  1  0  0  0  0
  3  7  1  0  0  0  0
  8 13  1  0  0  0  0
  9 10  1  0  0  0  0
  9  8  2  0  0  0  0
 10 11  2  0  0  0  0
 11 12  1  0  0  0  0
 12 16  1  0  0  0  0
 13 12  2  0  0  0  0
 14  9  1  0  0  0  0
 15 10  1  0  0  0  0
 17 22  1  6  0  0  0
 17 18  1  0  0  0  0
 18 19  1  6  0  0  0
 18  2  1  0  0  0  0
 20 21  1  0  0  0  0
 20 19  1  0  0  0  0
 21 24  1  6  0  0  0
 21 17  1  0  0  0  0
 23 22  1  0  0  0  0
 25 24  1  0  0  0  0
M  END
>  <minimizedAffinity>
-4.45642519

$$$$

 OpenBabel03252505453D

 25 27  0  0  1  0  0  0  0  0999 V2000
   36.9290   28.3100   42.9810 C   0  0  1  0  0  0  0  0  0  0  0  0
   37.2710   26.8440   42.8170 C   0  0  2  0  0  0  0  0  0  0  0  0
   38.0800   27.7720   43.6710 C   0  0  0  0  0  0  0  0  0  0  0  0
   35.9640   28.5360   43.5430 H   0  0  0  0  0  0  0  0  0  0  0  0
   36.6050   26.1720   43.4390 H   0  0  0  0  0  0  0  0  0  0  0  0
   38.0060   27.7040   44.7870 H   0  0  0  0  0  0  0  0  0  0  0  0
   39.0630   28.1660   43.3490 H   0  0  0  0  0  0  0  0  0  0  0  0
   36.9940   29.1110   41.7420 C   0  0  0  0  0  0  0  0  0  0  0  0
   35.8390   29.1280   40.9330 C   0  0  0  0  0  0  0  0  0  0  0  0
   35.8770   29.8930   39.7440 C   0  0  0  0  0  0  0  0  0  0  0  0
   37.0520   30.5690   39.4670 N   0  0  0  0  0  0  0  0  0  0  0  0
   38.1190   30.5050   40.2880 C   0  0  0  0  0  0  0  0  0  0  0  0
   38.0910   29.7880   41.4090 N   0  0  0  0  0  0  0  0  0  0  0  0
   34.9210   28.5980   41.1520 H   0  0  0  0  0  0  0  0  0  0  0  0
   35.0380   29.9620   39.0660 H   0  0  0  0  0  0  0  0  0  0  0  0
   39.0050   31.0730   39.9880 H   0  0  0  0  0  0  0  0  0  0  0  0
   38.9680   25.2670   41.7930 C   0  0  1  0  0  3  0  0  0  0  0  0
   37.8710   26.2560   41.6030 C   0  0  1  0  0  3  0  0  0  0  0  0
   36.8890   25.4960   40.9650 O   0  0  0  0  0  0  0  0  0  0  0  0
   36.7960   24.3680   41.8140 C   0  0  0  0  0  2  0  0  0  0  0  0
   38.2430   23.9830   42.0760 C   0  0  1  0  0  3  0  0  0  0  0  0
   39.6280   25.1200   40.5640 O   0  0  0  0  0  0  0  0  0  0  0  0
   39.0800   24.5540   39.9670 H   0  0  0  0  0  0  0  0  0  0  0  0
   38.5540   23.0090   41.1170 O   0  0  0  0  0  0  0  0  0  0  0  0
   38.1690   22.1610   41.4380 H   0  0  0  0  0  0  0  0  0  0  0  0
  1  4  1  1  0  0  0
  1  3  1  0  0  0  0
  2  1  1  0  0  0  0
  2  5  1  1  0  0  0
  2  3  1  0  0  0  0
  3  6  1  0  0  0  0
  7  3  1  0  0  0  0
  8  1  1  0  0  0  0
  9 14  1  0  0  0  0
  9  8  2  0  0  0  0
 10  9  1  0  0  0  0
 11 10  2  0  0  0  0
 11 12  1  0  0  0  0
 12 13  2  0  0  0  0
 13  8  1  0  0  0  0
 15 10  1  0  0  0  0
 16 12  1  0  0  0  0
 17 22  1  6  0  0  0
 17 21  1  0  0  0  0
 18 19  1  1  0  0  0
 18 17  1  0  0  0  0
 18  2  1  0  0  0  0
 19 20  1  0  0  0  0
 20 21  1  0  0  0  0
 21 24  1  6  0  0  0
 23 22  1  0  0  0  0
 24 25  1  0  0  0  0
M  END
>  <minimizedAffinity>
-4.43722582

$$$$

 OpenBabel03252505453D

 25 27  0  0  1  0  0  0  0  0999 V2000
   40.0190   29.8620   38.0060 C   0  0  1  0  0  0  0  0  0  0  0  0
   38.8490   29.8120   38.9650 C   0  0  2  0  0  0  0  0  0  0  0  0
   38.6730   29.9080   37.4800 C   0  0  0  0  0  0  0  0  0  0  0  0
   40.6430   28.9130   37.9310 H   0  0  0  0  0  0  0  0  0  0  0  0
   38.6470   28.7660   39.3460 H   0  0  0  0  0  0  0  0  0  0  0  0
   38.3320   29.0110   36.9030 H   0  0  0  0  0  0  0  0  0  0  0  0
   38.3820   30.8520   36.9790 H   0  0  0  0  0  0  0  0  0  0  0  0
   40.9010   31.0380   38.1530 C   0  0  0  0  0  0  0  0  0  0  0  0
   41.9350   30.9430   39.1070 C   0  0  0  0  0  0  0  0  0  0  0  0
   42.7950   32.0550   39.2610 C   0  0  0  0  0  0  0  0  0  0  0  0
   42.5520   33.1560   38.4590 N   0  0  0  0  0  0  0  0  0  0  0  0
   41.5420   33.1760   37.5680 C   0  0  0  0  0  0  0  0  0  0  0  0
   40.7280   32.1340   37.4160 N   0  0  0  0  0  0  0  0  0  0  0  0
   42.1230   30.0800   39.7330 H   0  0  0  0  0  0  0  0  0  0  0  0
   43.6130   32.0670   39.9690 H   0  0  0  0  0  0  0  0  0  0  0  0
   41.4250   34.0890   36.9770 H   0  0  0  0  0  0  0  0  0  0  0  0
   37.0140   31.3930   39.7060 C   0  0  1  0  0  3  0  0  0  0  0  0
   38.4260   30.9340   39.8270 C   0  0  1  0  0  3  0  0  0  0  0  0
   38.4880   30.5020   41.1530 O   0  0  0  0  0  0  0  0  0  0  0  0
   37.3690   29.6410   41.2320 C   0  0  0  0  0  2  0  0  0  0  0  0
   36.2510   30.4250   40.5630 C   0  0  1  0  0  3  0  0  0  0  0  0
   36.9230   32.6570   40.3080 O   0  0  0  0  0  0  0  0  0  0  0  0
   36.9130   32.5480   41.2900 H   0  0  0  0  0  0  0  0  0  0  0  0
   35.5840   31.0910   41.6010 O   0  0  0  0  0  0  0  0  0  0  0  0
   34.9940   30.4300   42.0300 H   0  0  0  0  0  0  0  0  0  0  0  0
  1  4  1  6  0  0  0
  1  8  1  0  0  0  0
  1  2  1  0  0  0  0
  2  5  1  1  0  0  0
  2 18  1  0  0  0  0
  3  1  1  0  0  0  0
  3  2  1  0  0  0  0
  6  3  1  0  0  0  0
  7  3  1  0  0  0  0
  8  9  1  0  0  0  0
  9 10  2  0  0  0  0
  9 14  1  0  0  0  0
 10 15  1  0  0  0  0
 11 10  1  0  0  0  0
 12 11  2  0  0  0  0
 13 12  1  0  0  0  0
 13  8  2  0  0  0  0
 16 12  1  0  0  0  0
 17 18  1  0  0  0  0
 17 22  1  1  0  0  0
 17 21  1  0  0  0  0
 18 19  1  1  0  0  0
 19 20  1  0  0  0  0
 21 20  1  0  0  0  0
 21 24  1  1  0  0  0
 22 23  1  0  0  0  0
 24 25  1  0  0  0  0
M  END
>  <minimizedAffinity>
-4.38757229

$$$$
