
 OpenBabel03252505153D

 25 27  0  0  1  0  0  0  0  0999 V2000
   44.4680   35.7510   44.5360 C   0  0  0  0  0  0  0  0  0  0  0  0
   45.2520   35.4420   43.4140 C   0  0  0  0  0  0  0  0  0  0  0  0
   46.1990   34.4440   43.6240 C   0  0  0  0  0  0  0  0  0  0  0  0
   46.3100   33.8430   44.8570 N   0  0  0  0  0  0  0  0  0  0  0  0
   45.5210   34.1860   45.9000 C   0  0  0  0  0  0  0  0  0  0  0  0
   44.6030   35.1470   45.7150 N   0  0  0  0  0  0  0  0  0  0  0  0
   43.7280   36.5100   44.4270 H   0  0  0  0  0  0  0  0  0  0  0  0
   45.1720   35.9050   42.4520 H   0  0  0  0  0  0  0  0  0  0  0  0
   47.1030   33.9980   42.5070 C   0  0  0  0  0  0  0  0  0  0  0  0
   47.8230   35.1500   41.8450 C   0  0  0  0  0  0  0  0  0  0  0  0
   48.5430   34.0810   42.7110 C   0  0  0  0  0  0  0  0  0  0  0  0
   46.6930   33.2060   41.8340 H   0  0  0  0  0  0  0  0  0  0  0  0
   47.9330   35.0430   40.7530 H   0  0  0  0  0  0  0  0  0  0  0  0
   47.7040   36.1460   42.2750 H   0  0  0  0  0  0  0  0  0  0  0  0
   49.2320   33.4170   42.1240 H   0  0  0  0  0  0  0  0  0  0  0  0
   48.9620   34.4980   43.6420 H   0  0  0  0  0  0  0  0  0  0  0  0
   46.8880   32.3420   46.8360 C   0  0  2  0  0  3  0  0  0  0  0  0
   45.8330   33.3950   47.1190 C   0  0  2  0  0  3  0  0  0  0  0  0
   44.6970   32.7330   47.5710 O   0  0  0  0  0  0  0  0  0  0  0  0
   45.1310   31.5350   48.1330 C   0  0  0  0  0  2  0  0  0  0  0  0
   46.0870   31.0680   47.0300 C   0  0  1  0  0  3  0  0  0  0  0  0
   47.8930   32.3490   47.7990 O   0  0  0  0  0  0  0  0  0  0  0  0
   48.4580   33.1670   47.7440 H   0  0  0  0  0  0  0  0  0  0  0  0
   45.3470   30.8630   45.8690 O   0  0  0  0  0  0  0  0  0  0  0  0
   44.4270   30.5720   46.1550 H   0  0  0  0  0  0  0  0  0  0  0  0
  1  6  1  0  0  0  0
  2  3  1  0  0  0  0
  2  1  2  0  0  0  0
  3  4  2  0  0  0  0
  4  5  1  0  0  0  0
  6  5  2  0  0  0  0
  7  1  1  0  0  0  0
  8  2  1  0  0  0  0
  9 11  1  0  0  0  0
  9  3  1  0  0  0  0
 10 14  1  0  0  0  0
 10  9  1  0  0  0  0
 10 11  1  0  0  0  0
 11 16  1  0  0  0  0
 12  9  1  0  0  0  0
 13 10  1  0  0  0  0
 15 11  1  0  0  0  0
 17 21  1  0  0  0  0
 17 18  1  0  0  0  0
 17 22  1  1  0  0  0
 18  5  1  6  0  0  0
 18 19  1  0  0  0  0
 19 20  1  0  0  0  0
 21 24  1  6  0  0  0
 21 20  1  0  0  0  0
 23 22  1  0  0  0  0
 24 25  1  0  0  0  0
M  END
>  <minimizedAffinity>
-4.82855654

>  <minimizedRMSD>
1.12101138

$$$$
