
 OpenBabel03242518383D

 39 42  0  0  1  0  0  0  0  0999 V2000
   47.5180   33.5270   40.8800 O   0  0  0  0  0  0  0  0  0  0  0  0
   47.5840   33.7110   39.4780 C   0  0  0  0  0  0  0  0  0  0  0  0
   48.4100   34.5230   38.6860 C   0  0  0  0  0  0  0  0  0  0  0  0
   48.0730   34.3390   37.3560 C   0  0  0  0  0  0  0  0  0  0  0  0
   47.0650   33.4320   37.4030 C   0  0  0  0  0  0  0  0  0  0  0  0
   46.7800   33.0650   38.6410 O   0  0  0  0  0  0  0  0  0  0  0  0
   49.1590   35.1510   39.1510 H   0  0  0  0  0  0  0  0  0  0  0  0
   48.5570   34.8470   36.5390 H   0  0  0  0  0  0  0  0  0  0  0  0
   46.3620   32.9130   36.2070 C   0  0  2  0  0  0  0  0  0  0  0  0
   46.2030   31.4760   35.9980 C   0  0  0  0  0  0  0  0  0  0  0  0
   47.2950   32.1380   35.2370 C   0  0  1  0  0  0  0  0  0  0  0  0
   45.6920   33.6530   35.7240 H   0  0  0  0  0  0  0  0  0  0  0  0
   46.5340   30.7870   36.8150 H   0  0  0  0  0  0  0  0  0  0  0  0
   45.3150   31.0800   35.4330 H   0  0  0  0  0  0  0  0  0  0  0  0
   48.3460   32.0650   35.5260 H   0  0  0  0  0  0  0  0  0  0  0  0
   48.0650   32.7260   32.9470 C   0  0  0  0  0  0  0  0  0  0  0  0
   49.2720   32.8210   33.3140 O   0  0  0  0  0  0  0  0  0  0  0  0
   47.0020   32.4200   33.8340 N   0  0  0  0  0  0  0  0  0  0  0  0
   47.7910   32.8820   31.9010 H   0  0  0  0  0  0  0  0  0  0  0  0
   46.0140   32.3930   33.5000 H   0  0  0  0  0  0  0  0  0  0  0  0
   47.5870   34.6610   41.7170 C   0  0  0  0  0  0  0  0  0  0  0  0
   48.4030   35.5660   41.3740 O   0  0  0  0  0  0  0  0  0  0  0  0
   46.7370   34.6690   42.8540 C   0  0  0  0  0  0  0  0  0  0  0  0
   45.6390   35.4630   42.7790 C   0  0  0  0  0  0  0  0  0  0  0  0
   44.7670   35.5140   43.8630 C   0  0  0  0  0  0  0  0  0  0  0  0
   45.0500   34.7750   44.9400 N   0  0  0  0  0  0  0  0  0  0  0  0
   46.1390   33.9960   44.9950 C   0  0  0  0  0  0  0  0  0  0  0  0
   46.9550   33.9670   43.9460 N   0  0  0  0  0  0  0  0  0  0  0  0
   45.3640   36.0800   41.9340 H   0  0  0  0  0  0  0  0  0  0  0  0
   43.8850   36.1320   43.8430 H   0  0  0  0  0  0  0  0  0  0  0  0
   45.2980   32.7660   46.9440 C   0  0  1  0  0  0  0  0  0  0  0  0
   46.5510   33.1300   46.1460 C   0  0  1  0  0  0  0  0  0  0  0  0
   46.9830   31.9030   45.6950 O   0  0  0  0  0  0  0  0  0  0  0  0
   46.8110   30.9860   46.7020 C   0  0  0  0  0  0  0  0  0  0  0  0
   45.7390   31.4860   47.6200 C   0  0  2  0  0  0  0  0  0  0  0  0
   44.9440   33.7480   47.8530 O   0  0  0  0  0  0  0  0  0  0  0  0
   45.1650   34.6630   47.5710 H   0  0  0  0  0  0  0  0  0  0  0  0
   44.6420   30.6200   47.6840 O   0  0  0  0  0  0  0  0  0  0  0  0
   43.8440   31.2030   47.7750 H   0  0  0  0  0  0  0  0  0  0  0  0
  1 21  1  0  0  0  0
  2  1  1  0  0  0  0
  3  7  1  0  0  0  0
  3  2  2  0  0  0  0
  4  5  2  0  0  0  0
  4  3  1  0  0  0  0
  5  6  1  0  0  0  0
  6  2  1  0  0  0  0
  8  4  1  0  0  0  0
  9 12  1  6  0  0  0
  9  5  1  0  0  0  0
 10  9  1  0  0  0  0
 10 13  1  0  0  0  0
 11 15  1  1  0  0  0
 11 10  1  0  0  0  0
 11  9  1  0  0  0  0
 14 10  1  0  0  0  0
 16 17  2  0  0  0  0
 16 18  1  0  0  0  0
 18 11  1  0  0  0  0
 19 16  1  0  0  0  0
 20 18  1  0  0  0  0
 21 23  1  0  0  0  0
 22 21  2  0  0  0  0
 23 28  1  0  0  0  0
 24 23  2  0  0  0  0
 24 25  1  0  0  0  0
 25 26  2  0  0  0  0
 26 27  1  0  0  0  0
 28 27  2  0  0  0  0
 29 24  1  0  0  0  0
 30 25  1  0  0  0  0
 31 35  1  0  0  0  0
 31 36  1  1  0  0  0
 32 27  1  6  0  0  0
 32 31  1  0  0  0  0
 33 32  1  0  0  0  0
 33 34  1  0  0  0  0
 34 35  1  0  0  0  0
 35 38  1  6  0  0  0
 37 36  1  0  0  0  0
 38 39  1  0  0  0  0
M  END
>  <minimizedAffinity>
-6.58510351

>  <minimizedRMSD>
0.664984882

$$$$
