
 OpenBabel03252505153D

 25 27  0  0  1  0  0  0  0  0999 V2000
   44.8820   35.7200   44.5350 C   0  0  0  0  0  0  0  0  0  0  0  0
   45.5870   35.8430   43.3290 C   0  0  0  0  0  0  0  0  0  0  0  0
   46.3460   34.7290   42.9830 C   0  0  0  0  0  0  0  0  0  0  0  0
   46.3640   33.6220   43.8000 N   0  0  0  0  0  0  0  0  0  0  0  0
   45.6590   33.5660   44.9530 C   0  0  0  0  0  0  0  0  0  0  0  0
   44.9220   34.6320   45.3020 N   0  0  0  0  0  0  0  0  0  0  0  0
   44.2850   36.5470   44.8450 H   0  0  0  0  0  0  0  0  0  0  0  0
   45.5790   36.7000   42.6870 H   0  0  0  0  0  0  0  0  0  0  0  0
   47.1440   34.7110   41.7080 C   0  0  0  0  0  0  0  0  0  0  0  0
   48.4180   35.5190   41.8070 C   0  0  0  0  0  0  0  0  0  0  0  0
   48.4000   33.9710   41.6910 C   0  0  0  0  0  0  0  0  0  0  0  0
   46.5580   34.8100   40.7630 H   0  0  0  0  0  0  0  0  0  0  0  0
   48.6730   36.0710   40.8870 H   0  0  0  0  0  0  0  0  0  0  0  0
   48.6830   35.9460   42.7760 H   0  0  0  0  0  0  0  0  0  0  0  0
   48.8120   33.5880   40.7190 H   0  0  0  0  0  0  0  0  0  0  0  0
   48.7770   33.4710   42.5980 H   0  0  0  0  0  0  0  0  0  0  0  0
   45.4930   32.3860   47.1260 C   0  0  2  0  0  3  0  0  0  0  0  0
   45.8420   32.2690   45.6550 C   0  0  2  0  0  3  0  0  0  0  0  0
   47.1670   31.8570   45.5760 O   0  0  0  0  0  0  0  0  0  0  0  0
   47.4430   31.1720   46.7570 C   0  0  0  0  0  2  0  0  0  0  0  0
   46.8490   32.1580   47.7680 C   0  0  1  0  0  3  0  0  0  0  0  0
   44.6600   31.3520   47.5420 O   0  0  0  0  0  0  0  0  0  0  0  0
   43.7480   31.4260   47.1500 H   0  0  0  0  0  0  0  0  0  0  0  0
   47.5550   33.3540   47.6800 O   0  0  0  0  0  0  0  0  0  0  0  0
   48.4980   33.1180   47.4160 H   0  0  0  0  0  0  0  0  0  0  0  0
  1  7  1  0  0  0  0
  1  6  1  0  0  0  0
  2  1  2  0  0  0  0
  3  2  1  0  0  0  0
  3  4  2  0  0  0  0
  4  5  1  0  0  0  0
  5  6  2  0  0  0  0
  8  2  1  0  0  0  0
  9 10  1  0  0  0  0
  9  3  1  0  0  0  0
 10 14  1  0  0  0  0
 11  9  1  0  0  0  0
 11 10  1  0  0  0  0
 11 16  1  0  0  0  0
 12  9  1  0  0  0  0
 13 10  1  0  0  0  0
 15 11  1  0  0  0  0
 17 22  1  1  0  0  0
 17 21  1  0  0  0  0
 18  5  1  6  0  0  0
 18 17  1  0  0  0  0
 19 18  1  0  0  0  0
 19 20  1  0  0  0  0
 20 21  1  0  0  0  0
 21 24  1  6  0  0  0
 23 22  1  0  0  0  0
 25 24  1  0  0  0  0
M  END
>  <minimizedAffinity>
-5.30290127

>  <minimizedRMSD>
0.798004329

$$$$
