
 OpenBabel03242521013D

 27 29  0  0  1  0  0  0  0  0999 V2000
   46.7140   34.7160   42.1160 C   0  0  0  0  0  0  0  0  0  0  0  0
   47.8930   35.3750   41.8480 C   0  0  0  0  0  0  0  0  0  0  0  0
   48.6080   35.2630   40.6800 C   0  0  0  0  0  0  0  0  0  0  0  0
   48.1290   34.4380   39.6940 C   0  0  0  0  0  0  0  0  0  0  0  0
   46.9410   33.7800   39.9760 C   0  0  0  0  0  0  0  0  0  0  0  0
   46.2810   33.9180   41.1240 N   0  0  0  0  0  0  0  0  0  0  0  0
   48.3040   36.0350   42.5980 H   0  0  0  0  0  0  0  0  0  0  0  0
   49.5340   35.8100   40.5250 H   0  0  0  0  0  0  0  0  0  0  0  0
   48.6550   34.3130   38.7540 H   0  0  0  0  0  0  0  0  0  0  0  0
   44.4710   35.9060   44.9170 C   0  0  0  0  0  0  0  0  0  0  0  0
   45.0920   35.9100   43.6530 C   0  0  0  0  0  0  0  0  0  0  0  0
   45.9850   34.8650   43.3740 C   0  0  0  0  0  0  0  0  0  0  0  0
   46.1870   33.9370   44.3280 N   0  0  0  0  0  0  0  0  0  0  0  0
   45.5840   33.9500   45.5330 C   0  0  0  0  0  0  0  0  0  0  0  0
   44.7210   34.9500   45.8150 N   0  0  0  0  0  0  0  0  0  0  0  0
   43.7870   36.7270   45.0990 H   0  0  0  0  0  0  0  0  0  0  0  0
   44.9400   36.6410   42.8840 H   0  0  0  0  0  0  0  0  0  0  0  0
   45.8170   33.1570   46.2240 H   0  0  0  0  0  0  0  0  0  0  0  0
   44.8230   32.8990   39.1730 C   0  0  2  0  0  0  0  0  0  0  0  0
   46.3390   32.8610   38.9720 C   0  0  1  0  0  0  0  0  0  0  0  0
   46.4490   33.3630   37.6810 O   0  0  0  0  0  0  0  0  0  0  0  0
   45.4650   32.7770   36.9210 C   0  0  0  0  0  0  0  0  0  0  0  0
   44.3490   32.3740   37.8360 C   0  0  2  0  0  0  0  0  0  0  0  0
   44.4300   34.2320   39.2930 O   0  0  0  0  0  0  0  0  0  0  0  0
   45.0140   34.7780   38.7410 H   0  0  0  0  0  0  0  0  0  0  0  0
   43.1270   32.9320   37.4660 O   0  0  0  0  0  0  0  0  0  0  0  0
   42.6830   33.3440   38.2420 H   0  0  0  0  0  0  0  0  0  0  0  0
  1 12  1  0  0  0  0
  2  1  1  0  0  0  0
  2  7  1  0  0  0  0
  3  2  2  0  0  0  0
  4  5  2  0  0  0  0
  4  3  1  0  0  0  0
  5  6  1  0  0  0  0
  6  1  2  0  0  0  0
  8  3  1  0  0  0  0
  9  4  1  0  0  0  0
 10 16  1  0  0  0  0
 10 15  1  0  0  0  0
 11 10  2  0  0  0  0
 12 11  1  0  0  0  0
 12 13  2  0  0  0  0
 13 14  1  0  0  0  0
 14 15  2  0  0  0  0
 14 18  1  0  0  0  0
 17 11  1  0  0  0  0
 19 24  1  6  0  0  0
 20 19  1  0  0  0  0
 20  5  1  1  0  0  0
 21 20  1  0  0  0  0
 22 21  1  0  0  0  0
 22 23  1  0  0  0  0
 23 26  1  6  0  0  0
 23 19  1  0  0  0  0
 25 24  1  0  0  0  0
 26 27  1  0  0  0  0
M  END
>  <minimizedAffinity>
-5.96833467

>  <minimizedRMSD>
0.299840569

$$$$
