
 OpenBabel03252506553D

 38 42  0  0  1  0  0  0  0  0999 V2000
   47.3560   31.3350   45.2250 C   0  0  0  0  0  0  0  0  0  0  0  0
   46.9140   32.6390   45.1260 C   0  0  0  0  0  0  0  0  0  0  0  0
   46.2360   33.2830   46.1430 C   0  0  0  0  0  0  0  0  0  0  0  0
   45.9700   32.6210   47.3300 C   0  0  0  0  0  0  0  0  0  0  0  0
   45.3530   32.9150   48.5100 N   0  0  0  0  0  0  0  0  0  0  0  0
   45.4130   31.8240   49.3110 C   0  0  0  0  0  0  0  0  0  0  0  0
   46.0700   30.8610   48.6160 N   0  0  0  0  0  0  0  0  0  0  0  0
   46.4210   31.3180   47.4080 C   0  0  0  0  0  0  0  0  0  0  0  0
   47.0940   30.6540   46.4150 C   0  0  0  0  0  0  0  0  0  0  0  0
   47.8810   30.8410   44.4310 H   0  0  0  0  0  0  0  0  0  0  0  0
   45.8870   34.3140   46.0660 H   0  0  0  0  0  0  0  0  0  0  0  0
   44.9260   33.8510   48.6980 H   0  0  0  0  0  0  0  0  0  0  0  0
   44.9940   31.7770   50.3260 H   0  0  0  0  0  0  0  0  0  0  0  0
   46.5990   35.0900   42.3910 C   0  0  0  0  0  0  0  0  0  0  0  0
   47.6700   34.7570   41.5680 C   0  0  0  0  0  0  0  0  0  0  0  0
   48.4950   33.7040   41.9410 C   0  0  0  0  0  0  0  0  0  0  0  0
   48.2140   33.0380   43.1100 N   0  0  0  0  0  0  0  0  0  0  0  0
   47.1720   33.3780   43.8920 C   0  0  0  0  0  0  0  0  0  0  0  0
   46.3750   34.3930   43.5340 N   0  0  0  0  0  0  0  0  0  0  0  0
   45.9360   35.9020   42.1340 H   0  0  0  0  0  0  0  0  0  0  0  0
   47.8470   35.3070   40.6650 H   0  0  0  0  0  0  0  0  0  0  0  0
   49.3410   33.3980   41.3430 H   0  0  0  0  0  0  0  0  0  0  0  0
   47.5320   29.2640   46.6000 C   0  0  0  0  0  0  0  0  0  0  0  0
   48.7150   28.7450   46.1020 C   0  0  0  0  0  0  0  0  0  0  0  0
   48.6900   27.4140   46.5270 C   0  0  0  0  0  0  0  0  0  0  0  0
   47.5140   27.2060   47.2450 C   0  0  0  0  0  0  0  0  0  0  0  0
   46.8620   28.3490   47.2560 O   0  0  0  0  0  0  0  0  0  0  0  0
   49.4960   29.2170   45.5210 H   0  0  0  0  0  0  0  0  0  0  0  0
   49.4300   26.6550   46.3480 H   0  0  0  0  0  0  0  0  0  0  0  0
   45.6950   25.4910   47.3160 C   0  0  2  0  0  3  0  0  0  0  0  0
   47.0200   25.9880   47.8970 C   0  0  1  0  0  3  0  0  0  0  0  0
   47.8100   24.8610   47.6830 O   0  0  0  0  0  0  0  0  0  0  0  0
   47.0710   23.8740   48.3370 C   0  0  0  0  0  2  0  0  0  0  0  0
   45.6200   24.1330   48.0000 C   0  0  2  0  0  3  0  0  0  0  0  0
   45.8540   25.2390   45.9400 O   0  0  0  0  0  0  0  0  0  0  0  0
   46.2900   24.3510   45.8010 H   0  0  0  0  0  0  0  0  0  0  0  0
   45.0840   23.1490   47.1780 O   0  0  0  0  0  0  0  0  0  0  0  0
   44.2710   23.5280   46.7560 H   0  0  0  0  0  0  0  0  0  0  0  0
  1  9  1  0  0  0  0
  2  1  2  0  0  0  0
  2  3  1  0  0  0  0
  3  4  2  0  0  0  0
  4  8  1  0  0  0  0
  4  5  1  0  0  0  0
  5 12  1  0  0  0  0
  5  6  1  0  0  0  0
  6 13  1  0  0  0  0
  7  6  2  0  0  0  0
  8  7  1  0  0  0  0
  9 23  1  0  0  0  0
  9  8  2  0  0  0  0
 10  1  1  0  0  0  0
 11  3  1  0  0  0  0
 14 19  1  0  0  0  0
 15 16  1  0  0  0  0
 15 14  2  0  0  0  0
 16 17  2  0  0  0  0
 17 18  1  0  0  0  0
 18  2  1  0  0  0  0
 19 18  2  0  0  0  0
 20 14  1  0  0  0  0
 21 15  1  0  0  0  0
 22 16  1  0  0  0  0
 23 27  1  0  0  0  0
 24 25  1  0  0  0  0
 24 23  2  0  0  0  0
 25 26  2  0  0  0  0
 26 27  1  0  0  0  0
 28 24  1  0  0  0  0
 29 25  1  0  0  0  0
 30 35  1  6  0  0  0
 30 31  1  0  0  0  0
 30 34  1  0  0  0  0
 31 26  1  6  0  0  0
 32 31  1  0  0  0  0
 32 33  1  0  0  0  0
 34 37  1  6  0  0  0
 34 33  1  0  0  0  0
 36 35  1  0  0  0  0
 38 37  1  0  0  0  0
M  END
>  <minimizedAffinity>
-5.68954039

>  <minimizedRMSD>
1.21321762

$$$$
