
 OpenBabel03242521393D

 21 22  0  0  1  0  0  0  0  0999 V2000
   45.2870   35.3410   43.6830 C   0  0  0  0  0  0  0  0  0  0  0  0
   46.3710   34.6160   43.1630 C   0  0  0  0  0  0  0  0  0  0  0  0
   46.9540   33.6440   43.9850 C   0  0  0  0  0  0  0  0  0  0  0  0
   46.4470   33.4580   45.2240 N   0  0  0  0  0  0  0  0  0  0  0  0
   45.3960   34.1850   45.6840 C   0  0  0  0  0  0  0  0  0  0  0  0
   44.8210   35.1220   44.9140 N   0  0  0  0  0  0  0  0  0  0  0  0
   46.7200   34.8240   42.1580 H   0  0  0  0  0  0  0  0  0  0  0  0
   45.0400   33.9910   46.6740 H   0  0  0  0  0  0  0  0  0  0  0  0
   49.0010   33.7210   42.5700 C   0  0  2  0  0  0  0  0  0  0  0  0
   48.0800   32.8890   43.4470 C   0  0  2  0  0  0  0  0  0  0  0  0
   47.7250   31.8910   42.5390 O   0  0  0  0  0  0  0  0  0  0  0  0
   48.9190   31.4610   42.0100 C   0  0  0  0  0  0  0  0  0  0  0  0
   49.9140   32.5920   42.0730 C   0  0  1  0  0  0  0  0  0  0  0  0
   49.6910   34.6770   43.2960 O   0  0  0  0  0  0  0  0  0  0  0  0
   50.5490   34.8530   42.8460 H   0  0  0  0  0  0  0  0  0  0  0  0
   50.4600   32.9360   40.8600 O   0  0  0  0  0  0  0  0  0  0  0  0
   51.3130   32.4740   40.6680 H   0  0  0  0  0  0  0  0  0  0  0  0
   44.6560   36.3890   42.8010 C   0  0  0  0  0  0  0  0  0  0  0  0
   43.9450   36.9710   43.4200 H   0  0  0  0  0  0  0  0  0  0  0  0
   45.3930   37.0270   42.3110 H   0  0  0  0  0  0  0  0  0  0  0  0
   44.1060   35.8620   41.9920 H   0  0  0  0  0  0  0  0  0  0  0  0
  1  6  1  0  0  0  0
  2  1  2  0  0  0  0
  2  3  1  0  0  0  0
  3  4  2  0  0  0  0
  4  5  1  0  0  0  0
  5  8  1  0  0  0  0
  6  5  2  0  0  0  0
  7  2  1  0  0  0  0
  9 14  1  1  0  0  0
  9 10  1  0  0  0  0
 10  3  1  6  0  0  0
 11 10  1  0  0  0  0
 12 13  1  0  0  0  0
 12 11  1  0  0  0  0
 13 16  1  6  0  0  0
 13  9  1  0  0  0  0
 15 14  1  0  0  0  0
 17 16  1  0  0  0  0
 18 19  1  0  0  0  0
 18  1  1  0  0  0  0
 20 18  1  0  0  0  0
 21 18  1  0  0  0  0
M  END
>  <minimizedAffinity>
-4.49152851

>  <minimizedRMSD>
0.756692529

$$$$
