
 OpenBabel03242523153D

 25 27  0  0  1  0  0  0  0  0999 V2000
   38.7100   27.2920   42.0550 C   0  0  0  0  0  0  0  0  0  0  0  0
   38.6960   25.8730   42.0660 C   0  0  0  0  0  0  0  0  0  0  0  0
   39.6000   25.1740   42.9080 C   0  0  0  0  0  0  0  0  0  0  0  0
   40.4480   25.9240   43.6690 N   0  0  0  0  0  0  0  0  0  0  0  0
   40.4340   27.2570   43.6280 C   0  0  0  0  0  0  0  0  0  0  0  0
   39.5840   27.9340   42.8390 N   0  0  0  0  0  0  0  0  0  0  0  0
   39.5060   24.1040   42.8470 H   0  0  0  0  0  0  0  0  0  0  0  0
   41.1910   27.6380   44.3110 H   0  0  0  0  0  0  0  0  0  0  0  0
   37.8150   25.1080   41.1320 C   0  0  0  0  0  0  0  0  0  0  0  0
   37.6850   23.6920   41.1920 C   0  0  0  0  0  0  0  0  0  0  0  0
   36.5350   24.4680   41.7480 C   0  0  0  0  0  0  0  0  0  0  0  0
   37.4270   25.8360   40.3390 H   0  0  0  0  0  0  0  0  0  0  0  0
   37.4180   23.1120   40.2320 H   0  0  0  0  0  0  0  0  0  0  0  0
   38.1160   23.0300   41.9340 H   0  0  0  0  0  0  0  0  0  0  0  0
   35.6420   24.6070   41.1250 H   0  0  0  0  0  0  0  0  0  0  0  0
   36.3830   24.5550   42.8210 H   0  0  0  0  0  0  0  0  0  0  0  0
   36.9120   29.0550   42.2050 C   0  0  2  0  0  3  0  0  0  0  0  0
   37.8720   28.2910   41.3770 C   0  0  1  0  0  3  0  0  0  0  0  0
   38.5450   29.1610   40.5150 O   0  0  0  0  0  0  0  0  0  0  0  0
   37.6320   30.1550   40.2500 C   0  0  0  0  0  2  0  0  0  0  0  0
   36.8900   30.4090   41.5290 C   0  0  1  0  0  3  0  0  0  0  0  0
   37.1300   29.0850   43.5560 O   0  0  0  0  0  0  0  0  0  0  0  0
   36.9390   29.9690   43.9330 H   0  0  0  0  0  0  0  0  0  0  0  0
   35.5960   30.8820   41.3310 O   0  0  0  0  0  0  0  0  0  0  0  0
   35.2230   30.6020   40.4470 H   0  0  0  0  0  0  0  0  0  0  0  0
  1  2  2  0  0  0  0
  1  6  1  0  0  0  0
  2  3  1  0  0  0  0
  3  4  2  0  0  0  0
  5  4  1  0  0  0  0
  5  8  1  0  0  0  0
  6  5  2  0  0  0  0
  7  3  1  0  0  0  0
  9 10  1  0  0  0  0
  9 11  1  0  0  0  0
  9  2  1  0  0  0  0
 10 11  1  0  0  0  0
 10 14  1  0  0  0  0
 11 16  1  0  0  0  0
 12  9  1  0  0  0  0
 13 10  1  0  0  0  0
 15 11  1  0  0  0  0
 17 22  1  1  0  0  0
 18  1  1  1  0  0  0
 18 17  1  0  0  0  0
 19 18  1  0  0  0  0
 20 19  1  0  0  0  0
 20 21  1  0  0  0  0
 21 24  1  6  0  0  0
 21 17  1  0  0  0  0
 22 23  1  0  0  0  0
 25 24  1  0  0  0  0
M  END
>  <minimizedAffinity>
-5.28057051

$$$$

 OpenBabel03242523153D

 25 27  0  0  1  0  0  0  0  0999 V2000
   37.5930   29.0260   41.4200 C   0  0  0  0  0  0  0  0  0  0  0  0
   37.2560   27.6890   41.0820 C   0  0  0  0  0  0  0  0  0  0  0  0
   37.0310   26.7450   42.1190 C   0  0  0  0  0  0  0  0  0  0  0  0
   37.1580   27.1880   43.4030 N   0  0  0  0  0  0  0  0  0  0  0  0
   37.4800   28.4510   43.6800 C   0  0  0  0  0  0  0  0  0  0  0  0
   37.6940   29.3580   42.7130 N   0  0  0  0  0  0  0  0  0  0  0  0
   36.7780   25.7620   41.7590 H   0  0  0  0  0  0  0  0  0  0  0  0
   37.5260   28.5740   44.7600 H   0  0  0  0  0  0  0  0  0  0  0  0
   37.2350   27.2410   39.6570 C   0  0  0  0  0  0  0  0  0  0  0  0
   36.4620   26.1290   39.2170 C   0  0  0  0  0  0  0  0  0  0  0  0
   35.9090   27.4740   38.8730 C   0  0  0  0  0  0  0  0  0  0  0  0
   38.0230   27.8430   39.0870 H   0  0  0  0  0  0  0  0  0  0  0  0
   36.8120   25.5330   38.2950 H   0  0  0  0  0  0  0  0  0  0  0  0
   35.7620   25.5480   39.8070 H   0  0  0  0  0  0  0  0  0  0  0  0
   36.0710   27.8670   37.8610 H   0  0  0  0  0  0  0  0  0  0  0  0
   35.0590   27.8860   39.4110 H   0  0  0  0  0  0  0  0  0  0  0  0
   36.6620   31.1640   40.4580 C   0  0  2  0  0  3  0  0  0  0  0  0
   37.8040   30.2340   40.6110 C   0  0  1  0  0  3  0  0  0  0  0  0
   38.9640   30.9590   40.8950 O   0  0  0  0  0  0  0  0  0  0  0  0
   38.7870   32.1580   40.2470 C   0  0  0  0  0  2  0  0  0  0  0  0
   37.3380   32.5160   40.3940 C   0  0  1  0  0  3  0  0  0  0  0  0
   35.6450   31.0670   41.3690 O   0  0  0  0  0  0  0  0  0  0  0  0
   35.3030   31.9490   41.6240 H   0  0  0  0  0  0  0  0  0  0  0  0
   36.8550   33.3020   39.3500 O   0  0  0  0  0  0  0  0  0  0  0  0
   37.3750   33.1690   38.5070 H   0  0  0  0  0  0  0  0  0  0  0  0
  1  6  1  0  0  0  0
  2  1  2  0  0  0  0
  2  3  1  0  0  0  0
  3  4  2  0  0  0  0
  4  5  1  0  0  0  0
  5  8  1  0  0  0  0
  6  5  2  0  0  0  0
  7  3  1  0  0  0  0
  9  2  1  0  0  0  0
 10  9  1  0  0  0  0
 10 14  1  0  0  0  0
 11 10  1  0  0  0  0
 11 16  1  0  0  0  0
 11  9  1  0  0  0  0
 12  9  1  0  0  0  0
 13 10  1  0  0  0  0
 15 11  1  0  0  0  0
 17 18  1  0  0  0  0
 17 22  1  1  0  0  0
 18 19  1  0  0  0  0
 18  1  1  1  0  0  0
 20 21  1  0  0  0  0
 20 19  1  0  0  0  0
 21 24  1  6  0  0  0
 21 17  1  0  0  0  0
 22 23  1  0  0  0  0
 25 24  1  0  0  0  0
M  END
>  <minimizedAffinity>
-5.20722818

$$$$

 OpenBabel03242523153D

 25 27  0  0  1  0  0  0  0  0999 V2000
   37.1930   28.7130   40.0840 C   0  0  0  0  0  0  0  0  0  0  0  0
   37.3700   27.9140   41.2430 C   0  0  0  0  0  0  0  0  0  0  0  0
   37.0350   26.5350   41.1960 C   0  0  0  0  0  0  0  0  0  0  0  0
   36.5510   26.0510   40.0160 N   0  0  0  0  0  0  0  0  0  0  0  0
   36.3950   26.8350   38.9490 C   0  0  0  0  0  0  0  0  0  0  0  0
   36.7080   28.1400   38.9740 N   0  0  0  0  0  0  0  0  0  0  0  0
   37.2100   26.0170   42.1240 H   0  0  0  0  0  0  0  0  0  0  0  0
   35.9970   26.2390   38.1300 H   0  0  0  0  0  0  0  0  0  0  0  0
   37.8050   28.5240   42.5350 C   0  0  0  0  0  0  0  0  0  0  0  0
   38.1920   27.7400   43.6590 C   0  0  0  0  0  0  0  0  0  0  0  0
   39.3120   28.3780   42.9030 C   0  0  0  0  0  0  0  0  0  0  0  0
   37.6280   29.6530   42.4690 H   0  0  0  0  0  0  0  0  0  0  0  0
   38.0560   28.1750   44.7190 H   0  0  0  0  0  0  0  0  0  0  0  0
   38.2960   26.6630   43.6960 H   0  0  0  0  0  0  0  0  0  0  0  0
   39.7530   29.3040   43.2930 H   0  0  0  0  0  0  0  0  0  0  0  0
   39.9470   27.7920   42.2420 H   0  0  0  0  0  0  0  0  0  0  0  0
   36.5360   31.1450   40.2090 C   0  0  2  0  0  3  0  0  0  0  0  0
   37.5100   30.1150   39.7830 C   0  0  1  0  0  3  0  0  0  0  0  0
   38.8040   30.5280   40.1130 O   0  0  0  0  0  0  0  0  0  0  0  0
   38.7600   31.8990   40.0230 C   0  0  0  0  0  2  0  0  0  0  0  0
   37.4230   32.3220   40.5540 C   0  0  1  0  0  3  0  0  0  0  0  0
   35.6350   30.7960   41.1780 O   0  0  0  0  0  0  0  0  0  0  0  0
   35.4830   31.5270   41.8120 H   0  0  0  0  0  0  0  0  0  0  0  0
   36.9610   33.5140   40.0010 O   0  0  0  0  0  0  0  0  0  0  0  0
   37.3460   33.6830   39.0940 H   0  0  0  0  0  0  0  0  0  0  0  0
  1  2  1  0  0  0  0
  2  9  1  0  0  0  0
  3  2  2  0  0  0  0
  3  7  1  0  0  0  0
  4  3  1  0  0  0  0
  5  6  1  0  0  0  0
  5  4  2  0  0  0  0
  6  1  2  0  0  0  0
  8  5  1  0  0  0  0
  9 11  1  0  0  0  0
  9 10  1  0  0  0  0
 10 14  1  0  0  0  0
 10 13  1  0  0  0  0
 11 15  1  0  0  0  0
 11 10  1  0  0  0  0
 12  9  1  0  0  0  0
 16 11  1  0  0  0  0
 17 21  1  0  0  0  0
 17 22  1  1  0  0  0
 18  1  1  1  0  0  0
 18 19  1  0  0  0  0
 18 17  1  0  0  0  0
 20 19  1  0  0  0  0
 20 21  1  0  0  0  0
 21 24  1  6  0  0  0
 22 23  1  0  0  0  0
 25 24  1  0  0  0  0
M  END
>  <minimizedAffinity>
-5.07866478

$$$$

 OpenBabel03242523153D

 25 27  0  0  1  0  0  0  0  0999 V2000
   38.2560   26.9320   42.0020 C   0  0  0  0  0  0  0  0  0  0  0  0
   39.4980   26.8420   42.6800 C   0  0  0  0  0  0  0  0  0  0  0  0
   39.9530   25.5760   43.1350 C   0  0  0  0  0  0  0  0  0  0  0  0
   39.1500   24.5020   42.8910 N   0  0  0  0  0  0  0  0  0  0  0  0
   37.9860   24.6270   42.2540 C   0  0  0  0  0  0  0  0  0  0  0  0
   37.5410   25.8150   41.8140 N   0  0  0  0  0  0  0  0  0  0  0  0
   40.9070   25.6150   43.6330 H   0  0  0  0  0  0  0  0  0  0  0  0
   37.5210   23.6460   42.1740 H   0  0  0  0  0  0  0  0  0  0  0  0
   40.2830   28.0700   43.0090 C   0  0  0  0  0  0  0  0  0  0  0  0
   41.6440   28.0200   43.4240 C   0  0  0  0  0  0  0  0  0  0  0  0
   41.4160   28.4610   42.0140 C   0  0  0  0  0  0  0  0  0  0  0  0
   39.5630   28.9600   42.9990 H   0  0  0  0  0  0  0  0  0  0  0  0
   42.0550   28.8590   44.1010 H   0  0  0  0  0  0  0  0  0  0  0  0
   42.2780   27.1430   43.4720 H   0  0  0  0  0  0  0  0  0  0  0  0
   41.4390   29.5350   41.7870 H   0  0  0  0  0  0  0  0  0  0  0  0
   41.6190   27.7950   41.1790 H   0  0  0  0  0  0  0  0  0  0  0  0
   36.7480   28.9450   42.2060 C   0  0  2  0  0  3  0  0  0  0  0  0
   37.5560   28.0470   41.3490 C   0  0  1  0  0  3  0  0  0  0  0  0
   38.3230   28.8080   40.4630 O   0  0  0  0  0  0  0  0  0  0  0  0
   37.5610   29.9280   40.2250 C   0  0  0  0  0  2  0  0  0  0  0  0
   36.9080   30.2880   41.5270 C   0  0  1  0  0  3  0  0  0  0  0  0
   37.0130   28.9390   43.5480 O   0  0  0  0  0  0  0  0  0  0  0  0
   36.9680   29.8410   43.9290 H   0  0  0  0  0  0  0  0  0  0  0  0
   35.6930   30.9510   41.3690 O   0  0  0  0  0  0  0  0  0  0  0  0
   35.2540   30.7320   40.4980 H   0  0  0  0  0  0  0  0  0  0  0  0
  1  2  1  0  0  0  0
  2  9  1  0  0  0  0
  2  3  2  0  0  0  0
  3  7  1  0  0  0  0
  4  3  1  0  0  0  0
  5  4  2  0  0  0  0
  6  1  2  0  0  0  0
  6  5  1  0  0  0  0
  8  5  1  0  0  0  0
  9 10  1  0  0  0  0
 10 14  1  0  0  0  0
 10 13  1  0  0  0  0
 11  9  1  0  0  0  0
 11 10  1  0  0  0  0
 12  9  1  0  0  0  0
 15 11  1  0  0  0  0
 16 11  1  0  0  0  0
 17 22  1  1  0  0  0
 18  1  1  1  0  0  0
 18 17  1  0  0  0  0
 19 18  1  0  0  0  0
 20 19  1  0  0  0  0
 20 21  1  0  0  0  0
 21 24  1  6  0  0  0
 21 17  1  0  0  0  0
 22 23  1  0  0  0  0
 25 24  1  0  0  0  0
M  END
>  <minimizedAffinity>
-4.92908144

$$$$

 OpenBabel03242523153D

 25 27  0  0  1  0  0  0  0  0999 V2000
   38.0330   26.9950   42.1440 C   0  0  0  0  0  0  0  0  0  0  0  0
   38.3760   25.7780   41.5000 C   0  0  0  0  0  0  0  0  0  0  0  0
   39.4500   25.0000   42.0080 C   0  0  0  0  0  0  0  0  0  0  0  0
   40.1030   25.4810   43.1040 N   0  0  0  0  0  0  0  0  0  0  0  0
   39.7540   26.6310   43.6800 C   0  0  0  0  0  0  0  0  0  0  0  0
   38.7400   27.3790   43.2150 N   0  0  0  0  0  0  0  0  0  0  0  0
   39.6270   24.0950   41.4510 H   0  0  0  0  0  0  0  0  0  0  0  0
   40.4090   26.8130   44.5300 H   0  0  0  0  0  0  0  0  0  0  0  0
   37.6910   25.3580   40.2410 C   0  0  0  0  0  0  0  0  0  0  0  0
   37.9060   24.0850   39.6410 C   0  0  0  0  0  0  0  0  0  0  0  0
   36.6130   24.2410   40.3730 C   0  0  0  0  0  0  0  0  0  0  0  0
   37.1260   26.2640   39.8290 H   0  0  0  0  0  0  0  0  0  0  0  0
   37.7710   23.9720   38.5020 H   0  0  0  0  0  0  0  0  0  0  0  0
   38.4960   23.2690   40.0410 H   0  0  0  0  0  0  0  0  0  0  0  0
   35.7020   24.4500   39.7970 H   0  0  0  0  0  0  0  0  0  0  0  0
   36.4620   23.7850   41.3490 H   0  0  0  0  0  0  0  0  0  0  0  0
   37.3120   29.4030   41.9330 C   0  0  2  0  0  3  0  0  0  0  0  0
   36.9530   27.9660   41.9270 C   0  0  1  0  0  3  0  0  0  0  0  0
   36.1050   27.6990   40.8490 O   0  0  0  0  0  0  0  0  0  0  0  0
   35.3950   28.8630   40.6740 C   0  0  0  0  0  2  0  0  0  0  0  0
   36.3520   29.9920   40.9220 C   0  0  1  0  0  3  0  0  0  0  0  0
   38.6280   29.7230   41.7380 O   0  0  0  0  0  0  0  0  0  0  0  0
   38.7260   30.5170   41.1710 H   0  0  0  0  0  0  0  0  0  0  0  0
   35.7320   31.1480   41.3890 O   0  0  0  0  0  0  0  0  0  0  0  0
   34.8750   30.9510   41.8640 H   0  0  0  0  0  0  0  0  0  0  0  0
  1  6  1  0  0  0  0
  2  3  1  0  0  0  0
  2  1  2  0  0  0  0
  3  4  2  0  0  0  0
  4  5  1  0  0  0  0
  5  8  1  0  0  0  0
  6  5  2  0  0  0  0
  7  3  1  0  0  0  0
  9 11  1  0  0  0  0
  9  2  1  0  0  0  0
 10 14  1  0  0  0  0
 10  9  1  0  0  0  0
 10 11  1  0  0  0  0
 11 16  1  0  0  0  0
 12  9  1  0  0  0  0
 13 10  1  0  0  0  0
 15 11  1  0  0  0  0
 17 22  1  6  0  0  0
 18 17  1  0  0  0  0
 18  1  1  6  0  0  0
 19 18  1  0  0  0  0
 20 19  1  0  0  0  0
 20 21  1  0  0  0  0
 21 24  1  1  0  0  0
 21 17  1  0  0  0  0
 23 22  1  0  0  0  0
 24 25  1  0  0  0  0
M  END
>  <minimizedAffinity>
-4.76370955

$$$$

 OpenBabel03242523153D

 25 27  0  0  1  0  0  0  0  0999 V2000
   37.3430   29.0210   39.6710 C   0  0  0  0  0  0  0  0  0  0  0  0
   36.4740   28.0370   39.1340 C   0  0  0  0  0  0  0  0  0  0  0  0
   36.4480   26.7410   39.7140 C   0  0  0  0  0  0  0  0  0  0  0  0
   37.2800   26.5140   40.7710 N   0  0  0  0  0  0  0  0  0  0  0  0
   38.0860   27.4650   41.2440 C   0  0  0  0  0  0  0  0  0  0  0  0
   38.1220   28.6960   40.7100 N   0  0  0  0  0  0  0  0  0  0  0  0
   35.7530   26.0700   39.2380 H   0  0  0  0  0  0  0  0  0  0  0  0
   38.6530   27.0600   42.0800 H   0  0  0  0  0  0  0  0  0  0  0  0
   35.6640   28.3150   37.9100 C   0  0  0  0  0  0  0  0  0  0  0  0
   34.5280   27.5350   37.5520 C   0  0  0  0  0  0  0  0  0  0  0  0
   34.2280   28.8770   38.1370 C   0  0  0  0  0  0  0  0  0  0  0  0
   36.2040   29.1240   37.3070 H   0  0  0  0  0  0  0  0  0  0  0  0
   34.2350   27.4500   36.4400 H   0  0  0  0  0  0  0  0  0  0  0  0
   34.0780   26.7370   38.1300 H   0  0  0  0  0  0  0  0  0  0  0  0
   33.9770   29.7040   37.4600 H   0  0  0  0  0  0  0  0  0  0  0  0
   33.8710   28.9760   39.1590 H   0  0  0  0  0  0  0  0  0  0  0  0
   36.6020   31.4150   39.9590 C   0  0  2  0  0  3  0  0  0  0  0  0
   37.5470   30.4430   39.3640 C   0  0  1  0  0  3  0  0  0  0  0  0
   38.8560   30.9130   39.5070 O   0  0  0  0  0  0  0  0  0  0  0  0
   38.7360   32.2820   39.4620 C   0  0  0  0  0  2  0  0  0  0  0  0
   37.4760   32.6280   40.1990 C   0  0  1  0  0  3  0  0  0  0  0  0
   35.8740   31.0030   41.0420 O   0  0  0  0  0  0  0  0  0  0  0  0
   35.7870   31.7130   41.7110 H   0  0  0  0  0  0  0  0  0  0  0  0
   36.8820   33.8060   39.7540 O   0  0  0  0  0  0  0  0  0  0  0  0
   37.1170   34.0120   38.8050 H   0  0  0  0  0  0  0  0  0  0  0  0
  1  6  1  0  0  0  0
  2  1  2  0  0  0  0
  2  3  1  0  0  0  0
  3  4  2  0  0  0  0
  4  5  1  0  0  0  0
  5  8  1  0  0  0  0
  6  5  2  0  0  0  0
  7  3  1  0  0  0  0
  9 11  1  0  0  0  0
  9  2  1  0  0  0  0
 10  9  1  0  0  0  0
 10 14  1  0  0  0  0
 10 11  1  0  0  0  0
 11 16  1  0  0  0  0
 12  9  1  0  0  0  0
 13 10  1  0  0  0  0
 15 11  1  0  0  0  0
 17 21  1  0  0  0  0
 17 22  1  1  0  0  0
 18 19  1  0  0  0  0
 18  1  1  1  0  0  0
 18 17  1  0  0  0  0
 20 19  1  0  0  0  0
 20 21  1  0  0  0  0
 21 24  1  6  0  0  0
 22 23  1  0  0  0  0
 25 24  1  0  0  0  0
M  END
>  <minimizedAffinity>
-4.59898758

$$$$

 OpenBabel03242523153D

 25 27  0  0  1  0  0  0  0  0999 V2000
   37.3890   29.4070   40.1450 C   0  0  0  0  0  0  0  0  0  0  0  0
   37.1440   28.2640   40.9490 C   0  0  0  0  0  0  0  0  0  0  0  0
   37.3500   26.9710   40.4010 C   0  0  0  0  0  0  0  0  0  0  0  0
   37.7760   26.9030   39.1070 N   0  0  0  0  0  0  0  0  0  0  0  0
   37.9900   28.0010   38.3810 C   0  0  0  0  0  0  0  0  0  0  0  0
   37.8040   29.2320   38.8840 N   0  0  0  0  0  0  0  0  0  0  0  0
   37.1410   26.1720   41.0920 H   0  0  0  0  0  0  0  0  0  0  0  0
   38.3210   27.7060   37.3870 H   0  0  0  0  0  0  0  0  0  0  0  0
   36.5790   28.4020   42.3250 C   0  0  0  0  0  0  0  0  0  0  0  0
   36.6260   27.3470   43.2800 C   0  0  0  0  0  0  0  0  0  0  0  0
   37.6040   28.4560   43.4970 C   0  0  0  0  0  0  0  0  0  0  0  0
   36.0200   29.3990   42.3780 H   0  0  0  0  0  0  0  0  0  0  0  0
   35.8140   27.2930   44.0960 H   0  0  0  0  0  0  0  0  0  0  0  0
   37.1240   26.3910   43.1690 H   0  0  0  0  0  0  0  0  0  0  0  0
   37.3690   29.2290   44.2400 H   0  0  0  0  0  0  0  0  0  0  0  0
   38.6580   28.3280   43.2640 H   0  0  0  0  0  0  0  0  0  0  0  0
   38.5550   31.4580   41.0400 C   0  0  2  0  0  3  0  0  0  0  0  0
   37.3530   30.8490   40.4260 C   0  0  1  0  0  3  0  0  0  0  0  0
   36.8970   31.6590   39.3820 O   0  0  0  0  0  0  0  0  0  0  0  0
   37.2330   32.9350   39.7670 C   0  0  0  0  0  2  0  0  0  0  0  0
   38.5730   32.8450   40.4340 C   0  0  1  0  0  3  0  0  0  0  0  0
   39.7310   30.7660   40.9390 O   0  0  0  0  0  0  0  0  0  0  0  0
   40.4890   31.3640   40.7710 H   0  0  0  0  0  0  0  0  0  0  0  0
   38.7830   33.8370   41.3890 O   0  0  0  0  0  0  0  0  0  0  0  0
   37.9250   34.1790   41.7720 H   0  0  0  0  0  0  0  0  0  0  0  0
  1  2  1  0  0  0  0
  2  9  1  0  0  0  0
  3  2  2  0  0  0  0
  3  7  1  0  0  0  0
  4  3  1  0  0  0  0
  5  6  1  0  0  0  0
  5  4  2  0  0  0  0
  6  1  2  0  0  0  0
  8  5  1  0  0  0  0
  9 12  1  0  0  0  0
  9 10  1  0  0  0  0
  9 11  1  0  0  0  0
 10 11  1  0  0  0  0
 10 13  1  0  0  0  0
 11 15  1  0  0  0  0
 14 10  1  0  0  0  0
 16 11  1  0  0  0  0
 17 22  1  6  0  0  0
 18  1  1  6  0  0  0
 18 17  1  0  0  0  0
 19 20  1  0  0  0  0
 19 18  1  0  0  0  0
 20 21  1  0  0  0  0
 21 17  1  0  0  0  0
 21 24  1  1  0  0  0
 23 22  1  0  0  0  0
 24 25  1  0  0  0  0
M  END
>  <minimizedAffinity>
-4.54144478

$$$$

 OpenBabel03242523153D

 25 27  0  0  1  0  0  0  0  0999 V2000
   38.2450   26.6340   41.9270 C   0  0  0  0  0  0  0  0  0  0  0  0
   38.7750   27.4170   42.9840 C   0  0  0  0  0  0  0  0  0  0  0  0
   38.1520   28.6480   43.3190 C   0  0  0  0  0  0  0  0  0  0  0  0
   37.0610   29.0130   42.5870 N   0  0  0  0  0  0  0  0  0  0  0  0
   36.5940   28.2510   41.5970 C   0  0  0  0  0  0  0  0  0  0  0  0
   37.1690   27.0830   41.2680 N   0  0  0  0  0  0  0  0  0  0  0  0
   38.6270   29.1640   44.1370 H   0  0  0  0  0  0  0  0  0  0  0  0
   35.7260   28.7380   41.1580 H   0  0  0  0  0  0  0  0  0  0  0  0
   40.0350   27.0140   43.6790 C   0  0  0  0  0  0  0  0  0  0  0  0
   41.1230   26.4000   42.9960 C   0  0  0  0  0  0  0  0  0  0  0  0
   41.3120   27.8420   43.3440 C   0  0  0  0  0  0  0  0  0  0  0  0
   39.8780   27.1600   44.8040 H   0  0  0  0  0  0  0  0  0  0  0  0
   41.8260   25.6970   43.5800 H   0  0  0  0  0  0  0  0  0  0  0  0
   41.2090   26.2320   41.9290 H   0  0  0  0  0  0  0  0  0  0  0  0
   41.9060   28.0960   44.2310 H   0  0  0  0  0  0  0  0  0  0  0  0
   41.2370   28.6160   42.5850 H   0  0  0  0  0  0  0  0  0  0  0  0
   37.7790   24.1560   41.8420 C   0  0  2  0  0  3  0  0  0  0  0  0
   38.5940   25.3090   41.3970 C   0  0  1  0  0  3  0  0  0  0  0  0
   38.7890   25.2410   40.0150 O   0  0  0  0  0  0  0  0  0  0  0  0
   38.8020   23.8950   39.7370 C   0  0  0  0  0  2  0  0  0  0  0  0
   37.7700   23.2620   40.6210 C   0  0  1  0  0  3  0  0  0  0  0  0
   36.5470   24.4250   42.3730 O   0  0  0  0  0  0  0  0  0  0  0  0
   35.8780   23.7700   42.0830 H   0  0  0  0  0  0  0  0  0  0  0  0
   38.0500   21.9340   40.9340 O   0  0  0  0  0  0  0  0  0  0  0  0
   39.0280   21.7340   40.8870 H   0  0  0  0  0  0  0  0  0  0  0  0
  1  2  1  0  0  0  0
  2  3  2  0  0  0  0
  2  9  1  0  0  0  0
  3  7  1  0  0  0  0
  4  3  1  0  0  0  0
  5  4  2  0  0  0  0
  6  5  1  0  0  0  0
  6  1  2  0  0  0  0
  8  5  1  0  0  0  0
  9 12  1  0  0  0  0
 10 11  1  0  0  0  0
 10 13  1  0  0  0  0
 10  9  1  0  0  0  0
 11  9  1  0  0  0  0
 11 15  1  0  0  0  0
 14 10  1  0  0  0  0
 16 11  1  0  0  0  0
 17 22  1  6  0  0  0
 18 17  1  0  0  0  0
 18  1  1  6  0  0  0
 19 18  1  0  0  0  0
 20 19  1  0  0  0  0
 20 21  1  0  0  0  0
 21 24  1  1  0  0  0
 21 17  1  0  0  0  0
 23 22  1  0  0  0  0
 25 24  1  0  0  0  0
M  END
>  <minimizedAffinity>
-4.45202494

$$$$

 OpenBabel03242523153D

 25 27  0  0  1  0  0  0  0  0999 V2000
   37.6640   30.0260   41.4340 C   0  0  0  0  0  0  0  0  0  0  0  0
   36.8330   28.9930   40.9280 C   0  0  0  0  0  0  0  0  0  0  0  0
   36.6780   27.7950   41.6750 C   0  0  0  0  0  0  0  0  0  0  0  0
   37.3540   27.7060   42.8570 N   0  0  0  0  0  0  0  0  0  0  0  0
   38.1290   28.6970   43.2970 C   0  0  0  0  0  0  0  0  0  0  0  0
   38.2860   29.8380   42.6050 N   0  0  0  0  0  0  0  0  0  0  0  0
   36.0250   27.0770   41.2080 H   0  0  0  0  0  0  0  0  0  0  0  0
   38.5650   28.4060   44.2510 H   0  0  0  0  0  0  0  0  0  0  0  0
   36.2030   29.1080   39.5790 C   0  0  0  0  0  0  0  0  0  0  0  0
   35.4590   28.0470   38.9890 C   0  0  0  0  0  0  0  0  0  0  0  0
   34.6470   29.1750   39.5390 C   0  0  0  0  0  0  0  0  0  0  0  0
   36.5510   30.0930   39.1110 H   0  0  0  0  0  0  0  0  0  0  0  0
   35.4070   27.9700   37.8400 H   0  0  0  0  0  0  0  0  0  0  0  0
   35.1960   27.1020   39.4500 H   0  0  0  0  0  0  0  0  0  0  0  0
   34.2660   29.9370   38.8470 H   0  0  0  0  0  0  0  0  0  0  0  0
   34.1040   29.0700   40.4750 H   0  0  0  0  0  0  0  0  0  0  0  0
   39.2120   31.5800   40.1880 C   0  0  2  0  0  3  0  0  0  0  0  0
   37.9640   31.3830   40.9610 C   0  0  1  0  0  3  0  0  0  0  0  0
   36.9110   32.0530   40.3310 O   0  0  0  0  0  0  0  0  0  0  0  0
   37.5050   33.1380   39.7320 C   0  0  0  0  0  2  0  0  0  0  0  0
   38.8310   32.6700   39.2100 C   0  0  1  0  0  3  0  0  0  0  0  0
   39.7850   30.4720   39.6270 O   0  0  0  0  0  0  0  0  0  0  0  0
   40.1410   30.6620   38.7340 H   0  0  0  0  0  0  0  0  0  0  0  0
   39.7860   33.6810   39.1440 O   0  0  0  0  0  0  0  0  0  0  0  0
   39.6050   34.4140   39.7990 H   0  0  0  0  0  0  0  0  0  0  0  0
  1  6  1  0  0  0  0
  2  1  2  0  0  0  0
  2  3  1  0  0  0  0
  3  4  2  0  0  0  0
  4  5  1  0  0  0  0
  5  8  1  0  0  0  0
  6  5  2  0  0  0  0
  7  3  1  0  0  0  0
  9  2  1  0  0  0  0
 10 14  1  0  0  0  0
 10 11  1  0  0  0  0
 10  9  1  0  0  0  0
 11  9  1  0  0  0  0
 11 16  1  0  0  0  0
 12  9  1  0  0  0  0
 13 10  1  0  0  0  0
 15 11  1  0  0  0  0
 17 22  1  6  0  0  0
 17 18  1  0  0  0  0
 18  1  1  6  0  0  0
 19 18  1  0  0  0  0
 20 19  1  0  0  0  0
 21 24  1  1  0  0  0
 21 20  1  0  0  0  0
 21 17  1  0  0  0  0
 23 22  1  0  0  0  0
 24 25  1  0  0  0  0
M  END
>  <minimizedAffinity>
-4.44150257

$$$$
