
 OpenBabel03252507073D

 24 25  0  0  1  0  0  0  0  0999 V2000
   44.5960   35.6800   44.8080 C   0  0  0  0  0  0  0  0  0  0  0  0
   45.1740   35.7290   43.5290 C   0  0  0  0  0  0  0  0  0  0  0  0
   46.1330   34.7720   43.2280 C   0  0  0  0  0  0  0  0  0  0  0  0
   46.4750   33.8330   44.1670 N   0  0  0  0  0  0  0  0  0  0  0  0
   45.8960   33.8190   45.3880 C   0  0  0  0  0  0  0  0  0  0  0  0
   44.9650   34.7370   45.7000 N   0  0  0  0  0  0  0  0  0  0  0  0
   43.8460   36.4240   45.0520 H   0  0  0  0  0  0  0  0  0  0  0  0
   44.8370   36.5040   42.8640 H   0  0  0  0  0  0  0  0  0  0  0  0
   45.8930   33.1300   47.7680 C   0  0  2  0  0  3  0  0  0  0  0  0
   46.3280   32.7660   46.3440 C   0  0  1  0  0  3  0  0  0  0  0  0
   45.7150   31.5470   46.0950 O   0  0  0  0  0  0  0  0  0  0  0  0
   45.5860   30.8760   47.2800 C   0  0  0  0  0  2  0  0  0  0  0  0
   45.9880   31.7670   48.4170 C   0  0  2  0  0  3  0  0  0  0  0  0
   44.5570   33.5300   47.6640 O   0  0  0  0  0  0  0  0  0  0  0  0
   44.1290   33.2040   46.8130 H   0  0  0  0  0  0  0  0  0  0  0  0
   45.0980   31.7060   49.4850 O   0  0  0  0  0  0  0  0  0  0  0  0
   44.3030   32.2830   49.3340 H   0  0  0  0  0  0  0  0  0  0  0  0
   46.7040   34.8260   41.9550 O   0  0  0  0  0  0  0  0  0  0  0  0
   48.6090   33.1420   41.2150 O   0  0  0  0  0  0  0  0  0  0  0  0
   48.3890   34.5430   41.7760 P   0  0  0  0  0  0  0  0  0  0  0  0
   49.0200   35.7220   40.7760 O   0  0  0  0  0  0  0  0  0  0  0  0
   48.6090   35.6430   39.9000 H   0  0  0  0  0  0  0  0  0  0  0  0
   49.0730   34.5990   43.3270 O   0  0  0  0  0  0  0  0  0  0  0  0
   48.8340   33.7570   43.7890 H   0  0  0  0  0  0  0  0  0  0  0  0
  1  7  1  0  0  0  0
  1  6  1  0  0  0  0
  2  1  2  0  0  0  0
  3  2  1  0  0  0  0
  3  4  2  0  0  0  0
  4  5  1  0  0  0  0
  5  6  2  0  0  0  0
  8  2  1  0  0  0  0
  9 14  1  6  0  0  0
  9 13  1  0  0  0  0
 10  5  1  6  0  0  0
 10  9  1  0  0  0  0
 11 10  1  0  0  0  0
 11 12  1  0  0  0  0
 12 13  1  0  0  0  0
 13 16  1  1  0  0  0
 15 14  1  0  0  0  0
 17 16  1  0  0  0  0
 18  3  1  0  0  0  0
 19 20  2  0  0  0  0
 20 18  1  0  0  0  0
 20 23  1  0  0  0  0
 21 20  1  0  0  0  0
 22 21  1  0  0  0  0
 23 24  1  0  0  0  0
M  END
>  <minimizedAffinity>
-6.22194576

>  <minimizedRMSD>
0.448272407

$$$$
