
 OpenBabel03252500423D

 28 30  0  0  1  0  0  0  0  0999 V2000
   38.6660   29.4060   42.5800 C   0  0  1  0  0  0  0  0  0  0  0  0
   39.5030   28.9200   41.4310 C   0  0  0  0  0  0  0  0  0  0  0  0
   38.1690   29.5700   41.1840 C   0  0  2  0  0  0  0  0  0  0  0  0
   39.0510   30.3590   42.9930 H   0  0  0  0  0  0  0  0  0  0  0  0
   39.6250   27.8290   41.2550 H   0  0  0  0  0  0  0  0  0  0  0  0
   40.4160   29.4730   41.1130 H   0  0  0  0  0  0  0  0  0  0  0  0
   37.4010   28.8550   40.8220 H   0  0  0  0  0  0  0  0  0  0  0  0
   36.8040   31.3480   40.0170 C   0  0  2  0  0  3  0  0  0  0  0  0
   38.1480   30.8860   40.4970 C   0  0  1  0  0  3  0  0  0  0  0  0
   38.5290   31.9540   41.2970 O   0  0  0  0  0  0  0  0  0  0  0  0
   38.4440   33.0040   40.3680 C   0  0  0  0  0  2  0  0  0  0  0  0
   37.2050   32.7470   39.5260 C   0  0  1  0  0  3  0  0  0  0  0  0
   35.8870   31.4360   41.0410 O   0  0  0  0  0  0  0  0  0  0  0  0
   35.9100   32.3340   41.4560 H   0  0  0  0  0  0  0  0  0  0  0  0
   37.5730   32.6180   38.1980 O   0  0  0  0  0  0  0  0  0  0  0  0
   38.5540   32.6950   38.0740 H   0  0  0  0  0  0  0  0  0  0  0  0
   37.9480   28.3850   43.3930 C   0  0  0  0  0  0  0  0  0  0  0  0
   38.1880   28.6250   44.4720 H   0  0  0  0  0  0  0  0  0  0  0  0
   36.8610   28.4640   43.2100 H   0  0  0  0  0  0  0  0  0  0  0  0
   38.4690   27.0220   43.2020 C   0  0  0  0  0  0  0  0  0  0  0  0
   37.6430   26.1870   42.4810 C   0  0  0  0  0  0  0  0  0  0  0  0
   38.0180   24.8570   42.2260 C   0  0  0  0  0  0  0  0  0  0  0  0
   39.2240   24.4660   42.7320 N   0  0  0  0  0  0  0  0  0  0  0  0
   40.0180   25.3140   43.4390 C   0  0  0  0  0  0  0  0  0  0  0  0
   39.6590   26.5770   43.6790 N   0  0  0  0  0  0  0  0  0  0  0  0
   36.6840   26.2730   41.9970 H   0  0  0  0  0  0  0  0  0  0  0  0
   37.5280   24.0620   41.6970 H   0  0  0  0  0  0  0  0  0  0  0  0
   40.9630   24.9270   43.8070 H   0  0  0  0  0  0  0  0  0  0  0  0
  1  4  1  1  0  0  0
  1 17  1  0  0  0  0
  2  1  1  0  0  0  0
  3  7  1  6  0  0  0
  3  2  1  0  0  0  0
  3  1  1  0  0  0  0
  5  2  1  0  0  0  0
  6  2  1  0  0  0  0
  8  9  1  0  0  0  0
  8 13  1  1  0  0  0
  9  3  1  0  0  0  0
  9 10  1  1  0  0  0
 11 10  1  0  0  0  0
 12 15  1  6  0  0  0
 12  8  1  0  0  0  0
 12 11  1  0  0  0  0
 13 14  1  0  0  0  0
 16 15  1  0  0  0  0
 17 18  1  0  0  0  0
 19 17  1  0  0  0  0
 20 17  1  0  0  0  0
 20 25  1  0  0  0  0
 21 20  2  0  0  0  0
 22 21  1  0  0  0  0
 22 23  2  0  0  0  0
 23 24  1  0  0  0  0
 24 25  2  0  0  0  0
 24 28  1  0  0  0  0
 26 21  1  0  0  0  0
 27 22  1  0  0  0  0
M  END
>  <minimizedAffinity>
-5.2379775

$$$$

 OpenBabel03252500423D

 28 30  0  0  1  0  0  0  0  0999 V2000
   36.7110   28.1850   41.0680 C   0  0  1  0  0  0  0  0  0  0  0  0
   35.4700   28.8900   40.5980 C   0  0  0  0  0  0  0  0  0  0  0  0
   36.7020   29.6720   40.9600 C   0  0  2  0  0  0  0  0  0  0  0  0
   37.2590   27.7160   40.2270 H   0  0  0  0  0  0  0  0  0  0  0  0
   34.5750   28.9370   41.2550 H   0  0  0  0  0  0  0  0  0  0  0  0
   35.1680   28.8650   39.5260 H   0  0  0  0  0  0  0  0  0  0  0  0
   36.5840   30.2570   41.8960 H   0  0  0  0  0  0  0  0  0  0  0  0
   36.8530   31.7330   39.5040 C   0  0  2  0  0  3  0  0  0  0  0  0
   37.4170   30.3940   39.8780 C   0  0  1  0  0  3  0  0  0  0  0  0
   38.7280   30.7310   40.1840 O   0  0  0  0  0  0  0  0  0  0  0  0
   39.1170   31.3400   38.9790 C   0  0  0  0  0  2  0  0  0  0  0  0
   37.9320   32.1650   38.5010 C   0  0  1  0  0  3  0  0  0  0  0  0
   36.8100   32.5960   40.5760 O   0  0  0  0  0  0  0  0  0  0  0  0
   37.6530   33.1100   40.6460 H   0  0  0  0  0  0  0  0  0  0  0  0
   37.5310   31.7110   37.2570 O   0  0  0  0  0  0  0  0  0  0  0  0
   38.0740   30.9400   36.9480 H   0  0  0  0  0  0  0  0  0  0  0  0
   36.7180   27.6500   42.4580 C   0  0  0  0  0  0  0  0  0  0  0  0
   37.0740   28.5000   43.1140 H   0  0  0  0  0  0  0  0  0  0  0  0
   35.6960   27.3420   42.7410 H   0  0  0  0  0  0  0  0  0  0  0  0
   37.7190   26.5910   42.6660 C   0  0  0  0  0  0  0  0  0  0  0  0
   38.8160   26.9740   43.4080 C   0  0  0  0  0  0  0  0  0  0  0  0
   39.8500   26.0620   43.6800 C   0  0  0  0  0  0  0  0  0  0  0  0
   39.6910   24.8060   43.1680 N   0  0  0  0  0  0  0  0  0  0  0  0
   38.5970   24.4580   42.4410 C   0  0  0  0  0  0  0  0  0  0  0  0
   37.6160   25.3270   42.1840 N   0  0  0  0  0  0  0  0  0  0  0  0
   39.1430   27.8760   43.9000 H   0  0  0  0  0  0  0  0  0  0  0  0
   40.7680   26.1600   44.2260 H   0  0  0  0  0  0  0  0  0  0  0  0
   38.5450   23.4390   42.0690 H   0  0  0  0  0  0  0  0  0  0  0  0
  1  4  1  6  0  0  0
  1 17  1  0  0  0  0
  2  3  1  0  0  0  0
  2  1  1  0  0  0  0
  2  5  1  0  0  0  0
  3  1  1  0  0  0  0
  3  7  1  1  0  0  0
  6  2  1  0  0  0  0
  8  9  1  0  0  0  0
  8 13  1  1  0  0  0
  9 10  1  1  0  0  0
  9  3  1  0  0  0  0
 11 10  1  0  0  0  0
 12 15  1  6  0  0  0
 12 11  1  0  0  0  0
 12  8  1  0  0  0  0
 13 14  1  0  0  0  0
 16 15  1  0  0  0  0
 17 20  1  0  0  0  0
 17 19  1  0  0  0  0
 17 18  1  0  0  0  0
 20 21  1  0  0  0  0
 21 22  2  0  0  0  0
 21 26  1  0  0  0  0
 22 27  1  0  0  0  0
 23 22  1  0  0  0  0
 24 23  2  0  0  0  0
 25 24  1  0  0  0  0
 25 20  2  0  0  0  0
 28 24  1  0  0  0  0
M  END
>  <minimizedAffinity>
-5.07374668

$$$$

 OpenBabel03252500423D

 28 30  0  0  1  0  0  0  0  0999 V2000
   36.4380   28.6990   40.7540 C   0  0  1  0  0  0  0  0  0  0  0  0
   35.0510   29.1100   40.3490 C   0  0  0  0  0  0  0  0  0  0  0  0
   36.0200   30.1240   40.8930 C   0  0  2  0  0  0  0  0  0  0  0  0
   37.0940   28.5480   39.8740 H   0  0  0  0  0  0  0  0  0  0  0  0
   34.1780   28.7990   40.9620 H   0  0  0  0  0  0  0  0  0  0  0  0
   34.7670   29.1890   39.2740 H   0  0  0  0  0  0  0  0  0  0  0  0
   35.7450   30.4840   41.9060 H   0  0  0  0  0  0  0  0  0  0  0  0
   37.4510   32.1840   40.5850 C   0  0  2  0  0  3  0  0  0  0  0  0
   36.5080   31.1870   39.9800 C   0  0  1  0  0  3  0  0  0  0  0  0
   37.2600   30.7220   38.9100 O   0  0  0  0  0  0  0  0  0  0  0  0
   37.5200   31.9310   38.2430 C   0  0  0  0  0  2  0  0  0  0  0  0
   37.7990   32.9730   39.3150 C   0  0  1  0  0  3  0  0  0  0  0  0
   38.5750   31.5850   41.1100 O   0  0  0  0  0  0  0  0  0  0  0  0
   39.2860   31.5140   40.4260 H   0  0  0  0  0  0  0  0  0  0  0  0
   36.8730   33.9970   39.2100 O   0  0  0  0  0  0  0  0  0  0  0  0
   36.2150   33.8320   38.4850 H   0  0  0  0  0  0  0  0  0  0  0  0
   36.5930   27.9550   42.0350 C   0  0  0  0  0  0  0  0  0  0  0  0
   36.0690   28.5800   42.8190 H   0  0  0  0  0  0  0  0  0  0  0  0
   36.1160   26.9630   41.9460 H   0  0  0  0  0  0  0  0  0  0  0  0
   37.9880   27.8870   42.5000 C   0  0  0  0  0  0  0  0  0  0  0  0
   38.3110   26.7320   43.1780 C   0  0  0  0  0  0  0  0  0  0  0  0
   39.6100   26.5370   43.6790 C   0  0  0  0  0  0  0  0  0  0  0  0
   40.4990   27.5480   43.4510 N   0  0  0  0  0  0  0  0  0  0  0  0
   40.1500   28.6750   42.7770 C   0  0  0  0  0  0  0  0  0  0  0  0
   38.9150   28.8580   42.3030 N   0  0  0  0  0  0  0  0  0  0  0  0
   37.7960   25.8290   43.4640 H   0  0  0  0  0  0  0  0  0  0  0  0
   40.0550   25.7260   44.2240 H   0  0  0  0  0  0  0  0  0  0  0  0
   40.9140   29.4330   42.6370 H   0  0  0  0  0  0  0  0  0  0  0  0
  1  4  1  6  0  0  0
  1  3  1  0  0  0  0
  1 17  1  0  0  0  0
  2  1  1  0  0  0  0
  2  3  1  0  0  0  0
  2  5  1  0  0  0  0
  3  7  1  1  0  0  0
  6  2  1  0  0  0  0
  8 13  1  6  0  0  0
  9 10  1  6  0  0  0
  9  8  1  0  0  0  0
  9  3  1  0  0  0  0
 11 10  1  0  0  0  0
 11 12  1  0  0  0  0
 12 15  1  6  0  0  0
 12  8  1  0  0  0  0
 14 13  1  0  0  0  0
 16 15  1  0  0  0  0
 17 20  1  0  0  0  0
 17 18  1  0  0  0  0
 19 17  1  0  0  0  0
 20 21  1  0  0  0  0
 21 26  1  0  0  0  0
 21 22  2  0  0  0  0
 22 27  1  0  0  0  0
 23 22  1  0  0  0  0
 24 23  2  0  0  0  0
 25 20  2  0  0  0  0
 25 24  1  0  0  0  0
 28 24  1  0  0  0  0
M  END
>  <minimizedAffinity>
-5.01067591

$$$$

 OpenBabel03252500423D

 28 30  0  0  1  0  0  0  0  0999 V2000
   37.2380   28.4770   42.6580 C   0  0  1  0  0  0  0  0  0  0  0  0
   36.3490   27.5390   43.4240 C   0  0  0  0  0  0  0  0  0  0  0  0
   37.3070   27.0120   42.3910 C   0  0  2  0  0  0  0  0  0  0  0  0
   38.0930   28.8230   43.2710 H   0  0  0  0  0  0  0  0  0  0  0  0
   35.2560   27.5190   43.2220 H   0  0  0  0  0  0  0  0  0  0  0  0
   36.5550   27.2980   44.4930 H   0  0  0  0  0  0  0  0  0  0  0  0
   36.7960   26.6270   41.4840 H   0  0  0  0  0  0  0  0  0  0  0  0
   39.0630   25.2890   41.8120 C   0  0  2  0  0  3  0  0  0  0  0  0
   38.4420   26.1730   42.8520 C   0  0  1  0  0  3  0  0  0  0  0  0
   39.5470   26.8930   43.2840 O   0  0  0  0  0  0  0  0  0  0  0  0
   40.3920   25.8430   43.6770 C   0  0  0  0  0  2  0  0  0  0  0  0
   40.2300   24.7390   42.6440 C   0  0  1  0  0  3  0  0  0  0  0  0
   39.5290   26.0040   40.7310 O   0  0  0  0  0  0  0  0  0  0  0  0
   40.4670   26.2830   40.8740 H   0  0  0  0  0  0  0  0  0  0  0  0
   39.7750   23.5910   43.2690 O   0  0  0  0  0  0  0  0  0  0  0  0
   39.6280   23.7280   44.2410 H   0  0  0  0  0  0  0  0  0  0  0  0
   36.6160   29.2900   41.5760 C   0  0  0  0  0  0  0  0  0  0  0  0
   36.6910   28.6630   40.6370 H   0  0  0  0  0  0  0  0  0  0  0  0
   35.5590   29.4920   41.8260 H   0  0  0  0  0  0  0  0  0  0  0  0
   37.3780   30.5090   41.2570 C   0  0  0  0  0  0  0  0  0  0  0  0
   38.6690   30.5220   41.7410 C   0  0  0  0  0  0  0  0  0  0  0  0
   39.5070   31.6260   41.5100 C   0  0  0  0  0  0  0  0  0  0  0  0
   38.9630   32.6540   40.7950 N   0  0  0  0  0  0  0  0  0  0  0  0
   37.6860   32.6100   40.3300 C   0  0  0  0  0  0  0  0  0  0  0  0
   36.8920   31.5600   40.5510 N   0  0  0  0  0  0  0  0  0  0  0  0
   39.2930   29.8480   42.3060 H   0  0  0  0  0  0  0  0  0  0  0  0
   40.5220   31.8290   41.7950 H   0  0  0  0  0  0  0  0  0  0  0  0
   37.3270   33.4680   39.7690 H   0  0  0  0  0  0  0  0  0  0  0  0
  1  4  1  1  0  0  0
  1  2  1  0  0  0  0
  2  6  1  0  0  0  0
  3  7  1  6  0  0  0
  3  1  1  0  0  0  0
  3  9  1  0  0  0  0
  3  2  1  0  0  0  0
  5  2  1  0  0  0  0
  8 13  1  6  0  0  0
  8 12  1  0  0  0  0
  8  9  1  0  0  0  0
  9 10  1  6  0  0  0
 10 11  1  0  0  0  0
 12 15  1  1  0  0  0
 12 11  1  0  0  0  0
 13 14  1  0  0  0  0
 15 16  1  0  0  0  0
 17 19  1  0  0  0  0
 17  1  1  0  0  0  0
 18 17  1  0  0  0  0
 20 17  1  0  0  0  0
 20 21  1  0  0  0  0
 21 26  1  0  0  0  0
 22 21  2  0  0  0  0
 22 27  1  0  0  0  0
 23 22  1  0  0  0  0
 24 25  1  0  0  0  0
 24 23  2  0  0  0  0
 25 20  2  0  0  0  0
 28 24  1  0  0  0  0
M  END
>  <minimizedAffinity>
-4.9517169

$$$$

 OpenBabel03252500423D

 28 30  0  0  1  0  0  0  0  0999 V2000
   36.9310   28.2140   41.9590 C   0  0  1  0  0  0  0  0  0  0  0  0
   36.5950   27.6580   43.3140 C   0  0  0  0  0  0  0  0  0  0  0  0
   36.8480   26.7380   42.1510 C   0  0  2  0  0  0  0  0  0  0  0  0
   37.9820   28.5630   41.9090 H   0  0  0  0  0  0  0  0  0  0  0  0
   35.5650   27.7640   43.7180 H   0  0  0  0  0  0  0  0  0  0  0  0
   37.3440   27.6680   44.1390 H   0  0  0  0  0  0  0  0  0  0  0  0
   35.9300   26.2230   41.8000 H   0  0  0  0  0  0  0  0  0  0  0  0
   37.8030   24.4000   42.0690 C   0  0  2  0  0  3  0  0  0  0  0  0
   38.0540   25.8730   42.1910 C   0  0  1  0  0  3  0  0  0  0  0  0
   38.9420   26.0810   41.1460 O   0  0  0  0  0  0  0  0  0  0  0  0
   39.9540   25.1710   41.4920 C   0  0  0  0  0  2  0  0  0  0  0  0
   39.2620   23.9220   42.0140 C   0  0  1  0  0  3  0  0  0  0  0  0
   37.1410   24.0790   40.9040 O   0  0  0  0  0  0  0  0  0  0  0  0
   37.7840   23.9040   40.1730 H   0  0  0  0  0  0  0  0  0  0  0  0
   39.6590   23.6890   43.3190 O   0  0  0  0  0  0  0  0  0  0  0  0
   40.2850   24.3860   43.6480 H   0  0  0  0  0  0  0  0  0  0  0  0
   35.8240   28.8140   41.1630 C   0  0  0  0  0  0  0  0  0  0  0  0
   35.4540   27.9910   40.4810 H   0  0  0  0  0  0  0  0  0  0  0  0
   35.0190   29.1470   41.8420 H   0  0  0  0  0  0  0  0  0  0  0  0
   36.2780   29.8690   40.2430 C   0  0  0  0  0  0  0  0  0  0  0  0
   36.6020   31.0620   40.8530 C   0  0  0  0  0  0  0  0  0  0  0  0
   37.0490   32.1560   40.0910 C   0  0  0  0  0  0  0  0  0  0  0  0
   37.1340   31.9540   38.7440 N   0  0  0  0  0  0  0  0  0  0  0  0
   36.8090   30.7640   38.1720 C   0  0  0  0  0  0  0  0  0  0  0  0
   36.3840   29.7270   38.8980 N   0  0  0  0  0  0  0  0  0  0  0  0
   36.6170   31.4390   41.8630 H   0  0  0  0  0  0  0  0  0  0  0  0
   37.3440   33.1500   40.3680 H   0  0  0  0  0  0  0  0  0  0  0  0
   36.9040   30.6830   37.0940 H   0  0  0  0  0  0  0  0  0  0  0  0
  1  4  1  6  0  0  0
  1  3  1  0  0  0  0
  1  2  1  0  0  0  0
  2  5  1  0  0  0  0
  2  6  1  0  0  0  0
  3  7  1  6  0  0  0
  3  9  1  0  0  0  0
  3  2  1  0  0  0  0
  8 13  1  6  0  0  0
  8  9  1  0  0  0  0
  9 10  1  6  0  0  0
 10 11  1  0  0  0  0
 11 12  1  0  0  0  0
 12  8  1  0  0  0  0
 12 15  1  1  0  0  0
 14 13  1  0  0  0  0
 15 16  1  0  0  0  0
 17 19  1  0  0  0  0
 17  1  1  0  0  0  0
 18 17  1  0  0  0  0
 20 21  1  0  0  0  0
 20 17  1  0  0  0  0
 21 26  1  0  0  0  0
 22 27  1  0  0  0  0
 22 21  2  0  0  0  0
 23 22  1  0  0  0  0
 24 23  2  0  0  0  0
 24 25  1  0  0  0  0
 25 20  2  0  0  0  0
 28 24  1  0  0  0  0
M  END
>  <minimizedAffinity>
-4.85785675

$$$$

 OpenBabel03252500423D

 28 30  0  0  1  0  0  0  0  0999 V2000
   36.4910   28.8620   39.1770 C   0  0  1  0  0  0  0  0  0  0  0  0
   35.7890   29.6810   38.1300 C   0  0  0  0  0  0  0  0  0  0  0  0
   36.8850   30.2840   38.9640 C   0  0  2  0  0  0  0  0  0  0  0  0
   37.2220   28.1610   38.7260 H   0  0  0  0  0  0  0  0  0  0  0  0
   34.7370   30.0010   38.2890 H   0  0  0  0  0  0  0  0  0  0  0  0
   35.9910   29.5210   37.0460 H   0  0  0  0  0  0  0  0  0  0  0  0
   36.5130   31.0370   39.6900 H   0  0  0  0  0  0  0  0  0  0  0  0
   38.6830   32.0270   38.6210 C   0  0  2  0  0  3  0  0  0  0  0  0
   38.1510   30.6650   38.2880 C   0  0  1  0  0  3  0  0  0  0  0  0
   39.2370   29.8650   38.6160 O   0  0  0  0  0  0  0  0  0  0  0  0
   40.2270   30.4440   37.8050 C   0  0  0  0  0  2  0  0  0  0  0  0
   40.0110   31.9490   37.8540 C   0  0  1  0  0  3  0  0  0  0  0  0
   38.9090   32.1820   39.9710 O   0  0  0  0  0  0  0  0  0  0  0  0
   39.8280   31.9020   40.2070 H   0  0  0  0  0  0  0  0  0  0  0  0
   39.7660   32.4180   36.5750 O   0  0  0  0  0  0  0  0  0  0  0  0
   39.7590   31.6860   35.9040 H   0  0  0  0  0  0  0  0  0  0  0  0
   35.7610   28.5880   40.4460 C   0  0  0  0  0  0  0  0  0  0  0  0
   35.2590   29.5610   40.7280 H   0  0  0  0  0  0  0  0  0  0  0  0
   35.0090   27.7970   40.2770 H   0  0  0  0  0  0  0  0  0  0  0  0
   36.6570   28.3030   41.5780 C   0  0  0  0  0  0  0  0  0  0  0  0
   36.9970   26.9750   41.7210 C   0  0  0  0  0  0  0  0  0  0  0  0
   37.8460   26.5620   42.7630 C   0  0  0  0  0  0  0  0  0  0  0  0
   38.2920   27.5450   43.5980 N   0  0  0  0  0  0  0  0  0  0  0  0
   37.9400   28.8470   43.4300 C   0  0  0  0  0  0  0  0  0  0  0  0
   37.1340   29.2360   42.4400 N   0  0  0  0  0  0  0  0  0  0  0  0
   36.7770   26.0570   41.1990 H   0  0  0  0  0  0  0  0  0  0  0  0
   38.2230   25.5960   43.0410 H   0  0  0  0  0  0  0  0  0  0  0  0
   38.3370   29.5690   44.1370 H   0  0  0  0  0  0  0  0  0  0  0  0
  1  4  1  6  0  0  0
  1 17  1  0  0  0  0
  2  5  1  0  0  0  0
  2  3  1  0  0  0  0
  2  1  1  0  0  0  0
  3  1  1  0  0  0  0
  3  7  1  1  0  0  0
  6  2  1  0  0  0  0
  8 13  1  1  0  0  0
  9 10  1  1  0  0  0
  9  8  1  0  0  0  0
  9  3  1  0  0  0  0
 11 12  1  0  0  0  0
 11 10  1  0  0  0  0
 12 15  1  6  0  0  0
 12  8  1  0  0  0  0
 13 14  1  0  0  0  0
 16 15  1  0  0  0  0
 17 18  1  0  0  0  0
 17 20  1  0  0  0  0
 19 17  1  0  0  0  0
 20 21  2  0  0  0  0
 20 25  1  0  0  0  0
 21 22  1  0  0  0  0
 22 27  1  0  0  0  0
 22 23  2  0  0  0  0
 24 23  1  0  0  0  0
 24 28  1  0  0  0  0
 25 24  2  0  0  0  0
 26 21  1  0  0  0  0
M  END
>  <minimizedAffinity>
-4.85679388

$$$$

 OpenBabel03252500423D

 28 30  0  0  1  0  0  0  0  0999 V2000
   37.6740   28.6780   42.4680 C   0  0  1  0  0  0  0  0  0  0  0  0
   37.0960   28.0010   43.6790 C   0  0  0  0  0  0  0  0  0  0  0  0
   37.3760   27.2180   42.4260 C   0  0  2  0  0  0  0  0  0  0  0  0
   38.7580   28.8730   42.5860 H   0  0  0  0  0  0  0  0  0  0  0  0
   36.0450   28.2020   43.9800 H   0  0  0  0  0  0  0  0  0  0  0  0
   37.7270   27.7910   44.5740 H   0  0  0  0  0  0  0  0  0  0  0  0
   36.4520   26.8940   41.9030 H   0  0  0  0  0  0  0  0  0  0  0  0
   38.0470   24.8180   42.0050 C   0  0  2  0  0  3  0  0  0  0  0  0
   38.4450   26.1880   42.4670 C   0  0  1  0  0  3  0  0  0  0  0  0
   39.5240   26.4490   41.6350 O   0  0  0  0  0  0  0  0  0  0  0  0
   40.3430   25.3480   41.9340 C   0  0  0  0  0  2  0  0  0  0  0  0
   39.4250   24.1430   42.0730 C   0  0  1  0  0  3  0  0  0  0  0  0
   37.5710   24.8230   40.7120 O   0  0  0  0  0  0  0  0  0  0  0  0
   38.3080   24.6910   40.0670 H   0  0  0  0  0  0  0  0  0  0  0  0
   39.5530   23.6150   43.3460 O   0  0  0  0  0  0  0  0  0  0  0  0
   40.1880   24.1360   43.9040 H   0  0  0  0  0  0  0  0  0  0  0  0
   36.7660   29.5350   41.6560 C   0  0  0  0  0  0  0  0  0  0  0  0
   36.4960   28.9210   40.7450 H   0  0  0  0  0  0  0  0  0  0  0  0
   35.8630   29.7770   42.2430 H   0  0  0  0  0  0  0  0  0  0  0  0
   37.4330   30.7250   41.1030 C   0  0  0  0  0  0  0  0  0  0  0  0
   36.7020   31.4050   40.1540 C   0  0  0  0  0  0  0  0  0  0  0  0
   37.2210   32.5590   39.5420 C   0  0  0  0  0  0  0  0  0  0  0  0
   38.4670   32.9430   39.9470 N   0  0  0  0  0  0  0  0  0  0  0  0
   39.1640   32.2510   40.8880 C   0  0  0  0  0  0  0  0  0  0  0  0
   38.6680   31.1550   41.4660 N   0  0  0  0  0  0  0  0  0  0  0  0
   35.7310   31.2950   39.6960 H   0  0  0  0  0  0  0  0  0  0  0  0
   36.8200   33.2180   38.7970 H   0  0  0  0  0  0  0  0  0  0  0  0
   40.1490   32.6210   41.1550 H   0  0  0  0  0  0  0  0  0  0  0  0
  1  4  1  1  0  0  0
  1  2  1  0  0  0  0
  2  5  1  0  0  0  0
  2  6  1  0  0  0  0
  3  7  1  6  0  0  0
  3  9  1  0  0  0  0
  3  1  1  0  0  0  0
  3  2  1  0  0  0  0
  8 13  1  6  0  0  0
  8 12  1  0  0  0  0
  8  9  1  0  0  0  0
  9 10  1  6  0  0  0
 10 11  1  0  0  0  0
 11 12  1  0  0  0  0
 12 15  1  1  0  0  0
 14 13  1  0  0  0  0
 15 16  1  0  0  0  0
 17 19  1  0  0  0  0
 17  1  1  0  0  0  0
 18 17  1  0  0  0  0
 20 25  1  0  0  0  0
 20 17  1  0  0  0  0
 21 20  2  0  0  0  0
 22 23  2  0  0  0  0
 22 21  1  0  0  0  0
 23 24  1  0  0  0  0
 24 28  1  0  0  0  0
 24 25  2  0  0  0  0
 26 21  1  0  0  0  0
 27 22  1  0  0  0  0
M  END
>  <minimizedAffinity>
-4.76422071

$$$$

 OpenBabel03252500423D

 28 30  0  0  1  0  0  0  0  0999 V2000
   36.3730   28.6270   40.5790 C   0  0  1  0  0  0  0  0  0  0  0  0
   34.9890   29.1710   40.3610 C   0  0  0  0  0  0  0  0  0  0  0  0
   36.0940   30.0660   40.8540 C   0  0  2  0  0  0  0  0  0  0  0  0
   36.9150   28.4900   39.6220 H   0  0  0  0  0  0  0  0  0  0  0  0
   34.1650   28.8840   41.0480 H   0  0  0  0  0  0  0  0  0  0  0  0
   34.5990   29.3490   39.3320 H   0  0  0  0  0  0  0  0  0  0  0  0
   35.9610   30.3720   41.9130 H   0  0  0  0  0  0  0  0  0  0  0  0
   37.4870   32.1570   40.5870 C   0  0  2  0  0  3  0  0  0  0  0  0
   36.5680   31.1520   39.9600 C   0  0  1  0  0  3  0  0  0  0  0  0
   37.3360   30.7170   38.8890 O   0  0  0  0  0  0  0  0  0  0  0  0
   37.5770   31.9400   38.2420 C   0  0  0  0  0  2  0  0  0  0  0  0
   37.8290   32.9710   39.3310 C   0  0  1  0  0  3  0  0  0  0  0  0
   38.6190   31.5710   41.1110 O   0  0  0  0  0  0  0  0  0  0  0  0
   39.3360   31.5250   40.4310 H   0  0  0  0  0  0  0  0  0  0  0  0
   36.8850   33.9790   39.2340 O   0  0  0  0  0  0  0  0  0  0  0  0
   36.2350   33.8120   38.5030 H   0  0  0  0  0  0  0  0  0  0  0  0
   36.6020   27.7830   41.7850 C   0  0  0  0  0  0  0  0  0  0  0  0
   37.5140   28.2160   42.2960 H   0  0  0  0  0  0  0  0  0  0  0  0
   35.7210   27.8390   42.4480 H   0  0  0  0  0  0  0  0  0  0  0  0
   36.9940   26.4020   41.4580 C   0  0  0  0  0  0  0  0  0  0  0  0
   36.8980   26.0780   40.1220 C   0  0  0  0  0  0  0  0  0  0  0  0
   37.2390   24.7910   39.6720 C   0  0  0  0  0  0  0  0  0  0  0  0
   37.6590   23.9130   40.6290 N   0  0  0  0  0  0  0  0  0  0  0  0
   37.7450   24.2630   41.9400 C   0  0  0  0  0  0  0  0  0  0  0  0
   37.4190   25.4860   42.3640 N   0  0  0  0  0  0  0  0  0  0  0  0
   36.6070   26.5900   39.2190 H   0  0  0  0  0  0  0  0  0  0  0  0
   37.2340   24.3480   38.6950 H   0  0  0  0  0  0  0  0  0  0  0  0
   38.0880   23.5070   42.6400 H   0  0  0  0  0  0  0  0  0  0  0  0
  1  4  1  6  0  0  0
  1  3  1  0  0  0  0
  1 17  1  0  0  0  0
  2  1  1  0  0  0  0
  2  3  1  0  0  0  0
  2  5  1  0  0  0  0
  3  7  1  1  0  0  0
  6  2  1  0  0  0  0
  8 13  1  6  0  0  0
  9 10  1  6  0  0  0
  9  8  1  0  0  0  0
  9  3  1  0  0  0  0
 11 10  1  0  0  0  0
 11 12  1  0  0  0  0
 12 15  1  6  0  0  0
 12  8  1  0  0  0  0
 14 13  1  0  0  0  0
 16 15  1  0  0  0  0
 17 18  1  0  0  0  0
 17 19  1  0  0  0  0
 20 17  1  0  0  0  0
 20 25  1  0  0  0  0
 21 20  2  0  0  0  0
 22 21  1  0  0  0  0
 22 23  2  0  0  0  0
 23 24  1  0  0  0  0
 24 25  2  0  0  0  0
 24 28  1  0  0  0  0
 26 21  1  0  0  0  0
 27 22  1  0  0  0  0
M  END
>  <minimizedAffinity>
-4.76097107

$$$$

 OpenBabel03252500423D

 28 30  0  0  1  0  0  0  0  0999 V2000
   37.2460   29.2320   38.6390 C   0  0  1  0  0  0  0  0  0  0  0  0
   36.9120   30.2490   37.5840 C   0  0  0  0  0  0  0  0  0  0  0  0
   37.0950   30.6660   39.0180 C   0  0  2  0  0  0  0  0  0  0  0  0
   38.3110   28.9290   38.5930 H   0  0  0  0  0  0  0  0  0  0  0  0
   35.8980   30.2680   37.1310 H   0  0  0  0  0  0  0  0  0  0  0  0
   37.6780   30.5820   36.8460 H   0  0  0  0  0  0  0  0  0  0  0  0
   36.1460   30.9750   39.5030 H   0  0  0  0  0  0  0  0  0  0  0  0
   37.9730   32.9930   39.4690 C   0  0  2  0  0  3  0  0  0  0  0  0
   38.2590   31.5250   39.3550 C   0  0  1  0  0  3  0  0  0  0  0  0
   38.8220   31.2640   40.5960 O   0  0  0  0  0  0  0  0  0  0  0  0
   39.8840   32.1840   40.5860 C   0  0  0  0  0  2  0  0  0  0  0  0
   39.3550   33.4590   39.9490 C   0  0  1  0  0  3  0  0  0  0  0  0
   37.0110   33.2640   40.4160 O   0  0  0  0  0  0  0  0  0  0  0  0
   37.4230   33.4020   41.3040 H   0  0  0  0  0  0  0  0  0  0  0  0
   40.0990   33.7490   38.8190 O   0  0  0  0  0  0  0  0  0  0  0  0
   40.7970   33.0640   38.6460 H   0  0  0  0  0  0  0  0  0  0  0  0
   36.1530   28.3350   39.1050 C   0  0  0  0  0  0  0  0  0  0  0  0
   35.2720   29.0100   39.3240 H   0  0  0  0  0  0  0  0  0  0  0  0
   35.9010   27.6130   38.3070 H   0  0  0  0  0  0  0  0  0  0  0  0
   36.4430   27.6910   40.3960 C   0  0  0  0  0  0  0  0  0  0  0  0
   36.8860   26.3890   40.3020 C   0  0  0  0  0  0  0  0  0  0  0  0
   37.1980   25.6540   41.4590 C   0  0  0  0  0  0  0  0  0  0  0  0
   37.0340   26.3080   42.6460 N   0  0  0  0  0  0  0  0  0  0  0  0
   36.5970   27.5930   42.7070 C   0  0  0  0  0  0  0  0  0  0  0  0
   36.3010   28.2880   41.6060 N   0  0  0  0  0  0  0  0  0  0  0  0
   37.0880   25.6940   39.5030 H   0  0  0  0  0  0  0  0  0  0  0  0
   37.5500   24.6500   41.5980 H   0  0  0  0  0  0  0  0  0  0  0  0
   36.4940   28.0420   43.6900 H   0  0  0  0  0  0  0  0  0  0  0  0
  1  4  1  6  0  0  0
  1  3  1  0  0  0  0
  1 17  1  0  0  0  0
  2  1  1  0  0  0  0
  2  3  1  0  0  0  0
  3  9  1  0  0  0  0
  3  7  1  1  0  0  0
  5  2  1  0  0  0  0
  6  2  1  0  0  0  0
  8 12  1  0  0  0  0
  8 13  1  1  0  0  0
  9  8  1  0  0  0  0
  9 10  1  1  0  0  0
 11 10  1  0  0  0  0
 12 15  1  6  0  0  0
 12 11  1  0  0  0  0
 13 14  1  0  0  0  0
 16 15  1  0  0  0  0
 17 18  1  0  0  0  0
 17 20  1  0  0  0  0
 19 17  1  0  0  0  0
 20 25  1  0  0  0  0
 21 20  2  0  0  0  0
 21 22  1  0  0  0  0
 22 27  1  0  0  0  0
 22 23  2  0  0  0  0
 23 24  1  0  0  0  0
 24 28  1  0  0  0  0
 25 24  2  0  0  0  0
 26 21  1  0  0  0  0
M  END
>  <minimizedAffinity>
-4.75940752

$$$$
