
 OpenBabel03242523463D

 19 20  0  0  1  0  0  0  0  0999 V2000
   44.9940   35.4190   44.1930 C   0  0  0  0  0  0  0  0  0  0  0  0
   46.0150   34.9780   43.3330 C   0  0  0  0  0  0  0  0  0  0  0  0
   46.8360   33.9390   43.7900 C   0  0  0  0  0  0  0  0  0  0  0  0
   46.6110   33.4090   45.0280 N   0  0  0  0  0  0  0  0  0  0  0  0
   45.6160   33.8680   45.8150 C   0  0  0  0  0  0  0  0  0  0  0  0
   44.8200   34.8540   45.4060 N   0  0  0  0  0  0  0  0  0  0  0  0
   46.2120   35.3810   42.3560 H   0  0  0  0  0  0  0  0  0  0  0  0
   45.4960   33.3950   46.7910 H   0  0  0  0  0  0  0  0  0  0  0  0
   47.6890   33.2200   41.5480 C   0  0  1  0  0  3  0  0  0  0  0  0
   47.9390   33.3590   43.0360 C   0  0  1  0  0  3  0  0  0  0  0  0
   49.0600   34.1830   43.0210 O   0  0  0  0  0  0  0  0  0  0  0  0
   49.9290   33.6560   42.0880 C   0  0  0  0  0  2  0  0  0  0  0  0
   49.1130   32.8710   41.0950 C   0  0  2  0  0  3  0  0  0  0  0  0
   46.8040   32.2040   41.2310 O   0  0  0  0  0  0  0  0  0  0  0  0
   46.2100   32.4400   40.4520 H   0  0  0  0  0  0  0  0  0  0  0  0
   49.3350   33.2460   39.7860 O   0  0  0  0  0  0  0  0  0  0  0  0
   49.4590   32.4570   39.1900 H   0  0  0  0  0  0  0  0  0  0  0  0
   44.1950   36.4310   43.7470 O   0  0  0  0  0  0  0  0  0  0  0  0
   44.6210   37.1770   43.2110 H   0  0  0  0  0  0  0  0  0  0  0  0
  1  6  1  0  0  0  0
  2  3  1  0  0  0  0
  2  1  2  0  0  0  0
  3  4  2  0  0  0  0
  4  5  1  0  0  0  0
  5  8  1  0  0  0  0
  6  5  2  0  0  0  0
  7  2  1  0  0  0  0
  9 14  1  1  0  0  0
  9 10  1  0  0  0  0
 10  3  1  1  0  0  0
 11 10  1  0  0  0  0
 12 11  1  0  0  0  0
 13 16  1  6  0  0  0
 13  9  1  0  0  0  0
 13 12  1  0  0  0  0
 15 14  1  0  0  0  0
 17 16  1  0  0  0  0
 18  1  1  0  0  0  0
 19 18  1  0  0  0  0
M  END
>  <minimizedAffinity>
-4.54297018

>  <minimizedRMSD>
0.760187447

$$$$
