
 OpenBabel03252505193D

 34 37  0  0  1  0  0  0  0  0999 V2000
   45.9720   33.0440   46.3930 C   0  0  0  0  0  0  0  0  0  0  0  0
   45.1710   33.0890   47.5150 C   0  0  0  0  0  0  0  0  0  0  0  0
   45.3790   32.1790   48.5420 C   0  0  0  0  0  0  0  0  0  0  0  0
   46.3980   31.2550   48.3900 C   0  0  0  0  0  0  0  0  0  0  0  0
   47.1720   31.2600   47.2380 C   0  0  0  0  0  0  0  0  0  0  0  0
   46.9690   32.1480   46.2340 N   0  0  0  0  0  0  0  0  0  0  0  0
   44.3700   33.8110   47.6410 H   0  0  0  0  0  0  0  0  0  0  0  0
   44.7460   32.2180   49.4220 H   0  0  0  0  0  0  0  0  0  0  0  0
   46.5730   30.5490   49.1680 H   0  0  0  0  0  0  0  0  0  0  0  0
   44.5970   35.8530   44.4400 C   0  0  0  0  0  0  0  0  0  0  0  0
   45.3210   35.8010   43.2260 C   0  0  0  0  0  0  0  0  0  0  0  0
   46.2590   34.7990   43.1350 C   0  0  0  0  0  0  0  0  0  0  0  0
   46.4620   33.9180   44.1690 N   0  0  0  0  0  0  0  0  0  0  0  0
   45.7300   34.0110   45.3270 C   0  0  0  0  0  0  0  0  0  0  0  0
   44.8060   34.9790   45.4460 N   0  0  0  0  0  0  0  0  0  0  0  0
   43.8400   36.6400   44.5460 H   0  0  0  0  0  0  0  0  0  0  0  0
   45.1360   36.5120   42.4320 H   0  0  0  0  0  0  0  0  0  0  0  0
   47.0620   34.6330   41.8800 C   0  0  0  0  0  0  0  0  0  0  0  0
   48.3200   35.5020   41.8780 C   0  0  0  0  0  0  0  0  0  0  0  0
   48.3220   33.9410   41.9380 C   0  0  0  0  0  0  0  0  0  0  0  0
   46.4670   34.6730   40.9380 H   0  0  0  0  0  0  0  0  0  0  0  0
   48.6160   35.9850   42.8320 H   0  0  0  0  0  0  0  0  0  0  0  0
   48.5590   35.9600   40.9210 H   0  0  0  0  0  0  0  0  0  0  0  0
   48.7120   33.4940   42.8800 H   0  0  0  0  0  0  0  0  0  0  0  0
   48.7350   33.4850   41.0200 H   0  0  0  0  0  0  0  0  0  0  0  0
   48.4520   29.7060   45.7490 C   0  0  1  0  0  3  0  0  0  0  0  0
   48.2460   30.2530   47.1250 C   0  0  2  0  0  3  0  0  0  0  0  0
   48.0090   29.1050   47.8720 O   0  0  0  0  0  0  0  0  0  0  0  0
   49.0350   28.2640   47.5050 C   0  0  0  0  0  2  0  0  0  0  0  0
   49.3920   28.5350   46.0680 C   0  0  2  0  0  3  0  0  0  0  0  0
   47.3260   29.2170   45.1340 O   0  0  0  0  0  0  0  0  0  0  0  0
   46.8600   29.8590   44.5430 H   0  0  0  0  0  0  0  0  0  0  0  0
   50.7350   28.9590   46.0540 O   0  0  0  0  0  0  0  0  0  0  0  0
   50.8000   29.8970   46.3650 H   0  0  0  0  0  0  0  0  0  0  0  0
  1  2  1  0  0  0  0
  2  7  1  0  0  0  0
  2  3  2  0  0  0  0
  3  8  1  0  0  0  0
  4  3  1  0  0  0  0
  4  9  1  0  0  0  0
  5  4  2  0  0  0  0
  6  1  2  0  0  0  0
  6  5  1  0  0  0  0
 10 16  1  0  0  0  0
 10 15  1  0  0  0  0
 11 10  2  0  0  0  0
 12 11  1  0  0  0  0
 12 13  2  0  0  0  0
 13 14  1  0  0  0  0
 14 15  2  0  0  0  0
 14  1  1  0  0  0  0
 17 11  1  0  0  0  0
 18 20  1  0  0  0  0
 18 12  1  0  0  0  0
 19 18  1  0  0  0  0
 19 20  1  0  0  0  0
 19 22  1  0  0  0  0
 20 24  1  0  0  0  0
 21 18  1  0  0  0  0
 23 19  1  0  0  0  0
 25 20  1  0  0  0  0
 26 31  1  1  0  0  0
 26 30  1  0  0  0  0
 26 27  1  0  0  0  0
 27  5  1  6  0  0  0
 27 28  1  0  0  0  0
 29 28  1  0  0  0  0
 30 33  1  1  0  0  0
 30 29  1  0  0  0  0
 32 31  1  0  0  0  0
 33 34  1  0  0  0  0
M  END
>  <minimizedAffinity>
-5.74873924

>  <minimizedRMSD>
1.11744046

$$$$
