
 OpenBabel03252507073D

 24 25  0  0  1  0  0  0  0  0999 V2000
   44.7980   35.3850   45.1820 C   0  0  0  0  0  0  0  0  0  0  0  0
   45.3360   35.2610   43.8900 C   0  0  0  0  0  0  0  0  0  0  0  0
   45.9960   34.0770   43.5880 C   0  0  0  0  0  0  0  0  0  0  0  0
   46.0980   33.0940   44.5380 N   0  0  0  0  0  0  0  0  0  0  0  0
   45.5670   33.2520   45.7710 C   0  0  0  0  0  0  0  0  0  0  0  0
   44.9240   34.3900   46.0840 N   0  0  0  0  0  0  0  0  0  0  0  0
   44.2810   36.3060   45.4260 H   0  0  0  0  0  0  0  0  0  0  0  0
   45.2030   36.0880   43.2170 H   0  0  0  0  0  0  0  0  0  0  0  0
   47.1750   32.0600   47.2320 C   0  0  2  0  0  3  0  0  0  0  0  0
   45.7250   32.1340   46.7380 C   0  0  1  0  0  3  0  0  0  0  0  0
   44.9780   32.3270   47.8900 O   0  0  0  0  0  0  0  0  0  0  0  0
   45.6250   31.7260   48.9350 C   0  0  0  0  0  2  0  0  0  0  0  0
   46.9720   31.2410   48.4870 C   0  0  2  0  0  3  0  0  0  0  0  0
   47.5330   33.3710   47.5550 O   0  0  0  0  0  0  0  0  0  0  0  0
   46.7280   33.9610   47.6900 H   0  0  0  0  0  0  0  0  0  0  0  0
   47.9790   31.5450   49.3980 O   0  0  0  0  0  0  0  0  0  0  0  0
   48.2990   32.4800   49.2940 H   0  0  0  0  0  0  0  0  0  0  0  0
   46.5290   33.9590   42.3030 O   0  0  0  0  0  0  0  0  0  0  0  0
   48.5340   32.2490   42.0510 O   0  0  0  0  0  0  0  0  0  0  0  0
   48.2220   33.7410   42.1110 P   0  0  0  0  0  0  0  0  0  0  0  0
   48.7050   34.5360   40.7250 O   0  0  0  0  0  0  0  0  0  0  0  0
   48.2620   34.1310   39.9610 H   0  0  0  0  0  0  0  0  0  0  0  0
   48.9690   34.3760   43.4950 O   0  0  0  0  0  0  0  0  0  0  0  0
   48.8230   33.7340   44.2340 H   0  0  0  0  0  0  0  0  0  0  0  0
  1  7  1  0  0  0  0
  1  6  1  0  0  0  0
  2  1  2  0  0  0  0
  3  2  1  0  0  0  0
  3  4  2  0  0  0  0
  4  5  1  0  0  0  0
  5  6  2  0  0  0  0
  8  2  1  0  0  0  0
  9 14  1  1  0  0  0
  9 13  1  0  0  0  0
 10  5  1  6  0  0  0
 10  9  1  0  0  0  0
 10 11  1  0  0  0  0
 11 12  1  0  0  0  0
 13 12  1  0  0  0  0
 13 16  1  1  0  0  0
 14 15  1  0  0  0  0
 17 16  1  0  0  0  0
 18  3  1  0  0  0  0
 19 20  2  0  0  0  0
 20 18  1  0  0  0  0
 20 23  1  0  0  0  0
 21 20  1  0  0  0  0
 22 21  1  0  0  0  0
 23 24  1  0  0  0  0
M  END
>  <minimizedAffinity>
-5.42114973

>  <minimizedRMSD>
1.13844609

$$$$
