
 OpenBabel03252507093D

 24 25  0  0  1  0  0  0  0  0999 V2000
   40.4500   27.2740   43.6790 C   0  0  0  0  0  0  0  0  0  0  0  0
   40.0260   25.9390   43.5810 C   0  0  0  0  0  0  0  0  0  0  0  0
   39.0400   25.6520   42.6470 C   0  0  0  0  0  0  0  0  0  0  0  0
   38.5270   26.6580   41.8710 N   0  0  0  0  0  0  0  0  0  0  0  0
   38.9610   27.9330   41.9950 C   0  0  0  0  0  0  0  0  0  0  0  0
   39.9150   28.2310   42.8930 N   0  0  0  0  0  0  0  0  0  0  0  0
   41.2210   27.5070   44.4070 H   0  0  0  0  0  0  0  0  0  0  0  0
   40.4920   25.2230   44.2350 H   0  0  0  0  0  0  0  0  0  0  0  0
   36.8650   29.1400   41.4590 C   0  0  2  0  0  3  0  0  0  0  0  0
   38.3470   28.9590   41.1120 C   0  0  1  0  0  3  0  0  0  0  0  0
   38.9040   30.2150   41.3010 O   0  0  0  0  0  0  0  0  0  0  0  0
   37.9470   31.1580   41.0420 C   0  0  0  0  0  2  0  0  0  0  0  0
   36.6210   30.4910   40.8240 C   0  0  2  0  0  3  0  0  0  0  0  0
   36.8130   29.2380   42.8530 O   0  0  0  0  0  0  0  0  0  0  0  0
   37.7060   29.4770   43.2500 H   0  0  0  0  0  0  0  0  0  0  0  0
   35.5840   31.1310   41.4960 O   0  0  0  0  0  0  0  0  0  0  0  0
   35.5440   30.8630   42.4510 H   0  0  0  0  0  0  0  0  0  0  0  0
   38.6230   24.3230   42.5540 O   0  0  0  0  0  0  0  0  0  0  0  0
   36.3930   24.0010   41.1650 O   0  0  0  0  0  0  0  0  0  0  0  0
   37.8990   23.7690   41.0980 P   0  0  0  0  0  0  0  0  0  0  0  0
   38.5990   24.5770   39.8170 O   0  0  0  0  0  0  0  0  0  0  0  0
   38.4100   25.5260   39.9030 H   0  0  0  0  0  0  0  0  0  0  0  0
   38.1670   22.0960   41.0110 O   0  0  0  0  0  0  0  0  0  0  0  0
   37.5520   21.6610   41.6530 H   0  0  0  0  0  0  0  0  0  0  0  0
  1  7  1  0  0  0  0
  2  1  1  0  0  0  0
  2  8  1  0  0  0  0
  3  2  2  0  0  0  0
  4  5  2  0  0  0  0
  4  3  1  0  0  0  0
  5  6  1  0  0  0  0
  6  1  2  0  0  0  0
  9 14  1  1  0  0  0
 10 11  1  0  0  0  0
 10  9  1  0  0  0  0
 10  5  1  1  0  0  0
 12 11  1  0  0  0  0
 13 12  1  0  0  0  0
 13  9  1  0  0  0  0
 13 16  1  1  0  0  0
 14 15  1  0  0  0  0
 16 17  1  0  0  0  0
 18  3  1  0  0  0  0
 20 19  2  0  0  0  0
 20 18  1  0  0  0  0
 21 22  1  0  0  0  0
 21 20  1  0  0  0  0
 23 20  1  0  0  0  0
 23 24  1  0  0  0  0
M  END
>  <minimizedAffinity>
-5.40371466

$$$$

 OpenBabel03252507093D

 24 25  0  0  1  0  0  0  0  0999 V2000
   37.2780   28.3860   43.6640 C   0  0  0  0  0  0  0  0  0  0  0  0
   36.9610   27.1520   43.0730 C   0  0  0  0  0  0  0  0  0  0  0  0
   37.0740   27.0620   41.6920 C   0  0  0  0  0  0  0  0  0  0  0  0
   37.4810   28.1540   40.9710 N   0  0  0  0  0  0  0  0  0  0  0  0
   37.7770   29.3250   41.5770 C   0  0  0  0  0  0  0  0  0  0  0  0
   37.6740   29.4330   42.9130 N   0  0  0  0  0  0  0  0  0  0  0  0
   37.1920   28.4650   44.7430 H   0  0  0  0  0  0  0  0  0  0  0  0
   36.6510   26.3550   43.7260 H   0  0  0  0  0  0  0  0  0  0  0  0
   36.9910   31.1640   40.1160 C   0  0  2  0  0  3  0  0  0  0  0  0
   38.2110   30.4570   40.7170 C   0  0  1  0  0  3  0  0  0  0  0  0
   38.8640   31.4450   41.4380 O   0  0  0  0  0  0  0  0  0  0  0  0
   38.6310   32.6500   40.8320 C   0  0  0  0  0  2  0  0  0  0  0  0
   37.6270   32.4810   39.7310 C   0  0  2  0  0  3  0  0  0  0  0  0
   36.0970   31.3430   41.1760 O   0  0  0  0  0  0  0  0  0  0  0  0
   36.5520   31.2720   42.0710 H   0  0  0  0  0  0  0  0  0  0  0  0
   36.6550   33.4770   39.7390 O   0  0  0  0  0  0  0  0  0  0  0  0
   35.9380   33.2880   40.4000 H   0  0  0  0  0  0  0  0  0  0  0  0
   36.7580   25.8330   41.1100 O   0  0  0  0  0  0  0  0  0  0  0  0
   37.7000   23.9710   39.4810 O   0  0  0  0  0  0  0  0  0  0  0  0
   38.0170   24.7120   40.7750 P   0  0  0  0  0  0  0  0  0  0  0  0
   39.4580   25.5490   40.6780 O   0  0  0  0  0  0  0  0  0  0  0  0
   39.4090   26.1740   39.9370 H   0  0  0  0  0  0  0  0  0  0  0  0
   38.0280   23.5800   42.0380 O   0  0  0  0  0  0  0  0  0  0  0  0
   37.2570   22.9750   41.9020 H   0  0  0  0  0  0  0  0  0  0  0  0
  1  7  1  0  0  0  0
  2  1  1  0  0  0  0
  2  8  1  0  0  0  0
  3  2  2  0  0  0  0
  4  5  2  0  0  0  0
  4  3  1  0  0  0  0
  5  6  1  0  0  0  0
  6  1  2  0  0  0  0
  9 10  1  0  0  0  0
  9 14  1  1  0  0  0
 10 11  1  0  0  0  0
 10  5  1  1  0  0  0
 12 11  1  0  0  0  0
 13 16  1  1  0  0  0
 13  9  1  0  0  0  0
 13 12  1  0  0  0  0
 14 15  1  0  0  0  0
 16 17  1  0  0  0  0
 18  3  1  0  0  0  0
 19 20  2  0  0  0  0
 20 18  1  0  0  0  0
 20 23  1  0  0  0  0
 21 20  1  0  0  0  0
 22 21  1  0  0  0  0
 24 23  1  0  0  0  0
M  END
>  <minimizedAffinity>
-5.33242893

$$$$

 OpenBabel03252507093D

 24 25  0  0  1  0  0  0  0  0999 V2000
   37.1220   24.5290   41.1290 C   0  0  0  0  0  0  0  0  0  0  0  0
   38.2340   24.2250   41.9320 C   0  0  0  0  0  0  0  0  0  0  0  0
   39.1170   25.2590   42.2100 C   0  0  0  0  0  0  0  0  0  0  0  0
   38.8800   26.5110   41.7050 N   0  0  0  0  0  0  0  0  0  0  0  0
   37.7970   26.7640   40.9350 C   0  0  0  0  0  0  0  0  0  0  0  0
   36.9300   25.7760   40.6540 N   0  0  0  0  0  0  0  0  0  0  0  0
   36.4270   23.7260   40.9060 H   0  0  0  0  0  0  0  0  0  0  0  0
   38.3320   23.2130   42.2800 H   0  0  0  0  0  0  0  0  0  0  0  0
   36.2340   28.6820   40.8170 C   0  0  2  0  0  3  0  0  0  0  0  0
   37.6190   28.1500   40.4300 C   0  0  1  0  0  3  0  0  0  0  0  0
   38.5070   29.0410   41.0140 O   0  0  0  0  0  0  0  0  0  0  0  0
   37.9130   30.2720   41.0720 C   0  0  0  0  0  2  0  0  0  0  0  0
   36.4780   30.1650   40.6500 C   0  0  2  0  0  3  0  0  0  0  0  0
   36.0700   28.3610   42.1680 O   0  0  0  0  0  0  0  0  0  0  0  0
   36.9480   28.1680   42.6210 H   0  0  0  0  0  0  0  0  0  0  0  0
   35.6200   30.8660   41.4930 O   0  0  0  0  0  0  0  0  0  0  0  0
   35.4020   30.3470   42.3110 H   0  0  0  0  0  0  0  0  0  0  0  0
   40.2210   24.9520   43.0090 O   0  0  0  0  0  0  0  0  0  0  0  0
   42.0270   25.2120   41.0910 O   0  0  0  0  0  0  0  0  0  0  0  0
   41.7730   25.5350   42.5590 P   0  0  0  0  0  0  0  0  0  0  0  0
   41.8280   27.1770   42.8560 O   0  0  0  0  0  0  0  0  0  0  0  0
   41.1690   27.6190   42.2960 H   0  0  0  0  0  0  0  0  0  0  0  0
   42.9140   24.6880   43.4860 O   0  0  0  0  0  0  0  0  0  0  0  0
   42.9870   23.7760   43.1080 H   0  0  0  0  0  0  0  0  0  0  0  0
  1  2  1  0  0  0  0
  2  3  2  0  0  0  0
  2  8  1  0  0  0  0
  3 18  1  0  0  0  0
  4  3  1  0  0  0  0
  5  4  2  0  0  0  0
  6  5  1  0  0  0  0
  6  1  2  0  0  0  0
  7  1  1  0  0  0  0
  9 14  1  1  0  0  0
 10  9  1  0  0  0  0
 10  5  1  1  0  0  0
 10 11  1  0  0  0  0
 11 12  1  0  0  0  0
 13  9  1  0  0  0  0
 13 12  1  0  0  0  0
 13 16  1  1  0  0  0
 14 15  1  0  0  0  0
 16 17  1  0  0  0  0
 19 20  2  0  0  0  0
 20 21  1  0  0  0  0
 20 18  1  0  0  0  0
 20 23  1  0  0  0  0
 22 21  1  0  0  0  0
 24 23  1  0  0  0  0
M  END
>  <minimizedAffinity>
-5.24995708

$$$$

 OpenBabel03252507093D

 24 25  0  0  1  0  0  0  0  0999 V2000
   39.5770   28.2250   37.5260 C   0  0  0  0  0  0  0  0  0  0  0  0
   38.3560   28.5610   38.1340 C   0  0  0  0  0  0  0  0  0  0  0  0
   38.2930   29.7760   38.8020 C   0  0  0  0  0  0  0  0  0  0  0  0
   39.3980   30.5870   38.8450 N   0  0  0  0  0  0  0  0  0  0  0  0
   40.5560   30.2270   38.2470 C   0  0  0  0  0  0  0  0  0  0  0  0
   40.6380   29.0550   37.5950 N   0  0  0  0  0  0  0  0  0  0  0  0
   39.6350   27.2770   37.0010 H   0  0  0  0  0  0  0  0  0  0  0  0
   37.5480   27.8580   38.0430 H   0  0  0  0  0  0  0  0  0  0  0  0
   41.8980   31.9060   37.0160 C   0  0  2  0  0  3  0  0  0  0  0  0
   41.7030   31.1670   38.3450 C   0  0  1  0  0  3  0  0  0  0  0  0
   41.4800   32.1740   39.2710 O   0  0  0  0  0  0  0  0  0  0  0  0
   42.1500   33.2950   38.8640 C   0  0  0  0  0  2  0  0  0  0  0  0
   42.7260   33.0770   37.4970 C   0  0  2  0  0  3  0  0  0  0  0  0
   40.6230   32.3330   36.6300 O   0  0  0  0  0  0  0  0  0  0  0  0
   39.9780   32.3450   37.4020 H   0  0  0  0  0  0  0  0  0  0  0  0
   42.5180   34.1610   36.6500 O   0  0  0  0  0  0  0  0  0  0  0  0
   41.6090   34.1490   36.2520 H   0  0  0  0  0  0  0  0  0  0  0  0
   37.0770   30.1050   39.4040 O   0  0  0  0  0  0  0  0  0  0  0  0
   37.9320   30.0900   41.9100 O   0  0  0  0  0  0  0  0  0  0  0  0
   37.0810   30.8920   40.9320 P   0  0  0  0  0  0  0  0  0  0  0  0
   37.6600   32.4440   40.7270 O   0  0  0  0  0  0  0  0  0  0  0  0
   38.5780   32.3970   40.4120 H   0  0  0  0  0  0  0  0  0  0  0  0
   35.4830   30.8850   41.5020 O   0  0  0  0  0  0  0  0  0  0  0  0
   35.2810   29.9680   41.8130 H   0  0  0  0  0  0  0  0  0  0  0  0
  1  6  2  0  0  0  0
  1  2  1  0  0  0  0
  2  3  2  0  0  0  0
  3  4  1  0  0  0  0
  3 18  1  0  0  0  0
  5  4  2  0  0  0  0
  6  5  1  0  0  0  0
  7  1  1  0  0  0  0
  8  2  1  0  0  0  0
  9 14  1  1  0  0  0
  9 13  1  0  0  0  0
  9 10  1  0  0  0  0
 10  5  1  6  0  0  0
 10 11  1  0  0  0  0
 12 11  1  0  0  0  0
 13 16  1  6  0  0  0
 13 12  1  0  0  0  0
 14 15  1  0  0  0  0
 17 16  1  0  0  0  0
 18 20  1  0  0  0  0
 20 23  1  0  0  0  0
 20 19  2  0  0  0  0
 21 20  1  0  0  0  0
 22 21  1  0  0  0  0
 23 24  1  0  0  0  0
M  END
>  <minimizedAffinity>
-5.12486458

$$$$

 OpenBabel03252507093D

 24 25  0  0  1  0  0  0  0  0999 V2000
   39.9100   28.5320   42.9360 C   0  0  0  0  0  0  0  0  0  0  0  0
   39.7140   29.7860   42.3320 C   0  0  0  0  0  0  0  0  0  0  0  0
   38.6240   29.9180   41.4830 C   0  0  0  0  0  0  0  0  0  0  0  0
   37.7960   28.8470   41.2670 N   0  0  0  0  0  0  0  0  0  0  0  0
   38.0180   27.6560   41.8670 C   0  0  0  0  0  0  0  0  0  0  0  0
   39.0680   27.5070   42.6930 N   0  0  0  0  0  0  0  0  0  0  0  0
   40.7590   28.4200   43.6010 H   0  0  0  0  0  0  0  0  0  0  0  0
   40.4190   30.5630   42.5660 H   0  0  0  0  0  0  0  0  0  0  0  0
   37.2140   26.0970   40.1170 C   0  0  2  0  0  3  0  0  0  0  0  0
   37.0700   26.5490   41.5750 C   0  0  1  0  0  3  0  0  0  0  0  0
   37.3440   25.4130   42.3200 O   0  0  0  0  0  0  0  0  0  0  0  0
   36.9650   24.3160   41.5940 C   0  0  0  0  0  2  0  0  0  0  0  0
   36.5640   24.7350   40.2110 C   0  0  2  0  0  3  0  0  0  0  0  0
   38.5890   25.9690   39.8960 O   0  0  0  0  0  0  0  0  0  0  0  0
   39.1050   25.8900   40.7560 H   0  0  0  0  0  0  0  0  0  0  0  0
   37.0950   23.9070   39.2270 O   0  0  0  0  0  0  0  0  0  0  0  0
   38.0330   24.1480   39.0100 H   0  0  0  0  0  0  0  0  0  0  0  0
   38.4350   31.1660   40.8860 O   0  0  0  0  0  0  0  0  0  0  0  0
   36.7060   30.9980   38.8870 O   0  0  0  0  0  0  0  0  0  0  0  0
   36.8800   31.5830   40.2850 P   0  0  0  0  0  0  0  0  0  0  0  0
   35.7300   31.0100   41.3500 O   0  0  0  0  0  0  0  0  0  0  0  0
   35.7880   30.0410   41.3820 H   0  0  0  0  0  0  0  0  0  0  0  0
   36.8320   33.2740   40.1540 O   0  0  0  0  0  0  0  0  0  0  0  0
   37.3660   33.5270   39.3600 H   0  0  0  0  0  0  0  0  0  0  0  0
  1  7  1  0  0  0  0
  2  8  1  0  0  0  0
  2  1  2  0  0  0  0
  3  2  1  0  0  0  0
  4  3  2  0  0  0  0
  4  5  1  0  0  0  0
  5  6  2  0  0  0  0
  6  1  1  0  0  0  0
  9 14  1  1  0  0  0
  9 13  1  0  0  0  0
  9 10  1  0  0  0  0
 10  5  1  1  0  0  0
 10 11  1  0  0  0  0
 12 11  1  0  0  0  0
 13 16  1  6  0  0  0
 13 12  1  0  0  0  0
 14 15  1  0  0  0  0
 17 16  1  0  0  0  0
 18  3  1  0  0  0  0
 19 20  2  0  0  0  0
 20 18  1  0  0  0  0
 20 21  1  0  0  0  0
 21 22  1  0  0  0  0
 23 20  1  0  0  0  0
 24 23  1  0  0  0  0
M  END
>  <minimizedAffinity>
-5.08601904

$$$$

 OpenBabel03252507093D

 24 25  0  0  1  0  0  0  0  0999 V2000
   35.4980   28.8450   40.7480 C   0  0  0  0  0  0  0  0  0  0  0  0
   35.7520   30.1750   40.3730 C   0  0  0  0  0  0  0  0  0  0  0  0
   36.8500   30.7990   40.9490 C   0  0  0  0  0  0  0  0  0  0  0  0
   37.6300   30.1130   41.8430 N   0  0  0  0  0  0  0  0  0  0  0  0
   37.3520   28.8340   42.1800 C   0  0  0  0  0  0  0  0  0  0  0  0
   36.2940   28.2110   41.6330 N   0  0  0  0  0  0  0  0  0  0  0  0
   34.6420   28.3500   40.3030 H   0  0  0  0  0  0  0  0  0  0  0  0
   35.0810   30.6250   39.6630 H   0  0  0  0  0  0  0  0  0  0  0  0
   38.3510   26.6690   42.8530 C   0  0  2  0  0  3  0  0  0  0  0  0
   38.2520   28.1680   43.1580 C   0  0  1  0  0  3  0  0  0  0  0  0
   39.5570   28.6270   43.0690 O   0  0  0  0  0  0  0  0  0  0  0  0
   40.4000   27.6090   43.4250 C   0  0  0  0  0  2  0  0  0  0  0  0
   39.6210   26.3410   43.6060 C   0  0  2  0  0  3  0  0  0  0  0  0
   38.5630   26.5770   41.4730 O   0  0  0  0  0  0  0  0  0  0  0  0
   38.9000   27.4420   41.0840 H   0  0  0  0  0  0  0  0  0  0  0  0
   40.2360   25.2460   43.0090 O   0  0  0  0  0  0  0  0  0  0  0  0
   40.0480   25.2030   42.0350 H   0  0  0  0  0  0  0  0  0  0  0  0
   37.0970   32.1200   40.5710 O   0  0  0  0  0  0  0  0  0  0  0  0
   39.3140   31.6230   39.2110 O   0  0  0  0  0  0  0  0  0  0  0  0
   38.7060   32.6040   40.2080 P   0  0  0  0  0  0  0  0  0  0  0  0
   38.6680   34.1610   39.6080 O   0  0  0  0  0  0  0  0  0  0  0  0
   38.1590   34.1660   38.7800 H   0  0  0  0  0  0  0  0  0  0  0  0
   39.5950   32.5050   41.6490 O   0  0  0  0  0  0  0  0  0  0  0  0
   39.7690   31.5470   41.8270 H   0  0  0  0  0  0  0  0  0  0  0  0
  1  6  1  0  0  0  0
  2  1  2  0  0  0  0
  2  3  1  0  0  0  0
  3  4  2  0  0  0  0
  4  5  1  0  0  0  0
  6  5  2  0  0  0  0
  7  1  1  0  0  0  0
  8  2  1  0  0  0  0
  9 14  1  6  0  0  0
  9 10  1  0  0  0  0
  9 13  1  0  0  0  0
 10  5  1  6  0  0  0
 11 10  1  0  0  0  0
 11 12  1  0  0  0  0
 12 13  1  0  0  0  0
 13 16  1  6  0  0  0
 15 14  1  0  0  0  0
 17 16  1  0  0  0  0
 18  3  1  0  0  0  0
 19 20  2  0  0  0  0
 20 18  1  0  0  0  0
 20 23  1  0  0  0  0
 21 20  1  0  0  0  0
 22 21  1  0  0  0  0
 23 24  1  0  0  0  0
M  END
>  <minimizedAffinity>
-5.06820917

$$$$

 OpenBabel03252507093D

 24 25  0  0  1  0  0  0  0  0999 V2000
   39.0430   28.5900   37.3520 C   0  0  0  0  0  0  0  0  0  0  0  0
   38.1220   28.7260   38.4040 C   0  0  0  0  0  0  0  0  0  0  0  0
   38.4150   29.6610   39.3880 C   0  0  0  0  0  0  0  0  0  0  0  0
   39.5650   30.4010   39.3010 N   0  0  0  0  0  0  0  0  0  0  0  0
   40.4280   30.2410   38.2730 C   0  0  0  0  0  0  0  0  0  0  0  0
   40.1630   29.3420   37.3090 N   0  0  0  0  0  0  0  0  0  0  0  0
   38.8220   27.8620   36.5790 H   0  0  0  0  0  0  0  0  0  0  0  0
   37.2490   28.0990   38.3810 H   0  0  0  0  0  0  0  0  0  0  0  0
   41.7020   31.9250   36.9770 C   0  0  2  0  0  3  0  0  0  0  0  0
   41.6500   31.0870   38.2600 C   0  0  1  0  0  3  0  0  0  0  0  0
   41.6540   32.0200   39.2850 O   0  0  0  0  0  0  0  0  0  0  0  0
   42.3460   33.1230   38.8650 C   0  0  0  0  0  2  0  0  0  0  0  0
   42.6870   32.9870   37.4110 C   0  0  2  0  0  3  0  0  0  0  0  0
   40.4240   32.4730   36.8320 O   0  0  0  0  0  0  0  0  0  0  0  0
   39.9060   32.4610   37.6950 H   0  0  0  0  0  0  0  0  0  0  0  0
   42.4450   34.1550   36.6940 O   0  0  0  0  0  0  0  0  0  0  0  0
   41.4870   34.2420   36.4440 H   0  0  0  0  0  0  0  0  0  0  0  0
   37.4950   29.7920   40.4300 O   0  0  0  0  0  0  0  0  0  0  0  0
   38.9610   28.1490   41.9010 O   0  0  0  0  0  0  0  0  0  0  0  0
   37.5390   28.6750   41.7360 P   0  0  0  0  0  0  0  0  0  0  0  0
   36.9950   29.4470   43.1120 O   0  0  0  0  0  0  0  0  0  0  0  0
   37.6000   30.1760   43.3220 H   0  0  0  0  0  0  0  0  0  0  0  0
   36.5440   27.3680   41.3090 O   0  0  0  0  0  0  0  0  0  0  0  0
   37.0330   26.8270   40.6400 H   0  0  0  0  0  0  0  0  0  0  0  0
  1  2  1  0  0  0  0
  2  3  2  0  0  0  0
  3 18  1  0  0  0  0
  4  3  1  0  0  0  0
  5  4  2  0  0  0  0
  6  1  2  0  0  0  0
  6  5  1  0  0  0  0
  7  1  1  0  0  0  0
  8  2  1  0  0  0  0
  9 14  1  1  0  0  0
  9 13  1  0  0  0  0
  9 10  1  0  0  0  0
 10  5  1  6  0  0  0
 10 11  1  0  0  0  0
 12 11  1  0  0  0  0
 13 16  1  6  0  0  0
 13 12  1  0  0  0  0
 14 15  1  0  0  0  0
 17 16  1  0  0  0  0
 18 20  1  0  0  0  0
 20 19  2  0  0  0  0
 20 21  1  0  0  0  0
 21 22  1  0  0  0  0
 23 20  1  0  0  0  0
 24 23  1  0  0  0  0
M  END
>  <minimizedAffinity>
-4.86859322

$$$$

 OpenBabel03252507093D

 24 25  0  0  1  0  0  0  0  0999 V2000
   39.5460   26.5000   43.3680 C   0  0  0  0  0  0  0  0  0  0  0  0
   39.0210   27.8030   43.3820 C   0  0  0  0  0  0  0  0  0  0  0  0
   37.8070   28.0050   42.7410 C   0  0  0  0  0  0  0  0  0  0  0  0
   37.1770   26.9520   42.1300 N   0  0  0  0  0  0  0  0  0  0  0  0
   37.7150   25.7120   42.1380 C   0  0  0  0  0  0  0  0  0  0  0  0
   38.8900   25.4940   42.7540 N   0  0  0  0  0  0  0  0  0  0  0  0
   40.4950   26.3330   43.8670 H   0  0  0  0  0  0  0  0  0  0  0  0
   39.5920   28.5610   43.8890 H   0  0  0  0  0  0  0  0  0  0  0  0
   36.6980   25.0120   39.9900 C   0  0  2  0  0  3  0  0  0  0  0  0
   36.9630   24.6290   41.4500 C   0  0  1  0  0  3  0  0  0  0  0  0
   37.6910   23.4520   41.3730 O   0  0  0  0  0  0  0  0  0  0  0  0
   37.3160   22.7840   40.2390 C   0  0  0  0  0  2  0  0  0  0  0  0
   36.4000   23.6430   39.4200 C   0  0  2  0  0  3  0  0  0  0  0  0
   37.9160   25.4930   39.4980 O   0  0  0  0  0  0  0  0  0  0  0  0
   38.6950   25.1980   40.0620 H   0  0  0  0  0  0  0  0  0  0  0  0
   36.7240   23.6320   38.0670 O   0  0  0  0  0  0  0  0  0  0  0  0
   37.4680   24.2560   37.8610 H   0  0  0  0  0  0  0  0  0  0  0  0
   37.2900   29.3020   42.7580 O   0  0  0  0  0  0  0  0  0  0  0  0
   38.1660   31.1430   41.0700 O   0  0  0  0  0  0  0  0  0  0  0  0
   37.0450   30.1300   41.2720 P   0  0  0  0  0  0  0  0  0  0  0  0
   36.9910   29.0040   40.0420 O   0  0  0  0  0  0  0  0  0  0  0  0
   37.8480   28.5500   39.9940 H   0  0  0  0  0  0  0  0  0  0  0  0
   35.5860   30.9840   41.4110 O   0  0  0  0  0  0  0  0  0  0  0  0
   35.7550   31.7710   41.9880 H   0  0  0  0  0  0  0  0  0  0  0  0
  1  2  1  0  0  0  0
  1  7  1  0  0  0  0
  2  8  1  0  0  0  0
  3 18  1  0  0  0  0
  3  2  2  0  0  0  0
  4  5  2  0  0  0  0
  4  3  1  0  0  0  0
  5  6  1  0  0  0  0
  6  1  2  0  0  0  0
  9 14  1  6  0  0  0
  9 10  1  0  0  0  0
 10  5  1  6  0  0  0
 11 10  1  0  0  0  0
 12 11  1  0  0  0  0
 13 16  1  6  0  0  0
 13  9  1  0  0  0  0
 13 12  1  0  0  0  0
 14 15  1  0  0  0  0
 17 16  1  0  0  0  0
 19 20  2  0  0  0  0
 20 23  1  0  0  0  0
 20 18  1  0  0  0  0
 21 20  1  0  0  0  0
 22 21  1  0  0  0  0
 23 24  1  0  0  0  0
M  END
>  <minimizedAffinity>
-4.82296848

$$$$

 OpenBabel03252507093D

 24 25  0  0  1  0  0  0  0  0999 V2000
   37.2930   28.6250   43.1350 C   0  0  0  0  0  0  0  0  0  0  0  0
   38.0770   27.5660   43.6250 C   0  0  0  0  0  0  0  0  0  0  0  0
   39.3930   27.4970   43.1900 C   0  0  0  0  0  0  0  0  0  0  0  0
   39.8720   28.4400   42.3180 N   0  0  0  0  0  0  0  0  0  0  0  0
   39.0860   29.4440   41.8690 C   0  0  0  0  0  0  0  0  0  0  0  0
   37.8080   29.5300   42.2780 N   0  0  0  0  0  0  0  0  0  0  0  0
   36.2630   28.6870   43.4700 H   0  0  0  0  0  0  0  0  0  0  0  0
   37.6090   26.8780   44.3050 H   0  0  0  0  0  0  0  0  0  0  0  0
   39.7180   31.8190   41.5570 C   0  0  2  0  0  3  0  0  0  0  0  0
   39.6880   30.4230   40.9260 C   0  0  1  0  0  3  0  0  0  0  0  0
   41.0170   30.1380   40.6510 O   0  0  0  0  0  0  0  0  0  0  0  0
   41.6690   31.3140   40.3960 C   0  0  0  0  0  2  0  0  0  0  0  0
   40.7590   32.4720   40.6760 C   0  0  2  0  0  3  0  0  0  0  0  0
   40.2150   31.6390   42.8520 O   0  0  0  0  0  0  0  0  0  0  0  0
   40.7040   30.7650   42.9500 H   0  0  0  0  0  0  0  0  0  0  0  0
   41.3900   33.4870   41.3890 O   0  0  0  0  0  0  0  0  0  0  0  0
   41.4150   33.2920   42.3630 H   0  0  0  0  0  0  0  0  0  0  0  0
   40.1670   26.4430   43.6800 O   0  0  0  0  0  0  0  0  0  0  0  0
   39.6530   23.9770   42.8660 O   0  0  0  0  0  0  0  0  0  0  0  0
   40.5940   25.1530   42.6280 P   0  0  0  0  0  0  0  0  0  0  0  0
   40.5170   25.7050   41.0550 O   0  0  0  0  0  0  0  0  0  0  0  0
   39.6020   25.9620   40.8570 H   0  0  0  0  0  0  0  0  0  0  0  0
   42.1620   24.6620   43.0490 O   0  0  0  0  0  0  0  0  0  0  0  0
   42.0970   24.1460   43.8910 H   0  0  0  0  0  0  0  0  0  0  0  0
  1  7  1  0  0  0  0
  1  2  1  0  0  0  0
  2  8  1  0  0  0  0
  3  2  2  0  0  0  0
  3 18  1  0  0  0  0
  4  3  1  0  0  0  0
  5  6  1  0  0  0  0
  5  4  2  0  0  0  0
  6  1  2  0  0  0  0
  9 14  1  1  0  0  0
 10  9  1  0  0  0  0
 10  5  1  1  0  0  0
 11 10  1  0  0  0  0
 12 11  1  0  0  0  0
 12 13  1  0  0  0  0
 13 16  1  1  0  0  0
 13  9  1  0  0  0  0
 14 15  1  0  0  0  0
 16 17  1  0  0  0  0
 20 19  2  0  0  0  0
 20 23  1  0  0  0  0
 20 18  1  0  0  0  0
 21 20  1  0  0  0  0
 22 21  1  0  0  0  0
 23 24  1  0  0  0  0
M  END
>  <minimizedAffinity>
-4.79087353

$$$$
