
 OpenBabel03252504083D

 19 20  0  0  1  0  0  0  0  0999 V2000
   40.4250   32.8010   38.0870 C   0  0  0  0  0  0  0  0  0  0  0  0
   39.7270   32.4900   39.2650 C   0  0  0  0  0  0  0  0  0  0  0  0
   40.3040   32.9180   40.4710 C   0  0  0  0  0  0  0  0  0  0  0  0
   41.4820   33.5970   40.4350 N   0  0  0  0  0  0  0  0  0  0  0  0
   42.1090   33.8690   39.2780 C   0  0  0  0  0  0  0  0  0  0  0  0
   41.5840   33.4760   38.1180 N   0  0  0  0  0  0  0  0  0  0  0  0
   39.8190   32.7090   41.4000 H   0  0  0  0  0  0  0  0  0  0  0  0
   43.0470   34.4070   39.2100 H   0  0  0  0  0  0  0  0  0  0  0  0
   37.4450   32.2920   40.2660 C   0  0  2  0  0  3  0  0  0  0  0  0
   38.4570   31.7560   39.2650 C   0  0  2  0  0  3  0  0  0  0  0  0
   38.5460   30.4070   39.4630 O   0  0  0  0  0  0  0  0  0  0  0  0
   37.3890   29.9680   40.0810 C   0  0  0  0  0  2  0  0  0  0  0  0
   36.4460   31.1410   40.2130 C   0  0  1  0  0  3  0  0  0  0  0  0
   36.9020   33.5010   39.9170 O   0  0  0  0  0  0  0  0  0  0  0  0
   36.7490   34.0250   40.7640 H   0  0  0  0  0  0  0  0  0  0  0  0
   35.7060   31.0200   41.3810 O   0  0  0  0  0  0  0  0  0  0  0  0
   34.8460   30.5780   41.1190 H   0  0  0  0  0  0  0  0  0  0  0  0
   39.8720   32.3910   36.9000 O   0  0  0  0  0  0  0  0  0  0  0  0
   39.9820   31.4020   36.6280 H   0  0  0  0  0  0  0  0  0  0  0  0
  1  6  2  0  0  0  0
  1  2  1  0  0  0  0
  2  3  2  0  0  0  0
  3  7  1  0  0  0  0
  4  3  1  0  0  0  0
  5  4  2  0  0  0  0
  6  5  1  0  0  0  0
  8  5  1  0  0  0  0
  9 14  1  6  0  0  0
 10  2  1  1  0  0  0
 10 11  1  0  0  0  0
 10  9  1  0  0  0  0
 11 12  1  0  0  0  0
 12 13  1  0  0  0  0
 13  9  1  0  0  0  0
 13 16  1  1  0  0  0
 14 15  1  0  0  0  0
 17 16  1  0  0  0  0
 18  1  1  0  0  0  0
 19 18  1  0  0  0  0
M  END
>  <minimizedAffinity>
-5.27681208

$$$$

 OpenBabel03252504083D

 19 20  0  0  1  0  0  0  0  0999 V2000
   37.2850   28.2450   42.6500 C   0  0  0  0  0  0  0  0  0  0  0  0
   37.8150   28.8530   41.5010 C   0  0  0  0  0  0  0  0  0  0  0  0
   38.2030   27.9990   40.4570 C   0  0  0  0  0  0  0  0  0  0  0  0
   38.0490   26.6560   40.6120 N   0  0  0  0  0  0  0  0  0  0  0  0
   37.5350   26.1250   41.7350 C   0  0  0  0  0  0  0  0  0  0  0  0
   37.1570   26.9120   42.7410 N   0  0  0  0  0  0  0  0  0  0  0  0
   38.6140   28.4050   39.5590 H   0  0  0  0  0  0  0  0  0  0  0  0
   37.3970   25.0630   41.8920 H   0  0  0  0  0  0  0  0  0  0  0  0
   36.7800   30.9830   40.6990 C   0  0  2  0  0  3  0  0  0  0  0  0
   37.9660   30.3070   41.3700 C   0  0  2  0  0  3  0  0  0  0  0  0
   39.0930   30.7360   40.7290 O   0  0  0  0  0  0  0  0  0  0  0  0
   38.8220   31.9400   40.1060 C   0  0  0  0  0  2  0  0  0  0  0  0
   37.4100   32.3500   40.4550 C   0  0  1  0  0  3  0  0  0  0  0  0
   35.6540   31.0340   41.4770 O   0  0  0  0  0  0  0  0  0  0  0  0
   34.8560   30.9310   40.8690 H   0  0  0  0  0  0  0  0  0  0  0  0
   36.8360   33.0210   39.3840 O   0  0  0  0  0  0  0  0  0  0  0  0
   36.9810   33.9970   39.5600 H   0  0  0  0  0  0  0  0  0  0  0  0
   36.8990   29.0680   43.6780 O   0  0  0  0  0  0  0  0  0  0  0  0
   37.6300   29.4510   44.2960 H   0  0  0  0  0  0  0  0  0  0  0  0
  1  6  1  0  0  0  0
  1 18  1  0  0  0  0
  2  1  2  0  0  0  0
  3  4  2  0  0  0  0
  3  2  1  0  0  0  0
  4  5  1  0  0  0  0
  5  8  1  0  0  0  0
  5  6  2  0  0  0  0
  7  3  1  0  0  0  0
  9 10  1  0  0  0  0
  9 14  1  1  0  0  0
 10  2  1  6  0  0  0
 11 10  1  0  0  0  0
 12 13  1  0  0  0  0
 12 11  1  0  0  0  0
 13 16  1  6  0  0  0
 13  9  1  0  0  0  0
 15 14  1  0  0  0  0
 16 17  1  0  0  0  0
 18 19  1  0  0  0  0
M  END
>  <minimizedAffinity>
-5.13370132

$$$$

 OpenBabel03252504083D

 19 20  0  0  1  0  0  0  0  0999 V2000
   38.2150   26.0580   41.6010 C   0  0  0  0  0  0  0  0  0  0  0  0
   38.7650   27.2020   42.2020 C   0  0  0  0  0  0  0  0  0  0  0  0
   39.6750   26.9890   43.2490 C   0  0  0  0  0  0  0  0  0  0  0  0
   39.9700   25.7140   43.6180 N   0  0  0  0  0  0  0  0  0  0  0  0
   39.4150   24.6520   43.0070 C   0  0  0  0  0  0  0  0  0  0  0  0
   38.5480   24.8250   42.0110 N   0  0  0  0  0  0  0  0  0  0  0  0
   40.1240   27.8220   43.7440 H   0  0  0  0  0  0  0  0  0  0  0  0
   39.6260   23.6240   43.2730 H   0  0  0  0  0  0  0  0  0  0  0  0
   37.1000   29.0630   42.3390 C   0  0  2  0  0  3  0  0  0  0  0  0
   38.4220   28.5640   41.7770 C   0  0  2  0  0  3  0  0  0  0  0  0
   38.3970   28.7820   40.4280 O   0  0  0  0  0  0  0  0  0  0  0  0
   37.4810   29.7810   40.1540 C   0  0  0  0  0  2  0  0  0  0  0  0
   36.9360   30.3000   41.4640 C   0  0  1  0  0  3  0  0  0  0  0  0
   37.1350   29.3440   43.6790 O   0  0  0  0  0  0  0  0  0  0  0  0
   36.2370   29.1000   44.0680 H   0  0  0  0  0  0  0  0  0  0  0  0
   35.6080   30.6730   41.3070 O   0  0  0  0  0  0  0  0  0  0  0  0
   35.6180   31.6570   41.1170 H   0  0  0  0  0  0  0  0  0  0  0  0
   37.3250   26.2510   40.5750 O   0  0  0  0  0  0  0  0  0  0  0  0
   36.3560   26.5130   40.8130 H   0  0  0  0  0  0  0  0  0  0  0  0
  1  6  2  0  0  0  0
  1  2  1  0  0  0  0
  2  3  2  0  0  0  0
  3  4  1  0  0  0  0
  3  7  1  0  0  0  0
  5  8  1  0  0  0  0
  5  4  2  0  0  0  0
  6  5  1  0  0  0  0
  9 14  1  1  0  0  0
 10  2  1  6  0  0  0
 10  9  1  0  0  0  0
 11 10  1  0  0  0  0
 12 11  1  0  0  0  0
 12 13  1  0  0  0  0
 13 16  1  6  0  0  0
 13  9  1  0  0  0  0
 14 15  1  0  0  0  0
 17 16  1  0  0  0  0
 18 19  1  0  0  0  0
 18  1  1  0  0  0  0
M  END
>  <minimizedAffinity>
-4.7182827

$$$$

 OpenBabel03252504083D

 19 20  0  0  1  0  0  0  0  0999 V2000
   38.4720   26.1420   42.4120 C   0  0  0  0  0  0  0  0  0  0  0  0
   37.7320   26.7750   41.4010 C   0  0  0  0  0  0  0  0  0  0  0  0
   36.9510   25.9480   40.5790 C   0  0  0  0  0  0  0  0  0  0  0  0
   36.9520   24.6060   40.8010 N   0  0  0  0  0  0  0  0  0  0  0  0
   37.6800   24.0500   41.7850 C   0  0  0  0  0  0  0  0  0  0  0  0
   38.4300   24.8110   42.5810 N   0  0  0  0  0  0  0  0  0  0  0  0
   36.3670   26.3740   39.7920 H   0  0  0  0  0  0  0  0  0  0  0  0
   37.7050   22.9870   41.9920 H   0  0  0  0  0  0  0  0  0  0  0  0
   36.6990   28.9740   41.9930 C   0  0  2  0  0  3  0  0  0  0  0  0
   37.7550   28.2270   41.1910 C   0  0  2  0  0  3  0  0  0  0  0  0
   37.6500   28.6460   39.8950 O   0  0  0  0  0  0  0  0  0  0  0  0
   37.0390   29.8860   39.8740 C   0  0  0  0  0  2  0  0  0  0  0  0
   36.8090   30.3280   41.3010 C   0  0  1  0  0  3  0  0  0  0  0  0
   36.9560   29.0270   43.3380 O   0  0  0  0  0  0  0  0  0  0  0  0
   36.0730   28.9800   43.8210 H   0  0  0  0  0  0  0  0  0  0  0  0
   35.6360   31.0670   41.3820 O   0  0  0  0  0  0  0  0  0  0  0  0
   35.9100   32.0280   41.3080 H   0  0  0  0  0  0  0  0  0  0  0  0
   39.2390   26.9380   43.2250 O   0  0  0  0  0  0  0  0  0  0  0  0
   40.1430   27.2760   42.8630 H   0  0  0  0  0  0  0  0  0  0  0  0
  1  6  1  0  0  0  0
  1 18  1  0  0  0  0
  2  1  2  0  0  0  0
  3  4  2  0  0  0  0
  3  2  1  0  0  0  0
  4  5  1  0  0  0  0
  5  8  1  0  0  0  0
  5  6  2  0  0  0  0
  7  3  1  0  0  0  0
  9 14  1  1  0  0  0
 10  2  1  6  0  0  0
 10  9  1  0  0  0  0
 11 10  1  0  0  0  0
 12 11  1  0  0  0  0
 12 13  1  0  0  0  0
 13 16  1  6  0  0  0
 13  9  1  0  0  0  0
 14 15  1  0  0  0  0
 17 16  1  0  0  0  0
 19 18  1  0  0  0  0
M  END
>  <minimizedAffinity>
-4.71500731

$$$$

 OpenBabel03252504083D

 19 20  0  0  1  0  0  0  0  0999 V2000
   36.6540   31.1570   40.5000 C   0  0  0  0  0  0  0  0  0  0  0  0
   37.4740   30.0320   40.3130 C   0  0  0  0  0  0  0  0  0  0  0  0
   38.5590   30.1820   39.4360 C   0  0  0  0  0  0  0  0  0  0  0  0
   38.7550   31.3830   38.8270 N   0  0  0  0  0  0  0  0  0  0  0  0
   37.9380   32.4290   39.0420 C   0  0  0  0  0  0  0  0  0  0  0  0
   36.9010   32.3150   39.8700 N   0  0  0  0  0  0  0  0  0  0  0  0
   39.2170   29.3600   39.2540 H   0  0  0  0  0  0  0  0  0  0  0  0
   38.0630   33.3990   38.5770 H   0  0  0  0  0  0  0  0  0  0  0  0
   37.8560   28.6670   42.3730 C   0  0  2  0  0  3  0  0  0  0  0  0
   37.2320   28.7520   40.9880 C   0  0  2  0  0  3  0  0  0  0  0  0
   37.6120   27.6330   40.3030 O   0  0  0  0  0  0  0  0  0  0  0  0
   37.9540   26.6480   41.2110 C   0  0  0  0  0  2  0  0  0  0  0  0
   37.6870   27.1700   42.6030 C   0  0  1  0  0  3  0  0  0  0  0  0
   37.2280   29.4380   43.3150 O   0  0  0  0  0  0  0  0  0  0  0  0
   37.9330   29.7860   43.9460 H   0  0  0  0  0  0  0  0  0  0  0  0
   38.6250   26.6540   43.4870 O   0  0  0  0  0  0  0  0  0  0  0  0
   38.2030   25.8420   43.8960 H   0  0  0  0  0  0  0  0  0  0  0  0
   35.5900   31.0250   41.3560 O   0  0  0  0  0  0  0  0  0  0  0  0
   34.7440   30.5460   41.0130 H   0  0  0  0  0  0  0  0  0  0  0  0
  1 18  1  0  0  0  0
  2  1  1  0  0  0  0
  3  2  2  0  0  0  0
  4  5  2  0  0  0  0
  4  3  1  0  0  0  0
  5  6  1  0  0  0  0
  6  1  2  0  0  0  0
  7  3  1  0  0  0  0
  8  5  1  0  0  0  0
  9 13  1  0  0  0  0
  9 14  1  1  0  0  0
 10  2  1  6  0  0  0
 10  9  1  0  0  0  0
 11 10  1  0  0  0  0
 11 12  1  0  0  0  0
 12 13  1  0  0  0  0
 13 16  1  1  0  0  0
 14 15  1  0  0  0  0
 16 17  1  0  0  0  0
 19 18  1  0  0  0  0
M  END
>  <minimizedAffinity>
-4.69573164

$$$$

 OpenBabel03252504083D

 19 20  0  0  1  0  0  0  0  0999 V2000
   35.9750   30.1930   40.4800 C   0  0  0  0  0  0  0  0  0  0  0  0
   37.3090   30.3000   40.0540 C   0  0  0  0  0  0  0  0  0  0  0  0
   37.7110   29.4370   39.0220 C   0  0  0  0  0  0  0  0  0  0  0  0
   36.8080   28.5630   38.5020 N   0  0  0  0  0  0  0  0  0  0  0  0
   35.5410   28.5030   38.9480 C   0  0  0  0  0  0  0  0  0  0  0  0
   35.1320   29.3100   39.9250 N   0  0  0  0  0  0  0  0  0  0  0  0
   38.7150   29.4720   38.6570 H   0  0  0  0  0  0  0  0  0  0  0  0
   34.7950   27.8220   38.5570 H   0  0  0  0  0  0  0  0  0  0  0  0
   38.2450   32.6160   39.9590 C   0  0  2  0  0  3  0  0  0  0  0  0
   38.2560   31.2550   40.6390 C   0  0  2  0  0  3  0  0  0  0  0  0
   39.5570   30.8450   40.7030 O   0  0  0  0  0  0  0  0  0  0  0  0
   40.3800   31.9540   40.6210 C   0  0  0  0  0  2  0  0  0  0  0  0
   39.5110   33.1900   40.5840 C   0  0  1  0  0  3  0  0  0  0  0  0
   37.1240   33.3600   40.2190 O   0  0  0  0  0  0  0  0  0  0  0  0
   36.9050   33.8860   39.3880 H   0  0  0  0  0  0  0  0  0  0  0  0
   40.1080   34.1610   39.7920 O   0  0  0  0  0  0  0  0  0  0  0  0
   40.6230   34.7500   40.4170 H   0  0  0  0  0  0  0  0  0  0  0  0
   35.5670   31.0310   41.4870 O   0  0  0  0  0  0  0  0  0  0  0  0
   35.8280   30.7940   42.4560 H   0  0  0  0  0  0  0  0  0  0  0  0
  1 18  1  0  0  0  0
  2  1  1  0  0  0  0
  3  2  2  0  0  0  0
  4  5  2  0  0  0  0
  4  3  1  0  0  0  0
  5  6  1  0  0  0  0
  6  1  2  0  0  0  0
  7  3  1  0  0  0  0
  8  5  1  0  0  0  0
  9 14  1  1  0  0  0
  9 13  1  0  0  0  0
  9 10  1  0  0  0  0
 10  2  1  6  0  0  0
 10 11  1  0  0  0  0
 12 11  1  0  0  0  0
 13 16  1  6  0  0  0
 13 12  1  0  0  0  0
 15 14  1  0  0  0  0
 16 17  1  0  0  0  0
 18 19  1  0  0  0  0
M  END
>  <minimizedAffinity>
-4.64317894

$$$$

 OpenBabel03252504083D

 19 20  0  0  1  0  0  0  0  0999 V2000
   38.6420   28.2580   41.1390 C   0  0  0  0  0  0  0  0  0  0  0  0
   38.1390   29.2330   42.0150 C   0  0  0  0  0  0  0  0  0  0  0  0
   37.6690   28.7810   43.2580 C   0  0  0  0  0  0  0  0  0  0  0  0
   37.7240   27.4520   43.5410 N   0  0  0  0  0  0  0  0  0  0  0  0
   38.2160   26.5590   42.6640 C   0  0  0  0  0  0  0  0  0  0  0  0
   38.6700   26.9600   41.4780 N   0  0  0  0  0  0  0  0  0  0  0  0
   37.2730   29.4770   43.9650 H   0  0  0  0  0  0  0  0  0  0  0  0
   38.2770   25.4950   42.8550 H   0  0  0  0  0  0  0  0  0  0  0  0
   36.9190   31.0370   40.7870 C   0  0  2  0  0  3  0  0  0  0  0  0
   38.0950   30.6590   41.6750 C   0  0  2  0  0  3  0  0  0  0  0  0
   39.2210   31.1710   41.0940 O   0  0  0  0  0  0  0  0  0  0  0  0
   38.8610   32.2180   40.2660 C   0  0  0  0  0  2  0  0  0  0  0  0
   37.3730   32.4400   40.4000 C   0  0  1  0  0  3  0  0  0  0  0  0
   35.7080   31.0140   41.4270 O   0  0  0  0  0  0  0  0  0  0  0  0
   35.0160   30.7010   40.7640 H   0  0  0  0  0  0  0  0  0  0  0  0
   36.8480   32.8560   39.1830 O   0  0  0  0  0  0  0  0  0  0  0  0
   36.8280   33.8570   39.2180 H   0  0  0  0  0  0  0  0  0  0  0  0
   39.1070   28.6850   39.9200 O   0  0  0  0  0  0  0  0  0  0  0  0
   38.4190   28.9000   39.1830 H   0  0  0  0  0  0  0  0  0  0  0  0
  1  6  2  0  0  0  0
  1  2  1  0  0  0  0
  2  3  2  0  0  0  0
  3  4  1  0  0  0  0
  3  7  1  0  0  0  0
  5  8  1  0  0  0  0
  5  4  2  0  0  0  0
  6  5  1  0  0  0  0
  9 14  1  1  0  0  0
  9 10  1  0  0  0  0
 10  2  1  6  0  0  0
 11 10  1  0  0  0  0
 12 13  1  0  0  0  0
 12 11  1  0  0  0  0
 13 16  1  6  0  0  0
 13  9  1  0  0  0  0
 15 14  1  0  0  0  0
 16 17  1  0  0  0  0
 18  1  1  0  0  0  0
 19 18  1  0  0  0  0
M  END
>  <minimizedAffinity>
-4.5207839

$$$$

 OpenBabel03252504083D

 19 20  0  0  1  0  0  0  0  0999 V2000
   37.5080   29.3570   42.1260 C   0  0  0  0  0  0  0  0  0  0  0  0
   38.6010   29.8470   41.3950 C   0  0  0  0  0  0  0  0  0  0  0  0
   39.8640   29.3290   41.7240 C   0  0  0  0  0  0  0  0  0  0  0  0
   39.9590   28.4000   42.7130 N   0  0  0  0  0  0  0  0  0  0  0  0
   38.8780   27.9640   43.3830 C   0  0  0  0  0  0  0  0  0  0  0  0
   37.6680   28.4380   43.0910 N   0  0  0  0  0  0  0  0  0  0  0  0
   40.7330   29.6660   41.2010 H   0  0  0  0  0  0  0  0  0  0  0  0
   38.9150   27.2260   44.1740 H   0  0  0  0  0  0  0  0  0  0  0  0
   38.1910   32.2540   40.8550 C   0  0  2  0  0  3  0  0  0  0  0  0
   38.4610   30.8500   40.3330 C   0  0  2  0  0  3  0  0  0  0  0  0
   37.5190   30.5850   39.3800 O   0  0  0  0  0  0  0  0  0  0  0  0
   37.0310   31.7820   38.8880 C   0  0  0  0  0  2  0  0  0  0  0  0
   37.7970   32.9110   39.5370 C   0  0  1  0  0  3  0  0  0  0  0  0
   39.2730   32.8420   41.4550 O   0  0  0  0  0  0  0  0  0  0  0  0
   38.9320   33.4090   42.2150 H   0  0  0  0  0  0  0  0  0  0  0  0
   36.9620   34.0060   39.7130 O   0  0  0  0  0  0  0  0  0  0  0  0
   37.1060   34.5940   38.9150 H   0  0  0  0  0  0  0  0  0  0  0  0
   36.2670   29.8530   41.8140 O   0  0  0  0  0  0  0  0  0  0  0  0
   36.0090   30.7830   42.1760 H   0  0  0  0  0  0  0  0  0  0  0  0
  1  6  1  0  0  0  0
  2  3  1  0  0  0  0
  2  1  2  0  0  0  0
  3  4  2  0  0  0  0
  4  5  1  0  0  0  0
  5  8  1  0  0  0  0
  6  5  2  0  0  0  0
  7  3  1  0  0  0  0
  9 14  1  6  0  0  0
 10  9  1  0  0  0  0
 10  2  1  1  0  0  0
 11 10  1  0  0  0  0
 12 11  1  0  0  0  0
 12 13  1  0  0  0  0
 13 16  1  1  0  0  0
 13  9  1  0  0  0  0
 14 15  1  0  0  0  0
 17 16  1  0  0  0  0
 18  1  1  0  0  0  0
 18 19  1  0  0  0  0
M  END
>  <minimizedAffinity>
-4.51343298

$$$$

 OpenBabel03252504083D

 19 20  0  0  1  0  0  0  0  0999 V2000
   37.1960   28.2850   38.9400 C   0  0  0  0  0  0  0  0  0  0  0  0
   37.3880   28.7420   40.2530 C   0  0  0  0  0  0  0  0  0  0  0  0
   37.1970   27.8050   41.2810 C   0  0  0  0  0  0  0  0  0  0  0  0
   36.8430   26.5330   40.9570 N   0  0  0  0  0  0  0  0  0  0  0  0
   36.6720   26.1470   39.6810 C   0  0  0  0  0  0  0  0  0  0  0  0
   36.8470   27.0150   38.6850 N   0  0  0  0  0  0  0  0  0  0  0  0
   37.3280   28.0960   42.3010 H   0  0  0  0  0  0  0  0  0  0  0  0
   36.3910   25.1440   39.3850 H   0  0  0  0  0  0  0  0  0  0  0  0
   36.6280   31.1180   40.4240 C   0  0  2  0  0  3  0  0  0  0  0  0
   37.7710   30.1240   40.5650 C   0  0  2  0  0  3  0  0  0  0  0  0
   38.8310   30.6240   39.8640 O   0  0  0  0  0  0  0  0  0  0  0  0
   38.6770   31.9920   39.7350 C   0  0  0  0  0  2  0  0  0  0  0  0
   37.4400   32.4050   40.4990 C   0  0  1  0  0  3  0  0  0  0  0  0
   35.6770   31.0160   41.4060 O   0  0  0  0  0  0  0  0  0  0  0  0
   34.7820   31.2200   40.9890 H   0  0  0  0  0  0  0  0  0  0  0  0
   36.8220   33.4670   39.8540 O   0  0  0  0  0  0  0  0  0  0  0  0
   37.1650   34.2980   40.2970 H   0  0  0  0  0  0  0  0  0  0  0  0
   37.3810   29.1890   37.9240 O   0  0  0  0  0  0  0  0  0  0  0  0
   36.6280   29.8660   37.7310 H   0  0  0  0  0  0  0  0  0  0  0  0
  1  2  1  0  0  0  0
  2  3  2  0  0  0  0
  3  7  1  0  0  0  0
  4  3  1  0  0  0  0
  5  4  2  0  0  0  0
  6  1  2  0  0  0  0
  6  5  1  0  0  0  0
  8  5  1  0  0  0  0
  9 13  1  0  0  0  0
  9 10  1  0  0  0  0
  9 14  1  1  0  0  0
 10  2  1  6  0  0  0
 11 10  1  0  0  0  0
 12 11  1  0  0  0  0
 12 13  1  0  0  0  0
 13 16  1  6  0  0  0
 15 14  1  0  0  0  0
 16 17  1  0  0  0  0
 18  1  1  0  0  0  0
 19 18  1  0  0  0  0
M  END
>  <minimizedAffinity>
-4.44766474

$$$$
