
 OpenBabel03252508293D

 39 42  0  0  1  0  0  0  0  0999 V2000
   40.7870   33.9910   40.5270 N   0  0  0  0  0  0  0  0  0  0  0  0
   41.8630   34.9240   40.2000 C   0  0  2  0  0  0  0  0  0  0  0  0
   42.0800   35.0690   38.7590 C   0  0  0  0  0  0  0  0  0  0  0  0
   41.2760   34.2230   37.8910 N   0  0  0  0  0  0  0  0  0  0  0  0
   40.8190   32.9930   38.4040 C   0  0  0  0  0  0  0  0  0  0  0  0
   41.1660   32.7650   39.8440 C   0  0  2  0  0  0  0  0  0  0  0  0
   40.8480   33.8110   41.5610 H   0  0  0  0  0  0  0  0  0  0  0  0
   41.5430   35.8730   40.7370 H   0  0  0  0  0  0  0  0  0  0  0  0
   41.6270   36.1000   38.5240 H   0  0  0  0  0  0  0  0  0  0  0  0
   43.0690   35.2070   38.3510 H   0  0  0  0  0  0  0  0  0  0  0  0
   40.6650   34.6990   37.2320 H   0  0  0  0  0  0  0  0  0  0  0  0
   41.3440   32.1790   37.8290 H   0  0  0  0  0  0  0  0  0  0  0  0
   39.7610   32.8770   38.1640 H   0  0  0  0  0  0  0  0  0  0  0  0
   42.2380   32.6140   39.9370 H   0  0  0  0  0  0  0  0  0  0  0  0
   44.5140   33.8770   42.3740 C   0  0  0  0  0  0  0  0  0  0  0  0
   45.1730   34.1110   41.1860 C   0  0  0  0  0  0  0  0  0  0  0  0
   44.2160   34.5270   40.2380 C   0  0  0  0  0  0  0  0  0  0  0  0
   43.0560   34.5260   40.8810 N   0  0  0  0  0  0  0  0  0  0  0  0
   43.2140   34.1490   42.1230 N   0  0  0  0  0  0  0  0  0  0  0  0
   46.2500   33.9680   41.1070 H   0  0  0  0  0  0  0  0  0  0  0  0
   44.6730   34.7240   39.2740 H   0  0  0  0  0  0  0  0  0  0  0  0
   46.2780   31.7820   44.9660 C   0  0  0  0  0  0  0  0  0  0  0  0
   45.7100   32.1540   43.7220 C   0  0  0  0  0  0  0  0  0  0  0  0
   45.1260   33.4160   43.6220 C   0  0  0  0  0  0  0  0  0  0  0  0
   45.1220   34.2260   44.6950 N   0  0  0  0  0  0  0  0  0  0  0  0
   45.6720   33.8510   45.8790 C   0  0  0  0  0  0  0  0  0  0  0  0
   46.2370   32.6390   45.9860 N   0  0  0  0  0  0  0  0  0  0  0  0
   46.6910   30.7920   44.9040 H   0  0  0  0  0  0  0  0  0  0  0  0
   45.6930   31.5220   42.8260 H   0  0  0  0  0  0  0  0  0  0  0  0
   45.6670   34.5130   46.7450 H   0  0  0  0  0  0  0  0  0  0  0  0
   40.3940   31.6320   41.9730 C   0  0  1  0  0  3  0  0  0  0  0  0
   40.4540   31.6500   40.4990 C   0  0  2  0  0  3  0  0  0  0  0  0
   40.9990   30.4050   40.1940 O   0  0  0  0  0  0  0  0  0  0  0  0
   40.5840   29.4910   41.1240 C   0  0  0  0  0  2  0  0  0  0  0  0
   39.7760   30.2410   42.1720 C   0  0  1  0  0  3  0  0  0  0  0  0
   41.5910   31.6030   42.6380 O   0  0  0  0  0  0  0  0  0  0  0  0
   42.1880   30.8830   42.3890 H   0  0  0  0  0  0  0  0  0  0  0  0
   39.9570   29.7570   43.4490 O   0  0  0  0  0  0  0  0  0  0  0  0
   39.0910   29.7990   43.9300 H   0  0  0  0  0  0  0  0  0  0  0  0
  1  7  1  0  0  0  0
  2  1  1  0  0  0  0
  2  8  1  1  0  0  0
  2 18  1  0  0  0  0
  3  2  1  0  0  0  0
  4  5  1  0  0  0  0
  4  3  1  0  0  0  0
  5  6  1  0  0  0  0
  6 14  1  1  0  0  0
  6 32  1  0  0  0  0
  6  1  1  0  0  0  0
  9  3  1  0  0  0  0
 10  3  1  0  0  0  0
 11  4  1  0  0  0  0
 12  5  1  0  0  0  0
 13  5  1  0  0  0  0
 15 24  1  0  0  0  0
 16 15  1  0  0  0  0
 17 18  1  0  0  0  0
 17 16  2  0  0  0  0
 18 19  1  0  0  0  0
 19 15  2  0  0  0  0
 20 16  1  0  0  0  0
 21 17  1  0  0  0  0
 22 27  1  0  0  0  0
 23 22  2  0  0  0  0
 24 23  1  0  0  0  0
 24 25  2  0  0  0  0
 25 26  1  0  0  0  0
 26 27  2  0  0  0  0
 26 30  1  0  0  0  0
 28 22  1  0  0  0  0
 29 23  1  0  0  0  0
 31 35  1  0  0  0  0
 31 36  1  1  0  0  0
 32 33  1  1  0  0  0
 32 31  1  0  0  0  0
 33 34  1  0  0  0  0
 34 35  1  0  0  0  0
 35 38  1  1  0  0  0
 37 36  1  0  0  0  0
 38 39  1  0  0  0  0
M  END
>  <minimizedAffinity>
-5.24209976

>  <minimizedRMSD>
4.97981119

$$$$
