
 OpenBabel03252507063D

 24 25  0  0  1  0  0  0  0  0999 V2000
   44.6530   36.1130   44.5160 C   0  0  0  0  0  0  0  0  0  0  0  0
   45.2770   36.1060   43.2580 C   0  0  0  0  0  0  0  0  0  0  0  0
   46.0350   34.9900   42.9310 C   0  0  0  0  0  0  0  0  0  0  0  0
   46.1460   33.9580   43.8260 N   0  0  0  0  0  0  0  0  0  0  0  0
   45.5300   34.0020   45.0280 C   0  0  0  0  0  0  0  0  0  0  0  0
   44.7910   35.0740   45.3640 N   0  0  0  0  0  0  0  0  0  0  0  0
   44.0580   36.9810   44.7800 H   0  0  0  0  0  0  0  0  0  0  0  0
   45.1280   36.9640   42.6270 H   0  0  0  0  0  0  0  0  0  0  0  0
   46.5980   31.7800   45.2780 C   0  0  2  0  0  3  0  0  0  0  0  0
   45.7050   32.8380   45.9360 C   0  0  1  0  0  3  0  0  0  0  0  0
   46.3740   33.1780   47.1020 O   0  0  0  0  0  0  0  0  0  0  0  0
   47.0780   32.0880   47.5340 C   0  0  0  0  0  2  0  0  0  0  0  0
   47.0080   30.9970   46.5050 C   0  0  2  0  0  3  0  0  0  0  0  0
   47.6890   32.4780   44.7540 O   0  0  0  0  0  0  0  0  0  0  0  0
   47.7970   33.3860   45.1760 H   0  0  0  0  0  0  0  0  0  0  0  0
   48.2440   30.4020   46.2740 O   0  0  0  0  0  0  0  0  0  0  0  0
   48.7990   30.9360   45.6470 H   0  0  0  0  0  0  0  0  0  0  0  0
   46.6520   34.9890   41.6790 O   0  0  0  0  0  0  0  0  0  0  0  0
   48.5350   33.2760   40.9480 O   0  0  0  0  0  0  0  0  0  0  0  0
   48.3350   34.6540   41.5710 P   0  0  0  0  0  0  0  0  0  0  0  0
   49.0580   35.8580   40.6690 O   0  0  0  0  0  0  0  0  0  0  0  0
   48.6910   35.8400   39.7700 H   0  0  0  0  0  0  0  0  0  0  0  0
   48.9370   34.6040   43.1560 O   0  0  0  0  0  0  0  0  0  0  0  0
   48.6450   33.7480   43.5590 H   0  0  0  0  0  0  0  0  0  0  0  0
  1  7  1  0  0  0  0
  1  6  1  0  0  0  0
  2  1  2  0  0  0  0
  3  2  1  0  0  0  0
  3  4  2  0  0  0  0
  4  5  1  0  0  0  0
  5  6  2  0  0  0  0
  8  2  1  0  0  0  0
  9 14  1  1  0  0  0
  9 10  1  0  0  0  0
  9 13  1  0  0  0  0
 10  5  1  6  0  0  0
 10 11  1  0  0  0  0
 11 12  1  0  0  0  0
 13 16  1  6  0  0  0
 13 12  1  0  0  0  0
 14 15  1  0  0  0  0
 17 16  1  0  0  0  0
 18  3  1  0  0  0  0
 19 20  2  0  0  0  0
 20 18  1  0  0  0  0
 20 23  1  0  0  0  0
 21 20  1  0  0  0  0
 22 21  1  0  0  0  0
 23 24  1  0  0  0  0
M  END
>  <minimizedAffinity>
-5.27481127

>  <minimizedRMSD>
0.327606142

$$$$
