
 OpenBabel03252506013D

 28 30  0  0  1  0  0  0  0  0999 V2000
   44.8930   36.3900   42.9560 Cl  0  0  0  0  0  0  0  0  0  0  0  0
   45.4710   35.1060   43.9740 C   0  0  0  0  0  0  0  0  0  0  0  0
   46.4510   34.2730   43.5310 C   0  0  0  0  0  0  0  0  0  0  0  0
   46.8500   33.2810   44.4070 C   0  0  0  0  0  0  0  0  0  0  0  0
   46.3290   33.0880   45.6720 C   0  0  0  0  0  0  0  0  0  0  0  0
   45.3440   33.9500   46.0810 C   0  0  0  0  0  0  0  0  0  0  0  0
   44.7120   33.6700   47.6910 Cl  0  0  0  0  0  0  0  0  0  0  0  0
   44.9170   34.9490   45.2430 C   0  0  0  0  0  0  0  0  0  0  0  0
   47.6370   32.6040   44.0620 H   0  0  0  0  0  0  0  0  0  0  0  0
   44.1350   35.5930   45.6300 H   0  0  0  0  0  0  0  0  0  0  0  0
   48.6910   35.3530   40.8510 C   0  0  0  0  0  0  0  0  0  0  0  0
   48.2190   34.6680   39.7350 C   0  0  0  0  0  0  0  0  0  0  0  0
   47.1090   33.8200   39.9020 C   0  0  0  0  0  0  0  0  0  0  0  0
   46.5720   33.7250   41.1440 N   0  0  0  0  0  0  0  0  0  0  0  0
   47.0560   34.4040   42.2120 C   0  0  0  0  0  0  0  0  0  0  0  0
   48.1170   35.2190   42.0640 N   0  0  0  0  0  0  0  0  0  0  0  0
   49.5550   36.0010   40.6750 H   0  0  0  0  0  0  0  0  0  0  0  0
   48.5990   34.7070   38.7450 H   0  0  0  0  0  0  0  0  0  0  0  0
   46.6100   33.2180   39.1640 H   0  0  0  0  0  0  0  0  0  0  0  0
   45.7790   30.9890   46.8980 C   0  0  2  0  0  3  0  0  0  0  0  0
   46.8420   31.9940   46.5040 C   0  0  1  0  0  3  0  0  0  0  0  0
   47.7480   31.1780   45.8520 O   0  0  0  0  0  0  0  0  0  0  0  0
   47.9800   30.1640   46.7730 C   0  0  0  0  0  2  0  0  0  0  0  0
   46.6440   29.8620   47.4220 C   0  0  1  0  0  3  0  0  0  0  0  0
   45.1120   30.4860   45.7800 O   0  0  0  0  0  0  0  0  0  0  0  0
   44.7120   31.1950   45.2100 H   0  0  0  0  0  0  0  0  0  0  0  0
   46.7230   30.0700   48.8190 O   0  0  0  0  0  0  0  0  0  0  0  0
   47.3550   30.8090   49.0210 H   0  0  0  0  0  0  0  0  0  0  0  0
  1  2  1  0  0  0  0
  2  8  1  0  0  0  0
  3  2  2  0  0  0  0
  3  4  1  0  0  0  0
  4  5  2  0  0  0  0
  5  6  1  0  0  0  0
  6  7  1  0  0  0  0
  8 10  1  0  0  0  0
  8  6  2  0  0  0  0
  9  4  1  0  0  0  0
 11 16  1  0  0  0  0
 12 13  1  0  0  0  0
 12 11  2  0  0  0  0
 13 14  2  0  0  0  0
 14 15  1  0  0  0  0
 15  3  1  0  0  0  0
 16 15  2  0  0  0  0
 17 11  1  0  0  0  0
 18 12  1  0  0  0  0
 19 13  1  0  0  0  0
 20 25  1  6  0  0  0
 20 24  1  0  0  0  0
 21  5  1  6  0  0  0
 21 20  1  0  0  0  0
 22 21  1  0  0  0  0
 22 23  1  0  0  0  0
 23 24  1  0  0  0  0
 24 27  1  1  0  0  0
 26 25  1  0  0  0  0
 27 28  1  0  0  0  0
M  END
>  <minimizedAffinity>
-6.11317873

>  <minimizedRMSD>
0.722977579

$$$$
