
 OpenBabel03252507063D

 24 25  0  0  1  0  0  0  0  0999 V2000
   44.8960   35.0770   44.9290 C   0  0  0  0  0  0  0  0  0  0  0  0
   45.4450   35.2850   43.6520 C   0  0  0  0  0  0  0  0  0  0  0  0
   46.4950   34.4620   43.2710 C   0  0  0  0  0  0  0  0  0  0  0  0
   46.9510   33.4980   44.1320 N   0  0  0  0  0  0  0  0  0  0  0  0
   46.3970   33.3290   45.3540 C   0  0  0  0  0  0  0  0  0  0  0  0
   45.3780   34.1160   45.7420 N   0  0  0  0  0  0  0  0  0  0  0  0
   44.0740   35.7160   45.2350 H   0  0  0  0  0  0  0  0  0  0  0  0
   45.0160   36.0670   43.0510 H   0  0  0  0  0  0  0  0  0  0  0  0
   45.8440   31.2970   46.6600 C   0  0  2  0  0  3  0  0  0  0  0  0
   46.9540   32.2590   46.2220 C   0  0  1  0  0  3  0  0  0  0  0  0
   47.8640   31.4570   45.5500 O   0  0  0  0  0  0  0  0  0  0  0  0
   47.8140   30.2000   46.0880 C   0  0  0  0  0  2  0  0  0  0  0  0
   46.6870   30.1120   47.0730 C   0  0  2  0  0  3  0  0  0  0  0  0
   45.1200   31.0030   45.5000 O   0  0  0  0  0  0  0  0  0  0  0  0
   45.6420   31.2100   44.6650 H   0  0  0  0  0  0  0  0  0  0  0  0
   45.9390   28.9470   46.9250 O   0  0  0  0  0  0  0  0  0  0  0  0
   45.2720   29.0270   46.1930 H   0  0  0  0  0  0  0  0  0  0  0  0
   47.0360   34.6730   42.0010 O   0  0  0  0  0  0  0  0  0  0  0  0
   49.1550   33.3040   41.1960 O   0  0  0  0  0  0  0  0  0  0  0  0
   48.7430   34.6430   41.7980 P   0  0  0  0  0  0  0  0  0  0  0  0
   49.1830   35.9270   40.8270 O   0  0  0  0  0  0  0  0  0  0  0  0
   48.7750   35.8130   39.9530 H   0  0  0  0  0  0  0  0  0  0  0  0
   49.4320   34.7560   43.3440 O   0  0  0  0  0  0  0  0  0  0  0  0
   49.3240   33.8760   43.7840 H   0  0  0  0  0  0  0  0  0  0  0  0
  1  7  1  0  0  0  0
  1  6  1  0  0  0  0
  2  1  2  0  0  0  0
  3  2  1  0  0  0  0
  3  4  2  0  0  0  0
  4  5  1  0  0  0  0
  5  6  2  0  0  0  0
  8  2  1  0  0  0  0
  9 14  1  6  0  0  0
  9 13  1  0  0  0  0
 10  5  1  6  0  0  0
 10  9  1  0  0  0  0
 11 12  1  0  0  0  0
 11 10  1  0  0  0  0
 12 13  1  0  0  0  0
 13 16  1  6  0  0  0
 15 14  1  0  0  0  0
 17 16  1  0  0  0  0
 18  3  1  0  0  0  0
 19 20  2  0  0  0  0
 20 18  1  0  0  0  0
 20 23  1  0  0  0  0
 21 20  1  0  0  0  0
 22 21  1  0  0  0  0
 23 24  1  0  0  0  0
M  END
>  <minimizedAffinity>
-5.09293652

>  <minimizedRMSD>
0.993241787

$$$$
