
 OpenBabel03252506553D

 38 42  0  0  1  0  0  0  0  0999 V2000
   47.4240   31.3980   45.2350 C   0  0  0  0  0  0  0  0  0  0  0  0
   46.9280   32.6810   45.1040 C   0  0  0  0  0  0  0  0  0  0  0  0
   46.2170   33.3170   46.1030 C   0  0  0  0  0  0  0  0  0  0  0  0
   45.9700   32.6680   47.3020 C   0  0  0  0  0  0  0  0  0  0  0  0
   45.3320   32.9610   48.4720 N   0  0  0  0  0  0  0  0  0  0  0  0
   45.4330   31.8910   49.2960 C   0  0  0  0  0  0  0  0  0  0  0  0
   46.1340   30.9420   48.6260 N   0  0  0  0  0  0  0  0  0  0  0  0
   46.4750   31.3880   47.4110 C   0  0  0  0  0  0  0  0  0  0  0  0
   47.1820   30.7320   46.4370 C   0  0  0  0  0  0  0  0  0  0  0  0
   47.9750   30.9100   44.4540 H   0  0  0  0  0  0  0  0  0  0  0  0
   45.8250   34.3300   46.0030 H   0  0  0  0  0  0  0  0  0  0  0  0
   44.8640   33.8820   48.6370 H   0  0  0  0  0  0  0  0  0  0  0  0
   45.0070   31.8470   50.3100 H   0  0  0  0  0  0  0  0  0  0  0  0
   46.5870   35.1200   42.3630 C   0  0  0  0  0  0  0  0  0  0  0  0
   47.6210   34.7530   41.5070 C   0  0  0  0  0  0  0  0  0  0  0  0
   48.4290   33.6810   41.8610 C   0  0  0  0  0  0  0  0  0  0  0  0
   48.1710   33.0300   43.0440 N   0  0  0  0  0  0  0  0  0  0  0  0
   47.1640   33.4040   43.8570 C   0  0  0  0  0  0  0  0  0  0  0  0
   46.3830   34.4370   43.5180 N   0  0  0  0  0  0  0  0  0  0  0  0
   45.9370   35.9470   42.1210 H   0  0  0  0  0  0  0  0  0  0  0  0
   47.7820   35.2920   40.5940 H   0  0  0  0  0  0  0  0  0  0  0  0
   49.2480   33.3480   41.2380 H   0  0  0  0  0  0  0  0  0  0  0  0
   47.6760   29.3660   46.6540 C   0  0  0  0  0  0  0  0  0  0  0  0
   48.9980   28.9800   46.5050 C   0  0  0  0  0  0  0  0  0  0  0  0
   48.9760   27.6180   46.8140 C   0  0  0  0  0  0  0  0  0  0  0  0
   47.6650   27.2610   47.1270 C   0  0  0  0  0  0  0  0  0  0  0  0
   46.9330   28.3490   47.0150 O   0  0  0  0  0  0  0  0  0  0  0  0
   49.8670   29.5580   46.2210 H   0  0  0  0  0  0  0  0  0  0  0  0
   49.8050   26.9340   46.8190 H   0  0  0  0  0  0  0  0  0  0  0  0
   45.5900   25.9330   47.5560 C   0  0  2  0  0  3  0  0  0  0  0  0
   47.1190   25.9570   47.5170 C   0  0  1  0  0  3  0  0  0  0  0  0
   47.3480   24.9390   46.5940 O   0  0  0  0  0  0  0  0  0  0  0  0
   46.6670   23.8720   47.1810 C   0  0  0  0  0  2  0  0  0  0  0  0
   45.3710   24.4350   47.7160 C   0  0  2  0  0  3  0  0  0  0  0  0
   45.0860   26.2770   46.2880 O   0  0  0  0  0  0  0  0  0  0  0  0
   45.1180   25.4870   45.6780 H   0  0  0  0  0  0  0  0  0  0  0  0
   44.2630   23.9780   47.0130 O   0  0  0  0  0  0  0  0  0  0  0  0
   43.5170   24.6030   47.1990 H   0  0  0  0  0  0  0  0  0  0  0  0
  1  9  1  0  0  0  0
  2  1  2  0  0  0  0
  2  3  1  0  0  0  0
  3  4  2  0  0  0  0
  4  8  1  0  0  0  0
  4  5  1  0  0  0  0
  5 12  1  0  0  0  0
  5  6  1  0  0  0  0
  6 13  1  0  0  0  0
  7  6  2  0  0  0  0
  8  7  1  0  0  0  0
  9 23  1  0  0  0  0
  9  8  2  0  0  0  0
 10  1  1  0  0  0  0
 11  3  1  0  0  0  0
 14 19  1  0  0  0  0
 15 16  1  0  0  0  0
 15 14  2  0  0  0  0
 16 17  2  0  0  0  0
 17 18  1  0  0  0  0
 18  2  1  0  0  0  0
 19 18  2  0  0  0  0
 20 14  1  0  0  0  0
 21 15  1  0  0  0  0
 22 16  1  0  0  0  0
 23 27  1  0  0  0  0
 24 23  2  0  0  0  0
 24 25  1  0  0  0  0
 25 29  1  0  0  0  0
 25 26  2  0  0  0  0
 27 26  1  0  0  0  0
 28 24  1  0  0  0  0
 30 35  1  6  0  0  0
 30 34  1  0  0  0  0
 31 26  1  6  0  0  0
 31 30  1  0  0  0  0
 32 33  1  0  0  0  0
 32 31  1  0  0  0  0
 33 34  1  0  0  0  0
 34 37  1  6  0  0  0
 36 35  1  0  0  0  0
 37 38  1  0  0  0  0
M  END
>  <minimizedAffinity>
-5.62303972

>  <minimizedRMSD>
1.28822684

$$$$
