
 OpenBabel03242513593D

 41 45  0  0  1  0  0  0  0  0999 V2000
   44.8280   35.0290   44.7650 C   0  0  0  0  0  0  0  0  0  0  0  0
   45.4590   34.8210   43.5440 C   0  0  0  0  0  0  0  0  0  0  0  0
   46.4650   33.8390   43.5030 C   0  0  0  0  0  0  0  0  0  0  0  0
   46.7520   33.1730   44.6260 N   0  0  0  0  0  0  0  0  0  0  0  0
   46.1300   33.3890   45.7970 C   0  0  0  0  0  0  0  0  0  0  0  0
   45.1540   34.3370   45.8470 N   0  0  0  0  0  0  0  0  0  0  0  0
   44.0460   35.7960   44.7890 H   0  0  0  0  0  0  0  0  0  0  0  0
   46.9960   33.6240   42.6000 H   0  0  0  0  0  0  0  0  0  0  0  0
   46.4100   32.6880   47.0360 C   0  0  0  0  0  0  0  0  0  0  0  0
   45.4450   32.5790   48.0460 C   0  0  0  0  0  0  0  0  0  0  0  0
   46.0350   31.8540   49.0820 C   0  0  0  0  0  0  0  0  0  0  0  0
   47.2910   31.5500   48.6980 N   0  0  0  0  0  0  0  0  0  0  0  0
   47.4780   32.0600   47.4820 N   0  0  0  0  0  0  0  0  0  0  0  0
   44.4240   32.9750   48.0500 H   0  0  0  0  0  0  0  0  0  0  0  0
   45.5590   31.5880   50.0270 H   0  0  0  0  0  0  0  0  0  0  0  0
   48.8670   29.7180   48.5850 C   0  0  1  0  0  3  0  0  0  0  0  0
   48.2660   30.8030   49.4700 C   0  0  1  0  0  3  0  0  0  0  0  0
   49.3890   31.5740   49.7520 O   0  0  0  0  0  0  0  0  0  0  0  0
   50.4190   30.6920   50.0330 C   0  0  0  0  0  2  0  0  0  0  0  0
   50.1700   29.4240   49.2500 C   0  0  1  0  0  3  0  0  0  0  0  0
   48.0280   28.6420   48.4260 O   0  0  0  0  0  0  0  0  0  0  0  0
   48.2410   28.2240   47.5480 H   0  0  0  0  0  0  0  0  0  0  0  0
   50.0310   28.2970   50.0220 O   0  0  0  0  0  0  0  0  0  0  0  0
   49.5870   28.4680   50.8690 H   0  0  0  0  0  0  0  0  0  0  0  0
   45.1690   35.5070   42.3780 O   0  0  0  0  0  0  0  0  0  0  0  0
   44.2320   35.1050   41.4330 C   0  0  0  0  0  0  0  0  0  0  0  0
   44.4440   34.2690   40.3680 C   0  0  0  0  0  0  0  0  0  0  0  0
   43.4110   33.9610   39.5140 C   0  0  0  0  0  0  0  0  0  0  0  0
   42.1360   34.4680   39.6840 C   0  0  0  0  0  0  0  0  0  0  0  0
   41.1690   34.1390   38.8260 N   0  0  0  0  0  0  0  0  0  0  0  0
   39.9220   34.6100   38.9590 C   0  0  0  0  0  0  0  0  0  0  0  0
   39.6720   35.4500   40.0150 C   0  0  0  0  0  0  0  0  0  0  0  0
   40.6720   35.8100   40.9260 C   0  0  0  0  0  0  0  0  0  0  0  0
   41.9380   35.3080   40.7600 C   0  0  0  0  0  0  0  0  0  0  0  0
   42.9680   35.6370   41.6410 C   0  0  0  0  0  0  0  0  0  0  0  0
   45.4500   33.8860   40.2580 H   0  0  0  0  0  0  0  0  0  0  0  0
   43.6610   33.2980   38.7030 H   0  0  0  0  0  0  0  0  0  0  0  0
   39.2130   34.2900   38.2230 H   0  0  0  0  0  0  0  0  0  0  0  0
   38.6840   35.8340   40.1350 H   0  0  0  0  0  0  0  0  0  0  0  0
   40.4390   36.4790   41.7540 H   0  0  0  0  0  0  0  0  0  0  0  0
   42.7150   36.3000   42.4530 H   0  0  0  0  0  0  0  0  0  0  0  0
  1  7  1  0  0  0  0
  1  6  1  0  0  0  0
  2  1  2  0  0  0  0
  3  2  1  0  0  0  0
  3  4  2  0  0  0  0
  4  5  1  0  0  0  0
  5  6  2  0  0  0  0
  5  9  1  0  0  0  0
  8  3  1  0  0  0  0
  9 13  2  0  0  0  0
  9 10  1  0  0  0  0
 10 14  1  0  0  0  0
 10 11  2  0  0  0  0
 11 15  1  0  0  0  0
 12 11  1  0  0  0  0
 13 12  1  0  0  0  0
 16 21  1  1  0  0  0
 16 20  1  0  0  0  0
 16 17  1  0  0  0  0
 17 12  1  6  0  0  0
 17 18  1  0  0  0  0
 18 19  1  0  0  0  0
 20 23  1  1  0  0  0
 20 19  1  0  0  0  0
 22 21  1  0  0  0  0
 23 24  1  0  0  0  0
 25  2  1  0  0  0  0
 26 35  1  0  0  0  0
 26 25  1  0  0  0  0
 27 26  2  0  0  0  0
 28 29  2  0  0  0  0
 28 27  1  0  0  0  0
 29 34  1  0  0  0  0
 30 31  2  0  0  0  0
 30 29  1  0  0  0  0
 31 32  1  0  0  0  0
 32 39  1  0  0  0  0
 32 33  2  0  0  0  0
 33 40  1  0  0  0  0
 34 33  1  0  0  0  0
 34 35  2  0  0  0  0
 35 41  1  0  0  0  0
 36 27  1  0  0  0  0
 37 28  1  0  0  0  0
 38 31  1  0  0  0  0
M  END
>  <minimizedAffinity>
-7.75709009

>  <minimizedRMSD>
0.964042127

$$$$
