
 OpenBabel03252507033D

 47 50  0  0  1  0  0  0  0  0999 V2000
   41.9790   31.1870   42.3730 C   0  0  0  0  0  0  0  0  0  0  0  0
   41.6940   31.3260   43.4380 H   0  0  0  0  0  0  0  0  0  0  0  0
   41.7340   32.1990   41.9030 H   0  0  0  0  0  0  0  0  0  0  0  0
   41.3640   30.1520   41.8090 N   0  0  0  0  0  0  0  0  0  0  0  0
   41.5660   28.7730   41.9870 C   0  0  0  0  0  0  0  0  0  0  0  0
   40.3090   28.4660   42.8370 C   0  0  0  0  0  0  0  0  0  0  0  0
   39.0710   28.7420   42.1290 C   0  0  0  0  0  0  0  0  0  0  0  0
   39.0510   29.7190   41.0630 C   0  0  0  0  0  0  0  0  0  0  0  0
   40.2930   30.5370   40.8610 C   0  0  0  0  0  0  0  0  0  0  0  0
   41.6800   28.1170   41.1410 H   0  0  0  0  0  0  0  0  0  0  0  0
   42.4420   28.5830   42.6590 H   0  0  0  0  0  0  0  0  0  0  0  0
   40.4070   29.0050   43.7940 H   0  0  0  0  0  0  0  0  0  0  0  0
   40.4290   27.3720   43.0880 H   0  0  0  0  0  0  0  0  0  0  0  0
   38.2760   29.0370   42.8740 H   0  0  0  0  0  0  0  0  0  0  0  0
   38.6710   27.7710   41.7120 H   0  0  0  0  0  0  0  0  0  0  0  0
   38.2530   29.9500   40.4080 H   0  0  0  0  0  0  0  0  0  0  0  0
   40.3650   31.8090   39.6490 S   0  0  0  0  0  0  0  0  0  0  0  0
   38.4630   33.6060   40.2630 C   0  0  2  0  0  3  0  0  0  0  0  0
   38.7470   32.5090   39.2600 C   0  0  1  0  0  3  0  0  0  0  0  0
   38.8170   33.1390   38.0280 O   0  0  0  0  0  0  0  0  0  0  0  0
   39.6590   34.2330   38.3210 C   0  0  0  0  0  2  0  0  0  0  0  0
   39.0270   34.8270   39.5850 C   0  0  2  0  0  3  0  0  0  0  0  0
   39.1720   33.3420   41.4380 O   0  0  0  0  0  0  0  0  0  0  0  0
   40.0860   33.7320   41.3120 H   0  0  0  0  0  0  0  0  0  0  0  0
   40.0080   35.4440   40.3450 O   0  0  0  0  0  0  0  0  0  0  0  0
   40.6810   35.8780   39.7560 H   0  0  0  0  0  0  0  0  0  0  0  0
   43.4640   31.1070   42.3040 C   0  0  0  0  0  0  0  0  0  0  0  0
   43.7820   30.4000   41.5150 H   0  0  0  0  0  0  0  0  0  0  0  0
   43.8490   30.7290   43.2840 H   0  0  0  0  0  0  0  0  0  0  0  0
   43.9860   32.4530   42.0140 C   0  0  0  0  0  0  0  0  0  0  0  0
   43.1380   33.4570   41.6060 C   0  0  0  0  0  0  0  0  0  0  0  0
   43.6730   34.7060   41.3330 C   0  0  0  0  0  0  0  0  0  0  0  0
   45.0250   34.8780   41.4860 N   0  0  0  0  0  0  0  0  0  0  0  0
   45.8110   33.8830   41.8830 C   0  0  0  0  0  0  0  0  0  0  0  0
   45.2720   32.6910   42.1380 N   0  0  0  0  0  0  0  0  0  0  0  0
   42.0740   33.5200   41.4490 H   0  0  0  0  0  0  0  0  0  0  0  0
   43.1630   35.6040   41.0030 H   0  0  0  0  0  0  0  0  0  0  0  0
   47.2370   34.1650   42.0400 C   0  0  0  0  0  0  0  0  0  0  0  0
   48.0800   33.2380   42.6420 C   0  0  0  0  0  0  0  0  0  0  0  0
   49.4180   33.5040   42.7970 C   0  0  0  0  0  0  0  0  0  0  0  0
   49.8080   34.7400   42.3110 C   0  0  0  0  0  0  0  0  0  0  0  0
   49.0070   35.7030   41.7010 C   0  0  0  0  0  0  0  0  0  0  0  0
   47.7010   35.3540   41.5910 N   0  0  0  0  0  0  0  0  0  0  0  0
   47.7050   32.2750   43.0070 H   0  0  0  0  0  0  0  0  0  0  0  0
   50.1410   32.8580   43.2450 H   0  0  0  0  0  0  0  0  0  0  0  0
   50.8620   35.0140   42.4040 H   0  0  0  0  0  0  0  0  0  0  0  0
   49.4130   36.6220   41.3640 H   0  0  0  0  0  0  0  0  0  0  0  0
  1  2  1  0  0  0  0
  3  1  1  0  0  0  0
  4  5  1  0  0  0  0
  4  1  1  0  0  0  0
  5 11  1  0  0  0  0
  5  6  1  0  0  0  0
  6 13  1  0  0  0  0
  6 12  1  0  0  0  0
  7  6  1  0  0  0  0
  7 14  1  0  0  0  0
  8  7  1  0  0  0  0
  9  8  2  0  0  0  0
  9  4  1  0  0  0  0
 10  5  1  0  0  0  0
 15  7  1  0  0  0  0
 16  8  1  0  0  0  0
 17  9  1  0  0  0  0
 18 23  1  1  0  0  0
 19 17  1  1  0  0  0
 19 18  1  0  0  0  0
 20 21  1  0  0  0  0
 20 19  1  0  0  0  0
 21 22  1  0  0  0  0
 22 18  1  0  0  0  0
 22 25  1  1  0  0  0
 24 23  1  0  0  0  0
 26 25  1  0  0  0  0
 27  1  1  0  0  0  0
 27 29  1  0  0  0  0
 28 27  1  0  0  0  0
 30 35  1  0  0  0  0
 30 27  1  0  0  0  0
 31 30  2  0  0  0  0
 32 33  2  0  0  0  0
 32 31  1  0  0  0  0
 33 34  1  0  0  0  0
 34 38  1  0  0  0  0
 34 35  2  0  0  0  0
 36 31  1  0  0  0  0
 37 32  1  0  0  0  0
 38 39  1  0  0  0  0
 39 40  2  0  0  0  0
 39 44  1  0  0  0  0
 40 45  1  0  0  0  0
 41 46  1  0  0  0  0
 41 40  1  0  0  0  0
 42 41  2  0  0  0  0
 43 42  1  0  0  0  0
 43 38  2  0  0  0  0
 47 42  1  0  0  0  0
M  END
>  <minimizedAffinity>
-5.47219324

>  <minimizedRMSD>
3.68167281

$$$$
