
 OpenBabel03242513583D

 41 45  0  0  1  0  0  0  0  0999 V2000
   44.8740   34.9480   44.9060 C   0  0  0  0  0  0  0  0  0  0  0  0
   45.5320   34.8060   43.6910 C   0  0  0  0  0  0  0  0  0  0  0  0
   46.5810   33.8700   43.6360 C   0  0  0  0  0  0  0  0  0  0  0  0
   46.8790   33.1810   44.7430 N   0  0  0  0  0  0  0  0  0  0  0  0
   46.2300   33.3340   45.9090 C   0  0  0  0  0  0  0  0  0  0  0  0
   45.2130   34.2370   45.9720 N   0  0  0  0  0  0  0  0  0  0  0  0
   44.0600   35.6790   44.9410 H   0  0  0  0  0  0  0  0  0  0  0  0
   47.1340   33.7050   42.7360 H   0  0  0  0  0  0  0  0  0  0  0  0
   46.5210   32.6070   47.1300 C   0  0  0  0  0  0  0  0  0  0  0  0
   45.5410   32.4090   48.1130 C   0  0  0  0  0  0  0  0  0  0  0  0
   46.1470   31.6830   49.1380 C   0  0  0  0  0  0  0  0  0  0  0  0
   47.4270   31.4630   48.7750 N   0  0  0  0  0  0  0  0  0  0  0  0
   47.6130   32.0240   47.5820 N   0  0  0  0  0  0  0  0  0  0  0  0
   44.5000   32.7470   48.1050 H   0  0  0  0  0  0  0  0  0  0  0  0
   45.6660   31.3580   50.0620 H   0  0  0  0  0  0  0  0  0  0  0  0
   49.0910   29.7120   48.6460 C   0  0  1  0  0  3  0  0  0  0  0  0
   48.4250   30.7450   49.5460 C   0  0  1  0  0  3  0  0  0  0  0  0
   49.5060   31.5630   49.8640 O   0  0  0  0  0  0  0  0  0  0  0  0
   50.5730   30.7230   50.1410 C   0  0  0  0  0  2  0  0  0  0  0  0
   50.3970   29.4650   49.3250 C   0  0  1  0  0  3  0  0  0  0  0  0
   48.3070   28.6010   48.4490 O   0  0  0  0  0  0  0  0  0  0  0  0
   48.5530   28.2150   47.5660 H   0  0  0  0  0  0  0  0  0  0  0  0
   50.3000   28.3140   50.0690 O   0  0  0  0  0  0  0  0  0  0  0  0
   49.8370   28.4440   50.9120 H   0  0  0  0  0  0  0  0  0  0  0  0
   45.2310   35.5150   42.5410 O   0  0  0  0  0  0  0  0  0  0  0  0
   44.3050   35.1170   41.5840 C   0  0  0  0  0  0  0  0  0  0  0  0
   44.5220   34.2670   40.5320 C   0  0  0  0  0  0  0  0  0  0  0  0
   43.5000   33.9660   39.6620 C   0  0  0  0  0  0  0  0  0  0  0  0
   42.2300   34.4950   39.8040 C   0  0  0  0  0  0  0  0  0  0  0  0
   41.2730   34.1720   38.9330 N   0  0  0  0  0  0  0  0  0  0  0  0
   40.0310   34.6640   39.0390 C   0  0  0  0  0  0  0  0  0  0  0  0
   39.7760   35.5190   40.0820 C   0  0  0  0  0  0  0  0  0  0  0  0
   40.7650   35.8720   41.0070 C   0  0  0  0  0  0  0  0  0  0  0  0
   42.0260   35.3490   40.8680 C   0  0  0  0  0  0  0  0  0  0  0  0
   43.0460   35.6710   41.7640 C   0  0  0  0  0  0  0  0  0  0  0  0
   45.5240   33.8670   40.4430 H   0  0  0  0  0  0  0  0  0  0  0  0
   43.7530   33.2910   38.8630 H   0  0  0  0  0  0  0  0  0  0  0  0
   39.3310   34.3460   38.2930 H   0  0  0  0  0  0  0  0  0  0  0  0
   38.7930   35.9190   40.1800 H   0  0  0  0  0  0  0  0  0  0  0  0
   40.5290   36.5540   41.8230 H   0  0  0  0  0  0  0  0  0  0  0  0
   42.7890   36.3470   42.5640 H   0  0  0  0  0  0  0  0  0  0  0  0
  1  7  1  0  0  0  0
  1  6  1  0  0  0  0
  2  1  2  0  0  0  0
  3  2  1  0  0  0  0
  3  4  2  0  0  0  0
  4  5  1  0  0  0  0
  5  6  2  0  0  0  0
  5  9  1  0  0  0  0
  8  3  1  0  0  0  0
  9 13  2  0  0  0  0
  9 10  1  0  0  0  0
 10 11  2  0  0  0  0
 11 15  1  0  0  0  0
 12 11  1  0  0  0  0
 13 12  1  0  0  0  0
 14 10  1  0  0  0  0
 16 21  1  1  0  0  0
 16 20  1  0  0  0  0
 16 17  1  0  0  0  0
 17 12  1  6  0  0  0
 17 18  1  0  0  0  0
 18 19  1  0  0  0  0
 20 23  1  1  0  0  0
 20 19  1  0  0  0  0
 22 21  1  0  0  0  0
 23 24  1  0  0  0  0
 25  2  1  0  0  0  0
 26 35  1  0  0  0  0
 26 25  1  0  0  0  0
 27 26  2  0  0  0  0
 28 29  2  0  0  0  0
 28 27  1  0  0  0  0
 29 34  1  0  0  0  0
 30 31  2  0  0  0  0
 30 29  1  0  0  0  0
 31 32  1  0  0  0  0
 32 39  1  0  0  0  0
 32 33  2  0  0  0  0
 33 40  1  0  0  0  0
 34 33  1  0  0  0  0
 34 35  2  0  0  0  0
 35 41  1  0  0  0  0
 36 27  1  0  0  0  0
 37 28  1  0  0  0  0
 38 31  1  0  0  0  0
M  END
>  <minimizedAffinity>
-7.70469809

>  <minimizedRMSD>
0.750479162

$$$$
