
 OpenBabel03252506363D

 44 47  0  0  1  0  0  0  0  0999 V2000
   44.5280   35.4850   45.1350 C   0  0  0  0  0  0  0  0  0  0  0  0
   45.1820   35.4680   43.8940 C   0  0  0  0  0  0  0  0  0  0  0  0
   46.1030   34.5120   43.6430 C   0  0  0  0  0  0  0  0  0  0  0  0
   46.3410   33.6080   44.6280 N   0  0  0  0  0  0  0  0  0  0  0  0
   45.7190   33.6280   45.7980 C   0  0  0  0  0  0  0  0  0  0  0  0
   44.8080   34.5610   46.0710 N   0  0  0  0  0  0  0  0  0  0  0  0
   46.0530   32.6250   46.7730 N   0  0  0  0  0  0  0  0  0  0  0  0
   45.3120   32.3850   47.9600 C   0  0  0  0  0  0  0  0  0  0  0  0
   46.3890   32.0460   48.9760 C   0  0  0  0  0  0  0  0  0  0  0  0
   47.6700   31.9400   48.2090 C   0  0  0  0  0  0  0  0  0  0  0  0
   47.1740   31.7170   46.7810 C   0  0  1  0  0  0  0  0  0  0  0  0
   43.7800   36.2620   45.3400 H   0  0  0  0  0  0  0  0  0  0  0  0
   46.6070   34.4870   42.7060 H   0  0  0  0  0  0  0  0  0  0  0  0
   44.9560   33.4080   48.3110 H   0  0  0  0  0  0  0  0  0  0  0  0
   44.4760   31.7640   48.0390 H   0  0  0  0  0  0  0  0  0  0  0  0
   46.1400   31.0130   49.3610 H   0  0  0  0  0  0  0  0  0  0  0  0
   46.4040   32.6810   49.8580 H   0  0  0  0  0  0  0  0  0  0  0  0
   48.2510   31.0630   48.5650 H   0  0  0  0  0  0  0  0  0  0  0  0
   48.2310   32.8970   48.2910 H   0  0  0  0  0  0  0  0  0  0  0  0
   47.9020   32.0810   46.0330 H   0  0  0  0  0  0  0  0  0  0  0  0
   44.8140   36.5000   42.9620 N   0  0  0  0  0  0  0  0  0  0  0  0
   43.8220   36.4360   42.6370 H   0  0  0  0  0  0  0  0  0  0  0  0
   45.4420   37.2590   42.6150 H   0  0  0  0  0  0  0  0  0  0  0  0
   46.6640   30.0260   46.6050 S   0  0  0  0  0  0  0  0  0  0  0  0
   45.5740   30.3080   43.4720 O   0  0  0  0  0  0  0  0  0  0  0  0
   44.9530   29.8520   44.4480 C   0  0  0  0  0  0  0  0  0  0  0  0
   45.0870   29.7360   45.9200 C   0  0  1  0  0  0  0  0  0  0  0  0
   44.5110   28.3650   46.1750 C   0  0  0  0  0  0  0  0  0  0  0  0
   43.1810   28.5700   45.4480 C   0  0  0  0  0  0  0  0  0  0  0  0
   43.6800   29.2010   44.2290 N   0  0  0  0  0  0  0  0  0  0  0  0
   44.2340   30.4000   46.2350 H   0  0  0  0  0  0  0  0  0  0  0  0
   45.0650   27.5650   45.6560 H   0  0  0  0  0  0  0  0  0  0  0  0
   44.3430   28.1690   47.2500 H   0  0  0  0  0  0  0  0  0  0  0  0
   42.7720   27.5710   45.3120 H   0  0  0  0  0  0  0  0  0  0  0  0
   42.5220   29.2550   46.0180 H   0  0  0  0  0  0  0  0  0  0  0  0
   41.4410   29.1490   43.1830 C   0  0  2  0  0  3  0  0  0  0  0  0
   42.9070   29.1330   42.9750 C   0  0  2  0  0  3  0  0  0  0  0  0
   43.1910   28.0150   42.2470 O   0  0  0  0  0  0  0  0  0  0  0  0
   42.1850   27.0930   42.3560 C   0  0  0  0  0  2  0  0  0  0  0  0
   40.9520   27.7540   42.8690 C   0  0  1  0  0  3  0  0  0  0  0  0
   40.8420   29.9890   42.2440 O   0  0  0  0  0  0  0  0  0  0  0  0
   41.3060   29.9590   41.3640 H   0  0  0  0  0  0  0  0  0  0  0  0
   40.4490   27.1280   44.0230 O   0  0  0  0  0  0  0  0  0  0  0  0
   40.6870   27.6630   44.8320 H   0  0  0  0  0  0  0  0  0  0  0  0
  1 12  1  0  0  0  0
  1  6  1  0  0  0  0
  2  1  2  0  0  0  0
  3  2  1  0  0  0  0
  3  4  2  0  0  0  0
  4  5  1  0  0  0  0
  5  6  2  0  0  0  0
  5  7  1  0  0  0  0
  7 11  1  0  0  0  0
  7  8  1  0  0  0  0
  8 15  1  0  0  0  0
  8 14  1  0  0  0  0
  8  9  1  0  0  0  0
  9 16  1  0  0  0  0
  9 17  1  0  0  0  0
 10 19  1  0  0  0  0
 10 18  1  0  0  0  0
 10  9  1  0  0  0  0
 11 20  1  6  0  0  0
 11 10  1  0  0  0  0
 13  3  1  0  0  0  0
 21  2  1  0  0  0  0
 22 21  1  0  0  0  0
 23 21  1  0  0  0  0
 24 11  1  0  0  0  0
 25 26  2  0  0  0  0
 26 27  1  0  0  0  0
 27 28  1  0  0  0  0
 27 31  1  1  0  0  0
 27 24  1  0  0  0  0
 28 33  1  0  0  0  0
 29 35  1  0  0  0  0
 29 28  1  0  0  0  0
 30 26  1  0  0  0  0
 30 29  1  0  0  0  0
 32 28  1  0  0  0  0
 34 29  1  0  0  0  0
 36 41  1  6  0  0  0
 37 36  1  0  0  0  0
 37 30  1  1  0  0  0
 38 39  1  0  0  0  0
 38 37  1  0  0  0  0
 39 40  1  0  0  0  0
 40 36  1  0  0  0  0
 40 43  1  1  0  0  0
 42 41  1  0  0  0  0
 43 44  1  0  0  0  0
M  END
>  <minimizedAffinity>
-5.67828894

>  <minimizedRMSD>
0.693174422

$$$$
