
 OpenBabel03252506363D

 44 47  0  0  1  0  0  0  0  0999 V2000
   44.5210   35.4820   45.1300 C   0  0  0  0  0  0  0  0  0  0  0  0
   45.1870   35.4740   43.8950 C   0  0  0  0  0  0  0  0  0  0  0  0
   46.1190   34.5270   43.6510 C   0  0  0  0  0  0  0  0  0  0  0  0
   46.3570   33.6230   44.6360 N   0  0  0  0  0  0  0  0  0  0  0  0
   45.7250   33.6350   45.8000 C   0  0  0  0  0  0  0  0  0  0  0  0
   44.8030   34.5580   46.0670 N   0  0  0  0  0  0  0  0  0  0  0  0
   46.0590   32.6330   46.7760 N   0  0  0  0  0  0  0  0  0  0  0  0
   45.3100   32.3830   47.9560 C   0  0  0  0  0  0  0  0  0  0  0  0
   46.3810   32.0520   48.9810 C   0  0  0  0  0  0  0  0  0  0  0  0
   47.6690   31.9600   48.2250 C   0  0  0  0  0  0  0  0  0  0  0  0
   47.1890   31.7360   46.7920 C   0  0  1  0  0  0  0  0  0  0  0  0
   43.7640   36.2510   45.3300 H   0  0  0  0  0  0  0  0  0  0  0  0
   46.6320   34.5090   42.7180 H   0  0  0  0  0  0  0  0  0  0  0  0
   44.9410   33.4020   48.3060 H   0  0  0  0  0  0  0  0  0  0  0  0
   44.4790   31.7540   48.0260 H   0  0  0  0  0  0  0  0  0  0  0  0
   46.1390   31.0160   49.3610 H   0  0  0  0  0  0  0  0  0  0  0  0
   46.3820   32.6850   49.8640 H   0  0  0  0  0  0  0  0  0  0  0  0
   48.2560   31.0870   48.5840 H   0  0  0  0  0  0  0  0  0  0  0  0
   48.2210   32.9220   48.3140 H   0  0  0  0  0  0  0  0  0  0  0  0
   47.9200   32.1080   46.0520 H   0  0  0  0  0  0  0  0  0  0  0  0
   44.8170   36.5040   42.9620 N   0  0  0  0  0  0  0  0  0  0  0  0
   43.8290   36.4310   42.6280 H   0  0  0  0  0  0  0  0  0  0  0  0
   45.4410   37.2700   42.6220 H   0  0  0  0  0  0  0  0  0  0  0  0
   46.6960   30.0400   46.6080 S   0  0  0  0  0  0  0  0  0  0  0  0
   45.5960   30.4730   43.4960 O   0  0  0  0  0  0  0  0  0  0  0  0
   44.9920   29.9370   44.4410 C   0  0  0  0  0  0  0  0  0  0  0  0
   45.1300   29.7360   45.9030 C   0  0  1  0  0  0  0  0  0  0  0  0
   44.6040   28.3330   46.0740 C   0  0  0  0  0  0  0  0  0  0  0  0
   43.2660   28.5340   45.3580 C   0  0  0  0  0  0  0  0  0  0  0  0
   43.7420   29.2560   44.1810 N   0  0  0  0  0  0  0  0  0  0  0  0
   44.2540   30.3500   46.2570 H   0  0  0  0  0  0  0  0  0  0  0  0
   45.1860   27.5870   45.5080 H   0  0  0  0  0  0  0  0  0  0  0  0
   44.4430   28.0660   47.1350 H   0  0  0  0  0  0  0  0  0  0  0  0
   42.8940   27.5320   45.1610 H   0  0  0  0  0  0  0  0  0  0  0  0
   42.5840   29.1600   45.9670 H   0  0  0  0  0  0  0  0  0  0  0  0
   41.5410   29.5700   43.1020 C   0  0  2  0  0  3  0  0  0  0  0  0
   42.9720   29.2370   42.9230 C   0  0  2  0  0  3  0  0  0  0  0  0
   43.0210   28.0250   42.2980 O   0  0  0  0  0  0  0  0  0  0  0  0
   41.8480   27.3410   42.4680 C   0  0  0  0  0  2  0  0  0  0  0  0
   40.7760   28.2830   42.8990 C   0  0  1  0  0  3  0  0  0  0  0  0
   41.1270   30.4290   42.0830 O   0  0  0  0  0  0  0  0  0  0  0  0
   41.5760   30.2280   41.2180 H   0  0  0  0  0  0  0  0  0  0  0  0
   40.1550   27.8770   44.0940 O   0  0  0  0  0  0  0  0  0  0  0  0
   40.4980   28.4210   44.8590 H   0  0  0  0  0  0  0  0  0  0  0  0
  1 12  1  0  0  0  0
  1  6  1  0  0  0  0
  2  1  2  0  0  0  0
  3  2  1  0  0  0  0
  3  4  2  0  0  0  0
  4  5  1  0  0  0  0
  5  6  2  0  0  0  0
  5  7  1  0  0  0  0
  7 11  1  0  0  0  0
  7  8  1  0  0  0  0
  8 15  1  0  0  0  0
  8 14  1  0  0  0  0
  8  9  1  0  0  0  0
  9 16  1  0  0  0  0
  9 17  1  0  0  0  0
 10 19  1  0  0  0  0
 10 18  1  0  0  0  0
 10  9  1  0  0  0  0
 11 20  1  6  0  0  0
 11 10  1  0  0  0  0
 13  3  1  0  0  0  0
 21  2  1  0  0  0  0
 22 21  1  0  0  0  0
 23 21  1  0  0  0  0
 24 11  1  0  0  0  0
 25 26  2  0  0  0  0
 26 27  1  0  0  0  0
 27 28  1  0  0  0  0
 27 31  1  1  0  0  0
 27 24  1  0  0  0  0
 28 33  1  0  0  0  0
 29 35  1  0  0  0  0
 29 28  1  0  0  0  0
 30 26  1  0  0  0  0
 30 29  1  0  0  0  0
 32 28  1  0  0  0  0
 34 29  1  0  0  0  0
 36 41  1  6  0  0  0
 37 36  1  0  0  0  0
 37 30  1  1  0  0  0
 38 39  1  0  0  0  0
 38 37  1  0  0  0  0
 39 40  1  0  0  0  0
 40 36  1  0  0  0  0
 40 43  1  1  0  0  0
 42 41  1  0  0  0  0
 43 44  1  0  0  0  0
M  END
>  <minimizedAffinity>
-5.72633791

>  <minimizedRMSD>
0.144940242

$$$$
