
 OpenBabel03252506363D

 44 47  0  0  1  0  0  0  0  0999 V2000
   44.5080   35.5210   45.1220 C   0  0  0  0  0  0  0  0  0  0  0  0
   45.1720   35.5080   43.8870 C   0  0  0  0  0  0  0  0  0  0  0  0
   46.1000   34.5560   43.6420 C   0  0  0  0  0  0  0  0  0  0  0  0
   46.3350   33.6530   44.6290 N   0  0  0  0  0  0  0  0  0  0  0  0
   45.7040   33.6700   45.7940 C   0  0  0  0  0  0  0  0  0  0  0  0
   44.7860   34.5980   46.0600 N   0  0  0  0  0  0  0  0  0  0  0  0
   46.0340   32.6680   46.7720 N   0  0  0  0  0  0  0  0  0  0  0  0
   45.2850   32.4240   47.9520 C   0  0  0  0  0  0  0  0  0  0  0  0
   46.3560   32.0900   48.9770 C   0  0  0  0  0  0  0  0  0  0  0  0
   47.6430   31.9910   48.2210 C   0  0  0  0  0  0  0  0  0  0  0  0
   47.1600   31.7660   46.7880 C   0  0  1  0  0  0  0  0  0  0  0  0
   43.7540   36.2940   45.3210 H   0  0  0  0  0  0  0  0  0  0  0  0
   46.6120   34.5340   42.7100 H   0  0  0  0  0  0  0  0  0  0  0  0
   44.9210   33.4450   48.3010 H   0  0  0  0  0  0  0  0  0  0  0  0
   44.4520   31.7990   48.0240 H   0  0  0  0  0  0  0  0  0  0  0  0
   46.1090   31.0560   49.3600 H   0  0  0  0  0  0  0  0  0  0  0  0
   46.3600   32.7250   49.8590 H   0  0  0  0  0  0  0  0  0  0  0  0
   48.2260   31.1160   48.5800 H   0  0  0  0  0  0  0  0  0  0  0  0
   48.1990   32.9500   48.3070 H   0  0  0  0  0  0  0  0  0  0  0  0
   47.8920   32.1330   46.0460 H   0  0  0  0  0  0  0  0  0  0  0  0
   44.8060   36.5380   42.9520 N   0  0  0  0  0  0  0  0  0  0  0  0
   43.8180   36.4690   42.6190 H   0  0  0  0  0  0  0  0  0  0  0  0
   45.4330   37.3010   42.6100 H   0  0  0  0  0  0  0  0  0  0  0  0
   46.6600   30.0720   46.6070 S   0  0  0  0  0  0  0  0  0  0  0  0
   45.7070   30.5580   43.4550 O   0  0  0  0  0  0  0  0  0  0  0  0
   45.0630   29.9990   44.3590 C   0  0  0  0  0  0  0  0  0  0  0  0
   45.1320   29.7710   45.8220 C   0  0  1  0  0  0  0  0  0  0  0  0
   44.6100   28.3600   45.9400 C   0  0  0  0  0  0  0  0  0  0  0  0
   43.3070   28.5670   45.1650 C   0  0  0  0  0  0  0  0  0  0  0  0
   43.8330   29.3150   44.0260 N   0  0  0  0  0  0  0  0  0  0  0  0
   44.2350   30.3710   46.1450 H   0  0  0  0  0  0  0  0  0  0  0  0
   45.2240   27.6300   45.3890 H   0  0  0  0  0  0  0  0  0  0  0  0
   44.4000   28.0720   46.9870 H   0  0  0  0  0  0  0  0  0  0  0  0
   42.9520   27.5660   44.9300 H   0  0  0  0  0  0  0  0  0  0  0  0
   42.5910   29.1750   45.7520 H   0  0  0  0  0  0  0  0  0  0  0  0
   43.8530   28.5940   41.6620 C   0  0  2  0  0  3  0  0  0  0  0  0
   43.1250   29.3140   42.7320 C   0  0  2  0  0  3  0  0  0  0  0  0
   42.8830   30.5730   42.2670 O   0  0  0  0  0  0  0  0  0  0  0  0
   43.7430   30.8930   41.2530 C   0  0  0  0  0  2  0  0  0  0  0  0
   44.3640   29.6520   40.7100 C   0  0  1  0  0  3  0  0  0  0  0  0
   42.9600   27.8130   40.9280 O   0  0  0  0  0  0  0  0  0  0  0  0
   42.0690   28.2490   40.8370 H   0  0  0  0  0  0  0  0  0  0  0  0
   45.7690   29.7030   40.7280 O   0  0  0  0  0  0  0  0  0  0  0  0
   46.1210   29.1630   41.4910 H   0  0  0  0  0  0  0  0  0  0  0  0
  1 12  1  0  0  0  0
  1  6  1  0  0  0  0
  2  1  2  0  0  0  0
  3  2  1  0  0  0  0
  3  4  2  0  0  0  0
  4  5  1  0  0  0  0
  5  6  2  0  0  0  0
  5  7  1  0  0  0  0
  7 11  1  0  0  0  0
  7  8  1  0  0  0  0
  8 15  1  0  0  0  0
  8 14  1  0  0  0  0
  8  9  1  0  0  0  0
  9 16  1  0  0  0  0
  9 17  1  0  0  0  0
 10 19  1  0  0  0  0
 10 18  1  0  0  0  0
 10  9  1  0  0  0  0
 11 20  1  6  0  0  0
 11 10  1  0  0  0  0
 13  3  1  0  0  0  0
 21  2  1  0  0  0  0
 22 21  1  0  0  0  0
 23 21  1  0  0  0  0
 24 11  1  0  0  0  0
 25 26  2  0  0  0  0
 26 27  1  0  0  0  0
 27 28  1  0  0  0  0
 27 31  1  1  0  0  0
 27 24  1  0  0  0  0
 28 33  1  0  0  0  0
 29 35  1  0  0  0  0
 29 28  1  0  0  0  0
 30 26  1  0  0  0  0
 30 29  1  0  0  0  0
 32 28  1  0  0  0  0
 34 29  1  0  0  0  0
 36 41  1  6  0  0  0
 36 37  1  0  0  0  0
 37 30  1  1  0  0  0
 38 37  1  0  0  0  0
 39 38  1  0  0  0  0
 40 43  1  1  0  0  0
 40 39  1  0  0  0  0
 40 36  1  0  0  0  0
 42 41  1  0  0  0  0
 43 44  1  0  0  0  0
M  END
>  <minimizedAffinity>
-5.13098192

>  <minimizedRMSD>
0.156444073

$$$$
