
 OpenBabel03252506373D

 44 47  0  0  1  0  0  0  0  0999 V2000
   44.5280   35.5050   45.1350 C   0  0  0  0  0  0  0  0  0  0  0  0
   45.1690   35.4800   43.8880 C   0  0  0  0  0  0  0  0  0  0  0  0
   46.0770   34.5120   43.6280 C   0  0  0  0  0  0  0  0  0  0  0  0
   46.3140   33.6060   44.6110 N   0  0  0  0  0  0  0  0  0  0  0  0
   45.7040   33.6340   45.7870 C   0  0  0  0  0  0  0  0  0  0  0  0
   44.8070   34.5780   46.0680 N   0  0  0  0  0  0  0  0  0  0  0  0
   46.0350   32.6270   46.7590 N   0  0  0  0  0  0  0  0  0  0  0  0
   45.3030   32.3960   47.9530 C   0  0  0  0  0  0  0  0  0  0  0  0
   46.3860   32.0440   48.9590 C   0  0  0  0  0  0  0  0  0  0  0  0
   47.6570   31.9230   48.1800 C   0  0  0  0  0  0  0  0  0  0  0  0
   47.1450   31.7060   46.7560 C   0  0  1  0  0  0  0  0  0  0  0  0
   43.7910   36.2900   45.3470 H   0  0  0  0  0  0  0  0  0  0  0  0
   46.5710   34.4810   42.6860 H   0  0  0  0  0  0  0  0  0  0  0  0
   44.9620   33.4230   48.3080 H   0  0  0  0  0  0  0  0  0  0  0  0
   44.4600   31.7860   48.0400 H   0  0  0  0  0  0  0  0  0  0  0  0
   46.1290   31.0150   49.3460 H   0  0  0  0  0  0  0  0  0  0  0  0
   46.4160   32.6800   49.8400 H   0  0  0  0  0  0  0  0  0  0  0  0
   48.2320   31.0390   48.5290 H   0  0  0  0  0  0  0  0  0  0  0  0
   48.2310   32.8730   48.2560 H   0  0  0  0  0  0  0  0  0  0  0  0
   47.8700   32.0610   46.0010 H   0  0  0  0  0  0  0  0  0  0  0  0
   44.8050   36.5160   42.9590 N   0  0  0  0  0  0  0  0  0  0  0  0
   43.8090   36.4640   42.6440 H   0  0  0  0  0  0  0  0  0  0  0  0
   45.4380   37.2680   42.6060 H   0  0  0  0  0  0  0  0  0  0  0  0
   46.6130   30.0210   46.5850 S   0  0  0  0  0  0  0  0  0  0  0  0
   45.5860   30.2030   43.4240 O   0  0  0  0  0  0  0  0  0  0  0  0
   44.9350   29.8060   44.4070 C   0  0  0  0  0  0  0  0  0  0  0  0
   45.0400   29.7480   45.8840 C   0  0  1  0  0  0  0  0  0  0  0  0
   44.4200   28.4060   46.1850 C   0  0  0  0  0  0  0  0  0  0  0  0
   43.1080   28.6200   45.4260 C   0  0  0  0  0  0  0  0  0  0  0  0
   43.6470   29.1850   44.1910 N   0  0  0  0  0  0  0  0  0  0  0  0
   44.2020   30.4500   46.1560 H   0  0  0  0  0  0  0  0  0  0  0  0
   44.9580   27.5700   45.7100 H   0  0  0  0  0  0  0  0  0  0  0  0
   44.2270   28.2610   47.2640 H   0  0  0  0  0  0  0  0  0  0  0  0
   42.6720   27.6280   45.3240 H   0  0  0  0  0  0  0  0  0  0  0  0
   42.4610   29.3470   45.9540 H   0  0  0  0  0  0  0  0  0  0  0  0
   41.4250   29.0700   43.1140 C   0  0  2  0  0  3  0  0  0  0  0  0
   42.8940   29.0860   42.9270 C   0  0  2  0  0  3  0  0  0  0  0  0
   43.2150   27.9680   42.2130 O   0  0  0  0  0  0  0  0  0  0  0  0
   42.2300   27.0230   42.3170 C   0  0  0  0  0  2  0  0  0  0  0  0
   40.9730   27.6600   42.8060 C   0  0  1  0  0  3  0  0  0  0  0  0
   40.8200   29.8860   42.1580 O   0  0  0  0  0  0  0  0  0  0  0  0
   41.2980   29.8580   41.2850 H   0  0  0  0  0  0  0  0  0  0  0  0
   40.4690   27.0340   43.9590 O   0  0  0  0  0  0  0  0  0  0  0  0
   40.6830   27.5830   44.7670 H   0  0  0  0  0  0  0  0  0  0  0  0
  1 12  1  0  0  0  0
  1  6  1  0  0  0  0
  2  1  2  0  0  0  0
  3  2  1  0  0  0  0
  3  4  2  0  0  0  0
  4  5  1  0  0  0  0
  5  6  2  0  0  0  0
  5  7  1  0  0  0  0
  7  8  1  0  0  0  0
  8 15  1  0  0  0  0
  8 14  1  0  0  0  0
  8  9  1  0  0  0  0
  9 16  1  0  0  0  0
  9 17  1  0  0  0  0
 10 19  1  0  0  0  0
 10 18  1  0  0  0  0
 10  9  1  0  0  0  0
 11 20  1  6  0  0  0
 11  7  1  0  0  0  0
 11 10  1  0  0  0  0
 13  3  1  0  0  0  0
 21  2  1  0  0  0  0
 22 21  1  0  0  0  0
 23 21  1  0  0  0  0
 24 11  1  0  0  0  0
 25 26  2  0  0  0  0
 26 27  1  0  0  0  0
 27 31  1  1  0  0  0
 27 28  1  0  0  0  0
 27 24  1  0  0  0  0
 28 33  1  0  0  0  0
 29 35  1  0  0  0  0
 29 28  1  0  0  0  0
 30 26  1  0  0  0  0
 30 29  1  0  0  0  0
 32 28  1  0  0  0  0
 34 29  1  0  0  0  0
 36 41  1  6  0  0  0
 37 36  1  0  0  0  0
 37 30  1  1  0  0  0
 38 39  1  0  0  0  0
 38 37  1  0  0  0  0
 39 40  1  0  0  0  0
 40 36  1  0  0  0  0
 40 43  1  1  0  0  0
 42 41  1  0  0  0  0
 43 44  1  0  0  0  0
M  END
>  <minimizedAffinity>
-5.66396046

>  <minimizedRMSD>
0.422510415

$$$$
