
 OpenBabel03252504223D

 32 35  0  0  1  0  0  0  0  0999 V2000
   47.9320   33.2500   40.2310 C   0  0  0  0  0  0  0  0  0  0  0  0
   49.2720   32.9530   40.5350 C   0  0  0  0  0  0  0  0  0  0  0  0
   49.6980   33.0590   41.8810 C   0  0  0  0  0  0  0  0  0  0  0  0
   48.7550   33.4480   42.7900 N   0  0  0  0  0  0  0  0  0  0  0  0
   47.4790   33.7240   42.4610 C   0  0  0  0  0  0  0  0  0  0  0  0
   47.0900   33.6210   41.1910 N   0  0  0  0  0  0  0  0  0  0  0  0
   46.5620   34.1230   43.4790 N   0  0  0  0  0  0  0  0  0  0  0  0
   45.6670   35.1210   43.4190 C   0  0  0  0  0  0  0  0  0  0  0  0
   44.9920   35.1630   44.5980 N   0  0  0  0  0  0  0  0  0  0  0  0
   45.4960   34.1780   45.3640 C   0  0  0  0  0  0  0  0  0  0  0  0
   45.2240   33.7330   46.6400 C   0  0  0  0  0  0  0  0  0  0  0  0
   45.8790   32.7140   47.1830 N   0  0  0  0  0  0  0  0  0  0  0  0
   46.8530   32.0480   46.5250 C   0  0  0  0  0  0  0  0  0  0  0  0
   47.1110   32.4900   45.2820 N   0  0  0  0  0  0  0  0  0  0  0  0
   46.4830   33.5090   44.6850 C   0  0  0  0  0  0  0  0  0  0  0  0
   50.0400   32.6450   39.8450 H   0  0  0  0  0  0  0  0  0  0  0  0
   50.7140   32.8450   42.1780 H   0  0  0  0  0  0  0  0  0  0  0  0
   45.4700   35.8030   42.6040 H   0  0  0  0  0  0  0  0  0  0  0  0
   47.3760   31.2180   46.9860 H   0  0  0  0  0  0  0  0  0  0  0  0
   44.2300   34.3360   47.4450 N   0  0  0  0  0  0  0  0  0  0  0  0
   43.7260   33.8490   48.2080 H   0  0  0  0  0  0  0  0  0  0  0  0
   43.9380   35.3430   47.3090 H   0  0  0  0  0  0  0  0  0  0  0  0
   47.5320   33.0900   38.4910 S   0  0  0  0  0  0  0  0  0  0  0  0
   45.2330   32.7910   36.9910 C   0  0  1  0  0  0  0  0  0  0  0  0
   45.8080   32.6340   38.3760 C   0  0  1  0  0  0  0  0  0  0  0  0
   45.5790   31.2950   38.6580 O   0  0  0  0  0  0  0  0  0  0  0  0
   44.3540   30.9590   38.1600 C   0  0  0  0  0  0  0  0  0  0  0  0
   43.9780   31.9550   37.1040 C   0  0  2  0  0  0  0  0  0  0  0  0
   44.9520   34.1060   36.6480 O   0  0  0  0  0  0  0  0  0  0  0  0
   43.9540   34.1890   36.5320 H   0  0  0  0  0  0  0  0  0  0  0  0
   43.6510   31.3450   35.8930 O   0  0  0  0  0  0  0  0  0  0  0  0
   42.7740   30.8980   36.0180 H   0  0  0  0  0  0  0  0  0  0  0  0
  1  2  2  0  0  0  0
  1  6  1  0  0  0  0
  2  3  1  0  0  0  0
  3 17  1  0  0  0  0
  3  4  2  0  0  0  0
  5  4  1  0  0  0  0
  5  7  1  0  0  0  0
  6  5  2  0  0  0  0
  7 15  1  0  0  0  0
  8  7  1  0  0  0  0
  8  9  2  0  0  0  0
  9 10  1  0  0  0  0
 10 11  1  0  0  0  0
 11 12  2  0  0  0  0
 11 20  1  0  0  0  0
 13 19  1  0  0  0  0
 13 12  1  0  0  0  0
 14 13  2  0  0  0  0
 15 14  1  0  0  0  0
 15 10  2  0  0  0  0
 16  2  1  0  0  0  0
 18  8  1  0  0  0  0
 20 21  1  0  0  0  0
 22 20  1  0  0  0  0
 23  1  1  0  0  0  0
 24 29  1  1  0  0  0
 24 28  1  0  0  0  0
 24 25  1  0  0  0  0
 25 23  1  6  0  0  0
 25 26  1  0  0  0  0
 27 26  1  0  0  0  0
 28 31  1  6  0  0  0
 28 27  1  0  0  0  0
 30 29  1  0  0  0  0
 31 32  1  0  0  0  0
M  END
>  <minimizedAffinity>
-6.27663279

>  <minimizedRMSD>
0.922219515

$$$$
