
 OpenBabel03252506373D

 44 47  0  0  1  0  0  0  0  0999 V2000
   44.5060   35.5640   45.1190 C   0  0  0  0  0  0  0  0  0  0  0  0
   45.1530   35.5470   43.8750 C   0  0  0  0  0  0  0  0  0  0  0  0
   46.0650   34.5830   43.6150 C   0  0  0  0  0  0  0  0  0  0  0  0
   46.3010   33.6740   44.5950 N   0  0  0  0  0  0  0  0  0  0  0  0
   45.6860   33.6950   45.7680 C   0  0  0  0  0  0  0  0  0  0  0  0
   44.7840   34.6340   46.0500 N   0  0  0  0  0  0  0  0  0  0  0  0
   46.0160   32.6860   46.7390 N   0  0  0  0  0  0  0  0  0  0  0  0
   45.2790   32.4480   47.9280 C   0  0  0  0  0  0  0  0  0  0  0  0
   46.3590   32.0950   48.9380 C   0  0  0  0  0  0  0  0  0  0  0  0
   47.6340   31.9820   48.1630 C   0  0  0  0  0  0  0  0  0  0  0  0
   47.1300   31.7680   46.7360 C   0  0  1  0  0  0  0  0  0  0  0  0
   43.7650   36.3460   45.3310 H   0  0  0  0  0  0  0  0  0  0  0  0
   46.5640   34.5580   42.6750 H   0  0  0  0  0  0  0  0  0  0  0  0
   44.9340   33.4720   48.2850 H   0  0  0  0  0  0  0  0  0  0  0  0
   44.4390   31.8340   48.0100 H   0  0  0  0  0  0  0  0  0  0  0  0
   46.1040   31.0630   49.3200 H   0  0  0  0  0  0  0  0  0  0  0  0
   46.3840   32.7270   49.8220 H   0  0  0  0  0  0  0  0  0  0  0  0
   48.2100   31.0980   48.5120 H   0  0  0  0  0  0  0  0  0  0  0  0
   48.2050   32.9340   48.2460 H   0  0  0  0  0  0  0  0  0  0  0  0
   47.8560   32.1290   45.9860 H   0  0  0  0  0  0  0  0  0  0  0  0
   44.7890   36.5850   42.9480 N   0  0  0  0  0  0  0  0  0  0  0  0
   43.7950   36.5300   42.6280 H   0  0  0  0  0  0  0  0  0  0  0  0
   45.4210   37.3400   42.6010 H   0  0  0  0  0  0  0  0  0  0  0  0
   46.6040   30.0820   46.5570 S   0  0  0  0  0  0  0  0  0  0  0  0
   45.7990   30.5640   43.3630 O   0  0  0  0  0  0  0  0  0  0  0  0
   45.1080   30.0200   44.2410 C   0  0  0  0  0  0  0  0  0  0  0  0
   45.1080   29.7990   45.7070 C   0  0  1  0  0  0  0  0  0  0  0  0
   44.5610   28.3970   45.8080 C   0  0  0  0  0  0  0  0  0  0  0  0
   43.2960   28.6170   44.9750 C   0  0  0  0  0  0  0  0  0  0  0  0
   43.8830   29.3510   43.8570 N   0  0  0  0  0  0  0  0  0  0  0  0
   44.2070   30.4130   45.9870 H   0  0  0  0  0  0  0  0  0  0  0  0
   45.1880   27.6540   45.2880 H   0  0  0  0  0  0  0  0  0  0  0  0
   44.3010   28.1180   46.8460 H   0  0  0  0  0  0  0  0  0  0  0  0
   42.9380   27.6200   44.7300 H   0  0  0  0  0  0  0  0  0  0  0  0
   42.5640   29.2390   45.5270 H   0  0  0  0  0  0  0  0  0  0  0  0
   43.5890   30.5280   41.7030 C   0  0  2  0  0  3  0  0  0  0  0  0
   43.2330   29.3540   42.5330 C   0  0  2  0  0  3  0  0  0  0  0  0
   41.8730   29.3270   42.6170 O   0  0  0  0  0  0  0  0  0  0  0  0
   41.3420   30.5590   42.3480 C   0  0  0  0  0  2  0  0  0  0  0  0
   42.3560   31.4010   41.6540 C   0  0  1  0  0  3  0  0  0  0  0  0
   43.8280   30.1220   40.3910 O   0  0  0  0  0  0  0  0  0  0  0  0
   43.2330   29.3730   40.1160 H   0  0  0  0  0  0  0  0  0  0  0  0
   42.5810   32.6220   42.3130 O   0  0  0  0  0  0  0  0  0  0  0  0
   43.4370   32.5800   42.8260 H   0  0  0  0  0  0  0  0  0  0  0  0
  1 12  1  0  0  0  0
  1  6  1  0  0  0  0
  2  1  2  0  0  0  0
  3  2  1  0  0  0  0
  3  4  2  0  0  0  0
  4  5  1  0  0  0  0
  5  6  2  0  0  0  0
  5  7  1  0  0  0  0
  7  8  1  0  0  0  0
  8 15  1  0  0  0  0
  8 14  1  0  0  0  0
  8  9  1  0  0  0  0
  9 16  1  0  0  0  0
  9 17  1  0  0  0  0
 10 19  1  0  0  0  0
 10 18  1  0  0  0  0
 10  9  1  0  0  0  0
 11 20  1  6  0  0  0
 11  7  1  0  0  0  0
 11 10  1  0  0  0  0
 13  3  1  0  0  0  0
 21  2  1  0  0  0  0
 22 21  1  0  0  0  0
 23 21  1  0  0  0  0
 24 11  1  0  0  0  0
 25 26  2  0  0  0  0
 26 27  1  0  0  0  0
 27 28  1  0  0  0  0
 27 31  1  1  0  0  0
 27 24  1  0  0  0  0
 28 33  1  0  0  0  0
 29 35  1  0  0  0  0
 29 28  1  0  0  0  0
 30 26  1  0  0  0  0
 30 29  1  0  0  0  0
 32 28  1  0  0  0  0
 34 29  1  0  0  0  0
 36 41  1  6  0  0  0
 36 37  1  0  0  0  0
 37 38  1  0  0  0  0
 37 30  1  1  0  0  0
 39 38  1  0  0  0  0
 40 36  1  0  0  0  0
 40 43  1  1  0  0  0
 40 39  1  0  0  0  0
 42 41  1  0  0  0  0
 43 44  1  0  0  0  0
M  END
>  <minimizedAffinity>
-5.78635216

>  <minimizedRMSD>
0.33556667

$$$$
