
 OpenBabel03252506363D

 44 47  0  0  1  0  0  0  0  0999 V2000
   44.5080   35.5400   45.1200 C   0  0  0  0  0  0  0  0  0  0  0  0
   45.1690   35.5180   43.8830 C   0  0  0  0  0  0  0  0  0  0  0  0
   46.0880   34.5580   43.6390 C   0  0  0  0  0  0  0  0  0  0  0  0
   46.3190   33.6560   44.6280 N   0  0  0  0  0  0  0  0  0  0  0  0
   45.6910   33.6820   45.7940 C   0  0  0  0  0  0  0  0  0  0  0  0
   44.7810   34.6180   46.0600 N   0  0  0  0  0  0  0  0  0  0  0  0
   46.0160   32.6800   46.7750 N   0  0  0  0  0  0  0  0  0  0  0  0
   45.2690   32.4460   47.9580 C   0  0  0  0  0  0  0  0  0  0  0  0
   46.3400   32.1060   48.9810 C   0  0  0  0  0  0  0  0  0  0  0  0
   47.6240   31.9950   48.2210 C   0  0  0  0  0  0  0  0  0  0  0  0
   47.1350   31.7690   46.7900 C   0  0  1  0  0  0  0  0  0  0  0  0
   43.7610   36.3190   45.3190 H   0  0  0  0  0  0  0  0  0  0  0  0
   46.5970   34.5290   42.7050 H   0  0  0  0  0  0  0  0  0  0  0  0
   44.9140   33.4710   48.3050 H   0  0  0  0  0  0  0  0  0  0  0  0
   44.4310   31.8280   48.0340 H   0  0  0  0  0  0  0  0  0  0  0  0
   46.0860   31.0760   49.3670 H   0  0  0  0  0  0  0  0  0  0  0  0
   46.3520   32.7440   49.8610 H   0  0  0  0  0  0  0  0  0  0  0  0
   48.2010   31.1170   48.5820 H   0  0  0  0  0  0  0  0  0  0  0  0
   48.1880   32.9500   48.3030 H   0  0  0  0  0  0  0  0  0  0  0  0
   47.8680   32.1290   46.0450 H   0  0  0  0  0  0  0  0  0  0  0  0
   44.8080   36.5480   42.9460 N   0  0  0  0  0  0  0  0  0  0  0  0
   43.8180   36.4860   42.6160 H   0  0  0  0  0  0  0  0  0  0  0  0
   45.4400   37.3050   42.6000 H   0  0  0  0  0  0  0  0  0  0  0  0
   46.6210   30.0790   46.6160 S   0  0  0  0  0  0  0  0  0  0  0  0
   45.8330   30.5360   43.4140 O   0  0  0  0  0  0  0  0  0  0  0  0
   45.1380   29.9940   44.2920 C   0  0  0  0  0  0  0  0  0  0  0  0
   45.1320   29.7820   45.7590 C   0  0  1  0  0  0  0  0  0  0  0  0
   44.5900   28.3780   45.8670 C   0  0  0  0  0  0  0  0  0  0  0  0
   43.3300   28.5870   45.0250 C   0  0  0  0  0  0  0  0  0  0  0  0
   43.9200   29.3170   43.9050 N   0  0  0  0  0  0  0  0  0  0  0  0
   44.2260   30.3940   46.0290 H   0  0  0  0  0  0  0  0  0  0  0  0
   45.2240   27.6350   45.3560 H   0  0  0  0  0  0  0  0  0  0  0  0
   44.3260   28.1050   46.9050 H   0  0  0  0  0  0  0  0  0  0  0  0
   42.9780   27.5870   44.7840 H   0  0  0  0  0  0  0  0  0  0  0  0
   42.5910   29.2090   45.5680 H   0  0  0  0  0  0  0  0  0  0  0  0
   42.7040   30.6160   42.1900 C   0  0  2  0  0  3  0  0  0  0  0  0
   43.2770   29.3070   42.5780 C   0  0  2  0  0  3  0  0  0  0  0  0
   42.2700   28.3920   42.4900 O   0  0  0  0  0  0  0  0  0  0  0  0
   41.0470   29.0040   42.5460 C   0  0  0  0  0  2  0  0  0  0  0  0
   41.2020   30.4590   42.2630 C   0  0  1  0  0  3  0  0  0  0  0  0
   43.0000   30.8820   40.8530 O   0  0  0  0  0  0  0  0  0  0  0  0
   42.9980   30.0560   40.2970 H   0  0  0  0  0  0  0  0  0  0  0  0
   40.6650   31.2650   43.2820 O   0  0  0  0  0  0  0  0  0  0  0  0
   41.4000   31.6250   43.8560 H   0  0  0  0  0  0  0  0  0  0  0  0
  1 12  1  0  0  0  0
  1  6  1  0  0  0  0
  2  1  2  0  0  0  0
  3  2  1  0  0  0  0
  3  4  2  0  0  0  0
  4  5  1  0  0  0  0
  5  6  2  0  0  0  0
  5  7  1  0  0  0  0
  7 11  1  0  0  0  0
  7  8  1  0  0  0  0
  8 15  1  0  0  0  0
  8 14  1  0  0  0  0
  8  9  1  0  0  0  0
  9 16  1  0  0  0  0
  9 17  1  0  0  0  0
 10 19  1  0  0  0  0
 10 18  1  0  0  0  0
 10  9  1  0  0  0  0
 11 20  1  6  0  0  0
 11 10  1  0  0  0  0
 13  3  1  0  0  0  0
 21  2  1  0  0  0  0
 22 21  1  0  0  0  0
 23 21  1  0  0  0  0
 24 11  1  0  0  0  0
 25 26  2  0  0  0  0
 26 27  1  0  0  0  0
 27 28  1  0  0  0  0
 27 31  1  1  0  0  0
 27 24  1  0  0  0  0
 28 33  1  0  0  0  0
 29 35  1  0  0  0  0
 29 28  1  0  0  0  0
 30 26  1  0  0  0  0
 30 29  1  0  0  0  0
 32 28  1  0  0  0  0
 34 29  1  0  0  0  0
 36 41  1  6  0  0  0
 36 40  1  0  0  0  0
 36 37  1  0  0  0  0
 37 30  1  1  0  0  0
 38 39  1  0  0  0  0
 38 37  1  0  0  0  0
 40 39  1  0  0  0  0
 40 43  1  1  0  0  0
 42 41  1  0  0  0  0
 43 44  1  0  0  0  0
M  END
>  <minimizedAffinity>
-5.87084293

>  <minimizedRMSD>
0.315017462

$$$$
