
 OpenBabel03252506363D

 44 47  0  0  1  0  0  0  0  0999 V2000
   44.5050   35.5070   45.1140 C   0  0  0  0  0  0  0  0  0  0  0  0
   45.1770   35.4980   43.8830 C   0  0  0  0  0  0  0  0  0  0  0  0
   46.1120   34.5510   43.6440 C   0  0  0  0  0  0  0  0  0  0  0  0
   46.3460   33.6500   44.6320 N   0  0  0  0  0  0  0  0  0  0  0  0
   45.7080   33.6630   45.7930 C   0  0  0  0  0  0  0  0  0  0  0  0
   44.7830   34.5850   46.0530 N   0  0  0  0  0  0  0  0  0  0  0  0
   46.0380   32.6630   46.7730 N   0  0  0  0  0  0  0  0  0  0  0  0
   45.2830   32.4140   47.9480 C   0  0  0  0  0  0  0  0  0  0  0  0
   46.3500   32.0860   48.9800 C   0  0  0  0  0  0  0  0  0  0  0  0
   47.6420   31.9940   48.2320 C   0  0  0  0  0  0  0  0  0  0  0  0
   47.1700   31.7670   46.7960 C   0  0  1  0  0  0  0  0  0  0  0  0
   43.7460   36.2750   45.3090 H   0  0  0  0  0  0  0  0  0  0  0  0
   46.6300   34.5330   42.7150 H   0  0  0  0  0  0  0  0  0  0  0  0
   44.9110   33.4320   48.2950 H   0  0  0  0  0  0  0  0  0  0  0  0
   44.4530   31.7840   48.0150 H   0  0  0  0  0  0  0  0  0  0  0  0
   46.1070   31.0500   49.3610 H   0  0  0  0  0  0  0  0  0  0  0  0
   46.3440   32.7210   49.8620 H   0  0  0  0  0  0  0  0  0  0  0  0
   48.2280   31.1240   48.5950 H   0  0  0  0  0  0  0  0  0  0  0  0
   48.1920   32.9580   48.3220 H   0  0  0  0  0  0  0  0  0  0  0  0
   47.9040   32.1390   46.0590 H   0  0  0  0  0  0  0  0  0  0  0  0
   44.8110   36.5260   42.9460 N   0  0  0  0  0  0  0  0  0  0  0  0
   43.8250   36.4510   42.6060 H   0  0  0  0  0  0  0  0  0  0  0  0
   45.4350   37.2920   42.6080 H   0  0  0  0  0  0  0  0  0  0  0  0
   46.6810   30.0710   46.6120 S   0  0  0  0  0  0  0  0  0  0  0  0
   45.6830   30.5900   43.4780 O   0  0  0  0  0  0  0  0  0  0  0  0
   45.0570   30.0100   44.3830 C   0  0  0  0  0  0  0  0  0  0  0  0
   45.1470   29.7610   45.8410 C   0  0  1  0  0  0  0  0  0  0  0  0
   44.6440   28.3430   45.9450 C   0  0  0  0  0  0  0  0  0  0  0  0
   43.3290   28.5430   45.1880 C   0  0  0  0  0  0  0  0  0  0  0  0
   43.8320   29.3140   44.0540 N   0  0  0  0  0  0  0  0  0  0  0  0
   44.2470   30.3450   46.1840 H   0  0  0  0  0  0  0  0  0  0  0  0
   45.2610   27.6280   45.3760 H   0  0  0  0  0  0  0  0  0  0  0  0
   44.4510   28.0370   46.9900 H   0  0  0  0  0  0  0  0  0  0  0  0
   42.9840   27.5420   44.9440 H   0  0  0  0  0  0  0  0  0  0  0  0
   42.6130   29.1340   45.7930 H   0  0  0  0  0  0  0  0  0  0  0  0
   43.7670   30.1450   41.7270 C   0  0  2  0  0  3  0  0  0  0  0  0
   43.1080   29.3240   42.7690 C   0  0  2  0  0  3  0  0  0  0  0  0
   41.8310   29.7870   42.8900 O   0  0  0  0  0  0  0  0  0  0  0  0
   41.7270   31.0630   42.4100 C   0  0  0  0  0  2  0  0  0  0  0  0
   42.9020   31.3720   41.5460 C   0  0  1  0  0  3  0  0  0  0  0  0
   43.7380   29.4690   40.5070 O   0  0  0  0  0  0  0  0  0  0  0  0
   42.9030   28.9390   40.3920 H   0  0  0  0  0  0  0  0  0  0  0  0
   43.5840   32.5280   41.9610 O   0  0  0  0  0  0  0  0  0  0  0  0
   44.4160   32.2760   42.4530 H   0  0  0  0  0  0  0  0  0  0  0  0
  1 12  1  0  0  0  0
  1  6  1  0  0  0  0
  2  1  2  0  0  0  0
  3  2  1  0  0  0  0
  3  4  2  0  0  0  0
  4  5  1  0  0  0  0
  5  6  2  0  0  0  0
  5  7  1  0  0  0  0
  7 11  1  0  0  0  0
  7  8  1  0  0  0  0
  8 15  1  0  0  0  0
  8 14  1  0  0  0  0
  8  9  1  0  0  0  0
  9 16  1  0  0  0  0
  9 17  1  0  0  0  0
 10 19  1  0  0  0  0
 10 18  1  0  0  0  0
 10  9  1  0  0  0  0
 11 20  1  6  0  0  0
 11 10  1  0  0  0  0
 13  3  1  0  0  0  0
 21  2  1  0  0  0  0
 22 21  1  0  0  0  0
 23 21  1  0  0  0  0
 24 11  1  0  0  0  0
 25 26  2  0  0  0  0
 26 27  1  0  0  0  0
 27 28  1  0  0  0  0
 27 31  1  1  0  0  0
 27 24  1  0  0  0  0
 28 33  1  0  0  0  0
 29 35  1  0  0  0  0
 29 28  1  0  0  0  0
 30 26  1  0  0  0  0
 30 29  1  0  0  0  0
 32 28  1  0  0  0  0
 34 29  1  0  0  0  0
 36 41  1  6  0  0  0
 36 37  1  0  0  0  0
 37 38  1  0  0  0  0
 37 30  1  1  0  0  0
 39 38  1  0  0  0  0
 40 36  1  0  0  0  0
 40 43  1  1  0  0  0
 40 39  1  0  0  0  0
 42 41  1  0  0  0  0
 43 44  1  0  0  0  0
M  END
>  <minimizedAffinity>
-5.56882286

>  <minimizedRMSD>
0.0904886201

$$$$
