
 OpenBabel03252506363D

 44 47  0  0  1  0  0  0  0  0999 V2000
   44.5110   35.5280   45.1300 C   0  0  0  0  0  0  0  0  0  0  0  0
   45.1680   35.5140   43.8900 C   0  0  0  0  0  0  0  0  0  0  0  0
   46.0900   34.5590   43.6380 C   0  0  0  0  0  0  0  0  0  0  0  0
   46.3260   33.6520   44.6210 N   0  0  0  0  0  0  0  0  0  0  0  0
   45.7030   33.6700   45.7900 C   0  0  0  0  0  0  0  0  0  0  0  0
   44.7910   34.6010   46.0640 N   0  0  0  0  0  0  0  0  0  0  0  0
   46.0350   32.6640   46.7630 N   0  0  0  0  0  0  0  0  0  0  0  0
   45.2920   32.4200   47.9480 C   0  0  0  0  0  0  0  0  0  0  0  0
   46.3680   32.0780   48.9650 C   0  0  0  0  0  0  0  0  0  0  0  0
   47.6490   31.9750   48.2000 C   0  0  0  0  0  0  0  0  0  0  0  0
   47.1570   31.7560   46.7690 C   0  0  1  0  0  0  0  0  0  0  0  0
   43.7630   36.3030   45.3360 H   0  0  0  0  0  0  0  0  0  0  0  0
   46.5950   34.5370   42.7020 H   0  0  0  0  0  0  0  0  0  0  0  0
   44.9350   33.4420   48.3010 H   0  0  0  0  0  0  0  0  0  0  0  0
   44.4560   31.7990   48.0240 H   0  0  0  0  0  0  0  0  0  0  0  0
   46.1190   31.0440   49.3460 H   0  0  0  0  0  0  0  0  0  0  0  0
   46.3810   32.7110   49.8480 H   0  0  0  0  0  0  0  0  0  0  0  0
   48.2310   31.0970   48.5540 H   0  0  0  0  0  0  0  0  0  0  0  0
   48.2110   32.9320   48.2850 H   0  0  0  0  0  0  0  0  0  0  0  0
   47.8860   32.1220   46.0240 H   0  0  0  0  0  0  0  0  0  0  0  0
   44.8010   36.5490   42.9600 N   0  0  0  0  0  0  0  0  0  0  0  0
   43.8100   36.4850   42.6340 H   0  0  0  0  0  0  0  0  0  0  0  0
   45.4290   37.3090   42.6170 H   0  0  0  0  0  0  0  0  0  0  0  0
   46.6470   30.0650   46.5880 S   0  0  0  0  0  0  0  0  0  0  0  0
   45.6950   30.6090   43.4450 O   0  0  0  0  0  0  0  0  0  0  0  0
   45.0530   30.0290   44.3380 C   0  0  0  0  0  0  0  0  0  0  0  0
   45.1210   29.7720   45.7960 C   0  0  1  0  0  0  0  0  0  0  0  0
   44.6060   28.3570   45.8850 C   0  0  0  0  0  0  0  0  0  0  0  0
   43.3020   28.5720   45.1130 C   0  0  0  0  0  0  0  0  0  0  0  0
   43.8260   29.3460   43.9900 N   0  0  0  0  0  0  0  0  0  0  0  0
   44.2210   30.3610   46.1300 H   0  0  0  0  0  0  0  0  0  0  0  0
   45.2240   27.6410   45.3200 H   0  0  0  0  0  0  0  0  0  0  0  0
   44.3970   28.0470   46.9260 H   0  0  0  0  0  0  0  0  0  0  0  0
   42.9530   27.5750   44.8580 H   0  0  0  0  0  0  0  0  0  0  0  0
   42.5830   29.1660   45.7110 H   0  0  0  0  0  0  0  0  0  0  0  0
   43.5690   30.4560   41.7960 C   0  0  2  0  0  3  0  0  0  0  0  0
   43.1190   29.3680   42.6950 C   0  0  2  0  0  3  0  0  0  0  0  0
   41.7690   29.5050   42.8370 O   0  0  0  0  0  0  0  0  0  0  0  0
   41.3740   30.7780   42.5320 C   0  0  0  0  0  2  0  0  0  0  0  0
   42.4450   31.4650   41.7560 C   0  0  1  0  0  3  0  0  0  0  0  0
   43.6970   29.9690   40.4960 O   0  0  0  0  0  0  0  0  0  0  0  0
   43.0080   29.2830   40.2820 H   0  0  0  0  0  0  0  0  0  0  0  0
   42.8400   32.6780   42.3460 O   0  0  0  0  0  0  0  0  0  0  0  0
   43.7090   32.5560   42.8250 H   0  0  0  0  0  0  0  0  0  0  0  0
  1 12  1  0  0  0  0
  1  6  1  0  0  0  0
  2  1  2  0  0  0  0
  3  2  1  0  0  0  0
  3  4  2  0  0  0  0
  4  5  1  0  0  0  0
  5  6  2  0  0  0  0
  5  7  1  0  0  0  0
  7 11  1  0  0  0  0
  7  8  1  0  0  0  0
  8 15  1  0  0  0  0
  8 14  1  0  0  0  0
  8  9  1  0  0  0  0
  9 16  1  0  0  0  0
  9 17  1  0  0  0  0
 10 19  1  0  0  0  0
 10 18  1  0  0  0  0
 10  9  1  0  0  0  0
 11 20  1  6  0  0  0
 11 10  1  0  0  0  0
 13  3  1  0  0  0  0
 21  2  1  0  0  0  0
 22 21  1  0  0  0  0
 23 21  1  0  0  0  0
 24 11  1  0  0  0  0
 25 26  2  0  0  0  0
 26 27  1  0  0  0  0
 27 28  1  0  0  0  0
 27 31  1  1  0  0  0
 27 24  1  0  0  0  0
 28 33  1  0  0  0  0
 29 35  1  0  0  0  0
 29 28  1  0  0  0  0
 30 26  1  0  0  0  0
 30 29  1  0  0  0  0
 32 28  1  0  0  0  0
 34 29  1  0  0  0  0
 36 41  1  6  0  0  0
 36 37  1  0  0  0  0
 37 38  1  0  0  0  0
 37 30  1  1  0  0  0
 39 38  1  0  0  0  0
 40 36  1  0  0  0  0
 40 43  1  1  0  0  0
 40 39  1  0  0  0  0
 42 41  1  0  0  0  0
 43 44  1  0  0  0  0
M  END
>  <minimizedAffinity>
-5.84933472

>  <minimizedRMSD>
0.97520411

$$$$
