
 OpenBabel03242515343D

 28 30  0  0  1  0  0  0  0  0999 V2000
   41.8360   32.9020   37.2960 C   0  0  0  0  0  0  0  0  0  0  0  0
   42.7840   33.8690   37.7070 C   0  0  0  0  0  0  0  0  0  0  0  0
   42.9090   34.1180   39.0970 C   0  0  0  0  0  0  0  0  0  0  0  0
   42.1220   33.4250   39.9630 N   0  0  0  0  0  0  0  0  0  0  0  0
   41.2300   32.5090   39.5200 C   0  0  0  0  0  0  0  0  0  0  0  0
   41.0840   32.2470   38.2100 N   0  0  0  0  0  0  0  0  0  0  0  0
   40.3710   31.7410   40.3360 N   0  0  0  0  0  0  0  0  0  0  0  0
   40.7510   31.7040   41.6340 C   0  0  0  0  0  0  0  0  0  0  0  0
   39.9880   30.9760   42.5400 C   0  0  0  0  0  0  0  0  0  0  0  0
   38.8670   30.3310   42.0200 C   0  0  0  0  0  0  0  0  0  0  0  0
   38.1690   29.6700   42.8300 O   0  0  0  0  0  0  0  0  0  0  0  0
   38.5270   30.3960   40.7230 N   0  0  0  0  0  0  0  0  0  0  0  0
   39.2880   31.1070   39.8800 C   0  0  0  0  0  0  0  0  0  0  0  0
   39.0690   31.2410   38.6420 O   0  0  0  0  0  0  0  0  0  0  0  0
   41.7440   32.7160   36.2370 H   0  0  0  0  0  0  0  0  0  0  0  0
   43.3950   34.4030   36.9880 H   0  0  0  0  0  0  0  0  0  0  0  0
   43.6210   34.8480   39.4580 H   0  0  0  0  0  0  0  0  0  0  0  0
   41.6240   32.2080   42.0250 H   0  0  0  0  0  0  0  0  0  0  0  0
   40.2670   30.9280   43.5840 H   0  0  0  0  0  0  0  0  0  0  0  0
   36.1070   30.5340   40.2170 C   0  0  1  0  0  3  0  0  0  0  0  0
   37.3770   29.7360   40.1830 C   0  0  2  0  0  3  0  0  0  0  0  0
   37.1140   28.5260   40.8130 O   0  0  0  0  0  0  0  0  0  0  0  0
   35.7510   28.3990   40.9850 C   0  0  0  0  0  2  0  0  0  0  0  0
   35.1190   29.3770   39.9820 C   0  0  2  0  0  3  0  0  0  0  0  0
   35.7810   31.0050   41.4810 O   0  0  0  0  0  0  0  0  0  0  0  0
   35.0360   31.6560   41.3550 H   0  0  0  0  0  0  0  0  0  0  0  0
   35.2750   28.8060   38.7320 O   0  0  0  0  0  0  0  0  0  0  0  0
   35.3440   27.8010   38.7830 H   0  0  0  0  0  0  0  0  0  0  0  0
  1  2  2  0  0  0  0
  1  6  1  0  0  0  0
  2  3  1  0  0  0  0
  3 17  1  0  0  0  0
  3  4  2  0  0  0  0
  5  4  1  0  0  0  0
  5  7  1  0  0  0  0
  6  5  2  0  0  0  0
  7  8  1  0  0  0  0
  8 18  1  0  0  0  0
  8  9  2  0  0  0  0
  9 19  1  0  0  0  0
 10  9  1  0  0  0  0
 10 11  2  0  0  0  0
 12 10  1  0  0  0  0
 13  7  1  0  0  0  0
 13 12  1  0  0  0  0
 14 13  2  0  0  0  0
 15  1  1  0  0  0  0
 16  2  1  0  0  0  0
 20 25  1  1  0  0  0
 21 20  1  0  0  0  0
 21 12  1  1  0  0  0
 21 22  1  0  0  0  0
 22 23  1  0  0  0  0
 24 27  1  6  0  0  0
 24 20  1  0  0  0  0
 24 23  1  0  0  0  0
 26 25  1  0  0  0  0
 27 28  1  0  0  0  0
M  END
>  <minimizedAffinity>
-5.61457396

$$$$

 OpenBabel03242515343D

 28 30  0  0  1  0  0  0  0  0999 V2000
   37.4900   26.4540   42.6940 C   0  0  0  0  0  0  0  0  0  0  0  0
   37.0000   25.2300   42.1790 C   0  0  0  0  0  0  0  0  0  0  0  0
   36.9480   25.0830   40.7700 C   0  0  0  0  0  0  0  0  0  0  0  0
   37.3660   26.1120   39.9850 N   0  0  0  0  0  0  0  0  0  0  0  0
   37.8260   27.2640   40.5260 C   0  0  0  0  0  0  0  0  0  0  0  0
   37.8900   27.4400   41.8570 N   0  0  0  0  0  0  0  0  0  0  0  0
   38.2810   28.3850   39.7980 N   0  0  0  0  0  0  0  0  0  0  0  0
   38.5800   28.1070   38.5090 C   0  0  0  0  0  0  0  0  0  0  0  0
   39.0420   29.1280   37.6870 C   0  0  0  0  0  0  0  0  0  0  0  0
   39.1600   30.3860   38.2770 C   0  0  0  0  0  0  0  0  0  0  0  0
   39.5760   31.3180   37.5440 O   0  0  0  0  0  0  0  0  0  0  0  0
   38.8500   30.6170   39.5620 N   0  0  0  0  0  0  0  0  0  0  0  0
   38.4080   29.6070   40.3230 C   0  0  0  0  0  0  0  0  0  0  0  0
   38.0870   29.7030   41.5430 O   0  0  0  0  0  0  0  0  0  0  0  0
   37.5280   26.5630   43.7670 H   0  0  0  0  0  0  0  0  0  0  0  0
   36.6760   24.4310   42.8360 H   0  0  0  0  0  0  0  0  0  0  0  0
   36.5820   24.1650   40.3320 H   0  0  0  0  0  0  0  0  0  0  0  0
   38.4860   27.1260   38.0630 H   0  0  0  0  0  0  0  0  0  0  0  0
   39.2900   28.9350   36.6520 H   0  0  0  0  0  0  0  0  0  0  0  0
   37.8330   32.8490   39.9030 C   0  0  1  0  0  3  0  0  0  0  0  0
   38.9680   31.9060   40.1750 C   0  0  2  0  0  3  0  0  0  0  0  0
   40.1370   32.5610   39.8110 O   0  0  0  0  0  0  0  0  0  0  0  0
   39.8550   33.8950   39.6030 C   0  0  0  0  0  2  0  0  0  0  0  0
   38.5290   34.1530   40.3350 C   0  0  2  0  0  3  0  0  0  0  0  0
   37.5770   33.0350   38.5520 O   0  0  0  0  0  0  0  0  0  0  0  0
   36.7100   33.5250   38.4960 H   0  0  0  0  0  0  0  0  0  0  0  0
   38.8260   34.1610   41.6860 O   0  0  0  0  0  0  0  0  0  0  0  0
   39.7840   34.4230   41.8580 H   0  0  0  0  0  0  0  0  0  0  0  0
  1 15  1  0  0  0  0
  2  1  1  0  0  0  0
  2 16  1  0  0  0  0
  3  2  2  0  0  0  0
  4  5  2  0  0  0  0
  4  3  1  0  0  0  0
  5  6  1  0  0  0  0
  6  1  2  0  0  0  0
  7 13  1  0  0  0  0
  7  5  1  0  0  0  0
  8  7  1  0  0  0  0
  9 10  1  0  0  0  0
  9  8  2  0  0  0  0
 10 12  1  0  0  0  0
 11 10  2  0  0  0  0
 12 13  1  0  0  0  0
 13 14  2  0  0  0  0
 17  3  1  0  0  0  0
 18  8  1  0  0  0  0
 19  9  1  0  0  0  0
 20 25  1  6  0  0  0
 20 21  1  0  0  0  0
 20 24  1  0  0  0  0
 21 12  1  6  0  0  0
 22 21  1  0  0  0  0
 23 22  1  0  0  0  0
 23 24  1  0  0  0  0
 24 27  1  1  0  0  0
 26 25  1  0  0  0  0
 27 28  1  0  0  0  0
M  END
>  <minimizedAffinity>
-5.56474113

$$$$

 OpenBabel03242515343D

 28 30  0  0  1  0  0  0  0  0999 V2000
   40.0680   27.2490   42.3620 C   0  0  0  0  0  0  0  0  0  0  0  0
   39.2590   26.7230   43.3970 C   0  0  0  0  0  0  0  0  0  0  0  0
   38.0390   27.3870   43.6800 C   0  0  0  0  0  0  0  0  0  0  0  0
   37.7050   28.4870   42.9530 N   0  0  0  0  0  0  0  0  0  0  0  0
   38.5130   28.9510   41.9720 C   0  0  0  0  0  0  0  0  0  0  0  0
   39.6770   28.3480   41.6760 N   0  0  0  0  0  0  0  0  0  0  0  0
   38.2550   30.0800   41.1640 N   0  0  0  0  0  0  0  0  0  0  0  0
   36.9580   30.4670   41.1770 C   0  0  0  0  0  0  0  0  0  0  0  0
   36.5750   31.5680   40.4170 C   0  0  0  0  0  0  0  0  0  0  0  0
   37.5850   32.1940   39.6900 C   0  0  0  0  0  0  0  0  0  0  0  0
   37.2510   33.1900   39.0000 O   0  0  0  0  0  0  0  0  0  0  0  0
   38.8610   31.7750   39.7080 N   0  0  0  0  0  0  0  0  0  0  0  0
   39.1920   30.7110   40.4510 C   0  0  0  0  0  0  0  0  0  0  0  0
   40.3560   30.2250   40.5470 O   0  0  0  0  0  0  0  0  0  0  0  0
   40.9970   26.7410   42.1490 H   0  0  0  0  0  0  0  0  0  0  0  0
   39.5580   25.8440   43.9560 H   0  0  0  0  0  0  0  0  0  0  0  0
   37.3880   27.0210   44.4620 H   0  0  0  0  0  0  0  0  0  0  0  0
   36.1830   29.9720   41.7450 H   0  0  0  0  0  0  0  0  0  0  0  0
   35.5460   31.9000   40.4080 H   0  0  0  0  0  0  0  0  0  0  0  0
   40.0880   31.9110   37.5610 C   0  0  1  0  0  3  0  0  0  0  0  0
   39.9040   32.4140   38.9630 C   0  0  2  0  0  3  0  0  0  0  0  0
   41.1380   32.3230   39.5940 O   0  0  0  0  0  0  0  0  0  0  0  0
   42.1070   32.0730   38.6440 C   0  0  0  0  0  2  0  0  0  0  0  0
   41.4880   32.5000   37.3040 C   0  0  2  0  0  3  0  0  0  0  0  0
   40.2800   30.5390   37.4840 O   0  0  0  0  0  0  0  0  0  0  0  0
   40.2120   30.3000   36.5180 H   0  0  0  0  0  0  0  0  0  0  0  0
   41.4770   33.8830   37.3040 O   0  0  0  0  0  0  0  0  0  0  0  0
   42.2000   34.2640   37.8950 H   0  0  0  0  0  0  0  0  0  0  0  0
  1  2  1  0  0  0  0
  2  3  2  0  0  0  0
  2 16  1  0  0  0  0
  3 17  1  0  0  0  0
  4  3  1  0  0  0  0
  5  4  2  0  0  0  0
  6  5  1  0  0  0  0
  6  1  2  0  0  0  0
  7  8  1  0  0  0  0
  7  5  1  0  0  0  0
  8 18  1  0  0  0  0
  9  8  2  0  0  0  0
 10 12  1  0  0  0  0
 10  9  1  0  0  0  0
 11 10  2  0  0  0  0
 12 13  1  0  0  0  0
 13 14  2  0  0  0  0
 13  7  1  0  0  0  0
 15  1  1  0  0  0  0
 19  9  1  0  0  0  0
 20 25  1  1  0  0  0
 20 21  1  0  0  0  0
 21 22  1  0  0  0  0
 21 12  1  1  0  0  0
 23 22  1  0  0  0  0
 24 27  1  1  0  0  0
 24 20  1  0  0  0  0
 24 23  1  0  0  0  0
 26 25  1  0  0  0  0
 27 28  1  0  0  0  0
M  END
>  <minimizedAffinity>
-5.55983734

$$$$

 OpenBabel03242515343D

 28 30  0  0  1  0  0  0  0  0999 V2000
   36.1970   24.9220   39.4380 C   0  0  0  0  0  0  0  0  0  0  0  0
   36.5560   23.6570   39.9610 C   0  0  0  0  0  0  0  0  0  0  0  0
   37.4720   23.6290   41.0430 C   0  0  0  0  0  0  0  0  0  0  0  0
   37.9580   24.8050   41.5240 N   0  0  0  0  0  0  0  0  0  0  0  0
   37.5830   25.9900   40.9890 C   0  0  0  0  0  0  0  0  0  0  0  0
   36.7180   26.0550   39.9630 N   0  0  0  0  0  0  0  0  0  0  0  0
   38.0300   27.2590   41.4170 N   0  0  0  0  0  0  0  0  0  0  0  0
   38.5820   27.2490   42.6510 C   0  0  0  0  0  0  0  0  0  0  0  0
   39.0590   28.4400   43.1880 C   0  0  0  0  0  0  0  0  0  0  0  0
   38.9240   29.5720   42.3860 C   0  0  0  0  0  0  0  0  0  0  0  0
   39.3520   30.6550   42.8600 O   0  0  0  0  0  0  0  0  0  0  0  0
   38.3690   29.5350   41.1640 N   0  0  0  0  0  0  0  0  0  0  0  0
   37.9210   28.3690   40.6820 C   0  0  0  0  0  0  0  0  0  0  0  0
   37.3810   28.2110   39.5490 O   0  0  0  0  0  0  0  0  0  0  0  0
   35.5000   24.9390   38.6140 H   0  0  0  0  0  0  0  0  0  0  0  0
   36.1480   22.7400   39.5520 H   0  0  0  0  0  0  0  0  0  0  0  0
   37.7740   22.6860   41.4760 H   0  0  0  0  0  0  0  0  0  0  0  0
   38.6810   26.3630   43.2640 H   0  0  0  0  0  0  0  0  0  0  0  0
   39.5060   28.4620   44.1730 H   0  0  0  0  0  0  0  0  0  0  0  0
   37.0220   31.5410   40.6210 C   0  0  1  0  0  3  0  0  0  0  0  0
   38.2270   30.6940   40.3350 C   0  0  2  0  0  3  0  0  0  0  0  0
   38.1910   30.3780   38.9830 O   0  0  0  0  0  0  0  0  0  0  0  0
   37.2410   31.1650   38.3660 C   0  0  0  0  0  2  0  0  0  0  0  0
   37.0160   32.3540   39.3130 C   0  0  2  0  0  3  0  0  0  0  0  0
   35.8280   30.8360   40.5860 O   0  0  0  0  0  0  0  0  0  0  0  0
   35.1310   31.4450   40.9600 H   0  0  0  0  0  0  0  0  0  0  0  0
   38.1330   33.1600   39.1970 O   0  0  0  0  0  0  0  0  0  0  0  0
   38.5820   33.0540   38.3000 H   0  0  0  0  0  0  0  0  0  0  0  0
  1  2  2  0  0  0  0
  1  6  1  0  0  0  0
  2  3  1  0  0  0  0
  3 17  1  0  0  0  0
  3  4  2  0  0  0  0
  5  7  1  0  0  0  0
  5  4  1  0  0  0  0
  6  5  2  0  0  0  0
  7  8  1  0  0  0  0
  8  9  2  0  0  0  0
  8 18  1  0  0  0  0
  9 19  1  0  0  0  0
 10 11  2  0  0  0  0
 10  9  1  0  0  0  0
 12 10  1  0  0  0  0
 13 12  1  0  0  0  0
 13  7  1  0  0  0  0
 14 13  2  0  0  0  0
 15  1  1  0  0  0  0
 16  2  1  0  0  0  0
 20 25  1  6  0  0  0
 21 20  1  0  0  0  0
 21 12  1  1  0  0  0
 22 21  1  0  0  0  0
 23 22  1  0  0  0  0
 23 24  1  0  0  0  0
 24 27  1  1  0  0  0
 24 20  1  0  0  0  0
 25 26  1  0  0  0  0
 28 27  1  0  0  0  0
M  END
>  <minimizedAffinity>
-5.5567627

$$$$

 OpenBabel03242515343D

 28 30  0  0  1  0  0  0  0  0999 V2000
   35.7520   24.9310   38.1430 C   0  0  0  0  0  0  0  0  0  0  0  0
   35.9600   23.5450   38.3400 C   0  0  0  0  0  0  0  0  0  0  0  0
   36.6070   23.1410   39.5350 C   0  0  0  0  0  0  0  0  0  0  0  0
   36.9940   24.0920   40.4280 N   0  0  0  0  0  0  0  0  0  0  0  0
   36.7710   25.4060   40.1930 C   0  0  0  0  0  0  0  0  0  0  0  0
   36.1610   25.8260   39.0720 N   0  0  0  0  0  0  0  0  0  0  0  0
   37.1330   26.4640   41.0550 N   0  0  0  0  0  0  0  0  0  0  0  0
   37.3920   26.0640   42.3210 C   0  0  0  0  0  0  0  0  0  0  0  0
   37.7570   27.0150   43.2680 C   0  0  0  0  0  0  0  0  0  0  0  0
   37.8280   28.3330   42.8190 C   0  0  0  0  0  0  0  0  0  0  0  0
   38.1570   29.2010   43.6660 O   0  0  0  0  0  0  0  0  0  0  0  0
   37.5620   28.6850   41.5510 N   0  0  0  0  0  0  0  0  0  0  0  0
   37.2130   27.7400   40.6680 C   0  0  0  0  0  0  0  0  0  0  0  0
   36.9400   27.9490   39.4500 O   0  0  0  0  0  0  0  0  0  0  0  0
   35.2590   25.2350   37.2320 H   0  0  0  0  0  0  0  0  0  0  0  0
   35.6380   22.8150   37.6060 H   0  0  0  0  0  0  0  0  0  0  0  0
   36.7870   22.0930   39.7290 H   0  0  0  0  0  0  0  0  0  0  0  0
   37.3340   25.0380   42.6570 H   0  0  0  0  0  0  0  0  0  0  0  0
   37.9700   26.7250   44.2880 H   0  0  0  0  0  0  0  0  0  0  0  0
   36.3470   30.8070   41.1600 C   0  0  1  0  0  3  0  0  0  0  0  0
   37.6320   30.0360   41.0840 C   0  0  2  0  0  3  0  0  0  0  0  0
   38.0800   30.1210   39.7710 O   0  0  0  0  0  0  0  0  0  0  0  0
   37.3460   31.0840   39.1110 C   0  0  0  0  0  2  0  0  0  0  0  0
   36.7310   31.9590   40.2140 C   0  0  2  0  0  3  0  0  0  0  0  0
   35.2870   30.1820   40.5190 O   0  0  0  0  0  0  0  0  0  0  0  0
   34.4650   30.6830   40.7840 H   0  0  0  0  0  0  0  0  0  0  0  0
   37.7630   32.7260   40.7210 O   0  0  0  0  0  0  0  0  0  0  0  0
   38.4970   32.8660   40.0430 H   0  0  0  0  0  0  0  0  0  0  0  0
  1  2  2  0  0  0  0
  1  6  1  0  0  0  0
  2  3  1  0  0  0  0
  3 17  1  0  0  0  0
  3  4  2  0  0  0  0
  5  4  1  0  0  0  0
  5  7  1  0  0  0  0
  6  5  2  0  0  0  0
  7  8  1  0  0  0  0
  8 18  1  0  0  0  0
  8  9  2  0  0  0  0
  9 19  1  0  0  0  0
 10  9  1  0  0  0  0
 10 11  2  0  0  0  0
 12 10  1  0  0  0  0
 13  7  1  0  0  0  0
 13 12  1  0  0  0  0
 14 13  2  0  0  0  0
 15  1  1  0  0  0  0
 16  2  1  0  0  0  0
 20 25  1  6  0  0  0
 21 20  1  0  0  0  0
 21 12  1  6  0  0  0
 22 21  1  0  0  0  0
 23 22  1  0  0  0  0
 23 24  1  0  0  0  0
 24 27  1  1  0  0  0
 24 20  1  0  0  0  0
 25 26  1  0  0  0  0
 28 27  1  0  0  0  0
M  END
>  <minimizedAffinity>
-5.55344868

$$$$

 OpenBabel03242515343D

 28 30  0  0  1  0  0  0  0  0999 V2000
   36.4970   29.7090   34.4230 C   0  0  0  0  0  0  0  0  0  0  0  0
   35.8230   28.5680   33.9280 C   0  0  0  0  0  0  0  0  0  0  0  0
   35.1800   27.7240   34.8690 C   0  0  0  0  0  0  0  0  0  0  0  0
   35.2400   28.0450   36.1890 N   0  0  0  0  0  0  0  0  0  0  0  0
   35.8980   29.1490   36.6130 C   0  0  0  0  0  0  0  0  0  0  0  0
   36.5190   29.9720   35.7500 N   0  0  0  0  0  0  0  0  0  0  0  0
   36.0150   29.5670   37.9560 N   0  0  0  0  0  0  0  0  0  0  0  0
   35.1100   28.9930   38.7810 C   0  0  0  0  0  0  0  0  0  0  0  0
   35.1200   29.3240   40.1320 C   0  0  0  0  0  0  0  0  0  0  0  0
   36.0890   30.2440   40.5300 C   0  0  0  0  0  0  0  0  0  0  0  0
   36.1090   30.5510   41.7490 O   0  0  0  0  0  0  0  0  0  0  0  0
   36.9700   30.7880   39.6760 N   0  0  0  0  0  0  0  0  0  0  0  0
   36.9280   30.4440   38.3820 C   0  0  0  0  0  0  0  0  0  0  0  0
   37.7030   30.8890   37.4870 O   0  0  0  0  0  0  0  0  0  0  0  0
   36.9860   30.3490   33.7040 H   0  0  0  0  0  0  0  0  0  0  0  0
   35.7960   28.3430   32.8680 H   0  0  0  0  0  0  0  0  0  0  0  0
   34.6520   26.8410   34.5360 H   0  0  0  0  0  0  0  0  0  0  0  0
   34.3620   28.2810   38.4590 H   0  0  0  0  0  0  0  0  0  0  0  0
   34.4080   28.8820   40.8140 H   0  0  0  0  0  0  0  0  0  0  0  0
   37.6010   33.1740   39.8800 C   0  0  1  0  0  3  0  0  0  0  0  0
   37.9680   31.7330   40.0790 C   0  0  2  0  0  3  0  0  0  0  0  0
   39.1820   31.5290   39.4350 O   0  0  0  0  0  0  0  0  0  0  0  0
   39.7200   32.7540   39.0990 C   0  0  0  0  0  2  0  0  0  0  0  0
   39.0140   33.7750   40.0050 C   0  0  2  0  0  3  0  0  0  0  0  0
   37.2200   33.4760   38.5810 O   0  0  0  0  0  0  0  0  0  0  0  0
   36.8350   34.3950   38.6070 H   0  0  0  0  0  0  0  0  0  0  0  0
   39.5420   33.6000   41.2720 O   0  0  0  0  0  0  0  0  0  0  0  0
   40.4740   33.2180   41.2410 H   0  0  0  0  0  0  0  0  0  0  0  0
  1  6  1  0  0  0  0
  2  1  2  0  0  0  0
  2  3  1  0  0  0  0
  3  4  2  0  0  0  0
  4  5  1  0  0  0  0
  5  7  1  0  0  0  0
  6  5  2  0  0  0  0
  7 13  1  0  0  0  0
  7  8  1  0  0  0  0
  8  9  2  0  0  0  0
  9 10  1  0  0  0  0
  9 19  1  0  0  0  0
 10 11  2  0  0  0  0
 12 10  1  0  0  0  0
 13 12  1  0  0  0  0
 14 13  2  0  0  0  0
 15  1  1  0  0  0  0
 16  2  1  0  0  0  0
 17  3  1  0  0  0  0
 18  8  1  0  0  0  0
 20 25  1  6  0  0  0
 20 24  1  0  0  0  0
 20 21  1  0  0  0  0
 21 12  1  6  0  0  0
 22 21  1  0  0  0  0
 23 22  1  0  0  0  0
 23 24  1  0  0  0  0
 24 27  1  1  0  0  0
 25 26  1  0  0  0  0
 28 27  1  0  0  0  0
M  END
>  <minimizedAffinity>
-5.44387293

$$$$

 OpenBabel03242515343D

 28 30  0  0  1  0  0  0  0  0999 V2000
   39.4130   33.3720   40.7670 C   0  0  0  0  0  0  0  0  0  0  0  0
   38.5290   34.1280   39.9610 C   0  0  0  0  0  0  0  0  0  0  0  0
   37.3230   33.5090   39.5490 C   0  0  0  0  0  0  0  0  0  0  0  0
   37.0710   32.2310   39.9410 N   0  0  0  0  0  0  0  0  0  0  0  0
   37.9490   31.5490   40.7130 C   0  0  0  0  0  0  0  0  0  0  0  0
   39.1020   32.1030   41.1230 N   0  0  0  0  0  0  0  0  0  0  0  0
   37.7790   30.2240   41.1710 N   0  0  0  0  0  0  0  0  0  0  0  0
   36.5000   29.7890   41.1000 C   0  0  0  0  0  0  0  0  0  0  0  0
   36.2010   28.4990   41.5250 C   0  0  0  0  0  0  0  0  0  0  0  0
   37.2740   27.7450   41.9990 C   0  0  0  0  0  0  0  0  0  0  0  0
   37.0170   26.5770   42.3860 O   0  0  0  0  0  0  0  0  0  0  0  0
   38.5290   28.2180   42.0510 N   0  0  0  0  0  0  0  0  0  0  0  0
   38.7770   29.4670   41.6330 C   0  0  0  0  0  0  0  0  0  0  0  0
   39.9140   30.0200   41.6340 O   0  0  0  0  0  0  0  0  0  0  0  0
   40.3310   33.8460   41.0790 H   0  0  0  0  0  0  0  0  0  0  0  0
   38.7630   35.1450   39.6680 H   0  0  0  0  0  0  0  0  0  0  0  0
   36.6160   34.0490   38.9330 H   0  0  0  0  0  0  0  0  0  0  0  0
   35.6760   30.3840   40.7300 H   0  0  0  0  0  0  0  0  0  0  0  0
   35.1880   28.1230   41.4800 H   0  0  0  0  0  0  0  0  0  0  0  0
   40.2220   26.4810   41.5530 C   0  0  1  0  0  3  0  0  0  0  0  0
   39.6350   27.4500   42.5370 C   0  0  2  0  0  3  0  0  0  0  0  0
   39.3170   26.7260   43.6790 O   0  0  0  0  0  0  0  0  0  0  0  0
   39.8960   25.4770   43.5920 C   0  0  0  0  0  2  0  0  0  0  0  0
   41.0160   25.6160   42.5490 C   0  0  2  0  0  3  0  0  0  0  0  0
   39.2910   25.6060   41.0130 O   0  0  0  0  0  0  0  0  0  0  0  0
   39.7480   25.1410   40.2570 H   0  0  0  0  0  0  0  0  0  0  0  0
   42.0310   26.3290   43.1620 O   0  0  0  0  0  0  0  0  0  0  0  0
   42.0160   26.2170   44.1640 H   0  0  0  0  0  0  0  0  0  0  0  0
  1 15  1  0  0  0  0
  1  6  1  0  0  0  0
  2  1  2  0  0  0  0
  3  4  2  0  0  0  0
  3  2  1  0  0  0  0
  4  5  1  0  0  0  0
  5  6  2  0  0  0  0
  5  7  1  0  0  0  0
  7 13  1  0  0  0  0
  8  7  1  0  0  0  0
  8  9  2  0  0  0  0
  9 10  1  0  0  0  0
 10 12  1  0  0  0  0
 10 11  2  0  0  0  0
 13 14  2  0  0  0  0
 13 12  1  0  0  0  0
 16  2  1  0  0  0  0
 17  3  1  0  0  0  0
 18  8  1  0  0  0  0
 19  9  1  0  0  0  0
 20 25  1  1  0  0  0
 20 21  1  0  0  0  0
 20 24  1  0  0  0  0
 21 12  1  6  0  0  0
 21 22  1  0  0  0  0
 23 22  1  0  0  0  0
 24 27  1  1  0  0  0
 24 23  1  0  0  0  0
 26 25  1  0  0  0  0
 27 28  1  0  0  0  0
M  END
>  <minimizedAffinity>
-5.41074133

$$$$

 OpenBabel03242515343D

 28 30  0  0  1  0  0  0  0  0999 V2000
   36.5760   25.5740   39.5780 C   0  0  0  0  0  0  0  0  0  0  0  0
   36.5750   24.5180   40.5210 C   0  0  0  0  0  0  0  0  0  0  0  0
   37.1690   24.7640   41.7840 C   0  0  0  0  0  0  0  0  0  0  0  0
   37.7080   25.9870   42.0310 N   0  0  0  0  0  0  0  0  0  0  0  0
   37.6850   26.9660   41.0970 C   0  0  0  0  0  0  0  0  0  0  0  0
   37.1300   26.7700   39.8880 N   0  0  0  0  0  0  0  0  0  0  0  0
   38.2150   28.2650   41.2570 N   0  0  0  0  0  0  0  0  0  0  0  0
   38.4280   28.6040   42.5490 C   0  0  0  0  0  0  0  0  0  0  0  0
   38.9460   29.8620   42.8400 C   0  0  0  0  0  0  0  0  0  0  0  0
   39.2100   30.6850   41.7460 C   0  0  0  0  0  0  0  0  0  0  0  0
   39.6790   31.8240   41.9960 O   0  0  0  0  0  0  0  0  0  0  0  0
   38.9830   30.3050   40.4790 N   0  0  0  0  0  0  0  0  0  0  0  0
   38.4820   29.0860   40.2380 C   0  0  0  0  0  0  0  0  0  0  0  0
   38.2280   28.6190   39.0910 O   0  0  0  0  0  0  0  0  0  0  0  0
   36.1230   25.3840   38.6170 H   0  0  0  0  0  0  0  0  0  0  0  0
   36.1360   23.5550   40.2890 H   0  0  0  0  0  0  0  0  0  0  0  0
   37.1910   23.9860   42.5360 H   0  0  0  0  0  0  0  0  0  0  0  0
   38.2190   27.9560   43.3890 H   0  0  0  0  0  0  0  0  0  0  0  0
   39.1270   30.1610   43.8630 H   0  0  0  0  0  0  0  0  0  0  0  0
   40.6430   31.0510   38.8000 C   0  0  1  0  0  3  0  0  0  0  0  0
   39.2510   31.1460   39.3510 C   0  0  2  0  0  3  0  0  0  0  0  0
   39.0110   32.4880   39.6200 O   0  0  0  0  0  0  0  0  0  0  0  0
   40.0080   33.2440   39.0400 C   0  0  0  0  0  2  0  0  0  0  0  0
   40.6320   32.3440   37.9630 C   0  0  2  0  0  3  0  0  0  0  0  0
   41.6320   31.2710   39.7470 O   0  0  0  0  0  0  0  0  0  0  0  0
   42.4950   31.0100   39.3190 H   0  0  0  0  0  0  0  0  0  0  0  0
   39.7170   32.2850   36.9280 O   0  0  0  0  0  0  0  0  0  0  0  0
   39.1250   33.1010   36.9020 H   0  0  0  0  0  0  0  0  0  0  0  0
  1  6  2  0  0  0  0
  1  2  1  0  0  0  0
  2  3  2  0  0  0  0
  3  4  1  0  0  0  0
  3 17  1  0  0  0  0
  5  7  1  0  0  0  0
  5  4  2  0  0  0  0
  6  5  1  0  0  0  0
  7  8  1  0  0  0  0
  8  9  2  0  0  0  0
  8 18  1  0  0  0  0
  9 19  1  0  0  0  0
 10 11  2  0  0  0  0
 10  9  1  0  0  0  0
 12 10  1  0  0  0  0
 13 12  1  0  0  0  0
 13  7  1  0  0  0  0
 14 13  2  0  0  0  0
 15  1  1  0  0  0  0
 16  2  1  0  0  0  0
 20 21  1  0  0  0  0
 20 25  1  1  0  0  0
 21 22  1  0  0  0  0
 21 12  1  1  0  0  0
 23 22  1  0  0  0  0
 24 27  1  6  0  0  0
 24 20  1  0  0  0  0
 24 23  1  0  0  0  0
 26 25  1  0  0  0  0
 28 27  1  0  0  0  0
M  END
>  <minimizedAffinity>
-5.35563135

$$$$

 OpenBabel03242515343D

 28 30  0  0  1  0  0  0  0  0999 V2000
   38.8740   25.0920   41.8730 C   0  0  0  0  0  0  0  0  0  0  0  0
   37.9660   24.0110   41.7850 C   0  0  0  0  0  0  0  0  0  0  0  0
   36.7960   24.1950   41.0060 C   0  0  0  0  0  0  0  0  0  0  0  0
   36.6010   25.3890   40.3850 N   0  0  0  0  0  0  0  0  0  0  0  0
   37.5000   26.3940   40.4990 C   0  0  0  0  0  0  0  0  0  0  0  0
   38.6200   26.2560   41.2290 N   0  0  0  0  0  0  0  0  0  0  0  0
   37.3880   27.6650   39.8950 N   0  0  0  0  0  0  0  0  0  0  0  0
   36.4960   27.7030   38.8780 C   0  0  0  0  0  0  0  0  0  0  0  0
   36.2960   28.9000   38.1990 C   0  0  0  0  0  0  0  0  0  0  0  0
   37.0520   29.9870   38.6350 C   0  0  0  0  0  0  0  0  0  0  0  0
   36.8800   31.0740   38.0290 O   0  0  0  0  0  0  0  0  0  0  0  0
   37.9260   29.9040   39.6510 N   0  0  0  0  0  0  0  0  0  0  0  0
   38.0910   28.7330   40.2810 C   0  0  0  0  0  0  0  0  0  0  0  0
   38.8830   28.5340   41.2470 O   0  0  0  0  0  0  0  0  0  0  0  0
   39.7640   24.9490   42.4670 H   0  0  0  0  0  0  0  0  0  0  0  0
   38.1550   23.0720   42.2940 H   0  0  0  0  0  0  0  0  0  0  0  0
   36.0740   23.3960   40.9100 H   0  0  0  0  0  0  0  0  0  0  0  0
   35.9160   26.8510   38.5490 H   0  0  0  0  0  0  0  0  0  0  0  0
   35.5900   28.9600   37.3820 H   0  0  0  0  0  0  0  0  0  0  0  0
   37.9890   31.9680   41.0170 C   0  0  1  0  0  3  0  0  0  0  0  0
   38.7050   31.0170   40.1040 C   0  0  2  0  0  3  0  0  0  0  0  0
   39.2180   31.7680   39.0550 O   0  0  0  0  0  0  0  0  0  0  0  0
   39.1210   33.1060   39.3740 C   0  0  0  0  0  2  0  0  0  0  0  0
   38.9670   33.1520   40.9020 C   0  0  2  0  0  3  0  0  0  0  0  0
   36.8030   32.4570   40.4890 O   0  0  0  0  0  0  0  0  0  0  0  0
   36.3350   32.9250   41.2360 H   0  0  0  0  0  0  0  0  0  0  0  0
   40.2110   32.8520   41.4270 O   0  0  0  0  0  0  0  0  0  0  0  0
   40.9550   33.0910   40.7900 H   0  0  0  0  0  0  0  0  0  0  0  0
  1 15  1  0  0  0  0
  2  1  1  0  0  0  0
  2 16  1  0  0  0  0
  3  2  2  0  0  0  0
  4  5  2  0  0  0  0
  4  3  1  0  0  0  0
  5  6  1  0  0  0  0
  6  1  2  0  0  0  0
  7 13  1  0  0  0  0
  7  5  1  0  0  0  0
  8  7  1  0  0  0  0
  9 10  1  0  0  0  0
  9  8  2  0  0  0  0
 10 12  1  0  0  0  0
 11 10  2  0  0  0  0
 12 13  1  0  0  0  0
 13 14  2  0  0  0  0
 17  3  1  0  0  0  0
 18  8  1  0  0  0  0
 19  9  1  0  0  0  0
 20 25  1  6  0  0  0
 21 12  1  6  0  0  0
 21 20  1  0  0  0  0
 22 23  1  0  0  0  0
 22 21  1  0  0  0  0
 23 24  1  0  0  0  0
 24 20  1  0  0  0  0
 24 27  1  1  0  0  0
 25 26  1  0  0  0  0
 28 27  1  0  0  0  0
M  END
>  <minimizedAffinity>
-5.32646751

$$$$
