
 OpenBabel03252506373D

 44 47  0  0  1  0  0  0  0  0999 V2000
   44.5280   35.4890   45.1400 C   0  0  0  0  0  0  0  0  0  0  0  0
   45.1700   35.4770   43.8920 C   0  0  0  0  0  0  0  0  0  0  0  0
   46.0790   34.5140   43.6240 C   0  0  0  0  0  0  0  0  0  0  0  0
   46.3170   33.5990   44.5980 N   0  0  0  0  0  0  0  0  0  0  0  0
   45.7070   33.6140   45.7730 C   0  0  0  0  0  0  0  0  0  0  0  0
   44.8080   34.5530   46.0640 N   0  0  0  0  0  0  0  0  0  0  0  0
   46.0400   32.5990   46.7370 N   0  0  0  0  0  0  0  0  0  0  0  0
   45.3080   32.3550   47.9280 C   0  0  0  0  0  0  0  0  0  0  0  0
   46.3920   31.9950   48.9310 C   0  0  0  0  0  0  0  0  0  0  0  0
   47.6630   31.8840   48.1510 C   0  0  0  0  0  0  0  0  0  0  0  0
   47.1520   31.6800   46.7240 C   0  0  1  0  0  0  0  0  0  0  0  0
   43.7900   36.2710   45.3590 H   0  0  0  0  0  0  0  0  0  0  0  0
   46.5740   34.4930   42.6810 H   0  0  0  0  0  0  0  0  0  0  0  0
   44.9660   33.3780   48.2920 H   0  0  0  0  0  0  0  0  0  0  0  0
   44.4670   31.7420   48.0090 H   0  0  0  0  0  0  0  0  0  0  0  0
   46.1360   30.9620   49.3080 H   0  0  0  0  0  0  0  0  0  0  0  0
   46.4200   32.6220   49.8180 H   0  0  0  0  0  0  0  0  0  0  0  0
   48.2390   30.9980   48.4920 H   0  0  0  0  0  0  0  0  0  0  0  0
   48.2350   32.8340   48.2360 H   0  0  0  0  0  0  0  0  0  0  0  0
   47.8760   32.0430   45.9730 H   0  0  0  0  0  0  0  0  0  0  0  0
   44.8030   36.5210   42.9730 N   0  0  0  0  0  0  0  0  0  0  0  0
   43.8080   36.4700   42.6570 H   0  0  0  0  0  0  0  0  0  0  0  0
   45.4360   37.2780   42.6280 H   0  0  0  0  0  0  0  0  0  0  0  0
   46.6230   29.9950   46.5380 S   0  0  0  0  0  0  0  0  0  0  0  0
   45.4230   30.3390   43.4520 O   0  0  0  0  0  0  0  0  0  0  0  0
   44.8340   29.8710   44.4420 C   0  0  0  0  0  0  0  0  0  0  0  0
   45.0200   29.7280   45.9050 C   0  0  1  0  0  0  0  0  0  0  0  0
   44.4440   28.3570   46.1580 C   0  0  0  0  0  0  0  0  0  0  0  0
   43.0900   28.5840   45.4830 C   0  0  0  0  0  0  0  0  0  0  0  0
   43.5490   29.2330   44.2580 N   0  0  0  0  0  0  0  0  0  0  0  0
   44.1840   30.3920   46.2630 H   0  0  0  0  0  0  0  0  0  0  0  0
   44.9730   27.5630   45.6050 H   0  0  0  0  0  0  0  0  0  0  0  0
   44.3130   28.1440   47.2350 H   0  0  0  0  0  0  0  0  0  0  0  0
   42.6690   27.5900   45.3450 H   0  0  0  0  0  0  0  0  0  0  0  0
   42.4570   29.2630   46.0880 H   0  0  0  0  0  0  0  0  0  0  0  0
   41.4610   29.9460   43.1430 C   0  0  2  0  0  3  0  0  0  0  0  0
   42.7310   29.1920   43.0310 C   0  0  2  0  0  3  0  0  0  0  0  0
   42.4060   27.9200   42.6620 O   0  0  0  0  0  0  0  0  0  0  0  0
   41.1000   27.6410   42.9670 C   0  0  0  0  0  2  0  0  0  0  0  0
   40.3580   28.9130   43.2030 C   0  0  1  0  0  3  0  0  0  0  0  0
   41.2430   30.6750   41.9730 O   0  0  0  0  0  0  0  0  0  0  0  0
   41.5670   30.1920   41.1650 H   0  0  0  0  0  0  0  0  0  0  0  0
   39.7210   28.9370   44.4570 O   0  0  0  0  0  0  0  0  0  0  0  0
   40.2460   29.4980   45.0950 H   0  0  0  0  0  0  0  0  0  0  0  0
  1 12  1  0  0  0  0
  1  6  1  0  0  0  0
  2  1  2  0  0  0  0
  3  2  1  0  0  0  0
  3  4  2  0  0  0  0
  4  5  1  0  0  0  0
  5  6  2  0  0  0  0
  5  7  1  0  0  0  0
  7  8  1  0  0  0  0
  8 15  1  0  0  0  0
  8 14  1  0  0  0  0
  8  9  1  0  0  0  0
  9 16  1  0  0  0  0
  9 17  1  0  0  0  0
 10 19  1  0  0  0  0
 10 18  1  0  0  0  0
 10  9  1  0  0  0  0
 11 20  1  6  0  0  0
 11  7  1  0  0  0  0
 11 10  1  0  0  0  0
 13  3  1  0  0  0  0
 21  2  1  0  0  0  0
 22 21  1  0  0  0  0
 23 21  1  0  0  0  0
 24 11  1  0  0  0  0
 25 26  2  0  0  0  0
 26 27  1  0  0  0  0
 27 28  1  0  0  0  0
 27 31  1  1  0  0  0
 27 24  1  0  0  0  0
 28 33  1  0  0  0  0
 29 35  1  0  0  0  0
 29 28  1  0  0  0  0
 30 26  1  0  0  0  0
 30 29  1  0  0  0  0
 32 28  1  0  0  0  0
 34 29  1  0  0  0  0
 36 41  1  6  0  0  0
 36 40  1  0  0  0  0
 37 36  1  0  0  0  0
 37 30  1  1  0  0  0
 38 39  1  0  0  0  0
 38 37  1  0  0  0  0
 39 40  1  0  0  0  0
 40 43  1  1  0  0  0
 42 41  1  0  0  0  0
 43 44  1  0  0  0  0
M  END
>  <minimizedAffinity>
-5.93651056

>  <minimizedRMSD>
0.270568728

$$$$
