
 OpenBabel03252506363D

 44 47  0  0  1  0  0  0  0  0999 V2000
   44.5140   35.5020   45.1280 C   0  0  0  0  0  0  0  0  0  0  0  0
   45.1790   35.4990   43.8930 C   0  0  0  0  0  0  0  0  0  0  0  0
   46.1110   34.5520   43.6440 C   0  0  0  0  0  0  0  0  0  0  0  0
   46.3470   33.6440   44.6260 N   0  0  0  0  0  0  0  0  0  0  0  0
   45.7150   33.6520   45.7900 C   0  0  0  0  0  0  0  0  0  0  0  0
   44.7940   34.5750   46.0600 N   0  0  0  0  0  0  0  0  0  0  0  0
   46.0480   32.6450   46.7620 N   0  0  0  0  0  0  0  0  0  0  0  0
   45.2990   32.3920   47.9400 C   0  0  0  0  0  0  0  0  0  0  0  0
   46.3710   32.0550   48.9640 C   0  0  0  0  0  0  0  0  0  0  0  0
   47.6580   31.9640   48.2080 C   0  0  0  0  0  0  0  0  0  0  0  0
   47.1770   31.7460   46.7740 C   0  0  1  0  0  0  0  0  0  0  0  0
   43.7570   36.2710   45.3310 H   0  0  0  0  0  0  0  0  0  0  0  0
   46.6230   34.5370   42.7110 H   0  0  0  0  0  0  0  0  0  0  0  0
   44.9320   33.4090   48.2950 H   0  0  0  0  0  0  0  0  0  0  0  0
   44.4680   31.7630   48.0080 H   0  0  0  0  0  0  0  0  0  0  0  0
   46.1270   31.0180   49.3400 H   0  0  0  0  0  0  0  0  0  0  0  0
   46.3710   32.6850   49.8500 H   0  0  0  0  0  0  0  0  0  0  0  0
   48.2440   31.0900   48.5630 H   0  0  0  0  0  0  0  0  0  0  0  0
   48.2110   32.9250   48.3010 H   0  0  0  0  0  0  0  0  0  0  0  0
   47.9090   32.1210   46.0350 H   0  0  0  0  0  0  0  0  0  0  0  0
   44.8110   36.5330   42.9640 N   0  0  0  0  0  0  0  0  0  0  0  0
   43.8220   36.4630   42.6300 H   0  0  0  0  0  0  0  0  0  0  0  0
   45.4350   37.3000   42.6270 H   0  0  0  0  0  0  0  0  0  0  0  0
   46.6830   30.0520   46.5830 S   0  0  0  0  0  0  0  0  0  0  0  0
   45.5950   30.5810   43.4810 O   0  0  0  0  0  0  0  0  0  0  0  0
   44.9940   30.0030   44.4030 C   0  0  0  0  0  0  0  0  0  0  0  0
   45.1250   29.7520   45.8580 C   0  0  1  0  0  0  0  0  0  0  0  0
   44.6180   28.3370   45.9750 C   0  0  0  0  0  0  0  0  0  0  0  0
   43.2820   28.5460   45.2580 C   0  0  0  0  0  0  0  0  0  0  0  0
   43.7550   29.3150   44.1110 N   0  0  0  0  0  0  0  0  0  0  0  0
   44.2390   30.3410   46.2280 H   0  0  0  0  0  0  0  0  0  0  0  0
   45.2130   27.6190   45.3870 H   0  0  0  0  0  0  0  0  0  0  0  0
   44.4540   28.0310   47.0250 H   0  0  0  0  0  0  0  0  0  0  0  0
   42.9240   27.5460   45.0230 H   0  0  0  0  0  0  0  0  0  0  0  0
   42.5870   29.1400   45.8850 H   0  0  0  0  0  0  0  0  0  0  0  0
   43.7510   28.7880   41.6960 C   0  0  2  0  0  3  0  0  0  0  0  0
   42.9930   29.3300   42.8480 C   0  0  2  0  0  3  0  0  0  0  0  0
   42.5840   30.5830   42.4980 O   0  0  0  0  0  0  0  0  0  0  0  0
   43.3550   31.0830   41.4820 C   0  0  0  0  0  2  0  0  0  0  0  0
   44.0900   29.9700   40.8170 C   0  0  1  0  0  3  0  0  0  0  0  0
   42.9210   27.9660   40.9330 O   0  0  0  0  0  0  0  0  0  0  0  0
   41.9830   28.2960   40.9110 H   0  0  0  0  0  0  0  0  0  0  0  0
   45.4790   30.1880   40.7880 O   0  0  0  0  0  0  0  0  0  0  0  0
   45.9250   29.6360   41.4910 H   0  0  0  0  0  0  0  0  0  0  0  0
  1 12  1  0  0  0  0
  1  6  1  0  0  0  0
  2  1  2  0  0  0  0
  3  2  1  0  0  0  0
  3  4  2  0  0  0  0
  4  5  1  0  0  0  0
  5  6  2  0  0  0  0
  5  7  1  0  0  0  0
  7 11  1  0  0  0  0
  7  8  1  0  0  0  0
  8 15  1  0  0  0  0
  8 14  1  0  0  0  0
  8  9  1  0  0  0  0
  9 16  1  0  0  0  0
  9 17  1  0  0  0  0
 10 19  1  0  0  0  0
 10 18  1  0  0  0  0
 10  9  1  0  0  0  0
 11 20  1  6  0  0  0
 11 10  1  0  0  0  0
 13  3  1  0  0  0  0
 21  2  1  0  0  0  0
 22 21  1  0  0  0  0
 23 21  1  0  0  0  0
 24 11  1  0  0  0  0
 25 26  2  0  0  0  0
 26 27  1  0  0  0  0
 27 28  1  0  0  0  0
 27 31  1  1  0  0  0
 27 24  1  0  0  0  0
 28 33  1  0  0  0  0
 29 35  1  0  0  0  0
 29 28  1  0  0  0  0
 30 26  1  0  0  0  0
 30 29  1  0  0  0  0
 32 28  1  0  0  0  0
 34 29  1  0  0  0  0
 36 41  1  6  0  0  0
 36 37  1  0  0  0  0
 37 30  1  1  0  0  0
 38 37  1  0  0  0  0
 39 38  1  0  0  0  0
 40 43  1  1  0  0  0
 40 39  1  0  0  0  0
 40 36  1  0  0  0  0
 42 41  1  0  0  0  0
 43 44  1  0  0  0  0
M  END
>  <minimizedAffinity>
-5.19696188

>  <minimizedRMSD>
0.768931448

$$$$
