
 OpenBabel03252507103D

 36 38  0  0  1  0  0  0  0  0999 V2000
   44.5240   35.6120   44.7610 C   0  0  0  0  0  0  0  0  0  0  0  0
   45.1670   35.8650   43.5360 C   0  0  0  0  0  0  0  0  0  0  0  0
   46.2600   35.0770   43.2210 C   0  0  0  0  0  0  0  0  0  0  0  0
   46.6550   34.1210   44.0810 N   0  0  0  0  0  0  0  0  0  0  0  0
   46.0340   33.8900   45.2430 C   0  0  0  0  0  0  0  0  0  0  0  0
   44.9580   34.6460   45.5850 N   0  0  0  0  0  0  0  0  0  0  0  0
   43.6540   36.2110   45.0540 H   0  0  0  0  0  0  0  0  0  0  0  0
   44.7470   36.6700   42.9290 H   0  0  0  0  0  0  0  0  0  0  0  0
   45.3950   32.5390   47.2610 C   0  0  1  0  0  0  0  0  0  0  0  0
   46.4320   32.8650   46.2270 C   0  0  1  0  0  0  0  0  0  0  0  0
   46.5060   31.4880   45.5300 C   0  0  0  0  0  0  0  0  0  0  0  0
   46.2380   30.5520   46.4770 O   0  0  0  0  0  0  0  0  0  0  0  0
   45.9250   31.1710   47.6840 C   0  0  0  0  0  0  0  0  0  0  0  0
   44.4000   32.3980   46.7910 H   0  0  0  0  0  0  0  0  0  0  0  0
   47.4110   33.0890   46.6660 H   0  0  0  0  0  0  0  0  0  0  0  0
   45.8670   31.4620   44.6310 H   0  0  0  0  0  0  0  0  0  0  0  0
   47.5610   31.3830   45.2050 H   0  0  0  0  0  0  0  0  0  0  0  0
   45.1180   30.5940   48.1510 H   0  0  0  0  0  0  0  0  0  0  0  0
   46.8210   31.2820   48.3250 H   0  0  0  0  0  0  0  0  0  0  0  0
   45.2800   33.4450   48.2710 O   0  0  0  0  0  0  0  0  0  0  0  0
   44.6790   33.0610   48.9550 H   0  0  0  0  0  0  0  0  0  0  0  0
   46.8880   35.3320   42.0090 O   0  0  0  0  0  0  0  0  0  0  0  0
   46.6500   32.9440   40.8550 O   0  0  0  0  0  0  0  0  0  0  0  0
   47.6350   34.0620   41.1480 P   0  0  1  0  0  0  0  0  0  0  0  0
   48.3060   34.6700   39.7480 O   0  0  0  0  0  0  0  0  0  0  0  0
   48.9140   35.3960   39.9770 H   0  0  0  0  0  0  0  0  0  0  0  0
   48.8380   33.4380   42.1740 O   0  0  0  0  0  0  0  0  0  0  0  0
   50.8070   32.1930   42.3090 C   0  0  1  0  0  0  0  0  0  0  0  0
   49.4470   32.3260   41.6530 C   0  0  2  0  0  0  0  0  0  0  0  0
   49.8130   32.4400   40.3140 O   0  0  0  0  0  0  0  0  0  0  0  0
   50.5650   31.2520   40.1690 C   0  0  0  0  0  0  0  0  0  0  0  0
   51.5910   31.4260   41.2690 C   0  0  1  0  0  0  0  0  0  0  0  0
   51.3370   33.4750   42.4230 O   0  0  0  0  0  0  0  0  0  0  0  0
   50.9780   34.0390   41.6960 H   0  0  0  0  0  0  0  0  0  0  0  0
   52.6160   32.2060   40.7480 O   0  0  0  0  0  0  0  0  0  0  0  0
   52.2690   32.8300   40.0450 H   0  0  0  0  0  0  0  0  0  0  0  0
  1  7  1  0  0  0  0
  1  6  1  0  0  0  0
  2  1  2  0  0  0  0
  3  2  1  0  0  0  0
  3  4  2  0  0  0  0
  4  5  1  0  0  0  0
  5  6  2  0  0  0  0
  5 10  1  0  0  0  0
  8  2  1  0  0  0  0
  9 14  1  6  0  0  0
  9 13  1  0  0  0  0
  9 20  1  0  0  0  0
 10 15  1  1  0  0  0
 10  9  1  0  0  0  0
 11 10  1  0  0  0  0
 11 12  1  0  0  0  0
 12 13  1  0  0  0  0
 13 18  1  0  0  0  0
 13 19  1  0  0  0  0
 16 11  1  0  0  0  0
 17 11  1  0  0  0  0
 20 21  1  0  0  0  0
 22  3  1  0  0  0  0
 24 23  2  6  0  0  0
 24 22  1  0  0  0  0
 24 27  1  0  0  0  0
 25 26  1  0  0  0  0
 25 24  1  0  0  0  0
 28 33  1  6  0  0  0
 29 27  1  1  0  0  0
 29 28  1  0  0  0  0
 30 29  1  0  0  0  0
 31 30  1  0  0  0  0
 31 32  1  0  0  0  0
 32 35  1  6  0  0  0
 32 28  1  0  0  0  0
 34 33  1  0  0  0  0
 36 35  1  0  0  0  0
M  END
>  <minimizedAffinity>
-6.55677128

>  <minimizedRMSD>
1.565431

$$$$
