
 OpenBabel03242523493D

 43 46  0  0  1  0  0  0  0  0999 V2000
   42.2600   34.1310   39.0540 C   0  0  1  0  0  0  0  0  0  0  0  0
   42.8140   35.0470   40.1500 C   0  0  1  0  0  0  0  0  0  0  0  0
   41.7370   35.7170   40.7640 O   0  0  0  0  0  0  0  0  0  0  0  0
   40.7100   36.0280   39.8710 C   0  0  0  0  0  0  0  0  0  0  0  0
   39.9790   34.7790   39.4220 C   0  0  2  0  0  0  0  0  0  0  0  0
   40.9510   33.5960   39.6070 C   0  0  1  0  0  0  0  0  0  0  0  0
   42.9820   33.3240   38.8210 H   0  0  0  0  0  0  0  0  0  0  0  0
   43.5300   35.7660   39.7440 H   0  0  0  0  0  0  0  0  0  0  0  0
   41.0430   36.6610   39.0350 H   0  0  0  0  0  0  0  0  0  0  0  0
   39.9850   36.6120   40.4580 H   0  0  0  0  0  0  0  0  0  0  0  0
   39.0310   34.6040   39.9460 H   0  0  0  0  0  0  0  0  0  0  0  0
   41.0770   33.4460   40.6840 H   0  0  0  0  0  0  0  0  0  0  0  0
   42.0240   34.8620   37.8910 O   0  0  0  0  0  0  0  0  0  0  0  0
   42.4850   34.5000   37.1100 H   0  0  0  0  0  0  0  0  0  0  0  0
   39.7910   34.8570   38.0390 O   0  0  0  0  0  0  0  0  0  0  0  0
   39.0750   34.2480   37.7330 H   0  0  0  0  0  0  0  0  0  0  0  0
   43.3010   34.1930   41.1470 O   0  0  0  0  0  0  0  0  0  0  0  0
   44.4460   34.3580   41.8200 C   0  0  0  0  0  0  0  0  0  0  0  0
   45.6610   34.4480   41.1480 C   0  0  0  0  0  0  0  0  0  0  0  0
   46.8210   34.6220   41.8840 C   0  0  0  0  0  0  0  0  0  0  0  0
   46.7450   34.7020   43.2670 N   0  0  0  0  0  0  0  0  0  0  0  0
   45.5490   34.6090   43.8800 C   0  0  0  0  0  0  0  0  0  0  0  0
   44.4060   34.4400   43.1730 N   0  0  0  0  0  0  0  0  0  0  0  0
   45.6940   34.3830   40.0780 H   0  0  0  0  0  0  0  0  0  0  0  0
   45.5600   34.6790   44.9640 H   0  0  0  0  0  0  0  0  0  0  0  0
   48.1600   34.7060   41.2090 C   0  0  0  0  0  0  0  0  0  0  0  0
   48.9980   35.9350   41.4800 C   0  0  0  0  0  0  0  0  0  0  0  0
   49.3670   34.5270   41.9720 C   0  0  0  0  0  0  0  0  0  0  0  0
   48.1140   34.3520   40.1490 H   0  0  0  0  0  0  0  0  0  0  0  0
   49.5740   36.3020   40.6340 H   0  0  0  0  0  0  0  0  0  0  0  0
   48.6240   36.6770   42.1870 H   0  0  0  0  0  0  0  0  0  0  0  0
   50.3010   34.1010   41.5830 H   0  0  0  0  0  0  0  0  0  0  0  0
   49.2810   34.4370   43.0790 H   0  0  0  0  0  0  0  0  0  0  0  0
   40.4910   32.4750   38.9510 O   0  0  0  0  0  0  0  0  0  0  0  0
   39.9320   31.9660   41.2400 C   0  0  2  0  0  0  0  0  0  0  0  0
   40.2320   31.4550   39.8560 C   0  0  2  0  0  0  0  0  0  0  0  0
   41.4550   30.8030   40.0450 O   0  0  0  0  0  0  0  0  0  0  0  0
   41.4200   30.1630   41.2600 C   0  0  0  0  0  0  0  0  0  0  0  0
   40.3110   30.7600   42.0910 C   0  0  1  0  0  0  0  0  0  0  0  0
   38.5540   32.1390   41.4580 O   0  0  0  0  0  0  0  0  0  0  0  0
   38.1160   31.2690   41.3700 H   0  0  0  0  0  0  0  0  0  0  0  0
   40.7340   31.1290   43.3630 O   0  0  0  0  0  0  0  0  0  0  0  0
   40.5500   30.3560   43.9810 H   0  0  0  0  0  0  0  0  0  0  0  0
  1  7  1  6  0  0  0
  1  6  1  0  0  0  0
  1  2  1  0  0  0  0
  2  8  1  6  0  0  0
  2  3  1  0  0  0  0
  2 17  1  0  0  0  0
  4 10  1  0  0  0  0
  4  3  1  0  0  0  0
  5  6  1  0  0  0  0
  5  4  1  0  0  0  0
  5 11  1  1  0  0  0
  6 12  1  1  0  0  0
  9  4  1  0  0  0  0
 13  1  1  0  0  0  0
 14 13  1  0  0  0  0
 15  5  1  0  0  0  0
 16 15  1  0  0  0  0
 17 18  1  0  0  0  0
 18 23  1  0  0  0  0
 19 18  2  0  0  0  0
 19 20  1  0  0  0  0
 20 21  2  0  0  0  0
 21 22  1  0  0  0  0
 22 25  1  0  0  0  0
 23 22  2  0  0  0  0
 24 19  1  0  0  0  0
 26 27  1  0  0  0  0
 26 20  1  0  0  0  0
 26 28  1  0  0  0  0
 27 28  1  0  0  0  0
 27 31  1  0  0  0  0
 28 33  1  0  0  0  0
 29 26  1  0  0  0  0
 30 27  1  0  0  0  0
 32 28  1  0  0  0  0
 34  6  1  0  0  0  0
 35 40  1  6  0  0  0
 35 39  1  0  0  0  0
 36 34  1  6  0  0  0
 36 37  1  0  0  0  0
 36 35  1  0  0  0  0
 37 38  1  0  0  0  0
 38 39  1  0  0  0  0
 39 42  1  1  0  0  0
 41 40  1  0  0  0  0
 42 43  1  0  0  0  0
M  END
>  <minimizedAffinity>
-6.4994812

>  <minimizedRMSD>
1.58557785

$$$$
