
 OpenBabel03252505133D

 44 47  0  0  1  0  0  0  0  0999 V2000
   36.2430   30.9940   40.6440 C   0  0  0  0  0  0  0  0  0  0  0  0
   37.0650   32.1180   40.4000 C   0  0  0  0  0  0  0  0  0  0  0  0
   38.4260   32.0530   40.8410 C   0  0  0  0  0  0  0  0  0  0  0  0
   38.8550   30.9360   41.4590 N   0  0  0  0  0  0  0  0  0  0  0  0
   38.0460   29.8860   41.6740 C   0  0  0  0  0  0  0  0  0  0  0  0
   36.7310   29.9060   41.2670 N   0  0  0  0  0  0  0  0  0  0  0  0
   35.2080   30.9950   40.3300 H   0  0  0  0  0  0  0  0  0  0  0  0
   36.6690   32.9860   39.9010 H   0  0  0  0  0  0  0  0  0  0  0  0
   38.5730   28.6850   42.3640 C   0  0  2  0  0  0  0  0  0  0  0  0
   39.0690   27.7810   41.2540 C   0  0  0  0  0  0  0  0  0  0  0  0
   38.2240   26.6190   40.9340 C   0  0  0  0  0  0  0  0  0  0  0  0
   38.0870   25.8640   42.2550 C   0  0  0  0  0  0  0  0  0  0  0  0
   37.3220   26.6290   43.2330 C   0  0  0  0  0  0  0  0  0  0  0  0
   37.6150   28.0810   43.2440 C   0  0  0  0  0  0  0  0  0  0  0  0
   39.4520   29.0530   42.9520 H   0  0  0  0  0  0  0  0  0  0  0  0
   40.0680   27.4050   41.5560 H   0  0  0  0  0  0  0  0  0  0  0  0
   39.2590   28.3290   40.3000 H   0  0  0  0  0  0  0  0  0  0  0  0
   38.7850   25.9520   40.2750 H   0  0  0  0  0  0  0  0  0  0  0  0
   37.2190   26.8620   40.5620 H   0  0  0  0  0  0  0  0  0  0  0  0
   39.0860   25.6120   42.6510 H   0  0  0  0  0  0  0  0  0  0  0  0
   37.4710   24.9810   42.0090 H   0  0  0  0  0  0  0  0  0  0  0  0
   36.5840   26.4240   43.9680 H   0  0  0  0  0  0  0  0  0  0  0  0
   36.9320   28.9490   44.1550 N   0  0  0  0  0  0  0  0  0  0  0  0
   35.9730   28.9460   43.7370 H   0  0  0  0  0  0  0  0  0  0  0  0
   37.5670   29.2900   44.9020 H   0  0  0  0  0  0  0  0  0  0  0  0
   39.2890   33.1900   40.5990 C   0  0  0  0  0  0  0  0  0  0  0  0
   38.7110   34.4090   40.3670 C   0  0  0  0  0  0  0  0  0  0  0  0
   39.6050   35.4740   40.1390 C   0  0  0  0  0  0  0  0  0  0  0  0
   40.9540   35.1780   40.1720 C   0  0  0  0  0  0  0  0  0  0  0  0
   41.5300   33.9730   40.4000 C   0  0  0  0  0  0  0  0  0  0  0  0
   40.6290   32.9690   40.6170 N   0  0  0  0  0  0  0  0  0  0  0  0
   37.6330   34.4930   40.3710 H   0  0  0  0  0  0  0  0  0  0  0  0
   39.1530   36.4260   39.9580 H   0  0  0  0  0  0  0  0  0  0  0  0
   41.5140   36.0810   39.9820 H   0  0  0  0  0  0  0  0  0  0  0  0
   42.8780   33.7530   40.4170 O   0  0  0  0  0  0  0  0  0  0  0  0
   44.4690   34.0710   38.6160 C   0  0  1  0  0  3  0  0  0  0  0  0
   43.5990   33.1080   39.4470 C   0  0  2  0  0  3  0  0  0  0  0  0
   42.8030   32.5730   38.4320 O   0  0  0  0  0  0  0  0  0  0  0  0
   43.5660   32.4050   37.3060 C   0  0  0  0  0  2  0  0  0  0  0  0
   44.9180   33.0380   37.5730 C   0  0  1  0  0  3  0  0  0  0  0  0
   43.6900   34.9780   37.9280 O   0  0  0  0  0  0  0  0  0  0  0  0
   43.4420   35.7810   38.4190 H   0  0  0  0  0  0  0  0  0  0  0  0
   45.4600   33.6200   36.4460 O   0  0  0  0  0  0  0  0  0  0  0  0
   46.0770   34.3460   36.6260 H   0  0  0  0  0  0  0  0  0  0  0  0
  1  6  1  0  0  0  0
  2  1  2  0  0  0  0
  2  3  1  0  0  0  0
  3  4  2  0  0  0  0
  4  5  1  0  0  0  0
  5  9  1  0  0  0  0
  6  5  2  0  0  0  0
  7  1  1  0  0  0  0
  8  2  1  0  0  0  0
  9 15  1  1  0  0  0
  9 14  1  0  0  0  0
 10 16  1  0  0  0  0
 10  9  1  0  0  0  0
 11 10  1  0  0  0  0
 11 12  1  0  0  0  0
 12 20  1  0  0  0  0
 12 13  1  0  0  0  0
 13 14  2  0  0  0  0
 13 22  1  0  0  0  0
 14 23  1  0  0  0  0
 17 10  1  0  0  0  0
 18 11  1  0  0  0  0
 19 11  1  0  0  0  0
 21 12  1  0  0  0  0
 23 25  1  0  0  0  0
 24 23  1  0  0  0  0
 26 31  1  0  0  0  0
 26  3  1  0  0  0  0
 27 32  1  0  0  0  0
 27 26  2  0  0  0  0
 28 29  2  0  0  0  0
 28 27  1  0  0  0  0
 29 30  1  0  0  0  0
 30 35  1  0  0  0  0
 30 31  2  0  0  0  0
 33 28  1  0  0  0  0
 34 29  1  0  0  0  0
 36 41  1  6  0  0  0
 36 37  1  0  0  0  0
 37 35  1  1  0  0  0
 38 37  1  0  0  0  0
 39 40  1  0  0  0  0
 39 38  1  0  0  0  0
 40 43  1  6  0  0  0
 40 36  1  0  0  0  0
 41 42  1  0  0  0  0
 43 44  1  0  0  0  0
M  END
>  <minimizedAffinity>
-7.54483795

$$$$

 OpenBabel03252505133D

 44 47  0  0  1  0  0  0  0  0999 V2000
   36.2170   30.8050   40.6780 C   0  0  0  0  0  0  0  0  0  0  0  0
   36.9620   31.9650   40.3650 C   0  0  0  0  0  0  0  0  0  0  0  0
   38.3290   32.0090   40.7890 C   0  0  0  0  0  0  0  0  0  0  0  0
   38.8360   30.9550   41.4570 N   0  0  0  0  0  0  0  0  0  0  0  0
   38.0990   29.8680   41.7370 C   0  0  0  0  0  0  0  0  0  0  0  0
   36.7810   29.7830   41.3490 N   0  0  0  0  0  0  0  0  0  0  0  0
   35.1800   30.7240   40.3800 H   0  0  0  0  0  0  0  0  0  0  0  0
   36.5060   32.7790   39.8290 H   0  0  0  0  0  0  0  0  0  0  0  0
   38.7090   28.7400   42.4790 C   0  0  2  0  0  0  0  0  0  0  0  0
   39.3670   27.8830   41.4170 C   0  0  0  0  0  0  0  0  0  0  0  0
   38.6750   26.6320   41.0700 C   0  0  0  0  0  0  0  0  0  0  0  0
   38.5390   25.8820   42.3940 C   0  0  0  0  0  0  0  0  0  0  0  0
   37.6370   26.5700   43.3100 C   0  0  0  0  0  0  0  0  0  0  0  0
   37.7700   28.0460   43.3110 C   0  0  0  0  0  0  0  0  0  0  0  0
   39.5060   29.2090   43.1110 H   0  0  0  0  0  0  0  0  0  0  0  0
   40.3810   27.6220   41.7860 H   0  0  0  0  0  0  0  0  0  0  0  0
   39.5560   28.4370   40.4670 H   0  0  0  0  0  0  0  0  0  0  0  0
   39.3440   26.0220   40.4580 H   0  0  0  0  0  0  0  0  0  0  0  0
   37.6740   26.7590   40.6340 H   0  0  0  0  0  0  0  0  0  0  0  0
   39.5340   25.7460   42.8530 H   0  0  0  0  0  0  0  0  0  0  0  0
   38.0390   24.9350   42.1280 H   0  0  0  0  0  0  0  0  0  0  0  0
   36.8820   26.2950   44.0030 H   0  0  0  0  0  0  0  0  0  0  0  0
   36.9430   28.8440   44.1640 N   0  0  0  0  0  0  0  0  0  0  0  0
   36.0170   28.7320   43.6900 H   0  0  0  0  0  0  0  0  0  0  0  0
   37.4900   29.2620   44.9420 H   0  0  0  0  0  0  0  0  0  0  0  0
   39.1150   33.1850   40.4770 C   0  0  0  0  0  0  0  0  0  0  0  0
   38.4600   34.3690   40.2660 C   0  0  0  0  0  0  0  0  0  0  0  0
   39.2820   35.4730   39.9670 C   0  0  0  0  0  0  0  0  0  0  0  0
   40.6440   35.2470   39.9170 C   0  0  0  0  0  0  0  0  0  0  0  0
   41.2950   34.0780   40.1250 C   0  0  0  0  0  0  0  0  0  0  0  0
   40.4630   33.0330   40.4130 N   0  0  0  0  0  0  0  0  0  0  0  0
   37.3820   34.3970   40.3380 H   0  0  0  0  0  0  0  0  0  0  0  0
   38.7700   36.3980   39.8030 H   0  0  0  0  0  0  0  0  0  0  0  0
   41.1420   36.1750   39.6800 H   0  0  0  0  0  0  0  0  0  0  0  0
   42.6510   33.9280   40.0580 O   0  0  0  0  0  0  0  0  0  0  0  0
   43.8330   33.2460   42.0620 C   0  0  1  0  0  3  0  0  0  0  0  0
   43.5530   34.3330   41.0060 C   0  0  2  0  0  3  0  0  0  0  0  0
   43.0630   35.3460   41.8350 O   0  0  0  0  0  0  0  0  0  0  0  0
   43.7710   35.3450   43.0080 C   0  0  0  0  0  2  0  0  0  0  0  0
   44.6750   34.1270   42.9950 C   0  0  1  0  0  3  0  0  0  0  0  0
   42.6920   32.9360   42.7730 O   0  0  0  0  0  0  0  0  0  0  0  0
   42.1140   32.2620   42.3730 H   0  0  0  0  0  0  0  0  0  0  0  0
   44.8340   33.5750   44.2490 O   0  0  0  0  0  0  0  0  0  0  0  0
   45.0430   32.6270   44.2460 H   0  0  0  0  0  0  0  0  0  0  0  0
  1  6  1  0  0  0  0
  2  1  2  0  0  0  0
  2  3  1  0  0  0  0
  3  4  2  0  0  0  0
  4  5  1  0  0  0  0
  5  9  1  0  0  0  0
  6  5  2  0  0  0  0
  7  1  1  0  0  0  0
  8  2  1  0  0  0  0
  9 15  1  1  0  0  0
  9 14  1  0  0  0  0
 10 16  1  0  0  0  0
 10  9  1  0  0  0  0
 11 10  1  0  0  0  0
 11 12  1  0  0  0  0
 12 20  1  0  0  0  0
 12 13  1  0  0  0  0
 13 14  2  0  0  0  0
 13 22  1  0  0  0  0
 14 23  1  0  0  0  0
 17 10  1  0  0  0  0
 18 11  1  0  0  0  0
 19 11  1  0  0  0  0
 21 12  1  0  0  0  0
 23 25  1  0  0  0  0
 24 23  1  0  0  0  0
 26  3  1  0  0  0  0
 27 32  1  0  0  0  0
 27 26  2  0  0  0  0
 28 27  1  0  0  0  0
 29 28  2  0  0  0  0
 29 30  1  0  0  0  0
 30 31  2  0  0  0  0
 31 26  1  0  0  0  0
 33 28  1  0  0  0  0
 34 29  1  0  0  0  0
 35 30  1  0  0  0  0
 36 41  1  1  0  0  0
 36 40  1  0  0  0  0
 37 35  1  6  0  0  0
 37 38  1  0  0  0  0
 37 36  1  0  0  0  0
 38 39  1  0  0  0  0
 40 39  1  0  0  0  0
 40 43  1  1  0  0  0
 42 41  1  0  0  0  0
 44 43  1  0  0  0  0
M  END
>  <minimizedAffinity>
-7.46976662

$$$$

 OpenBabel03252505133D

 44 47  0  0  1  0  0  0  0  0999 V2000
   35.5500   29.0600   39.3090 C   0  0  0  0  0  0  0  0  0  0  0  0
   36.3440   30.2160   39.1320 C   0  0  0  0  0  0  0  0  0  0  0  0
   37.4080   30.4390   40.0640 C   0  0  0  0  0  0  0  0  0  0  0  0
   37.6000   29.5460   41.0550 N   0  0  0  0  0  0  0  0  0  0  0  0
   36.8260   28.4570   41.1930 C   0  0  0  0  0  0  0  0  0  0  0  0
   35.7920   28.2050   40.3190 N   0  0  0  0  0  0  0  0  0  0  0  0
   34.7340   28.8480   38.6300 H   0  0  0  0  0  0  0  0  0  0  0  0
   36.1460   30.8960   38.3220 H   0  0  0  0  0  0  0  0  0  0  0  0
   37.0810   27.5120   42.3050 C   0  0  2  0  0  0  0  0  0  0  0  0
   37.9330   28.2870   43.2890 C   0  0  0  0  0  0  0  0  0  0  0  0
   39.3630   27.9410   43.3240 C   0  0  0  0  0  0  0  0  0  0  0  0
   39.3940   26.4410   43.6110 C   0  0  0  0  0  0  0  0  0  0  0  0
   38.8470   25.6710   42.5010 C   0  0  0  0  0  0  0  0  0  0  0  0
   37.6530   26.2730   41.8640 C   0  0  0  0  0  0  0  0  0  0  0  0
   36.0760   27.3270   42.7620 H   0  0  0  0  0  0  0  0  0  0  0  0
   37.5140   28.1080   44.3010 H   0  0  0  0  0  0  0  0  0  0  0  0
   37.8580   29.3920   43.1530 H   0  0  0  0  0  0  0  0  0  0  0  0
   39.8140   28.4140   44.2000 H   0  0  0  0  0  0  0  0  0  0  0  0
   39.9120   28.1320   42.3900 H   0  0  0  0  0  0  0  0  0  0  0  0
   38.8460   26.2250   44.5440 H   0  0  0  0  0  0  0  0  0  0  0  0
   40.4680   26.1890   43.6590 H   0  0  0  0  0  0  0  0  0  0  0  0
   39.0780   24.7620   42.0030 H   0  0  0  0  0  0  0  0  0  0  0  0
   37.0170   25.6200   40.7600 N   0  0  0  0  0  0  0  0  0  0  0  0
   37.7330   25.7710   40.0130 H   0  0  0  0  0  0  0  0  0  0  0  0
   36.0960   25.2250   41.0320 H   0  0  0  0  0  0  0  0  0  0  0  0
   38.2400   31.6130   39.9020 C   0  0  0  0  0  0  0  0  0  0  0  0
   37.9960   32.6980   40.7010 C   0  0  0  0  0  0  0  0  0  0  0  0
   38.8390   33.8080   40.4930 C   0  0  0  0  0  0  0  0  0  0  0  0
   39.8100   33.6840   39.5180 C   0  0  0  0  0  0  0  0  0  0  0  0
   40.0540   32.6130   38.7270 C   0  0  0  0  0  0  0  0  0  0  0  0
   39.2160   31.5590   38.9600 N   0  0  0  0  0  0  0  0  0  0  0  0
   37.1960   32.6520   41.4270 H   0  0  0  0  0  0  0  0  0  0  0  0
   38.6490   34.6550   41.1180 H   0  0  0  0  0  0  0  0  0  0  0  0
   40.3760   34.6030   39.4720 H   0  0  0  0  0  0  0  0  0  0  0  0
   41.0350   32.5620   37.7780 O   0  0  0  0  0  0  0  0  0  0  0  0
   43.0270   33.9400   37.8660 C   0  0  1  0  0  3  0  0  0  0  0  0
   42.3840   32.5480   38.0160 C   0  0  2  0  0  3  0  0  0  0  0  0
   43.1080   31.8470   37.0480 O   0  0  0  0  0  0  0  0  0  0  0  0
   44.4080   32.2810   37.0600 C   0  0  0  0  0  2  0  0  0  0  0  0
   44.4830   33.4710   37.9980 C   0  0  1  0  0  3  0  0  0  0  0  0
   42.9050   34.4080   36.5740 O   0  0  0  0  0  0  0  0  0  0  0  0
   42.0750   34.8770   36.3700 H   0  0  0  0  0  0  0  0  0  0  0  0
   45.3890   34.4200   37.5740 O   0  0  0  0  0  0  0  0  0  0  0  0
   45.1980   35.3220   37.8770 H   0  0  0  0  0  0  0  0  0  0  0  0
  1  6  1  0  0  0  0
  2  1  2  0  0  0  0
  2  3  1  0  0  0  0
  3  4  2  0  0  0  0
  4  5  1  0  0  0  0
  5  9  1  0  0  0  0
  6  5  2  0  0  0  0
  7  1  1  0  0  0  0
  8  2  1  0  0  0  0
  9 15  1  1  0  0  0
  9 10  1  0  0  0  0
 10 11  1  0  0  0  0
 10 16  1  0  0  0  0
 11 12  1  0  0  0  0
 11 18  1  0  0  0  0
 12 21  1  0  0  0  0
 12 20  1  0  0  0  0
 13 12  1  0  0  0  0
 14  9  1  0  0  0  0
 14 13  2  0  0  0  0
 17 10  1  0  0  0  0
 19 11  1  0  0  0  0
 22 13  1  0  0  0  0
 23 25  1  0  0  0  0
 23 14  1  0  0  0  0
 24 23  1  0  0  0  0
 26  3  1  0  0  0  0
 26 27  1  0  0  0  0
 27 32  1  0  0  0  0
 28 27  2  0  0  0  0
 28 33  1  0  0  0  0
 29 28  1  0  0  0  0
 30 31  1  0  0  0  0
 30 29  2  0  0  0  0
 31 26  2  0  0  0  0
 34 29  1  0  0  0  0
 35 30  1  0  0  0  0
 36 41  1  6  0  0  0
 36 40  1  0  0  0  0
 36 37  1  0  0  0  0
 37 35  1  6  0  0  0
 38 39  1  0  0  0  0
 38 37  1  0  0  0  0
 39 40  1  0  0  0  0
 40 43  1  6  0  0  0
 42 41  1  0  0  0  0
 43 44  1  0  0  0  0
M  END
>  <minimizedAffinity>
-6.98062515

$$$$

 OpenBabel03252505133D

 44 47  0  0  1  0  0  0  0  0999 V2000
   36.0410   24.1620   39.0590 C   0  0  0  0  0  0  0  0  0  0  0  0
   36.1420   25.2800   38.2000 C   0  0  0  0  0  0  0  0  0  0  0  0
   36.6600   26.4960   38.7510 C   0  0  0  0  0  0  0  0  0  0  0  0
   37.0240   26.5170   40.0480 N   0  0  0  0  0  0  0  0  0  0  0  0
   36.9150   25.4350   40.8360 C   0  0  0  0  0  0  0  0  0  0  0  0
   36.4220   24.2460   40.3470 N   0  0  0  0  0  0  0  0  0  0  0  0
   35.6560   23.2210   38.6890 H   0  0  0  0  0  0  0  0  0  0  0  0
   35.8360   25.2070   37.1710 H   0  0  0  0  0  0  0  0  0  0  0  0
   37.3270   25.5180   42.2570 C   0  0  2  0  0  0  0  0  0  0  0  0
   37.2890   26.9960   42.5900 C   0  0  0  0  0  0  0  0  0  0  0  0
   38.5910   27.6740   42.6860 C   0  0  0  0  0  0  0  0  0  0  0  0
   39.3660   26.8810   43.7370 C   0  0  0  0  0  0  0  0  0  0  0  0
   39.6770   25.5340   43.2710 C   0  0  0  0  0  0  0  0  0  0  0  0
   38.5860   24.8800   42.5120 C   0  0  0  0  0  0  0  0  0  0  0  0
   36.5140   24.9980   42.8240 H   0  0  0  0  0  0  0  0  0  0  0  0
   36.7760   27.1010   43.5680 H   0  0  0  0  0  0  0  0  0  0  0  0
   36.6560   27.5840   41.8830 H   0  0  0  0  0  0  0  0  0  0  0  0
   38.4370   28.6630   43.1250 H   0  0  0  0  0  0  0  0  0  0  0  0
   39.1780   27.6930   41.7560 H   0  0  0  0  0  0  0  0  0  0  0  0
   38.7940   26.8460   44.6800 H   0  0  0  0  0  0  0  0  0  0  0  0
   40.3340   27.4050   43.8230 H   0  0  0  0  0  0  0  0  0  0  0  0
   40.5010   24.8680   43.3270 H   0  0  0  0  0  0  0  0  0  0  0  0
   38.7590   23.5560   41.9950 N   0  0  0  0  0  0  0  0  0  0  0  0
   39.4470   23.7400   41.2290 H   0  0  0  0  0  0  0  0  0  0  0  0
   38.1800   22.8670   42.5130 H   0  0  0  0  0  0  0  0  0  0  0  0
   36.7780   27.6540   37.8900 C   0  0  0  0  0  0  0  0  0  0  0  0
   36.8680   27.4540   36.5390 C   0  0  0  0  0  0  0  0  0  0  0  0
   36.9800   28.6210   35.7570 C   0  0  0  0  0  0  0  0  0  0  0  0
   36.9890   29.8280   36.4300 C   0  0  0  0  0  0  0  0  0  0  0  0
   36.9010   30.0300   37.7660 C   0  0  0  0  0  0  0  0  0  0  0  0
   36.7930   28.8740   38.4870 N   0  0  0  0  0  0  0  0  0  0  0  0
   36.8470   26.4460   36.1500 H   0  0  0  0  0  0  0  0  0  0  0  0
   37.0500   28.4640   34.7010 H   0  0  0  0  0  0  0  0  0  0  0  0
   37.0790   30.6270   35.7090 H   0  0  0  0  0  0  0  0  0  0  0  0
   36.9180   31.2580   38.3640 O   0  0  0  0  0  0  0  0  0  0  0  0
   37.3430   32.8800   40.1130 C   0  0  1  0  0  3  0  0  0  0  0  0
   37.8530   31.7030   39.2600 C   0  0  2  0  0  3  0  0  0  0  0  0
   38.9530   32.3120   38.6520 O   0  0  0  0  0  0  0  0  0  0  0  0
   39.5630   33.1410   39.5570 C   0  0  0  0  0  2  0  0  0  0  0  0
   38.6840   33.1930   40.7920 C   0  0  1  0  0  3  0  0  0  0  0  0
   37.0590   33.9780   39.3290 O   0  0  0  0  0  0  0  0  0  0  0  0
   36.1670   34.0010   38.9390 H   0  0  0  0  0  0  0  0  0  0  0  0
   38.6990   34.4320   41.3970 O   0  0  0  0  0  0  0  0  0  0  0  0
   37.8990   34.6390   41.9070 H   0  0  0  0  0  0  0  0  0  0  0  0
  1  6  1  0  0  0  0
  2  3  1  0  0  0  0
  2  1  2  0  0  0  0
  3  4  2  0  0  0  0
  4  5  1  0  0  0  0
  5  9  1  0  0  0  0
  6  5  2  0  0  0  0
  7  1  1  0  0  0  0
  8  2  1  0  0  0  0
  9 14  1  0  0  0  0
  9 10  1  0  0  0  0
  9 15  1  1  0  0  0
 10 11  1  0  0  0  0
 10 16  1  0  0  0  0
 11 18  1  0  0  0  0
 11 12  1  0  0  0  0
 12 21  1  0  0  0  0
 12 20  1  0  0  0  0
 13 22  1  0  0  0  0
 13 12  1  0  0  0  0
 14 13  2  0  0  0  0
 17 10  1  0  0  0  0
 19 11  1  0  0  0  0
 23 14  1  0  0  0  0
 23 25  1  0  0  0  0
 24 23  1  0  0  0  0
 26 31  1  0  0  0  0
 26  3  1  0  0  0  0
 27 26  2  0  0  0  0
 28 29  2  0  0  0  0
 28 27  1  0  0  0  0
 29 30  1  0  0  0  0
 30 35  1  0  0  0  0
 30 31  2  0  0  0  0
 32 27  1  0  0  0  0
 33 28  1  0  0  0  0
 34 29  1  0  0  0  0
 36 41  1  6  0  0  0
 36 40  1  0  0  0  0
 37 35  1  6  0  0  0
 37 36  1  0  0  0  0
 38 37  1  0  0  0  0
 38 39  1  0  0  0  0
 39 40  1  0  0  0  0
 40 43  1  6  0  0  0
 42 41  1  0  0  0  0
 43 44  1  0  0  0  0
M  END
>  <minimizedAffinity>
-6.96245384

$$$$

 OpenBabel03252505133D

 44 47  0  0  1  0  0  0  0  0999 V2000
   38.4570   35.2460   40.2120 C   0  0  0  0  0  0  0  0  0  0  0  0
   37.9110   33.9730   39.9280 C   0  0  0  0  0  0  0  0  0  0  0  0
   38.8170   32.9380   39.5290 C   0  0  0  0  0  0  0  0  0  0  0  0
   40.1310   33.2220   39.4450 N   0  0  0  0  0  0  0  0  0  0  0  0
   40.6150   34.4440   39.7240 C   0  0  0  0  0  0  0  0  0  0  0  0
   39.7800   35.4680   40.1110 N   0  0  0  0  0  0  0  0  0  0  0  0
   37.8130   36.0600   40.5170 H   0  0  0  0  0  0  0  0  0  0  0  0
   36.8520   33.8020   40.0100 H   0  0  0  0  0  0  0  0  0  0  0  0
   42.0700   34.6990   39.6110 C   0  0  2  0  0  0  0  0  0  0  0  0
   42.3510   34.7130   38.1220 C   0  0  0  0  0  0  0  0  0  0  0  0
   43.0200   33.5220   37.5760 C   0  0  0  0  0  0  0  0  0  0  0  0
   44.3060   33.3900   38.3900 C   0  0  0  0  0  0  0  0  0  0  0  0
   44.0280   33.0600   39.7830 C   0  0  0  0  0  0  0  0  0  0  0  0
   42.8610   33.7670   40.3600 C   0  0  0  0  0  0  0  0  0  0  0  0
   42.2130   35.7330   40.0160 H   0  0  0  0  0  0  0  0  0  0  0  0
   42.9960   35.5920   37.9160 H   0  0  0  0  0  0  0  0  0  0  0  0
   41.4360   34.8940   37.5090 H   0  0  0  0  0  0  0  0  0  0  0  0
   43.3430   33.7410   36.5550 H   0  0  0  0  0  0  0  0  0  0  0  0
   42.4500   32.5850   37.6640 H   0  0  0  0  0  0  0  0  0  0  0  0
   44.8930   34.3210   38.3180 H   0  0  0  0  0  0  0  0  0  0  0  0
   44.8160   32.5090   37.9640 H   0  0  0  0  0  0  0  0  0  0  0  0
   44.4470   32.4290   40.5260 H   0  0  0  0  0  0  0  0  0  0  0  0
   42.4760   33.5340   41.7190 N   0  0  0  0  0  0  0  0  0  0  0  0
   42.0980   32.5620   41.6460 H   0  0  0  0  0  0  0  0  0  0  0  0
   42.6810   34.3570   42.3190 H   0  0  0  0  0  0  0  0  0  0  0  0
   38.2850   31.6240   39.2360 C   0  0  0  0  0  0  0  0  0  0  0  0
   37.3680   31.5030   38.2250 C   0  0  0  0  0  0  0  0  0  0  0  0
   36.8890   30.1990   37.9910 C   0  0  0  0  0  0  0  0  0  0  0  0
   37.3880   29.1930   38.7960 C   0  0  0  0  0  0  0  0  0  0  0  0
   38.2940   29.3090   39.7960 C   0  0  0  0  0  0  0  0  0  0  0  0
   38.7340   30.5880   39.9900 N   0  0  0  0  0  0  0  0  0  0  0  0
   37.0680   32.3840   37.6750 H   0  0  0  0  0  0  0  0  0  0  0  0
   36.1730   30.1050   37.2010 H   0  0  0  0  0  0  0  0  0  0  0  0
   36.9360   28.2570   38.5040 H   0  0  0  0  0  0  0  0  0  0  0  0
   38.7430   28.2660   40.5550 O   0  0  0  0  0  0  0  0  0  0  0  0
   37.4080   28.8230   42.4990 C   0  0  1  0  0  3  0  0  0  0  0  0
   38.1180   27.7460   41.6570 C   0  0  2  0  0  3  0  0  0  0  0  0
   39.0070   27.2480   42.6120 O   0  0  0  0  0  0  0  0  0  0  0  0
   38.3840   27.2170   43.8320 C   0  0  0  0  0  2  0  0  0  0  0  0
   37.0420   27.9070   43.6750 C   0  0  1  0  0  3  0  0  0  0  0  0
   38.3110   29.7340   43.0060 O   0  0  0  0  0  0  0  0  0  0  0  0
   38.5350   30.4790   42.4200 H   0  0  0  0  0  0  0  0  0  0  0  0
   36.6750   28.6090   44.8040 O   0  0  0  0  0  0  0  0  0  0  0  0
   36.0770   29.3550   44.6360 H   0  0  0  0  0  0  0  0  0  0  0  0
  1  7  1  0  0  0  0
  2  8  1  0  0  0  0
  2  1  2  0  0  0  0
  3  2  1  0  0  0  0
  4  3  2  0  0  0  0
  4  5  1  0  0  0  0
  5  6  2  0  0  0  0
  6  1  1  0  0  0  0
  9  5  1  0  0  0  0
  9 15  1  1  0  0  0
  9 14  1  0  0  0  0
 10  9  1  0  0  0  0
 11 19  1  0  0  0  0
 11 10  1  0  0  0  0
 11 12  1  0  0  0  0
 12 13  1  0  0  0  0
 13 14  2  0  0  0  0
 13 22  1  0  0  0  0
 14 23  1  0  0  0  0
 16 10  1  0  0  0  0
 17 10  1  0  0  0  0
 18 11  1  0  0  0  0
 20 12  1  0  0  0  0
 21 12  1  0  0  0  0
 23 25  1  0  0  0  0
 24 23  1  0  0  0  0
 26  3  1  0  0  0  0
 26 31  1  0  0  0  0
 27 26  2  0  0  0  0
 28 27  1  0  0  0  0
 28 29  2  0  0  0  0
 29 30  1  0  0  0  0
 30 31  2  0  0  0  0
 30 35  1  0  0  0  0
 32 27  1  0  0  0  0
 33 28  1  0  0  0  0
 34 29  1  0  0  0  0
 36 41  1  1  0  0  0
 36 40  1  0  0  0  0
 37 35  1  6  0  0  0
 37 36  1  0  0  0  0
 37 38  1  0  0  0  0
 38 39  1  0  0  0  0
 40 39  1  0  0  0  0
 40 43  1  1  0  0  0
 42 41  1  0  0  0  0
 44 43  1  0  0  0  0
M  END
>  <minimizedAffinity>
-6.94524384

$$$$

 OpenBabel03252505133D

 44 47  0  0  1  0  0  0  0  0999 V2000
   39.2970   28.8870   42.9510 C   0  0  0  0  0  0  0  0  0  0  0  0
   39.6250   30.1780   42.4770 C   0  0  0  0  0  0  0  0  0  0  0  0
   38.8580   30.6970   41.3840 C   0  0  0  0  0  0  0  0  0  0  0  0
   37.8710   29.9400   40.8660 N   0  0  0  0  0  0  0  0  0  0  0  0
   37.5870   28.7170   41.3420 C   0  0  0  0  0  0  0  0  0  0  0  0
   38.2990   28.1800   42.3910 N   0  0  0  0  0  0  0  0  0  0  0  0
   39.8480   28.4520   43.7740 H   0  0  0  0  0  0  0  0  0  0  0  0
   40.4240   30.7390   42.9280 H   0  0  0  0  0  0  0  0  0  0  0  0
   36.4930   27.9280   40.7300 C   0  0  2  0  0  0  0  0  0  0  0  0
   37.1890   26.9130   39.8460 C   0  0  0  0  0  0  0  0  0  0  0  0
   37.1450   27.1730   38.3980 C   0  0  0  0  0  0  0  0  0  0  0  0
   35.6570   27.2800   38.0680 C   0  0  0  0  0  0  0  0  0  0  0  0
   35.0550   28.4590   38.6810 C   0  0  0  0  0  0  0  0  0  0  0  0
   35.5250   28.7440   40.0560 C   0  0  0  0  0  0  0  0  0  0  0  0
   36.0100   27.3920   41.5860 H   0  0  0  0  0  0  0  0  0  0  0  0
   36.7100   25.9300   40.0320 H   0  0  0  0  0  0  0  0  0  0  0  0
   38.2580   26.7540   40.1260 H   0  0  0  0  0  0  0  0  0  0  0  0
   37.4950   26.2800   37.8740 H   0  0  0  0  0  0  0  0  0  0  0  0
   37.6450   28.0970   38.0750 H   0  0  0  0  0  0  0  0  0  0  0  0
   35.1330   26.3630   38.3880 H   0  0  0  0  0  0  0  0  0  0  0  0
   35.6260   27.4530   36.9780 H   0  0  0  0  0  0  0  0  0  0  0  0
   34.3460   29.1970   38.4020 H   0  0  0  0  0  0  0  0  0  0  0  0
   35.0160   29.8740   40.7730 N   0  0  0  0  0  0  0  0  0  0  0  0
   35.4700   30.6540   40.2460 H   0  0  0  0  0  0  0  0  0  0  0  0
   34.3910   29.5810   41.5490 H   0  0  0  0  0  0  0  0  0  0  0  0
   39.1700   32.0190   40.8830 C   0  0  0  0  0  0  0  0  0  0  0  0
   38.1340   32.8620   40.5790 C   0  0  0  0  0  0  0  0  0  0  0  0
   38.5050   34.1320   40.0960 C   0  0  0  0  0  0  0  0  0  0  0  0
   39.8570   34.3900   39.9810 C   0  0  0  0  0  0  0  0  0  0  0  0
   40.8840   33.5590   40.2800 C   0  0  0  0  0  0  0  0  0  0  0  0
   40.4830   32.3390   40.7450 N   0  0  0  0  0  0  0  0  0  0  0  0
   37.1180   32.5230   40.7210 H   0  0  0  0  0  0  0  0  0  0  0  0
   37.6950   34.7900   39.8600 H   0  0  0  0  0  0  0  0  0  0  0  0
   39.9890   35.3920   39.6020 H   0  0  0  0  0  0  0  0  0  0  0  0
   42.2040   33.8830   40.1380 O   0  0  0  0  0  0  0  0  0  0  0  0
   43.9410   34.2400   38.4870 C   0  0  1  0  0  3  0  0  0  0  0  0
   43.1030   33.2510   39.3200 C   0  0  2  0  0  3  0  0  0  0  0  0
   42.4980   32.5270   38.2910 O   0  0  0  0  0  0  0  0  0  0  0  0
   43.4000   32.3580   37.2730 C   0  0  0  0  0  2  0  0  0  0  0  0
   44.6270   33.1830   37.6090 C   0  0  1  0  0  3  0  0  0  0  0  0
   43.1440   34.9710   37.6310 O   0  0  0  0  0  0  0  0  0  0  0  0
   42.7470   35.7770   38.0080 H   0  0  0  0  0  0  0  0  0  0  0  0
   45.2210   33.7250   36.4890 O   0  0  0  0  0  0  0  0  0  0  0  0
   45.7230   34.5390   36.6540 H   0  0  0  0  0  0  0  0  0  0  0  0
  1  7  1  0  0  0  0
  2  8  1  0  0  0  0
  2  1  1  0  0  0  0
  3  2  2  0  0  0  0
  4  5  2  0  0  0  0
  4  3  1  0  0  0  0
  5  6  1  0  0  0  0
  6  1  2  0  0  0  0
  9  5  1  0  0  0  0
  9 15  1  1  0  0  0
 10 16  1  0  0  0  0
 10 17  1  0  0  0  0
 10  9  1  0  0  0  0
 11 10  1  0  0  0  0
 12 20  1  0  0  0  0
 12 11  1  0  0  0  0
 12 13  1  0  0  0  0
 13 14  2  0  0  0  0
 14  9  1  0  0  0  0
 14 23  1  0  0  0  0
 18 11  1  0  0  0  0
 19 11  1  0  0  0  0
 21 12  1  0  0  0  0
 22 13  1  0  0  0  0
 23 25  1  0  0  0  0
 24 23  1  0  0  0  0
 26  3  1  0  0  0  0
 27 32  1  0  0  0  0
 27 26  2  0  0  0  0
 28 27  1  0  0  0  0
 29 28  2  0  0  0  0
 29 30  1  0  0  0  0
 30 31  2  0  0  0  0
 31 26  1  0  0  0  0
 33 28  1  0  0  0  0
 34 29  1  0  0  0  0
 35 30  1  0  0  0  0
 36 41  1  6  0  0  0
 36 37  1  0  0  0  0
 37 35  1  6  0  0  0
 38 37  1  0  0  0  0
 39 40  1  0  0  0  0
 39 38  1  0  0  0  0
 40 43  1  6  0  0  0
 40 36  1  0  0  0  0
 41 42  1  0  0  0  0
 43 44  1  0  0  0  0
M  END
>  <minimizedAffinity>
-6.88901138

$$$$

 OpenBabel03252505133D

 44 47  0  0  1  0  0  0  0  0999 V2000
   41.4300   26.5060   44.2980 C   0  0  0  0  0  0  0  0  0  0  0  0
   42.0540   27.7350   43.9820 C   0  0  0  0  0  0  0  0  0  0  0  0
   41.2910   28.6950   43.2430 C   0  0  0  0  0  0  0  0  0  0  0  0
   40.0280   28.3860   42.8880 N   0  0  0  0  0  0  0  0  0  0  0  0
   39.4670   27.2080   43.2060 C   0  0  0  0  0  0  0  0  0  0  0  0
   40.1650   26.2570   43.9160 N   0  0  0  0  0  0  0  0  0  0  0  0
   41.9660   25.7490   44.8550 H   0  0  0  0  0  0  0  0  0  0  0  0
   43.0670   27.9290   44.2900 H   0  0  0  0  0  0  0  0  0  0  0  0
   38.0750   26.9220   42.7860 C   0  0  2  0  0  0  0  0  0  0  0  0
   38.2080   26.1860   41.4680 C   0  0  0  0  0  0  0  0  0  0  0  0
   37.8900   26.9590   40.2570 C   0  0  0  0  0  0  0  0  0  0  0  0
   36.4650   27.4630   40.4800 C   0  0  0  0  0  0  0  0  0  0  0  0
   36.4010   28.4280   41.5700 C   0  0  0  0  0  0  0  0  0  0  0  0
   37.2540   28.0970   42.7350 C   0  0  0  0  0  0  0  0  0  0  0  0
   37.6810   26.2140   43.5580 H   0  0  0  0  0  0  0  0  0  0  0  0
   37.5220   25.3140   41.5070 H   0  0  0  0  0  0  0  0  0  0  0  0
   39.2180   25.7350   41.3220 H   0  0  0  0  0  0  0  0  0  0  0  0
   37.8260   26.2700   39.4110 H   0  0  0  0  0  0  0  0  0  0  0  0
   38.5430   27.8230   40.0700 H   0  0  0  0  0  0  0  0  0  0  0  0
   35.7900   26.6100   40.6720 H   0  0  0  0  0  0  0  0  0  0  0  0
   36.2210   28.0230   39.5600 H   0  0  0  0  0  0  0  0  0  0  0  0
   35.8930   29.3390   41.7670 H   0  0  0  0  0  0  0  0  0  0  0  0
   37.2880   28.9620   43.8750 N   0  0  0  0  0  0  0  0  0  0  0  0
   37.8070   29.7790   43.4780 H   0  0  0  0  0  0  0  0  0  0  0  0
   36.8130   28.5330   44.6920 H   0  0  0  0  0  0  0  0  0  0  0  0
   41.9050   29.9630   42.9100 C   0  0  0  0  0  0  0  0  0  0  0  0
   43.0480   30.3260   43.5720 C   0  0  0  0  0  0  0  0  0  0  0  0
   43.5950   31.5710   43.2020 C   0  0  0  0  0  0  0  0  0  0  0  0
   42.9280   32.2840   42.2250 C   0  0  0  0  0  0  0  0  0  0  0  0
   41.7980   31.9290   41.5690 C   0  0  0  0  0  0  0  0  0  0  0  0
   41.3000   30.7160   41.9550 N   0  0  0  0  0  0  0  0  0  0  0  0
   43.4600   29.6630   44.3180 H   0  0  0  0  0  0  0  0  0  0  0  0
   44.4880   31.8540   43.7190 H   0  0  0  0  0  0  0  0  0  0  0  0
   43.4580   33.2080   42.0460 H   0  0  0  0  0  0  0  0  0  0  0  0
   41.1910   32.6880   40.6100 O   0  0  0  0  0  0  0  0  0  0  0  0
   38.9260   32.8940   39.7710 C   0  0  1  0  0  3  0  0  0  0  0  0
   40.0130   33.3730   40.7530 C   0  0  2  0  0  3  0  0  0  0  0  0
   40.1040   34.7130   40.3700 O   0  0  0  0  0  0  0  0  0  0  0  0
   38.8510   35.1780   40.0660 C   0  0  0  0  0  2  0  0  0  0  0  0
   37.9050   33.9930   40.0980 C   0  0  1  0  0  3  0  0  0  0  0  0
   39.3040   33.1170   38.4630 O   0  0  0  0  0  0  0  0  0  0  0  0
   39.8440   32.4170   38.0540 H   0  0  0  0  0  0  0  0  0  0  0  0
   36.9060   34.0900   39.1520 O   0  0  0  0  0  0  0  0  0  0  0  0
   36.5440   33.2380   38.8620 H   0  0  0  0  0  0  0  0  0  0  0  0
  1  7  1  0  0  0  0
  2  8  1  0  0  0  0
  2  1  1  0  0  0  0
  3  2  2  0  0  0  0
  4  5  2  0  0  0  0
  4  3  1  0  0  0  0
  5  6  1  0  0  0  0
  6  1  2  0  0  0  0
  9  5  1  0  0  0  0
  9 15  1  1  0  0  0
 10 16  1  0  0  0  0
 10  9  1  0  0  0  0
 11 12  1  0  0  0  0
 11 10  1  0  0  0  0
 12 20  1  0  0  0  0
 12 13  1  0  0  0  0
 13 22  1  0  0  0  0
 13 14  2  0  0  0  0
 14  9  1  0  0  0  0
 14 23  1  0  0  0  0
 17 10  1  0  0  0  0
 18 11  1  0  0  0  0
 19 11  1  0  0  0  0
 21 12  1  0  0  0  0
 23 25  1  0  0  0  0
 24 23  1  0  0  0  0
 26  3  1  0  0  0  0
 26 27  1  0  0  0  0
 27 32  1  0  0  0  0
 28 27  2  0  0  0  0
 28 33  1  0  0  0  0
 29 28  1  0  0  0  0
 30 31  1  0  0  0  0
 30 29  2  0  0  0  0
 31 26  2  0  0  0  0
 34 29  1  0  0  0  0
 35 30  1  0  0  0  0
 36 41  1  6  0  0  0
 36 40  1  0  0  0  0
 36 37  1  0  0  0  0
 37 35  1  6  0  0  0
 38 37  1  0  0  0  0
 39 40  1  0  0  0  0
 39 38  1  0  0  0  0
 40 43  1  6  0  0  0
 42 41  1  0  0  0  0
 44 43  1  0  0  0  0
M  END
>  <minimizedAffinity>
-6.84838533

$$$$

 OpenBabel03252505133D

 44 47  0  0  1  0  0  0  0  0999 V2000
   37.7340   32.8300   40.0210 C   0  0  0  0  0  0  0  0  0  0  0  0
   37.3540   31.6770   40.7450 C   0  0  0  0  0  0  0  0  0  0  0  0
   38.3160   30.6220   40.8640 C   0  0  0  0  0  0  0  0  0  0  0  0
   39.5240   30.7770   40.2880 N   0  0  0  0  0  0  0  0  0  0  0  0
   39.8510   31.8870   39.6070 C   0  0  0  0  0  0  0  0  0  0  0  0
   38.9580   32.9250   39.4680 N   0  0  0  0  0  0  0  0  0  0  0  0
   37.0430   33.6540   39.9030 H   0  0  0  0  0  0  0  0  0  0  0  0
   36.3750   31.6070   41.1850 H   0  0  0  0  0  0  0  0  0  0  0  0
   41.1940   31.9990   38.9910 C   0  0  2  0  0  0  0  0  0  0  0  0
   42.0790   32.5670   40.0810 C   0  0  0  0  0  0  0  0  0  0  0  0
   42.4440   33.9860   39.9490 C   0  0  0  0  0  0  0  0  0  0  0  0
   43.1050   34.0920   38.5750 C   0  0  0  0  0  0  0  0  0  0  0  0
   42.1500   33.8460   37.5010 C   0  0  0  0  0  0  0  0  0  0  0  0
   41.1870   32.7540   37.7710 C   0  0  0  0  0  0  0  0  0  0  0  0
   41.5050   30.9430   38.7850 H   0  0  0  0  0  0  0  0  0  0  0  0
   43.0160   31.9730   40.0890 H   0  0  0  0  0  0  0  0  0  0  0  0
   41.6550   32.4240   41.1040 H   0  0  0  0  0  0  0  0  0  0  0  0
   43.2340   34.2120   40.6690 H   0  0  0  0  0  0  0  0  0  0  0  0
   41.6010   34.6910   39.9880 H   0  0  0  0  0  0  0  0  0  0  0  0
   43.9540   33.3900   38.5120 H   0  0  0  0  0  0  0  0  0  0  0  0
   43.3970   35.1530   38.4870 H   0  0  0  0  0  0  0  0  0  0  0  0
   41.9470   34.2510   36.5410 H   0  0  0  0  0  0  0  0  0  0  0  0
   40.1940   32.4090   36.8000 N   0  0  0  0  0  0  0  0  0  0  0  0
   39.5670   33.2430   36.8660 H   0  0  0  0  0  0  0  0  0  0  0  0
   40.3960   31.4910   36.3590 H   0  0  0  0  0  0  0  0  0  0  0  0
   37.9530   29.4320   41.6050 C   0  0  0  0  0  0  0  0  0  0  0  0
   38.1440   29.4270   42.9610 C   0  0  0  0  0  0  0  0  0  0  0  0
   37.7710   28.2400   43.6230 C   0  0  0  0  0  0  0  0  0  0  0  0
   37.2600   27.2210   42.8430 C   0  0  0  0  0  0  0  0  0  0  0  0
   37.0700   27.2230   41.5030 C   0  0  0  0  0  0  0  0  0  0  0  0
   37.4420   28.3910   40.8990 N   0  0  0  0  0  0  0  0  0  0  0  0
   38.5570   30.3030   43.4410 H   0  0  0  0  0  0  0  0  0  0  0  0
   37.9210   28.2360   44.6830 H   0  0  0  0  0  0  0  0  0  0  0  0
   37.0200   26.3820   43.4800 H   0  0  0  0  0  0  0  0  0  0  0  0
   36.5580   26.1730   40.7940 O   0  0  0  0  0  0  0  0  0  0  0  0
   37.0410   23.8010   40.9170 C   0  0  1  0  0  3  0  0  0  0  0  0
   37.2810   25.1570   40.2260 C   0  0  2  0  0  3  0  0  0  0  0  0
   38.6580   25.2840   40.4240 O   0  0  0  0  0  0  0  0  0  0  0  0
   39.2440   24.0520   40.2900 C   0  0  0  0  0  2  0  0  0  0  0  0
   38.1310   23.0300   40.1600 C   0  0  1  0  0  3  0  0  0  0  0  0
   37.4550   23.8320   42.2330 O   0  0  0  0  0  0  0  0  0  0  0  0
   36.8020   24.1640   42.8740 H   0  0  0  0  0  0  0  0  0  0  0  0
   38.4460   21.8280   40.7590 O   0  0  0  0  0  0  0  0  0  0  0  0
   37.6790   21.3120   41.0530 H   0  0  0  0  0  0  0  0  0  0  0  0
  1  2  1  0  0  0  0
  2  3  2  0  0  0  0
  2  8  1  0  0  0  0
  3 26  1  0  0  0  0
  4  3  1  0  0  0  0
  5  4  2  0  0  0  0
  6  5  1  0  0  0  0
  6  1  2  0  0  0  0
  7  1  1  0  0  0  0
  9 15  1  6  0  0  0
  9  5  1  0  0  0  0
  9 10  1  0  0  0  0
 10 16  1  0  0  0  0
 10 17  1  0  0  0  0
 11 19  1  0  0  0  0
 11 10  1  0  0  0  0
 11 18  1  0  0  0  0
 12 11  1  0  0  0  0
 13 14  2  0  0  0  0
 13 12  1  0  0  0  0
 14  9  1  0  0  0  0
 20 12  1  0  0  0  0
 21 12  1  0  0  0  0
 22 13  1  0  0  0  0
 23 24  1  0  0  0  0
 23 14  1  0  0  0  0
 25 23  1  0  0  0  0
 26 27  1  0  0  0  0
 27 32  1  0  0  0  0
 27 28  2  0  0  0  0
 28 33  1  0  0  0  0
 29 34  1  0  0  0  0
 29 28  1  0  0  0  0
 30 29  2  0  0  0  0
 31 30  1  0  0  0  0
 31 26  2  0  0  0  0
 35 30  1  0  0  0  0
 36 41  1  1  0  0  0
 37 38  1  0  0  0  0
 37 35  1  1  0  0  0
 37 36  1  0  0  0  0
 39 38  1  0  0  0  0
 40 39  1  0  0  0  0
 40 43  1  1  0  0  0
 40 36  1  0  0  0  0
 41 42  1  0  0  0  0
 43 44  1  0  0  0  0
M  END
>  <minimizedAffinity>
-6.81792212

$$$$

 OpenBabel03252505133D

 44 47  0  0  1  0  0  0  0  0999 V2000
   36.1000   25.0670   38.9450 C   0  0  0  0  0  0  0  0  0  0  0  0
   36.3600   26.3050   38.3150 C   0  0  0  0  0  0  0  0  0  0  0  0
   37.0390   27.3080   39.0790 C   0  0  0  0  0  0  0  0  0  0  0  0
   37.3960   27.0270   40.3470 N   0  0  0  0  0  0  0  0  0  0  0  0
   37.1330   25.8380   40.9140 C   0  0  0  0  0  0  0  0  0  0  0  0
   36.4820   24.8460   40.2160 N   0  0  0  0  0  0  0  0  0  0  0  0
   35.5890   24.2780   38.4090 H   0  0  0  0  0  0  0  0  0  0  0  0
   36.0520   26.4760   37.2980 H   0  0  0  0  0  0  0  0  0  0  0  0
   37.5460   25.5860   42.3150 C   0  0  2  0  0  0  0  0  0  0  0  0
   37.7610   26.9620   42.9120 C   0  0  0  0  0  0  0  0  0  0  0  0
   39.1600   27.3790   43.0970 C   0  0  0  0  0  0  0  0  0  0  0  0
   39.7810   26.2850   43.9640 C   0  0  0  0  0  0  0  0  0  0  0  0
   39.8570   25.0150   43.2520 C   0  0  0  0  0  0  0  0  0  0  0  0
   38.6740   24.7070   42.4150 C   0  0  0  0  0  0  0  0  0  0  0  0
   36.6520   25.1170   42.7980 H   0  0  0  0  0  0  0  0  0  0  0  0
   37.2680   26.9710   43.9070 H   0  0  0  0  0  0  0  0  0  0  0  0
   37.2430   27.7690   42.3420 H   0  0  0  0  0  0  0  0  0  0  0  0
   39.1760   28.2820   43.7130 H   0  0  0  0  0  0  0  0  0  0  0  0
   39.7460   27.4690   42.1710 H   0  0  0  0  0  0  0  0  0  0  0  0
   39.2060   26.1750   44.9000 H   0  0  0  0  0  0  0  0  0  0  0  0
   40.8240   26.6110   44.1190 H   0  0  0  0  0  0  0  0  0  0  0  0
   40.5540   24.2190   43.1640 H   0  0  0  0  0  0  0  0  0  0  0  0
   38.6190   23.4910   41.6610 N   0  0  0  0  0  0  0  0  0  0  0  0
   39.3330   23.6940   40.9240 H   0  0  0  0  0  0  0  0  0  0  0  0
   37.9280   22.8270   42.0600 H   0  0  0  0  0  0  0  0  0  0  0  0
   37.3220   28.5840   38.4560 C   0  0  0  0  0  0  0  0  0  0  0  0
   36.6160   28.9310   37.3350 C   0  0  0  0  0  0  0  0  0  0  0  0
   36.9380   30.1840   36.7770 C   0  0  0  0  0  0  0  0  0  0  0  0
   37.9200   30.9200   37.4110 C   0  0  0  0  0  0  0  0  0  0  0  0
   38.6200   30.5800   38.5200 C   0  0  0  0  0  0  0  0  0  0  0  0
   38.2780   29.3590   39.0300 N   0  0  0  0  0  0  0  0  0  0  0  0
   35.8710   28.2510   36.9460 H   0  0  0  0  0  0  0  0  0  0  0  0
   36.3860   30.4550   35.9010 H   0  0  0  0  0  0  0  0  0  0  0  0
   38.0590   31.8480   36.8780 H   0  0  0  0  0  0  0  0  0  0  0  0
   39.5820   31.3610   39.0940 O   0  0  0  0  0  0  0  0  0  0  0  0
   40.6280   33.2570   40.1830 C   0  0  1  0  0  3  0  0  0  0  0  0
   39.5310   32.7220   39.2420 C   0  0  2  0  0  3  0  0  0  0  0  0
   38.3960   33.1590   39.9290 O   0  0  0  0  0  0  0  0  0  0  0  0
   38.6450   34.3960   40.4630 C   0  0  0  0  0  2  0  0  0  0  0  0
   40.1130   34.7020   40.2390 C   0  0  1  0  0  3  0  0  0  0  0  0
   40.4750   32.7600   41.4600 O   0  0  0  0  0  0  0  0  0  0  0  0
   40.8890   31.8940   41.6300 H   0  0  0  0  0  0  0  0  0  0  0  0
   40.6660   35.4250   41.2760 O   0  0  0  0  0  0  0  0  0  0  0  0
   41.6230   35.3030   41.3850 H   0  0  0  0  0  0  0  0  0  0  0  0
  1  6  1  0  0  0  0
  2  1  2  0  0  0  0
  2  3  1  0  0  0  0
  3  4  2  0  0  0  0
  4  5  1  0  0  0  0
  5  9  1  0  0  0  0
  6  5  2  0  0  0  0
  7  1  1  0  0  0  0
  8  2  1  0  0  0  0
  9 14  1  0  0  0  0
  9 15  1  1  0  0  0
  9 10  1  0  0  0  0
 10 11  1  0  0  0  0
 10 16  1  0  0  0  0
 11 18  1  0  0  0  0
 11 12  1  0  0  0  0
 12 21  1  0  0  0  0
 12 20  1  0  0  0  0
 13 12  1  0  0  0  0
 14 13  2  0  0  0  0
 17 10  1  0  0  0  0
 19 11  1  0  0  0  0
 22 13  1  0  0  0  0
 23 25  1  0  0  0  0
 23 14  1  0  0  0  0
 24 23  1  0  0  0  0
 26 31  1  0  0  0  0
 26  3  1  0  0  0  0
 27 26  2  0  0  0  0
 28 27  1  0  0  0  0
 28 29  2  0  0  0  0
 29 30  1  0  0  0  0
 30 31  2  0  0  0  0
 30 35  1  0  0  0  0
 32 27  1  0  0  0  0
 33 28  1  0  0  0  0
 34 29  1  0  0  0  0
 36 40  1  0  0  0  0
 36 41  1  1  0  0  0
 37 35  1  1  0  0  0
 37 38  1  0  0  0  0
 37 36  1  0  0  0  0
 38 39  1  0  0  0  0
 40 39  1  0  0  0  0
 40 43  1  1  0  0  0
 41 42  1  0  0  0  0
 43 44  1  0  0  0  0
M  END
>  <minimizedAffinity>
-6.79378653

$$$$
