
 OpenBabel03252508063D

 44 47  0  0  1  0  0  0  0  0999 V2000
   45.3970   35.7250   42.8180 C   0  0  0  0  0  0  0  0  0  0  0  0
   45.6330   34.3650   42.9290 C   0  0  0  0  0  0  0  0  0  0  0  0
   45.3630   33.7170   44.1090 C   0  0  0  0  0  0  0  0  0  0  0  0
   44.8550   34.4790   45.1420 N   0  0  0  0  0  0  0  0  0  0  0  0
   44.6300   35.7870   45.0270 C   0  0  0  0  0  0  0  0  0  0  0  0
   44.9070   36.4000   43.8560 N   0  0  0  0  0  0  0  0  0  0  0  0
   45.6090   36.2500   41.8900 H   0  0  0  0  0  0  0  0  0  0  0  0
   44.2310   36.3550   45.8600 H   0  0  0  0  0  0  0  0  0  0  0  0
   45.5470   32.3410   44.3820 C   0  0  0  0  0  0  0  0  0  0  0  0
   45.0770   31.3100   43.5640 C   0  0  0  0  0  0  0  0  0  0  0  0
   45.1950   29.9780   43.8590 C   0  0  0  0  0  0  0  0  0  0  0  0
   45.8080   29.5920   45.0280 C   0  0  0  0  0  0  0  0  0  0  0  0
   46.3000   30.6250   45.8810 C   0  0  0  0  0  0  0  0  0  0  0  0
   46.9100   30.2490   47.0430 C   0  0  0  0  0  0  0  0  0  0  0  0
   47.4080   31.2020   47.9090 C   0  0  0  0  0  0  0  0  0  0  0  0
   47.2840   32.5620   47.5840 C   0  0  0  0  0  0  0  0  0  0  0  0
   46.6470   32.8970   46.3760 C   0  0  0  0  0  0  0  0  0  0  0  0
   46.1590   31.9310   45.5390 C   0  0  0  0  0  0  0  0  0  0  0  0
   44.5900   31.6070   42.6390 H   0  0  0  0  0  0  0  0  0  0  0  0
   44.8030   29.2380   43.1710 H   0  0  0  0  0  0  0  0  0  0  0  0
   45.9290   28.5590   45.3150 H   0  0  0  0  0  0  0  0  0  0  0  0
   47.0200   29.2080   47.3200 H   0  0  0  0  0  0  0  0  0  0  0  0
   47.8890   30.8590   48.8310 H   0  0  0  0  0  0  0  0  0  0  0  0
   47.7030   33.2350   48.3160 H   0  0  0  0  0  0  0  0  0  0  0  0
   46.6700   33.9630   46.2970 H   0  0  0  0  0  0  0  0  0  0  0  0
   46.1320   33.7260   41.8300 O   0  0  0  0  0  0  0  0  0  0  0  0
   48.0880   31.9870   41.7510 O   0  0  0  0  0  0  0  0  0  0  0  0
   47.7760   33.4260   41.5530 P   0  0  1  0  0  0  0  0  0  0  0  0
   48.2070   33.8110   39.9630 O   0  0  0  0  0  0  0  0  0  0  0  0
   46.5390   33.8210   38.3120 C   0  0  2  0  0  3  0  0  0  0  0  0
   47.5480   33.0030   39.0470 C   0  0  2  0  0  3  0  0  0  0  0  0
   46.8610   31.9870   39.7050 O   0  0  0  0  0  0  0  0  0  0  0  0
   45.7490   31.6920   38.9200 C   0  0  0  0  0  2  0  0  0  0  0  0
   45.2530   33.0190   38.4280 C   0  0  2  0  0  3  0  0  0  0  0  0
   46.8600   33.9120   36.9480 O   0  0  0  0  0  0  0  0  0  0  0  0
   47.5900   33.2660   36.7790 H   0  0  0  0  0  0  0  0  0  0  0  0
   44.6190   32.8630   37.2100 O   0  0  0  0  0  0  0  0  0  0  0  0
   44.7000   31.9240   36.8540 H   0  0  0  0  0  0  0  0  0  0  0  0
   48.6700   34.3870   42.6010 O   0  0  0  0  0  0  0  0  0  0  0  0
   49.7850   35.1470   42.2830 C   0  0  0  0  0  0  0  0  0  0  0  0
   49.3230   36.2210   41.8570 O   0  0  0  0  0  0  0  0  0  0  0  0
   50.9980   34.4200   42.5630 N   0  0  0  0  0  0  0  0  0  0  0  0
   51.7000   34.0000   41.8940 H   0  0  0  0  0  0  0  0  0  0  0  0
   51.2340   34.2790   43.5740 H   0  0  0  0  0  0  0  0  0  0  0  0
  1  2  2  0  0  0  0
  1  6  1  0  0  0  0
  2  3  1  0  0  0  0
  3  9  1  0  0  0  0
  3  4  2  0  0  0  0
  5  4  1  0  0  0  0
  5  8  1  0  0  0  0
  6  5  2  0  0  0  0
  7  1  1  0  0  0  0
  9 18  1  0  0  0  0
 10 11  1  0  0  0  0
 10  9  2  0  0  0  0
 11 12  2  0  0  0  0
 12 21  1  0  0  0  0
 12 13  1  0  0  0  0
 13 14  1  0  0  0  0
 14 22  1  0  0  0  0
 14 15  2  0  0  0  0
 15 23  1  0  0  0  0
 16 15  1  0  0  0  0
 16 24  1  0  0  0  0
 17 16  2  0  0  0  0
 18 13  2  0  0  0  0
 18 17  1  0  0  0  0
 19 10  1  0  0  0  0
 20 11  1  0  0  0  0
 25 17  1  0  0  0  0
 26  2  1  0  0  0  0
 28 27  2  1  0  0  0
 28 26  1  0  0  0  0
 28 39  1  0  0  0  0
 29 28  1  0  0  0  0
 30 35  1  6  0  0  0
 30 34  1  0  0  0  0
 30 31  1  0  0  0  0
 31 32  1  0  0  0  0
 31 29  1  1  0  0  0
 33 32  1  0  0  0  0
 34 37  1  6  0  0  0
 34 33  1  0  0  0  0
 36 35  1  0  0  0  0
 38 37  1  0  0  0  0
 40 42  1  0  0  0  0
 40 39  1  0  0  0  0
 41 40  2  0  0  0  0
 42 44  1  0  0  0  0
 43 42  1  0  0  0  0
M  END
>  <minimizedAffinity>
-5.91848421

>  <minimizedRMSD>
1.59087515

$$$$
