
 OpenBabel03242523533D

 43 46  0  0  1  0  0  0  0  0999 V2000
   37.5770   29.1380   42.0230 C   0  0  1  0  0  0  0  0  0  0  0  0
   37.1580   27.7530   41.5230 C   0  0  1  0  0  0  0  0  0  0  0  0
   36.2790   27.9140   40.4330 O   0  0  0  0  0  0  0  0  0  0  0  0
   35.4480   29.0280   40.5670 C   0  0  0  0  0  0  0  0  0  0  0  0
   36.2340   30.3160   40.4220 C   0  0  2  0  0  0  0  0  0  0  0  0
   37.7000   29.9920   40.7750 C   0  0  1  0  0  0  0  0  0  0  0  0
   38.5290   29.0760   42.5870 H   0  0  0  0  0  0  0  0  0  0  0  0
   36.6830   27.1690   42.3140 H   0  0  0  0  0  0  0  0  0  0  0  0
   34.8280   28.9970   41.4740 H   0  0  0  0  0  0  0  0  0  0  0  0
   34.7690   28.9860   39.7020 H   0  0  0  0  0  0  0  0  0  0  0  0
   36.1530   30.7790   39.4310 H   0  0  0  0  0  0  0  0  0  0  0  0
   38.0940   29.3610   39.9720 H   0  0  0  0  0  0  0  0  0  0  0  0
   36.5970   29.6610   42.8660 O   0  0  0  0  0  0  0  0  0  0  0  0
   36.9410   29.9120   43.7440 H   0  0  0  0  0  0  0  0  0  0  0  0
   35.8230   31.1930   41.4300 O   0  0  0  0  0  0  0  0  0  0  0  0
   36.0590   32.1290   41.2180 H   0  0  0  0  0  0  0  0  0  0  0  0
   38.3090   27.1910   40.9540 O   0  0  0  0  0  0  0  0  0  0  0  0
   39.1900   26.4130   41.5930 C   0  0  0  0  0  0  0  0  0  0  0  0
   40.5500   26.7060   41.5670 C   0  0  0  0  0  0  0  0  0  0  0  0
   41.4270   25.8750   42.2450 C   0  0  0  0  0  0  0  0  0  0  0  0
   40.9310   24.7750   42.9300 N   0  0  0  0  0  0  0  0  0  0  0  0
   39.6070   24.5250   42.9300 C   0  0  0  0  0  0  0  0  0  0  0  0
   38.7380   25.3300   42.2720 N   0  0  0  0  0  0  0  0  0  0  0  0
   40.9100   27.5620   41.0300 H   0  0  0  0  0  0  0  0  0  0  0  0
   39.2860   23.6490   43.4850 H   0  0  0  0  0  0  0  0  0  0  0  0
   42.9050   26.1360   42.2330 C   0  0  0  0  0  0  0  0  0  0  0  0
   43.4410   27.1430   43.2260 C   0  0  0  0  0  0  0  0  0  0  0  0
   43.7360   25.6370   43.2960 C   0  0  0  0  0  0  0  0  0  0  0  0
   43.3100   26.1920   41.1910 H   0  0  0  0  0  0  0  0  0  0  0  0
   44.2570   27.7640   42.8650 H   0  0  0  0  0  0  0  0  0  0  0  0
   42.7480   27.5950   43.9380 H   0  0  0  0  0  0  0  0  0  0  0  0
   44.7870   25.3380   43.1880 H   0  0  0  0  0  0  0  0  0  0  0  0
   43.2400   25.1560   44.1700 H   0  0  0  0  0  0  0  0  0  0  0  0
   38.4270   31.1480   40.9640 O   0  0  0  0  0  0  0  0  0  0  0  0
   39.0220   32.3590   38.9660 C   0  0  2  0  0  3  0  0  0  0  0  0
   39.3800   31.2910   39.9660 C   0  0  2  0  0  3  0  0  0  0  0  0
   39.2910   30.1280   39.1940 O   0  0  0  0  0  0  0  0  0  0  0  0
   39.7870   30.4010   37.9420 C   0  0  0  0  0  2  0  0  0  0  0  0
   39.8050   31.8970   37.7430 C   0  0  1  0  0  3  0  0  0  0  0  0
   39.5760   33.6070   39.2960 O   0  0  0  0  0  0  0  0  0  0  0  0
   40.5500   33.5230   39.2920 H   0  0  0  0  0  0  0  0  0  0  0  0
   39.1990   32.2860   36.5550 O   0  0  0  0  0  0  0  0  0  0  0  0
   39.9190   32.3560   35.8540 H   0  0  0  0  0  0  0  0  0  0  0  0
  1  7  1  1  0  0  0
  1 13  1  0  0  0  0
  2  1  1  0  0  0  0
  2  8  1  1  0  0  0
  3  4  1  0  0  0  0
  3  2  1  0  0  0  0
  4  9  1  0  0  0  0
  5 11  1  6  0  0  0
  5  4  1  0  0  0  0
  5  6  1  0  0  0  0
  5 15  1  0  0  0  0
  6 12  1  6  0  0  0
  6 34  1  0  0  0  0
  6  1  1  0  0  0  0
 10  4  1  0  0  0  0
 13 14  1  0  0  0  0
 16 15  1  0  0  0  0
 17  2  1  0  0  0  0
 17 18  1  0  0  0  0
 18 23  1  0  0  0  0
 19 18  2  0  0  0  0
 19 20  1  0  0  0  0
 20 21  2  0  0  0  0
 22 21  1  0  0  0  0
 22 25  1  0  0  0  0
 23 22  2  0  0  0  0
 24 19  1  0  0  0  0
 26 20  1  0  0  0  0
 26 27  1  0  0  0  0
 26 28  1  0  0  0  0
 27 28  1  0  0  0  0
 27 31  1  0  0  0  0
 28 33  1  0  0  0  0
 29 26  1  0  0  0  0
 30 27  1  0  0  0  0
 32 28  1  0  0  0  0
 35 40  1  1  0  0  0
 35 36  1  0  0  0  0
 36 34  1  1  0  0  0
 37 36  1  0  0  0  0
 38 37  1  0  0  0  0
 39 42  1  6  0  0  0
 39 38  1  0  0  0  0
 39 35  1  0  0  0  0
 41 40  1  0  0  0  0
 43 42  1  0  0  0  0
M  END
>  <minimizedAffinity>
-6.3304286

$$$$

 OpenBabel03242523533D

 43 46  0  0  1  0  0  0  0  0999 V2000
   37.9830   32.3750   40.6000 C   0  0  1  0  0  0  0  0  0  0  0  0
   37.3840   31.0530   41.0900 C   0  0  1  0  0  0  0  0  0  0  0  0
   37.1030   30.2440   39.9720 O   0  0  0  0  0  0  0  0  0  0  0  0
   36.6800   30.9780   38.8620 C   0  0  0  0  0  0  0  0  0  0  0  0
   37.8200   31.7900   38.2790 C   0  0  2  0  0  0  0  0  0  0  0  0
   38.8470   32.0030   39.4090 C   0  0  1  0  0  0  0  0  0  0  0  0
   38.5640   32.8620   41.4070 H   0  0  0  0  0  0  0  0  0  0  0  0
   36.4800   31.2200   41.6790 H   0  0  0  0  0  0  0  0  0  0  0  0
   35.7780   31.5750   39.0590 H   0  0  0  0  0  0  0  0  0  0  0  0
   36.4200   30.2270   38.1020 H   0  0  0  0  0  0  0  0  0  0  0  0
   38.2840   31.3360   37.3940 H   0  0  0  0  0  0  0  0  0  0  0  0
   39.3060   31.0310   39.6160 H   0  0  0  0  0  0  0  0  0  0  0  0
   36.9680   33.2430   40.2010 O   0  0  0  0  0  0  0  0  0  0  0  0
   36.9980   34.1050   40.6600 H   0  0  0  0  0  0  0  0  0  0  0  0
   37.3420   33.0740   38.0010 O   0  0  0  0  0  0  0  0  0  0  0  0
   37.9220   33.5470   37.3560 H   0  0  0  0  0  0  0  0  0  0  0  0
   38.4270   30.3840   41.7440 O   0  0  0  0  0  0  0  0  0  0  0  0
   38.3610   29.1460   42.2470 C   0  0  0  0  0  0  0  0  0  0  0  0
   39.2850   28.1750   41.8720 C   0  0  0  0  0  0  0  0  0  0  0  0
   39.1810   26.9070   42.4190 C   0  0  0  0  0  0  0  0  0  0  0  0
   38.1650   26.6360   43.3240 N   0  0  0  0  0  0  0  0  0  0  0  0
   37.2910   27.6040   43.6600 C   0  0  0  0  0  0  0  0  0  0  0  0
   37.3800   28.8490   43.1330 N   0  0  0  0  0  0  0  0  0  0  0  0
   40.0620   28.4080   41.1700 H   0  0  0  0  0  0  0  0  0  0  0  0
   36.5190   27.3250   44.3720 H   0  0  0  0  0  0  0  0  0  0  0  0
   40.1400   25.8170   42.0340 C   0  0  0  0  0  0  0  0  0  0  0  0
   40.0460   24.5110   42.7890 C   0  0  0  0  0  0  0  0  0  0  0  0
   39.6740   24.6680   41.3060 C   0  0  0  0  0  0  0  0  0  0  0  0
   41.1690   26.2170   41.8440 H   0  0  0  0  0  0  0  0  0  0  0  0
   40.9950   24.0160   42.9830 H   0  0  0  0  0  0  0  0  0  0  0  0
   39.2610   24.3940   43.5370 H   0  0  0  0  0  0  0  0  0  0  0  0
   40.2710   24.0920   40.5870 H   0  0  0  0  0  0  0  0  0  0  0  0
   38.5780   24.5600   41.1380 H   0  0  0  0  0  0  0  0  0  0  0  0
   39.7630   32.9740   39.0640 O   0  0  0  0  0  0  0  0  0  0  0  0
   41.2680   32.2700   37.3180 C   0  0  2  0  0  3  0  0  0  0  0  0
   40.9980   32.4030   38.7930 C   0  0  2  0  0  3  0  0  0  0  0  0
   40.8870   31.0660   39.1900 O   0  0  0  0  0  0  0  0  0  0  0  0
   41.8220   30.3320   38.5020 C   0  0  0  0  0  2  0  0  0  0  0  0
   42.2740   31.1260   37.3010 C   0  0  1  0  0  3  0  0  0  0  0  0
   41.9700   33.3730   36.8030 O   0  0  0  0  0  0  0  0  0  0  0  0
   42.8380   33.4240   37.2520 H   0  0  0  0  0  0  0  0  0  0  0  0
   42.2150   30.3940   36.1210 O   0  0  0  0  0  0  0  0  0  0  0  0
   43.1200   29.9790   35.9740 H   0  0  0  0  0  0  0  0  0  0  0  0
  1  2  1  0  0  0  0
  1  7  1  1  0  0  0
  2  8  1  1  0  0  0
  2 17  1  0  0  0  0
  3  2  1  0  0  0  0
  4  9  1  0  0  0  0
  4  3  1  0  0  0  0
  5 11  1  6  0  0  0
  5  4  1  0  0  0  0
  5  6  1  0  0  0  0
  6 12  1  1  0  0  0
  6  1  1  0  0  0  0
 10  4  1  0  0  0  0
 13  1  1  0  0  0  0
 13 14  1  0  0  0  0
 15  5  1  0  0  0  0
 16 15  1  0  0  0  0
 17 18  1  0  0  0  0
 18 23  1  0  0  0  0
 19 18  2  0  0  0  0
 19 20  1  0  0  0  0
 20 21  2  0  0  0  0
 21 22  1  0  0  0  0
 22 25  1  0  0  0  0
 23 22  2  0  0  0  0
 24 19  1  0  0  0  0
 26 20  1  0  0  0  0
 26 27  1  0  0  0  0
 27 30  1  0  0  0  0
 27 31  1  0  0  0  0
 28 26  1  0  0  0  0
 28 27  1  0  0  0  0
 29 26  1  0  0  0  0
 32 28  1  0  0  0  0
 33 28  1  0  0  0  0
 34  6  1  0  0  0  0
 35 40  1  1  0  0  0
 35 36  1  0  0  0  0
 36 34  1  6  0  0  0
 36 37  1  0  0  0  0
 38 37  1  0  0  0  0
 39 42  1  6  0  0  0
 39 35  1  0  0  0  0
 39 38  1  0  0  0  0
 40 41  1  0  0  0  0
 43 42  1  0  0  0  0
M  END
>  <minimizedAffinity>
-6.23116827

$$$$

 OpenBabel03242523533D

 43 46  0  0  1  0  0  0  0  0999 V2000
   38.3910   32.4120   39.4730 C   0  0  1  0  0  0  0  0  0  0  0  0
   37.5400   31.2340   39.9550 C   0  0  1  0  0  0  0  0  0  0  0  0
   37.8250   30.1130   39.1500 O   0  0  0  0  0  0  0  0  0  0  0  0
   38.0880   30.4520   37.8210 C   0  0  0  0  0  0  0  0  0  0  0  0
   39.4150   31.1730   37.6930 C   0  0  2  0  0  0  0  0  0  0  0  0
   39.7210   31.8040   39.0670 C   0  0  1  0  0  0  0  0  0  0  0  0
   38.5010   33.1670   40.2780 H   0  0  0  0  0  0  0  0  0  0  0  0
   36.4740   31.4700   39.9170 H   0  0  0  0  0  0  0  0  0  0  0  0
   37.2550   30.9850   37.3400 H   0  0  0  0  0  0  0  0  0  0  0  0
   38.2100   29.4920   37.2980 H   0  0  0  0  0  0  0  0  0  0  0  0
   40.2390   30.5330   37.3530 H   0  0  0  0  0  0  0  0  0  0  0  0
   39.9400   30.9840   39.7580 H   0  0  0  0  0  0  0  0  0  0  0  0
   37.7890   33.0230   38.3740 O   0  0  0  0  0  0  0  0  0  0  0  0
   37.6330   33.9780   38.5040 H   0  0  0  0  0  0  0  0  0  0  0  0
   39.2350   32.2680   36.8430 O   0  0  0  0  0  0  0  0  0  0  0  0
   40.0950   32.5920   36.4800 H   0  0  0  0  0  0  0  0  0  0  0  0
   38.0470   30.8900   41.2150 O   0  0  0  0  0  0  0  0  0  0  0  0
   37.9690   29.6790   41.7790 C   0  0  0  0  0  0  0  0  0  0  0  0
   39.1000   29.0670   42.3110 C   0  0  0  0  0  0  0  0  0  0  0  0
   38.9720   27.8140   42.8890 C   0  0  0  0  0  0  0  0  0  0  0  0
   37.7270   27.2030   42.9240 N   0  0  0  0  0  0  0  0  0  0  0  0
   36.6570   27.8300   42.3980 C   0  0  0  0  0  0  0  0  0  0  0  0
   36.7660   29.0550   41.8300 N   0  0  0  0  0  0  0  0  0  0  0  0
   40.0520   29.5590   42.2710 H   0  0  0  0  0  0  0  0  0  0  0  0
   35.7130   27.2960   42.4580 H   0  0  0  0  0  0  0  0  0  0  0  0
   40.1640   27.1010   43.4590 C   0  0  0  0  0  0  0  0  0  0  0  0
   40.0420   25.6100   43.6780 C   0  0  0  0  0  0  0  0  0  0  0  0
   40.9630   26.2440   42.6240 C   0  0  0  0  0  0  0  0  0  0  0  0
   40.6510   27.6920   44.2760 H   0  0  0  0  0  0  0  0  0  0  0  0
   40.5410   25.2270   44.5660 H   0  0  0  0  0  0  0  0  0  0  0  0
   39.1240   25.1090   43.3680 H   0  0  0  0  0  0  0  0  0  0  0  0
   42.0400   26.0710   42.7460 H   0  0  0  0  0  0  0  0  0  0  0  0
   40.6090   26.0430   41.5870 H   0  0  0  0  0  0  0  0  0  0  0  0
   40.7430   32.7220   38.9690 O   0  0  0  0  0  0  0  0  0  0  0  0
   41.5730   32.9920   41.2170 C   0  0  2  0  0  3  0  0  0  0  0  0
   41.7700   32.4010   39.8460 C   0  0  2  0  0  3  0  0  0  0  0  0
   42.8880   33.1020   39.3850 O   0  0  0  0  0  0  0  0  0  0  0  0
   43.7590   33.2680   40.4350 C   0  0  0  0  0  2  0  0  0  0  0  0
   43.0080   33.0500   41.7250 C   0  0  1  0  0  3  0  0  0  0  0  0
   40.9180   32.1070   42.0910 O   0  0  0  0  0  0  0  0  0  0  0  0
   41.4750   31.3100   42.1970 H   0  0  0  0  0  0  0  0  0  0  0  0
   43.1990   34.0810   42.6370 O   0  0  0  0  0  0  0  0  0  0  0  0
   43.9640   33.8200   43.2360 H   0  0  0  0  0  0  0  0  0  0  0  0
  1  2  1  0  0  0  0
  1  7  1  1  0  0  0
  2  8  1  1  0  0  0
  2 17  1  0  0  0  0
  3  2  1  0  0  0  0
  4  3  1  0  0  0  0
  5 11  1  6  0  0  0
  5  4  1  0  0  0  0
  5  6  1  0  0  0  0
  6  1  1  0  0  0  0
  6 12  1  1  0  0  0
  9  4  1  0  0  0  0
 10  4  1  0  0  0  0
 13 14  1  0  0  0  0
 13  1  1  0  0  0  0
 15  5  1  0  0  0  0
 16 15  1  0  0  0  0
 17 18  1  0  0  0  0
 18 23  2  0  0  0  0
 18 19  1  0  0  0  0
 19 20  2  0  0  0  0
 20 21  1  0  0  0  0
 20 26  1  0  0  0  0
 22 25  1  0  0  0  0
 22 21  2  0  0  0  0
 23 22  1  0  0  0  0
 24 19  1  0  0  0  0
 26 27  1  0  0  0  0
 26 29  1  0  0  0  0
 27 30  1  0  0  0  0
 28 32  1  0  0  0  0
 28 26  1  0  0  0  0
 28 27  1  0  0  0  0
 31 27  1  0  0  0  0
 33 28  1  0  0  0  0
 34  6  1  0  0  0  0
 35 39  1  0  0  0  0
 35 40  1  1  0  0  0
 36 34  1  6  0  0  0
 36 35  1  0  0  0  0
 37 36  1  0  0  0  0
 37 38  1  0  0  0  0
 38 39  1  0  0  0  0
 39 42  1  1  0  0  0
 40 41  1  0  0  0  0
 42 43  1  0  0  0  0
M  END
>  <minimizedAffinity>
-6.15981293

$$$$

 OpenBabel03242523533D

 43 46  0  0  1  0  0  0  0  0999 V2000
   37.4550   32.4400   38.9610 C   0  0  1  0  0  0  0  0  0  0  0  0
   38.9440   32.6560   39.2450 C   0  0  1  0  0  0  0  0  0  0  0  0
   39.3440   31.7630   40.2590 O   0  0  0  0  0  0  0  0  0  0  0  0
   38.3470   31.5420   41.2110 C   0  0  0  0  0  0  0  0  0  0  0  0
   37.2050   30.7330   40.6290 C   0  0  2  0  0  0  0  0  0  0  0  0
   37.2350   30.9440   39.1010 C   0  0  1  0  0  0  0  0  0  0  0  0
   37.1940   32.8120   37.9510 H   0  0  0  0  0  0  0  0  0  0  0  0
   39.1480   33.6870   39.5410 H   0  0  0  0  0  0  0  0  0  0  0  0
   38.0160   32.4640   41.7110 H   0  0  0  0  0  0  0  0  0  0  0  0
   38.8150   30.9020   41.9750 H   0  0  0  0  0  0  0  0  0  0  0  0
   37.2360   29.6670   40.8870 H   0  0  0  0  0  0  0  0  0  0  0  0
   38.1280   30.4360   38.7220 H   0  0  0  0  0  0  0  0  0  0  0  0
   36.6830   33.1260   39.8980 O   0  0  0  0  0  0  0  0  0  0  0  0
   36.0460   33.7430   39.4900 H   0  0  0  0  0  0  0  0  0  0  0  0
   36.0040   31.3220   41.0340 O   0  0  0  0  0  0  0  0  0  0  0  0
   35.2440   30.6950   40.9530 H   0  0  0  0  0  0  0  0  0  0  0  0
   39.6170   32.2020   38.1030 O   0  0  0  0  0  0  0  0  0  0  0  0
   40.9130   32.3980   37.8360 C   0  0  0  0  0  0  0  0  0  0  0  0
   41.7100   31.3580   37.3670 C   0  0  0  0  0  0  0  0  0  0  0  0
   43.0470   31.6070   37.1000 C   0  0  0  0  0  0  0  0  0  0  0  0
   43.5560   32.8810   37.3060 N   0  0  0  0  0  0  0  0  0  0  0  0
   42.7520   33.8600   37.7610 C   0  0  0  0  0  0  0  0  0  0  0  0
   41.4430   33.6320   38.0260 N   0  0  0  0  0  0  0  0  0  0  0  0
   41.2930   30.3810   37.2170 H   0  0  0  0  0  0  0  0  0  0  0  0
   43.2140   34.8330   37.9000 H   0  0  0  0  0  0  0  0  0  0  0  0
   43.9540   30.5150   36.6110 C   0  0  0  0  0  0  0  0  0  0  0  0
   43.6820   29.9520   35.2340 C   0  0  0  0  0  0  0  0  0  0  0  0
   44.9240   30.7870   35.5850 C   0  0  0  0  0  0  0  0  0  0  0  0
   44.1900   29.7780   37.4190 H   0  0  0  0  0  0  0  0  0  0  0  0
   43.8520   28.8830   35.1270 H   0  0  0  0  0  0  0  0  0  0  0  0
   42.8820   30.3920   34.6380 H   0  0  0  0  0  0  0  0  0  0  0  0
   45.8950   30.2850   35.4870 H   0  0  0  0  0  0  0  0  0  0  0  0
   44.9050   31.7870   35.0940 H   0  0  0  0  0  0  0  0  0  0  0  0
   36.0680   30.4990   38.5200 O   0  0  0  0  0  0  0  0  0  0  0  0
   37.2560   29.7570   36.5590 C   0  0  2  0  0  3  0  0  0  0  0  0
   36.3210   29.4180   37.6890 C   0  0  2  0  0  3  0  0  0  0  0  0
   35.1210   29.1790   37.0110 O   0  0  0  0  0  0  0  0  0  0  0  0
   35.4080   28.5170   35.8420 C   0  0  0  0  0  2  0  0  0  0  0  0
   36.8720   28.7030   35.5270 C   0  0  1  0  0  3  0  0  0  0  0  0
   38.5970   29.4780   36.8740 O   0  0  0  0  0  0  0  0  0  0  0  0
   38.6820   28.5180   37.0410 H   0  0  0  0  0  0  0  0  0  0  0  0
   37.0890   29.1400   34.2260 O   0  0  0  0  0  0  0  0  0  0  0  0
   37.2440   28.3270   33.6540 H   0  0  0  0  0  0  0  0  0  0  0  0
  1  7  1  6  0  0  0
  1  6  1  0  0  0  0
  1  2  1  0  0  0  0
  1 13  1  0  0  0  0
  2  8  1  1  0  0  0
  2  3  1  0  0  0  0
  3  4  1  0  0  0  0
  4  9  1  0  0  0  0
  4 10  1  0  0  0  0
  5 11  1  1  0  0  0
  5 15  1  0  0  0  0
  5  4  1  0  0  0  0
  6 12  1  6  0  0  0
  6  5  1  0  0  0  0
 14 13  1  0  0  0  0
 16 15  1  0  0  0  0
 17  2  1  0  0  0  0
 18 23  1  0  0  0  0
 18 17  1  0  0  0  0
 19 18  2  0  0  0  0
 20 21  2  0  0  0  0
 20 19  1  0  0  0  0
 21 22  1  0  0  0  0
 22 25  1  0  0  0  0
 22 23  2  0  0  0  0
 24 19  1  0  0  0  0
 26 20  1  0  0  0  0
 26 29  1  0  0  0  0
 27 28  1  0  0  0  0
 27 26  1  0  0  0  0
 28 26  1  0  0  0  0
 30 27  1  0  0  0  0
 31 27  1  0  0  0  0
 32 28  1  0  0  0  0
 33 28  1  0  0  0  0
 34  6  1  0  0  0  0
 35 40  1  1  0  0  0
 35 36  1  0  0  0  0
 36 34  1  1  0  0  0
 37 36  1  0  0  0  0
 38 37  1  0  0  0  0
 39 42  1  6  0  0  0
 39 38  1  0  0  0  0
 39 35  1  0  0  0  0
 40 41  1  0  0  0  0
 43 42  1  0  0  0  0
M  END
>  <minimizedAffinity>
-6.14578485

$$$$

 OpenBabel03242523533D

 43 46  0  0  1  0  0  0  0  0999 V2000
   39.8930   30.1000   38.3060 C   0  0  1  0  0  0  0  0  0  0  0  0
   40.8850   29.9760   39.4660 C   0  0  1  0  0  0  0  0  0  0  0  0
   41.3350   31.2650   39.8140 O   0  0  0  0  0  0  0  0  0  0  0  0
   41.4580   32.1130   38.7110 C   0  0  0  0  0  0  0  0  0  0  0  0
   40.0980   32.4850   38.1550 C   0  0  2  0  0  0  0  0  0  0  0  0
   39.1160   31.3750   38.5810 C   0  0  1  0  0  0  0  0  0  0  0  0
   39.2370   29.2080   38.2590 H   0  0  0  0  0  0  0  0  0  0  0  0
   41.7290   29.3340   39.2030 H   0  0  0  0  0  0  0  0  0  0  0  0
   42.1500   31.7290   37.9480 H   0  0  0  0  0  0  0  0  0  0  0  0
   41.8890   33.0430   39.1100 H   0  0  0  0  0  0  0  0  0  0  0  0
   39.7440   33.4750   38.4670 H   0  0  0  0  0  0  0  0  0  0  0  0
   38.9810   31.4600   39.6630 H   0  0  0  0  0  0  0  0  0  0  0  0
   40.5790   30.2080   37.0970 O   0  0  0  0  0  0  0  0  0  0  0  0
   40.3170   29.5300   36.4460 H   0  0  0  0  0  0  0  0  0  0  0  0
   40.1550   32.3790   36.7620 O   0  0  0  0  0  0  0  0  0  0  0  0
   39.4260   32.8870   36.3280 H   0  0  0  0  0  0  0  0  0  0  0  0
   40.1260   29.5670   40.5720 O   0  0  0  0  0  0  0  0  0  0  0  0
   39.9790   28.3050   40.9890 C   0  0  0  0  0  0  0  0  0  0  0  0
   38.7160   27.7300   41.0870 C   0  0  0  0  0  0  0  0  0  0  0  0
   38.6100   26.4180   41.5210 C   0  0  0  0  0  0  0  0  0  0  0  0
   39.7600   25.7130   41.8450 N   0  0  0  0  0  0  0  0  0  0  0  0
   40.9640   26.3060   41.7360 C   0  0  0  0  0  0  0  0  0  0  0  0
   41.0830   27.5880   41.3130 N   0  0  0  0  0  0  0  0  0  0  0  0
   37.8410   28.2950   40.8310 H   0  0  0  0  0  0  0  0  0  0  0  0
   41.8220   25.6980   42.0060 H   0  0  0  0  0  0  0  0  0  0  0  0
   37.2690   25.7570   41.6630 C   0  0  0  0  0  0  0  0  0  0  0  0
   36.7350   25.0060   40.4640 C   0  0  0  0  0  0  0  0  0  0  0  0
   37.1770   24.3250   41.7690 C   0  0  0  0  0  0  0  0  0  0  0  0
   36.5430   26.4040   42.2160 H   0  0  0  0  0  0  0  0  0  0  0  0
   35.6610   25.0740   40.3120 H   0  0  0  0  0  0  0  0  0  0  0  0
   37.3610   24.9300   39.5730 H   0  0  0  0  0  0  0  0  0  0  0  0
   36.4020   23.7830   42.3260 H   0  0  0  0  0  0  0  0  0  0  0  0
   38.1070   23.7270   41.6330 H   0  0  0  0  0  0  0  0  0  0  0  0
   37.9350   31.4660   37.8770 O   0  0  0  0  0  0  0  0  0  0  0  0
   37.2050   31.5760   40.1710 C   0  0  2  0  0  3  0  0  0  0  0  0
   36.8490   31.3290   38.7290 C   0  0  2  0  0  3  0  0  0  0  0  0
   36.5470   29.9640   38.7330 O   0  0  0  0  0  0  0  0  0  0  0  0
   35.8750   29.6730   39.8950 C   0  0  0  0  0  2  0  0  0  0  0  0
   36.1160   30.7850   40.8860 C   0  0  1  0  0  3  0  0  0  0  0  0
   36.9890   32.9100   40.5540 O   0  0  0  0  0  0  0  0  0  0  0  0
   36.0370   33.1100   40.4530 H   0  0  0  0  0  0  0  0  0  0  0  0
   36.5350   30.3170   42.1250 O   0  0  0  0  0  0  0  0  0  0  0  0
   35.7180   30.2100   42.7030 H   0  0  0  0  0  0  0  0  0  0  0  0
  1  7  1  6  0  0  0
  1  6  1  0  0  0  0
  1  2  1  0  0  0  0
  2  8  1  6  0  0  0
  2  3  1  0  0  0  0
  2 17  1  0  0  0  0
  4 10  1  0  0  0  0
  4  3  1  0  0  0  0
  5 11  1  1  0  0  0
  5  6  1  0  0  0  0
  5  4  1  0  0  0  0
  6 12  1  1  0  0  0
  9  4  1  0  0  0  0
 13  1  1  0  0  0  0
 14 13  1  0  0  0  0
 15  5  1  0  0  0  0
 16 15  1  0  0  0  0
 17 18  1  0  0  0  0
 18 19  2  0  0  0  0
 18 23  1  0  0  0  0
 19 20  1  0  0  0  0
 20 26  1  0  0  0  0
 20 21  2  0  0  0  0
 22 21  1  0  0  0  0
 22 25  1  0  0  0  0
 23 22  2  0  0  0  0
 24 19  1  0  0  0  0
 26 28  1  0  0  0  0
 26 29  1  0  0  0  0
 27 26  1  0  0  0  0
 27 28  1  0  0  0  0
 28 32  1  0  0  0  0
 30 27  1  0  0  0  0
 31 27  1  0  0  0  0
 33 28  1  0  0  0  0
 34  6  1  0  0  0  0
 35 40  1  1  0  0  0
 35 39  1  0  0  0  0
 36 34  1  6  0  0  0
 36 37  1  0  0  0  0
 36 35  1  0  0  0  0
 37 38  1  0  0  0  0
 38 39  1  0  0  0  0
 39 42  1  1  0  0  0
 41 40  1  0  0  0  0
 42 43  1  0  0  0  0
M  END
>  <minimizedAffinity>
-6.12308598

$$$$

 OpenBabel03242523533D

 43 46  0  0  1  0  0  0  0  0999 V2000
   40.5900   30.4860   40.2780 C   0  0  1  0  0  0  0  0  0  0  0  0
   40.7580   30.5180   41.8000 C   0  0  1  0  0  0  0  0  0  0  0  0
   41.1030   31.8290   42.1880 O   0  0  0  0  0  0  0  0  0  0  0  0
   41.9170   32.4740   41.2550 C   0  0  0  0  0  0  0  0  0  0  0  0
   41.1450   32.8020   39.9920 C   0  0  2  0  0  0  0  0  0  0  0  0
   39.9590   31.8190   39.9190 C   0  0  1  0  0  0  0  0  0  0  0  0
   39.9600   29.6260   39.9750 H   0  0  0  0  0  0  0  0  0  0  0  0
   41.5180   29.8080   42.1330 H   0  0  0  0  0  0  0  0  0  0  0  0
   42.8590   31.9400   41.0620 H   0  0  0  0  0  0  0  0  0  0  0  0
   42.1730   33.4400   41.7150 H   0  0  0  0  0  0  0  0  0  0  0  0
   40.8070   33.8440   39.9340 H   0  0  0  0  0  0  0  0  0  0  0  0
   39.2650   32.0900   40.7210 H   0  0  0  0  0  0  0  0  0  0  0  0
   41.8330   30.3630   39.6600 O   0  0  0  0  0  0  0  0  0  0  0  0
   41.8880   29.5960   39.0590 H   0  0  0  0  0  0  0  0  0  0  0  0
   41.9420   32.4630   38.8950 O   0  0  0  0  0  0  0  0  0  0  0  0
   41.6420   32.9190   38.0710 H   0  0  0  0  0  0  0  0  0  0  0  0
   39.4730   30.3320   42.3280 O   0  0  0  0  0  0  0  0  0  0  0  0
   38.9470   29.1570   42.6920 C   0  0  0  0  0  0  0  0  0  0  0  0
   39.7650   28.0710   42.9900 C   0  0  0  0  0  0  0  0  0  0  0  0
   39.1770   26.8740   43.3660 C   0  0  0  0  0  0  0  0  0  0  0  0
   37.7940   26.7870   43.4380 N   0  0  0  0  0  0  0  0  0  0  0  0
   37.0380   27.8620   43.1410 C   0  0  0  0  0  0  0  0  0  0  0  0
   37.5990   29.0390   42.7720 N   0  0  0  0  0  0  0  0  0  0  0  0
   40.8310   28.1630   42.9270 H   0  0  0  0  0  0  0  0  0  0  0  0
   35.9630   27.7260   43.2160 H   0  0  0  0  0  0  0  0  0  0  0  0
   40.0130   25.6670   43.6790 C   0  0  0  0  0  0  0  0  0  0  0  0
   39.6840   24.3860   42.9460 C   0  0  0  0  0  0  0  0  0  0  0  0
   40.9760   25.1880   42.7250 C   0  0  0  0  0  0  0  0  0  0  0  0
   40.2240   25.5800   44.7750 H   0  0  0  0  0  0  0  0  0  0  0  0
   39.7920   23.4750   43.5300 H   0  0  0  0  0  0  0  0  0  0  0  0
   38.8970   24.4030   42.1900 H   0  0  0  0  0  0  0  0  0  0  0  0
   41.9160   24.6810   42.9780 H   0  0  0  0  0  0  0  0  0  0  0  0
   41.0020   25.6660   41.7190 H   0  0  0  0  0  0  0  0  0  0  0  0
   39.3810   31.8390   38.6690 O   0  0  0  0  0  0  0  0  0  0  0  0
   37.4350   32.0750   40.0720 C   0  0  2  0  0  3  0  0  0  0  0  0
   38.0150   31.6130   38.7610 C   0  0  2  0  0  3  0  0  0  0  0  0
   37.8710   30.2250   38.8530 O   0  0  0  0  0  0  0  0  0  0  0  0
   36.6670   29.9540   39.4570 C   0  0  0  0  0  2  0  0  0  0  0  0
   36.1960   31.1940   40.1760 C   0  0  1  0  0  3  0  0  0  0  0  0
   36.9370   33.3880   40.0020 O   0  0  0  0  0  0  0  0  0  0  0  0
   36.2150   33.4090   39.3430 H   0  0  0  0  0  0  0  0  0  0  0  0
   35.8400   30.9450   41.4960 O   0  0  0  0  0  0  0  0  0  0  0  0
   34.8500   30.7640   41.5160 H   0  0  0  0  0  0  0  0  0  0  0  0
  1  7  1  6  0  0  0
  1  2  1  0  0  0  0
  2  8  1  1  0  0  0
  2  3  1  0  0  0  0
  2 17  1  0  0  0  0
  4 10  1  0  0  0  0
  4  3  1  0  0  0  0
  5 11  1  6  0  0  0
  5  4  1  0  0  0  0
  6  5  1  0  0  0  0
  6  1  1  0  0  0  0
  6 12  1  1  0  0  0
  9  4  1  0  0  0  0
 13  1  1  0  0  0  0
 14 13  1  0  0  0  0
 15  5  1  0  0  0  0
 16 15  1  0  0  0  0
 17 18  1  0  0  0  0
 18 23  2  0  0  0  0
 18 19  1  0  0  0  0
 19 20  2  0  0  0  0
 20 21  1  0  0  0  0
 20 26  1  0  0  0  0
 22 25  1  0  0  0  0
 22 21  2  0  0  0  0
 23 22  1  0  0  0  0
 24 19  1  0  0  0  0
 26 29  1  0  0  0  0
 27 30  1  0  0  0  0
 27 26  1  0  0  0  0
 28 27  1  0  0  0  0
 28 32  1  0  0  0  0
 28 26  1  0  0  0  0
 31 27  1  0  0  0  0
 33 28  1  0  0  0  0
 34  6  1  0  0  0  0
 35 40  1  6  0  0  0
 35 39  1  0  0  0  0
 36 34  1  1  0  0  0
 36 37  1  0  0  0  0
 36 35  1  0  0  0  0
 37 38  1  0  0  0  0
 38 39  1  0  0  0  0
 39 42  1  1  0  0  0
 41 40  1  0  0  0  0
 42 43  1  0  0  0  0
M  END
>  <minimizedAffinity>
-6.11983538

$$$$

 OpenBabel03242523533D

 43 46  0  0  1  0  0  0  0  0999 V2000
   37.7420   29.2240   42.0600 C   0  0  1  0  0  0  0  0  0  0  0  0
   37.4780   27.7680   41.6630 C   0  0  1  0  0  0  0  0  0  0  0  0
   36.5190   27.7500   40.6300 O   0  0  0  0  0  0  0  0  0  0  0  0
   35.5590   28.7550   40.7630 C   0  0  0  0  0  0  0  0  0  0  0  0
   36.1590   30.1210   40.4980 C   0  0  2  0  0  0  0  0  0  0  0  0
   37.6740   30.0090   40.7640 C   0  0  1  0  0  0  0  0  0  0  0  0
   38.7270   29.3170   42.5600 H   0  0  0  0  0  0  0  0  0  0  0  0
   37.1340   27.1780   42.5150 H   0  0  0  0  0  0  0  0  0  0  0  0
   35.0060   28.7000   41.7130 H   0  0  0  0  0  0  0  0  0  0  0  0
   34.8390   28.5750   39.9510 H   0  0  0  0  0  0  0  0  0  0  0  0
   35.9560   30.5100   39.4920 H   0  0  0  0  0  0  0  0  0  0  0  0
   38.0960   29.3860   39.9700 H   0  0  0  0  0  0  0  0  0  0  0  0
   36.7560   29.6670   42.9410 O   0  0  0  0  0  0  0  0  0  0  0  0
   37.1180   30.0120   43.7790 H   0  0  0  0  0  0  0  0  0  0  0  0
   35.7000   30.9980   41.4850 O   0  0  0  0  0  0  0  0  0  0  0  0
   35.7970   31.9420   41.2090 H   0  0  0  0  0  0  0  0  0  0  0  0
   38.6550   27.3250   41.0460 O   0  0  0  0  0  0  0  0  0  0  0  0
   38.8420   26.1130   40.5090 C   0  0  0  0  0  0  0  0  0  0  0  0
   39.2670   25.9760   39.1910 C   0  0  0  0  0  0  0  0  0  0  0  0
   39.4510   24.7020   38.6770 C   0  0  0  0  0  0  0  0  0  0  0  0
   39.2070   23.6000   39.4830 N   0  0  0  0  0  0  0  0  0  0  0  0
   38.7960   23.7760   40.7540 C   0  0  0  0  0  0  0  0  0  0  0  0
   38.6120   25.0160   41.2710 N   0  0  0  0  0  0  0  0  0  0  0  0
   39.4490   26.8430   38.5870 H   0  0  0  0  0  0  0  0  0  0  0  0
   38.6220   22.8720   41.3300 H   0  0  0  0  0  0  0  0  0  0  0  0
   39.8900   24.4990   37.2560 C   0  0  0  0  0  0  0  0  0  0  0  0
   39.0120   25.0750   36.1680 C   0  0  0  0  0  0  0  0  0  0  0  0
   40.4180   25.6010   36.4970 C   0  0  0  0  0  0  0  0  0  0  0  0
   40.2890   23.4660   37.0870 H   0  0  0  0  0  0  0  0  0  0  0  0
   38.9370   24.4750   35.2640 H   0  0  0  0  0  0  0  0  0  0  0  0
   38.1340   25.6540   36.4570 H   0  0  0  0  0  0  0  0  0  0  0  0
   41.1710   25.5160   35.7030 H   0  0  0  0  0  0  0  0  0  0  0  0
   40.3860   26.6160   36.9530 H   0  0  0  0  0  0  0  0  0  0  0  0
   38.2530   31.2570   40.8420 O   0  0  0  0  0  0  0  0  0  0  0  0
   39.0750   32.4270   38.9010 C   0  0  2  0  0  3  0  0  0  0  0  0
   39.3030   31.3630   39.9420 C   0  0  2  0  0  3  0  0  0  0  0  0
   39.2590   30.1930   39.1760 O   0  0  0  0  0  0  0  0  0  0  0  0
   39.8830   30.4360   37.9770 C   0  0  0  0  0  2  0  0  0  0  0  0
   39.9620   31.9290   37.7660 C   0  0  1  0  0  3  0  0  0  0  0  0
   39.6290   33.6640   39.2720 O   0  0  0  0  0  0  0  0  0  0  0  0
   40.5960   33.5540   39.3650 H   0  0  0  0  0  0  0  0  0  0  0  0
   39.4880   32.3190   36.5200 O   0  0  0  0  0  0  0  0  0  0  0  0
   40.2750   32.3610   35.8940 H   0  0  0  0  0  0  0  0  0  0  0  0
  1  7  1  1  0  0  0
  1 13  1  0  0  0  0
  2  1  1  0  0  0  0
  2  8  1  1  0  0  0
  3  4  1  0  0  0  0
  3  2  1  0  0  0  0
  4  9  1  0  0  0  0
  5 11  1  6  0  0  0
  5  4  1  0  0  0  0
  5  6  1  0  0  0  0
  5 15  1  0  0  0  0
  6 12  1  6  0  0  0
  6 34  1  0  0  0  0
  6  1  1  0  0  0  0
 10  4  1  0  0  0  0
 13 14  1  0  0  0  0
 16 15  1  0  0  0  0
 17  2  1  0  0  0  0
 18 17  1  0  0  0  0
 18 23  1  0  0  0  0
 19 18  2  0  0  0  0
 20 19  1  0  0  0  0
 20 21  2  0  0  0  0
 21 22  1  0  0  0  0
 22 23  2  0  0  0  0
 22 25  1  0  0  0  0
 24 19  1  0  0  0  0
 26 20  1  0  0  0  0
 27 31  1  0  0  0  0
 27 28  1  0  0  0  0
 27 26  1  0  0  0  0
 28 33  1  0  0  0  0
 28 26  1  0  0  0  0
 29 26  1  0  0  0  0
 30 27  1  0  0  0  0
 32 28  1  0  0  0  0
 35 40  1  1  0  0  0
 35 36  1  0  0  0  0
 36 34  1  1  0  0  0
 37 36  1  0  0  0  0
 38 37  1  0  0  0  0
 39 42  1  6  0  0  0
 39 38  1  0  0  0  0
 39 35  1  0  0  0  0
 40 41  1  0  0  0  0
 43 42  1  0  0  0  0
M  END
>  <minimizedAffinity>
-6.1114049

$$$$

 OpenBabel03242523533D

 43 46  0  0  1  0  0  0  0  0999 V2000
   36.7530   30.1320   41.3530 C   0  0  1  0  0  0  0  0  0  0  0  0
   36.4090   29.0060   40.3740 C   0  0  1  0  0  0  0  0  0  0  0  0
   36.6900   29.4470   39.0650 O   0  0  0  0  0  0  0  0  0  0  0  0
   36.4300   30.8060   38.8820 C   0  0  0  0  0  0  0  0  0  0  0  0
   37.4320   31.6590   39.6330 C   0  0  2  0  0  0  0  0  0  0  0  0
   37.9920   30.7940   40.7800 C   0  0  1  0  0  0  0  0  0  0  0  0
   36.9240   29.7240   42.3690 H   0  0  0  0  0  0  0  0  0  0  0  0
   35.3620   28.7080   40.4600 H   0  0  0  0  0  0  0  0  0  0  0  0
   35.3850   31.0770   39.0920 H   0  0  0  0  0  0  0  0  0  0  0  0
   36.6100   30.9930   37.8130 H   0  0  0  0  0  0  0  0  0  0  0  0
   38.2370   32.0610   39.0040 H   0  0  0  0  0  0  0  0  0  0  0  0
   38.6110   30.0140   40.3250 H   0  0  0  0  0  0  0  0  0  0  0  0
   35.7060   31.0500   41.4160 O   0  0  0  0  0  0  0  0  0  0  0  0
   35.3730   31.1900   42.3230 H   0  0  0  0  0  0  0  0  0  0  0  0
   36.7340   32.6820   40.2820 O   0  0  0  0  0  0  0  0  0  0  0  0
   37.3300   33.4310   40.5280 H   0  0  0  0  0  0  0  0  0  0  0  0
   37.3550   27.9990   40.6070 O   0  0  0  0  0  0  0  0  0  0  0  0
   37.0820   26.6990   40.7650 C   0  0  0  0  0  0  0  0  0  0  0  0
   36.6490   25.9250   39.6910 C   0  0  0  0  0  0  0  0  0  0  0  0
   36.3810   24.5820   39.9000 C   0  0  0  0  0  0  0  0  0  0  0  0
   36.5480   24.0430   41.1670 N   0  0  0  0  0  0  0  0  0  0  0  0
   36.9680   24.8250   42.1790 C   0  0  0  0  0  0  0  0  0  0  0  0
   37.2350   26.1400   41.9910 N   0  0  0  0  0  0  0  0  0  0  0  0
   36.5270   26.3650   38.7210 H   0  0  0  0  0  0  0  0  0  0  0  0
   37.0770   24.3400   43.1450 H   0  0  0  0  0  0  0  0  0  0  0  0
   35.8940   23.7080   38.7800 C   0  0  0  0  0  0  0  0  0  0  0  0
   34.7100   22.8120   39.0630 C   0  0  0  0  0  0  0  0  0  0  0  0
   34.6600   24.0150   38.1080 C   0  0  0  0  0  0  0  0  0  0  0  0
   36.7420   23.2560   38.2070 H   0  0  0  0  0  0  0  0  0  0  0  0
   34.7400   21.8360   38.5860 H   0  0  0  0  0  0  0  0  0  0  0  0
   34.2290   22.8740   40.0410 H   0  0  0  0  0  0  0  0  0  0  0  0
   34.4440   23.7950   37.0540 H   0  0  0  0  0  0  0  0  0  0  0  0
   34.0320   24.8420   38.5120 H   0  0  0  0  0  0  0  0  0  0  0  0
   38.6780   31.5680   41.6910 O   0  0  0  0  0  0  0  0  0  0  0  0
   40.8300   32.1680   40.7850 C   0  0  2  0  0  3  0  0  0  0  0  0
   40.0290   31.2550   41.6760 C   0  0  2  0  0  3  0  0  0  0  0  0
   40.1230   30.0340   41.0000 O   0  0  0  0  0  0  0  0  0  0  0  0
   41.3930   29.9180   40.4900 C   0  0  0  0  0  2  0  0  0  0  0  0
   42.0280   31.2860   40.4550 C   0  0  1  0  0  3  0  0  0  0  0  0
   41.3700   33.2590   41.4870 O   0  0  0  0  0  0  0  0  0  0  0  0
   41.9800   32.9150   42.1710 H   0  0  0  0  0  0  0  0  0  0  0  0
   42.5770   31.5910   39.2150 O   0  0  0  0  0  0  0  0  0  0  0  0
   43.5480   31.3280   39.2390 H   0  0  0  0  0  0  0  0  0  0  0  0
  1 13  1  0  0  0  0
  1  7  1  1  0  0  0
  2  8  1  1  0  0  0
  2 17  1  0  0  0  0
  2  1  1  0  0  0  0
  3  2  1  0  0  0  0
  4  3  1  0  0  0  0
  4  9  1  0  0  0  0
  4  5  1  0  0  0  0
  5 11  1  6  0  0  0
  5 15  1  0  0  0  0
  5  6  1  0  0  0  0
  6 12  1  6  0  0  0
  6  1  1  0  0  0  0
  6 34  1  0  0  0  0
 10  4  1  0  0  0  0
 13 14  1  0  0  0  0
 15 16  1  0  0  0  0
 17 18  1  0  0  0  0
 18 23  1  0  0  0  0
 19 20  1  0  0  0  0
 19 18  2  0  0  0  0
 20 21  2  0  0  0  0
 21 22  1  0  0  0  0
 22 25  1  0  0  0  0
 23 22  2  0  0  0  0
 24 19  1  0  0  0  0
 26 27  1  0  0  0  0
 26 20  1  0  0  0  0
 27 31  1  0  0  0  0
 28 33  1  0  0  0  0
 28 26  1  0  0  0  0
 28 27  1  0  0  0  0
 29 26  1  0  0  0  0
 30 27  1  0  0  0  0
 32 28  1  0  0  0  0
 35 40  1  1  0  0  0
 35 36  1  0  0  0  0
 36 34  1  6  0  0  0
 37 36  1  0  0  0  0
 38 37  1  0  0  0  0
 39 42  1  6  0  0  0
 39 38  1  0  0  0  0
 39 35  1  0  0  0  0
 40 41  1  0  0  0  0
 42 43  1  0  0  0  0
M  END
>  <minimizedAffinity>
-5.86695147

$$$$

 OpenBabel03242523533D

 43 46  0  0  1  0  0  0  0  0999 V2000
   37.5170   30.8880   40.7940 C   0  0  1  0  0  0  0  0  0  0  0  0
   37.3030   29.5780   40.0300 C   0  0  1  0  0  0  0  0  0  0  0  0
   37.3230   29.8540   38.6480 O   0  0  0  0  0  0  0  0  0  0  0  0
   36.7610   31.0920   38.3330 C   0  0  0  0  0  0  0  0  0  0  0  0
   37.6440   32.2290   38.8080 C   0  0  2  0  0  0  0  0  0  0  0  0
   38.5100   31.6770   39.9600 C   0  0  1  0  0  0  0  0  0  0  0  0
   37.8930   30.6840   41.8160 H   0  0  0  0  0  0  0  0  0  0  0  0
   36.3620   29.1010   40.3110 H   0  0  0  0  0  0  0  0  0  0  0  0
   35.7160   31.1870   38.6620 H   0  0  0  0  0  0  0  0  0  0  0  0
   36.7670   31.1400   37.2340 H   0  0  0  0  0  0  0  0  0  0  0  0
   38.2630   32.6730   38.0190 H   0  0  0  0  0  0  0  0  0  0  0  0
   39.2190   30.9690   39.5210 H   0  0  0  0  0  0  0  0  0  0  0  0
   36.3150   31.5870   40.8950 O   0  0  0  0  0  0  0  0  0  0  0  0
   36.0720   31.8000   41.8160 H   0  0  0  0  0  0  0  0  0  0  0  0
   36.8300   33.1870   39.4180 O   0  0  0  0  0  0  0  0  0  0  0  0
   37.2790   34.0660   39.4730 H   0  0  0  0  0  0  0  0  0  0  0  0
   38.4620   28.8200   40.2450 O   0  0  0  0  0  0  0  0  0  0  0  0
   38.6250   27.9090   41.2110 C   0  0  0  0  0  0  0  0  0  0  0  0
   37.9780   26.6780   41.1480 C   0  0  0  0  0  0  0  0  0  0  0  0
   38.1780   25.7630   42.1690 C   0  0  0  0  0  0  0  0  0  0  0  0
   39.0150   26.0940   43.2250 N   0  0  0  0  0  0  0  0  0  0  0  0
   39.6230   27.2950   43.2490 C   0  0  0  0  0  0  0  0  0  0  0  0
   39.4370   28.2000   42.2570 N   0  0  0  0  0  0  0  0  0  0  0  0
   37.3350   26.4460   40.3210 H   0  0  0  0  0  0  0  0  0  0  0  0
   40.2640   27.4900   44.1040 H   0  0  0  0  0  0  0  0  0  0  0  0
   37.4890   24.4300   42.1580 C   0  0  0  0  0  0  0  0  0  0  0  0
   36.5240   24.1560   41.0260 C   0  0  0  0  0  0  0  0  0  0  0  0
   37.8670   23.4280   41.1970 C   0  0  0  0  0  0  0  0  0  0  0  0
   37.1630   24.1220   43.1830 H   0  0  0  0  0  0  0  0  0  0  0  0
   35.6420   23.5800   41.2950 H   0  0  0  0  0  0  0  0  0  0  0  0
   36.4090   24.9080   40.2440 H   0  0  0  0  0  0  0  0  0  0  0  0
   37.8190   22.3440   41.3640 H   0  0  0  0  0  0  0  0  0  0  0  0
   38.5960   23.7100   40.4030 H   0  0  0  0  0  0  0  0  0  0  0  0
   39.1210   32.7020   40.6490 O   0  0  0  0  0  0  0  0  0  0  0  0
   41.0810   31.9510   41.8350 C   0  0  2  0  0  3  0  0  0  0  0  0
   40.5010   32.5720   40.5920 C   0  0  2  0  0  3  0  0  0  0  0  0
   41.0020   33.8750   40.6570 O   0  0  0  0  0  0  0  0  0  0  0  0
   42.2930   33.8200   41.1250 C   0  0  0  0  0  2  0  0  0  0  0  0
   42.5070   32.4860   41.7980 C   0  0  1  0  0  3  0  0  0  0  0  0
   41.2180   30.5570   41.7210 O   0  0  0  0  0  0  0  0  0  0  0  0
   41.8370   30.3660   40.9880 H   0  0  0  0  0  0  0  0  0  0  0  0
   43.0530   32.6100   43.0690 O   0  0  0  0  0  0  0  0  0  0  0  0
   44.0530   32.5330   42.9800 H   0  0  0  0  0  0  0  0  0  0  0  0
  1 13  1  0  0  0  0
  1  7  1  1  0  0  0
  2 17  1  0  0  0  0
  2  8  1  1  0  0  0
  2  1  1  0  0  0  0
  3  2  1  0  0  0  0
  4  3  1  0  0  0  0
  4  9  1  0  0  0  0
  4  5  1  0  0  0  0
  5 11  1  6  0  0  0
  5 15  1  0  0  0  0
  5  6  1  0  0  0  0
  6 12  1  6  0  0  0
  6 34  1  0  0  0  0
  6  1  1  0  0  0  0
 10  4  1  0  0  0  0
 13 14  1  0  0  0  0
 15 16  1  0  0  0  0
 17 18  1  0  0  0  0
 18 23  1  0  0  0  0
 19 18  2  0  0  0  0
 19 20  1  0  0  0  0
 20 21  2  0  0  0  0
 21 22  1  0  0  0  0
 22 25  1  0  0  0  0
 23 22  2  0  0  0  0
 24 19  1  0  0  0  0
 26 20  1  0  0  0  0
 26 29  1  0  0  0  0
 27 28  1  0  0  0  0
 27 30  1  0  0  0  0
 27 26  1  0  0  0  0
 28 32  1  0  0  0  0
 28 26  1  0  0  0  0
 31 27  1  0  0  0  0
 33 28  1  0  0  0  0
 35 40  1  6  0  0  0
 36 34  1  1  0  0  0
 36 37  1  0  0  0  0
 36 35  1  0  0  0  0
 37 38  1  0  0  0  0
 38 39  1  0  0  0  0
 39 35  1  0  0  0  0
 39 42  1  1  0  0  0
 41 40  1  0  0  0  0
 43 42  1  0  0  0  0
M  END
>  <minimizedAffinity>
-5.8399806

$$$$
