
 OpenBabel03252505283D

 24 25  0  0  1  0  0  0  0  0999 V2000
   35.2990   29.9970   38.8800 O   0  0  0  0  0  0  0  0  0  0  0  0
   36.2040   29.9610   40.1010 P   0  0  1  0  0  0  0  0  0  0  0  0
   35.6560   31.0210   41.2960 O   0  0  0  0  0  0  0  0  0  0  0  0
   36.3840   31.3820   41.8520 H   0  0  0  0  0  0  0  0  0  0  0  0
   36.2330   28.3740   40.6570 O   0  0  0  0  0  0  0  0  0  0  0  0
   38.1640   28.2530   43.6550 C   0  0  0  0  0  0  0  0  0  0  0  0
   38.7200   26.9620   43.6530 C   0  0  0  0  0  0  0  0  0  0  0  0
   38.3940   26.1300   42.5600 C   0  0  0  0  0  0  0  0  0  0  0  0
   37.5820   26.6150   41.5980 N   0  0  0  0  0  0  0  0  0  0  0  0
   37.0690   27.8560   41.6330 C   0  0  0  0  0  0  0  0  0  0  0  0
   37.3560   28.6690   42.6510 N   0  0  0  0  0  0  0  0  0  0  0  0
   38.3990   28.9120   44.4850 H   0  0  0  0  0  0  0  0  0  0  0  0
   39.3590   26.6630   44.4690 H   0  0  0  0  0  0  0  0  0  0  0  0
   38.8130   25.1330   42.5410 H   0  0  0  0  0  0  0  0  0  0  0  0
   37.7210   30.5070   39.5940 O   0  0  0  0  0  0  0  0  0  0  0  0
   38.1520   32.8480   39.7550 C   0  0  2  0  0  3  0  0  0  0  0  0
   38.2710   31.4880   40.3710 C   0  0  2  0  0  3  0  0  0  0  0  0
   39.5980   31.2870   40.6960 O   0  0  0  0  0  0  0  0  0  0  0  0
   40.2480   32.4880   40.7260 C   0  0  0  0  0  2  0  0  0  0  0  0
   39.2670   33.5970   40.4550 C   0  0  2  0  0  3  0  0  0  0  0  0
   36.9080   33.4090   40.0280 O   0  0  0  0  0  0  0  0  0  0  0  0
   36.8180   34.2710   39.5690 H   0  0  0  0  0  0  0  0  0  0  0  0
   38.7630   34.1610   41.6330 O   0  0  0  0  0  0  0  0  0  0  0  0
   39.1200   33.7080   42.4590 H   0  0  0  0  0  0  0  0  0  0  0  0
  2  1  2  6  0  0  0
  2  5  1  0  0  0  0
  2  3  1  0  0  0  0
  3  4  1  0  0  0  0
  5 10  1  0  0  0  0
  6 12  1  0  0  0  0
  7  6  1  0  0  0  0
  7 13  1  0  0  0  0
  8  7  2  0  0  0  0
  9 10  2  0  0  0  0
  9  8  1  0  0  0  0
 10 11  1  0  0  0  0
 11  6  2  0  0  0  0
 14  8  1  0  0  0  0
 15  2  1  0  0  0  0
 16 21  1  1  0  0  0
 16 17  1  0  0  0  0
 16 20  1  0  0  0  0
 17 15  1  6  0  0  0
 17 18  1  0  0  0  0
 18 19  1  0  0  0  0
 20 19  1  0  0  0  0
 20 23  1  1  0  0  0
 22 21  1  0  0  0  0
 23 24  1  0  0  0  0
M  END
>  <minimizedAffinity>
-5.45297003

$$$$

 OpenBabel03252505283D

 24 25  0  0  1  0  0  0  0  0999 V2000
   37.2710   32.6210   38.4570 O   0  0  0  0  0  0  0  0  0  0  0  0
   37.9050   32.3550   39.8130 P   0  0  1  0  0  0  0  0  0  0  0  0
   38.2350   33.8000   40.6240 O   0  0  0  0  0  0  0  0  0  0  0  0
   39.0130   33.7340   41.2250 H   0  0  0  0  0  0  0  0  0  0  0  0
   36.8380   31.3930   40.6860 O   0  0  0  0  0  0  0  0  0  0  0  0
   36.5610   28.0590   41.9270 C   0  0  0  0  0  0  0  0  0  0  0  0
   37.6590   27.9230   42.7940 C   0  0  0  0  0  0  0  0  0  0  0  0
   38.5050   29.0450   42.9300 C   0  0  0  0  0  0  0  0  0  0  0  0
   38.2140   30.1620   42.2320 N   0  0  0  0  0  0  0  0  0  0  0  0
   37.1550   30.2560   41.4120 C   0  0  0  0  0  0  0  0  0  0  0  0
   36.3350   29.2150   41.2590 N   0  0  0  0  0  0  0  0  0  0  0  0
   35.8960   27.2100   41.8050 H   0  0  0  0  0  0  0  0  0  0  0  0
   37.8100   26.9880   43.3100 H   0  0  0  0  0  0  0  0  0  0  0  0
   39.3560   28.9590   43.5930 H   0  0  0  0  0  0  0  0  0  0  0  0
   39.3830   31.5920   39.5140 O   0  0  0  0  0  0  0  0  0  0  0  0
   40.6730   31.9260   37.5350 C   0  0  2  0  0  3  0  0  0  0  0  0
   40.3300   32.3790   38.9200 C   0  0  2  0  0  3  0  0  0  0  0  0
   41.5090   32.4940   39.6300 O   0  0  0  0  0  0  0  0  0  0  0  0
   42.5620   32.5540   38.7610 C   0  0  0  0  0  2  0  0  0  0  0  0
   42.0470   32.5350   37.3470 C   0  0  2  0  0  3  0  0  0  0  0  0
   39.7610   32.4250   36.6090 O   0  0  0  0  0  0  0  0  0  0  0  0
   39.9590   32.0730   35.7160 H   0  0  0  0  0  0  0  0  0  0  0  0
   41.9020   33.8230   36.8170 O   0  0  0  0  0  0  0  0  0  0  0  0
   42.1390   34.5410   37.4820 H   0  0  0  0  0  0  0  0  0  0  0  0
  2  1  2  6  0  0  0
  2  3  1  0  0  0  0
  2  5  1  0  0  0  0
  3  4  1  0  0  0  0
  5 10  1  0  0  0  0
  6  7  1  0  0  0  0
  7  8  2  0  0  0  0
  7 13  1  0  0  0  0
  8 14  1  0  0  0  0
  9  8  1  0  0  0  0
 10  9  2  0  0  0  0
 11 10  1  0  0  0  0
 11  6  2  0  0  0  0
 12  6  1  0  0  0  0
 15  2  1  0  0  0  0
 16 21  1  6  0  0  0
 16 17  1  0  0  0  0
 17 15  1  1  0  0  0
 17 18  1  0  0  0  0
 19 18  1  0  0  0  0
 20 23  1  1  0  0  0
 20 16  1  0  0  0  0
 20 19  1  0  0  0  0
 22 21  1  0  0  0  0
 23 24  1  0  0  0  0
M  END
>  <minimizedAffinity>
-5.38036013

$$$$

 OpenBabel03252505283D

 24 25  0  0  1  0  0  0  0  0999 V2000
   36.5500   28.0500   40.7090 O   0  0  0  0  0  0  0  0  0  0  0  0
   37.0440   29.2700   41.4670 P   0  0  1  0  0  0  0  0  0  0  0  0
   35.7920   30.3730   41.7290 O   0  0  0  0  0  0  0  0  0  0  0  0
   36.1040   31.3060   41.7700 H   0  0  0  0  0  0  0  0  0  0  0  0
   37.6960   28.7280   42.9190 O   0  0  0  0  0  0  0  0  0  0  0  0
   39.5740   25.7270   43.3620 C   0  0  0  0  0  0  0  0  0  0  0  0
   40.9110   26.1590   43.3890 C   0  0  0  0  0  0  0  0  0  0  0  0
   41.1350   27.5460   43.2460 C   0  0  0  0  0  0  0  0  0  0  0  0
   40.0690   28.3600   43.0950 N   0  0  0  0  0  0  0  0  0  0  0  0
   38.8040   27.9110   43.0740 C   0  0  0  0  0  0  0  0  0  0  0  0
   38.5560   26.6070   43.2070 N   0  0  0  0  0  0  0  0  0  0  0  0
   39.3760   24.6650   43.4710 H   0  0  0  0  0  0  0  0  0  0  0  0
   41.6970   25.4320   43.5150 H   0  0  0  0  0  0  0  0  0  0  0  0
   42.1580   27.8970   43.2640 H   0  0  0  0  0  0  0  0  0  0  0  0
   38.1870   30.0250   40.4760 O   0  0  0  0  0  0  0  0  0  0  0  0
   38.1990   32.3780   40.0860 C   0  0  2  0  0  3  0  0  0  0  0  0
   38.6450   31.2280   40.9350 C   0  0  2  0  0  3  0  0  0  0  0  0
   40.0170   31.3080   41.0660 O   0  0  0  0  0  0  0  0  0  0  0  0
   40.4350   32.5680   40.7430 C   0  0  0  0  0  2  0  0  0  0  0  0
   39.2410   33.4250   40.4220 C   0  0  2  0  0  3  0  0  0  0  0  0
   36.9210   32.7940   40.4440 O   0  0  0  0  0  0  0  0  0  0  0  0
   36.6150   33.5050   39.8430 H   0  0  0  0  0  0  0  0  0  0  0  0
   38.8010   34.1610   41.5300 O   0  0  0  0  0  0  0  0  0  0  0  0
   39.3410   33.9670   42.3570 H   0  0  0  0  0  0  0  0  0  0  0  0
  2  1  2  6  0  0  0
  2  3  1  0  0  0  0
  2  5  1  0  0  0  0
  3  4  1  0  0  0  0
  5 10  1  0  0  0  0
  6  7  1  0  0  0  0
  6 12  1  0  0  0  0
  7 13  1  0  0  0  0
  8 14  1  0  0  0  0
  8  7  2  0  0  0  0
  9  8  1  0  0  0  0
 10  9  2  0  0  0  0
 10 11  1  0  0  0  0
 11  6  2  0  0  0  0
 15  2  1  0  0  0  0
 16 20  1  0  0  0  0
 16 21  1  1  0  0  0
 16 17  1  0  0  0  0
 17 15  1  6  0  0  0
 17 18  1  0  0  0  0
 19 18  1  0  0  0  0
 20 19  1  0  0  0  0
 20 23  1  1  0  0  0
 22 21  1  0  0  0  0
 23 24  1  0  0  0  0
M  END
>  <minimizedAffinity>
-5.25049162

$$$$

 OpenBabel03252505283D

 24 25  0  0  1  0  0  0  0  0999 V2000
   34.7000   29.3310   39.6930 O   0  0  0  0  0  0  0  0  0  0  0  0
   36.1180   29.5150   40.2100 P   0  0  1  0  0  0  0  0  0  0  0  0
   36.1300   29.7560   41.8810 O   0  0  0  0  0  0  0  0  0  0  0  0
   36.8820   30.3170   42.1820 H   0  0  0  0  0  0  0  0  0  0  0  0
   36.9890   28.1420   39.7830 O   0  0  0  0  0  0  0  0  0  0  0  0
   37.1990   25.7370   42.4110 C   0  0  0  0  0  0  0  0  0  0  0  0
   36.8870   24.5180   41.7860 C   0  0  0  0  0  0  0  0  0  0  0  0
   36.5980   24.5650   40.4050 C   0  0  0  0  0  0  0  0  0  0  0  0
   36.6390   25.7590   39.7770 N   0  0  0  0  0  0  0  0  0  0  0  0
   36.9420   26.9060   40.4070 C   0  0  0  0  0  0  0  0  0  0  0  0
   37.2200   26.8970   41.7120 N   0  0  0  0  0  0  0  0  0  0  0  0
   37.4250   25.7260   43.4720 H   0  0  0  0  0  0  0  0  0  0  0  0
   36.8790   23.6120   42.3720 H   0  0  0  0  0  0  0  0  0  0  0  0
   36.3560   23.6360   39.9060 H   0  0  0  0  0  0  0  0  0  0  0  0
   36.7150   30.9220   39.4880 O   0  0  0  0  0  0  0  0  0  0  0  0
   37.9060   32.9830   39.6400 C   0  0  2  0  0  3  0  0  0  0  0  0
   37.4630   31.7190   40.3090 C   0  0  2  0  0  3  0  0  0  0  0  0
   38.5830   31.1070   40.8380 O   0  0  0  0  0  0  0  0  0  0  0  0
   39.6000   32.0150   40.9290 C   0  0  0  0  0  2  0  0  0  0  0  0
   39.1090   33.3640   40.4770 C   0  0  2  0  0  3  0  0  0  0  0  0
   36.9110   33.9530   39.7020 O   0  0  0  0  0  0  0  0  0  0  0  0
   37.1870   34.7530   39.2080 H   0  0  0  0  0  0  0  0  0  0  0  0
   38.6810   34.1610   41.5470 O   0  0  0  0  0  0  0  0  0  0  0  0
   38.7470   33.6830   42.4310 H   0  0  0  0  0  0  0  0  0  0  0  0
  2  1  2  6  0  0  0
  2  3  1  0  0  0  0
  3  4  1  0  0  0  0
  5  2  1  0  0  0  0
  5 10  1  0  0  0  0
  6 12  1  0  0  0  0
  7 13  1  0  0  0  0
  7  6  1  0  0  0  0
  8  7  2  0  0  0  0
  9  8  1  0  0  0  0
  9 10  2  0  0  0  0
 10 11  1  0  0  0  0
 11  6  2  0  0  0  0
 14  8  1  0  0  0  0
 15  2  1  0  0  0  0
 16 21  1  1  0  0  0
 16 17  1  0  0  0  0
 16 20  1  0  0  0  0
 17 15  1  6  0  0  0
 17 18  1  0  0  0  0
 18 19  1  0  0  0  0
 20 19  1  0  0  0  0
 20 23  1  1  0  0  0
 22 21  1  0  0  0  0
 23 24  1  0  0  0  0
M  END
>  <minimizedAffinity>
-5.17191792

$$$$

 OpenBabel03252505283D

 24 25  0  0  1  0  0  0  0  0999 V2000
   35.1900   29.3950   39.4560 O   0  0  0  0  0  0  0  0  0  0  0  0
   36.3100   30.2780   39.9810 P   0  0  1  0  0  0  0  0  0  0  0  0
   35.8430   31.0790   41.3920 O   0  0  0  0  0  0  0  0  0  0  0  0
   36.2860   31.9520   41.5030 H   0  0  0  0  0  0  0  0  0  0  0  0
   37.6430   29.2890   40.2510 O   0  0  0  0  0  0  0  0  0  0  0  0
   39.5100   27.2990   42.5500 C   0  0  0  0  0  0  0  0  0  0  0  0
   38.6780   27.2050   43.6780 C   0  0  0  0  0  0  0  0  0  0  0  0
   37.4320   27.8670   43.6070 C   0  0  0  0  0  0  0  0  0  0  0  0
   37.1210   28.5380   42.4780 N   0  0  0  0  0  0  0  0  0  0  0  0
   37.9430   28.6060   41.4180 C   0  0  0  0  0  0  0  0  0  0  0  0
   39.1270   27.9930   41.4510 N   0  0  0  0  0  0  0  0  0  0  0  0
   40.4730   26.7990   42.5800 H   0  0  0  0  0  0  0  0  0  0  0  0
   39.0140   26.6450   44.5360 H   0  0  0  0  0  0  0  0  0  0  0  0
   36.7770   27.8060   44.4650 H   0  0  0  0  0  0  0  0  0  0  0  0
   36.5930   31.4520   38.7990 O   0  0  0  0  0  0  0  0  0  0  0  0
   38.9160   31.7980   38.3830 C   0  0  2  0  0  3  0  0  0  0  0  0
   37.6590   32.2720   39.0430 C   0  0  2  0  0  3  0  0  0  0  0  0
   37.9350   32.4730   40.3810 O   0  0  0  0  0  0  0  0  0  0  0  0
   39.2870   32.5640   40.5600 C   0  0  0  0  0  2  0  0  0  0  0  0
   39.9760   32.4760   39.2250 C   0  0  2  0  0  3  0  0  0  0  0  0
   38.9700   32.2180   37.0570 O   0  0  0  0  0  0  0  0  0  0  0  0
   39.7650   31.8510   36.6180 H   0  0  0  0  0  0  0  0  0  0  0  0
   40.2480   33.7370   38.6820 O   0  0  0  0  0  0  0  0  0  0  0  0
   39.9080   34.4860   39.2630 H   0  0  0  0  0  0  0  0  0  0  0  0
  2  1  2  6  0  0  0
  2  5  1  0  0  0  0
  2  3  1  0  0  0  0
  3  4  1  0  0  0  0
  5 10  1  0  0  0  0
  6 12  1  0  0  0  0
  6  7  1  0  0  0  0
  7 13  1  0  0  0  0
  8  7  2  0  0  0  0
  8 14  1  0  0  0  0
  9  8  1  0  0  0  0
 10 11  1  0  0  0  0
 10  9  2  0  0  0  0
 11  6  2  0  0  0  0
 15  2  1  0  0  0  0
 16 21  1  6  0  0  0
 16 17  1  0  0  0  0
 16 20  1  0  0  0  0
 17 15  1  1  0  0  0
 17 18  1  0  0  0  0
 18 19  1  0  0  0  0
 20 23  1  6  0  0  0
 20 19  1  0  0  0  0
 22 21  1  0  0  0  0
 23 24  1  0  0  0  0
M  END
>  <minimizedAffinity>
-5.11748505

$$$$

 OpenBabel03252505283D

 24 25  0  0  1  0  0  0  0  0999 V2000
   36.5570   31.2230   38.8740 O   0  0  0  0  0  0  0  0  0  0  0  0
   37.0380   30.8910   40.2770 P   0  0  1  0  0  0  0  0  0  0  0  0
   35.8310   31.1850   41.4210 O   0  0  0  0  0  0  0  0  0  0  0  0
   36.1910   31.4390   42.3020 H   0  0  0  0  0  0  0  0  0  0  0  0
   37.5030   29.2750   40.2780 O   0  0  0  0  0  0  0  0  0  0  0  0
   37.7040   28.2130   43.6780 C   0  0  0  0  0  0  0  0  0  0  0  0
   38.6140   27.1420   43.6500 C   0  0  0  0  0  0  0  0  0  0  0  0
   39.1590   26.8020   42.3930 C   0  0  0  0  0  0  0  0  0  0  0  0
   38.7790   27.5140   41.3110 N   0  0  0  0  0  0  0  0  0  0  0  0
   37.9060   28.5320   41.3760 C   0  0  0  0  0  0  0  0  0  0  0  0
   37.3720   28.8800   42.5480 N   0  0  0  0  0  0  0  0  0  0  0  0
   37.2710   28.4930   44.6340 H   0  0  0  0  0  0  0  0  0  0  0  0
   38.8560   26.6330   44.5690 H   0  0  0  0  0  0  0  0  0  0  0  0
   39.8620   25.9810   42.3520 H   0  0  0  0  0  0  0  0  0  0  0  0
   38.3190   31.9420   40.6090 O   0  0  0  0  0  0  0  0  0  0  0  0
   39.9920   31.4860   38.9710 C   0  0  2  0  0  3  0  0  0  0  0  0
   38.9640   32.4330   39.5080 C   0  0  2  0  0  3  0  0  0  0  0  0
   39.5760   33.6560   39.6980 O   0  0  0  0  0  0  0  0  0  0  0  0
   40.7400   33.7010   38.9840 C   0  0  0  0  0  2  0  0  0  0  0  0
   40.8980   32.4250   38.2010 C   0  0  2  0  0  3  0  0  0  0  0  0
   39.4080   30.5390   38.1360 O   0  0  0  0  0  0  0  0  0  0  0  0
   40.0780   29.8890   37.8390 H   0  0  0  0  0  0  0  0  0  0  0  0
   40.4190   32.5420   36.8910 O   0  0  0  0  0  0  0  0  0  0  0  0
   40.0240   33.4490   36.7060 H   0  0  0  0  0  0  0  0  0  0  0  0
  2  1  2  6  0  0  0
  2  5  1  0  0  0  0
  2 15  1  0  0  0  0
  2  3  1  0  0  0  0
  3  4  1  0  0  0  0
  5 10  1  0  0  0  0
  6 12  1  0  0  0  0
  7  6  1  0  0  0  0
  7 13  1  0  0  0  0
  8  7  2  0  0  0  0
  9 10  2  0  0  0  0
  9  8  1  0  0  0  0
 10 11  1  0  0  0  0
 11  6  2  0  0  0  0
 14  8  1  0  0  0  0
 16 21  1  6  0  0  0
 16 17  1  0  0  0  0
 17 18  1  0  0  0  0
 17 15  1  1  0  0  0
 19 18  1  0  0  0  0
 20 23  1  6  0  0  0
 20 16  1  0  0  0  0
 20 19  1  0  0  0  0
 22 21  1  0  0  0  0
 24 23  1  0  0  0  0
M  END
>  <minimizedAffinity>
-5.05941296

$$$$

 OpenBabel03252505283D

 24 25  0  0  1  0  0  0  0  0999 V2000
   37.6100   28.6020   38.5840 O   0  0  0  0  0  0  0  0  0  0  0  0
   36.6340   29.7670   38.6220 P   0  0  1  0  0  0  0  0  0  0  0  0
   35.3520   29.5210   37.5510 O   0  0  0  0  0  0  0  0  0  0  0  0
   34.9840   30.3620   37.1930 H   0  0  0  0  0  0  0  0  0  0  0  0
   36.0900   29.9140   40.2060 O   0  0  0  0  0  0  0  0  0  0  0  0
   38.2000   29.4100   43.0380 C   0  0  0  0  0  0  0  0  0  0  0  0
   37.7810   28.1770   43.5640 C   0  0  0  0  0  0  0  0  0  0  0  0
   36.7270   27.5220   42.8890 C   0  0  0  0  0  0  0  0  0  0  0  0
   36.1950   28.1110   41.7980 N   0  0  0  0  0  0  0  0  0  0  0  0
   36.6220   29.2920   41.3240 C   0  0  0  0  0  0  0  0  0  0  0  0
   37.6160   29.9380   41.9360 N   0  0  0  0  0  0  0  0  0  0  0  0
   39.0090   29.9330   43.5390 H   0  0  0  0  0  0  0  0  0  0  0  0
   38.2680   27.7850   44.4430 H   0  0  0  0  0  0  0  0  0  0  0  0
   36.3910   26.5710   43.2790 H   0  0  0  0  0  0  0  0  0  0  0  0
   37.4860   31.1270   38.0920 O   0  0  0  0  0  0  0  0  0  0  0  0
   37.7570   32.9940   39.5510 C   0  0  2  0  0  3  0  0  0  0  0  0
   38.3000   31.7010   39.0280 C   0  0  2  0  0  3  0  0  0  0  0  0
   39.5940   31.9270   38.6030 O   0  0  0  0  0  0  0  0  0  0  0  0
   40.0590   33.0890   39.1530 C   0  0  0  0  0  2  0  0  0  0  0  0
   39.0130   33.6630   40.0700 C   0  0  2  0  0  3  0  0  0  0  0  0
   36.8370   32.7710   40.5710 O   0  0  0  0  0  0  0  0  0  0  0  0
   36.4430   33.6200   40.8630 H   0  0  0  0  0  0  0  0  0  0  0  0
   39.2090   33.2850   41.4040 O   0  0  0  0  0  0  0  0  0  0  0  0
   39.9980   32.6690   41.5160 H   0  0  0  0  0  0  0  0  0  0  0  0
  2  1  2  6  0  0  0
  2  5  1  0  0  0  0
  3  2  1  0  0  0  0
  4  3  1  0  0  0  0
  5 10  1  0  0  0  0
  6 12  1  0  0  0  0
  6  7  1  0  0  0  0
  7 13  1  0  0  0  0
  8 14  1  0  0  0  0
  8  7  2  0  0  0  0
  9  8  1  0  0  0  0
 10  9  2  0  0  0  0
 10 11  1  0  0  0  0
 11  6  2  0  0  0  0
 15  2  1  0  0  0  0
 16 20  1  0  0  0  0
 16 21  1  1  0  0  0
 17 15  1  6  0  0  0
 17 16  1  0  0  0  0
 18 17  1  0  0  0  0
 18 19  1  0  0  0  0
 19 20  1  0  0  0  0
 20 23  1  1  0  0  0
 21 22  1  0  0  0  0
 23 24  1  0  0  0  0
M  END
>  <minimizedAffinity>
-4.97014189

$$$$

 OpenBabel03252505283D

 24 25  0  0  1  0  0  0  0  0999 V2000
   40.0190   29.0810   37.7110 O   0  0  0  0  0  0  0  0  0  0  0  0
   38.9530   29.4790   38.7190 P   0  0  1  0  0  0  0  0  0  0  0  0
   37.5520   28.5590   38.5170 O   0  0  0  0  0  0  0  0  0  0  0  0
   36.7340   29.0430   38.7760 H   0  0  0  0  0  0  0  0  0  0  0  0
   39.6100   29.2660   40.2520 O   0  0  0  0  0  0  0  0  0  0  0  0
   36.9550   28.4110   42.4780 C   0  0  0  0  0  0  0  0  0  0  0  0
   37.5820   27.6600   43.4870 C   0  0  0  0  0  0  0  0  0  0  0  0
   38.9740   27.4620   43.3620 C   0  0  0  0  0  0  0  0  0  0  0  0
   39.6090   27.9970   42.2980 N   0  0  0  0  0  0  0  0  0  0  0  0
   38.9770   28.7090   41.3520 C   0  0  0  0  0  0  0  0  0  0  0  0
   37.6620   28.9160   41.4390 N   0  0  0  0  0  0  0  0  0  0  0  0
   35.8850   28.5770   42.5520 H   0  0  0  0  0  0  0  0  0  0  0  0
   36.9890   27.2730   44.3010 H   0  0  0  0  0  0  0  0  0  0  0  0
   39.4750   26.8870   44.1300 H   0  0  0  0  0  0  0  0  0  0  0  0
   38.5560   31.0890   38.3920 O   0  0  0  0  0  0  0  0  0  0  0  0
   37.8990   33.0660   39.5540 C   0  0  2  0  0  3  0  0  0  0  0  0
   38.9130   31.9800   39.3640 C   0  0  2  0  0  3  0  0  0  0  0  0
   40.1420   32.5810   39.1690 O   0  0  0  0  0  0  0  0  0  0  0  0
   40.0920   33.8750   39.6040 C   0  0  0  0  0  2  0  0  0  0  0  0
   38.7360   34.1550   40.1930 C   0  0  2  0  0  3  0  0  0  0  0  0
   36.8750   32.6470   40.3960 O   0  0  0  0  0  0  0  0  0  0  0  0
   36.1870   33.3410   40.4650 H   0  0  0  0  0  0  0  0  0  0  0  0
   38.7140   33.9850   41.5830 O   0  0  0  0  0  0  0  0  0  0  0  0
   39.6010   33.6760   41.9450 H   0  0  0  0  0  0  0  0  0  0  0  0
  2  1  2  6  0  0  0
  2  5  1  0  0  0  0
  3  2  1  0  0  0  0
  3  4  1  0  0  0  0
  5 10  1  0  0  0  0
  6 12  1  0  0  0  0
  6  7  1  0  0  0  0
  7 13  1  0  0  0  0
  8  7  2  0  0  0  0
  8 14  1  0  0  0  0
  9  8  1  0  0  0  0
 10 11  1  0  0  0  0
 10  9  2  0  0  0  0
 11  6  2  0  0  0  0
 15  2  1  0  0  0  0
 16 20  1  0  0  0  0
 16 21  1  1  0  0  0
 17 15  1  6  0  0  0
 17 16  1  0  0  0  0
 18 17  1  0  0  0  0
 18 19  1  0  0  0  0
 19 20  1  0  0  0  0
 20 23  1  1  0  0  0
 21 22  1  0  0  0  0
 23 24  1  0  0  0  0
M  END
>  <minimizedAffinity>
-4.63284445

$$$$

 OpenBabel03252505283D

 24 25  0  0  1  0  0  0  0  0999 V2000
   40.7930   28.1780   41.1680 O   0  0  0  0  0  0  0  0  0  0  0  0
   40.7070   28.7750   42.5640 P   0  0  1  0  0  0  0  0  0  0  0  0
   41.7700   30.0760   42.7360 O   0  0  0  0  0  0  0  0  0  0  0  0
   42.0960   30.1850   43.6590 H   0  0  0  0  0  0  0  0  0  0  0  0
   39.1130   29.2510   42.8070 O   0  0  0  0  0  0  0  0  0  0  0  0
   38.4440   32.1190   40.7930 C   0  0  0  0  0  0  0  0  0  0  0  0
   37.0800   32.0040   40.4730 C   0  0  0  0  0  0  0  0  0  0  0  0
   36.3980   30.8800   40.9890 C   0  0  0  0  0  0  0  0  0  0  0  0
   37.0840   30.0000   41.7470 N   0  0  0  0  0  0  0  0  0  0  0  0
   38.3890   30.1430   42.0320 C   0  0  0  0  0  0  0  0  0  0  0  0
   39.0640   31.1920   41.5610 N   0  0  0  0  0  0  0  0  0  0  0  0
   38.9900   32.9740   40.4070 H   0  0  0  0  0  0  0  0  0  0  0  0
   36.6170   32.7590   39.8590 H   0  0  0  0  0  0  0  0  0  0  0  0
   35.3470   30.7740   40.7540 H   0  0  0  0  0  0  0  0  0  0  0  0
   41.2020   27.5670   43.6370 O   0  0  0  0  0  0  0  0  0  0  0  0
   40.9790   25.4490   42.5630 C   0  0  2  0  0  3  0  0  0  0  0  0
   40.4700   26.4150   43.5880 C   0  0  2  0  0  3  0  0  0  0  0  0
   39.1210   26.6010   43.3580 O   0  0  0  0  0  0  0  0  0  0  0  0
   38.6450   25.5840   42.5790 C   0  0  0  0  0  2  0  0  0  0  0  0
   39.7510   24.5990   42.3090 C   0  0  2  0  0  3  0  0  0  0  0  0
   42.0280   24.6910   43.0730 O   0  0  0  0  0  0  0  0  0  0  0  0
   42.3940   24.1070   42.3770 H   0  0  0  0  0  0  0  0  0  0  0  0
   39.7440   23.5310   43.2150 O   0  0  0  0  0  0  0  0  0  0  0  0
   39.0200   23.6200   43.9080 H   0  0  0  0  0  0  0  0  0  0  0  0
  2  1  2  6  0  0  0
  2  3  1  0  0  0  0
  2  5  1  0  0  0  0
  2 15  1  0  0  0  0
  3  4  1  0  0  0  0
  6 11  1  0  0  0  0
  7  6  2  0  0  0  0
  7  8  1  0  0  0  0
  8  9  2  0  0  0  0
  9 10  1  0  0  0  0
 10  5  1  0  0  0  0
 11 10  2  0  0  0  0
 12  6  1  0  0  0  0
 13  7  1  0  0  0  0
 14  8  1  0  0  0  0
 16 21  1  1  0  0  0
 16 17  1  0  0  0  0
 17 15  1  6  0  0  0
 18 17  1  0  0  0  0
 19 18  1  0  0  0  0
 20 16  1  0  0  0  0
 20 19  1  0  0  0  0
 20 23  1  1  0  0  0
 22 21  1  0  0  0  0
 23 24  1  0  0  0  0
M  END
>  <minimizedAffinity>
-4.603127

$$$$
