
 OpenBabel03242516323D

 31 33  0  0  1  0  0  0  0  0999 V2000
   36.7110   28.0960   42.1380 C   0  0  2  0  0  0  0  0  0  0  0  0
   38.1110   27.5240   41.8620 C   0  0  1  0  0  0  0  0  0  0  0  0
   38.7230   27.8950   43.0440 O   0  0  0  0  0  0  0  0  0  0  0  0
   38.4460   29.2610   43.1480 C   0  0  0  0  0  0  0  0  0  0  0  0
   37.1770   29.5370   42.3530 C   0  0  1  0  0  0  0  0  0  0  0  0
   36.0400   27.9940   41.2820 H   0  0  0  0  0  0  0  0  0  0  0  0
   38.4660   28.0710   40.9640 H   0  0  0  0  0  0  0  0  0  0  0  0
   39.2450   29.8820   42.6840 H   0  0  0  0  0  0  0  0  0  0  0  0
   38.3160   29.5110   44.2130 H   0  0  0  0  0  0  0  0  0  0  0  0
   36.4300   30.1250   42.9030 H   0  0  0  0  0  0  0  0  0  0  0  0
   38.8270   23.8070   41.5290 C   0  0  0  0  0  0  0  0  0  0  0  0
   39.0900   25.1450   41.8340 C   0  0  0  0  0  0  0  0  0  0  0  0
   38.0920   26.0830   41.6150 C   0  0  0  0  0  0  0  0  0  0  0  0
   36.8960   25.6340   41.1110 N   0  0  0  0  0  0  0  0  0  0  0  0
   36.6690   24.3390   40.8260 C   0  0  0  0  0  0  0  0  0  0  0  0
   37.6340   23.4260   41.0360 N   0  0  0  0  0  0  0  0  0  0  0  0
   39.6830   23.1510   41.7390 H   0  0  0  0  0  0  0  0  0  0  0  0
   39.9780   25.5770   42.2240 H   0  0  0  0  0  0  0  0  0  0  0  0
   35.7210   23.9990   40.4290 H   0  0  0  0  0  0  0  0  0  0  0  0
   36.2330   27.6560   43.3360 O   0  0  0  0  0  0  0  0  0  0  0  0
   35.2560   27.6380   43.3030 H   0  0  0  0  0  0  0  0  0  0  0  0
   37.4820   30.0600   41.1020 O   0  0  0  0  0  0  0  0  0  0  0  0
   37.6070   32.2980   40.2900 C   0  0  1  0  0  3  0  0  0  0  0  0
   36.7080   31.1310   40.7220 C   0  0  1  0  0  3  0  0  0  0  0  0
   36.1700   30.7890   39.4700 O   0  0  0  0  0  0  0  0  0  0  0  0
   37.3540   30.4920   38.7880 C   0  0  0  0  0  2  0  0  0  0  0  0
   38.1230   31.7870   38.9410 C   0  0  1  0  0  3  0  0  0  0  0  0
   36.7770   33.3670   39.9980 O   0  0  0  0  0  0  0  0  0  0  0  0
   35.8250   33.1860   40.0900 H   0  0  0  0  0  0  0  0  0  0  0  0
   37.7870   32.6250   37.8980 O   0  0  0  0  0  0  0  0  0  0  0  0
   38.2860   33.4690   37.8890 H   0  0  0  0  0  0  0  0  0  0  0  0
  1  6  1  6  0  0  0
  1  5  1  0  0  0  0
  1 20  1  0  0  0  0
  2  7  1  6  0  0  0
  2  1  1  0  0  0  0
  2  3  1  0  0  0  0
  3  4  1  0  0  0  0
  4  9  1  0  0  0  0
  5 10  1  1  0  0  0
  5  4  1  0  0  0  0
  8  4  1  0  0  0  0
 11 17  1  0  0  0  0
 11 12  1  0  0  0  0
 12 18  1  0  0  0  0
 13 12  2  0  0  0  0
 13  2  1  0  0  0  0
 14 13  1  0  0  0  0
 15 16  1  0  0  0  0
 15 14  2  0  0  0  0
 16 11  2  0  0  0  0
 19 15  1  0  0  0  0
 21 20  1  0  0  0  0
 22  5  1  0  0  0  0
 23 28  1  6  0  0  0
 23 24  1  0  0  0  0
 24 22  1  6  0  0  0
 25 24  1  0  0  0  0
 26 27  1  0  0  0  0
 26 25  1  0  0  0  0
 27 30  1  6  0  0  0
 27 23  1  0  0  0  0
 28 29  1  0  0  0  0
 31 30  1  0  0  0  0
M  END
>  <minimizedAffinity>
-5.6909647

$$$$

 OpenBabel03242516323D

 31 33  0  0  1  0  0  0  0  0999 V2000
   37.2050   29.3490   41.8600 C   0  0  2  0  0  0  0  0  0  0  0  0
   38.4350   28.4730   41.5690 C   0  0  1  0  0  0  0  0  0  0  0  0
   39.2900   28.9950   42.5210 O   0  0  0  0  0  0  0  0  0  0  0  0
   39.2430   30.3730   42.2940 C   0  0  0  0  0  0  0  0  0  0  0  0
   37.9120   30.6850   41.6230 C   0  0  1  0  0  0  0  0  0  0  0  0
   36.3890   29.1740   41.1550 H   0  0  0  0  0  0  0  0  0  0  0  0
   38.7080   28.7130   40.5200 H   0  0  0  0  0  0  0  0  0  0  0  0
   40.0340   30.7020   41.5830 H   0  0  0  0  0  0  0  0  0  0  0  0
   39.3370   30.8900   43.2610 H   0  0  0  0  0  0  0  0  0  0  0  0
   37.3670   31.5180   42.0880 H   0  0  0  0  0  0  0  0  0  0  0  0
   37.0530   24.9350   41.4890 C   0  0  0  0  0  0  0  0  0  0  0  0
   37.0940   26.3060   41.2230 C   0  0  0  0  0  0  0  0  0  0  0  0
   38.1570   27.0460   41.7180 C   0  0  0  0  0  0  0  0  0  0  0  0
   39.1130   26.3780   42.4440 N   0  0  0  0  0  0  0  0  0  0  0  0
   39.0500   25.0570   42.6850 C   0  0  0  0  0  0  0  0  0  0  0  0
   38.0200   24.3360   42.2080 N   0  0  0  0  0  0  0  0  0  0  0  0
   36.1710   24.4470   41.0520 H   0  0  0  0  0  0  0  0  0  0  0  0
   36.4040   26.8990   40.6760 H   0  0  0  0  0  0  0  0  0  0  0  0
   39.8110   24.5440   43.2590 H   0  0  0  0  0  0  0  0  0  0  0  0
   36.8800   29.3080   43.1830 O   0  0  0  0  0  0  0  0  0  0  0  0
   35.9200   29.4670   43.2810 H   0  0  0  0  0  0  0  0  0  0  0  0
   38.0720   30.8260   40.2500 O   0  0  0  0  0  0  0  0  0  0  0  0
   39.6280   32.1910   39.0680 C   0  0  1  0  0  3  0  0  0  0  0  0
   38.2960   32.1140   39.8260 C   0  0  1  0  0  3  0  0  0  0  0  0
   37.4160   32.3220   38.7510 O   0  0  0  0  0  0  0  0  0  0  0  0
   37.7810   31.2370   37.9470 C   0  0  0  0  0  2  0  0  0  0  0  0
   39.2620   31.4870   37.7580 C   0  0  1  0  0  3  0  0  0  0  0  0
   39.8360   33.5200   38.7390 O   0  0  0  0  0  0  0  0  0  0  0  0
   39.1260   34.1260   39.0110 H   0  0  0  0  0  0  0  0  0  0  0  0
   39.4350   32.3010   36.6580 O   0  0  0  0  0  0  0  0  0  0  0  0
   40.3740   32.4670   36.4280 H   0  0  0  0  0  0  0  0  0  0  0  0
  1  6  1  6  0  0  0
  1 20  1  0  0  0  0
  2  7  1  6  0  0  0
  2 13  1  0  0  0  0
  2  1  1  0  0  0  0
  2  3  1  0  0  0  0
  4  3  1  0  0  0  0
  4  9  1  0  0  0  0
  5  1  1  0  0  0  0
  5 10  1  1  0  0  0
  5  4  1  0  0  0  0
  8  4  1  0  0  0  0
 11 16  1  0  0  0  0
 12 11  2  0  0  0  0
 12 13  1  0  0  0  0
 13 14  2  0  0  0  0
 14 15  1  0  0  0  0
 15 19  1  0  0  0  0
 16 15  2  0  0  0  0
 17 11  1  0  0  0  0
 18 12  1  0  0  0  0
 20 21  1  0  0  0  0
 22  5  1  0  0  0  0
 23 28  1  6  0  0  0
 23 24  1  0  0  0  0
 24 22  1  6  0  0  0
 25 24  1  0  0  0  0
 26 25  1  0  0  0  0
 27 30  1  6  0  0  0
 27 26  1  0  0  0  0
 27 23  1  0  0  0  0
 28 29  1  0  0  0  0
 31 30  1  0  0  0  0
M  END
>  <minimizedAffinity>
-5.64525175

$$$$

 OpenBabel03242516323D

 31 33  0  0  1  0  0  0  0  0999 V2000
   36.6430   28.4510   41.9640 C   0  0  2  0  0  0  0  0  0  0  0  0
   37.7530   27.5880   41.3430 C   0  0  1  0  0  0  0  0  0  0  0  0
   38.6190   27.5580   42.4200 O   0  0  0  0  0  0  0  0  0  0  0  0
   38.7760   28.9040   42.7600 C   0  0  0  0  0  0  0  0  0  0  0  0
   37.5400   29.6500   42.2750 C   0  0  1  0  0  0  0  0  0  0  0  0
   35.8500   28.6910   41.2520 H   0  0  0  0  0  0  0  0  0  0  0  0
   38.1140   28.1770   40.4750 H   0  0  0  0  0  0  0  0  0  0  0  0
   39.6420   29.3650   42.2350 H   0  0  0  0  0  0  0  0  0  0  0  0
   38.8880   28.9780   43.8530 H   0  0  0  0  0  0  0  0  0  0  0  0
   37.0920   30.3040   43.0350 H   0  0  0  0  0  0  0  0  0  0  0  0
   36.3350   24.5710   39.5190 C   0  0  0  0  0  0  0  0  0  0  0  0
   36.7080   25.9060   39.7020 C   0  0  0  0  0  0  0  0  0  0  0  0
   37.2720   26.2760   40.9140 C   0  0  0  0  0  0  0  0  0  0  0  0
   37.4330   25.2990   41.8660 N   0  0  0  0  0  0  0  0  0  0  0  0
   37.0660   24.0220   41.6640 C   0  0  0  0  0  0  0  0  0  0  0  0
   36.5170   23.6580   40.4910 N   0  0  0  0  0  0  0  0  0  0  0  0
   35.8990   24.3870   38.5280 H   0  0  0  0  0  0  0  0  0  0  0  0
   36.6210   26.7190   39.0260 H   0  0  0  0  0  0  0  0  0  0  0  0
   37.1980   23.2620   42.4240 H   0  0  0  0  0  0  0  0  0  0  0  0
   36.2430   27.9410   43.1630 O   0  0  0  0  0  0  0  0  0  0  0  0
   35.3100   28.1900   43.3210 H   0  0  0  0  0  0  0  0  0  0  0  0
   37.7940   30.2950   41.0710 O   0  0  0  0  0  0  0  0  0  0  0  0
   37.7060   32.5040   40.1780 C   0  0  1  0  0  3  0  0  0  0  0  0
   36.9290   31.3220   40.7740 C   0  0  1  0  0  3  0  0  0  0  0  0
   36.2290   30.9130   39.6260 O   0  0  0  0  0  0  0  0  0  0  0  0
   37.3130   30.6350   38.7880 C   0  0  0  0  0  2  0  0  0  0  0  0
   38.0420   31.9620   38.7850 C   0  0  1  0  0  3  0  0  0  0  0  0
   36.7990   33.5300   39.9770 O   0  0  0  0  0  0  0  0  0  0  0  0
   35.8790   33.3180   40.2140 H   0  0  0  0  0  0  0  0  0  0  0  0
   37.5230   32.7470   37.7770 O   0  0  0  0  0  0  0  0  0  0  0  0
   37.9800   33.6080   37.6670 H   0  0  0  0  0  0  0  0  0  0  0  0
  1  6  1  6  0  0  0
  1  5  1  0  0  0  0
  1 20  1  0  0  0  0
  2  7  1  6  0  0  0
  2  1  1  0  0  0  0
  2  3  1  0  0  0  0
  3  4  1  0  0  0  0
  4  9  1  0  0  0  0
  5  4  1  0  0  0  0
  5 10  1  1  0  0  0
  8  4  1  0  0  0  0
 11 12  2  0  0  0  0
 11 16  1  0  0  0  0
 12 13  1  0  0  0  0
 13  2  1  0  0  0  0
 13 14  2  0  0  0  0
 15 14  1  0  0  0  0
 15 19  1  0  0  0  0
 16 15  2  0  0  0  0
 17 11  1  0  0  0  0
 18 12  1  0  0  0  0
 20 21  1  0  0  0  0
 22  5  1  0  0  0  0
 23 28  1  6  0  0  0
 23 24  1  0  0  0  0
 24 22  1  6  0  0  0
 25 24  1  0  0  0  0
 26 25  1  0  0  0  0
 27 30  1  6  0  0  0
 27 26  1  0  0  0  0
 27 23  1  0  0  0  0
 28 29  1  0  0  0  0
 31 30  1  0  0  0  0
M  END
>  <minimizedAffinity>
-5.64067698

$$$$

 OpenBabel03242516323D

 31 33  0  0  1  0  0  0  0  0999 V2000
   37.3900   29.1630   42.0020 C   0  0  2  0  0  0  0  0  0  0  0  0
   38.7180   28.4200   41.7840 C   0  0  1  0  0  0  0  0  0  0  0  0
   39.4750   29.0660   42.7430 O   0  0  0  0  0  0  0  0  0  0  0  0
   39.2850   30.4220   42.4630 C   0  0  0  0  0  0  0  0  0  0  0  0
   37.9520   30.5610   41.7380 C   0  0  1  0  0  0  0  0  0  0  0  0
   36.6230   28.8740   41.2780 H   0  0  0  0  0  0  0  0  0  0  0  0
   39.0000   28.6540   40.7360 H   0  0  0  0  0  0  0  0  0  0  0  0
   40.0590   30.8130   41.7660 H   0  0  0  0  0  0  0  0  0  0  0  0
   39.2860   30.9780   43.4130 H   0  0  0  0  0  0  0  0  0  0  0  0
   37.3030   31.3430   42.1540 H   0  0  0  0  0  0  0  0  0  0  0  0
   39.1810   24.7260   42.5410 C   0  0  0  0  0  0  0  0  0  0  0  0
   39.5450   26.0700   42.4220 C   0  0  0  0  0  0  0  0  0  0  0  0
   38.5940   26.9770   41.9770 C   0  0  0  0  0  0  0  0  0  0  0  0
   37.3440   26.4930   41.6810 N   0  0  0  0  0  0  0  0  0  0  0  0
   37.0200   25.1940   41.8040 C   0  0  0  0  0  0  0  0  0  0  0  0
   37.9380   24.3110   42.2340 N   0  0  0  0  0  0  0  0  0  0  0  0
   40.0070   24.0960   42.8990 H   0  0  0  0  0  0  0  0  0  0  0  0
   40.4810   26.5270   42.6280 H   0  0  0  0  0  0  0  0  0  0  0  0
   36.0290   24.8270   41.5670 H   0  0  0  0  0  0  0  0  0  0  0  0
   37.0230   29.1300   43.3140 O   0  0  0  0  0  0  0  0  0  0  0  0
   36.0480   29.1840   43.3750 H   0  0  0  0  0  0  0  0  0  0  0  0
   38.1460   30.6730   40.3670 O   0  0  0  0  0  0  0  0  0  0  0  0
   39.5350   32.2210   39.2030 C   0  0  1  0  0  3  0  0  0  0  0  0
   38.1900   31.9630   39.8950 C   0  0  1  0  0  3  0  0  0  0  0  0
   37.3510   31.9870   38.7680 O   0  0  0  0  0  0  0  0  0  0  0  0
   37.9260   30.9440   38.0350 C   0  0  0  0  0  2  0  0  0  0  0  0
   39.3590   31.4180   37.9100 C   0  0  1  0  0  3  0  0  0  0  0  0
   39.5510   33.5520   38.8230 O   0  0  0  0  0  0  0  0  0  0  0  0
   38.7410   34.0490   39.0300 H   0  0  0  0  0  0  0  0  0  0  0  0
   39.4650   32.2070   36.7830 O   0  0  0  0  0  0  0  0  0  0  0  0
   40.3780   32.5110   36.5940 H   0  0  0  0  0  0  0  0  0  0  0  0
  1  6  1  6  0  0  0
  1 20  1  0  0  0  0
  2  7  1  6  0  0  0
  2 13  1  0  0  0  0
  2  1  1  0  0  0  0
  2  3  1  0  0  0  0
  4  3  1  0  0  0  0
  4  9  1  0  0  0  0
  5  1  1  0  0  0  0
  5 10  1  1  0  0  0
  5  4  1  0  0  0  0
  8  4  1  0  0  0  0
 11 17  1  0  0  0  0
 12 11  1  0  0  0  0
 12 18  1  0  0  0  0
 13 12  2  0  0  0  0
 14 15  2  0  0  0  0
 14 13  1  0  0  0  0
 15 16  1  0  0  0  0
 16 11  2  0  0  0  0
 19 15  1  0  0  0  0
 20 21  1  0  0  0  0
 22  5  1  0  0  0  0
 23 28  1  6  0  0  0
 23 24  1  0  0  0  0
 24 22  1  6  0  0  0
 25 24  1  0  0  0  0
 26 25  1  0  0  0  0
 27 30  1  6  0  0  0
 27 26  1  0  0  0  0
 27 23  1  0  0  0  0
 28 29  1  0  0  0  0
 31 30  1  0  0  0  0
M  END
>  <minimizedAffinity>
-5.50710106

$$$$

 OpenBabel03242516323D

 31 33  0  0  1  0  0  0  0  0999 V2000
   38.5540   28.9140   42.4600 C   0  0  2  0  0  0  0  0  0  0  0  0
   37.6580   29.2080   41.2450 C   0  0  1  0  0  0  0  0  0  0  0  0
   36.4390   28.8720   41.8010 O   0  0  0  0  0  0  0  0  0  0  0  0
   36.6510   27.5920   42.3220 C   0  0  0  0  0  0  0  0  0  0  0  0
   38.1410   27.4480   42.6000 C   0  0  1  0  0  0  0  0  0  0  0  0
   39.6170   29.0330   42.2360 H   0  0  0  0  0  0  0  0  0  0  0  0
   38.0170   28.5130   40.4580 H   0  0  0  0  0  0  0  0  0  0  0  0
   36.3940   26.7980   41.5850 H   0  0  0  0  0  0  0  0  0  0  0  0
   36.0570   27.4870   43.2440 H   0  0  0  0  0  0  0  0  0  0  0  0
   38.3680   27.0590   43.6020 H   0  0  0  0  0  0  0  0  0  0  0  0
   37.2200   32.6380   39.6690 C   0  0  0  0  0  0  0  0  0  0  0  0
   36.9220   31.3000   39.9410 C   0  0  0  0  0  0  0  0  0  0  0  0
   37.7580   30.5960   40.7950 C   0  0  0  0  0  0  0  0  0  0  0  0
   38.8350   31.2630   41.3250 N   0  0  0  0  0  0  0  0  0  0  0  0
   39.0980   32.5520   41.0460 C   0  0  0  0  0  0  0  0  0  0  0  0
   38.2920   33.2390   40.2190 N   0  0  0  0  0  0  0  0  0  0  0  0
   36.4970   33.0990   38.9830 H   0  0  0  0  0  0  0  0  0  0  0  0
   36.1180   30.7100   39.5780 H   0  0  0  0  0  0  0  0  0  0  0  0
   39.9510   33.0660   41.4720 H   0  0  0  0  0  0  0  0  0  0  0  0
   38.0950   29.5580   43.5700 O   0  0  0  0  0  0  0  0  0  0  0  0
   38.8480   29.7370   44.1690 H   0  0  0  0  0  0  0  0  0  0  0  0
   38.7680   26.7460   41.5780 O   0  0  0  0  0  0  0  0  0  0  0  0
   38.7900   24.6200   42.6570 C   0  0  1  0  0  3  0  0  0  0  0  0
   39.6070   25.7420   42.0000 C   0  0  1  0  0  3  0  0  0  0  0  0
   40.0140   25.0690   40.8360 O   0  0  0  0  0  0  0  0  0  0  0  0
   38.7590   24.7660   40.2990 C   0  0  0  0  0  2  0  0  0  0  0  0
   38.1270   23.9840   41.4310 C   0  0  1  0  0  3  0  0  0  0  0  0
   39.6910   23.6820   43.1310 O   0  0  0  0  0  0  0  0  0  0  0  0
   40.6260   23.8810   42.9490 H   0  0  0  0  0  0  0  0  0  0  0  0
   38.4590   22.6530   41.2860 O   0  0  0  0  0  0  0  0  0  0  0  0
   38.0410   22.0630   41.9490 H   0  0  0  0  0  0  0  0  0  0  0  0
  1  6  1  6  0  0  0
  1  5  1  0  0  0  0
  1 20  1  0  0  0  0
  2  7  1  6  0  0  0
  2  3  1  0  0  0  0
  2  1  1  0  0  0  0
  3  4  1  0  0  0  0
  4  5  1  0  0  0  0
  4  9  1  0  0  0  0
  5 10  1  1  0  0  0
  8  4  1  0  0  0  0
 11 12  2  0  0  0  0
 11 16  1  0  0  0  0
 12 13  1  0  0  0  0
 13  2  1  0  0  0  0
 13 14  2  0  0  0  0
 15 14  1  0  0  0  0
 15 19  1  0  0  0  0
 16 15  2  0  0  0  0
 17 11  1  0  0  0  0
 18 12  1  0  0  0  0
 20 21  1  0  0  0  0
 22  5  1  0  0  0  0
 23 28  1  6  0  0  0
 24 22  1  6  0  0  0
 24 23  1  0  0  0  0
 25 24  1  0  0  0  0
 26 25  1  0  0  0  0
 26 27  1  0  0  0  0
 27 30  1  6  0  0  0
 27 23  1  0  0  0  0
 29 28  1  0  0  0  0
 30 31  1  0  0  0  0
M  END
>  <minimizedAffinity>
-5.44446945

$$$$

 OpenBabel03242516323D

 31 33  0  0  1  0  0  0  0  0999 V2000
   36.7140   30.0720   41.5170 C   0  0  2  0  0  0  0  0  0  0  0  0
   37.6780   30.2530   40.3330 C   0  0  1  0  0  0  0  0  0  0  0  0
   36.7720   30.0900   39.3020 O   0  0  0  0  0  0  0  0  0  0  0  0
   36.1310   28.8860   39.6090 C   0  0  0  0  0  0  0  0  0  0  0  0
   36.2390   28.6760   41.1140 C   0  0  1  0  0  0  0  0  0  0  0  0
   37.2280   30.0800   42.4820 H   0  0  0  0  0  0  0  0  0  0  0  0
   38.4110   29.4280   40.4410 H   0  0  0  0  0  0  0  0  0  0  0  0
   36.6380   28.0150   39.1370 H   0  0  0  0  0  0  0  0  0  0  0  0
   35.0800   28.9580   39.2870 H   0  0  0  0  0  0  0  0  0  0  0  0
   35.2850   28.4190   41.5940 H   0  0  0  0  0  0  0  0  0  0  0  0
   40.0950   33.1750   40.5730 C   0  0  0  0  0  0  0  0  0  0  0  0
   39.6760   31.8430   40.6390 C   0  0  0  0  0  0  0  0  0  0  0  0
   38.3520   31.5500   40.3490 C   0  0  0  0  0  0  0  0  0  0  0  0
   37.5290   32.5960   40.0100 N   0  0  0  0  0  0  0  0  0  0  0  0
   37.9580   33.8680   39.9530 C   0  0  0  0  0  0  0  0  0  0  0  0
   39.2400   34.1580   40.2350 N   0  0  0  0  0  0  0  0  0  0  0  0
   41.1580   33.2950   40.8220 H   0  0  0  0  0  0  0  0  0  0  0  0
   40.2400   30.9800   40.8910 H   0  0  0  0  0  0  0  0  0  0  0  0
   37.2970   34.6830   39.6840 H   0  0  0  0  0  0  0  0  0  0  0  0
   35.6380   30.9010   41.4000 O   0  0  0  0  0  0  0  0  0  0  0  0
   35.2970   31.1090   42.2930 H   0  0  0  0  0  0  0  0  0  0  0  0
   37.2670   27.7900   41.4150 O   0  0  0  0  0  0  0  0  0  0  0  0
   36.9670   25.4330   41.6090 C   0  0  1  0  0  3  0  0  0  0  0  0
   36.9300   26.8000   42.3070 C   0  0  1  0  0  3  0  0  0  0  0  0
   38.0430   26.6500   43.1510 O   0  0  0  0  0  0  0  0  0  0  0  0
   39.0310   26.4290   42.1860 C   0  0  0  0  0  2  0  0  0  0  0  0
   38.4770   25.2220   41.4590 C   0  0  1  0  0  3  0  0  0  0  0  0
   36.5430   24.4910   42.5300 O   0  0  0  0  0  0  0  0  0  0  0  0
   36.3340   24.8440   43.4130 H   0  0  0  0  0  0  0  0  0  0  0  0
   38.9150   24.0820   42.1000 O   0  0  0  0  0  0  0  0  0  0  0  0
   38.6480   23.2480   41.6580 H   0  0  0  0  0  0  0  0  0  0  0  0
  1  6  1  1  0  0  0
  2 13  1  0  0  0  0
  2  7  1  6  0  0  0
  2  1  1  0  0  0  0
  3  4  1  0  0  0  0
  3  2  1  0  0  0  0
  4  5  1  0  0  0  0
  5 22  1  0  0  0  0
  5  1  1  0  0  0  0
  5 10  1  1  0  0  0
  8  4  1  0  0  0  0
  9  4  1  0  0  0  0
 11 12  1  0  0  0  0
 11 17  1  0  0  0  0
 12 18  1  0  0  0  0
 13 12  2  0  0  0  0
 14 13  1  0  0  0  0
 15 14  2  0  0  0  0
 15 16  1  0  0  0  0
 16 11  2  0  0  0  0
 19 15  1  0  0  0  0
 20  1  1  0  0  0  0
 20 21  1  0  0  0  0
 23 24  1  0  0  0  0
 23 28  1  1  0  0  0
 24 22  1  6  0  0  0
 24 25  1  0  0  0  0
 26 25  1  0  0  0  0
 27 23  1  0  0  0  0
 27 30  1  1  0  0  0
 27 26  1  0  0  0  0
 28 29  1  0  0  0  0
 31 30  1  0  0  0  0
M  END
>  <minimizedAffinity>
-5.38567305

$$$$

 OpenBabel03242516323D

 31 33  0  0  1  0  0  0  0  0999 V2000
   37.8260   27.9380   40.0720 C   0  0  2  0  0  0  0  0  0  0  0  0
   37.7140   28.0150   41.6040 C   0  0  1  0  0  0  0  0  0  0  0  0
   36.3480   27.8480   41.7200 O   0  0  0  0  0  0  0  0  0  0  0  0
   35.8190   28.8050   40.8500 C   0  0  0  0  0  0  0  0  0  0  0  0
   36.8730   29.1010   39.7920 C   0  0  1  0  0  0  0  0  0  0  0  0
   38.8410   28.1300   39.7150 H   0  0  0  0  0  0  0  0  0  0  0  0
   38.0800   29.0310   41.8600 H   0  0  0  0  0  0  0  0  0  0  0  0
   35.6200   29.7700   41.3690 H   0  0  0  0  0  0  0  0  0  0  0  0
   34.9000   28.3980   40.4000 H   0  0  0  0  0  0  0  0  0  0  0  0
   36.4890   29.0700   38.7640 H   0  0  0  0  0  0  0  0  0  0  0  0
   40.1870   26.0070   43.6750 C   0  0  0  0  0  0  0  0  0  0  0  0
   39.5900   27.1500   43.1370 C   0  0  0  0  0  0  0  0  0  0  0  0
   38.5120   26.9920   42.2790 C   0  0  0  0  0  0  0  0  0  0  0  0
   38.0930   25.7120   42.0110 N   0  0  0  0  0  0  0  0  0  0  0  0
   38.6860   24.6290   42.5430 C   0  0  0  0  0  0  0  0  0  0  0  0
   39.7320   24.7760   43.3750 N   0  0  0  0  0  0  0  0  0  0  0  0
   41.0300   26.2440   44.3380 H   0  0  0  0  0  0  0  0  0  0  0  0
   39.8460   28.1690   43.2880 H   0  0  0  0  0  0  0  0  0  0  0  0
   38.3450   23.6250   42.3230 H   0  0  0  0  0  0  0  0  0  0  0  0
   37.2210   26.8130   39.5960 O   0  0  0  0  0  0  0  0  0  0  0  0
   37.6550   26.5470   38.7610 H   0  0  0  0  0  0  0  0  0  0  0  0
   37.5570   30.2730   40.0920 O   0  0  0  0  0  0  0  0  0  0  0  0
   37.4700   32.6440   40.3170 C   0  0  1  0  0  3  0  0  0  0  0  0
   37.0340   31.4080   39.5200 C   0  0  1  0  0  3  0  0  0  0  0  0
   37.7770   31.6240   38.3480 O   0  0  0  0  0  0  0  0  0  0  0  0
   39.0640   31.6350   38.8950 C   0  0  0  0  0  2  0  0  0  0  0  0
   38.9460   32.7440   39.9200 C   0  0  1  0  0  3  0  0  0  0  0  0
   36.8490   33.7410   39.7450 O   0  0  0  0  0  0  0  0  0  0  0  0
   36.2980   33.5420   38.9680 H   0  0  0  0  0  0  0  0  0  0  0  0
   39.2460   33.9430   39.3080 O   0  0  0  0  0  0  0  0  0  0  0  0
   39.2500   34.7110   39.9180 H   0  0  0  0  0  0  0  0  0  0  0  0
  1  6  1  6  0  0  0
  1  2  1  0  0  0  0
  2  3  1  0  0  0  0
  2  7  1  1  0  0  0
  2 13  1  0  0  0  0
  4  8  1  0  0  0  0
  4  3  1  0  0  0  0
  5 10  1  6  0  0  0
  5  1  1  0  0  0  0
  5 22  1  0  0  0  0
  5  4  1  0  0  0  0
  9  4  1  0  0  0  0
 11 17  1  0  0  0  0
 12 18  1  0  0  0  0
 12 11  2  0  0  0  0
 13 12  1  0  0  0  0
 14 13  2  0  0  0  0
 14 15  1  0  0  0  0
 15 16  2  0  0  0  0
 16 11  1  0  0  0  0
 19 15  1  0  0  0  0
 20  1  1  0  0  0  0
 21 20  1  0  0  0  0
 23 28  1  6  0  0  0
 24 22  1  1  0  0  0
 24 23  1  0  0  0  0
 25 26  1  0  0  0  0
 25 24  1  0  0  0  0
 26 27  1  0  0  0  0
 27 30  1  6  0  0  0
 27 23  1  0  0  0  0
 29 28  1  0  0  0  0
 30 31  1  0  0  0  0
M  END
>  <minimizedAffinity>
-5.29193449

$$$$

 OpenBabel03242516323D

 31 33  0  0  1  0  0  0  0  0999 V2000
   38.9970   27.0110   39.9100 C   0  0  2  0  0  0  0  0  0  0  0  0
   38.7890   27.3180   41.4020 C   0  0  1  0  0  0  0  0  0  0  0  0
   37.6500   26.5650   41.6110 O   0  0  0  0  0  0  0  0  0  0  0  0
   36.7810   26.9860   40.6000 C   0  0  0  0  0  0  0  0  0  0  0  0
   37.6300   27.5270   39.4570 C   0  0  1  0  0  0  0  0  0  0  0  0
   39.8250   27.5760   39.4760 H   0  0  0  0  0  0  0  0  0  0  0  0
   38.6330   28.4160   41.4420 H   0  0  0  0  0  0  0  0  0  0  0  0
   36.1360   27.8290   40.9340 H   0  0  0  0  0  0  0  0  0  0  0  0
   36.1750   26.1240   40.2790 H   0  0  0  0  0  0  0  0  0  0  0  0
   37.3520   27.1270   38.4730 H   0  0  0  0  0  0  0  0  0  0  0  0
   41.8250   27.1140   43.6780 C   0  0  0  0  0  0  0  0  0  0  0  0
   40.8000   27.7280   42.9530 C   0  0  0  0  0  0  0  0  0  0  0  0
   39.9350   26.9270   42.2210 C   0  0  0  0  0  0  0  0  0  0  0  0
   40.1400   25.5700   42.2580 N   0  0  0  0  0  0  0  0  0  0  0  0
   41.1340   25.0050   42.9650 C   0  0  0  0  0  0  0  0  0  0  0  0
   41.9760   25.7770   43.6750 N   0  0  0  0  0  0  0  0  0  0  0  0
   42.4500   27.8380   44.2190 H   0  0  0  0  0  0  0  0  0  0  0  0
   40.5700   28.7610   42.8690 H   0  0  0  0  0  0  0  0  0  0  0  0
   41.2840   23.9330   42.9840 H   0  0  0  0  0  0  0  0  0  0  0  0
   39.0010   25.6670   39.6860 O   0  0  0  0  0  0  0  0  0  0  0  0
   39.5480   25.4760   38.8970 H   0  0  0  0  0  0  0  0  0  0  0  0
   37.6820   28.9150   39.4960 O   0  0  0  0  0  0  0  0  0  0  0  0
   36.7760   30.5070   41.0210 C   0  0  1  0  0  3  0  0  0  0  0  0
   36.5090   29.5250   39.8720 C   0  0  1  0  0  3  0  0  0  0  0  0
   36.2140   30.4480   38.8540 O   0  0  0  0  0  0  0  0  0  0  0  0
   37.4150   31.1640   38.8430 C   0  0  0  0  0  2  0  0  0  0  0  0
   37.4970   31.6380   40.2790 C   0  0  1  0  0  3  0  0  0  0  0  0
   35.5530   31.0270   41.4080 O   0  0  0  0  0  0  0  0  0  0  0  0
   34.7910   30.7110   40.8920 H   0  0  0  0  0  0  0  0  0  0  0  0
   36.8320   32.8420   40.3850 O   0  0  0  0  0  0  0  0  0  0  0  0
   36.8860   33.2500   41.2750 H   0  0  0  0  0  0  0  0  0  0  0  0
  1  6  1  6  0  0  0
  1  2  1  0  0  0  0
  2  7  1  1  0  0  0
  2  3  1  0  0  0  0
  2 13  1  0  0  0  0
  4  8  1  0  0  0  0
  4  3  1  0  0  0  0
  5 10  1  6  0  0  0
  5 22  1  0  0  0  0
  5  1  1  0  0  0  0
  5  4  1  0  0  0  0
  9  4  1  0  0  0  0
 11 17  1  0  0  0  0
 12 11  2  0  0  0  0
 13 14  2  0  0  0  0
 13 12  1  0  0  0  0
 14 15  1  0  0  0  0
 15 19  1  0  0  0  0
 15 16  2  0  0  0  0
 16 11  1  0  0  0  0
 18 12  1  0  0  0  0
 20  1  1  0  0  0  0
 21 20  1  0  0  0  0
 23 28  1  6  0  0  0
 24 22  1  6  0  0  0
 24 23  1  0  0  0  0
 25 24  1  0  0  0  0
 26 25  1  0  0  0  0
 26 27  1  0  0  0  0
 27 30  1  6  0  0  0
 27 23  1  0  0  0  0
 29 28  1  0  0  0  0
 30 31  1  0  0  0  0
M  END
>  <minimizedAffinity>
-5.18169928

$$$$

 OpenBabel03242516323D

 31 33  0  0  1  0  0  0  0  0999 V2000
   35.9640   29.0500   39.7560 C   0  0  2  0  0  0  0  0  0  0  0  0
   36.9780   28.4050   40.7160 C   0  0  1  0  0  0  0  0  0  0  0  0
   36.5660   29.0090   41.8880 O   0  0  0  0  0  0  0  0  0  0  0  0
   36.5460   30.3710   41.5740 C   0  0  0  0  0  0  0  0  0  0  0  0
   36.3590   30.4950   40.0680 C   0  0  1  0  0  0  0  0  0  0  0  0
   36.1430   28.7800   38.7130 H   0  0  0  0  0  0  0  0  0  0  0  0
   37.9680   28.7420   40.3440 H   0  0  0  0  0  0  0  0  0  0  0  0
   37.5170   30.8630   41.8070 H   0  0  0  0  0  0  0  0  0  0  0  0
   35.7180   30.8450   42.1230 H   0  0  0  0  0  0  0  0  0  0  0  0
   35.5690   31.2010   39.7770 H   0  0  0  0  0  0  0  0  0  0  0  0
   37.0620   24.6890   41.5030 C   0  0  0  0  0  0  0  0  0  0  0  0
   37.2490   26.0560   41.7270 C   0  0  0  0  0  0  0  0  0  0  0  0
   36.8960   26.9460   40.7230 C   0  0  0  0  0  0  0  0  0  0  0  0
   36.3800   26.4240   39.5630 N   0  0  0  0  0  0  0  0  0  0  0  0
   36.2110   25.1040   39.3730 C   0  0  0  0  0  0  0  0  0  0  0  0
   36.5520   24.2370   40.3430 N   0  0  0  0  0  0  0  0  0  0  0  0
   37.3740   24.0750   42.3590 H   0  0  0  0  0  0  0  0  0  0  0  0
   37.6380   26.5430   42.5860 H   0  0  0  0  0  0  0  0  0  0  0  0
   35.8020   24.7070   38.4520 H   0  0  0  0  0  0  0  0  0  0  0  0
   34.6900   28.8860   40.2120 O   0  0  0  0  0  0  0  0  0  0  0  0
   34.0770   28.8790   39.4500 H   0  0  0  0  0  0  0  0  0  0  0  0
   37.5740   30.7330   39.4370 O   0  0  0  0  0  0  0  0  0  0  0  0
   39.3600   32.2630   39.0510 C   0  0  1  0  0  3  0  0  0  0  0  0
   37.8460   32.0580   39.1930 C   0  0  1  0  0  3  0  0  0  0  0  0
   37.4640   32.2880   37.8610 O   0  0  0  0  0  0  0  0  0  0  0  0
   38.2090   31.2840   37.2350 C   0  0  0  0  0  2  0  0  0  0  0  0
   39.6150   31.6310   37.6790 C   0  0  1  0  0  3  0  0  0  0  0  0
   39.5760   33.6200   38.8880 O   0  0  0  0  0  0  0  0  0  0  0  0
   38.7700   34.1650   38.8700 H   0  0  0  0  0  0  0  0  0  0  0  0
   40.1530   32.5270   36.7790 O   0  0  0  0  0  0  0  0  0  0  0  0
   41.0870   32.7620   36.9610 H   0  0  0  0  0  0  0  0  0  0  0  0
  1  6  1  6  0  0  0
  1  5  1  0  0  0  0
  1 20  1  0  0  0  0
  1  2  1  0  0  0  0
  2  7  1  6  0  0  0
  2 13  1  0  0  0  0
  2  3  1  0  0  0  0
  4  8  1  0  0  0  0
  4  3  1  0  0  0  0
  4  9  1  0  0  0  0
  5 10  1  6  0  0  0
  5  4  1  0  0  0  0
 11 12  1  0  0  0  0
 11 17  1  0  0  0  0
 12 18  1  0  0  0  0
 13 12  2  0  0  0  0
 14 13  1  0  0  0  0
 15 14  2  0  0  0  0
 15 16  1  0  0  0  0
 16 11  2  0  0  0  0
 19 15  1  0  0  0  0
 21 20  1  0  0  0  0
 22  5  1  0  0  0  0
 23 28  1  6  0  0  0
 23 24  1  0  0  0  0
 24 22  1  6  0  0  0
 25 24  1  0  0  0  0
 26 27  1  0  0  0  0
 26 25  1  0  0  0  0
 27 30  1  6  0  0  0
 27 23  1  0  0  0  0
 29 28  1  0  0  0  0
 30 31  1  0  0  0  0
M  END
>  <minimizedAffinity>
-5.1435461

$$$$
