
 OpenBabel03242515123D

 31 33  0  0  1  0  0  0  0  0999 V2000
   37.9810   29.1520   42.1740 C   0  0  2  0  0  0  0  0  0  0  0  0
   37.2190   27.8610   42.3400 C   0  0  1  0  0  0  0  0  0  0  0  0
   36.5650   27.7110   41.0720 O   0  0  0  0  0  0  0  0  0  0  0  0
   35.9160   28.9670   41.0650 C   0  0  0  0  0  0  0  0  0  0  0  0
   37.1300   29.8880   41.1280 C   0  0  2  0  0  0  0  0  0  0  0  0
   38.0410   29.7350   43.1100 H   0  0  0  0  0  0  0  0  0  0  0  0
   36.3740   27.9530   43.0480 H   0  0  0  0  0  0  0  0  0  0  0  0
   35.3250   29.0570   41.9830 H   0  0  0  0  0  0  0  0  0  0  0  0
   35.3530   29.0790   40.1400 H   0  0  0  0  0  0  0  0  0  0  0  0
   36.8680   30.8920   41.4610 H   0  0  0  0  0  0  0  0  0  0  0  0
   38.5100   24.4360   42.1470 C   0  0  0  0  0  0  0  0  0  0  0  0
   39.6340   24.4570   43.0160 C   0  0  0  0  0  0  0  0  0  0  0  0
   39.9340   25.6770   43.6790 C   0  0  0  0  0  0  0  0  0  0  0  0
   39.1430   26.7580   43.4560 N   0  0  0  0  0  0  0  0  0  0  0  0
   38.0730   26.6970   42.6130 C   0  0  0  0  0  0  0  0  0  0  0  0
   37.7620   25.5490   41.9690 N   0  0  0  0  0  0  0  0  0  0  0  0
   38.2950   23.5030   41.6500 H   0  0  0  0  0  0  0  0  0  0  0  0
   40.2370   23.5720   43.1640 H   0  0  0  0  0  0  0  0  0  0  0  0
   40.7830   25.6900   44.3340 H   0  0  0  0  0  0  0  0  0  0  0  0
   39.2660   28.9020   41.6540 O   0  0  0  0  0  0  0  0  0  0  0  0
   39.2370   28.7690   40.6750 H   0  0  0  0  0  0  0  0  0  0  0  0
   37.7550   29.8420   39.8960 O   0  0  0  0  0  0  0  0  0  0  0  0
   38.1090   31.3140   38.0240 C   0  0  2  0  0  3  0  0  0  0  0  0
   38.0690   31.1450   39.5200 C   0  0  2  0  0  3  0  0  0  0  0  0
   39.2760   31.5630   40.0470 O   0  0  0  0  0  0  0  0  0  0  0  0
   40.0990   31.9990   39.0450 C   0  0  0  0  0  2  0  0  0  0  0  0
   39.5710   31.4560   37.7430 C   0  0  2  0  0  3  0  0  0  0  0  0
   37.5060   32.5270   37.6940 O   0  0  0  0  0  0  0  0  0  0  0  0
   36.7040   32.6660   38.2720 H   0  0  0  0  0  0  0  0  0  0  0  0
   39.8210   32.4180   36.7600 O   0  0  0  0  0  0  0  0  0  0  0  0
   40.6160   32.2150   36.2030 H   0  0  0  0  0  0  0  0  0  0  0  0
  1  2  1  0  0  0  0
  1  6  1  1  0  0  0
  2 15  1  0  0  0  0
  2  7  1  1  0  0  0
  3  2  1  0  0  0  0
  4  3  1  0  0  0  0
  4  5  1  0  0  0  0
  4  8  1  0  0  0  0
  5 10  1  1  0  0  0
  5  1  1  0  0  0  0
  9  4  1  0  0  0  0
 11 12  1  0  0  0  0
 12 18  1  0  0  0  0
 12 13  2  0  0  0  0
 13 19  1  0  0  0  0
 14 13  1  0  0  0  0
 15 14  2  0  0  0  0
 16 11  2  0  0  0  0
 16 15  1  0  0  0  0
 17 11  1  0  0  0  0
 20  1  1  0  0  0  0
 21 20  1  0  0  0  0
 22  5  1  0  0  0  0
 23 28  1  1  0  0  0
 23 24  1  0  0  0  0
 24 22  1  6  0  0  0
 24 25  1  0  0  0  0
 26 25  1  0  0  0  0
 27 30  1  6  0  0  0
 27 23  1  0  0  0  0
 27 26  1  0  0  0  0
 28 29  1  0  0  0  0
 31 30  1  0  0  0  0
M  END
>  <minimizedAffinity>
-5.52532911

$$$$

 OpenBabel03242515123D

 31 33  0  0  1  0  0  0  0  0999 V2000
   37.7020   29.9110   41.5790 C   0  0  2  0  0  0  0  0  0  0  0  0
   36.9710   28.6680   42.0230 C   0  0  1  0  0  0  0  0  0  0  0  0
   36.2010   28.3200   40.8640 O   0  0  0  0  0  0  0  0  0  0  0  0
   35.5420   29.5620   40.7160 C   0  0  0  0  0  0  0  0  0  0  0  0
   36.7480   30.4750   40.5140 C   0  0  2  0  0  0  0  0  0  0  0  0
   37.8460   30.6360   42.3990 H   0  0  0  0  0  0  0  0  0  0  0  0
   36.1970   28.8780   42.7840 H   0  0  0  0  0  0  0  0  0  0  0  0
   35.0400   29.8030   41.6600 H   0  0  0  0  0  0  0  0  0  0  0  0
   34.8930   29.5280   39.8440 H   0  0  0  0  0  0  0  0  0  0  0  0
   36.5100   31.5200   40.7050 H   0  0  0  0  0  0  0  0  0  0  0  0
   39.7040   26.8730   43.6790 C   0  0  0  0  0  0  0  0  0  0  0  0
   39.5610   25.5420   43.2030 C   0  0  0  0  0  0  0  0  0  0  0  0
   38.5050   25.2750   42.2900 C   0  0  0  0  0  0  0  0  0  0  0  0
   37.6870   26.2940   41.9170 N   0  0  0  0  0  0  0  0  0  0  0  0
   37.8580   27.5580   42.3960 C   0  0  0  0  0  0  0  0  0  0  0  0
   38.8550   27.8420   43.2660 N   0  0  0  0  0  0  0  0  0  0  0  0
   40.5100   27.0600   44.3710 H   0  0  0  0  0  0  0  0  0  0  0  0
   40.2360   24.7620   43.5270 H   0  0  0  0  0  0  0  0  0  0  0  0
   38.4000   24.2700   41.9340 H   0  0  0  0  0  0  0  0  0  0  0  0
   38.9340   29.5730   40.9850 O   0  0  0  0  0  0  0  0  0  0  0  0
   38.8130   29.2840   40.0480 H   0  0  0  0  0  0  0  0  0  0  0  0
   37.2530   30.2270   39.2520 O   0  0  0  0  0  0  0  0  0  0  0  0
   38.3660   31.2860   37.3980 C   0  0  2  0  0  3  0  0  0  0  0  0
   37.5610   31.4490   38.6600 C   0  0  2  0  0  3  0  0  0  0  0  0
   38.2470   32.2850   39.5200 O   0  0  0  0  0  0  0  0  0  0  0  0
   39.4180   32.6940   38.9410 C   0  0  0  0  0  2  0  0  0  0  0  0
   39.7270   31.7540   37.8060 C   0  0  2  0  0  3  0  0  0  0  0  0
   37.8900   32.1840   36.4440 O   0  0  0  0  0  0  0  0  0  0  0  0
   36.8940   32.2250   36.4960 H   0  0  0  0  0  0  0  0  0  0  0  0
   40.3430   32.5040   36.8010 O   0  0  0  0  0  0  0  0  0  0  0  0
   41.3300   32.4070   36.7850 H   0  0  0  0  0  0  0  0  0  0  0  0
  1  2  1  0  0  0  0
  1  6  1  1  0  0  0
  2 15  1  0  0  0  0
  2  7  1  1  0  0  0
  3  2  1  0  0  0  0
  4  3  1  0  0  0  0
  4  8  1  0  0  0  0
  5 10  1  1  0  0  0
  5  4  1  0  0  0  0
  5  1  1  0  0  0  0
  9  4  1  0  0  0  0
 11 17  1  0  0  0  0
 12 18  1  0  0  0  0
 12 11  2  0  0  0  0
 13 12  1  0  0  0  0
 14 13  2  0  0  0  0
 14 15  1  0  0  0  0
 15 16  2  0  0  0  0
 16 11  1  0  0  0  0
 19 13  1  0  0  0  0
 20  1  1  0  0  0  0
 21 20  1  0  0  0  0
 22  5  1  0  0  0  0
 23 28  1  6  0  0  0
 23 27  1  0  0  0  0
 23 24  1  0  0  0  0
 24 22  1  1  0  0  0
 24 25  1  0  0  0  0
 26 25  1  0  0  0  0
 27 30  1  6  0  0  0
 27 26  1  0  0  0  0
 28 29  1  0  0  0  0
 31 30  1  0  0  0  0
M  END
>  <minimizedAffinity>
-5.4890213

$$$$

 OpenBabel03242515123D

 31 33  0  0  1  0  0  0  0  0999 V2000
   39.1200   26.6040   41.6260 C   0  0  2  0  0  0  0  0  0  0  0  0
   38.0640   25.6920   42.2030 C   0  0  1  0  0  0  0  0  0  0  0  0
   36.9270   26.5580   42.3240 O   0  0  0  0  0  0  0  0  0  0  0  0
   37.5560   27.5590   43.1000 C   0  0  0  0  0  0  0  0  0  0  0  0
   38.6620   27.9790   42.1370 C   0  0  2  0  0  0  0  0  0  0  0  0
   40.1340   26.3670   41.9930 H   0  0  0  0  0  0  0  0  0  0  0  0
   38.2750   25.4060   43.2500 H   0  0  0  0  0  0  0  0  0  0  0  0
   37.9880   27.0870   43.9900 H   0  0  0  0  0  0  0  0  0  0  0  0
   36.8490   28.3610   43.3000 H   0  0  0  0  0  0  0  0  0  0  0  0
   39.4700   28.5050   42.6430 H   0  0  0  0  0  0  0  0  0  0  0  0
   36.1580   23.5460   39.9240 C   0  0  0  0  0  0  0  0  0  0  0  0
   37.0370   22.4560   39.6840 C   0  0  0  0  0  0  0  0  0  0  0  0
   38.3020   22.4710   40.3310 C   0  0  0  0  0  0  0  0  0  0  0  0
   38.6120   23.5150   41.1430 N   0  0  0  0  0  0  0  0  0  0  0  0
   37.7400   24.5430   41.3470 C   0  0  0  0  0  0  0  0  0  0  0  0
   36.5280   24.5550   40.7450 N   0  0  0  0  0  0  0  0  0  0  0  0
   35.2020   23.5200   39.4250 H   0  0  0  0  0  0  0  0  0  0  0  0
   36.7500   21.6450   39.0290 H   0  0  0  0  0  0  0  0  0  0  0  0
   38.9640   21.6480   40.1470 H   0  0  0  0  0  0  0  0  0  0  0  0
   39.0760   26.5790   40.2180 O   0  0  0  0  0  0  0  0  0  0  0  0
   38.3550   27.1600   39.8720 H   0  0  0  0  0  0  0  0  0  0  0  0
   38.0740   28.6910   41.1090 O   0  0  0  0  0  0  0  0  0  0  0  0
   36.6440   30.5890   40.7260 C   0  0  2  0  0  3  0  0  0  0  0  0
   37.6570   29.9190   41.6160 C   0  0  2  0  0  3  0  0  0  0  0  0
   38.7140   30.7850   41.8170 O   0  0  0  0  0  0  0  0  0  0  0  0
   38.4880   31.9620   41.1560 C   0  0  0  0  0  2  0  0  0  0  0  0
   37.4220   31.7140   40.1210 C   0  0  2  0  0  3  0  0  0  0  0  0
   35.6520   31.1570   41.5250 O   0  0  0  0  0  0  0  0  0  0  0  0
   35.4420   30.5390   42.2800 H   0  0  0  0  0  0  0  0  0  0  0  0
   36.6600   32.8820   40.0230 O   0  0  0  0  0  0  0  0  0  0  0  0
   36.8980   33.4440   39.2410 H   0  0  0  0  0  0  0  0  0  0  0  0
  1  6  1  1  0  0  0
  1  5  1  0  0  0  0
  1  2  1  0  0  0  0
  2  3  1  0  0  0  0
  2  7  1  1  0  0  0
  3  4  1  0  0  0  0
  4  9  1  0  0  0  0
  4  8  1  0  0  0  0
  5 10  1  1  0  0  0
  5  4  1  0  0  0  0
 11 16  1  0  0  0  0
 12 11  2  0  0  0  0
 12 13  1  0  0  0  0
 13 14  2  0  0  0  0
 14 15  1  0  0  0  0
 15  2  1  0  0  0  0
 16 15  2  0  0  0  0
 17 11  1  0  0  0  0
 18 12  1  0  0  0  0
 19 13  1  0  0  0  0
 20  1  1  0  0  0  0
 21 20  1  0  0  0  0
 22  5  1  0  0  0  0
 23 28  1  1  0  0  0
 23 24  1  0  0  0  0
 24 22  1  6  0  0  0
 24 25  1  0  0  0  0
 26 25  1  0  0  0  0
 27 30  1  1  0  0  0
 27 23  1  0  0  0  0
 27 26  1  0  0  0  0
 28 29  1  0  0  0  0
 31 30  1  0  0  0  0
M  END
>  <minimizedAffinity>
-5.41858816

$$$$

 OpenBabel03242515123D

 31 33  0  0  1  0  0  0  0  0999 V2000
   39.0920   28.0320   42.0150 C   0  0  2  0  0  0  0  0  0  0  0  0
   38.3820   27.0050   42.8620 C   0  0  1  0  0  0  0  0  0  0  0  0
   37.1190   27.6300   43.1290 O   0  0  0  0  0  0  0  0  0  0  0  0
   37.6330   28.8260   43.6790 C   0  0  0  0  0  0  0  0  0  0  0  0
   38.4350   29.3380   42.4870 C   0  0  2  0  0  0  0  0  0  0  0  0
   40.1810   28.0540   42.1950 H   0  0  0  0  0  0  0  0  0  0  0  0
   38.8280   26.9010   43.8680 H   0  0  0  0  0  0  0  0  0  0  0  0
   38.3060   28.5680   44.5040 H   0  0  0  0  0  0  0  0  0  0  0  0
   36.8100   29.4870   43.9440 H   0  0  0  0  0  0  0  0  0  0  0  0
   39.1800   30.0770   42.7780 H   0  0  0  0  0  0  0  0  0  0  0  0
   36.6300   24.2150   41.2560 C   0  0  0  0  0  0  0  0  0  0  0  0
   37.6810   23.3350   40.8830 C   0  0  0  0  0  0  0  0  0  0  0  0
   39.0110   23.7190   41.2050 C   0  0  0  0  0  0  0  0  0  0  0  0
   39.2160   24.8980   41.8480 N   0  0  0  0  0  0  0  0  0  0  0  0
   38.1800   25.7150   42.1880 C   0  0  0  0  0  0  0  0  0  0  0  0
   36.9030   25.3750   41.8950 N   0  0  0  0  0  0  0  0  0  0  0  0
   35.6270   23.9090   41.0040 H   0  0  0  0  0  0  0  0  0  0  0  0
   37.4720   22.4050   40.3730 H   0  0  0  0  0  0  0  0  0  0  0  0
   39.8020   23.0530   40.9220 H   0  0  0  0  0  0  0  0  0  0  0  0
   38.8130   27.8230   40.6500 O   0  0  0  0  0  0  0  0  0  0  0  0
   37.9320   28.1970   40.4030 H   0  0  0  0  0  0  0  0  0  0  0  0
   37.5350   29.7820   41.5360 O   0  0  0  0  0  0  0  0  0  0  0  0
   36.9760   31.6660   40.1460 C   0  0  2  0  0  3  0  0  0  0  0  0
   37.9790   31.0120   41.0590 C   0  0  2  0  0  3  0  0  0  0  0  0
   39.1850   30.9070   40.3930 O   0  0  0  0  0  0  0  0  0  0  0  0
   39.0730   31.4380   39.1360 C   0  0  0  0  0  2  0  0  0  0  0  0
   37.6080   31.5240   38.7980 C   0  0  2  0  0  3  0  0  0  0  0  0
   36.9270   33.0290   40.4380 O   0  0  0  0  0  0  0  0  0  0  0  0
   36.9820   33.1580   41.4260 H   0  0  0  0  0  0  0  0  0  0  0  0
   37.4290   32.6690   38.0160 O   0  0  0  0  0  0  0  0  0  0  0  0
   37.3580   32.4760   37.0450 H   0  0  0  0  0  0  0  0  0  0  0  0
  1  6  1  1  0  0  0
  1  5  1  0  0  0  0
  1  2  1  0  0  0  0
  2  3  1  0  0  0  0
  2  7  1  1  0  0  0
  3  4  1  0  0  0  0
  4  9  1  0  0  0  0
  4  8  1  0  0  0  0
  5 10  1  1  0  0  0
  5  4  1  0  0  0  0
 11 16  1  0  0  0  0
 12 13  1  0  0  0  0
 12 11  2  0  0  0  0
 13 14  2  0  0  0  0
 14 15  1  0  0  0  0
 15  2  1  0  0  0  0
 16 15  2  0  0  0  0
 17 11  1  0  0  0  0
 18 12  1  0  0  0  0
 19 13  1  0  0  0  0
 20  1  1  0  0  0  0
 21 20  1  0  0  0  0
 22  5  1  0  0  0  0
 23 28  1  1  0  0  0
 23 24  1  0  0  0  0
 24 22  1  6  0  0  0
 25 24  1  0  0  0  0
 26 25  1  0  0  0  0
 27 30  1  6  0  0  0
 27 26  1  0  0  0  0
 27 23  1  0  0  0  0
 28 29  1  0  0  0  0
 31 30  1  0  0  0  0
M  END
>  <minimizedAffinity>
-5.28598785

$$$$

 OpenBabel03242515123D

 31 33  0  0  1  0  0  0  0  0999 V2000
   36.6990   28.5960   41.4340 C   0  0  2  0  0  0  0  0  0  0  0  0
   37.1990   29.9010   42.0030 C   0  0  1  0  0  0  0  0  0  0  0  0
   38.2610   29.4840   42.8720 O   0  0  0  0  0  0  0  0  0  0  0  0
   37.5030   28.5740   43.6440 C   0  0  0  0  0  0  0  0  0  0  0  0
   37.0670   27.6050   42.5500 C   0  0  2  0  0  0  0  0  0  0  0  0
   35.6100   28.5980   41.2560 H   0  0  0  0  0  0  0  0  0  0  0  0
   36.4760   30.3680   42.6970 H   0  0  0  0  0  0  0  0  0  0  0  0
   36.6340   29.1030   44.0500 H   0  0  0  0  0  0  0  0  0  0  0  0
   38.1460   28.1040   44.3860 H   0  0  0  0  0  0  0  0  0  0  0  0
   36.2080   27.0060   42.8490 H   0  0  0  0  0  0  0  0  0  0  0  0
   37.1690   32.4330   39.3520 C   0  0  0  0  0  0  0  0  0  0  0  0
   38.5480   32.6500   39.0880 C   0  0  0  0  0  0  0  0  0  0  0  0
   39.4920   31.8990   39.8380 C   0  0  0  0  0  0  0  0  0  0  0  0
   39.0400   31.0150   40.7650 N   0  0  0  0  0  0  0  0  0  0  0  0
   37.7080   30.8350   40.9890 C   0  0  0  0  0  0  0  0  0  0  0  0
   36.7860   31.5360   40.2900 N   0  0  0  0  0  0  0  0  0  0  0  0
   36.4650   33.0110   38.7750 H   0  0  0  0  0  0  0  0  0  0  0  0
   38.8630   33.3650   38.3400 H   0  0  0  0  0  0  0  0  0  0  0  0
   40.5320   32.0660   39.6370 H   0  0  0  0  0  0  0  0  0  0  0  0
   37.4010   28.2710   40.2570 O   0  0  0  0  0  0  0  0  0  0  0  0
   38.2800   27.8680   40.4630 H   0  0  0  0  0  0  0  0  0  0  0  0
   38.1740   26.8670   42.1780 O   0  0  0  0  0  0  0  0  0  0  0  0
   38.9910   24.6120   41.9690 C   0  0  2  0  0  3  0  0  0  0  0  0
   37.9550   25.5420   42.5430 C   0  0  2  0  0  3  0  0  0  0  0  0
   36.7020   25.0980   42.1670 O   0  0  0  0  0  0  0  0  0  0  0  0
   36.8140   23.9630   41.4110 C   0  0  0  0  0  2  0  0  0  0  0  0
   38.2320   23.8790   40.9090 C   0  0  2  0  0  3  0  0  0  0  0  0
   39.3450   23.6790   42.9430 O   0  0  0  0  0  0  0  0  0  0  0  0
   39.4010   24.1320   43.8300 H   0  0  0  0  0  0  0  0  0  0  0  0
   38.5770   22.5250   40.8630 O   0  0  0  0  0  0  0  0  0  0  0  0
   38.5240   22.1360   39.9520 H   0  0  0  0  0  0  0  0  0  0  0  0
  1  6  1  6  0  0  0
  1  2  1  0  0  0  0
  1  5  1  0  0  0  0
  2  7  1  1  0  0  0
  2  3  1  0  0  0  0
  3  4  1  0  0  0  0
  4  8  1  0  0  0  0
  4  9  1  0  0  0  0
  5 10  1  1  0  0  0
  5  4  1  0  0  0  0
 11 16  1  0  0  0  0
 12 11  2  0  0  0  0
 12 13  1  0  0  0  0
 13 14  2  0  0  0  0
 14 15  1  0  0  0  0
 15  2  1  0  0  0  0
 16 15  2  0  0  0  0
 17 11  1  0  0  0  0
 18 12  1  0  0  0  0
 19 13  1  0  0  0  0
 20 21  1  0  0  0  0
 20  1  1  0  0  0  0
 22  5  1  0  0  0  0
 23 24  1  0  0  0  0
 23 28  1  1  0  0  0
 24 22  1  6  0  0  0
 25 24  1  0  0  0  0
 26 25  1  0  0  0  0
 27 30  1  1  0  0  0
 27 26  1  0  0  0  0
 27 23  1  0  0  0  0
 28 29  1  0  0  0  0
 31 30  1  0  0  0  0
M  END
>  <minimizedAffinity>
-5.1636343

$$$$

 OpenBabel03242515123D

 31 33  0  0  1  0  0  0  0  0999 V2000
   38.0640   28.4750   40.4990 C   0  0  2  0  0  0  0  0  0  0  0  0
   37.2250   29.5610   41.1270 C   0  0  1  0  0  0  0  0  0  0  0  0
   37.4250   29.3460   42.5310 O   0  0  0  0  0  0  0  0  0  0  0  0
   37.0310   27.9880   42.5550 C   0  0  0  0  0  0  0  0  0  0  0  0
   38.0630   27.4000   41.5980 C   0  0  2  0  0  0  0  0  0  0  0  0
   37.6220   28.0820   39.5670 H   0  0  0  0  0  0  0  0  0  0  0  0
   36.1400   29.3880   41.0000 H   0  0  0  0  0  0  0  0  0  0  0  0
   36.0270   27.9110   42.1240 H   0  0  0  0  0  0  0  0  0  0  0  0
   37.1300   27.6000   43.5670 H   0  0  0  0  0  0  0  0  0  0  0  0
   37.7570   26.4310   41.2070 H   0  0  0  0  0  0  0  0  0  0  0  0
   37.1670   32.8260   39.4650 C   0  0  0  0  0  0  0  0  0  0  0  0
   38.2930   33.4970   40.0140 C   0  0  0  0  0  0  0  0  0  0  0  0
   39.0800   32.7960   40.9660 C   0  0  0  0  0  0  0  0  0  0  0  0
   38.7260   31.5290   41.3060 N   0  0  0  0  0  0  0  0  0  0  0  0
   37.6380   30.9210   40.7560 C   0  0  0  0  0  0  0  0  0  0  0  0
   36.8690   31.5630   39.8460 N   0  0  0  0  0  0  0  0  0  0  0  0
   36.5790   33.3720   38.7440 H   0  0  0  0  0  0  0  0  0  0  0  0
   38.5380   34.5060   39.7140 H   0  0  0  0  0  0  0  0  0  0  0  0
   39.9290   33.3040   41.3790 H   0  0  0  0  0  0  0  0  0  0  0  0
   39.3770   28.9320   40.2790 O   0  0  0  0  0  0  0  0  0  0  0  0
   39.9130   28.8950   41.1090 H   0  0  0  0  0  0  0  0  0  0  0  0
   39.2820   27.3930   42.2490 O   0  0  0  0  0  0  0  0  0  0  0  0
   40.5140   25.5620   43.2110 C   0  0  2  0  0  3  0  0  0  0  0  0
   39.9100   26.1810   41.9780 C   0  0  2  0  0  3  0  0  0  0  0  0
   40.8950   26.3080   41.0170 O   0  0  0  0  0  0  0  0  0  0  0  0
   42.0820   25.8240   41.4960 C   0  0  0  0  0  2  0  0  0  0  0  0
   41.9820   25.7520   42.9970 C   0  0  2  0  0  3  0  0  0  0  0  0
   40.2680   24.1890   43.1900 O   0  0  0  0  0  0  0  0  0  0  0  0
   39.3440   24.0240   42.8500 H   0  0  0  0  0  0  0  0  0  0  0  0
   42.7170   24.6370   43.4100 O   0  0  0  0  0  0  0  0  0  0  0  0
   43.6170   24.8660   43.7580 H   0  0  0  0  0  0  0  0  0  0  0  0
  1  6  1  6  0  0  0
  1  2  1  0  0  0  0
  1  5  1  0  0  0  0
  2  7  1  6  0  0  0
  2  3  1  0  0  0  0
  3  4  1  0  0  0  0
  4  9  1  0  0  0  0
  5 10  1  6  0  0  0
  5 22  1  0  0  0  0
  5  4  1  0  0  0  0
  8  4  1  0  0  0  0
 11 16  2  0  0  0  0
 11 12  1  0  0  0  0
 12 13  2  0  0  0  0
 13 14  1  0  0  0  0
 13 19  1  0  0  0  0
 15  2  1  0  0  0  0
 15 14  2  0  0  0  0
 16 15  1  0  0  0  0
 17 11  1  0  0  0  0
 18 12  1  0  0  0  0
 20  1  1  0  0  0  0
 20 21  1  0  0  0  0
 23 28  1  6  0  0  0
 24 22  1  1  0  0  0
 24 23  1  0  0  0  0
 25 26  1  0  0  0  0
 25 24  1  0  0  0  0
 26 27  1  0  0  0  0
 27 23  1  0  0  0  0
 27 30  1  6  0  0  0
 29 28  1  0  0  0  0
 30 31  1  0  0  0  0
M  END
>  <minimizedAffinity>
-5.0448575

$$$$

 OpenBabel03242515123D

 31 33  0  0  1  0  0  0  0  0999 V2000
   39.7380   28.6310   41.0660 C   0  0  2  0  0  0  0  0  0  0  0  0
   39.2780   27.9700   42.3420 C   0  0  1  0  0  0  0  0  0  0  0  0
   38.2330   28.8420   42.7940 O   0  0  0  0  0  0  0  0  0  0  0  0
   38.9950   30.0330   42.8020 C   0  0  0  0  0  0  0  0  0  0  0  0
   39.3840   30.1040   41.3290 C   0  0  2  0  0  0  0  0  0  0  0  0
   40.8220   28.5150   40.8930 H   0  0  0  0  0  0  0  0  0  0  0  0
   40.0280   28.0380   43.1520 H   0  0  0  0  0  0  0  0  0  0  0  0
   39.8840   29.8720   43.4210 H   0  0  0  0  0  0  0  0  0  0  0  0
   38.3640   30.8660   43.1080 H   0  0  0  0  0  0  0  0  0  0  0  0
   40.2390   30.7560   41.1590 H   0  0  0  0  0  0  0  0  0  0  0  0
   39.2770   24.3580   41.7230 C   0  0  0  0  0  0  0  0  0  0  0  0
   37.9040   24.0060   41.8200 C   0  0  0  0  0  0  0  0  0  0  0  0
   36.9740   25.0440   42.0960 C   0  0  0  0  0  0  0  0  0  0  0  0
   37.4330   26.3130   42.2540 N   0  0  0  0  0  0  0  0  0  0  0  0
   38.7590   26.6090   42.1530 C   0  0  0  0  0  0  0  0  0  0  0  0
   39.6680   25.6420   41.8900 N   0  0  0  0  0  0  0  0  0  0  0  0
   39.9710   23.5590   41.5130 H   0  0  0  0  0  0  0  0  0  0  0  0
   37.5830   22.9830   41.6870 H   0  0  0  0  0  0  0  0  0  0  0  0
   35.9380   24.7760   42.1700 H   0  0  0  0  0  0  0  0  0  0  0  0
   38.9990   28.1510   39.9680 O   0  0  0  0  0  0  0  0  0  0  0  0
   38.1190   28.5960   39.9060 H   0  0  0  0  0  0  0  0  0  0  0  0
   38.2530   30.4500   40.6130 O   0  0  0  0  0  0  0  0  0  0  0  0
   38.0220   31.6230   38.5230 C   0  0  2  0  0  3  0  0  0  0  0  0
   38.5100   31.6450   39.9480 C   0  0  2  0  0  3  0  0  0  0  0  0
   39.8540   31.9660   39.9530 O   0  0  0  0  0  0  0  0  0  0  0  0
   40.2930   32.1660   38.6720 C   0  0  0  0  0  2  0  0  0  0  0  0
   39.2920   31.5400   37.7370 C   0  0  2  0  0  3  0  0  0  0  0  0
   37.4360   32.8540   38.2310 O   0  0  0  0  0  0  0  0  0  0  0  0
   36.9080   33.1640   39.0200 H   0  0  0  0  0  0  0  0  0  0  0  0
   39.2450   32.3340   36.5870 O   0  0  0  0  0  0  0  0  0  0  0  0
   39.7690   31.9640   35.8310 H   0  0  0  0  0  0  0  0  0  0  0  0
  1  6  1  6  0  0  0
  1  5  1  0  0  0  0
  1  2  1  0  0  0  0
  2  3  1  0  0  0  0
  2  7  1  1  0  0  0
  3  4  1  0  0  0  0
  4  9  1  0  0  0  0
  4  8  1  0  0  0  0
  5 10  1  6  0  0  0
  5  4  1  0  0  0  0
 11 12  2  0  0  0  0
 11 16  1  0  0  0  0
 12 13  1  0  0  0  0
 13 19  1  0  0  0  0
 13 14  2  0  0  0  0
 15 14  1  0  0  0  0
 15  2  1  0  0  0  0
 16 15  2  0  0  0  0
 17 11  1  0  0  0  0
 18 12  1  0  0  0  0
 20  1  1  0  0  0  0
 21 20  1  0  0  0  0
 22  5  1  0  0  0  0
 23 28  1  6  0  0  0
 23 24  1  0  0  0  0
 24 25  1  0  0  0  0
 24 22  1  6  0  0  0
 26 25  1  0  0  0  0
 27 30  1  6  0  0  0
 27 23  1  0  0  0  0
 27 26  1  0  0  0  0
 28 29  1  0  0  0  0
 31 30  1  0  0  0  0
M  END
>  <minimizedAffinity>
-5.02404261

$$$$

 OpenBabel03242515123D

 31 33  0  0  1  0  0  0  0  0999 V2000
   39.1820   28.9620   39.0930 C   0  0  2  0  0  0  0  0  0  0  0  0
   39.7950   27.8760   39.9420 C   0  0  1  0  0  0  0  0  0  0  0  0
   40.8200   28.5750   40.6620 O   0  0  0  0  0  0  0  0  0  0  0  0
   41.4870   29.1090   39.5350 C   0  0  0  0  0  0  0  0  0  0  0  0
   40.3570   29.9390   38.9340 C   0  0  2  0  0  0  0  0  0  0  0  0
   38.8430   28.5930   38.1090 H   0  0  0  0  0  0  0  0  0  0  0  0
   40.3660   27.1400   39.3460 H   0  0  0  0  0  0  0  0  0  0  0  0
   41.7490   28.2840   38.8640 H   0  0  0  0  0  0  0  0  0  0  0  0
   42.3240   29.7210   39.8650 H   0  0  0  0  0  0  0  0  0  0  0  0
   40.5360   30.1800   37.8870 H   0  0  0  0  0  0  0  0  0  0  0  0
   37.1560   25.6510   41.1730 C   0  0  0  0  0  0  0  0  0  0  0  0
   37.0690   25.9730   42.5540 C   0  0  0  0  0  0  0  0  0  0  0  0
   37.9370   26.9820   43.0540 C   0  0  0  0  0  0  0  0  0  0  0  0
   38.8010   27.5880   42.1980 N   0  0  0  0  0  0  0  0  0  0  0  0
   38.8530   27.2490   40.8790 C   0  0  0  0  0  0  0  0  0  0  0  0
   38.0390   26.2930   40.3750 N   0  0  0  0  0  0  0  0  0  0  0  0
   36.4910   24.8830   40.8100 H   0  0  0  0  0  0  0  0  0  0  0  0
   36.3660   25.4660   43.2000 H   0  0  0  0  0  0  0  0  0  0  0  0
   37.8700   27.2230   44.0960 H   0  0  0  0  0  0  0  0  0  0  0  0
   38.1280   29.5910   39.7840 O   0  0  0  0  0  0  0  0  0  0  0  0
   38.4700   30.2590   40.4280 H   0  0  0  0  0  0  0  0  0  0  0  0
   40.1670   31.0400   39.7470 O   0  0  0  0  0  0  0  0  0  0  0  0
   40.7830   32.0930   37.6720 C   0  0  2  0  0  3  0  0  0  0  0  0
   39.9630   32.1500   38.9330 C   0  0  2  0  0  3  0  0  0  0  0  0
   40.2380   33.3350   39.5880 O   0  0  0  0  0  0  0  0  0  0  0  0
   41.1510   34.0640   38.8760 C   0  0  0  0  0  2  0  0  0  0  0  0
   41.8310   33.1340   37.9070 C   0  0  2  0  0  3  0  0  0  0  0  0
   39.9980   32.5310   36.6060 O   0  0  0  0  0  0  0  0  0  0  0  0
   39.0710   32.1780   36.7110 H   0  0  0  0  0  0  0  0  0  0  0  0
   42.1050   33.8670   36.7490 O   0  0  0  0  0  0  0  0  0  0  0  0
   43.0470   34.1730   36.6890 H   0  0  0  0  0  0  0  0  0  0  0  0
  1  6  1  6  0  0  0
  1 20  1  0  0  0  0
  1  2  1  0  0  0  0
  2  7  1  6  0  0  0
  2  3  1  0  0  0  0
  2 15  1  0  0  0  0
  4  9  1  0  0  0  0
  4  3  1  0  0  0  0
  5 10  1  6  0  0  0
  5  1  1  0  0  0  0
  5  4  1  0  0  0  0
  5 22  1  0  0  0  0
  8  4  1  0  0  0  0
 11 12  1  0  0  0  0
 12 13  2  0  0  0  0
 12 18  1  0  0  0  0
 13 19  1  0  0  0  0
 14 13  1  0  0  0  0
 15 14  2  0  0  0  0
 16 15  1  0  0  0  0
 16 11  2  0  0  0  0
 17 11  1  0  0  0  0
 20 21  1  0  0  0  0
 23 28  1  6  0  0  0
 23 27  1  0  0  0  0
 23 24  1  0  0  0  0
 24 25  1  0  0  0  0
 24 22  1  1  0  0  0
 26 25  1  0  0  0  0
 27 30  1  6  0  0  0
 27 26  1  0  0  0  0
 28 29  1  0  0  0  0
 31 30  1  0  0  0  0
M  END
>  <minimizedAffinity>
-4.94537497

$$$$

 OpenBabel03242515123D

 31 33  0  0  1  0  0  0  0  0999 V2000
   37.0840   28.3360   36.4910 C   0  0  2  0  0  0  0  0  0  0  0  0
   35.8860   28.6330   35.6230 C   0  0  1  0  0  0  0  0  0  0  0  0
   34.9920   29.2960   36.5280 O   0  0  0  0  0  0  0  0  0  0  0  0
   34.9670   28.2830   37.5150 C   0  0  0  0  0  0  0  0  0  0  0  0
   36.4450   28.2440   37.8870 C   0  0  2  0  0  0  0  0  0  0  0  0
   37.5780   27.3860   36.2240 H   0  0  0  0  0  0  0  0  0  0  0  0
   35.3270   27.7220   35.3410 H   0  0  0  0  0  0  0  0  0  0  0  0
   34.6720   27.3420   37.0380 H   0  0  0  0  0  0  0  0  0  0  0  0
   34.3360   28.5990   38.3430 H   0  0  0  0  0  0  0  0  0  0  0  0
   36.7200   27.3190   38.3900 H   0  0  0  0  0  0  0  0  0  0  0  0
   36.6050   29.6230   32.1680 C   0  0  0  0  0  0  0  0  0  0  0  0
   36.7070   31.0380   32.2430 C   0  0  0  0  0  0  0  0  0  0  0  0
   36.5310   31.6470   33.5150 C   0  0  0  0  0  0  0  0  0  0  0  0
   36.2750   30.8570   34.5910 N   0  0  0  0  0  0  0  0  0  0  0  0
   36.1850   29.5020   34.4760 C   0  0  0  0  0  0  0  0  0  0  0  0
   36.3490   28.8950   33.2790 N   0  0  0  0  0  0  0  0  0  0  0  0
   36.7410   29.1760   31.1950 H   0  0  0  0  0  0  0  0  0  0  0  0
   36.9130   31.6270   31.3610 H   0  0  0  0  0  0  0  0  0  0  0  0
   36.6080   32.7140   33.5690 H   0  0  0  0  0  0  0  0  0  0  0  0
   37.9980   29.4070   36.4540 O   0  0  0  0  0  0  0  0  0  0  0  0
   37.7170   30.1390   37.0550 H   0  0  0  0  0  0  0  0  0  0  0  0
   36.7260   29.3890   38.6080 O   0  0  0  0  0  0  0  0  0  0  0  0
   36.6190   30.2520   40.8530 C   0  0  2  0  0  3  0  0  0  0  0  0
   36.0490   29.3140   39.8220 C   0  0  2  0  0  3  0  0  0  0  0  0
   36.0480   28.0330   40.3390 O   0  0  0  0  0  0  0  0  0  0  0  0
   36.5510   28.0400   41.6120 C   0  0  0  0  0  2  0  0  0  0  0  0
   37.3130   29.3260   41.8010 C   0  0  2  0  0  3  0  0  0  0  0  0
   35.5660   30.8430   41.5510 O   0  0  0  0  0  0  0  0  0  0  0  0
   34.8280   31.0600   40.9150 H   0  0  0  0  0  0  0  0  0  0  0  0
   37.1420   29.7180   43.1310 O   0  0  0  0  0  0  0  0  0  0  0  0
   37.9170   29.4970   43.7100 H   0  0  0  0  0  0  0  0  0  0  0  0
  1  6  1  6  0  0  0
  1  5  1  0  0  0  0
  2  7  1  6  0  0  0
  2  1  1  0  0  0  0
  2  3  1  0  0  0  0
  3  4  1  0  0  0  0
  4  5  1  0  0  0  0
  4  9  1  0  0  0  0
  5 10  1  1  0  0  0
  5 22  1  0  0  0  0
  8  4  1  0  0  0  0
 11 12  2  0  0  0  0
 11 16  1  0  0  0  0
 12 13  1  0  0  0  0
 13 19  1  0  0  0  0
 13 14  2  0  0  0  0
 15 14  1  0  0  0  0
 15  2  1  0  0  0  0
 16 15  2  0  0  0  0
 17 11  1  0  0  0  0
 18 12  1  0  0  0  0
 20  1  1  0  0  0  0
 20 21  1  0  0  0  0
 23 28  1  1  0  0  0
 23 27  1  0  0  0  0
 24 22  1  6  0  0  0
 24 25  1  0  0  0  0
 24 23  1  0  0  0  0
 25 26  1  0  0  0  0
 26 27  1  0  0  0  0
 27 30  1  1  0  0  0
 29 28  1  0  0  0  0
 30 31  1  0  0  0  0
M  END
>  <minimizedAffinity>
-4.76147509

$$$$
