
 OpenBabel03252507493D

 45 47  0  0  1  0  0  0  0  0999 V2000
   46.6820   34.8270   42.0370 C   0  0  0  0  0  0  0  0  0  0  0  0
   46.8800   34.1200   42.8710 H   0  0  0  0  0  0  0  0  0  0  0  0
   47.0220   35.8290   42.4160 H   0  0  0  0  0  0  0  0  0  0  0  0
   45.2170   34.8060   41.7950 C   0  0  0  0  0  0  0  0  0  0  0  0
   44.3950   35.8320   42.3290 C   0  0  0  0  0  0  0  0  0  0  0  0
   42.7220   35.3690   41.7690 S   0  0  0  0  0  0  0  0  0  0  0  0
   43.4230   33.8270   40.8840 C   0  0  0  0  0  0  0  0  0  0  0  0
   44.5320   33.9300   41.1240 N   0  0  0  0  0  0  0  0  0  0  0  0
   44.7080   36.6760   42.9210 H   0  0  0  0  0  0  0  0  0  0  0  0
   42.6250   32.9360   40.1860 O   0  0  0  0  0  0  0  0  0  0  0  0
   41.3700   32.6860   37.8630 O   0  0  0  0  0  0  0  0  0  0  0  0
   42.7450   32.9210   38.5040 P   0  0  1  0  0  0  0  0  0  0  0  0
   43.3010   34.4490   38.0030 O   0  0  0  0  0  0  0  0  0  0  0  0
   43.8640   34.3090   37.2090 H   0  0  0  0  0  0  0  0  0  0  0  0
   43.8560   31.7610   38.0050 O   0  0  0  0  0  0  0  0  0  0  0  0
   44.3830   29.9040   39.4390 C   0  0  2  0  0  3  0  0  0  0  0  0
   43.3800   30.5260   38.4670 C   0  0  1  0  0  3  0  0  0  0  0  0
   42.2580   30.6470   39.2450 O   0  0  0  0  0  0  0  0  0  0  0  0
   42.1430   29.4530   39.9140 C   0  0  0  0  0  2  0  0  0  0  0  0
   43.5090   28.8630   40.1070 C   0  0  2  0  0  3  0  0  0  0  0  0
   44.8800   30.8000   40.3520 O   0  0  0  0  0  0  0  0  0  0  0  0
   45.1110   30.3260   41.1870 H   0  0  0  0  0  0  0  0  0  0  0  0
   43.8860   28.7270   41.4350 O   0  0  0  0  0  0  0  0  0  0  0  0
   43.8570   27.7920   41.7590 H   0  0  0  0  0  0  0  0  0  0  0  0
   47.5070   34.4830   40.8380 C   0  0  0  0  0  0  0  0  0  0  0  0
   46.8860   33.9140   40.1370 H   0  0  0  0  0  0  0  0  0  0  0  0
   47.7610   35.4400   40.3060 H   0  0  0  0  0  0  0  0  0  0  0  0
   48.7680   33.7990   41.1680 C   0  0  0  0  0  0  0  0  0  0  0  0
   49.0910   32.6810   40.4020 C   0  0  0  0  0  0  0  0  0  0  0  0
   50.2500   31.9740   40.6360 C   0  0  0  0  0  0  0  0  0  0  0  0
   51.0620   32.4270   41.6550 N   0  0  0  0  0  0  0  0  0  0  0  0
   50.7050   33.5310   42.3820 C   0  0  0  0  0  0  0  0  0  0  0  0
   49.5860   34.1810   42.1270 N   0  0  0  0  0  0  0  0  0  0  0  0
   50.5410   31.1020   40.0670 H   0  0  0  0  0  0  0  0  0  0  0  0
   51.3800   33.8480   43.1760 H   0  0  0  0  0  0  0  0  0  0  0  0
   47.9900   32.1490   39.0950 S   0  0  0  0  0  0  0  0  0  0  0  0
   48.8470   32.2110   37.4940 C   0  0  0  0  0  0  0  0  0  0  0  0
   49.9350   32.0460   37.6870 H   0  0  0  0  0  0  0  0  0  0  0  0
   48.4890   31.3750   36.8820 H   0  0  0  0  0  0  0  0  0  0  0  0
   48.5580   33.5200   36.8300 C   0  0  0  0  0  0  0  0  0  0  0  0
   47.8190   34.1320   37.3850 H   0  0  0  0  0  0  0  0  0  0  0  0
   49.5070   34.0950   36.8190 H   0  0  0  0  0  0  0  0  0  0  0  0
   48.1740   33.2650   35.4740 N   0  0  0  0  0  0  0  0  0  0  0  0
   48.1880   34.1460   34.9210 H   0  0  0  0  0  0  0  0  0  0  0  0
   48.7550   32.5000   35.1150 H   0  0  0  0  0  0  0  0  0  0  0  0
  1  3  1  0  0  0  0
  1  2  1  0  0  0  0
  4  1  1  0  0  0  0
  4  5  2  0  0  0  0
  5  9  1  0  0  0  0
  6  5  1  0  0  0  0
  7  8  2  0  0  0  0
  7  6  1  0  0  0  0
  8  4  1  0  0  0  0
 10  7  1  0  0  0  0
 12 11  2  6  0  0  0
 12 10  1  0  0  0  0
 13 12  1  0  0  0  0
 14 13  1  0  0  0  0
 15 12  1  0  0  0  0
 16 20  1  0  0  0  0
 16 21  1  1  0  0  0
 17 15  1  1  0  0  0
 17 18  1  0  0  0  0
 17 16  1  0  0  0  0
 18 19  1  0  0  0  0
 19 20  1  0  0  0  0
 20 23  1  1  0  0  0
 21 22  1  0  0  0  0
 23 24  1  0  0  0  0
 25 28  1  0  0  0  0
 25  1  1  0  0  0  0
 26 25  1  0  0  0  0
 27 25  1  0  0  0  0
 28 33  1  0  0  0  0
 29 30  1  0  0  0  0
 29 28  2  0  0  0  0
 30 31  2  0  0  0  0
 31 32  1  0  0  0  0
 32 35  1  0  0  0  0
 33 32  2  0  0  0  0
 34 30  1  0  0  0  0
 36 29  1  0  0  0  0
 37 38  1  0  0  0  0
 37 36  1  0  0  0  0
 39 37  1  0  0  0  0
 40 41  1  0  0  0  0
 40 37  1  0  0  0  0
 42 40  1  0  0  0  0
 43 40  1  0  0  0  0
 44 43  1  0  0  0  0
 45 43  1  0  0  0  0
M  END
>  <minimizedAffinity>
-4.19892693

>  <minimizedRMSD>
2.78000784

$$$$
