
 OpenBabel03252504303D

 33 34  0  0  1  0  0  0  0  0999 V2000
   45.7090   35.3700   43.0210 C   0  0  0  0  0  0  0  0  0  0  0  0
   46.4410   36.1710   42.7460 H   0  0  0  0  0  0  0  0  0  0  0  0
   46.0370   34.4030   42.5890 H   0  0  0  0  0  0  0  0  0  0  0  0
   43.8580   35.1030   41.2840 C   0  0  0  0  0  0  0  0  0  0  0  0
   44.3620   35.6830   42.3840 C   0  0  0  0  0  0  0  0  0  0  0  0
   42.6080   35.5320   40.8730 O   0  0  0  0  0  0  0  0  0  0  0  0
   41.4470   35.5400   41.6190 C   0  0  0  0  0  0  0  0  0  0  0  0
   41.6840   35.0020   42.5850 H   0  0  0  0  0  0  0  0  0  0  0  0
   41.1210   36.5570   41.8320 H   0  0  0  0  0  0  0  0  0  0  0  0
   40.1000   33.5480   41.6440 C   0  0  0  0  0  0  0  0  0  0  0  0
   40.3380   34.7800   41.0010 C   0  0  0  0  0  0  0  0  0  0  0  0
   39.5400   35.0850   39.9400 C   0  0  0  0  0  0  0  0  0  0  0  0
   38.6050   34.2000   39.5980 N   0  0  0  0  0  0  0  0  0  0  0  0
   38.3810   33.0450   40.1960 C   0  0  0  0  0  0  0  0  0  0  0  0
   39.1560   32.6610   41.2920 N   0  0  0  0  0  0  0  0  0  0  0  0
   40.6680   33.1740   42.5120 H   0  0  0  0  0  0  0  0  0  0  0  0
   39.7750   36.0410   39.4960 H   0  0  0  0  0  0  0  0  0  0  0  0
   37.5970   32.3710   39.8600 H   0  0  0  0  0  0  0  0  0  0  0  0
   45.5000   35.2270   44.3640 O   0  0  0  0  0  0  0  0  0  0  0  0
   45.0690   32.6250   44.0160 O   0  0  0  0  0  0  0  0  0  0  0  0
   45.7510   33.6360   44.8890 P   0  0  1  0  0  0  0  0  0  0  0  0
   47.4120   33.3000   44.9020 O   0  0  0  0  0  0  0  0  0  0  0  0
   47.9310   34.0750   45.2620 H   0  0  0  0  0  0  0  0  0  0  0  0
   45.2140   33.4950   46.4930 O   0  0  0  0  0  0  0  0  0  0  0  0
   45.2140   31.8480   48.2780 C   0  0  1  0  0  0  0  0  0  0  0  0
   45.8210   32.3620   47.0150 C   0  0  1  0  0  0  0  0  0  0  0  0
   45.8920   31.3250   46.1120 O   0  0  0  0  0  0  0  0  0  0  0  0
   45.6310   30.1420   46.7500 C   0  0  0  0  0  0  0  0  0  0  0  0
   45.6690   30.4030   48.2410 C   0  0  1  0  0  0  0  0  0  0  0  0
   45.6570   32.5060   49.4160 O   0  0  0  0  0  0  0  0  0  0  0  0
   46.5710   32.2550   49.7030 H   0  0  0  0  0  0  0  0  0  0  0  0
   46.9980   30.2960   48.6550 O   0  0  0  0  0  0  0  0  0  0  0  0
   47.6300   30.5060   47.9200 H   0  0  0  0  0  0  0  0  0  0  0  0
  1 19  1  0  0  0  0
  2  1  1  0  0  0  0
  3  1  1  0  0  0  0
  4  5  2  0  0  0  0
  5  1  1  0  0  0  0
  6  4  1  0  0  0  0
  6  7  1  0  0  0  0
  7  9  1  0  0  0  0
  7  8  1  0  0  0  0
 10 16  1  0  0  0  0
 11  7  1  0  0  0  0
 11 10  2  0  0  0  0
 12 11  1  0  0  0  0
 13 12  2  0  0  0  0
 13 14  1  0  0  0  0
 14 15  2  0  0  0  0
 15 10  1  0  0  0  0
 17 12  1  0  0  0  0
 18 14  1  0  0  0  0
 19 21  1  0  0  0  0
 21 20  2  6  0  0  0
 21 22  1  0  0  0  0
 21 24  1  0  0  0  0
 22 23  1  0  0  0  0
 25 30  1  1  0  0  0
 26 24  1  6  0  0  0
 26 25  1  0  0  0  0
 27 28  1  0  0  0  0
 27 26  1  0  0  0  0
 28 29  1  0  0  0  0
 29 25  1  0  0  0  0
 29 32  1  6  0  0  0
 30 31  1  0  0  0  0
 33 32  1  0  0  0  0
M  END
>  <minimizedAffinity>
-5.65570879

>  <minimizedRMSD>
1.98749769

$$$$
