
 OpenBabel03252504313D

 33 34  0  0  1  0  0  0  0  0999 V2000
   37.3810   32.4210   39.9270 C   0  0  0  0  0  0  0  0  0  0  0  0
   38.4670   32.6060   40.1290 H   0  0  0  0  0  0  0  0  0  0  0  0
   36.7810   33.2660   40.3230 H   0  0  0  0  0  0  0  0  0  0  0  0
   37.7170   30.3980   41.4480 C   0  0  0  0  0  3  0  0  0  0  0  0
   36.9320   31.1860   40.6970 C   0  0  0  0  0  3  0  0  0  0  0  0
   37.1040   29.3240   42.0690 O   0  0  0  0  0  0  0  0  0  0  0  0
   37.5090   28.6950   43.2300 C   0  0  0  0  0  0  0  0  0  0  0  0
   38.3830   29.2910   43.6270 H   0  0  0  0  0  0  0  0  0  0  0  0
   36.7080   28.6760   43.9670 H   0  0  0  0  0  0  0  0  0  0  0  0
   39.2050   27.0690   43.7410 C   0  0  0  0  0  0  0  0  0  0  0  0
   38.0230   27.3250   43.0150 C   0  0  0  0  0  0  0  0  0  0  0  0
   37.5400   26.3080   42.2480 C   0  0  0  0  0  0  0  0  0  0  0  0
   38.2190   25.1630   42.2450 N   0  0  0  0  0  0  0  0  0  0  0  0
   39.3250   24.9200   42.9220 C   0  0  0  0  0  0  0  0  0  0  0  0
   39.8830   25.9110   43.7320 N   0  0  0  0  0  0  0  0  0  0  0  0
   39.7050   27.7980   44.4000 H   0  0  0  0  0  0  0  0  0  0  0  0
   36.6350   26.5710   41.7200 H   0  0  0  0  0  0  0  0  0  0  0  0
   39.8260   23.9570   42.8710 H   0  0  0  0  0  0  0  0  0  0  0  0
   37.0730   32.2140   38.6120 O   0  0  0  0  0  0  0  0  0  0  0  0
   38.0830   30.0540   37.4320 O   0  0  0  0  0  0  0  0  0  0  0  0
   38.3460   31.4940   37.7580 P   0  0  1  0  0  0  0  0  0  0  0  0
   38.6000   32.3330   36.3070 O   0  0  0  0  0  0  0  0  0  0  0  0
   38.5370   33.3210   36.4490 H   0  0  0  0  0  0  0  0  0  0  0  0
   39.7730   31.6470   38.6650 O   0  0  0  0  0  0  0  0  0  0  0  0
   41.5670   33.2830   38.6020 C   0  0  1  0  0  3  0  0  0  0  0  0
   40.6760   32.3380   37.8680 C   0  0  1  0  0  3  0  0  0  0  0  0
   41.4590   31.5070   37.0980 O   0  0  0  0  0  0  0  0  0  0  0  0
   42.7410   31.9880   37.0640 C   0  0  0  0  0  2  0  0  0  0  0  0
   42.7220   33.3940   37.6280 C   0  0  1  0  0  3  0  0  0  0  0  0
   40.9810   34.5140   38.8600 O   0  0  0  0  0  0  0  0  0  0  0  0
   40.9250   35.1110   38.0720 H   0  0  0  0  0  0  0  0  0  0  0  0
   42.4030   34.2630   36.5840 O   0  0  0  0  0  0  0  0  0  0  0  0
   41.8650   33.8140   35.8830 H   0  0  0  0  0  0  0  0  0  0  0  0
  1  2  1  0  0  0  0
  1  3  1  0  0  0  0
  1  5  1  0  0  0  0
  4  6  1  0  0  0  0
  5  4  2  0  0  0  0
  6  7  1  0  0  0  0
  7  8  1  0  0  0  0
  7  9  1  0  0  0  0
 10 16  1  0  0  0  0
 11  7  1  0  0  0  0
 11 10  2  0  0  0  0
 12 11  1  0  0  0  0
 13 12  2  0  0  0  0
 13 14  1  0  0  0  0
 14 15  2  0  0  0  0
 15 10  1  0  0  0  0
 17 12  1  0  0  0  0
 18 14  1  0  0  0  0
 19  1  1  0  0  0  0
 21 20  2  6  0  0  0
 21 19  1  0  0  0  0
 21 24  1  0  0  0  0
 22 23  1  0  0  0  0
 22 21  1  0  0  0  0
 25 30  1  6  0  0  0
 26 25  1  0  0  0  0
 26 24  1  1  0  0  0
 27 26  1  0  0  0  0
 28 27  1  0  0  0  0
 28 29  1  0  0  0  0
 29 32  1  6  0  0  0
 29 25  1  0  0  0  0
 31 30  1  0  0  0  0
 33 32  1  0  0  0  0
M  END
>  <minimizedAffinity>
-5.71837711

$$$$

 OpenBabel03252504313D

 33 34  0  0  1  0  0  0  0  0999 V2000
   36.9600   31.5430   40.4820 C   0  0  0  0  0  0  0  0  0  0  0  0
   36.2150   32.3440   40.7200 H   0  0  0  0  0  0  0  0  0  0  0  0
   36.8070   31.1910   39.4420 H   0  0  0  0  0  0  0  0  0  0  0  0
   36.8700   29.0520   41.0340 C   0  0  0  0  0  3  0  0  0  0  0  0
   36.7020   30.3390   41.3780 C   0  0  0  0  0  3  0  0  0  0  0  0
   36.5820   28.1080   42.0040 O   0  0  0  0  0  0  0  0  0  0  0  0
   37.2140   27.9490   43.2210 C   0  0  0  0  0  0  0  0  0  0  0  0
   37.7900   28.9030   43.4090 H   0  0  0  0  0  0  0  0  0  0  0  0
   36.4940   27.7860   44.0210 H   0  0  0  0  0  0  0  0  0  0  0  0
   37.8520   25.7740   42.4180 C   0  0  0  0  0  0  0  0  0  0  0  0
   38.2220   26.8650   43.2290 C   0  0  0  0  0  0  0  0  0  0  0  0
   39.4150   26.7720   43.8820 C   0  0  0  0  0  0  0  0  0  0  0  0
   40.1290   25.6630   43.7020 N   0  0  0  0  0  0  0  0  0  0  0  0
   39.7860   24.6380   42.9440 C   0  0  0  0  0  0  0  0  0  0  0  0
   38.5790   24.6590   42.2430 N   0  0  0  0  0  0  0  0  0  0  0  0
   36.9180   25.7140   41.8350 H   0  0  0  0  0  0  0  0  0  0  0  0
   39.6360   27.6410   44.4840 H   0  0  0  0  0  0  0  0  0  0  0  0
   40.4220   23.7630   42.8450 H   0  0  0  0  0  0  0  0  0  0  0  0
   38.2650   31.9090   40.6580 O   0  0  0  0  0  0  0  0  0  0  0  0
   37.4330   34.1070   39.4120 O   0  0  0  0  0  0  0  0  0  0  0  0
   38.5450   33.5240   40.2330 P   0  0  1  0  0  0  0  0  0  0  0  0
   38.7180   34.4560   41.6380 O   0  0  0  0  0  0  0  0  0  0  0  0
   39.2670   33.9750   42.3210 H   0  0  0  0  0  0  0  0  0  0  0  0
   40.0180   33.6260   39.3970 O   0  0  0  0  0  0  0  0  0  0  0  0
   40.6130   32.3440   37.4210 C   0  0  1  0  0  3  0  0  0  0  0  0
   40.2620   32.3640   38.8710 C   0  0  1  0  0  3  0  0  0  0  0  0
   41.2280   31.6700   39.5640 O   0  0  0  0  0  0  0  0  0  0  0  0
   42.0250   30.9890   38.6820 C   0  0  0  0  0  2  0  0  0  0  0  0
   41.3480   31.0230   37.3280 C   0  0  1  0  0  3  0  0  0  0  0  0
   39.5100   32.3890   36.5810 O   0  0  0  0  0  0  0  0  0  0  0  0
   39.0120   31.5350   36.5160 H   0  0  0  0  0  0  0  0  0  0  0  0
   40.4440   29.9600   37.2820 O   0  0  0  0  0  0  0  0  0  0  0  0
   40.1240   29.7100   38.1860 H   0  0  0  0  0  0  0  0  0  0  0  0
  1 19  1  0  0  0  0
  1  2  1  0  0  0  0
  1  5  1  0  0  0  0
  3  1  1  0  0  0  0
  4  5  2  0  0  0  0
  4  6  1  0  0  0  0
  6  7  1  0  0  0  0
  7 11  1  0  0  0  0
  7  8  1  0  0  0  0
  7  9  1  0  0  0  0
 10 11  1  0  0  0  0
 11 12  2  0  0  0  0
 12 17  1  0  0  0  0
 13 12  1  0  0  0  0
 14 13  2  0  0  0  0
 15 10  2  0  0  0  0
 15 14  1  0  0  0  0
 16 10  1  0  0  0  0
 18 14  1  0  0  0  0
 21 20  2  6  0  0  0
 21 19  1  0  0  0  0
 21 22  1  0  0  0  0
 22 23  1  0  0  0  0
 24 21  1  0  0  0  0
 25 30  1  6  0  0  0
 25 26  1  0  0  0  0
 26 24  1  1  0  0  0
 26 27  1  0  0  0  0
 28 27  1  0  0  0  0
 29 32  1  1  0  0  0
 29 25  1  0  0  0  0
 29 28  1  0  0  0  0
 31 30  1  0  0  0  0
 32 33  1  0  0  0  0
M  END
>  <minimizedAffinity>
-5.62669039

$$$$

 OpenBabel03252504313D

 33 34  0  0  1  0  0  0  0  0999 V2000
   37.1040   31.5300   40.5940 C   0  0  0  0  0  0  0  0  0  0  0  0
   36.1560   32.0230   40.9270 H   0  0  0  0  0  0  0  0  0  0  0  0
   37.1400   31.5040   39.4860 H   0  0  0  0  0  0  0  0  0  0  0  0
   36.0520   29.2410   41.0080 C   0  0  0  0  0  3  0  0  0  0  0  0
   37.1010   30.0780   41.0510 C   0  0  0  0  0  3  0  0  0  0  0  0
   36.2650   27.9550   41.4710 O   0  0  0  0  0  0  0  0  0  0  0  0
   36.5720   27.5790   42.7640 C   0  0  0  0  0  0  0  0  0  0  0  0
   36.8950   28.5190   43.3010 H   0  0  0  0  0  0  0  0  0  0  0  0
   35.7080   27.1450   43.2630 H   0  0  0  0  0  0  0  0  0  0  0  0
   38.7520   27.1450   43.6800 C   0  0  0  0  0  0  0  0  0  0  0  0
   37.7210   26.6500   42.8560 C   0  0  0  0  0  0  0  0  0  0  0  0
   37.9200   25.4310   42.2830 C   0  0  0  0  0  0  0  0  0  0  0  0
   39.0680   24.8080   42.5460 N   0  0  0  0  0  0  0  0  0  0  0  0
   40.0360   25.2670   43.3160 C   0  0  0  0  0  0  0  0  0  0  0  0
   39.9060   26.5100   43.9390 N   0  0  0  0  0  0  0  0  0  0  0  0
   38.7250   28.1140   44.2060 H   0  0  0  0  0  0  0  0  0  0  0  0
   37.0930   25.1130   41.6660 H   0  0  0  0  0  0  0  0  0  0  0  0
   40.9480   24.7010   43.4860 H   0  0  0  0  0  0  0  0  0  0  0  0
   38.2460   32.1060   41.0780 O   0  0  0  0  0  0  0  0  0  0  0  0
   37.4130   34.1020   39.5280 O   0  0  0  0  0  0  0  0  0  0  0  0
   38.5480   33.6210   40.3830 P   0  0  1  0  0  0  0  0  0  0  0  0
   38.8170   34.7610   41.6070 O   0  0  0  0  0  0  0  0  0  0  0  0
   39.3870   34.3780   42.3340 H   0  0  0  0  0  0  0  0  0  0  0  0
   39.9800   33.5330   39.4750 O   0  0  0  0  0  0  0  0  0  0  0  0
   41.7100   32.6190   40.9130 C   0  0  1  0  0  3  0  0  0  0  0  0
   41.0200   33.8160   40.3500 C   0  0  1  0  0  3  0  0  0  0  0  0
   41.9690   34.6510   39.8050 O   0  0  0  0  0  0  0  0  0  0  0  0
   43.2170   34.2380   40.1880 C   0  0  0  0  0  2  0  0  0  0  0  0
   43.0470   33.2200   41.2960 C   0  0  1  0  0  3  0  0  0  0  0  0
   41.0570   32.0620   42.0030 O   0  0  0  0  0  0  0  0  0  0  0  0
   41.1610   32.5720   42.8460 H   0  0  0  0  0  0  0  0  0  0  0  0
   42.9460   33.9190   42.5000 O   0  0  0  0  0  0  0  0  0  0  0  0
   42.5820   34.8320   42.3650 H   0  0  0  0  0  0  0  0  0  0  0  0
  1  2  1  0  0  0  0
  1  5  1  0  0  0  0
  1 19  1  0  0  0  0
  3  1  1  0  0  0  0
  4  5  2  0  0  0  0
  4  6  1  0  0  0  0
  6  7  1  0  0  0  0
  7 11  1  0  0  0  0
  7  9  1  0  0  0  0
  7  8  1  0  0  0  0
 10 15  1  0  0  0  0
 10 16  1  0  0  0  0
 11 10  2  0  0  0  0
 12 13  2  0  0  0  0
 12 11  1  0  0  0  0
 13 14  1  0  0  0  0
 14 18  1  0  0  0  0
 14 15  2  0  0  0  0
 17 12  1  0  0  0  0
 21 20  2  6  0  0  0
 21 19  1  0  0  0  0
 21 22  1  0  0  0  0
 22 23  1  0  0  0  0
 24 21  1  0  0  0  0
 25 29  1  0  0  0  0
 25 30  1  1  0  0  0
 26 24  1  6  0  0  0
 26 25  1  0  0  0  0
 27 28  1  0  0  0  0
 27 26  1  0  0  0  0
 28 29  1  0  0  0  0
 29 32  1  1  0  0  0
 30 31  1  0  0  0  0
 33 32  1  0  0  0  0
M  END
>  <minimizedAffinity>
-5.51330996

$$$$

 OpenBabel03252504313D

 33 34  0  0  1  0  0  0  0  0999 V2000
   37.6080   32.0820   38.4530 C   0  0  0  0  0  0  0  0  0  0  0  0
   36.7590   32.8070   38.3640 H   0  0  0  0  0  0  0  0  0  0  0  0
   37.9540   31.7890   37.4410 H   0  0  0  0  0  0  0  0  0  0  0  0
   36.1590   29.9880   38.6340 C   0  0  0  0  0  3  0  0  0  0  0  0
   37.1090   30.8060   39.1150 C   0  0  0  0  0  3  0  0  0  0  0  0
   35.8560   28.8730   39.3950 O   0  0  0  0  0  0  0  0  0  0  0  0
   35.5560   28.8440   40.7420 C   0  0  0  0  0  0  0  0  0  0  0  0
   35.5230   29.9210   41.0840 H   0  0  0  0  0  0  0  0  0  0  0  0
   34.5930   28.3690   40.9220 H   0  0  0  0  0  0  0  0  0  0  0  0
   37.2290   29.0930   42.4510 C   0  0  0  0  0  0  0  0  0  0  0  0
   36.5960   28.1940   41.5700 C   0  0  0  0  0  0  0  0  0  0  0  0
   37.0160   26.8980   41.6040 C   0  0  0  0  0  0  0  0  0  0  0  0
   37.9860   26.5890   42.4630 N   0  0  0  0  0  0  0  0  0  0  0  0
   38.5820   27.4280   43.2890 C   0  0  0  0  0  0  0  0  0  0  0  0
   38.2060   28.7720   43.3140 N   0  0  0  0  0  0  0  0  0  0  0  0
   36.9900   30.1670   42.5300 H   0  0  0  0  0  0  0  0  0  0  0  0
   36.4900   26.2650   40.9050 H   0  0  0  0  0  0  0  0  0  0  0  0
   39.3680   27.1020   43.9650 H   0  0  0  0  0  0  0  0  0  0  0  0
   38.6670   32.5350   39.1880 O   0  0  0  0  0  0  0  0  0  0  0  0
   40.5470   30.7460   38.6030 O   0  0  0  0  0  0  0  0  0  0  0  0
   40.1550   32.1860   38.4580 P   0  0  1  0  0  0  0  0  0  0  0  0
   40.0740   32.5550   36.8060 O   0  0  0  0  0  0  0  0  0  0  0  0
   39.5870   33.4160   36.6550 H   0  0  0  0  0  0  0  0  0  0  0  0
   41.3450   33.1970   39.1250 O   0  0  0  0  0  0  0  0  0  0  0  0
   43.2050   34.0820   37.8380 C   0  0  1  0  0  3  0  0  0  0  0  0
   42.5280   32.9070   38.4590 C   0  0  1  0  0  3  0  0  0  0  0  0
   43.4410   32.2440   39.2490 O   0  0  0  0  0  0  0  0  0  0  0  0
   44.6980   32.7240   38.9970 C   0  0  0  0  0  2  0  0  0  0  0  0
   44.6270   33.5700   37.7420 C   0  0  1  0  0  3  0  0  0  0  0  0
   42.6900   34.4280   36.5970 O   0  0  0  0  0  0  0  0  0  0  0  0
   42.9640   33.8260   35.8590 H   0  0  0  0  0  0  0  0  0  0  0  0
   44.7690   32.7140   36.6480 O   0  0  0  0  0  0  0  0  0  0  0  0
   44.4600   31.7960   36.8570 H   0  0  0  0  0  0  0  0  0  0  0  0
  1  5  1  0  0  0  0
  1 19  1  0  0  0  0
  2  1  1  0  0  0  0
  3  1  1  0  0  0  0
  4  5  2  0  0  0  0
  4  6  1  0  0  0  0
  6  7  1  0  0  0  0
  7  9  1  0  0  0  0
  7  8  1  0  0  0  0
  7 11  1  0  0  0  0
 10 16  1  0  0  0  0
 10 15  1  0  0  0  0
 11 12  1  0  0  0  0
 11 10  2  0  0  0  0
 12 13  2  0  0  0  0
 13 14  1  0  0  0  0
 14 15  2  0  0  0  0
 14 18  1  0  0  0  0
 17 12  1  0  0  0  0
 21 20  2  1  0  0  0
 21 24  1  0  0  0  0
 21 19  1  0  0  0  0
 22 21  1  0  0  0  0
 23 22  1  0  0  0  0
 25 30  1  6  0  0  0
 25 26  1  0  0  0  0
 26 24  1  1  0  0  0
 26 27  1  0  0  0  0
 28 27  1  0  0  0  0
 29 32  1  6  0  0  0
 29 25  1  0  0  0  0
 29 28  1  0  0  0  0
 31 30  1  0  0  0  0
 32 33  1  0  0  0  0
M  END
>  <minimizedAffinity>
-5.45849657

$$$$

 OpenBabel03252504313D

 33 34  0  0  1  0  0  0  0  0999 V2000
   36.2410   30.8450   40.8280 C   0  0  0  0  0  0  0  0  0  0  0  0
   35.2740   31.1620   41.2930 H   0  0  0  0  0  0  0  0  0  0  0  0
   36.0870   30.6490   39.7470 H   0  0  0  0  0  0  0  0  0  0  0  0
   37.5160   29.3730   42.4780 C   0  0  0  0  0  3  0  0  0  0  0  0
   36.6800   29.5210   41.4390 C   0  0  0  0  0  3  0  0  0  0  0  0
   37.7820   28.0760   42.8800 O   0  0  0  0  0  0  0  0  0  0  0  0
   36.9040   27.0110   42.8830 C   0  0  0  0  0  0  0  0  0  0  0  0
   36.7520   26.7260   43.9660 H   0  0  0  0  0  0  0  0  0  0  0  0
   35.9500   27.2860   42.4350 H   0  0  0  0  0  0  0  0  0  0  0  0
   38.7150   26.0030   41.6650 C   0  0  0  0  0  0  0  0  0  0  0  0
   37.4360   25.8000   42.2200 C   0  0  0  0  0  0  0  0  0  0  0  0
   36.8900   24.5600   42.0750 C   0  0  0  0  0  0  0  0  0  0  0  0
   37.6060   23.6460   41.4220 N   0  0  0  0  0  0  0  0  0  0  0  0
   38.8040   23.8320   40.9000 C   0  0  0  0  0  0  0  0  0  0  0  0
   39.4300   25.0760   41.0080 N   0  0  0  0  0  0  0  0  0  0  0  0
   39.2740   26.9530   41.7080 H   0  0  0  0  0  0  0  0  0  0  0  0
   35.9120   24.4740   42.5230 H   0  0  0  0  0  0  0  0  0  0  0  0
   39.3300   23.0370   40.3800 H   0  0  0  0  0  0  0  0  0  0  0  0
   37.2700   31.7300   40.9930 O   0  0  0  0  0  0  0  0  0  0  0  0
   37.1920   31.8600   38.3370 O   0  0  0  0  0  0  0  0  0  0  0  0
   37.6110   32.5940   39.5760 P   0  0  1  0  0  0  0  0  0  0  0  0
   36.8040   34.0840   39.6140 O   0  0  0  0  0  0  0  0  0  0  0  0
   36.8570   34.4960   40.5240 H   0  0  0  0  0  0  0  0  0  0  0  0
   39.2720   32.9400   39.5300 O   0  0  0  0  0  0  0  0  0  0  0  0
   40.5100   32.2760   37.5490 C   0  0  1  0  0  3  0  0  0  0  0  0
   39.8740   31.8950   38.8440 C   0  0  1  0  0  3  0  0  0  0  0  0
   40.8030   31.2170   39.6030 O   0  0  0  0  0  0  0  0  0  0  0  0
   41.8850   30.9000   38.8270 C   0  0  0  0  0  2  0  0  0  0  0  0
   41.5060   31.1470   37.3810 C   0  0  1  0  0  3  0  0  0  0  0  0
   39.6160   32.3440   36.4900 O   0  0  0  0  0  0  0  0  0  0  0  0
   39.3300   31.4630   36.1400 H   0  0  0  0  0  0  0  0  0  0  0  0
   40.8720   29.9970   36.9090 O   0  0  0  0  0  0  0  0  0  0  0  0
   40.4340   29.4920   37.6410 H   0  0  0  0  0  0  0  0  0  0  0  0
  1 19  1  0  0  0  0
  1  2  1  0  0  0  0
  1  5  1  0  0  0  0
  3  1  1  0  0  0  0
  4  6  1  0  0  0  0
  5  4  2  0  0  0  0
  6  7  1  0  0  0  0
  7  8  1  0  0  0  0
  9  7  1  0  0  0  0
 10 16  1  0  0  0  0
 10 11  1  0  0  0  0
 11  7  1  0  0  0  0
 12 11  2  0  0  0  0
 12 17  1  0  0  0  0
 13 12  1  0  0  0  0
 14 15  1  0  0  0  0
 14 13  2  0  0  0  0
 15 10  2  0  0  0  0
 18 14  1  0  0  0  0
 21 20  2  6  0  0  0
 21 22  1  0  0  0  0
 21 19  1  0  0  0  0
 22 23  1  0  0  0  0
 24 21  1  0  0  0  0
 25 30  1  6  0  0  0
 25 26  1  0  0  0  0
 26 24  1  1  0  0  0
 26 27  1  0  0  0  0
 28 27  1  0  0  0  0
 29 32  1  1  0  0  0
 29 25  1  0  0  0  0
 29 28  1  0  0  0  0
 31 30  1  0  0  0  0
 32 33  1  0  0  0  0
M  END
>  <minimizedAffinity>
-5.43570566

$$$$

 OpenBabel03252504313D

 33 34  0  0  1  0  0  0  0  0999 V2000
   35.9820   29.2100   38.8410 C   0  0  0  0  0  0  0  0  0  0  0  0
   34.9250   28.8970   38.6480 H   0  0  0  0  0  0  0  0  0  0  0  0
   36.6760   28.4620   38.4060 H   0  0  0  0  0  0  0  0  0  0  0  0
   36.3570   28.1110   41.1150 C   0  0  0  0  0  3  0  0  0  0  0  0
   36.2390   29.2020   40.3420 C   0  0  0  0  0  3  0  0  0  0  0  0
   36.5950   28.3270   42.4610 O   0  0  0  0  0  0  0  0  0  0  0  0
   37.2830   27.5000   43.3250 C   0  0  0  0  0  0  0  0  0  0  0  0
   36.9570   27.7860   44.3690 H   0  0  0  0  0  0  0  0  0  0  0  0
   37.0500   26.4530   43.1390 H   0  0  0  0  0  0  0  0  0  0  0  0
   39.4530   26.6280   43.8860 C   0  0  0  0  0  0  0  0  0  0  0  0
   38.7500   27.6970   43.2960 C   0  0  0  0  0  0  0  0  0  0  0  0
   39.4940   28.7250   42.7990 C   0  0  0  0  0  0  0  0  0  0  0  0
   40.8180   28.6360   42.9110 N   0  0  0  0  0  0  0  0  0  0  0  0
   41.4800   27.6360   43.4630 C   0  0  0  0  0  0  0  0  0  0  0  0
   40.7880   26.5460   43.9950 N   0  0  0  0  0  0  0  0  0  0  0  0
   38.9800   25.7340   44.3270 H   0  0  0  0  0  0  0  0  0  0  0  0
   38.8930   29.5080   42.3620 H   0  0  0  0  0  0  0  0  0  0  0  0
   42.5650   27.6320   43.5190 H   0  0  0  0  0  0  0  0  0  0  0  0
   36.3010   30.4570   38.3810 O   0  0  0  0  0  0  0  0  0  0  0  0
   38.3190   29.2510   37.1350 O   0  0  0  0  0  0  0  0  0  0  0  0
   37.8800   30.5350   37.7740 P   0  0  1  0  0  0  0  0  0  0  0  0
   37.9810   31.7700   36.6180 O   0  0  0  0  0  0  0  0  0  0  0  0
   37.4760   32.5810   36.9150 H   0  0  0  0  0  0  0  0  0  0  0  0
   38.9330   30.9620   39.0360 O   0  0  0  0  0  0  0  0  0  0  0  0
   38.1980   32.8320   40.4000 C   0  0  1  0  0  3  0  0  0  0  0  0
   38.8640   32.3430   39.1580 C   0  0  1  0  0  3  0  0  0  0  0  0
   40.0930   32.9540   39.0520 O   0  0  0  0  0  0  0  0  0  0  0  0
   40.1770   33.9760   39.9600 C   0  0  0  0  0  2  0  0  0  0  0  0
   38.7850   34.2240   40.5050 C   0  0  1  0  0  3  0  0  0  0  0  0
   36.8130   32.8550   40.3160 O   0  0  0  0  0  0  0  0  0  0  0  0
   36.4490   33.6010   39.7760 H   0  0  0  0  0  0  0  0  0  0  0  0
   38.1390   35.0980   39.6290 O   0  0  0  0  0  0  0  0  0  0  0  0
   38.4960   35.0250   38.7070 H   0  0  0  0  0  0  0  0  0  0  0  0
  1  5  1  0  0  0  0
  2  1  1  0  0  0  0
  3  1  1  0  0  0  0
  4  6  1  0  0  0  0
  5  4  2  0  0  0  0
  6  7  1  0  0  0  0
  7  8  1  0  0  0  0
  9  7  1  0  0  0  0
 10 15  1  0  0  0  0
 10 16  1  0  0  0  0
 11  7  1  0  0  0  0
 11 10  2  0  0  0  0
 12 13  2  0  0  0  0
 12 11  1  0  0  0  0
 13 14  1  0  0  0  0
 14 18  1  0  0  0  0
 14 15  2  0  0  0  0
 17 12  1  0  0  0  0
 19  1  1  0  0  0  0
 21 20  2  6  0  0  0
 21 19  1  0  0  0  0
 21 24  1  0  0  0  0
 22 23  1  0  0  0  0
 22 21  1  0  0  0  0
 25 30  1  6  0  0  0
 25 29  1  0  0  0  0
 26 24  1  1  0  0  0
 26 25  1  0  0  0  0
 27 26  1  0  0  0  0
 27 28  1  0  0  0  0
 28 29  1  0  0  0  0
 29 32  1  6  0  0  0
 31 30  1  0  0  0  0
 33 32  1  0  0  0  0
M  END
>  <minimizedAffinity>
-5.32820034

$$$$

 OpenBabel03252504313D

 33 34  0  0  1  0  0  0  0  0999 V2000
   37.0060   27.3620   41.3720 C   0  0  0  0  0  0  0  0  0  0  0  0
   36.2200   26.6320   41.0530 H   0  0  0  0  0  0  0  0  0  0  0  0
   37.6030   27.6730   40.4900 H   0  0  0  0  0  0  0  0  0  0  0  0
   38.7310   27.2730   43.2520 C   0  0  0  0  0  3  0  0  0  0  0  0
   37.9780   26.6700   42.3180 C   0  0  0  0  0  3  0  0  0  0  0  0
   39.5480   26.4550   44.0120 O   0  0  0  0  0  0  0  0  0  0  0  0
   40.1380   25.2720   43.6150 C   0  0  0  0  0  0  0  0  0  0  0  0
   40.2880   24.6600   44.5540 H   0  0  0  0  0  0  0  0  0  0  0  0
   39.5030   24.7300   42.9170 H   0  0  0  0  0  0  0  0  0  0  0  0
   41.4880   25.3380   41.6270 C   0  0  0  0  0  0  0  0  0  0  0  0
   41.4870   25.4460   43.0320 C   0  0  0  0  0  0  0  0  0  0  0  0
   42.6860   25.6870   43.6330 C   0  0  0  0  0  0  0  0  0  0  0  0
   43.7560   25.8010   42.8480 N   0  0  0  0  0  0  0  0  0  0  0  0
   43.7610   25.7000   41.5320 C   0  0  0  0  0  0  0  0  0  0  0  0
   42.5720   25.4530   40.8430 N   0  0  0  0  0  0  0  0  0  0  0  0
   40.5930   25.1450   41.0120 H   0  0  0  0  0  0  0  0  0  0  0  0
   42.6120   25.7580   44.7080 H   0  0  0  0  0  0  0  0  0  0  0  0
   44.6760   25.8050   40.9550 H   0  0  0  0  0  0  0  0  0  0  0  0
   36.5280   28.4680   42.0170 O   0  0  0  0  0  0  0  0  0  0  0  0
   36.9450   29.6670   39.6790 O   0  0  0  0  0  0  0  0  0  0  0  0
   36.8270   29.8960   41.1570 P   0  0  1  0  0  0  0  0  0  0  0  0
   35.5650   30.9940   41.4290 O   0  0  0  0  0  0  0  0  0  0  0  0
   35.2890   30.9910   42.3910 H   0  0  0  0  0  0  0  0  0  0  0  0
   38.2390   30.6170   41.7620 O   0  0  0  0  0  0  0  0  0  0  0  0
   38.5460   32.8490   40.8540 C   0  0  1  0  0  3  0  0  0  0  0  0
   38.7670   31.3790   40.7280 C   0  0  1  0  0  3  0  0  0  0  0  0
   40.1110   31.1560   40.5280 O   0  0  0  0  0  0  0  0  0  0  0  0
   40.7370   32.3430   40.2550 C   0  0  0  0  0  2  0  0  0  0  0  0
   39.6660   33.3780   39.9830 C   0  0  1  0  0  3  0  0  0  0  0  0
   37.2980   33.2640   40.4100 O   0  0  0  0  0  0  0  0  0  0  0  0
   37.2050   33.2910   39.4240 H   0  0  0  0  0  0  0  0  0  0  0  0
   39.3250   33.2870   38.6330 O   0  0  0  0  0  0  0  0  0  0  0  0
   39.4850   32.3760   38.2740 H   0  0  0  0  0  0  0  0  0  0  0  0
  1 19  1  0  0  0  0
  1  5  1  0  0  0  0
  2  1  1  0  0  0  0
  3  1  1  0  0  0  0
  4  6  1  0  0  0  0
  5  4  2  0  0  0  0
  7  6  1  0  0  0  0
  7  8  1  0  0  0  0
  9  7  1  0  0  0  0
 10 11  1  0  0  0  0
 11  7  1  0  0  0  0
 11 12  2  0  0  0  0
 12 17  1  0  0  0  0
 13 12  1  0  0  0  0
 14 13  2  0  0  0  0
 15 14  1  0  0  0  0
 15 10  2  0  0  0  0
 16 10  1  0  0  0  0
 18 14  1  0  0  0  0
 21 20  2  6  0  0  0
 21 22  1  0  0  0  0
 21 24  1  0  0  0  0
 21 19  1  0  0  0  0
 22 23  1  0  0  0  0
 25 30  1  6  0  0  0
 26 25  1  0  0  0  0
 26 24  1  1  0  0  0
 27 26  1  0  0  0  0
 28 27  1  0  0  0  0
 29 32  1  6  0  0  0
 29 28  1  0  0  0  0
 29 25  1  0  0  0  0
 31 30  1  0  0  0  0
 33 32  1  0  0  0  0
M  END
>  <minimizedAffinity>
-5.16803646

$$$$

 OpenBabel03252504313D

 33 34  0  0  1  0  0  0  0  0999 V2000
   37.2120   28.0750   41.6830 C   0  0  0  0  0  0  0  0  0  0  0  0
   38.2050   28.5510   41.4810 H   0  0  0  0  0  0  0  0  0  0  0  0
   36.9070   28.2820   42.7300 H   0  0  0  0  0  0  0  0  0  0  0  0
   37.0790   25.6760   42.5450 C   0  0  0  0  0  3  0  0  0  0  0  0
   37.3500   26.5620   41.5740 C   0  0  0  0  0  3  0  0  0  0  0  0
   37.2690   24.3400   42.2350 O   0  0  0  0  0  0  0  0  0  0  0  0
   38.2180   23.8130   41.3830 C   0  0  0  0  0  0  0  0  0  0  0  0
   38.5820   24.6700   40.7410 H   0  0  0  0  0  0  0  0  0  0  0  0
   39.0510   23.3840   41.9360 H   0  0  0  0  0  0  0  0  0  0  0  0
   36.4470   23.2030   39.8750 C   0  0  0  0  0  0  0  0  0  0  0  0
   37.6770   22.8090   40.4390 C   0  0  0  0  0  0  0  0  0  0  0  0
   38.1770   21.6040   40.0480 C   0  0  0  0  0  0  0  0  0  0  0  0
   37.4660   20.8990   39.1700 N   0  0  0  0  0  0  0  0  0  0  0  0
   36.3130   21.2630   38.6400 C   0  0  0  0  0  0  0  0  0  0  0  0
   35.7360   22.4850   38.9910 N   0  0  0  0  0  0  0  0  0  0  0  0
   35.9280   24.1500   40.1000 H   0  0  0  0  0  0  0  0  0  0  0  0
   39.1200   21.3650   40.5170 H   0  0  0  0  0  0  0  0  0  0  0  0
   35.7880   20.6340   37.9270 H   0  0  0  0  0  0  0  0  0  0  0  0
   36.2140   28.4550   40.8300 O   0  0  0  0  0  0  0  0  0  0  0  0
   35.8190   30.2970   38.9520 O   0  0  0  0  0  0  0  0  0  0  0  0
   36.3740   30.0630   40.3260 P   0  0  1  0  0  0  0  0  0  0  0  0
   35.5630   31.0800   41.4120 O   0  0  0  0  0  0  0  0  0  0  0  0
   35.7200   30.7930   42.3570 H   0  0  0  0  0  0  0  0  0  0  0  0
   38.0150   30.4970   40.3850 O   0  0  0  0  0  0  0  0  0  0  0  0
   39.4180   32.4490   40.7270 C   0  0  1  0  0  3  0  0  0  0  0  0
   38.0560   31.8420   40.7260 C   0  0  1  0  0  3  0  0  0  0  0  0
   37.2310   32.6200   39.9450 O   0  0  0  0  0  0  0  0  0  0  0  0
   37.8580   33.8030   39.6540 C   0  0  0  0  0  2  0  0  0  0  0  0
   39.0740   33.9140   40.5500 C   0  0  1  0  0  3  0  0  0  0  0  0
   40.1300   32.2180   41.8950 O   0  0  0  0  0  0  0  0  0  0  0  0
   39.8380   32.7670   42.6660 H   0  0  0  0  0  0  0  0  0  0  0  0
   38.6570   34.4710   41.7600 O   0  0  0  0  0  0  0  0  0  0  0  0
   37.7020   34.2750   41.9450 H   0  0  0  0  0  0  0  0  0  0  0  0
  1  3  1  0  0  0  0
  2  1  1  0  0  0  0
  5  1  1  0  0  0  0
  5  4  2  0  0  0  0
  6  4  1  0  0  0  0
  7  9  1  0  0  0  0
  7  6  1  0  0  0  0
  8  7  1  0  0  0  0
 10 16  1  0  0  0  0
 10 11  1  0  0  0  0
 11  7  1  0  0  0  0
 12 11  2  0  0  0  0
 12 17  1  0  0  0  0
 13 12  1  0  0  0  0
 14 15  1  0  0  0  0
 14 13  2  0  0  0  0
 15 10  2  0  0  0  0
 18 14  1  0  0  0  0
 19  1  1  0  0  0  0
 21 20  2  6  0  0  0
 21 24  1  0  0  0  0
 21 19  1  0  0  0  0
 21 22  1  0  0  0  0
 22 23  1  0  0  0  0
 25 30  1  1  0  0  0
 26 24  1  6  0  0  0
 26 25  1  0  0  0  0
 27 26  1  0  0  0  0
 28 27  1  0  0  0  0
 28 29  1  0  0  0  0
 29 25  1  0  0  0  0
 29 32  1  1  0  0  0
 30 31  1  0  0  0  0
 32 33  1  0  0  0  0
M  END
>  <minimizedAffinity>
-5.12952328

$$$$

 OpenBabel03252504313D

 33 34  0  0  1  0  0  0  0  0999 V2000
   37.1660   28.1050   43.2040 C   0  0  0  0  0  0  0  0  0  0  0  0
   36.3770   27.9780   43.9890 H   0  0  0  0  0  0  0  0  0  0  0  0
   36.8860   27.5280   42.3000 H   0  0  0  0  0  0  0  0  0  0  0  0
   39.2850   26.6960   43.0040 C   0  0  0  0  0  3  0  0  0  0  0  0
   38.4710   27.5020   43.7040 C   0  0  0  0  0  3  0  0  0  0  0  0
   40.4290   26.2600   43.6480 O   0  0  0  0  0  0  0  0  0  0  0  0
   41.4960   27.0330   44.0590 C   0  0  0  0  0  0  0  0  0  0  0  0
   41.0770   27.7980   44.7780 H   0  0  0  0  0  0  0  0  0  0  0  0
   42.2520   26.4300   44.5590 H   0  0  0  0  0  0  0  0  0  0  0  0
   42.0140   29.2040   43.1630 C   0  0  0  0  0  0  0  0  0  0  0  0
   42.1220   27.8120   42.9670 C   0  0  0  0  0  0  0  0  0  0  0  0
   42.7650   27.3960   41.8400 C   0  0  0  0  0  0  0  0  0  0  0  0
   43.2370   28.3330   41.0200 N   0  0  0  0  0  0  0  0  0  0  0  0
   43.1370   29.6370   41.1990 C   0  0  0  0  0  0  0  0  0  0  0  0
   42.4920   30.1420   42.3300 N   0  0  0  0  0  0  0  0  0  0  0  0
   41.5210   29.6790   44.0280 H   0  0  0  0  0  0  0  0  0  0  0  0
   42.8120   26.3210   41.7530 H   0  0  0  0  0  0  0  0  0  0  0  0
   43.5480   30.3440   40.4840 H   0  0  0  0  0  0  0  0  0  0  0  0
   37.4220   29.4030   42.8610 O   0  0  0  0  0  0  0  0  0  0  0  0
   36.2310   28.6140   40.6170 O   0  0  0  0  0  0  0  0  0  0  0  0
   36.8120   29.7980   41.3310 P   0  0  1  0  0  0  0  0  0  0  0  0
   35.6010   30.9740   41.4920 O   0  0  0  0  0  0  0  0  0  0  0  0
   35.8620   31.6670   42.1650 H   0  0  0  0  0  0  0  0  0  0  0  0
   38.0520   30.4990   40.4090 O   0  0  0  0  0  0  0  0  0  0  0  0
   39.4210   32.4910   40.6500 C   0  0  1  0  0  3  0  0  0  0  0  0
   38.0780   31.8470   40.7410 C   0  0  1  0  0  3  0  0  0  0  0  0
   37.1840   32.5980   40.0120 O   0  0  0  0  0  0  0  0  0  0  0  0
   37.7580   33.7950   39.6760 C   0  0  0  0  0  2  0  0  0  0  0  0
   39.0260   33.9450   40.4900 C   0  0  1  0  0  3  0  0  0  0  0  0
   40.2130   32.2860   41.7710 O   0  0  0  0  0  0  0  0  0  0  0  0
   39.9570   32.8310   42.5570 H   0  0  0  0  0  0  0  0  0  0  0  0
   38.6730   34.4970   41.7230 O   0  0  0  0  0  0  0  0  0  0  0  0
   37.7380   34.2770   41.9700 H   0  0  0  0  0  0  0  0  0  0  0  0
  1  5  1  0  0  0  0
  1  2  1  0  0  0  0
  3  1  1  0  0  0  0
  4  6  1  0  0  0  0
  4  5  2  0  0  0  0
  6  7  1  0  0  0  0
  7  9  1  0  0  0  0
  7  8  1  0  0  0  0
 10 16  1  0  0  0  0
 11 10  1  0  0  0  0
 11  7  1  0  0  0  0
 12 11  2  0  0  0  0
 13 14  2  0  0  0  0
 13 12  1  0  0  0  0
 14 15  1  0  0  0  0
 15 10  2  0  0  0  0
 17 12  1  0  0  0  0
 18 14  1  0  0  0  0
 19  1  1  0  0  0  0
 21 20  2  6  0  0  0
 21 22  1  0  0  0  0
 21 19  1  0  0  0  0
 22 23  1  0  0  0  0
 24 21  1  0  0  0  0
 25 26  1  0  0  0  0
 25 30  1  1  0  0  0
 26 24  1  6  0  0  0
 27 26  1  0  0  0  0
 28 27  1  0  0  0  0
 28 29  1  0  0  0  0
 29 25  1  0  0  0  0
 29 32  1  1  0  0  0
 30 31  1  0  0  0  0
 32 33  1  0  0  0  0
M  END
>  <minimizedAffinity>
-5.08761406

$$$$
