
 OpenBabel03242512083D

 33 35  0  0  1  0  0  0  0  0999 V2000
   48.2200   34.5750   41.2350 C   0  0  1  0  0  0  0  0  0  0  0  0
   48.8620   35.9250   41.7500 C   0  0  0  0  0  0  0  0  0  0  0  0
   49.1290   34.6210   42.3760 C   0  0  2  0  0  0  0  0  0  0  0  0
   48.6150   34.2700   40.2540 H   0  0  0  0  0  0  0  0  0  0  0  0
   49.5940   36.3760   41.0630 H   0  0  0  0  0  0  0  0  0  0  0  0
   48.1880   36.5910   42.3270 H   0  0  0  0  0  0  0  0  0  0  0  0
   48.6550   34.1830   43.2700 H   0  0  0  0  0  0  0  0  0  0  0  0
   46.7450   34.5510   41.4480 C   0  0  0  0  0  0  0  0  0  0  0  0
   46.0380   34.3140   40.4740 O   0  0  0  0  0  0  0  0  0  0  0  0
   45.4050   35.9040   42.9870 C   0  0  0  0  0  0  0  0  0  0  0  0
   46.1050   34.7810   42.7000 C   0  0  0  0  0  0  0  0  0  0  0  0
   46.1890   33.7870   43.7160 C   0  0  0  0  0  0  0  0  0  0  0  0
   45.5920   33.9770   44.9070 N   0  0  0  0  0  0  0  0  0  0  0  0
   44.8930   35.1310   45.1550 C   0  0  0  0  0  0  0  0  0  0  0  0
   44.8130   36.0550   44.2100 N   0  0  0  0  0  0  0  0  0  0  0  0
   45.3560   36.6340   42.2080 H   0  0  0  0  0  0  0  0  0  0  0  0
   46.7100   32.8500   43.6140 H   0  0  0  0  0  0  0  0  0  0  0  0
   44.4470   35.1950   46.1370 H   0  0  0  0  0  0  0  0  0  0  0  0
   50.4500   34.2030   42.2390 O   0  0  0  0  0  0  0  0  0  0  0  0
   49.1330   32.0400   42.7530 O   0  0  0  0  0  0  0  0  0  0  0  0
   50.4020   32.5130   42.0640 P   0  0  2  0  0  0  0  0  0  0  0  0
   51.7550   31.7410   42.6420 O   0  0  0  0  0  0  0  0  0  0  0  0
   52.5380   32.3330   42.4850 H   0  0  0  0  0  0  0  0  0  0  0  0
   50.1430   32.1650   40.3920 O   0  0  0  0  0  0  0  0  0  0  0  0
   51.3970   31.3440   38.4980 C   0  0  2  0  0  0  0  0  0  0  0  0
   51.2580   31.4450   40.0010 C   0  0  2  0  0  0  0  0  0  0  0  0
   51.2180   30.1430   40.4810 O   0  0  0  0  0  0  0  0  0  0  0  0
   51.7360   29.3060   39.5300 C   0  0  0  0  0  0  0  0  0  0  0  0
   52.3280   30.1480   38.4180 C   0  0  1  0  0  0  0  0  0  0  0  0
   51.9430   32.4780   37.9370 O   0  0  0  0  0  0  0  0  0  0  0  0
   51.9130   32.3270   36.9470 H   0  0  0  0  0  0  0  0  0  0  0  0
   52.2410   29.5100   37.1860 O   0  0  0  0  0  0  0  0  0  0  0  0
   51.3950   28.9580   37.1930 H   0  0  0  0  0  0  0  0  0  0  0  0
  1  4  1  6  0  0  0
  1  8  1  0  0  0  0
  1  2  1  0  0  0  0
  1  3  1  0  0  0  0
  2  6  1  0  0  0  0
  2  3  1  0  0  0  0
  3  7  1  1  0  0  0
  5  2  1  0  0  0  0
  8 11  1  0  0  0  0
  9  8  2  0  0  0  0
 10 15  1  0  0  0  0
 11 10  2  0  0  0  0
 11 12  1  0  0  0  0
 12 13  2  0  0  0  0
 13 14  1  0  0  0  0
 14 18  1  0  0  0  0
 15 14  2  0  0  0  0
 16 10  1  0  0  0  0
 17 12  1  0  0  0  0
 19  3  1  0  0  0  0
 21 19  1  0  0  0  0
 21 22  1  0  0  0  0
 21 20  2  1  0  0  0
 23 22  1  0  0  0  0
 24 21  1  0  0  0  0
 25 30  1  1  0  0  0
 25 26  1  0  0  0  0
 26 24  1  6  0  0  0
 26 27  1  0  0  0  0
 28 27  1  0  0  0  0
 29 32  1  6  0  0  0
 29 25  1  0  0  0  0
 29 28  1  0  0  0  0
 31 30  1  0  0  0  0
 32 33  1  0  0  0  0
M  END
>  <minimizedAffinity>
-5.45558691

>  <minimizedRMSD>
1.27422297

$$$$
