
 OpenBabel03252506443D

 42 45  0  0  1  0  0  0  0  0999 V2000
   49.5260   33.5190   41.3730 N   0  0  1  0  0  0  0  0  0  0  0  0
   50.7190   33.0890   42.1000 C   0  0  0  0  0  0  0  0  0  0  0  0
   51.2670   31.7790   41.6100 C   0  0  0  0  0  0  0  0  0  0  0  0
   50.2740   30.6810   41.9590 C   0  0  0  0  0  0  0  0  0  0  0  0
   48.8640   31.1820   41.8110 C   0  0  0  0  0  0  0  0  0  0  0  0
   48.8440   32.3540   40.8640 C   0  0  2  0  0  0  0  0  0  0  0  0
   50.5240   32.9770   43.1740 H   0  0  0  0  0  0  0  0  0  0  0  0
   51.4810   33.8870   41.9920 H   0  0  0  0  0  0  0  0  0  0  0  0
   51.4730   31.7840   40.5190 H   0  0  0  0  0  0  0  0  0  0  0  0
   52.2170   31.6180   42.1370 H   0  0  0  0  0  0  0  0  0  0  0  0
   50.4830   30.2610   42.9600 H   0  0  0  0  0  0  0  0  0  0  0  0
   50.4480   29.8480   41.2320 H   0  0  0  0  0  0  0  0  0  0  0  0
   48.1500   30.4380   41.4660 H   0  0  0  0  0  0  0  0  0  0  0  0
   48.5860   31.5840   42.8270 H   0  0  0  0  0  0  0  0  0  0  0  0
   47.7650   32.6390   40.7600 H   0  0  0  0  0  0  0  0  0  0  0  0
   47.3750   34.7870   41.9730 C   0  0  1  0  0  0  0  0  0  0  0  0
   48.4850   35.7180   41.8180 C   0  0  0  0  0  0  0  0  0  0  0  0
   48.7820   34.3240   42.2720 C   0  0  2  0  0  0  0  0  0  0  0  0
   46.9330   34.2040   41.1300 H   0  0  0  0  0  0  0  0  0  0  0  0
   48.7520   35.9820   40.7570 H   0  0  0  0  0  0  0  0  0  0  0  0
   48.5740   36.5630   42.5310 H   0  0  0  0  0  0  0  0  0  0  0  0
   48.9850   34.2060   43.3570 H   0  0  0  0  0  0  0  0  0  0  0  0
   45.5530   36.0460   43.1660 C   0  0  0  0  0  0  0  0  0  0  0  0
   46.4200   34.9300   43.0990 C   0  0  0  0  0  0  0  0  0  0  0  0
   46.3410   33.9890   44.1230 C   0  0  0  0  0  0  0  0  0  0  0  0
   45.4430   34.1990   45.1130 N   0  0  0  0  0  0  0  0  0  0  0  0
   44.6280   35.2600   45.1610 C   0  0  0  0  0  0  0  0  0  0  0  0
   44.6740   36.2040   44.1810 N   0  0  0  0  0  0  0  0  0  0  0  0
   45.6510   36.7480   42.3520 H   0  0  0  0  0  0  0  0  0  0  0  0
   46.9830   33.1170   44.1180 H   0  0  0  0  0  0  0  0  0  0  0  0
   43.9410   35.3340   46.0040 H   0  0  0  0  0  0  0  0  0  0  0  0
   49.2990   31.9670   39.5600 N   0  0  0  0  0  0  0  0  0  0  0  0
   50.2220   32.3690   39.3560 H   0  0  0  0  0  0  0  0  0  0  0  0
   48.9550   32.0170   37.1400 C   0  0  2  0  0  3  0  0  0  0  0  0
   48.4000   32.3850   38.5130 C   0  0  2  0  0  3  0  0  0  0  0  0
   48.1960   33.7370   38.4700 O   0  0  0  0  0  0  0  0  0  0  0  0
   48.1110   34.1750   37.1740 C   0  0  0  0  0  2  0  0  0  0  0  0
   48.1450   32.9610   36.2730 C   0  0  1  0  0  3  0  0  0  0  0  0
   48.6950   30.6850   36.8350 O   0  0  0  0  0  0  0  0  0  0  0  0
   47.7560   30.5030   37.1020 H   0  0  0  0  0  0  0  0  0  0  0  0
   48.8590   33.2830   35.0970 O   0  0  0  0  0  0  0  0  0  0  0  0
   48.6160   34.1990   34.8160 H   0  0  0  0  0  0  0  0  0  0  0  0
  1  2  1  1  0  0  0
  1 18  1  0  0  0  0
  2  7  1  0  0  0  0
  3  4  1  0  0  0  0
  3  2  1  0  0  0  0
  3 10  1  0  0  0  0
  4 11  1  0  0  0  0
  5  4  1  0  0  0  0
  5 14  1  0  0  0  0
  6 15  1  6  0  0  0
  6  1  1  0  0  0  0
  6  5  1  0  0  0  0
  8  2  1  0  0  0  0
  9  3  1  0  0  0  0
 12  4  1  0  0  0  0
 13  5  1  0  0  0  0
 16 19  1  6  0  0  0
 16 18  1  0  0  0  0
 16 24  1  0  0  0  0
 17 16  1  0  0  0  0
 17 18  1  0  0  0  0
 17 21  1  0  0  0  0
 18 22  1  1  0  0  0
 20 17  1  0  0  0  0
 23 28  1  0  0  0  0
 24 23  2  0  0  0  0
 24 25  1  0  0  0  0
 25 26  2  0  0  0  0
 26 27  1  0  0  0  0
 27 31  1  0  0  0  0
 28 27  2  0  0  0  0
 29 23  1  0  0  0  0
 30 25  1  0  0  0  0
 32  6  1  0  0  0  0
 33 32  1  0  0  0  0
 34 39  1  6  0  0  0
 34 35  1  0  0  0  0
 35 32  1  1  0  0  0
 36 35  1  0  0  0  0
 37 36  1  0  0  0  0
 38 41  1  6  0  0  0
 38 34  1  0  0  0  0
 38 37  1  0  0  0  0
 39 40  1  0  0  0  0
 42 41  1  0  0  0  0
M  END
>  <minimizedAffinity>
-5.63831663

>  <minimizedRMSD>
2.46727061

$$$$
