
 OpenBabel03242521073D

 40 43  0  0  1  0  0  0  0  0999 V2000
   46.0980   32.6020   38.8790 C   0  0  2  0  0  0  0  0  0  0  0  0
   46.9870   31.5900   38.2620 C   0  0  0  0  0  0  0  0  0  0  0  0
   46.3790   32.7460   37.4620 C   0  0  1  0  0  0  0  0  0  0  0  0
   45.0480   32.2440   39.1150 H   0  0  0  0  0  0  0  0  0  0  0  0
   46.5530   30.6050   38.0030 H   0  0  0  0  0  0  0  0  0  0  0  0
   48.0610   31.5650   38.4570 H   0  0  0  0  0  0  0  0  0  0  0  0
   47.1950   33.3540   37.0290 H   0  0  0  0  0  0  0  0  0  0  0  0
   46.5590   34.6140   41.9300 C   0  0  0  0  0  0  0  0  0  0  0  0
   47.7660   35.1930   41.5880 C   0  0  0  0  0  0  0  0  0  0  0  0
   48.4490   34.9670   40.4130 C   0  0  0  0  0  0  0  0  0  0  0  0
   47.8860   34.0900   39.5020 C   0  0  0  0  0  0  0  0  0  0  0  0
   46.6920   33.5280   39.8610 C   0  0  0  0  0  0  0  0  0  0  0  0
   46.0750   33.7810   41.0040 N   0  0  0  0  0  0  0  0  0  0  0  0
   48.2260   35.8900   42.2970 H   0  0  0  0  0  0  0  0  0  0  0  0
   49.4030   35.4740   40.2310 H   0  0  0  0  0  0  0  0  0  0  0  0
   48.4180   33.9110   38.5850 H   0  0  0  0  0  0  0  0  0  0  0  0
   44.5100   36.1160   44.7070 C   0  0  0  0  0  0  0  0  0  0  0  0
   45.0950   36.0050   43.4430 C   0  0  0  0  0  0  0  0  0  0  0  0
   45.8750   34.8880   43.1940 C   0  0  0  0  0  0  0  0  0  0  0  0
   46.0320   33.9690   44.1680 N   0  0  0  0  0  0  0  0  0  0  0  0
   45.4400   34.1150   45.3930 C   0  0  0  0  0  0  0  0  0  0  0  0
   44.6910   35.1840   45.6410 N   0  0  0  0  0  0  0  0  0  0  0  0
   43.9090   37.0240   44.8310 H   0  0  0  0  0  0  0  0  0  0  0  0
   44.9890   36.7220   42.6460 H   0  0  0  0  0  0  0  0  0  0  0  0
   45.6060   33.3340   46.1400 H   0  0  0  0  0  0  0  0  0  0  0  0
   45.4210   32.3800   36.5030 O   0  0  0  0  0  0  0  0  0  0  0  0
   45.9510   30.6560   34.6940 O   0  0  0  0  0  0  0  0  0  0  0  0
   46.0760   32.1610   34.9670 P   0  0  1  0  0  0  0  0  0  0  0  0
   45.1480   32.9370   33.8120 O   0  0  0  0  0  0  0  0  0  0  0  0
   45.7500   33.1850   33.0660 H   0  0  0  0  0  0  0  0  0  0  0  0
   47.7160   32.5040   34.8590 O   0  0  0  0  0  0  0  0  0  0  0  0
   48.1920   32.0910   32.5400 C   0  0  2  0  0  0  0  0  0  0  0  0
   48.3800   31.6610   33.9720 C   0  0  1  0  0  0  0  0  0  0  0  0
   49.7270   31.5840   34.2170 O   0  0  0  0  0  0  0  0  0  0  0  0
   50.4370   31.7370   33.0580 C   0  0  0  0  0  0  0  0  0  0  0  0
   49.4700   31.5840   31.9020 C   0  0  2  0  0  0  0  0  0  0  0  0
   48.0600   33.4520   32.3890 O   0  0  0  0  0  0  0  0  0  0  0  0
   48.4820   33.9800   33.0980 H   0  0  0  0  0  0  0  0  0  0  0  0
   49.8420   32.3490   30.8060 O   0  0  0  0  0  0  0  0  0  0  0  0
   50.6830   32.8250   31.0590 H   0  0  0  0  0  0  0  0  0  0  0  0
  1  4  1  1  0  0  0
  1 12  1  0  0  0  0
  2  6  1  0  0  0  0
  2  1  1  0  0  0  0
  3  7  1  6  0  0  0
  3  2  1  0  0  0  0
  3  1  1  0  0  0  0
  5  2  1  0  0  0  0
  8 19  1  0  0  0  0
  9  8  1  0  0  0  0
  9 14  1  0  0  0  0
 10  9  2  0  0  0  0
 11 12  2  0  0  0  0
 11 10  1  0  0  0  0
 12 13  1  0  0  0  0
 13  8  2  0  0  0  0
 15 10  1  0  0  0  0
 16 11  1  0  0  0  0
 17 23  1  0  0  0  0
 17 22  1  0  0  0  0
 18 17  2  0  0  0  0
 19 18  1  0  0  0  0
 19 20  2  0  0  0  0
 20 21  1  0  0  0  0
 21 22  2  0  0  0  0
 21 25  1  0  0  0  0
 24 18  1  0  0  0  0
 26  3  1  0  0  0  0
 28 27  2  6  0  0  0
 28 26  1  0  0  0  0
 29 28  1  0  0  0  0
 30 29  1  0  0  0  0
 31 28  1  0  0  0  0
 32 37  1  1  0  0  0
 32 33  1  0  0  0  0
 33 34  1  0  0  0  0
 33 31  1  1  0  0  0
 35 34  1  0  0  0  0
 36 39  1  6  0  0  0
 36 32  1  0  0  0  0
 36 35  1  0  0  0  0
 37 38  1  0  0  0  0
 39 40  1  0  0  0  0
M  END
>  <minimizedAffinity>
-7.35987854

>  <minimizedRMSD>
0.422825873

$$$$
