
 OpenBabel03252506443D

 42 45  0  0  1  0  0  0  0  0999 V2000
   49.5400   33.5230   41.3900 N   0  0  1  0  0  0  0  0  0  0  0  0
   50.6930   33.0620   42.1600 C   0  0  0  0  0  0  0  0  0  0  0  0
   51.2280   31.7410   41.6850 C   0  0  0  0  0  0  0  0  0  0  0  0
   50.1970   30.6650   41.9910 C   0  0  0  0  0  0  0  0  0  0  0  0
   48.8050   31.2010   41.7920 C   0  0  0  0  0  0  0  0  0  0  0  0
   48.8500   32.3770   40.8500 C   0  0  2  0  0  0  0  0  0  0  0  0
   50.4550   32.9510   43.2260 H   0  0  0  0  0  0  0  0  0  0  0  0
   51.4780   33.8420   42.0860 H   0  0  0  0  0  0  0  0  0  0  0  0
   51.4750   31.7450   40.6020 H   0  0  0  0  0  0  0  0  0  0  0  0
   52.1530   31.5550   42.2470 H   0  0  0  0  0  0  0  0  0  0  0  0
   50.3570   30.2370   42.9970 H   0  0  0  0  0  0  0  0  0  0  0  0
   50.3780   29.8320   41.2670 H   0  0  0  0  0  0  0  0  0  0  0  0
   48.0870   30.4760   41.4160 H   0  0  0  0  0  0  0  0  0  0  0  0
   48.4980   31.6050   42.7990 H   0  0  0  0  0  0  0  0  0  0  0  0
   47.7820   32.6890   40.7070 H   0  0  0  0  0  0  0  0  0  0  0  0
   47.3620   34.7620   41.9570 C   0  0  1  0  0  0  0  0  0  0  0  0
   48.4500   35.7130   41.7640 C   0  0  0  0  0  0  0  0  0  0  0  0
   48.7820   34.3430   42.2650 C   0  0  2  0  0  0  0  0  0  0  0  0
   46.9300   34.1400   41.1370 H   0  0  0  0  0  0  0  0  0  0  0  0
   48.7060   35.9440   40.6920 H   0  0  0  0  0  0  0  0  0  0  0  0
   48.5230   36.5840   42.4450 H   0  0  0  0  0  0  0  0  0  0  0  0
   48.9920   34.2670   43.3520 H   0  0  0  0  0  0  0  0  0  0  0  0
   45.5580   36.0520   43.1450 C   0  0  0  0  0  0  0  0  0  0  0  0
   46.4090   34.9230   43.0830 C   0  0  0  0  0  0  0  0  0  0  0  0
   46.3170   33.9880   44.1100 C   0  0  0  0  0  0  0  0  0  0  0  0
   45.4220   34.2150   45.0990 N   0  0  0  0  0  0  0  0  0  0  0  0
   44.6230   35.2870   45.1440 C   0  0  0  0  0  0  0  0  0  0  0  0
   44.6810   36.2260   44.1600 N   0  0  0  0  0  0  0  0  0  0  0  0
   45.6660   36.7480   42.3280 H   0  0  0  0  0  0  0  0  0  0  0  0
   46.9470   33.1070   44.1090 H   0  0  0  0  0  0  0  0  0  0  0  0
   43.9370   35.3740   45.9850 H   0  0  0  0  0  0  0  0  0  0  0  0
   49.3450   31.9840   39.5630 N   0  0  0  0  0  0  0  0  0  0  0  0
   50.1780   32.5270   39.3060 H   0  0  0  0  0  0  0  0  0  0  0  0
   47.4690   33.3620   38.8110 C   0  0  2  0  0  3  0  0  0  0  0  0
   48.3690   32.1630   38.5160 C   0  0  2  0  0  3  0  0  0  0  0  0
   47.5190   31.1020   38.3680 O   0  0  0  0  0  0  0  0  0  0  0  0
   46.2500   31.5310   38.0820 C   0  0  0  0  0  2  0  0  0  0  0  0
   46.2980   33.0320   37.9080 C   0  0  1  0  0  3  0  0  0  0  0  0
   48.0850   34.5530   38.4450 O   0  0  0  0  0  0  0  0  0  0  0  0
   48.5060   34.4030   37.5600 H   0  0  0  0  0  0  0  0  0  0  0  0
   45.1050   33.5920   38.4240 O   0  0  0  0  0  0  0  0  0  0  0  0
   44.3470   33.0090   38.1760 H   0  0  0  0  0  0  0  0  0  0  0  0
  1  2  1  1  0  0  0
  1 18  1  0  0  0  0
  2  7  1  0  0  0  0
  3  4  1  0  0  0  0
  3  2  1  0  0  0  0
  3 10  1  0  0  0  0
  4 11  1  0  0  0  0
  5  4  1  0  0  0  0
  5 14  1  0  0  0  0
  6 15  1  6  0  0  0
  6  1  1  0  0  0  0
  6  5  1  0  0  0  0
  8  2  1  0  0  0  0
  9  3  1  0  0  0  0
 12  4  1  0  0  0  0
 13  5  1  0  0  0  0
 16 19  1  6  0  0  0
 16 18  1  0  0  0  0
 16 24  1  0  0  0  0
 17 16  1  0  0  0  0
 17 18  1  0  0  0  0
 17 21  1  0  0  0  0
 18 22  1  1  0  0  0
 20 17  1  0  0  0  0
 23 28  1  0  0  0  0
 24 23  2  0  0  0  0
 24 25  1  0  0  0  0
 25 26  2  0  0  0  0
 26 27  1  0  0  0  0
 27 31  1  0  0  0  0
 28 27  2  0  0  0  0
 29 23  1  0  0  0  0
 30 25  1  0  0  0  0
 32  6  1  0  0  0  0
 33 32  1  0  0  0  0
 34 39  1  6  0  0  0
 35 34  1  0  0  0  0
 35 32  1  1  0  0  0
 36 35  1  0  0  0  0
 37 36  1  0  0  0  0
 38 37  1  0  0  0  0
 38 41  1  1  0  0  0
 38 34  1  0  0  0  0
 40 39  1  0  0  0  0
 42 41  1  0  0  0  0
M  END
>  <minimizedAffinity>
-5.45179224

>  <minimizedRMSD>
2.86425948

$$$$
