
 OpenBabel03252506443D

 42 45  0  0  1  0  0  0  0  0999 V2000
   49.8310   33.5700   41.4240 N   0  0  1  0  0  0  0  0  0  0  0  0
   50.7160   32.8600   42.3460 C   0  0  0  0  0  0  0  0  0  0  0  0
   51.1910   31.5410   41.8060 C   0  0  0  0  0  0  0  0  0  0  0  0
   50.0010   30.5960   41.7240 C   0  0  0  0  0  0  0  0  0  0  0  0
   48.7630   31.3470   41.3140 C   0  0  0  0  0  0  0  0  0  0  0  0
   49.1580   32.6070   40.5870 C   0  0  2  0  0  0  0  0  0  0  0  0
   50.2270   32.6590   43.3080 H   0  0  0  0  0  0  0  0  0  0  0  0
   51.5800   33.5210   42.5550 H   0  0  0  0  0  0  0  0  0  0  0  0
   51.6800   31.6370   40.8140 H   0  0  0  0  0  0  0  0  0  0  0  0
   51.9340   31.1580   42.5180 H   0  0  0  0  0  0  0  0  0  0  0  0
   49.8750   30.0340   42.6670 H   0  0  0  0  0  0  0  0  0  0  0  0
   50.2480   29.8370   40.9400 H   0  0  0  0  0  0  0  0  0  0  0  0
   48.0740   30.7830   40.6910 H   0  0  0  0  0  0  0  0  0  0  0  0
   48.2810   31.6700   42.2810 H   0  0  0  0  0  0  0  0  0  0  0  0
   48.1950   33.0840   40.2680 H   0  0  0  0  0  0  0  0  0  0  0  0
   47.5480   34.6590   41.8710 C   0  0  1  0  0  0  0  0  0  0  0  0
   48.5580   35.6820   41.6280 C   0  0  0  0  0  0  0  0  0  0  0  0
   48.9910   34.3810   42.2290 C   0  0  2  0  0  0  0  0  0  0  0  0
   47.1850   33.9490   41.0900 H   0  0  0  0  0  0  0  0  0  0  0  0
   48.8170   35.8600   40.5470 H   0  0  0  0  0  0  0  0  0  0  0  0
   48.5460   36.6000   42.2490 H   0  0  0  0  0  0  0  0  0  0  0  0
   49.1840   34.3980   43.3210 H   0  0  0  0  0  0  0  0  0  0  0  0
   45.6740   35.9180   42.9810 C   0  0  0  0  0  0  0  0  0  0  0  0
   46.5630   34.8170   42.9690 C   0  0  0  0  0  0  0  0  0  0  0  0
   46.4750   33.9050   44.0180 C   0  0  0  0  0  0  0  0  0  0  0  0
   45.5480   34.1270   44.9780 N   0  0  0  0  0  0  0  0  0  0  0  0
   44.7140   35.1730   44.9750 C   0  0  0  0  0  0  0  0  0  0  0  0
   44.7670   36.0880   43.9690 N   0  0  0  0  0  0  0  0  0  0  0  0
   45.7800   36.5970   42.1490 H   0  0  0  0  0  0  0  0  0  0  0  0
   47.1330   33.0460   44.0540 H   0  0  0  0  0  0  0  0  0  0  0  0
   44.0040   35.2580   45.7970 H   0  0  0  0  0  0  0  0  0  0  0  0
   49.8880   32.3020   39.3910 N   0  0  0  0  0  0  0  0  0  0  0  0
   50.7120   32.9080   39.2960 H   0  0  0  0  0  0  0  0  0  0  0  0
   48.1470   33.6530   38.3310 C   0  0  2  0  0  3  0  0  0  0  0  0
   49.0900   32.4600   38.2000 C   0  0  2  0  0  3  0  0  0  0  0  0
   48.2810   31.3900   37.9320 O   0  0  0  0  0  0  0  0  0  0  0  0
   47.0720   31.8040   37.4420 C   0  0  0  0  0  2  0  0  0  0  0  0
   47.1370   33.3030   37.2570 C   0  0  1  0  0  3  0  0  0  0  0  0
   48.8060   34.8450   38.0520 O   0  0  0  0  0  0  0  0  0  0  0  0
   49.3650   34.6880   37.2470 H   0  0  0  0  0  0  0  0  0  0  0  0
   45.8750   33.8590   37.5680 O   0  0  0  0  0  0  0  0  0  0  0  0
   45.1690   33.2670   37.2110 H   0  0  0  0  0  0  0  0  0  0  0  0
  1 18  1  0  0  0  0
  1  2  1  1  0  0  0
  2  8  1  0  0  0  0
  2  7  1  0  0  0  0
  3  2  1  0  0  0  0
  3 10  1  0  0  0  0
  4  3  1  0  0  0  0
  4 11  1  0  0  0  0
  5  4  1  0  0  0  0
  5 14  1  0  0  0  0
  6 15  1  6  0  0  0
  6  5  1  0  0  0  0
  6  1  1  0  0  0  0
  9  3  1  0  0  0  0
 12  4  1  0  0  0  0
 13  5  1  0  0  0  0
 16 19  1  6  0  0  0
 16 18  1  0  0  0  0
 16 24  1  0  0  0  0
 17 16  1  0  0  0  0
 17 18  1  0  0  0  0
 17 21  1  0  0  0  0
 18 22  1  1  0  0  0
 20 17  1  0  0  0  0
 23 28  1  0  0  0  0
 24 23  2  0  0  0  0
 24 25  1  0  0  0  0
 25 30  1  0  0  0  0
 25 26  2  0  0  0  0
 27 26  1  0  0  0  0
 27 31  1  0  0  0  0
 28 27  2  0  0  0  0
 29 23  1  0  0  0  0
 32  6  1  0  0  0  0
 33 32  1  0  0  0  0
 34 39  1  6  0  0  0
 35 34  1  0  0  0  0
 35 32  1  1  0  0  0
 36 35  1  0  0  0  0
 37 36  1  0  0  0  0
 38 37  1  0  0  0  0
 38 41  1  1  0  0  0
 38 34  1  0  0  0  0
 40 39  1  0  0  0  0
 42 41  1  0  0  0  0
M  END
>  <minimizedAffinity>
-5.88761902

>  <minimizedRMSD>
3.06416416

$$$$
