
 OpenBabel03252506443D

 42 45  0  0  1  0  0  0  0  0999 V2000
   49.4490   33.4420   41.3240 N   0  0  1  0  0  0  0  0  0  0  0  0
   50.6870   33.0730   42.0070 C   0  0  0  0  0  0  0  0  0  0  0  0
   51.2440   31.7560   41.5440 C   0  0  0  0  0  0  0  0  0  0  0  0
   50.2980   30.6500   41.9880 C   0  0  0  0  0  0  0  0  0  0  0  0
   48.8690   31.1110   41.8900 C   0  0  0  0  0  0  0  0  0  0  0  0
   48.7730   32.2410   40.8980 C   0  0  2  0  0  0  0  0  0  0  0  0
   50.5480   33.0010   43.0940 H   0  0  0  0  0  0  0  0  0  0  0  0
   51.4220   33.8830   41.8290 H   0  0  0  0  0  0  0  0  0  0  0  0
   51.3950   31.7200   40.4450 H   0  0  0  0  0  0  0  0  0  0  0  0
   52.2220   31.6410   42.0300 H   0  0  0  0  0  0  0  0  0  0  0  0
   50.5660   30.2780   42.9940 H   0  0  0  0  0  0  0  0  0  0  0  0
   50.4570   29.7920   41.2880 H   0  0  0  0  0  0  0  0  0  0  0  0
   48.1590   30.3360   41.6120 H   0  0  0  0  0  0  0  0  0  0  0  0
   48.6310   31.5480   42.9020 H   0  0  0  0  0  0  0  0  0  0  0  0
   47.6820   32.4960   40.8370 H   0  0  0  0  0  0  0  0  0  0  0  0
   47.3290   34.7560   41.9360 C   0  0  1  0  0  0  0  0  0  0  0  0
   48.4560   35.6650   41.7670 C   0  0  0  0  0  0  0  0  0  0  0  0
   48.7290   34.2670   42.2260 C   0  0  2  0  0  0  0  0  0  0  0  0
   46.8680   34.1790   41.1000 H   0  0  0  0  0  0  0  0  0  0  0  0
   48.7200   35.9170   40.7020 H   0  0  0  0  0  0  0  0  0  0  0  0
   48.5690   36.5110   42.4750 H   0  0  0  0  0  0  0  0  0  0  0  0
   48.9390   34.1500   43.3090 H   0  0  0  0  0  0  0  0  0  0  0  0
   45.5430   36.0590   43.1390 C   0  0  0  0  0  0  0  0  0  0  0  0
   46.3870   34.9250   43.0700 C   0  0  0  0  0  0  0  0  0  0  0  0
   46.2980   33.9910   44.0990 C   0  0  0  0  0  0  0  0  0  0  0  0
   45.4120   34.2240   45.0950 N   0  0  0  0  0  0  0  0  0  0  0  0
   44.6210   35.3010   45.1460 C   0  0  0  0  0  0  0  0  0  0  0  0
   44.6770   36.2390   44.1610 N   0  0  0  0  0  0  0  0  0  0  0  0
   45.6480   36.7540   42.3200 H   0  0  0  0  0  0  0  0  0  0  0  0
   46.9220   33.1060   44.0930 H   0  0  0  0  0  0  0  0  0  0  0  0
   43.9420   35.3930   45.9930 H   0  0  0  0  0  0  0  0  0  0  0  0
   49.1730   31.8100   39.5900 N   0  0  0  0  0  0  0  0  0  0  0  0
   50.1430   32.0860   39.3900 H   0  0  0  0  0  0  0  0  0  0  0  0
   48.1040   31.3290   37.4440 C   0  0  2  0  0  3  0  0  0  0  0  0
   48.3400   32.3570   38.5480 C   0  0  2  0  0  3  0  0  0  0  0  0
   48.8830   33.4450   37.9200 O   0  0  0  0  0  0  0  0  0  0  0  0
   48.6080   33.4200   36.5790 C   0  0  0  0  0  2  0  0  0  0  0  0
   47.6820   32.2540   36.3190 C   0  0  1  0  0  3  0  0  0  0  0  0
   47.0930   30.4420   37.7920 O   0  0  0  0  0  0  0  0  0  0  0  0
   46.3600   30.9780   38.1910 H   0  0  0  0  0  0  0  0  0  0  0  0
   48.0040   31.6830   35.0660 O   0  0  0  0  0  0  0  0  0  0  0  0
   48.2060   32.4100   34.4270 H   0  0  0  0  0  0  0  0  0  0  0  0
  1  2  1  1  0  0  0
  1 18  1  0  0  0  0
  2  7  1  0  0  0  0
  3  4  1  0  0  0  0
  3  2  1  0  0  0  0
  3 10  1  0  0  0  0
  4 11  1  0  0  0  0
  5  4  1  0  0  0  0
  5 14  1  0  0  0  0
  6 15  1  6  0  0  0
  6  1  1  0  0  0  0
  6  5  1  0  0  0  0
  8  2  1  0  0  0  0
  9  3  1  0  0  0  0
 12  4  1  0  0  0  0
 13  5  1  0  0  0  0
 16 19  1  6  0  0  0
 16 18  1  0  0  0  0
 16 24  1  0  0  0  0
 17 16  1  0  0  0  0
 17 18  1  0  0  0  0
 17 21  1  0  0  0  0
 18 22  1  1  0  0  0
 20 17  1  0  0  0  0
 23 28  1  0  0  0  0
 24 23  2  0  0  0  0
 24 25  1  0  0  0  0
 25 26  2  0  0  0  0
 26 27  1  0  0  0  0
 27 31  1  0  0  0  0
 28 27  2  0  0  0  0
 29 23  1  0  0  0  0
 30 25  1  0  0  0  0
 32  6  1  0  0  0  0
 33 32  1  0  0  0  0
 34 39  1  1  0  0  0
 34 35  1  0  0  0  0
 35 32  1  1  0  0  0
 36 35  1  0  0  0  0
 37 36  1  0  0  0  0
 38 41  1  6  0  0  0
 38 37  1  0  0  0  0
 38 34  1  0  0  0  0
 39 40  1  0  0  0  0
 42 41  1  0  0  0  0
M  END
>  <minimizedAffinity>
-5.16300964

>  <minimizedRMSD>
2.21929693

$$$$
