
 OpenBabel03242512103D

 33 35  0  0  1  0  0  0  0  0999 V2000
   37.0810   28.5770   40.8270 C   0  0  1  0  0  0  0  0  0  0  0  0
   35.5130   28.7540   40.7340 C   0  0  0  0  0  0  0  0  0  0  0  0
   36.4540   29.8780   40.6230 C   0  0  2  0  0  0  0  0  0  0  0  0
   37.4950   28.0440   39.9570 H   0  0  0  0  0  0  0  0  0  0  0  0
   35.0540   28.3170   39.8340 H   0  0  0  0  0  0  0  0  0  0  0  0
   34.9630   28.6990   41.6960 H   0  0  0  0  0  0  0  0  0  0  0  0
   36.7660   30.5890   41.4070 H   0  0  0  0  0  0  0  0  0  0  0  0
   37.5070   28.1520   42.1900 C   0  0  0  0  0  0  0  0  0  0  0  0
   37.2800   28.9220   43.1180 O   0  0  0  0  0  0  0  0  0  0  0  0
   37.7720   25.7270   41.9700 C   0  0  0  0  0  0  0  0  0  0  0  0
   38.1550   26.9180   42.4880 C   0  0  0  0  0  0  0  0  0  0  0  0
   39.2690   26.9160   43.3740 C   0  0  0  0  0  0  0  0  0  0  0  0
   39.9020   25.7650   43.6710 N   0  0  0  0  0  0  0  0  0  0  0  0
   39.4800   24.5810   43.1230 C   0  0  0  0  0  0  0  0  0  0  0  0
   38.4430   24.5830   42.2990 N   0  0  0  0  0  0  0  0  0  0  0  0
   36.9320   25.7560   41.3080 H   0  0  0  0  0  0  0  0  0  0  0  0
   39.6760   27.7930   43.8490 H   0  0  0  0  0  0  0  0  0  0  0  0
   40.0480   23.7110   43.4180 H   0  0  0  0  0  0  0  0  0  0  0  0
   36.4600   30.4700   39.3630 O   0  0  0  0  0  0  0  0  0  0  0  0
   37.5760   32.2360   40.8840 O   0  0  0  0  0  0  0  0  0  0  0  0
   37.5690   31.7570   39.4420 P   0  0  2  0  0  0  0  0  0  0  0  0
   37.2460   32.9880   38.3730 O   0  0  0  0  0  0  0  0  0  0  0  0
   36.8580   32.5860   37.5500 H   0  0  0  0  0  0  0  0  0  0  0  0
   39.1490   31.1040   39.1940 O   0  0  0  0  0  0  0  0  0  0  0  0
   40.5580   32.0870   37.4970 C   0  0  2  0  0  3  0  0  0  0  0  0
   39.9390   32.1940   38.8720 C   0  0  2  0  0  3  0  0  0  0  0  0
   40.9890   32.3450   39.7670 O   0  0  0  0  0  0  0  0  0  0  0  0
   42.0960   32.7650   39.0800 C   0  0  0  0  0  2  0  0  0  0  0  0
   41.6870   33.0880   37.6580 C   0  0  1  0  0  3  0  0  0  0  0  0
   39.6830   32.4320   36.4900 O   0  0  0  0  0  0  0  0  0  0  0  0
   40.1730   32.2490   35.6360 H   0  0  0  0  0  0  0  0  0  0  0  0
   42.7190   32.8490   36.7580 O   0  0  0  0  0  0  0  0  0  0  0  0
   43.2510   32.0660   37.1110 H   0  0  0  0  0  0  0  0  0  0  0  0
  1  4  1  6  0  0  0
  1  8  1  0  0  0  0
  2  1  1  0  0  0  0
  2  6  1  0  0  0  0
  3  2  1  0  0  0  0
  3  1  1  0  0  0  0
  3  7  1  1  0  0  0
  5  2  1  0  0  0  0
  8 11  1  0  0  0  0
  8  9  2  0  0  0  0
 10 15  2  0  0  0  0
 10 11  1  0  0  0  0
 11 12  2  0  0  0  0
 12 13  1  0  0  0  0
 12 17  1  0  0  0  0
 14 18  1  0  0  0  0
 14 13  2  0  0  0  0
 15 14  1  0  0  0  0
 16 10  1  0  0  0  0
 19 21  1  0  0  0  0
 19  3  1  0  0  0  0
 21 20  2  1  0  0  0
 22 21  1  0  0  0  0
 23 22  1  0  0  0  0
 24 21  1  0  0  0  0
 25 30  1  6  0  0  0
 25 29  1  0  0  0  0
 25 26  1  0  0  0  0
 26 24  1  1  0  0  0
 26 27  1  0  0  0  0
 28 27  1  0  0  0  0
 29 32  1  6  0  0  0
 29 28  1  0  0  0  0
 31 30  1  0  0  0  0
 32 33  1  0  0  0  0
M  END
>  <minimizedAffinity>
-5.72288227

$$$$

 OpenBabel03242512103D

 33 35  0  0  1  0  0  0  0  0999 V2000
   37.9960   28.8340   41.1190 C   0  0  1  0  0  0  0  0  0  0  0  0
   36.4880   29.2450   41.3570 C   0  0  0  0  0  0  0  0  0  0  0  0
   37.6170   30.1480   41.6270 C   0  0  2  0  0  0  0  0  0  0  0  0
   38.2390   28.7260   40.0510 H   0  0  0  0  0  0  0  0  0  0  0  0
   35.8920   29.3530   40.4370 H   0  0  0  0  0  0  0  0  0  0  0  0
   36.0060   28.8150   42.2580 H   0  0  0  0  0  0  0  0  0  0  0  0
   38.1130   30.3520   42.5910 H   0  0  0  0  0  0  0  0  0  0  0  0
   38.4270   27.7600   42.0590 C   0  0  0  0  0  0  0  0  0  0  0  0
   38.9580   28.1080   43.1090 O   0  0  0  0  0  0  0  0  0  0  0  0
   37.1420   25.6770   42.1400 C   0  0  0  0  0  0  0  0  0  0  0  0
   38.2640   26.3640   41.8220 C   0  0  0  0  0  0  0  0  0  0  0  0
   39.3260   25.6340   41.2160 C   0  0  0  0  0  0  0  0  0  0  0  0
   39.1980   24.3150   40.9780 N   0  0  0  0  0  0  0  0  0  0  0  0
   38.0420   23.6600   41.3170 C   0  0  0  0  0  0  0  0  0  0  0  0
   37.0540   24.3380   41.8810 N   0  0  0  0  0  0  0  0  0  0  0  0
   36.3590   26.2480   42.5940 H   0  0  0  0  0  0  0  0  0  0  0  0
   40.2670   26.0610   40.9110 H   0  0  0  0  0  0  0  0  0  0  0  0
   38.0300   22.6030   41.0890 H   0  0  0  0  0  0  0  0  0  0  0  0
   37.6470   31.2590   40.7890 O   0  0  0  0  0  0  0  0  0  0  0  0
   39.7200   31.3900   42.3260 O   0  0  0  0  0  0  0  0  0  0  0  0
   39.1200   32.0520   41.0970 P   0  0  2  0  0  0  0  0  0  0  0  0
   38.9710   33.6970   41.2780 O   0  0  0  0  0  0  0  0  0  0  0  0
   38.2420   34.0070   40.6770 H   0  0  0  0  0  0  0  0  0  0  0  0
   40.2080   31.6540   39.8150 O   0  0  0  0  0  0  0  0  0  0  0  0
   41.0340   32.7210   37.8120 C   0  0  2  0  0  3  0  0  0  0  0  0
   40.5280   32.8660   39.2300 C   0  0  2  0  0  3  0  0  0  0  0  0
   41.5220   33.5270   39.9380 O   0  0  0  0  0  0  0  0  0  0  0  0
   42.3490   34.1600   39.0500 C   0  0  0  0  0  2  0  0  0  0  0  0
   41.7400   34.0560   37.6660 C   0  0  1  0  0  3  0  0  0  0  0  0
   40.0160   32.5570   36.8980 O   0  0  0  0  0  0  0  0  0  0  0  0
   40.4700   32.3950   36.0200 H   0  0  0  0  0  0  0  0  0  0  0  0
   42.7150   34.0170   36.6760 O   0  0  0  0  0  0  0  0  0  0  0  0
   43.5170   33.5400   37.0620 H   0  0  0  0  0  0  0  0  0  0  0  0
  1  4  1  6  0  0  0
  1  2  1  0  0  0  0
  1  3  1  0  0  0  0
  1  8  1  0  0  0  0
  2  3  1  0  0  0  0
  2  6  1  0  0  0  0
  3  7  1  1  0  0  0
  5  2  1  0  0  0  0
  8  9  2  0  0  0  0
 10 16  1  0  0  0  0
 11  8  1  0  0  0  0
 11 10  2  0  0  0  0
 12 11  1  0  0  0  0
 13 12  2  0  0  0  0
 13 14  1  0  0  0  0
 14 15  2  0  0  0  0
 15 10  1  0  0  0  0
 17 12  1  0  0  0  0
 18 14  1  0  0  0  0
 19 21  1  0  0  0  0
 19  3  1  0  0  0  0
 21 22  1  0  0  0  0
 21 20  2  1  0  0  0
 23 22  1  0  0  0  0
 24 21  1  0  0  0  0
 25 30  1  6  0  0  0
 25 26  1  0  0  0  0
 26 24  1  1  0  0  0
 26 27  1  0  0  0  0
 28 27  1  0  0  0  0
 29 32  1  6  0  0  0
 29 25  1  0  0  0  0
 29 28  1  0  0  0  0
 31 30  1  0  0  0  0
 32 33  1  0  0  0  0
M  END
>  <minimizedAffinity>
-5.71146774

$$$$

 OpenBabel03242512103D

 33 35  0  0  1  0  0  0  0  0999 V2000
   37.0390   26.4130   42.1200 C   0  0  1  0  0  0  0  0  0  0  0  0
   36.4530   27.0850   43.4250 C   0  0  0  0  0  0  0  0  0  0  0  0
   36.9720   27.8600   42.2890 C   0  0  2  0  0  0  0  0  0  0  0  0
   36.2630   25.9110   41.5220 H   0  0  0  0  0  0  0  0  0  0  0  0
   35.3680   26.9510   43.5620 H   0  0  0  0  0  0  0  0  0  0  0  0
   37.1120   27.0640   44.3170 H   0  0  0  0  0  0  0  0  0  0  0  0
   37.9710   28.3130   42.1700 H   0  0  0  0  0  0  0  0  0  0  0  0
   38.3060   25.6800   42.4000 C   0  0  0  0  0  0  0  0  0  0  0  0
   38.2330   24.4650   42.5560 O   0  0  0  0  0  0  0  0  0  0  0  0
   40.2730   26.4150   43.6600 C   0  0  0  0  0  0  0  0  0  0  0  0
   39.5890   26.2900   42.4980 C   0  0  0  0  0  0  0  0  0  0  0  0
   40.2060   26.8010   41.3210 C   0  0  0  0  0  0  0  0  0  0  0  0
   41.4200   27.3800   41.3830 N   0  0  0  0  0  0  0  0  0  0  0  0
   42.0760   27.4850   42.5820 C   0  0  0  0  0  0  0  0  0  0  0  0
   41.5030   27.0110   43.6780 N   0  0  0  0  0  0  0  0  0  0  0  0
   39.7880   26.0240   44.5300 H   0  0  0  0  0  0  0  0  0  0  0  0
   39.7720   26.7600   40.3350 H   0  0  0  0  0  0  0  0  0  0  0  0
   43.0440   27.9640   42.5350 H   0  0  0  0  0  0  0  0  0  0  0  0
   35.9930   28.5990   41.6310 O   0  0  0  0  0  0  0  0  0  0  0  0
   38.0160   30.1860   41.8850 O   0  0  0  0  0  0  0  0  0  0  0  0
   36.7580   30.0030   41.0530 P   0  0  2  0  0  0  0  0  0  0  0  0
   35.7890   31.3530   41.0730 O   0  0  0  0  0  0  0  0  0  0  0  0
   34.8560   31.0630   40.8870 H   0  0  0  0  0  0  0  0  0  0  0  0
   37.3380   29.6670   39.4600 O   0  0  0  0  0  0  0  0  0  0  0  0
   38.1800   31.5220   38.1640 C   0  0  2  0  0  3  0  0  0  0  0  0
   38.4060   30.5270   39.2800 C   0  0  2  0  0  3  0  0  0  0  0  0
   39.5690   29.8380   38.9650 O   0  0  0  0  0  0  0  0  0  0  0  0
   40.2800   30.5680   38.0510 C   0  0  0  0  0  2  0  0  0  0  0  0
   39.6190   31.9220   37.8970 C   0  0  1  0  0  3  0  0  0  0  0  0
   37.3960   32.5870   38.5500 O   0  0  0  0  0  0  0  0  0  0  0  0
   37.2540   33.1280   37.7190 H   0  0  0  0  0  0  0  0  0  0  0  0
   39.7830   32.4320   36.6140 O   0  0  0  0  0  0  0  0  0  0  0  0
   39.7950   31.6480   35.9780 H   0  0  0  0  0  0  0  0  0  0  0  0
  1  4  1  6  0  0  0
  1  3  1  0  0  0  0
  1  8  1  0  0  0  0
  1  2  1  0  0  0  0
  2  5  1  0  0  0  0
  2  6  1  0  0  0  0
  3  7  1  1  0  0  0
  3  2  1  0  0  0  0
  8 11  1  0  0  0  0
  8  9  2  0  0  0  0
 10 15  1  0  0  0  0
 10 16  1  0  0  0  0
 11 10  2  0  0  0  0
 12 13  2  0  0  0  0
 12 11  1  0  0  0  0
 13 14  1  0  0  0  0
 14 15  2  0  0  0  0
 17 12  1  0  0  0  0
 18 14  1  0  0  0  0
 19  3  1  0  0  0  0
 21 22  1  0  0  0  0
 21 19  1  0  0  0  0
 21 20  2  1  0  0  0
 23 22  1  0  0  0  0
 24 21  1  0  0  0  0
 25 30  1  1  0  0  0
 25 26  1  0  0  0  0
 26 24  1  6  0  0  0
 27 26  1  0  0  0  0
 28 27  1  0  0  0  0
 29 32  1  6  0  0  0
 29 28  1  0  0  0  0
 29 25  1  0  0  0  0
 31 30  1  0  0  0  0
 33 32  1  0  0  0  0
M  END
>  <minimizedAffinity>
-5.60163832

$$$$

 OpenBabel03242512103D

 33 35  0  0  1  0  0  0  0  0999 V2000
   36.3830   28.2040   38.9480 C   0  0  1  0  0  0  0  0  0  0  0  0
   35.0240   28.9190   39.3250 C   0  0  0  0  0  0  0  0  0  0  0  0
   36.3310   29.5880   39.4060 C   0  0  2  0  0  0  0  0  0  0  0  0
   36.4660   28.0040   37.8690 H   0  0  0  0  0  0  0  0  0  0  0  0
   34.3520   29.1050   38.4730 H   0  0  0  0  0  0  0  0  0  0  0  0
   34.5830   28.6340   40.3020 H   0  0  0  0  0  0  0  0  0  0  0  0
   36.9720   29.7300   40.2920 H   0  0  0  0  0  0  0  0  0  0  0  0
   36.7100   27.1060   39.9020 C   0  0  0  0  0  0  0  0  0  0  0  0
   36.2850   25.9850   39.6400 O   0  0  0  0  0  0  0  0  0  0  0  0
   38.8320   27.3100   41.1070 C   0  0  0  0  0  0  0  0  0  0  0  0
   37.4790   27.2700   41.0900 C   0  0  0  0  0  0  0  0  0  0  0  0
   36.8070   27.4050   42.3380 C   0  0  0  0  0  0  0  0  0  0  0  0
   37.5080   27.5630   43.4760 N   0  0  0  0  0  0  0  0  0  0  0  0
   38.8790   27.5970   43.4460 C   0  0  0  0  0  0  0  0  0  0  0  0
   39.5040   27.4730   42.2850 N   0  0  0  0  0  0  0  0  0  0  0  0
   39.3120   27.2060   40.1570 H   0  0  0  0  0  0  0  0  0  0  0  0
   35.7370   27.3950   42.4620 H   0  0  0  0  0  0  0  0  0  0  0  0
   39.3560   27.7280   44.4070 H   0  0  0  0  0  0  0  0  0  0  0  0
   36.4730   30.6340   38.4980 O   0  0  0  0  0  0  0  0  0  0  0  0
   36.9450   31.8260   40.7410 O   0  0  0  0  0  0  0  0  0  0  0  0
   37.3840   31.8330   39.2870 P   0  0  2  0  0  0  0  0  0  0  0  0
   37.2480   33.3390   38.5970 O   0  0  0  0  0  0  0  0  0  0  0  0
   37.1450   33.2200   37.6160 H   0  0  0  0  0  0  0  0  0  0  0  0
   39.0280   31.3030   39.3270 O   0  0  0  0  0  0  0  0  0  0  0  0
   40.3880   32.2160   37.5530 C   0  0  2  0  0  3  0  0  0  0  0  0
   39.7660   32.4000   38.9190 C   0  0  2  0  0  3  0  0  0  0  0  0
   40.8090   32.6670   39.7950 O   0  0  0  0  0  0  0  0  0  0  0  0
   41.8950   33.0830   39.0740 C   0  0  0  0  0  2  0  0  0  0  0  0
   41.4710   33.2770   37.6320 C   0  0  1  0  0  3  0  0  0  0  0  0
   39.4980   32.4430   36.5270 O   0  0  0  0  0  0  0  0  0  0  0  0
   39.9960   32.2180   35.6870 H   0  0  0  0  0  0  0  0  0  0  0  0
   42.5120   33.0170   36.7490 O   0  0  0  0  0  0  0  0  0  0  0  0
   43.0790   32.2890   37.1590 H   0  0  0  0  0  0  0  0  0  0  0  0
  1  4  1  6  0  0  0
  1  2  1  0  0  0  0
  1  3  1  0  0  0  0
  1  8  1  0  0  0  0
  2  3  1  0  0  0  0
  2  6  1  0  0  0  0
  3  7  1  1  0  0  0
  5  2  1  0  0  0  0
  8 11  1  0  0  0  0
  9  8  2  0  0  0  0
 10 15  1  0  0  0  0
 11 10  2  0  0  0  0
 11 12  1  0  0  0  0
 12 17  1  0  0  0  0
 12 13  2  0  0  0  0
 14 13  1  0  0  0  0
 14 18  1  0  0  0  0
 15 14  2  0  0  0  0
 16 10  1  0  0  0  0
 19 21  1  0  0  0  0
 19  3  1  0  0  0  0
 21 24  1  0  0  0  0
 21 20  2  1  0  0  0
 22 21  1  0  0  0  0
 23 22  1  0  0  0  0
 25 30  1  6  0  0  0
 25 29  1  0  0  0  0
 25 26  1  0  0  0  0
 26 24  1  1  0  0  0
 26 27  1  0  0  0  0
 28 27  1  0  0  0  0
 29 32  1  6  0  0  0
 29 28  1  0  0  0  0
 31 30  1  0  0  0  0
 32 33  1  0  0  0  0
M  END
>  <minimizedAffinity>
-5.55767441

$$$$

 OpenBabel03242512103D

 33 35  0  0  1  0  0  0  0  0999 V2000
   37.3950   29.1140   42.5940 C   0  0  1  0  0  0  0  0  0  0  0  0
   38.8860   29.3690   43.0550 C   0  0  0  0  0  0  0  0  0  0  0  0
   38.4470   29.4940   41.6580 C   0  0  2  0  0  0  0  0  0  0  0  0
   36.7040   29.8880   42.9610 H   0  0  0  0  0  0  0  0  0  0  0  0
   39.0250   30.2650   43.6810 H   0  0  0  0  0  0  0  0  0  0  0  0
   39.4850   28.4630   43.2780 H   0  0  0  0  0  0  0  0  0  0  0  0
   38.5340   28.7530   40.8450 H   0  0  0  0  0  0  0  0  0  0  0  0
   37.0090   27.6830   42.7520 C   0  0  0  0  0  0  0  0  0  0  0  0
   36.2580   27.4000   43.6790 O   0  0  0  0  0  0  0  0  0  0  0  0
   36.9660   26.4210   40.6530 C   0  0  0  0  0  0  0  0  0  0  0  0
   37.4490   26.6280   41.9010 C   0  0  0  0  0  0  0  0  0  0  0  0
   38.4540   25.7340   42.3670 C   0  0  0  0  0  0  0  0  0  0  0  0
   38.8900   24.7300   41.5840 N   0  0  0  0  0  0  0  0  0  0  0  0
   38.3710   24.5580   40.3260 C   0  0  0  0  0  0  0  0  0  0  0  0
   37.4370   25.3890   39.8910 N   0  0  0  0  0  0  0  0  0  0  0  0
   36.2120   27.1060   40.3260 H   0  0  0  0  0  0  0  0  0  0  0  0
   38.9230   25.7910   43.3350 H   0  0  0  0  0  0  0  0  0  0  0  0
   38.7820   23.7270   39.7700 H   0  0  0  0  0  0  0  0  0  0  0  0
   38.5170   30.7970   41.1720 O   0  0  0  0  0  0  0  0  0  0  0  0
   37.5440   32.0510   39.1320 O   0  0  0  0  0  0  0  0  0  0  0  0
   37.1610   31.0080   40.1680 P   0  0  2  0  0  0  0  0  0  0  0  0
   35.7750   31.4170   40.9890 O   0  0  0  0  0  0  0  0  0  0  0  0
   35.7970   30.9630   41.8730 H   0  0  0  0  0  0  0  0  0  0  0  0
   36.9490   29.5520   39.2600 O   0  0  0  0  0  0  0  0  0  0  0  0
   34.6800   28.8230   38.8720 C   0  0  2  0  0  3  0  0  0  0  0  0
   35.8070   29.7640   38.5090 C   0  0  2  0  0  3  0  0  0  0  0  0
   36.0480   29.5860   37.1540 O   0  0  0  0  0  0  0  0  0  0  0  0
   34.9530   28.9930   36.5850 C   0  0  0  0  0  2  0  0  0  0  0  0
   33.8410   28.9470   37.6140 C   0  0  1  0  0  3  0  0  0  0  0  0
   34.0000   29.2180   40.0040 O   0  0  0  0  0  0  0  0  0  0  0  0
   33.3400   28.4870   40.1870 H   0  0  0  0  0  0  0  0  0  0  0  0
   33.0170   27.8430   37.4330 O   0  0  0  0  0  0  0  0  0  0  0  0
   33.5920   27.0940   37.0760 H   0  0  0  0  0  0  0  0  0  0  0  0
  1  8  1  0  0  0  0
  1  4  1  1  0  0  0
  1  2  1  0  0  0  0
  2  6  1  0  0  0  0
  2  5  1  0  0  0  0
  3  7  1  6  0  0  0
  3  1  1  0  0  0  0
  3  2  1  0  0  0  0
  8  9  2  0  0  0  0
 10 11  1  0  0  0  0
 11 12  2  0  0  0  0
 11  8  1  0  0  0  0
 12 17  1  0  0  0  0
 13 12  1  0  0  0  0
 14 13  2  0  0  0  0
 15 14  1  0  0  0  0
 15 10  2  0  0  0  0
 16 10  1  0  0  0  0
 18 14  1  0  0  0  0
 19  3  1  0  0  0  0
 21 20  2  6  0  0  0
 21 22  1  0  0  0  0
 21 19  1  0  0  0  0
 22 23  1  0  0  0  0
 24 21  1  0  0  0  0
 25 30  1  1  0  0  0
 26 25  1  0  0  0  0
 26 24  1  1  0  0  0
 27 26  1  0  0  0  0
 28 27  1  0  0  0  0
 28 29  1  0  0  0  0
 29 32  1  6  0  0  0
 29 25  1  0  0  0  0
 30 31  1  0  0  0  0
 33 32  1  0  0  0  0
M  END
>  <minimizedAffinity>
-5.36371756

$$$$

 OpenBabel03242512103D

 33 35  0  0  1  0  0  0  0  0999 V2000
   36.5660   29.4040   38.9010 C   0  0  1  0  0  0  0  0  0  0  0  0
   36.8320   30.9560   38.7590 C   0  0  0  0  0  0  0  0  0  0  0  0
   37.9130   29.9620   38.8290 C   0  0  2  0  0  0  0  0  0  0  0  0
   36.1220   28.9690   37.9930 H   0  0  0  0  0  0  0  0  0  0  0  0
   36.5290   31.3860   37.7910 H   0  0  0  0  0  0  0  0  0  0  0  0
   36.6890   31.5570   39.6790 H   0  0  0  0  0  0  0  0  0  0  0  0
   38.5080   29.6600   39.7080 H   0  0  0  0  0  0  0  0  0  0  0  0
   35.9600   29.0690   40.2210 C   0  0  0  0  0  0  0  0  0  0  0  0
   34.7430   29.1800   40.3280 O   0  0  0  0  0  0  0  0  0  0  0  0
   37.2030   29.4690   42.2930 C   0  0  0  0  0  0  0  0  0  0  0  0
   36.6940   28.6300   41.3610 C   0  0  0  0  0  0  0  0  0  0  0  0
   36.9120   27.2360   41.5500 C   0  0  0  0  0  0  0  0  0  0  0  0
   37.5990   26.7920   42.6190 N   0  0  0  0  0  0  0  0  0  0  0  0
   38.0980   27.6790   43.5390 C   0  0  0  0  0  0  0  0  0  0  0  0
   37.8950   28.9750   43.3630 N   0  0  0  0  0  0  0  0  0  0  0  0
   37.0270   30.5110   42.1270 H   0  0  0  0  0  0  0  0  0  0  0  0
   36.5560   26.4640   40.8870 H   0  0  0  0  0  0  0  0  0  0  0  0
   38.6350   27.2320   44.3630 H   0  0  0  0  0  0  0  0  0  0  0  0
   38.6510   29.8640   37.6530 O   0  0  0  0  0  0  0  0  0  0  0  0
   39.8600   27.5900   37.4380 O   0  0  0  0  0  0  0  0  0  0  0  0
   40.0490   28.9740   38.0360 P   0  0  2  0  0  0  0  0  0  0  0  0
   40.3820   28.9170   39.6630 O   0  0  0  0  0  0  0  0  0  0  0  0
   40.0960   29.7800   40.0660 H   0  0  0  0  0  0  0  0  0  0  0  0
   41.3640   29.6560   37.1460 O   0  0  0  0  0  0  0  0  0  0  0  0
   41.3250   32.0510   36.8450 C   0  0  2  0  0  3  0  0  0  0  0  0
   41.6100   30.8750   37.7520 C   0  0  2  0  0  3  0  0  0  0  0  0
   42.9360   30.9910   38.1440 O   0  0  0  0  0  0  0  0  0  0  0  0
   43.3450   32.2820   37.9420 C   0  0  0  0  0  2  0  0  0  0  0  0
   42.1380   33.1140   37.5610 C   0  0  1  0  0  3  0  0  0  0  0  0
   39.9850   32.3620   36.7810 O   0  0  0  0  0  0  0  0  0  0  0  0
   39.9130   33.0940   36.1000 H   0  0  0  0  0  0  0  0  0  0  0  0
   42.4810   34.1600   36.7110 O   0  0  0  0  0  0  0  0  0  0  0  0
   43.2480   33.8410   36.1370 H   0  0  0  0  0  0  0  0  0  0  0  0
  1  4  1  6  0  0  0
  1  8  1  0  0  0  0
  2  3  1  0  0  0  0
  2  1  1  0  0  0  0
  2  6  1  0  0  0  0
  3  1  1  0  0  0  0
  3  7  1  1  0  0  0
  5  2  1  0  0  0  0
  8  9  2  0  0  0  0
  8 11  1  0  0  0  0
 10 15  1  0  0  0  0
 11 12  1  0  0  0  0
 11 10  2  0  0  0  0
 12 13  2  0  0  0  0
 13 14  1  0  0  0  0
 14 18  1  0  0  0  0
 15 14  2  0  0  0  0
 16 10  1  0  0  0  0
 17 12  1  0  0  0  0
 19 21  1  0  0  0  0
 19  3  1  0  0  0  0
 21 20  2  6  0  0  0
 21 22  1  0  0  0  0
 22 23  1  0  0  0  0
 24 21  1  0  0  0  0
 25 30  1  1  0  0  0
 25 29  1  0  0  0  0
 25 26  1  0  0  0  0
 26 24  1  6  0  0  0
 26 27  1  0  0  0  0
 28 27  1  0  0  0  0
 29 32  1  6  0  0  0
 29 28  1  0  0  0  0
 31 30  1  0  0  0  0
 33 32  1  0  0  0  0
M  END
>  <minimizedAffinity>
-5.33856869

$$$$

 OpenBabel03242512103D

 33 35  0  0  1  0  0  0  0  0999 V2000
   36.9760   27.2800   42.4440 C   0  0  1  0  0  0  0  0  0  0  0  0
   38.3230   27.6800   43.1680 C   0  0  0  0  0  0  0  0  0  0  0  0
   37.7980   28.4020   42.0000 C   0  0  2  0  0  0  0  0  0  0  0  0
   36.0900   27.4830   43.0640 H   0  0  0  0  0  0  0  0  0  0  0  0
   38.1950   28.0880   44.1830 H   0  0  0  0  0  0  0  0  0  0  0  0
   39.1960   27.0270   42.9610 H   0  0  0  0  0  0  0  0  0  0  0  0
   38.0790   28.2830   40.9400 H   0  0  0  0  0  0  0  0  0  0  0  0
   37.0860   25.9540   41.7720 C   0  0  0  0  0  0  0  0  0  0  0  0
   36.8260   24.9590   42.4410 O   0  0  0  0  0  0  0  0  0  0  0  0
   38.6640   25.2570   40.0350 C   0  0  0  0  0  0  0  0  0  0  0  0
   37.4680   25.7660   40.4120 C   0  0  0  0  0  0  0  0  0  0  0  0
   36.5560   26.1220   39.3790 C   0  0  0  0  0  0  0  0  0  0  0  0
   36.8890   25.9520   38.0860 N   0  0  0  0  0  0  0  0  0  0  0  0
   38.1130   25.4320   37.7490 C   0  0  0  0  0  0  0  0  0  0  0  0
   38.9620   25.1010   38.7100 N   0  0  0  0  0  0  0  0  0  0  0  0
   39.3320   24.9970   40.8290 H   0  0  0  0  0  0  0  0  0  0  0  0
   35.5730   26.5310   39.5440 H   0  0  0  0  0  0  0  0  0  0  0  0
   38.2920   25.3320   36.6880 H   0  0  0  0  0  0  0  0  0  0  0  0
   37.4130   29.7090   42.2850 O   0  0  0  0  0  0  0  0  0  0  0  0
   36.7280   31.7990   40.9290 O   0  0  0  0  0  0  0  0  0  0  0  0
   36.6060   30.2840   40.9030 P   0  0  2  0  0  0  0  0  0  0  0  0
   35.0260   29.7820   40.7920 O   0  0  0  0  0  0  0  0  0  0  0  0
   34.9660   28.8680   41.1790 H   0  0  0  0  0  0  0  0  0  0  0  0
   37.5220   29.7990   39.5210 O   0  0  0  0  0  0  0  0  0  0  0  0
   38.3880   31.5010   38.0430 C   0  0  2  0  0  3  0  0  0  0  0  0
   38.4860   30.7800   39.3690 C   0  0  2  0  0  3  0  0  0  0  0  0
   39.7670   30.2510   39.4380 O   0  0  0  0  0  0  0  0  0  0  0  0
   40.5650   30.9110   38.5420 C   0  0  0  0  0  2  0  0  0  0  0  0
   39.7880   32.0830   37.9780 C   0  0  1  0  0  3  0  0  0  0  0  0
   37.4100   32.4710   38.0350 O   0  0  0  0  0  0  0  0  0  0  0  0
   37.3870   32.8190   37.0960 H   0  0  0  0  0  0  0  0  0  0  0  0
   40.1660   32.3710   36.6710 O   0  0  0  0  0  0  0  0  0  0  0  0
   40.4180   31.4970   36.2320 H   0  0  0  0  0  0  0  0  0  0  0  0
  1  4  1  1  0  0  0
  1  2  1  0  0  0  0
  2  5  1  0  0  0  0
  3  7  1  6  0  0  0
  3 19  1  0  0  0  0
  3  1  1  0  0  0  0
  3  2  1  0  0  0  0
  6  2  1  0  0  0  0
  8  9  2  0  0  0  0
  8  1  1  0  0  0  0
 10 11  1  0  0  0  0
 10 16  1  0  0  0  0
 11  8  1  0  0  0  0
 12 17  1  0  0  0  0
 12 11  2  0  0  0  0
 13 12  1  0  0  0  0
 14 13  2  0  0  0  0
 14 15  1  0  0  0  0
 15 10  2  0  0  0  0
 18 14  1  0  0  0  0
 21 20  2  1  0  0  0
 21 19  1  0  0  0  0
 22 21  1  0  0  0  0
 22 23  1  0  0  0  0
 24 21  1  0  0  0  0
 25 30  1  1  0  0  0
 25 26  1  0  0  0  0
 26 27  1  0  0  0  0
 26 24  1  6  0  0  0
 28 27  1  0  0  0  0
 29 32  1  6  0  0  0
 29 25  1  0  0  0  0
 29 28  1  0  0  0  0
 31 30  1  0  0  0  0
 33 32  1  0  0  0  0
M  END
>  <minimizedAffinity>
-5.30238104

$$$$

 OpenBabel03242512103D

 33 35  0  0  1  0  0  0  0  0999 V2000
   37.0140   27.0110   42.2260 C   0  0  1  0  0  0  0  0  0  0  0  0
   36.5480   27.4630   43.6680 C   0  0  0  0  0  0  0  0  0  0  0  0
   37.5820   28.1730   42.9020 C   0  0  2  0  0  0  0  0  0  0  0  0
   36.2340   27.1670   41.4660 H   0  0  0  0  0  0  0  0  0  0  0  0
   35.5190   27.8530   43.7160 H   0  0  0  0  0  0  0  0  0  0  0  0
   36.9280   26.8520   44.5120 H   0  0  0  0  0  0  0  0  0  0  0  0
   38.6780   28.0790   42.9830 H   0  0  0  0  0  0  0  0  0  0  0  0
   37.7200   25.6990   42.2630 C   0  0  0  0  0  0  0  0  0  0  0  0
   37.0290   24.6850   42.2660 O   0  0  0  0  0  0  0  0  0  0  0  0
   39.9090   25.5090   41.1820 C   0  0  0  0  0  0  0  0  0  0  0  0
   39.1360   25.5430   42.2930 C   0  0  0  0  0  0  0  0  0  0  0  0
   39.7940   25.4170   43.5490 C   0  0  0  0  0  0  0  0  0  0  0  0
   41.1310   25.2710   43.6070 N   0  0  0  0  0  0  0  0  0  0  0  0
   41.8750   25.2430   42.4550 C   0  0  0  0  0  0  0  0  0  0  0  0
   41.2640   25.3600   41.2870 N   0  0  0  0  0  0  0  0  0  0  0  0
   39.3910   25.6050   40.2510 H   0  0  0  0  0  0  0  0  0  0  0  0
   39.2970   25.4330   44.5050 H   0  0  0  0  0  0  0  0  0  0  0  0
   42.9390   25.1220   42.6000 H   0  0  0  0  0  0  0  0  0  0  0  0
   37.2040   29.4580   42.5240 O   0  0  0  0  0  0  0  0  0  0  0  0
   39.2020   29.1620   40.9120 O   0  0  0  0  0  0  0  0  0  0  0  0
   38.5860   30.1860   41.8500 P   0  0  2  0  0  0  0  0  0  0  0  0
   39.6720   30.7370   42.9810 O   0  0  0  0  0  0  0  0  0  0  0  0
   39.1580   31.0530   43.7720 H   0  0  0  0  0  0  0  0  0  0  0  0
   38.0540   31.4610   40.8120 O   0  0  0  0  0  0  0  0  0  0  0  0
   39.5530   31.8860   38.9680 C   0  0  2  0  0  3  0  0  0  0  0  0
   38.4220   31.0610   39.5400 C   0  0  2  0  0  3  0  0  0  0  0  0
   37.3650   31.1670   38.6460 O   0  0  0  0  0  0  0  0  0  0  0  0
   37.8510   31.5830   37.4360 C   0  0  0  0  0  2  0  0  0  0  0  0
   39.3650   31.5710   37.4950 C   0  0  1  0  0  3  0  0  0  0  0  0
   40.7880   31.4970   39.4390 O   0  0  0  0  0  0  0  0  0  0  0  0
   41.4390   32.1550   39.0570 H   0  0  0  0  0  0  0  0  0  0  0  0
   39.9200   32.5540   36.6830 O   0  0  0  0  0  0  0  0  0  0  0  0
   39.2840   33.3380   36.6830 H   0  0  0  0  0  0  0  0  0  0  0  0
  1  4  1  6  0  0  0
  1  8  1  0  0  0  0
  1  3  1  0  0  0  0
  1  2  1  0  0  0  0
  2  5  1  0  0  0  0
  2  6  1  0  0  0  0
  3  7  1  1  0  0  0
  3  2  1  0  0  0  0
  8  9  2  0  0  0  0
  8 11  1  0  0  0  0
 10 15  2  0  0  0  0
 10 11  1  0  0  0  0
 11 12  2  0  0  0  0
 12 13  1  0  0  0  0
 12 17  1  0  0  0  0
 14 18  1  0  0  0  0
 14 13  2  0  0  0  0
 15 14  1  0  0  0  0
 16 10  1  0  0  0  0
 19  3  1  0  0  0  0
 21 20  2  6  0  0  0
 21 19  1  0  0  0  0
 21 22  1  0  0  0  0
 22 23  1  0  0  0  0
 24 21  1  0  0  0  0
 25 30  1  1  0  0  0
 25 26  1  0  0  0  0
 26 24  1  1  0  0  0
 27 26  1  0  0  0  0
 28 29  1  0  0  0  0
 28 27  1  0  0  0  0
 29 32  1  6  0  0  0
 29 25  1  0  0  0  0
 31 30  1  0  0  0  0
 33 32  1  0  0  0  0
M  END
>  <minimizedAffinity>
-5.26863909

$$$$

 OpenBabel03242512103D

 33 35  0  0  1  0  0  0  0  0999 V2000
   38.5480   27.1250   42.7980 C   0  0  1  0  0  0  0  0  0  0  0  0
   39.9030   26.7100   42.0980 C   0  0  0  0  0  0  0  0  0  0  0  0
   39.4210   28.0980   42.1510 C   0  0  2  0  0  0  0  0  0  0  0  0
   38.5910   27.0170   43.8930 H   0  0  0  0  0  0  0  0  0  0  0  0
   40.6880   26.3630   42.7880 H   0  0  0  0  0  0  0  0  0  0  0  0
   39.8050   26.2190   41.1090 H   0  0  0  0  0  0  0  0  0  0  0  0
   38.8730   28.6620   41.3780 H   0  0  0  0  0  0  0  0  0  0  0  0
   37.3650   26.5780   42.0750 C   0  0  0  0  0  0  0  0  0  0  0  0
   36.9480   25.4790   42.4260 O   0  0  0  0  0  0  0  0  0  0  0  0
   36.7210   26.8200   39.7250 C   0  0  0  0  0  0  0  0  0  0  0  0
   36.6890   27.2420   41.0110 C   0  0  0  0  0  0  0  0  0  0  0  0
   35.9290   28.4120   41.2940 C   0  0  0  0  0  0  0  0  0  0  0  0
   35.2780   29.0580   40.3090 N   0  0  0  0  0  0  0  0  0  0  0  0
   35.3390   28.5950   39.0200 C   0  0  0  0  0  0  0  0  0  0  0  0
   36.0450   27.5060   38.7550 N   0  0  0  0  0  0  0  0  0  0  0  0
   37.2980   25.9390   39.5380 H   0  0  0  0  0  0  0  0  0  0  0  0
   35.8190   28.8480   42.2740 H   0  0  0  0  0  0  0  0  0  0  0  0
   34.7850   29.1770   38.2970 H   0  0  0  0  0  0  0  0  0  0  0  0
   40.2300   28.9340   42.9180 O   0  0  0  0  0  0  0  0  0  0  0  0
   41.6800   30.0320   41.0830 O   0  0  0  0  0  0  0  0  0  0  0  0
   40.4960   30.3310   41.9860 P   0  0  2  0  0  0  0  0  0  0  0  0
   40.7260   31.7060   42.8900 O   0  0  0  0  0  0  0  0  0  0  0  0
   40.1650   31.6340   43.7080 H   0  0  0  0  0  0  0  0  0  0  0  0
   39.1590   30.5030   40.9050 O   0  0  0  0  0  0  0  0  0  0  0  0
   37.5190   32.1490   40.2470 C   0  0  2  0  0  3  0  0  0  0  0  0
   38.7900   31.8330   41.0020 C   0  0  2  0  0  3  0  0  0  0  0  0
   39.7710   32.6720   40.4920 O   0  0  0  0  0  0  0  0  0  0  0  0
   39.1660   33.7190   39.8500 C   0  0  0  0  0  2  0  0  0  0  0  0
   37.6760   33.6530   40.1210 C   0  0  1  0  0  3  0  0  0  0  0  0
   36.3840   31.7920   40.9420 O   0  0  0  0  0  0  0  0  0  0  0  0
   35.6210   31.9740   40.3180 H   0  0  0  0  0  0  0  0  0  0  0  0
   36.9370   34.1610   39.0580 O   0  0  0  0  0  0  0  0  0  0  0  0
   37.4450   33.9520   38.2110 H   0  0  0  0  0  0  0  0  0  0  0  0
  1  4  1  1  0  0  0
  2  3  1  0  0  0  0
  2  5  1  0  0  0  0
  2  1  1  0  0  0  0
  3  7  1  6  0  0  0
  3  1  1  0  0  0  0
  3 19  1  0  0  0  0
  6  2  1  0  0  0  0
  8  9  2  0  0  0  0
  8  1  1  0  0  0  0
 10 11  1  0  0  0  0
 11 12  2  0  0  0  0
 11  8  1  0  0  0  0
 12 17  1  0  0  0  0
 13 12  1  0  0  0  0
 14 13  2  0  0  0  0
 15 14  1  0  0  0  0
 15 10  2  0  0  0  0
 16 10  1  0  0  0  0
 18 14  1  0  0  0  0
 21 20  2  6  0  0  0
 21 22  1  0  0  0  0
 21 19  1  0  0  0  0
 22 23  1  0  0  0  0
 24 21  1  0  0  0  0
 25 30  1  1  0  0  0
 25 26  1  0  0  0  0
 26 24  1  6  0  0  0
 27 26  1  0  0  0  0
 28 29  1  0  0  0  0
 28 27  1  0  0  0  0
 29 32  1  6  0  0  0
 29 25  1  0  0  0  0
 31 30  1  0  0  0  0
 33 32  1  0  0  0  0
M  END
>  <minimizedAffinity>
-5.22053957

$$$$
