
 OpenBabel03252504573D

 37 39  0  0  1  0  0  0  0  0999 V2000
   47.9050   34.0370   42.0630 N   0  0  0  0  0  0  0  0  0  0  0  0
   47.9240   34.9990   41.0300 C   0  0  0  0  0  0  0  0  0  0  0  0
   49.0790   35.8410   41.3890 C   0  0  0  0  0  0  0  0  0  0  0  0
   49.7260   35.2710   42.6400 C   0  0  0  0  0  0  0  0  0  0  0  0
   49.1710   33.8380   42.6420 C   0  0  2  0  0  0  0  0  0  0  0  0
   47.4030   35.2660   40.1590 H   0  0  0  0  0  0  0  0  0  0  0  0
   49.4810   36.7020   40.8950 H   0  0  0  0  0  0  0  0  0  0  0  0
   50.8000   35.2840   42.4620 H   0  0  0  0  0  0  0  0  0  0  0  0
   49.3990   35.8240   43.5390 H   0  0  0  0  0  0  0  0  0  0  0  0
   49.1530   33.3930   43.6340 H   0  0  0  0  0  0  0  0  0  0  0  0
   46.7210   33.4390   42.4250 C   0  0  0  0  0  0  0  0  0  0  0  0
   46.9400   32.3700   42.6580 H   0  0  0  0  0  0  0  0  0  0  0  0
   45.9750   33.3490   41.6010 H   0  0  0  0  0  0  0  0  0  0  0  0
   44.5950   35.7400   44.5520 C   0  0  0  0  0  0  0  0  0  0  0  0
   45.2620   35.2400   43.3980 C   0  0  0  0  0  0  0  0  0  0  0  0
   46.0160   34.0740   43.5200 C   0  0  0  0  0  0  0  0  0  0  0  0
   46.0650   33.4920   44.7370 N   0  0  0  0  0  0  0  0  0  0  0  0
   45.4130   33.9890   45.8470 C   0  0  0  0  0  0  0  0  0  0  0  0
   44.6860   35.1020   45.7510 N   0  0  0  0  0  0  0  0  0  0  0  0
   44.0390   36.6480   44.3470 H   0  0  0  0  0  0  0  0  0  0  0  0
   45.2010   35.7270   42.4560 H   0  0  0  0  0  0  0  0  0  0  0  0
   45.5030   33.4590   46.7890 H   0  0  0  0  0  0  0  0  0  0  0  0
   49.9300   33.1280   41.6990 O   0  0  0  0  0  0  0  0  0  0  0  0
   49.1430   30.9390   42.9750 O   0  0  0  0  0  0  0  0  0  0  0  0
   50.2020   31.5420   42.0820 P   0  0  2  0  0  0  0  0  0  0  0  0
   51.6730   31.4390   42.9230 O   0  0  0  0  0  0  0  0  0  0  0  0
   52.3990   31.7640   42.3130 H   0  0  0  0  0  0  0  0  0  0  0  0
   50.4020   30.5940   40.6690 O   0  0  0  0  0  0  0  0  0  0  0  0
   52.0770   31.1490   39.0300 C   0  0  1  0  0  0  0  0  0  0  0  0
   50.6820   31.3780   39.5700 C   0  0  1  0  0  0  0  0  0  0  0  0
   49.9110   30.9090   38.5080 O   0  0  0  0  0  0  0  0  0  0  0  0
   50.4180   31.6120   37.4190 C   0  0  0  0  0  0  0  0  0  0  0  0
   51.9050   31.5880   37.5780 C   0  0  2  0  0  0  0  0  0  0  0  0
   52.9440   31.9820   39.6910 O   0  0  0  0  0  0  0  0  0  0  0  0
   53.8630   31.9310   39.3690 H   0  0  0  0  0  0  0  0  0  0  0  0
   52.5430   30.6950   36.7220 O   0  0  0  0  0  0  0  0  0  0  0  0
   53.4180   30.4710   37.1620 H   0  0  0  0  0  0  0  0  0  0  0  0
  1 11  1  0  0  0  0
  1  5  1  0  0  0  0
  2  3  2  0  0  0  0
  2  1  1  0  0  0  0
  3  4  1  0  0  0  0
  4  5  1  0  0  0  0
  4  9  1  0  0  0  0
  5 10  1  1  0  0  0
  6  2  1  0  0  0  0
  7  3  1  0  0  0  0
  8  4  1  0  0  0  0
 11 12  1  0  0  0  0
 11 16  1  0  0  0  0
 13 11  1  0  0  0  0
 14 19  1  0  0  0  0
 15 16  1  0  0  0  0
 15 14  2  0  0  0  0
 16 17  2  0  0  0  0
 17 18  1  0  0  0  0
 18 22  1  0  0  0  0
 19 18  2  0  0  0  0
 20 14  1  0  0  0  0
 21 15  1  0  0  0  0
 23 25  1  0  0  0  0
 23  5  1  0  0  0  0
 25 26  1  0  0  0  0
 25 24  2  1  0  0  0
 27 26  1  0  0  0  0
 28 25  1  0  0  0  0
 29 30  1  0  0  0  0
 29 34  1  1  0  0  0
 30 28  1  1  0  0  0
 31 30  1  0  0  0  0
 32 33  1  0  0  0  0
 32 31  1  0  0  0  0
 33 36  1  6  0  0  0
 33 29  1  0  0  0  0
 35 34  1  0  0  0  0
 36 37  1  0  0  0  0
M  END
>  <minimizedAffinity>
-5.53344107

>  <minimizedRMSD>
2.5333569

$$$$
