
 OpenBabel03252506453D

 42 45  0  0  1  0  0  0  0  0999 V2000
   49.5310   33.5000   41.3580 N   0  0  1  0  0  0  0  0  0  0  0  0
   50.7250   33.0830   42.0920 C   0  0  0  0  0  0  0  0  0  0  0  0
   51.2770   31.7680   41.6200 C   0  0  0  0  0  0  0  0  0  0  0  0
   50.2870   30.6710   41.9830 C   0  0  0  0  0  0  0  0  0  0  0  0
   48.8750   31.1670   41.8270 C   0  0  0  0  0  0  0  0  0  0  0  0
   48.8530   32.3260   40.8650 C   0  0  2  0  0  0  0  0  0  0  0  0
   50.5300   32.9850   43.1680 H   0  0  0  0  0  0  0  0  0  0  0  0
   51.4850   33.8820   41.9740 H   0  0  0  0  0  0  0  0  0  0  0  0
   51.4830   31.7590   40.5290 H   0  0  0  0  0  0  0  0  0  0  0  0
   52.2260   31.6170   42.1490 H   0  0  0  0  0  0  0  0  0  0  0  0
   50.4960   30.2660   42.9900 H   0  0  0  0  0  0  0  0  0  0  0  0
   50.4630   29.8300   41.2670 H   0  0  0  0  0  0  0  0  0  0  0  0
   48.1630   30.4170   41.4920 H   0  0  0  0  0  0  0  0  0  0  0  0
   48.5950   31.5810   42.8390 H   0  0  0  0  0  0  0  0  0  0  0  0
   47.7720   32.6070   40.7570 H   0  0  0  0  0  0  0  0  0  0  0  0
   47.3710   34.7590   41.9470 C   0  0  1  0  0  0  0  0  0  0  0  0
   48.4720   35.6980   41.7690 C   0  0  0  0  0  0  0  0  0  0  0  0
   48.7840   34.3150   42.2470 C   0  0  2  0  0  0  0  0  0  0  0  0
   46.9300   34.1570   41.1160 H   0  0  0  0  0  0  0  0  0  0  0  0
   48.7320   35.9440   40.7020 H   0  0  0  0  0  0  0  0  0  0  0  0
   48.5580   36.5560   42.4660 H   0  0  0  0  0  0  0  0  0  0  0  0
   48.9930   34.2180   43.3320 H   0  0  0  0  0  0  0  0  0  0  0  0
   45.5600   36.0360   43.1370 C   0  0  0  0  0  0  0  0  0  0  0  0
   46.4210   34.9150   43.0750 C   0  0  0  0  0  0  0  0  0  0  0  0
   46.3390   33.9810   44.1040 C   0  0  0  0  0  0  0  0  0  0  0  0
   45.4450   34.2020   45.0950 N   0  0  0  0  0  0  0  0  0  0  0  0
   44.6370   35.2680   45.1400 C   0  0  0  0  0  0  0  0  0  0  0  0
   44.6850   36.2050   44.1540 N   0  0  0  0  0  0  0  0  0  0  0  0
   45.6600   36.7320   42.3180 H   0  0  0  0  0  0  0  0  0  0  0  0
   46.9770   33.1050   44.1030 H   0  0  0  0  0  0  0  0  0  0  0  0
   43.9530   35.3510   45.9840 H   0  0  0  0  0  0  0  0  0  0  0  0
   49.3090   31.9230   39.5670 N   0  0  0  0  0  0  0  0  0  0  0  0
   50.1510   32.4450   39.2930 H   0  0  0  0  0  0  0  0  0  0  0  0
   48.9300   31.9810   37.1510 C   0  0  2  0  0  3  0  0  0  0  0  0
   48.3150   32.1280   38.5420 C   0  0  2  0  0  3  0  0  0  0  0  0
   47.7540   33.3750   38.5600 O   0  0  0  0  0  0  0  0  0  0  0  0
   47.5370   33.8290   37.2860 C   0  0  0  0  0  2  0  0  0  0  0  0
   47.8840   32.7090   36.3310 C   0  0  1  0  0  3  0  0  0  0  0  0
   49.0340   30.6440   36.7880 O   0  0  0  0  0  0  0  0  0  0  0  0
   48.1840   30.2040   37.0470 H   0  0  0  0  0  0  0  0  0  0  0  0
   48.4680   33.2620   35.1680 O   0  0  0  0  0  0  0  0  0  0  0  0
   47.9830   34.0900   34.9310 H   0  0  0  0  0  0  0  0  0  0  0  0
  1  2  1  1  0  0  0
  1 18  1  0  0  0  0
  2  7  1  0  0  0  0
  3  4  1  0  0  0  0
  3  2  1  0  0  0  0
  3 10  1  0  0  0  0
  4 11  1  0  0  0  0
  5  4  1  0  0  0  0
  5 14  1  0  0  0  0
  6 15  1  6  0  0  0
  6  1  1  0  0  0  0
  6  5  1  0  0  0  0
  8  2  1  0  0  0  0
  9  3  1  0  0  0  0
 12  4  1  0  0  0  0
 13  5  1  0  0  0  0
 16 19  1  6  0  0  0
 16 18  1  0  0  0  0
 16 24  1  0  0  0  0
 17 16  1  0  0  0  0
 17 18  1  0  0  0  0
 17 21  1  0  0  0  0
 18 22  1  1  0  0  0
 20 17  1  0  0  0  0
 23 28  1  0  0  0  0
 24 23  2  0  0  0  0
 24 25  1  0  0  0  0
 25 26  2  0  0  0  0
 26 27  1  0  0  0  0
 27 31  1  0  0  0  0
 28 27  2  0  0  0  0
 29 23  1  0  0  0  0
 30 25  1  0  0  0  0
 32  6  1  0  0  0  0
 33 32  1  0  0  0  0
 34 39  1  6  0  0  0
 34 35  1  0  0  0  0
 35 36  1  0  0  0  0
 35 32  1  1  0  0  0
 37 36  1  0  0  0  0
 38 41  1  6  0  0  0
 38 34  1  0  0  0  0
 38 37  1  0  0  0  0
 39 40  1  0  0  0  0
 42 41  1  0  0  0  0
M  END
>  <minimizedAffinity>
-5.47616529

>  <minimizedRMSD>
2.70857906

$$$$
