
 OpenBabel03252500433D

 34 36  0  0  1  0  0  0  0  0999 V2000
   47.5440   35.1830   41.5440 C   0  0  1  0  0  0  0  0  0  0  0  0
   49.0550   35.2580   41.3680 C   0  0  0  0  0  0  0  0  0  0  0  0
   48.1530   34.8440   40.2240 C   0  0  1  0  0  0  0  0  0  0  0  0
   47.1290   36.2220   41.6400 H   0  0  0  0  0  0  0  0  0  0  0  0
   49.6720   34.4460   41.8390 H   0  0  0  0  0  0  0  0  0  0  0  0
   49.5670   36.2040   41.2090 H   0  0  0  0  0  0  0  0  0  0  0  0
   48.0090   35.5480   39.3850 H   0  0  0  0  0  0  0  0  0  0  0  0
   47.0380   34.0420   42.3290 C   0  0  0  0  0  0  0  0  0  0  0  0
   46.4630   33.3130   41.6870 H   0  0  0  0  0  0  0  0  0  0  0  0
   47.8850   33.4180   42.7250 H   0  0  0  0  0  0  0  0  0  0  0  0
   46.2190   34.3970   43.4920 C   0  0  0  0  0  0  0  0  0  0  0  0
   45.4730   35.5310   43.3140 C   0  0  0  0  0  0  0  0  0  0  0  0
   44.6420   36.0030   44.3470 C   0  0  0  0  0  0  0  0  0  0  0  0
   44.6450   35.2540   45.5030 N   0  0  0  0  0  0  0  0  0  0  0  0
   45.3880   34.1400   45.6520 C   0  0  0  0  0  0  0  0  0  0  0  0
   46.1600   33.7240   44.6580 N   0  0  0  0  0  0  0  0  0  0  0  0
   45.3320   36.2330   42.5020 H   0  0  0  0  0  0  0  0  0  0  0  0
   44.0010   36.8700   44.3670 H   0  0  0  0  0  0  0  0  0  0  0  0
   45.3580   33.5830   46.5760 H   0  0  0  0  0  0  0  0  0  0  0  0
   48.1900   33.5110   39.8700 O   0  0  0  0  0  0  0  0  0  0  0  0
   48.1580   34.5880   37.4240 O   0  0  0  0  0  0  0  0  0  0  0  0
   48.3440   33.3050   38.1930 P   0  0  1  0  0  0  0  0  0  0  0  0
   49.9640   32.7960   37.9210 O   0  0  0  0  0  0  0  0  0  0  0  0
   50.1340   32.6880   36.9520 H   0  0  0  0  0  0  0  0  0  0  0  0
   47.3030   32.0920   37.6660 O   0  0  0  0  0  0  0  0  0  0  0  0
   47.7230   31.7890   35.2940 C   0  0  2  0  0  0  0  0  0  0  0  0
   46.8990   32.4160   36.4000 C   0  0  1  0  0  0  0  0  0  0  0  0
   45.6310   31.9360   36.0690 O   0  0  0  0  0  0  0  0  0  0  0  0
   45.4940   32.2720   34.7290 C   0  0  0  0  0  0  0  0  0  0  0  0
   46.8540   32.1300   34.0990 C   0  0  2  0  0  0  0  0  0  0  0  0
   47.7340   30.3990   35.3870 O   0  0  0  0  0  0  0  0  0  0  0  0
   46.9350   29.9910   34.9550 H   0  0  0  0  0  0  0  0  0  0  0  0
   46.8890   31.1330   33.1320 O   0  0  0  0  0  0  0  0  0  0  0  0
   46.7950   31.5350   32.2210 H   0  0  0  0  0  0  0  0  0  0  0  0
  1  4  1  1  0  0  0
  1  8  1  0  0  0  0
  2  1  1  0  0  0  0
  2  5  1  0  0  0  0
  3  7  1  6  0  0  0
  3  2  1  0  0  0  0
  3  1  1  0  0  0  0
  6  2  1  0  0  0  0
  8 10  1  0  0  0  0
  8 11  1  0  0  0  0
  9  8  1  0  0  0  0
 11 16  1  0  0  0  0
 12 11  2  0  0  0  0
 12 13  1  0  0  0  0
 13 18  1  0  0  0  0
 13 14  2  0  0  0  0
 14 15  1  0  0  0  0
 15 19  1  0  0  0  0
 16 15  2  0  0  0  0
 17 12  1  0  0  0  0
 20  3  1  0  0  0  0
 22 21  2  6  0  0  0
 22 20  1  0  0  0  0
 23 22  1  0  0  0  0
 24 23  1  0  0  0  0
 25 22  1  0  0  0  0
 26 31  1  1  0  0  0
 26 27  1  0  0  0  0
 27 25  1  1  0  0  0
 28 27  1  0  0  0  0
 29 28  1  0  0  0  0
 30 33  1  6  0  0  0
 30 29  1  0  0  0  0
 30 26  1  0  0  0  0
 32 31  1  0  0  0  0
 34 33  1  0  0  0  0
M  END
>  <minimizedAffinity>
-5.34797192

>  <minimizedRMSD>
1.08129072

$$$$
