
 OpenBabel03242521583D

 33 35  0  0  1  0  0  0  0  0999 V2000
   46.7500   34.6950   42.1150 C   0  0  0  0  0  0  0  0  0  0  0  0
   47.8770   35.4150   41.7980 C   0  0  0  0  0  0  0  0  0  0  0  0
   48.6300   35.2410   40.6390 C   0  0  0  0  0  0  0  0  0  0  0  0
   48.2220   34.2780   39.7400 C   0  0  0  0  0  0  0  0  0  0  0  0
   47.1120   33.5790   40.0650 C   0  0  0  0  0  0  0  0  0  0  0  0
   46.4120   33.7700   41.1830 N   0  0  0  0  0  0  0  0  0  0  0  0
   48.1370   36.1630   42.5640 H   0  0  0  0  0  0  0  0  0  0  0  0
   49.4820   35.9180   40.5920 H   0  0  0  0  0  0  0  0  0  0  0  0
   48.9280   34.2790   38.9300 H   0  0  0  0  0  0  0  0  0  0  0  0
   44.4640   35.9330   44.8330 C   0  0  0  0  0  0  0  0  0  0  0  0
   45.1090   35.9110   43.5920 C   0  0  0  0  0  0  0  0  0  0  0  0
   45.9880   34.8900   43.3400 C   0  0  0  0  0  0  0  0  0  0  0  0
   46.1870   33.9480   44.3220 N   0  0  0  0  0  0  0  0  0  0  0  0
   45.5530   33.9930   45.5130 C   0  0  0  0  0  0  0  0  0  0  0  0
   44.6930   34.9920   45.7550 N   0  0  0  0  0  0  0  0  0  0  0  0
   43.7880   36.7760   44.9410 H   0  0  0  0  0  0  0  0  0  0  0  0
   44.9890   36.6210   42.7910 H   0  0  0  0  0  0  0  0  0  0  0  0
   45.7390   33.2300   46.2570 H   0  0  0  0  0  0  0  0  0  0  0  0
   46.6830   32.6100   39.1750 O   0  0  0  0  0  0  0  0  0  0  0  0
   44.2960   33.3730   38.3530 O   0  0  0  0  0  0  0  0  0  0  0  0
   45.6550   32.9530   37.8540 P   0  0  1  0  0  0  0  0  0  0  0  0
   46.3360   34.2230   36.9580 O   0  0  0  0  0  0  0  0  0  0  0  0
   46.4970   33.9910   36.0200 H   0  0  0  0  0  0  0  0  0  0  0  0
   45.5220   31.5450   36.9240 O   0  0  0  0  0  0  0  0  0  0  0  0
   45.0060   31.7130   34.5780 C   0  0  2  0  0  0  0  0  0  0  0  0
   46.0560   31.6740   35.6510 C   0  0  2  0  0  0  0  0  0  0  0  0
   46.8480   30.5670   35.4150 O   0  0  0  0  0  0  0  0  0  0  0  0
   45.9980   29.6080   34.8170 C   0  0  0  0  0  0  0  0  0  0  0  0
   45.3150   30.4680   33.7720 C   0  0  2  0  0  0  0  0  0  0  0  0
   45.0990   32.8650   33.7990 O   0  0  0  0  0  0  0  0  0  0  0  0
   45.2010   33.6410   34.4080 H   0  0  0  0  0  0  0  0  0  0  0  0
   46.2600   30.7590   32.7810 O   0  0  0  0  0  0  0  0  0  0  0  0
   46.6890   29.9310   32.4490 H   0  0  0  0  0  0  0  0  0  0  0  0
  1 12  1  0  0  0  0
  2  1  1  0  0  0  0
  2  7  1  0  0  0  0
  3  2  2  0  0  0  0
  4  5  2  0  0  0  0
  4  3  1  0  0  0  0
  5  6  1  0  0  0  0
  6  1  2  0  0  0  0
  8  3  1  0  0  0  0
  9  4  1  0  0  0  0
 10 16  1  0  0  0  0
 10 15  1  0  0  0  0
 11 10  2  0  0  0  0
 12 11  1  0  0  0  0
 12 13  2  0  0  0  0
 13 14  1  0  0  0  0
 14 15  2  0  0  0  0
 14 18  1  0  0  0  0
 17 11  1  0  0  0  0
 19  5  1  0  0  0  0
 21 20  2  1  0  0  0
 21 19  1  0  0  0  0
 22 21  1  0  0  0  0
 23 22  1  0  0  0  0
 24 21  1  0  0  0  0
 25 30  1  6  0  0  0
 25 26  1  0  0  0  0
 26 24  1  1  0  0  0
 27 26  1  0  0  0  0
 28 27  1  0  0  0  0
 29 32  1  6  0  0  0
 29 25  1  0  0  0  0
 29 28  1  0  0  0  0
 30 31  1  0  0  0  0
 33 32  1  0  0  0  0
M  END
>  <minimizedAffinity>
-6.87948608

>  <minimizedRMSD>
3.38952613

$$$$
