
 OpenBabel03252504323D

 40 42  0  0  1  0  0  0  0  0999 V2000
   42.8970   35.4050   40.6590 O   0  0  0  0  0  0  0  0  0  0  0  0
   41.6670   35.6560   41.1770 C   0  0  0  0  0  0  0  0  0  0  0  0
   41.5770   35.7790   42.2800 H   0  0  0  0  0  0  0  0  0  0  0  0
   41.2490   36.5930   40.7360 H   0  0  0  0  0  0  0  0  0  0  0  0
   41.0820   33.2860   41.1160 C   0  0  0  0  0  0  0  0  0  0  0  0
   40.6490   34.6000   40.8600 C   0  0  0  0  0  0  0  0  0  0  0  0
   39.3950   34.7840   40.3840 C   0  0  0  0  0  0  0  0  0  0  0  0
   38.6600   33.6770   40.1950 N   0  0  0  0  0  0  0  0  0  0  0  0
   39.0520   32.4440   40.4300 C   0  0  0  0  0  0  0  0  0  0  0  0
   40.3350   32.1970   40.9200 N   0  0  0  0  0  0  0  0  0  0  0  0
   42.0740   33.0840   41.4960 H   0  0  0  0  0  0  0  0  0  0  0  0
   39.1010   35.7910   40.2020 H   0  0  0  0  0  0  0  0  0  0  0  0
   38.9850   29.9700   40.0570 C   0  0  1  0  0  3  0  0  0  0  0  0
   38.2090   31.2350   40.2090 C   0  0  1  0  0  3  0  0  0  0  0  0
   37.4310   30.9550   41.3430 O   0  0  0  0  0  0  0  0  0  0  0  0
   36.8920   29.7210   41.0670 C   0  0  0  0  0  2  0  0  0  0  0  0
   37.8630   28.9380   40.2290 C   0  0  1  0  0  3  0  0  0  0  0  0
   39.5470   29.8210   38.7930 O   0  0  0  0  0  0  0  0  0  0  0  0
   40.3470   29.2480   38.7930 H   0  0  0  0  0  0  0  0  0  0  0  0
   37.2940   28.7800   38.9610 O   0  0  0  0  0  0  0  0  0  0  0  0
   37.4550   29.5600   38.3620 H   0  0  0  0  0  0  0  0  0  0  0  0
   44.1000   35.2790   41.3340 C   0  0  0  0  0  3  0  0  0  0  0  0
   44.0810   35.5910   42.6280 C   0  0  0  0  0  3  0  0  0  0  0  0
   45.2890   35.5180   43.5470 C   0  0  0  0  0  0  0  0  0  0  0  0
   45.5540   36.4970   43.9550 H   0  0  0  0  0  0  0  0  0  0  0  0
   46.1700   35.1780   42.9540 H   0  0  0  0  0  0  0  0  0  0  0  0
   45.0010   34.5740   44.5120 O   0  0  0  0  0  0  0  0  0  0  0  0
   45.6290   32.4070   43.0980 O   0  0  0  0  0  0  0  0  0  0  0  0
   45.9830   33.2170   44.3250 P   0  0  1  0  0  0  0  0  0  0  0  0
   47.6090   33.7010   44.1480 O   0  0  0  0  0  0  0  0  0  0  0  0
   47.7330   34.6620   44.4080 H   0  0  0  0  0  0  0  0  0  0  0  0
   45.9070   32.2460   45.7020 O   0  0  0  0  0  0  0  0  0  0  0  0
   46.2040   32.9400   46.8550 C   0  0  0  0  0  0  0  0  0  0  0  0
   47.0880   32.3040   47.8830 C   0  0  0  0  0  0  0  0  0  0  0  0
   45.5870   32.3960   48.1200 C   0  0  0  0  0  0  0  0  0  0  0  0
   46.2230   34.0360   46.7480 H   0  0  0  0  0  0  0  0  0  0  0  0
   47.6870   33.0010   48.5040 H   0  0  0  0  0  0  0  0  0  0  0  0
   47.5440   31.3320   47.6540 H   0  0  0  0  0  0  0  0  0  0  0  0
   45.2180   33.0920   48.8970 H   0  0  0  0  0  0  0  0  0  0  0  0
   45.0890   31.4200   48.1070 H   0  0  0  0  0  0  0  0  0  0  0  0
  1  2  1  0  0  0  0
  1 22  1  0  0  0  0
  2  3  1  0  0  0  0
  4  2  1  0  0  0  0
  5 11  1  0  0  0  0
  6  5  2  0  0  0  0
  6  2  1  0  0  0  0
  7  6  1  0  0  0  0
  8  7  2  0  0  0  0
  8  9  1  0  0  0  0
  9 10  2  0  0  0  0
 10  5  1  0  0  0  0
 12  7  1  0  0  0  0
 13 18  1  6  0  0  0
 13 14  1  0  0  0  0
 13 17  1  0  0  0  0
 14  9  1  1  0  0  0
 14 15  1  0  0  0  0
 16 15  1  0  0  0  0
 17 20  1  6  0  0  0
 17 16  1  0  0  0  0
 18 19  1  0  0  0  0
 21 20  1  0  0  0  0
 22 23  2  0  0  0  0
 23 24  1  0  0  0  0
 24 25  1  0  0  0  0
 24 27  1  0  0  0  0
 26 24  1  0  0  0  0
 29 28  2  6  0  0  0
 29 27  1  0  0  0  0
 29 32  1  0  0  0  0
 30 29  1  0  0  0  0
 30 31  1  0  0  0  0
 32 33  1  0  0  0  0
 33 34  1  0  0  0  0
 33 35  1  0  0  0  0
 34 35  1  0  0  0  0
 34 37  1  0  0  0  0
 35 39  1  0  0  0  0
 36 33  1  0  0  0  0
 38 34  1  0  0  0  0
 40 35  1  0  0  0  0
M  END
>  <minimizedAffinity>
-5.04957867

>  <minimizedRMSD>
0.979061544

$$$$
