
 OpenBabel03252504343D

 40 42  0  0  1  0  0  0  0  0999 V2000
   37.1830   32.3760   39.4870 O   0  0  0  0  0  0  0  0  0  0  0  0
   37.6760   33.4210   40.2000 C   0  0  0  0  0  0  0  0  0  0  0  0
   37.1420   34.3960   40.1390 H   0  0  0  0  0  0  0  0  0  0  0  0
   37.7050   33.1630   41.2870 H   0  0  0  0  0  0  0  0  0  0  0  0
   39.7620   32.8050   39.0910 C   0  0  0  0  0  0  0  0  0  0  0  0
   39.0920   33.7770   39.8560 C   0  0  0  0  0  0  0  0  0  0  0  0
   39.7590   34.9090   40.1870 C   0  0  0  0  0  0  0  0  0  0  0  0
   41.0220   35.0070   39.7460 N   0  0  0  0  0  0  0  0  0  0  0  0
   41.6590   34.1070   39.0300 C   0  0  0  0  0  0  0  0  0  0  0  0
   41.0210   32.9220   38.6620 N   0  0  0  0  0  0  0  0  0  0  0  0
   39.2760   31.8830   38.8000 H   0  0  0  0  0  0  0  0  0  0  0  0
   39.2220   35.6210   40.7660 H   0  0  0  0  0  0  0  0  0  0  0  0
   44.0920   33.9600   39.6010 C   0  0  1  0  0  3  0  0  0  0  0  0
   43.0660   34.2480   38.5560 C   0  0  1  0  0  3  0  0  0  0  0  0
   43.3660   33.2760   37.5890 O   0  0  0  0  0  0  0  0  0  0  0  0
   44.7250   33.3980   37.4220 C   0  0  0  0  0  2  0  0  0  0  0  0
   45.3430   33.8230   38.7230 C   0  0  1  0  0  3  0  0  0  0  0  0
   44.2770   35.0120   40.4920 O   0  0  0  0  0  0  0  0  0  0  0  0
   44.6130   34.7170   41.3680 H   0  0  0  0  0  0  0  0  0  0  0  0
   45.8330   35.1220   38.5550 O   0  0  0  0  0  0  0  0  0  0  0  0
   45.1370   35.8220   38.6940 H   0  0  0  0  0  0  0  0  0  0  0  0
   36.6110   31.2080   39.9630 C   0  0  0  0  0  3  0  0  0  0  0  0
   37.3340   30.5180   40.8440 C   0  0  0  0  0  3  0  0  0  0  0  0
   36.8900   29.2170   41.4880 C   0  0  0  0  0  0  0  0  0  0  0  0
   36.2700   28.6170   40.8170 H   0  0  0  0  0  0  0  0  0  0  0  0
   36.2540   29.4550   42.3730 H   0  0  0  0  0  0  0  0  0  0  0  0
   38.0340   28.5700   41.9140 O   0  0  0  0  0  0  0  0  0  0  0  0
   38.9830   27.2360   44.0140 O   0  0  0  0  0  0  0  0  0  0  0  0
   37.7200   27.6640   43.3010 P   0  0  1  0  0  0  0  0  0  0  0  0
   36.8160   28.5970   44.4070 O   0  0  0  0  0  0  0  0  0  0  0  0
   36.4380   29.4160   43.9690 H   0  0  0  0  0  0  0  0  0  0  0  0
   36.7850   26.3140   42.9170 O   0  0  0  0  0  0  0  0  0  0  0  0
   37.2940   25.6050   41.8500 C   0  0  0  0  0  0  0  0  0  0  0  0
   36.6100   24.3440   41.4200 C   0  0  0  0  0  0  0  0  0  0  0  0
   37.9210   24.2760   42.1900 C   0  0  0  0  0  0  0  0  0  0  0  0
   37.8090   26.2120   41.0890 H   0  0  0  0  0  0  0  0  0  0  0  0
   36.7040   24.0860   40.3450 H   0  0  0  0  0  0  0  0  0  0  0  0
   35.6730   24.0600   41.9140 H   0  0  0  0  0  0  0  0  0  0  0  0
   38.8310   23.9430   41.6560 H   0  0  0  0  0  0  0  0  0  0  0  0
   37.8060   23.8610   43.1980 H   0  0  0  0  0  0  0  0  0  0  0  0
  1 22  1  0  0  0  0
  1  2  1  0  0  0  0
  2  4  1  0  0  0  0
  3  2  1  0  0  0  0
  5  6  1  0  0  0  0
  6  7  2  0  0  0  0
  6  2  1  0  0  0  0
  7 12  1  0  0  0  0
  8  7  1  0  0  0  0
  9  8  2  0  0  0  0
 10  9  1  0  0  0  0
 10  5  2  0  0  0  0
 11  5  1  0  0  0  0
 13 18  1  1  0  0  0
 14  9  1  1  0  0  0
 14 13  1  0  0  0  0
 15 14  1  0  0  0  0
 16 15  1  0  0  0  0
 16 17  1  0  0  0  0
 17 20  1  6  0  0  0
 17 13  1  0  0  0  0
 18 19  1  0  0  0  0
 20 21  1  0  0  0  0
 22 23  2  0  0  0  0
 23 24  1  0  0  0  0
 24 27  1  0  0  0  0
 24 26  1  0  0  0  0
 25 24  1  0  0  0  0
 27 29  1  0  0  0  0
 29 28  2  1  0  0  0
 29 30  1  0  0  0  0
 31 30  1  0  0  0  0
 32 29  1  0  0  0  0
 33 35  1  0  0  0  0
 33 32  1  0  0  0  0
 34 33  1  0  0  0  0
 34 38  1  0  0  0  0
 34 35  1  0  0  0  0
 35 40  1  0  0  0  0
 36 33  1  0  0  0  0
 37 34  1  0  0  0  0
 39 35  1  0  0  0  0
M  END
>  <minimizedAffinity>
-5.81801701

$$$$

 OpenBabel03252504343D

 40 42  0  0  1  0  0  0  0  0999 V2000
   35.9050   29.8330   40.4350 O   0  0  0  0  0  0  0  0  0  0  0  0
   36.2910   31.0510   40.8920 C   0  0  0  0  0  0  0  0  0  0  0  0
   35.5710   31.8960   40.8100 H   0  0  0  0  0  0  0  0  0  0  0  0
   36.5550   30.9880   41.9750 H   0  0  0  0  0  0  0  0  0  0  0  0
   37.7860   31.0330   38.9620 C   0  0  0  0  0  0  0  0  0  0  0  0
   37.5290   31.5830   40.2300 C   0  0  0  0  0  0  0  0  0  0  0  0
   38.3820   32.5180   40.7130 C   0  0  0  0  0  0  0  0  0  0  0  0
   39.4160   32.8450   39.9240 N   0  0  0  0  0  0  0  0  0  0  0  0
   39.6680   32.3400   38.7360 C   0  0  0  0  0  0  0  0  0  0  0  0
   38.8230   31.3720   38.1910 N   0  0  0  0  0  0  0  0  0  0  0  0
   37.1370   30.2830   38.5300 H   0  0  0  0  0  0  0  0  0  0  0  0
   38.1560   32.9110   41.6760 H   0  0  0  0  0  0  0  0  0  0  0  0
   41.8400   33.5750   38.5820 C   0  0  1  0  0  3  0  0  0  0  0  0
   40.8290   32.7270   37.8850 C   0  0  1  0  0  3  0  0  0  0  0  0
   41.5930   31.6000   37.5430 O   0  0  0  0  0  0  0  0  0  0  0  0
   42.7160   32.1380   36.9600 C   0  0  0  0  0  2  0  0  0  0  0  0
   43.0130   33.4640   37.5990 C   0  0  1  0  0  3  0  0  0  0  0  0
   41.4580   34.9090   38.6830 O   0  0  0  0  0  0  0  0  0  0  0  0
   41.8770   35.3710   39.4440 H   0  0  0  0  0  0  0  0  0  0  0  0
   42.7960   34.4560   36.6360 O   0  0  0  0  0  0  0  0  0  0  0  0
   41.8420   34.7360   36.5730 H   0  0  0  0  0  0  0  0  0  0  0  0
   35.9610   28.6140   41.0910 C   0  0  0  0  0  3  0  0  0  0  0  0
   36.5440   28.6200   42.2880 C   0  0  0  0  0  3  0  0  0  0  0  0
   36.7050   27.3950   43.1720 C   0  0  0  0  0  0  0  0  0  0  0  0
   36.8030   26.4760   42.5860 H   0  0  0  0  0  0  0  0  0  0  0  0
   35.7840   27.2760   43.7890 H   0  0  0  0  0  0  0  0  0  0  0  0
   37.7790   27.6400   44.0040 O   0  0  0  0  0  0  0  0  0  0  0  0
   40.1360   28.2690   42.9360 O   0  0  0  0  0  0  0  0  0  0  0  0
   39.2150   27.1230   43.2860 P   0  0  1  0  0  0  0  0  0  0  0  0
   40.0670   26.1100   44.3620 O   0  0  0  0  0  0  0  0  0  0  0  0
   39.4840   25.8160   45.1240 H   0  0  0  0  0  0  0  0  0  0  0  0
   38.8810   26.2060   41.9090 O   0  0  0  0  0  0  0  0  0  0  0  0
   38.9970   24.8510   42.1360 C   0  0  0  0  0  0  0  0  0  0  0  0
   38.8760   23.9060   40.9810 C   0  0  0  0  0  0  0  0  0  0  0  0
   37.7280   24.0530   41.9680 C   0  0  0  0  0  0  0  0  0  0  0  0
   39.6450   24.5730   42.9810 H   0  0  0  0  0  0  0  0  0  0  0  0
   39.4350   22.9520   41.0770 H   0  0  0  0  0  0  0  0  0  0  0  0
   38.7810   24.3210   39.9690 H   0  0  0  0  0  0  0  0  0  0  0  0
   37.5110   23.2120   42.6540 H   0  0  0  0  0  0  0  0  0  0  0  0
   36.8410   24.5240   41.5290 H   0  0  0  0  0  0  0  0  0  0  0  0
  1  2  1  0  0  0  0
  1 22  1  0  0  0  0
  2  4  1  0  0  0  0
  3  2  1  0  0  0  0
  5  6  1  0  0  0  0
  6  7  2  0  0  0  0
  6  2  1  0  0  0  0
  7 12  1  0  0  0  0
  8  7  1  0  0  0  0
  9  8  2  0  0  0  0
 10  9  1  0  0  0  0
 10  5  2  0  0  0  0
 11  5  1  0  0  0  0
 13 18  1  6  0  0  0
 14 13  1  0  0  0  0
 14  9  1  1  0  0  0
 15 14  1  0  0  0  0
 16 15  1  0  0  0  0
 16 17  1  0  0  0  0
 17 20  1  6  0  0  0
 17 13  1  0  0  0  0
 18 19  1  0  0  0  0
 21 20  1  0  0  0  0
 22 23  2  0  0  0  0
 23 24  1  0  0  0  0
 24 26  1  0  0  0  0
 24 27  1  0  0  0  0
 25 24  1  0  0  0  0
 29 28  2  6  0  0  0
 29 27  1  0  0  0  0
 29 30  1  0  0  0  0
 30 31  1  0  0  0  0
 32 33  1  0  0  0  0
 32 29  1  0  0  0  0
 33 36  1  0  0  0  0
 34 37  1  0  0  0  0
 34 35  1  0  0  0  0
 34 33  1  0  0  0  0
 35 33  1  0  0  0  0
 35 39  1  0  0  0  0
 38 34  1  0  0  0  0
 40 35  1  0  0  0  0
M  END
>  <minimizedAffinity>
-5.70829105

$$$$

 OpenBabel03252504343D

 40 42  0  0  1  0  0  0  0  0999 V2000
   36.6220   29.5260   41.7110 O   0  0  0  0  0  0  0  0  0  0  0  0
   36.2350   30.5790   40.9470 C   0  0  0  0  0  0  0  0  0  0  0  0
   35.7860   30.3680   39.9500 H   0  0  0  0  0  0  0  0  0  0  0  0
   35.4770   31.1910   41.4930 H   0  0  0  0  0  0  0  0  0  0  0  0
   38.5920   31.1760   41.1680 C   0  0  0  0  0  0  0  0  0  0  0  0
   37.3440   31.5410   40.6320 C   0  0  0  0  0  0  0  0  0  0  0  0
   37.2630   32.6760   39.8980 C   0  0  0  0  0  0  0  0  0  0  0  0
   38.4030   33.3660   39.7410 N   0  0  0  0  0  0  0  0  0  0  0  0
   39.5770   33.0360   40.2340 C   0  0  0  0  0  0  0  0  0  0  0  0
   39.7160   31.8780   41.0000 N   0  0  0  0  0  0  0  0  0  0  0  0
   38.7110   30.2800   41.7620 H   0  0  0  0  0  0  0  0  0  0  0  0
   36.3030   32.9210   39.5100 H   0  0  0  0  0  0  0  0  0  0  0  0
   42.0580   33.1530   40.5420 C   0  0  1  0  0  3  0  0  0  0  0  0
   40.8250   33.8280   40.0400 C   0  0  1  0  0  3  0  0  0  0  0  0
   41.1170   33.9710   38.6740 O   0  0  0  0  0  0  0  0  0  0  0  0
   42.3780   34.5170   38.6700 C   0  0  0  0  0  2  0  0  0  0  0  0
   43.1340   34.0160   39.8680 C   0  0  1  0  0  3  0  0  0  0  0  0
   42.2060   33.2410   41.9220 O   0  0  0  0  0  0  0  0  0  0  0  0
   42.7440   32.5070   42.2970 H   0  0  0  0  0  0  0  0  0  0  0  0
   43.3400   35.1020   40.7230 O   0  0  0  0  0  0  0  0  0  0  0  0
   42.5660   35.2770   41.3260 H   0  0  0  0  0  0  0  0  0  0  0  0
   36.3760   28.1800   41.5000 C   0  0  0  0  0  3  0  0  0  0  0  0
   37.1190   27.5880   40.5670 C   0  0  0  0  0  3  0  0  0  0  0  0
   37.0120   26.1220   40.1850 C   0  0  0  0  0  0  0  0  0  0  0  0
   36.7280   25.9900   39.1370 H   0  0  0  0  0  0  0  0  0  0  0  0
   36.2000   25.6530   40.7900 H   0  0  0  0  0  0  0  0  0  0  0  0
   38.2180   25.5340   40.5110 O   0  0  0  0  0  0  0  0  0  0  0  0
   36.6230   24.4620   42.3550 O   0  0  0  0  0  0  0  0  0  0  0  0
   38.0160   24.4290   41.7690 P   0  0  1  0  0  0  0  0  0  0  0  0
   38.2750   22.8440   41.1920 O   0  0  0  0  0  0  0  0  0  0  0  0
   38.7140   22.8530   40.2900 H   0  0  0  0  0  0  0  0  0  0  0  0
   39.1600   24.7040   42.9770 O   0  0  0  0  0  0  0  0  0  0  0  0
   39.7720   25.9330   42.8550 C   0  0  0  0  0  0  0  0  0  0  0  0
   40.5720   26.4670   44.0030 C   0  0  0  0  0  0  0  0  0  0  0  0
   39.1920   27.0360   43.7060 C   0  0  0  0  0  0  0  0  0  0  0  0
   40.0700   26.2070   41.8310 H   0  0  0  0  0  0  0  0  0  0  0  0
   41.4080   27.1450   43.7350 H   0  0  0  0  0  0  0  0  0  0  0  0
   40.7200   25.8280   44.8830 H   0  0  0  0  0  0  0  0  0  0  0  0
   39.1210   28.0640   43.3030 H   0  0  0  0  0  0  0  0  0  0  0  0
   38.4540   26.7970   44.4800 H   0  0  0  0  0  0  0  0  0  0  0  0
  2  4  1  0  0  0  0
  2  1  1  0  0  0  0
  3  2  1  0  0  0  0
  5 11  1  0  0  0  0
  6  2  1  0  0  0  0
  6  5  2  0  0  0  0
  7  6  1  0  0  0  0
  8  7  2  0  0  0  0
  8  9  1  0  0  0  0
  9 10  2  0  0  0  0
 10  5  1  0  0  0  0
 12  7  1  0  0  0  0
 13 18  1  1  0  0  0
 14  9  1  6  0  0  0
 14 13  1  0  0  0  0
 15 14  1  0  0  0  0
 16 15  1  0  0  0  0
 16 17  1  0  0  0  0
 17 13  1  0  0  0  0
 17 20  1  1  0  0  0
 18 19  1  0  0  0  0
 20 21  1  0  0  0  0
 22  1  1  0  0  0  0
 23 22  2  0  0  0  0
 24 27  1  0  0  0  0
 24 23  1  0  0  0  0
 24 26  1  0  0  0  0
 25 24  1  0  0  0  0
 27 29  1  0  0  0  0
 29 28  2  1  0  0  0
 29 32  1  0  0  0  0
 30 29  1  0  0  0  0
 31 30  1  0  0  0  0
 33 32  1  0  0  0  0
 33 35  1  0  0  0  0
 33 34  1  0  0  0  0
 34 38  1  0  0  0  0
 35 34  1  0  0  0  0
 35 40  1  0  0  0  0
 36 33  1  0  0  0  0
 37 34  1  0  0  0  0
 39 35  1  0  0  0  0
M  END
>  <minimizedAffinity>
-5.52917767

$$$$

 OpenBabel03252504343D

 40 42  0  0  1  0  0  0  0  0999 V2000
   36.1610   29.5200   40.3750 O   0  0  0  0  0  0  0  0  0  0  0  0
   35.8560   28.5970   41.3220 C   0  0  0  0  0  0  0  0  0  0  0  0
   35.1840   28.9030   42.1560 H   0  0  0  0  0  0  0  0  0  0  0  0
   35.3650   27.7120   40.8520 H   0  0  0  0  0  0  0  0  0  0  0  0
   38.0560   27.5490   41.1710 C   0  0  0  0  0  0  0  0  0  0  0  0
   37.0540   28.0350   42.0300 C   0  0  0  0  0  0  0  0  0  0  0  0
   37.2620   27.9650   43.3670 C   0  0  0  0  0  0  0  0  0  0  0  0
   38.4270   27.4310   43.7630 N   0  0  0  0  0  0  0  0  0  0  0  0
   39.3720   26.9750   42.9710 C   0  0  0  0  0  0  0  0  0  0  0  0
   39.2100   27.0200   41.5850 N   0  0  0  0  0  0  0  0  0  0  0  0
   37.9410   27.5800   40.0960 H   0  0  0  0  0  0  0  0  0  0  0  0
   36.4820   28.3420   43.9860 H   0  0  0  0  0  0  0  0  0  0  0  0
   41.6990   26.2610   42.3830 C   0  0  1  0  0  3  0  0  0  0  0  0
   40.6570   26.3860   43.4450 C   0  0  1  0  0  3  0  0  0  0  0  0
   41.2900   27.2420   44.3610 O   0  0  0  0  0  0  0  0  0  0  0  0
   42.5300   26.6740   44.5290 C   0  0  0  0  0  2  0  0  0  0  0  0
   42.9400   26.0050   43.2470 C   0  0  1  0  0  3  0  0  0  0  0  0
   41.4970   25.1700   41.5440 O   0  0  0  0  0  0  0  0  0  0  0  0
   41.8950   25.2920   40.6530 H   0  0  0  0  0  0  0  0  0  0  0  0
   42.9640   24.6260   43.4780 O   0  0  0  0  0  0  0  0  0  0  0  0
   42.0690   24.1980   43.3770 H   0  0  0  0  0  0  0  0  0  0  0  0
   36.6090   30.8180   40.5560 C   0  0  0  0  0  3  0  0  0  0  0  0
   36.9710   31.4720   39.4540 C   0  0  0  0  0  3  0  0  0  0  0  0
   37.4850   32.9010   39.4320 C   0  0  0  0  0  0  0  0  0  0  0  0
   37.2620   33.4320   40.3620 H   0  0  0  0  0  0  0  0  0  0  0  0
   36.9600   33.4580   38.6210 H   0  0  0  0  0  0  0  0  0  0  0  0
   38.8330   32.8370   39.1390 O   0  0  0  0  0  0  0  0  0  0  0  0
   40.5220   34.7930   39.7820 O   0  0  0  0  0  0  0  0  0  0  0  0
   39.7350   33.6230   40.3270 P   0  0  1  0  0  0  0  0  0  0  0  0
   38.6930   34.2400   41.5290 O   0  0  0  0  0  0  0  0  0  0  0  0
   37.7740   33.8470   41.4500 H   0  0  0  0  0  0  0  0  0  0  0  0
   40.7720   32.5330   41.0900 O   0  0  0  0  0  0  0  0  0  0  0  0
   40.2150   31.2780   41.2220 C   0  0  0  0  0  0  0  0  0  0  0  0
   39.7370   30.8310   42.5690 C   0  0  0  0  0  0  0  0  0  0  0  0
   41.0370   30.2810   42.0000 C   0  0  0  0  0  0  0  0  0  0  0  0
   39.7000   30.8990   40.3250 H   0  0  0  0  0  0  0  0  0  0  0  0
   38.8990   30.1030   42.5660 H   0  0  0  0  0  0  0  0  0  0  0  0
   39.7660   31.5450   43.4010 H   0  0  0  0  0  0  0  0  0  0  0  0
   41.0660   29.2220   41.6800 H   0  0  0  0  0  0  0  0  0  0  0  0
   41.9230   30.6150   42.5510 H   0  0  0  0  0  0  0  0  0  0  0  0
  1 22  1  0  0  0  0
  1  2  1  0  0  0  0
  2  6  1  0  0  0  0
  2  3  1  0  0  0  0
  4  2  1  0  0  0  0
  5 10  2  0  0  0  0
  5  6  1  0  0  0  0
  6  7  2  0  0  0  0
  7  8  1  0  0  0  0
  7 12  1  0  0  0  0
  9  8  2  0  0  0  0
 10  9  1  0  0  0  0
 11  5  1  0  0  0  0
 13 18  1  6  0  0  0
 13 17  1  0  0  0  0
 13 14  1  0  0  0  0
 14  9  1  6  0  0  0
 14 15  1  0  0  0  0
 15 16  1  0  0  0  0
 17 20  1  1  0  0  0
 17 16  1  0  0  0  0
 19 18  1  0  0  0  0
 21 20  1  0  0  0  0
 23 22  2  0  0  0  0
 24 23  1  0  0  0  0
 24 25  1  0  0  0  0
 26 24  1  0  0  0  0
 27 24  1  0  0  0  0
 27 29  1  0  0  0  0
 29 28  2  6  0  0  0
 29 32  1  0  0  0  0
 29 30  1  0  0  0  0
 31 30  1  0  0  0  0
 32 33  1  0  0  0  0
 33 35  1  0  0  0  0
 33 34  1  0  0  0  0
 34 38  1  0  0  0  0
 35 40  1  0  0  0  0
 35 34  1  0  0  0  0
 36 33  1  0  0  0  0
 37 34  1  0  0  0  0
 39 35  1  0  0  0  0
M  END
>  <minimizedAffinity>
-5.49723005

$$$$

 OpenBabel03252504343D

 40 42  0  0  1  0  0  0  0  0999 V2000
   37.3460   31.8010   39.1200 O   0  0  0  0  0  0  0  0  0  0  0  0
   37.5170   32.6270   40.1830 C   0  0  0  0  0  0  0  0  0  0  0  0
   36.8310   33.4980   40.2880 H   0  0  0  0  0  0  0  0  0  0  0  0
   37.4180   32.0520   41.1350 H   0  0  0  0  0  0  0  0  0  0  0  0
   39.9240   32.3290   40.4680 C   0  0  0  0  0  0  0  0  0  0  0  0
   38.8820   33.2490   40.2550 C   0  0  0  0  0  0  0  0  0  0  0  0
   39.1950   34.5600   40.1270 C   0  0  0  0  0  0  0  0  0  0  0  0
   40.4970   34.8730   40.2130 N   0  0  0  0  0  0  0  0  0  0  0  0
   41.4810   34.0240   40.4090 C   0  0  0  0  0  0  0  0  0  0  0  0
   41.2150   32.6610   40.5510 N   0  0  0  0  0  0  0  0  0  0  0  0
   39.7280   31.2710   40.5780 H   0  0  0  0  0  0  0  0  0  0  0  0
   38.3810   35.2270   39.9680 H   0  0  0  0  0  0  0  0  0  0  0  0
   43.5990   33.9280   41.7390 C   0  0  1  0  0  3  0  0  0  0  0  0
   42.9190   34.4060   40.5000 C   0  0  1  0  0  3  0  0  0  0  0  0
   43.6690   33.7660   39.5010 O   0  0  0  0  0  0  0  0  0  0  0  0
   44.9700   34.0420   39.8490 C   0  0  0  0  0  2  0  0  0  0  0  0
   45.0670   34.1420   41.3440 C   0  0  1  0  0  3  0  0  0  0  0  0
   43.3120   34.7050   42.8560 O   0  0  0  0  0  0  0  0  0  0  0  0
   43.4030   34.2100   43.7020 H   0  0  0  0  0  0  0  0  0  0  0  0
   45.3540   35.4740   41.6620 O   0  0  0  0  0  0  0  0  0  0  0  0
   44.5410   36.0480   41.7080 H   0  0  0  0  0  0  0  0  0  0  0  0
   36.9200   30.4840   39.1190 C   0  0  0  0  0  3  0  0  0  0  0  0
   37.1590   29.7900   40.2300 C   0  0  0  0  0  3  0  0  0  0  0  0
   36.7710   28.3360   40.4360 C   0  0  0  0  0  0  0  0  0  0  0  0
   37.6440   27.6770   40.4540 H   0  0  0  0  0  0  0  0  0  0  0  0
   36.1490   28.0060   39.5720 H   0  0  0  0  0  0  0  0  0  0  0  0
   36.0120   28.2840   41.5880 O   0  0  0  0  0  0  0  0  0  0  0  0
   37.9230   29.0750   43.2660 O   0  0  0  0  0  0  0  0  0  0  0  0
   36.9840   27.9410   42.9230 P   0  0  1  0  0  0  0  0  0  0  0  0
   36.0070   27.6720   44.2950 O   0  0  0  0  0  0  0  0  0  0  0  0
   35.0470   27.5390   44.0370 H   0  0  0  0  0  0  0  0  0  0  0  0
   37.8610   26.5240   42.6590 O   0  0  0  0  0  0  0  0  0  0  0  0
   39.2230   26.7310   42.6960 C   0  0  0  0  0  0  0  0  0  0  0  0
   40.1390   25.5470   42.7420 C   0  0  0  0  0  0  0  0  0  0  0  0
   39.9000   26.3750   43.9960 C   0  0  0  0  0  0  0  0  0  0  0  0
   39.5700   27.6480   42.1950 H   0  0  0  0  0  0  0  0  0  0  0  0
   41.1410   25.6930   42.2880 H   0  0  0  0  0  0  0  0  0  0  0  0
   39.7040   24.5430   42.6610 H   0  0  0  0  0  0  0  0  0  0  0  0
   40.7260   27.0040   44.3780 H   0  0  0  0  0  0  0  0  0  0  0  0
   39.3450   25.8320   44.7690 H   0  0  0  0  0  0  0  0  0  0  0  0
  1  2  1  0  0  0  0
  2  6  1  0  0  0  0
  2  3  1  0  0  0  0
  2  4  1  0  0  0  0
  5 10  1  0  0  0  0
  5 11  1  0  0  0  0
  6  5  2  0  0  0  0
  7  8  2  0  0  0  0
  7  6  1  0  0  0  0
  8  9  1  0  0  0  0
  9 10  2  0  0  0  0
 12  7  1  0  0  0  0
 13 18  1  1  0  0  0
 14  9  1  1  0  0  0
 14 13  1  0  0  0  0
 15 16  1  0  0  0  0
 15 14  1  0  0  0  0
 16 17  1  0  0  0  0
 17 20  1  6  0  0  0
 17 13  1  0  0  0  0
 18 19  1  0  0  0  0
 20 21  1  0  0  0  0
 22  1  1  0  0  0  0
 22 23  2  0  0  0  0
 23 24  1  0  0  0  0
 24 25  1  0  0  0  0
 24 27  1  0  0  0  0
 26 24  1  0  0  0  0
 27 29  1  0  0  0  0
 29 28  2  1  0  0  0
 29 30  1  0  0  0  0
 31 30  1  0  0  0  0
 32 33  1  0  0  0  0
 32 29  1  0  0  0  0
 33 34  1  0  0  0  0
 33 35  1  0  0  0  0
 34 35  1  0  0  0  0
 35 39  1  0  0  0  0
 35 40  1  0  0  0  0
 36 33  1  0  0  0  0
 37 34  1  0  0  0  0
 38 34  1  0  0  0  0
M  END
>  <minimizedAffinity>
-5.43010473

$$$$

 OpenBabel03252504343D

 40 42  0  0  1  0  0  0  0  0999 V2000
   36.8920   26.3900   38.5730 O   0  0  0  0  0  0  0  0  0  0  0  0
   36.3100   27.3870   37.8590 C   0  0  0  0  0  0  0  0  0  0  0  0
   36.4180   27.3710   36.7500 H   0  0  0  0  0  0  0  0  0  0  0  0
   35.2100   27.4050   38.0520 H   0  0  0  0  0  0  0  0  0  0  0  0
   38.1750   28.9390   38.1250 C   0  0  0  0  0  0  0  0  0  0  0  0
   36.7850   28.7600   38.2350 C   0  0  0  0  0  0  0  0  0  0  0  0
   36.0290   29.8080   38.6420 C   0  0  0  0  0  0  0  0  0  0  0  0
   36.6850   30.9480   38.9080 N   0  0  0  0  0  0  0  0  0  0  0  0
   37.9840   31.1300   38.8080 C   0  0  0  0  0  0  0  0  0  0  0  0
   38.8100   30.0830   38.3950 N   0  0  0  0  0  0  0  0  0  0  0  0
   38.8240   28.1350   37.8060 H   0  0  0  0  0  0  0  0  0  0  0  0
   34.9820   29.6360   38.7140 H   0  0  0  0  0  0  0  0  0  0  0  0
   38.0750   33.1830   40.2370 C   0  0  1  0  0  3  0  0  0  0  0  0
   38.6810   32.4120   39.1120 C   0  0  1  0  0  3  0  0  0  0  0  0
   39.9760   32.1720   39.5990 O   0  0  0  0  0  0  0  0  0  0  0  0
   40.3920   33.4090   40.0280 C   0  0  0  0  0  2  0  0  0  0  0  0
   39.2030   34.1840   40.5200 C   0  0  1  0  0  3  0  0  0  0  0  0
   36.9300   33.8830   39.8660 O   0  0  0  0  0  0  0  0  0  0  0  0
   36.3210   34.0480   40.6210 H   0  0  0  0  0  0  0  0  0  0  0  0
   38.9970   35.2480   39.6360 O   0  0  0  0  0  0  0  0  0  0  0  0
   38.4600   34.9930   38.8360 H   0  0  0  0  0  0  0  0  0  0  0  0
   36.7520   26.1080   39.9220 C   0  0  0  0  0  3  0  0  0  0  0  0
   37.8350   26.2920   40.6740 C   0  0  0  0  0  3  0  0  0  0  0  0
   37.8930   26.0460   42.1720 C   0  0  0  0  0  0  0  0  0  0  0  0
   38.8780   26.2770   42.5880 H   0  0  0  0  0  0  0  0  0  0  0  0
   37.7210   24.9610   42.3620 H   0  0  0  0  0  0  0  0  0  0  0  0
   36.8660   26.7750   42.7370 O   0  0  0  0  0  0  0  0  0  0  0  0
   36.7820   29.3320   42.0000 O   0  0  0  0  0  0  0  0  0  0  0  0
   37.3520   28.3660   43.0130 P   0  0  1  0  0  0  0  0  0  0  0  0
   36.8090   28.8780   44.5470 O   0  0  0  0  0  0  0  0  0  0  0  0
   36.5030   28.1000   45.1030 H   0  0  0  0  0  0  0  0  0  0  0  0
   39.0350   28.4680   43.0290 O   0  0  0  0  0  0  0  0  0  0  0  0
   39.5160   29.4050   42.1400 C   0  0  0  0  0  0  0  0  0  0  0  0
   40.9550   29.8140   42.2170 C   0  0  0  0  0  0  0  0  0  0  0  0
   39.8690   30.7460   42.7340 C   0  0  0  0  0  0  0  0  0  0  0  0
   39.0160   29.4180   41.1590 H   0  0  0  0  0  0  0  0  0  0  0  0
   41.4160   30.1420   41.2630 H   0  0  0  0  0  0  0  0  0  0  0  0
   41.6100   29.2950   42.9280 H   0  0  0  0  0  0  0  0  0  0  0  0
   39.6560   31.6730   42.1680 H   0  0  0  0  0  0  0  0  0  0  0  0
   39.8920   30.8710   43.8230 H   0  0  0  0  0  0  0  0  0  0  0  0
  1 22  1  0  0  0  0
  2  4  1  0  0  0  0
  2  6  1  0  0  0  0
  2  1  1  0  0  0  0
  3  2  1  0  0  0  0
  5  6  2  0  0  0  0
  5 10  1  0  0  0  0
  6  7  1  0  0  0  0
  7 12  1  0  0  0  0
  7  8  2  0  0  0  0
  9  8  1  0  0  0  0
 10  9  2  0  0  0  0
 11  5  1  0  0  0  0
 13 18  1  6  0  0  0
 13 17  1  0  0  0  0
 14  9  1  1  0  0  0
 14 15  1  0  0  0  0
 14 13  1  0  0  0  0
 15 16  1  0  0  0  0
 16 17  1  0  0  0  0
 17 20  1  6  0  0  0
 18 19  1  0  0  0  0
 21 20  1  0  0  0  0
 22 23  2  0  0  0  0
 23 24  1  0  0  0  0
 24 26  1  0  0  0  0
 24 25  1  0  0  0  0
 24 27  1  0  0  0  0
 27 29  1  0  0  0  0
 29 28  2  6  0  0  0
 29 32  1  0  0  0  0
 29 30  1  0  0  0  0
 30 31  1  0  0  0  0
 33 34  1  0  0  0  0
 33 35  1  0  0  0  0
 33 32  1  0  0  0  0
 34 35  1  0  0  0  0
 34 38  1  0  0  0  0
 35 40  1  0  0  0  0
 36 33  1  0  0  0  0
 37 34  1  0  0  0  0
 39 35  1  0  0  0  0
M  END
>  <minimizedAffinity>
-5.3555131

$$$$

 OpenBabel03252504343D

 40 42  0  0  1  0  0  0  0  0999 V2000
   36.3100   28.0730   37.6860 O   0  0  0  0  0  0  0  0  0  0  0  0
   35.6580   29.2580   37.7920 C   0  0  0  0  0  0  0  0  0  0  0  0
   35.3790   29.7910   36.8550 H   0  0  0  0  0  0  0  0  0  0  0  0
   34.7030   29.1220   38.3540 H   0  0  0  0  0  0  0  0  0  0  0  0
   37.4150   30.9540   37.8350 C   0  0  0  0  0  0  0  0  0  0  0  0
   36.4110   30.2980   38.5710 C   0  0  0  0  0  0  0  0  0  0  0  0
   36.2160   30.6600   39.8610 C   0  0  0  0  0  0  0  0  0  0  0  0
   37.0100   31.6330   40.3330 N   0  0  0  0  0  0  0  0  0  0  0  0
   37.9500   32.2560   39.6570 C   0  0  0  0  0  0  0  0  0  0  0  0
   38.1950   31.9200   38.3250 N   0  0  0  0  0  0  0  0  0  0  0  0
   37.6130   30.7020   36.8020 H   0  0  0  0  0  0  0  0  0  0  0  0
   35.4490   30.1420   40.3860 H   0  0  0  0  0  0  0  0  0  0  0  0
   40.0920   33.5370   39.4680 C   0  0  1  0  0  3  0  0  0  0  0  0
   38.8150   33.3340   40.2140 C   0  0  1  0  0  3  0  0  0  0  0  0
   38.2020   34.5890   40.0710 O   0  0  0  0  0  0  0  0  0  0  0  0
   39.1940   35.4740   40.4210 C   0  0  0  0  0  2  0  0  0  0  0  0
   40.5260   34.8960   40.0350 C   0  0  1  0  0  3  0  0  0  0  0  0
   41.0610   32.5880   39.7750 O   0  0  0  0  0  0  0  0  0  0  0  0
   41.7120   32.4560   39.0490 H   0  0  0  0  0  0  0  0  0  0  0  0
   41.2210   34.6110   41.2140 O   0  0  0  0  0  0  0  0  0  0  0  0
   40.9850   33.7230   41.6020 H   0  0  0  0  0  0  0  0  0  0  0  0
   36.1330   26.9270   38.4440 C   0  0  0  0  0  3  0  0  0  0  0  0
   37.2430   26.3300   38.8720 C   0  0  0  0  0  3  0  0  0  0  0  0
   37.2700   25.0690   39.7180 C   0  0  0  0  0  0  0  0  0  0  0  0
   37.1340   24.1670   39.1140 H   0  0  0  0  0  0  0  0  0  0  0  0
   36.4130   25.0990   40.4310 H   0  0  0  0  0  0  0  0  0  0  0  0
   38.4530   25.0880   40.4290 O   0  0  0  0  0  0  0  0  0  0  0  0
   36.7340   24.5600   42.3920 O   0  0  0  0  0  0  0  0  0  0  0  0
   38.1510   24.9880   42.0840 P   0  0  1  0  0  0  0  0  0  0  0  0
   39.1850   23.8290   42.7910 O   0  0  0  0  0  0  0  0  0  0  0  0
   39.9300   23.5780   42.1680 H   0  0  0  0  0  0  0  0  0  0  0  0
   38.4850   26.4630   42.8290 O   0  0  0  0  0  0  0  0  0  0  0  0
   37.3420   27.1470   43.1850 C   0  0  0  0  0  0  0  0  0  0  0  0
   36.6400   27.9790   42.1570 C   0  0  0  0  0  0  0  0  0  0  0  0
   37.4730   28.6490   43.2400 C   0  0  0  0  0  0  0  0  0  0  0  0
   36.7440   26.6750   43.9810 H   0  0  0  0  0  0  0  0  0  0  0  0
   35.5450   28.0930   42.2930 H   0  0  0  0  0  0  0  0  0  0  0  0
   37.0080   27.9570   41.1230 H   0  0  0  0  0  0  0  0  0  0  0  0
   36.9490   29.2190   44.0310 H   0  0  0  0  0  0  0  0  0  0  0  0
   38.3750   29.1330   42.8500 H   0  0  0  0  0  0  0  0  0  0  0  0
  1  2  1  0  0  0  0
  1 22  1  0  0  0  0
  2  4  1  0  0  0  0
  2  6  1  0  0  0  0
  3  2  1  0  0  0  0
  5 10  2  0  0  0  0
  5  6  1  0  0  0  0
  6  7  2  0  0  0  0
  7  8  1  0  0  0  0
  7 12  1  0  0  0  0
  9  8  2  0  0  0  0
 10  9  1  0  0  0  0
 11  5  1  0  0  0  0
 13 18  1  1  0  0  0
 13 17  1  0  0  0  0
 13 14  1  0  0  0  0
 14  9  1  6  0  0  0
 15 14  1  0  0  0  0
 15 16  1  0  0  0  0
 17 16  1  0  0  0  0
 17 20  1  1  0  0  0
 19 18  1  0  0  0  0
 20 21  1  0  0  0  0
 22 23  2  0  0  0  0
 23 24  1  0  0  0  0
 24 27  1  0  0  0  0
 24 26  1  0  0  0  0
 25 24  1  0  0  0  0
 27 29  1  0  0  0  0
 29 28  2  1  0  0  0
 29 30  1  0  0  0  0
 29 32  1  0  0  0  0
 31 30  1  0  0  0  0
 32 33  1  0  0  0  0
 33 35  1  0  0  0  0
 33 36  1  0  0  0  0
 34 37  1  0  0  0  0
 34 33  1  0  0  0  0
 34 35  1  0  0  0  0
 35 39  1  0  0  0  0
 38 34  1  0  0  0  0
 40 35  1  0  0  0  0
M  END
>  <minimizedAffinity>
-5.34031677

$$$$

 OpenBabel03252504343D

 40 42  0  0  1  0  0  0  0  0999 V2000
   36.6150   30.9980   40.0930 O   0  0  0  0  0  0  0  0  0  0  0  0
   37.0110   32.2420   39.7240 C   0  0  0  0  0  0  0  0  0  0  0  0
   36.4260   32.7670   38.9350 H   0  0  0  0  0  0  0  0  0  0  0  0
   37.0030   32.9260   40.6070 H   0  0  0  0  0  0  0  0  0  0  0  0
   39.3150   32.9800   40.0590 C   0  0  0  0  0  0  0  0  0  0  0  0
   38.4200   32.3030   39.2100 C   0  0  0  0  0  0  0  0  0  0  0  0
   38.8980   31.7780   38.0560 C   0  0  0  0  0  0  0  0  0  0  0  0
   40.2070   31.9500   37.8210 N   0  0  0  0  0  0  0  0  0  0  0  0
   41.0550   32.5780   38.6060 C   0  0  0  0  0  0  0  0  0  0  0  0
   40.6160   33.1400   39.8050 N   0  0  0  0  0  0  0  0  0  0  0  0
   38.9850   33.4180   40.9910 H   0  0  0  0  0  0  0  0  0  0  0  0
   38.1920   31.2750   37.4390 H   0  0  0  0  0  0  0  0  0  0  0  0
   42.8910   34.1440   37.9430 C   0  0  1  0  0  3  0  0  0  0  0  0
   42.5060   32.7500   38.3130 C   0  0  1  0  0  3  0  0  0  0  0  0
   43.2760   32.5420   39.4680 O   0  0  0  0  0  0  0  0  0  0  0  0
   44.5350   32.9440   39.0920 C   0  0  0  0  0  2  0  0  0  0  0  0
   44.4160   34.0520   38.0850 C   0  0  1  0  0  3  0  0  0  0  0  0
   42.5770   34.4670   36.6270 O   0  0  0  0  0  0  0  0  0  0  0  0
   42.4460   35.4330   36.4900 H   0  0  0  0  0  0  0  0  0  0  0  0
   44.8830   33.5630   36.8600 O   0  0  0  0  0  0  0  0  0  0  0  0
   44.1870   33.0660   36.3480 H   0  0  0  0  0  0  0  0  0  0  0  0
   36.7160   30.4020   41.3390 C   0  0  0  0  0  3  0  0  0  0  0  0
   37.1680   29.1500   41.3540 C   0  0  0  0  0  3  0  0  0  0  0  0
   37.3570   28.3190   42.6120 C   0  0  0  0  0  0  0  0  0  0  0  0
   36.8250   28.7440   43.4680 H   0  0  0  0  0  0  0  0  0  0  0  0
   38.4390   28.3230   42.8840 H   0  0  0  0  0  0  0  0  0  0  0  0
   36.9720   27.0300   42.3020 O   0  0  0  0  0  0  0  0  0  0  0  0
   37.9060   24.5370   42.3110 O   0  0  0  0  0  0  0  0  0  0  0  0
   38.3030   25.9950   42.3150 P   0  0  1  0  0  0  0  0  0  0  0  0
   39.2510   26.2570   40.9210 O   0  0  0  0  0  0  0  0  0  0  0  0
   38.9930   27.1100   40.4610 H   0  0  0  0  0  0  0  0  0  0  0  0
   39.2850   26.3240   43.6460 O   0  0  0  0  0  0  0  0  0  0  0  0
   40.6150   26.4480   43.3030 C   0  0  0  0  0  0  0  0  0  0  0  0
   41.6150   26.7760   44.3690 C   0  0  0  0  0  0  0  0  0  0  0  0
   41.1790   27.8450   43.3770 C   0  0  0  0  0  0  0  0  0  0  0  0
   40.9360   25.8310   42.4490 H   0  0  0  0  0  0  0  0  0  0  0  0
   42.6430   26.3950   44.2000 H   0  0  0  0  0  0  0  0  0  0  0  0
   41.2750   26.8290   45.4110 H   0  0  0  0  0  0  0  0  0  0  0  0
   41.9070   28.1860   42.6160 H   0  0  0  0  0  0  0  0  0  0  0  0
   40.5920   28.6460   43.8400 H   0  0  0  0  0  0  0  0  0  0  0  0
  1 22  1  0  0  0  0
  2  1  1  0  0  0  0
  2  4  1  0  0  0  0
  3  2  1  0  0  0  0
  5 11  1  0  0  0  0
  6  2  1  0  0  0  0
  6  5  2  0  0  0  0
  7  6  1  0  0  0  0
  8  7  2  0  0  0  0
  8  9  1  0  0  0  0
  9 10  2  0  0  0  0
 10  5  1  0  0  0  0
 12  7  1  0  0  0  0
 13 18  1  6  0  0  0
 13 17  1  0  0  0  0
 13 14  1  0  0  0  0
 14  9  1  1  0  0  0
 14 15  1  0  0  0  0
 16 15  1  0  0  0  0
 17 20  1  6  0  0  0
 17 16  1  0  0  0  0
 19 18  1  0  0  0  0
 21 20  1  0  0  0  0
 22 23  2  0  0  0  0
 23 24  1  0  0  0  0
 24 26  1  0  0  0  0
 24 25  1  0  0  0  0
 27 29  1  0  0  0  0
 27 24  1  0  0  0  0
 29 28  2  1  0  0  0
 29 32  1  0  0  0  0
 30 29  1  0  0  0  0
 31 30  1  0  0  0  0
 33 35  1  0  0  0  0
 33 32  1  0  0  0  0
 33 34  1  0  0  0  0
 34 38  1  0  0  0  0
 35 40  1  0  0  0  0
 35 34  1  0  0  0  0
 36 33  1  0  0  0  0
 37 34  1  0  0  0  0
 39 35  1  0  0  0  0
M  END
>  <minimizedAffinity>
-5.31197882

$$$$

 OpenBabel03252504343D

 40 42  0  0  1  0  0  0  0  0999 V2000
   36.2150   29.5790   40.2700 O   0  0  0  0  0  0  0  0  0  0  0  0
   36.1660   30.7760   40.9070 C   0  0  0  0  0  0  0  0  0  0  0  0
   35.2680   31.4160   40.7530 H   0  0  0  0  0  0  0  0  0  0  0  0
   36.2410   30.6260   42.0110 H   0  0  0  0  0  0  0  0  0  0  0  0
   38.5420   31.2990   41.1190 C   0  0  0  0  0  0  0  0  0  0  0  0
   37.3070   31.6910   40.5700 C   0  0  0  0  0  0  0  0  0  0  0  0
   37.2670   32.8080   39.8050 C   0  0  0  0  0  0  0  0  0  0  0  0
   38.4290   33.4550   39.6330 N   0  0  0  0  0  0  0  0  0  0  0  0
   39.5900   33.0990   40.1380 C   0  0  0  0  0  0  0  0  0  0  0  0
   39.6890   31.9580   40.9350 N   0  0  0  0  0  0  0  0  0  0  0  0
   38.6290   30.4150   41.7370 H   0  0  0  0  0  0  0  0  0  0  0  0
   36.3160   33.0740   39.4080 H   0  0  0  0  0  0  0  0  0  0  0  0
   42.0640   33.1750   40.5130 C   0  0  1  0  0  3  0  0  0  0  0  0
   40.8640   33.8420   39.9270 C   0  0  1  0  0  3  0  0  0  0  0  0
   41.2000   33.8790   38.5640 O   0  0  0  0  0  0  0  0  0  0  0  0
   42.4750   34.3920   38.5600 C   0  0  0  0  0  2  0  0  0  0  0  0
   43.1820   33.9590   39.8130 C   0  0  1  0  0  3  0  0  0  0  0  0
   42.1740   33.3580   41.8880 O   0  0  0  0  0  0  0  0  0  0  0  0
   42.6800   32.6400   42.3300 H   0  0  0  0  0  0  0  0  0  0  0  0
   43.3930   35.0990   40.5940 O   0  0  0  0  0  0  0  0  0  0  0  0
   42.6070   35.3370   41.1590 H   0  0  0  0  0  0  0  0  0  0  0  0
   36.4880   28.3320   40.8080 C   0  0  0  0  0  3  0  0  0  0  0  0
   36.6070   28.2800   42.1340 C   0  0  0  0  0  3  0  0  0  0  0  0
   36.9000   27.0150   42.9210 C   0  0  0  0  0  0  0  0  0  0  0  0
   37.2150   26.1920   42.2740 H   0  0  0  0  0  0  0  0  0  0  0  0
   35.9610   26.6780   43.4200 H   0  0  0  0  0  0  0  0  0  0  0  0
   37.8300   27.3500   43.8850 O   0  0  0  0  0  0  0  0  0  0  0  0
   40.0790   28.4630   42.9940 O   0  0  0  0  0  0  0  0  0  0  0  0
   39.3960   27.1480   43.2920 P   0  0  1  0  0  0  0  0  0  0  0  0
   40.3530   26.3420   44.4520 O   0  0  0  0  0  0  0  0  0  0  0  0
   39.7850   25.9330   45.1710 H   0  0  0  0  0  0  0  0  0  0  0  0
   39.3770   26.1790   41.9120 O   0  0  0  0  0  0  0  0  0  0  0  0
   40.6400   25.7810   41.5290 C   0  0  0  0  0  0  0  0  0  0  0  0
   41.2760   26.4250   40.3350 C   0  0  0  0  0  0  0  0  0  0  0  0
   40.7150   25.0140   40.2320 C   0  0  0  0  0  0  0  0  0  0  0  0
   41.2880   25.4300   42.3470 H   0  0  0  0  0  0  0  0  0  0  0  0
   42.3850   26.4710   40.3450 H   0  0  0  0  0  0  0  0  0  0  0  0
   40.7530   27.2560   39.8450 H   0  0  0  0  0  0  0  0  0  0  0  0
   41.4240   24.1700   40.1310 H   0  0  0  0  0  0  0  0  0  0  0  0
   39.8330   24.9490   39.5850 H   0  0  0  0  0  0  0  0  0  0  0  0
  1 22  1  0  0  0  0
  1  2  1  0  0  0  0
  2  4  1  0  0  0  0
  3  2  1  0  0  0  0
  5 11  1  0  0  0  0
  6  2  1  0  0  0  0
  6  5  2  0  0  0  0
  7  6  1  0  0  0  0
  8  7  2  0  0  0  0
  8  9  1  0  0  0  0
  9 10  2  0  0  0  0
 10  5  1  0  0  0  0
 12  7  1  0  0  0  0
 13 18  1  1  0  0  0
 14  9  1  6  0  0  0
 14 13  1  0  0  0  0
 15 14  1  0  0  0  0
 16 15  1  0  0  0  0
 16 17  1  0  0  0  0
 17 13  1  0  0  0  0
 17 20  1  1  0  0  0
 18 19  1  0  0  0  0
 20 21  1  0  0  0  0
 22 23  2  0  0  0  0
 23 24  1  0  0  0  0
 24 26  1  0  0  0  0
 24 27  1  0  0  0  0
 25 24  1  0  0  0  0
 29 28  2  6  0  0  0
 29 27  1  0  0  0  0
 29 30  1  0  0  0  0
 30 31  1  0  0  0  0
 32 29  1  0  0  0  0
 33 32  1  0  0  0  0
 33 36  1  0  0  0  0
 34 37  1  0  0  0  0
 34 33  1  0  0  0  0
 35 34  1  0  0  0  0
 35 33  1  0  0  0  0
 38 34  1  0  0  0  0
 39 35  1  0  0  0  0
 40 35  1  0  0  0  0
M  END
>  <minimizedAffinity>
-5.16326904

$$$$
