
 OpenBabel03252504323D

 40 42  0  0  1  0  0  0  0  0999 V2000
   42.5910   35.4160   40.5670 O   0  0  0  0  0  0  0  0  0  0  0  0
   41.3950   35.6210   41.1730 C   0  0  0  0  0  0  0  0  0  0  0  0
   41.3850   35.7840   42.2750 H   0  0  0  0  0  0  0  0  0  0  0  0
   40.8900   36.5150   40.7340 H   0  0  0  0  0  0  0  0  0  0  0  0
   40.7090   33.3430   41.7250 C   0  0  0  0  0  0  0  0  0  0  0  0
   40.4160   34.4990   40.9790 C   0  0  0  0  0  0  0  0  0  0  0  0
   39.3110   34.4980   40.1960 C   0  0  0  0  0  0  0  0  0  0  0  0
   38.5780   33.3750   40.2000 N   0  0  0  0  0  0  0  0  0  0  0  0
   38.8400   32.2880   40.8930 C   0  0  0  0  0  0  0  0  0  0  0  0
   39.9660   32.2340   41.7150 N   0  0  0  0  0  0  0  0  0  0  0  0
   41.5790   33.2910   42.3660 H   0  0  0  0  0  0  0  0  0  0  0  0
   39.1210   35.3900   39.6460 H   0  0  0  0  0  0  0  0  0  0  0  0
   38.3570   30.0950   39.7880 C   0  0  1  0  0  3  0  0  0  0  0  0
   38.0030   31.0550   40.8740 C   0  0  1  0  0  3  0  0  0  0  0  0
   38.2310   30.2790   42.0220 O   0  0  0  0  0  0  0  0  0  0  0  0
   37.5670   29.1050   41.7540 C   0  0  0  0  0  2  0  0  0  0  0  0
   37.6110   28.8450   40.2750 C   0  0  1  0  0  3  0  0  0  0  0  0
   37.8550   30.4650   38.5440 O   0  0  0  0  0  0  0  0  0  0  0  0
   38.3810   30.1050   37.7950 H   0  0  0  0  0  0  0  0  0  0  0  0
   36.3060   28.9670   39.7870 O   0  0  0  0  0  0  0  0  0  0  0  0
   36.0530   29.9090   39.5810 H   0  0  0  0  0  0  0  0  0  0  0  0
   43.8440   35.3330   41.1510 C   0  0  0  0  0  3  0  0  0  0  0  0
   43.9080   35.6370   42.4460 C   0  0  0  0  0  3  0  0  0  0  0  0
   45.1810   35.6060   43.2740 C   0  0  0  0  0  0  0  0  0  0  0  0
   45.4670   36.6020   43.6240 H   0  0  0  0  0  0  0  0  0  0  0  0
   46.0180   35.2480   42.6300 H   0  0  0  0  0  0  0  0  0  0  0  0
   44.9720   34.6980   44.2940 O   0  0  0  0  0  0  0  0  0  0  0  0
   45.6890   32.5810   42.8460 O   0  0  0  0  0  0  0  0  0  0  0  0
   45.9810   33.3590   44.1090 P   0  0  1  0  0  0  0  0  0  0  0  0
   47.6060   33.8690   44.0150 O   0  0  0  0  0  0  0  0  0  0  0  0
   47.7050   34.8240   44.3060 H   0  0  0  0  0  0  0  0  0  0  0  0
   45.8610   32.3480   45.4540 O   0  0  0  0  0  0  0  0  0  0  0  0
   46.1310   33.0060   46.6350 C   0  0  0  0  0  0  0  0  0  0  0  0
   47.0470   32.3660   47.6320 C   0  0  0  0  0  0  0  0  0  0  0  0
   45.5450   32.3810   47.8760 C   0  0  0  0  0  0  0  0  0  0  0  0
   46.1000   34.1050   46.5750 H   0  0  0  0  0  0  0  0  0  0  0  0
   47.6170   33.0630   48.2810 H   0  0  0  0  0  0  0  0  0  0  0  0
   47.5450   31.4270   47.3610 H   0  0  0  0  0  0  0  0  0  0  0  0
   45.1480   33.0260   48.6830 H   0  0  0  0  0  0  0  0  0  0  0  0
   45.0910   31.3840   47.8230 H   0  0  0  0  0  0  0  0  0  0  0  0
  1 22  1  0  0  0  0
  1  2  1  0  0  0  0
  2  3  1  0  0  0  0
  4  2  1  0  0  0  0
  5 11  1  0  0  0  0
  6  2  1  0  0  0  0
  6  5  2  0  0  0  0
  7  8  2  0  0  0  0
  7  6  1  0  0  0  0
  8  9  1  0  0  0  0
  9 10  2  0  0  0  0
 10  5  1  0  0  0  0
 12  7  1  0  0  0  0
 13 18  1  6  0  0  0
 13 17  1  0  0  0  0
 13 14  1  0  0  0  0
 14  9  1  1  0  0  0
 14 15  1  0  0  0  0
 16 15  1  0  0  0  0
 17 20  1  6  0  0  0
 17 16  1  0  0  0  0
 19 18  1  0  0  0  0
 21 20  1  0  0  0  0
 22 23  2  0  0  0  0
 23 24  1  0  0  0  0
 24 25  1  0  0  0  0
 24 27  1  0  0  0  0
 26 24  1  0  0  0  0
 29 28  2  6  0  0  0
 29 27  1  0  0  0  0
 29 32  1  0  0  0  0
 30 29  1  0  0  0  0
 30 31  1  0  0  0  0
 32 33  1  0  0  0  0
 33 34  1  0  0  0  0
 33 35  1  0  0  0  0
 34 35  1  0  0  0  0
 34 37  1  0  0  0  0
 35 39  1  0  0  0  0
 36 33  1  0  0  0  0
 38 34  1  0  0  0  0
 40 35  1  0  0  0  0
M  END
>  <minimizedAffinity>
-5.14434433

>  <minimizedRMSD>
0.744468212

$$$$
