
 OpenBabel03252501063D

 40 43  0  0  1  0  0  0  0  0999 V2000
   48.3740   32.3710   38.2310 O   0  0  0  0  0  0  0  0  0  0  0  0
   48.0310   33.8580   38.3000 P   0  0  2  0  0  0  0  0  0  0  0  0
   49.3330   34.6620   37.5820 O   0  0  0  0  0  0  0  0  0  0  0  0
   48.9740   35.5460   37.2600 H   0  0  0  0  0  0  0  0  0  0  0  0
   47.6700   34.3440   39.8180 O   0  0  0  0  0  0  0  0  0  0  0  0
   48.2870   35.4680   41.8740 C   0  0  1  0  0  0  0  0  0  0  0  0
   49.3310   34.4570   41.6870 C   0  0  0  0  0  0  0  0  0  0  0  0
   48.5810   35.0720   40.4940 C   0  0  1  0  0  0  0  0  0  0  0  0
   48.5780   36.4870   42.2010 H   0  0  0  0  0  0  0  0  0  0  0  0
   49.1170   33.3740   41.7840 H   0  0  0  0  0  0  0  0  0  0  0  0
   50.4080   34.6720   41.8030 H   0  0  0  0  0  0  0  0  0  0  0  0
   49.2760   35.6460   39.8510 H   0  0  0  0  0  0  0  0  0  0  0  0
   45.7590   33.2300   43.5950 C   0  0  0  0  0  0  0  0  0  0  0  0
   46.9690   33.6900   43.0790 C   0  0  0  0  0  0  0  0  0  0  0  0
   46.9980   34.9500   42.4520 C   0  0  0  0  0  0  0  0  0  0  0  0
   45.8540   35.6850   42.3640 N   0  0  0  0  0  0  0  0  0  0  0  0
   44.6880   35.2060   42.8780 C   0  0  0  0  0  0  0  0  0  0  0  0
   44.6420   33.9840   43.4910 N   0  0  0  0  0  0  0  0  0  0  0  0
   45.6970   32.2750   44.0800 H   0  0  0  0  0  0  0  0  0  0  0  0
   47.8490   33.0850   43.1660 H   0  0  0  0  0  0  0  0  0  0  0  0
   43.8210   35.8430   42.7720 H   0  0  0  0  0  0  0  0  0  0  0  0
   46.7150   34.0390   37.2740 O   0  0  0  0  0  0  0  0  0  0  0  0
   45.6990   33.1040   37.1320 C   0  0  0  0  0  0  0  0  0  0  0  0
   45.5850   32.1150   36.1760 C   0  0  0  0  0  0  0  0  0  0  0  0
   44.5190   31.2660   36.1650 C   0  0  0  0  0  0  0  0  0  0  0  0
   43.5330   31.3820   37.1120 C   0  0  0  0  0  0  0  0  0  0  0  0
   43.6820   32.3940   38.0630 C   0  0  0  0  0  0  0  0  0  0  0  0
   44.7400   33.2300   38.0660 N   0  0  0  0  0  0  0  0  0  0  0  0
   46.4210   32.1110   35.4740 H   0  0  0  0  0  0  0  0  0  0  0  0
   44.5650   30.5430   35.3590 H   0  0  0  0  0  0  0  0  0  0  0  0
   42.7160   30.6930   37.0630 H   0  0  0  0  0  0  0  0  0  0  0  0
   43.0340   32.9900   40.4130 C   0  0  1  0  0  3  0  0  0  0  0  0
   42.5890   32.4840   39.0580 C   0  0  1  0  0  3  0  0  0  0  0  0
   41.5840   33.3640   38.7490 O   0  0  0  0  0  0  0  0  0  0  0  0
   40.7770   33.3200   39.8820 C   0  0  0  0  0  2  0  0  0  0  0  0
   41.6580   33.1270   41.0870 C   0  0  2  0  0  3  0  0  0  0  0  0
   43.8270   32.0790   41.0780 O   0  0  0  0  0  0  0  0  0  0  0  0
   43.4070   31.7730   41.9190 H   0  0  0  0  0  0  0  0  0  0  0  0
   41.6200   34.1510   42.0000 O   0  0  0  0  0  0  0  0  0  0  0  0
   40.8160   34.7060   41.9670 H   0  0  0  0  0  0  0  0  0  0  0  0
  2  1  2  1  0  0  0
  2  5  1  0  0  0  0
  3  2  1  0  0  0  0
  4  3  1  0  0  0  0
  5  8  1  0  0  0  0
  6  9  1  1  0  0  0
  6 15  1  0  0  0  0
  7 10  1  0  0  0  0
  7 11  1  0  0  0  0
  7  6  1  0  0  0  0
  8 12  1  6  0  0  0
  8  7  1  0  0  0  0
  8  6  1  0  0  0  0
 13 19  1  0  0  0  0
 14 20  1  0  0  0  0
 14 13  2  0  0  0  0
 15 14  1  0  0  0  0
 16 15  2  0  0  0  0
 16 17  1  0  0  0  0
 17 18  2  0  0  0  0
 18 13  1  0  0  0  0
 21 17  1  0  0  0  0
 22  2  1  0  0  0  0
 23 22  1  0  0  0  0
 23 28  1  0  0  0  0
 24 23  2  0  0  0  0
 25 24  1  0  0  0  0
 25 26  2  0  0  0  0
 26 27  1  0  0  0  0
 27 28  2  0  0  0  0
 29 24  1  0  0  0  0
 30 25  1  0  0  0  0
 31 26  1  0  0  0  0
 32 37  1  1  0  0  0
 32 36  1  0  0  0  0
 33 27  1  6  0  0  0
 33 32  1  0  0  0  0
 34 33  1  0  0  0  0
 34 35  1  0  0  0  0
 35 36  1  0  0  0  0
 36 39  1  1  0  0  0
 37 38  1  0  0  0  0
 40 39  1  0  0  0  0
M  END
>  <minimizedAffinity>
-5.17938423

>  <minimizedRMSD>
0.634406567

$$$$
