
 OpenBabel03252501063D

 40 43  0  0  1  0  0  0  0  0999 V2000
   48.7380   32.3260   38.0420 O   0  0  0  0  0  0  0  0  0  0  0  0
   48.1470   33.7240   38.2110 P   0  0  2  0  0  0  0  0  0  0  0  0
   49.2830   34.7860   37.5480 O   0  0  0  0  0  0  0  0  0  0  0  0
   48.7740   35.6150   37.2870 H   0  0  0  0  0  0  0  0  0  0  0  0
   47.7280   34.0400   39.7600 O   0  0  0  0  0  0  0  0  0  0  0  0
   47.9340   35.3950   41.7570 C   0  0  1  0  0  0  0  0  0  0  0  0
   49.1980   34.6560   41.6900 C   0  0  0  0  0  0  0  0  0  0  0  0
   48.3970   35.0030   40.4230 C   0  0  1  0  0  0  0  0  0  0  0  0
   47.9540   36.4720   42.0250 H   0  0  0  0  0  0  0  0  0  0  0  0
   49.2420   33.5610   41.8530 H   0  0  0  0  0  0  0  0  0  0  0  0
   50.1840   35.1310   41.8390 H   0  0  0  0  0  0  0  0  0  0  0  0
   48.9740   35.6900   39.7740 H   0  0  0  0  0  0  0  0  0  0  0  0
   45.9020   32.9190   43.7820 C   0  0  0  0  0  0  0  0  0  0  0  0
   46.9940   33.6330   43.2950 C   0  0  0  0  0  0  0  0  0  0  0  0
   46.7730   34.6160   42.3110 C   0  0  0  0  0  0  0  0  0  0  0  0
   45.5070   34.8440   41.8610 N   0  0  0  0  0  0  0  0  0  0  0  0
   44.4610   34.1280   42.3570 C   0  0  0  0  0  0  0  0  0  0  0  0
   44.6590   33.1700   43.3130 N   0  0  0  0  0  0  0  0  0  0  0  0
   46.0300   32.1620   44.5310 H   0  0  0  0  0  0  0  0  0  0  0  0
   47.9760   33.4270   43.6710 H   0  0  0  0  0  0  0  0  0  0  0  0
   43.4850   34.3630   41.9540 H   0  0  0  0  0  0  0  0  0  0  0  0
   46.8060   33.7450   37.2030 O   0  0  0  0  0  0  0  0  0  0  0  0
   45.6630   32.9840   37.4050 C   0  0  0  0  0  0  0  0  0  0  0  0
   45.3980   31.7130   36.9390 C   0  0  0  0  0  0  0  0  0  0  0  0
   44.2190   31.0910   37.2220 C   0  0  0  0  0  0  0  0  0  0  0  0
   43.2680   31.7240   37.9800 C   0  0  0  0  0  0  0  0  0  0  0  0
   43.5700   33.0100   38.4340 C   0  0  0  0  0  0  0  0  0  0  0  0
   44.7400   33.6180   38.1490 N   0  0  0  0  0  0  0  0  0  0  0  0
   46.2190   31.3020   36.3480 H   0  0  0  0  0  0  0  0  0  0  0  0
   44.1520   30.0980   36.7910 H   0  0  0  0  0  0  0  0  0  0  0  0
   42.3580   31.1960   38.1760 H   0  0  0  0  0  0  0  0  0  0  0  0
   41.4400   34.3350   38.4140 C   0  0  1  0  0  3  0  0  0  0  0  0
   42.5090   33.6560   39.2410 C   0  0  1  0  0  3  0  0  0  0  0  0
   41.7620   32.8070   40.0160 O   0  0  0  0  0  0  0  0  0  0  0  0
   40.8000   33.6510   40.5610 C   0  0  0  0  0  2  0  0  0  0  0  0
   40.4570   34.7020   39.5370 C   0  0  2  0  0  3  0  0  0  0  0  0
   41.9110   35.4630   37.7740 O   0  0  0  0  0  0  0  0  0  0  0  0
   41.4450   36.2800   38.0830 H   0  0  0  0  0  0  0  0  0  0  0  0
   39.1500   34.6920   39.1170 O   0  0  0  0  0  0  0  0  0  0  0  0
   38.5190   34.2720   39.7340 H   0  0  0  0  0  0  0  0  0  0  0  0
  2  1  2  6  0  0  0
  2  5  1  0  0  0  0
  3  2  1  0  0  0  0
  4  3  1  0  0  0  0
  5  8  1  0  0  0  0
  6  9  1  1  0  0  0
  6 15  1  0  0  0  0
  7  6  1  0  0  0  0
  7 11  1  0  0  0  0
  7 10  1  0  0  0  0
  8 12  1  6  0  0  0
  8  7  1  0  0  0  0
  8  6  1  0  0  0  0
 13 19  1  0  0  0  0
 14 20  1  0  0  0  0
 14 13  2  0  0  0  0
 15 14  1  0  0  0  0
 16 15  2  0  0  0  0
 16 17  1  0  0  0  0
 17 18  2  0  0  0  0
 18 13  1  0  0  0  0
 21 17  1  0  0  0  0
 22 23  1  0  0  0  0
 22  2  1  0  0  0  0
 23 28  1  0  0  0  0
 24 25  1  0  0  0  0
 24 23  2  0  0  0  0
 25 26  2  0  0  0  0
 26 31  1  0  0  0  0
 26 27  1  0  0  0  0
 28 27  2  0  0  0  0
 29 24  1  0  0  0  0
 30 25  1  0  0  0  0
 32 37  1  1  0  0  0
 32 33  1  0  0  0  0
 32 36  1  0  0  0  0
 33 27  1  6  0  0  0
 33 34  1  0  0  0  0
 34 35  1  0  0  0  0
 36 39  1  6  0  0  0
 36 35  1  0  0  0  0
 37 38  1  0  0  0  0
 39 40  1  0  0  0  0
M  END
>  <minimizedAffinity>
-5.50194931

>  <minimizedRMSD>
1.63888216

$$$$
