
 OpenBabel03252501053D

 40 43  0  0  1  0  0  0  0  0999 V2000
   48.5200   32.3840   38.0170 O   0  0  0  0  0  0  0  0  0  0  0  0
   48.0950   33.8330   38.2520 P   0  0  2  0  0  0  0  0  0  0  0  0
   49.3180   34.7850   37.5790 O   0  0  0  0  0  0  0  0  0  0  0  0
   48.8970   35.6740   37.3640 H   0  0  0  0  0  0  0  0  0  0  0  0
   47.7680   34.1380   39.8250 O   0  0  0  0  0  0  0  0  0  0  0  0
   48.1140   35.4680   41.8190 C   0  0  1  0  0  0  0  0  0  0  0  0
   49.3370   34.6690   41.7020 C   0  0  0  0  0  0  0  0  0  0  0  0
   48.5080   35.0630   40.4670 C   0  0  1  0  0  0  0  0  0  0  0  0
   48.1970   36.5410   42.0910 H   0  0  0  0  0  0  0  0  0  0  0  0
   49.3330   33.5720   41.8570 H   0  0  0  0  0  0  0  0  0  0  0  0
   50.3500   35.0940   41.8160 H   0  0  0  0  0  0  0  0  0  0  0  0
   49.0930   35.7250   39.8010 H   0  0  0  0  0  0  0  0  0  0  0  0
   46.0410   32.9760   43.7820 C   0  0  0  0  0  0  0  0  0  0  0  0
   47.1490   33.6360   43.2570 C   0  0  0  0  0  0  0  0  0  0  0  0
   46.9370   34.7430   42.4120 C   0  0  0  0  0  0  0  0  0  0  0  0
   45.6640   35.1410   42.1310 N   0  0  0  0  0  0  0  0  0  0  0  0
   44.6020   34.4740   42.6610 C   0  0  0  0  0  0  0  0  0  0  0  0
   44.7910   33.3960   43.4830 N   0  0  0  0  0  0  0  0  0  0  0  0
   46.1620   32.1290   44.4290 H   0  0  0  0  0  0  0  0  0  0  0  0
   48.1360   33.2960   43.4980 H   0  0  0  0  0  0  0  0  0  0  0  0
   43.6220   34.8450   42.3950 H   0  0  0  0  0  0  0  0  0  0  0  0
   46.7300   34.0370   37.2970 O   0  0  0  0  0  0  0  0  0  0  0  0
   45.7360   33.0820   37.1390 C   0  0  0  0  0  0  0  0  0  0  0  0
   45.5510   32.2180   36.0790 C   0  0  0  0  0  0  0  0  0  0  0  0
   44.5190   31.3290   36.0670 C   0  0  0  0  0  0  0  0  0  0  0  0
   43.6370   31.2790   37.1160 C   0  0  0  0  0  0  0  0  0  0  0  0
   43.8540   32.1690   38.1710 C   0  0  0  0  0  0  0  0  0  0  0  0
   44.8790   33.0450   38.1750 N   0  0  0  0  0  0  0  0  0  0  0  0
   46.3070   32.3400   35.3000 H   0  0  0  0  0  0  0  0  0  0  0  0
   44.5010   30.7160   35.1730 H   0  0  0  0  0  0  0  0  0  0  0  0
   42.8420   30.5650   37.0620 H   0  0  0  0  0  0  0  0  0  0  0  0
   43.3600   31.2890   40.4680 C   0  0  1  0  0  3  0  0  0  0  0  0
   42.8720   32.0830   39.2760 C   0  0  1  0  0  3  0  0  0  0  0  0
   42.5350   33.2770   39.8560 O   0  0  0  0  0  0  0  0  0  0  0  0
   41.7040   32.8880   40.9040 C   0  0  0  0  0  2  0  0  0  0  0  0
   42.2020   31.5720   41.4420 C   0  0  2  0  0  3  0  0  0  0  0  0
   43.4620   29.9420   40.1940 O   0  0  0  0  0  0  0  0  0  0  0  0
   42.8500   29.4060   40.7570 H   0  0  0  0  0  0  0  0  0  0  0  0
   42.6110   31.6020   42.7500 O   0  0  0  0  0  0  0  0  0  0  0  0
   42.2360   32.3290   43.2860 H   0  0  0  0  0  0  0  0  0  0  0  0
  2  1  2  6  0  0  0
  2  5  1  0  0  0  0
  3  2  1  0  0  0  0
  4  3  1  0  0  0  0
  5  8  1  0  0  0  0
  6  9  1  1  0  0  0
  6 15  1  0  0  0  0
  7 11  1  0  0  0  0
  7  6  1  0  0  0  0
  7 10  1  0  0  0  0
  8 12  1  6  0  0  0
  8  7  1  0  0  0  0
  8  6  1  0  0  0  0
 13 19  1  0  0  0  0
 14 20  1  0  0  0  0
 14 13  2  0  0  0  0
 15 14  1  0  0  0  0
 16 15  2  0  0  0  0
 16 17  1  0  0  0  0
 17 18  2  0  0  0  0
 18 13  1  0  0  0  0
 21 17  1  0  0  0  0
 22  2  1  0  0  0  0
 23 22  1  0  0  0  0
 23 28  1  0  0  0  0
 24 23  2  0  0  0  0
 25 24  1  0  0  0  0
 25 26  2  0  0  0  0
 26 27  1  0  0  0  0
 27 28  2  0  0  0  0
 29 24  1  0  0  0  0
 30 25  1  0  0  0  0
 31 26  1  0  0  0  0
 32 37  1  6  0  0  0
 32 36  1  0  0  0  0
 33 27  1  6  0  0  0
 33 34  1  0  0  0  0
 33 32  1  0  0  0  0
 34 35  1  0  0  0  0
 35 36  1  0  0  0  0
 36 39  1  1  0  0  0
 37 38  1  0  0  0  0
 39 40  1  0  0  0  0
M  END
>  <minimizedAffinity>
-5.13505268

>  <minimizedRMSD>
0.274622291

$$$$
