
 OpenBabel03252501053D

 40 43  0  0  1  0  0  0  0  0999 V2000
   48.9770   32.4290   38.2740 O   0  0  0  0  0  0  0  0  0  0  0  0
   48.1750   33.6770   38.6380 P   0  0  2  0  0  0  0  0  0  0  0  0
   48.8450   34.9340   37.7290 O   0  0  0  0  0  0  0  0  0  0  0  0
   48.1240   35.6310   37.6390 H   0  0  0  0  0  0  0  0  0  0  0  0
   48.1280   33.9390   40.2520 O   0  0  0  0  0  0  0  0  0  0  0  0
   48.0110   35.6240   41.9870 C   0  0  1  0  0  0  0  0  0  0  0  0
   49.4100   35.1890   42.0010 C   0  0  0  0  0  0  0  0  0  0  0  0
   48.5570   35.1260   40.7220 C   0  0  1  0  0  0  0  0  0  0  0  0
   47.7840   36.7070   42.0710 H   0  0  0  0  0  0  0  0  0  0  0  0
   49.7010   34.1760   42.3420 H   0  0  0  0  0  0  0  0  0  0  0  0
   50.2610   35.8910   42.0360 H   0  0  0  0  0  0  0  0  0  0  0  0
   48.9660   35.8050   39.9490 H   0  0  0  0  0  0  0  0  0  0  0  0
   46.6380   32.9280   44.2680 C   0  0  0  0  0  0  0  0  0  0  0  0
   47.5450   33.7700   43.6300 C   0  0  0  0  0  0  0  0  0  0  0  0
   47.0540   34.7100   42.7020 C   0  0  0  0  0  0  0  0  0  0  0  0
   45.7160   34.7730   42.4520 N   0  0  0  0  0  0  0  0  0  0  0  0
   44.8560   33.9350   43.0930 C   0  0  0  0  0  0  0  0  0  0  0  0
   45.3160   33.0170   43.9970 N   0  0  0  0  0  0  0  0  0  0  0  0
   46.9730   32.1990   44.9810 H   0  0  0  0  0  0  0  0  0  0  0  0
   48.5900   33.6920   43.8500 H   0  0  0  0  0  0  0  0  0  0  0  0
   43.8090   34.0410   42.8450 H   0  0  0  0  0  0  0  0  0  0  0  0
   46.6390   33.3900   38.0250 O   0  0  0  0  0  0  0  0  0  0  0  0
   45.5660   32.9390   38.7810 C   0  0  0  0  0  0  0  0  0  0  0  0
   45.3930   31.6930   39.3490 C   0  0  0  0  0  0  0  0  0  0  0  0
   44.2750   31.3970   40.0690 C   0  0  0  0  0  0  0  0  0  0  0  0
   43.2940   32.3400   40.2430 C   0  0  0  0  0  0  0  0  0  0  0  0
   43.5030   33.5890   39.6540 C   0  0  0  0  0  0  0  0  0  0  0  0
   44.6130   33.8740   38.9420 N   0  0  0  0  0  0  0  0  0  0  0  0
   46.2300   31.0210   39.1500 H   0  0  0  0  0  0  0  0  0  0  0  0
   44.2780   30.3830   40.4540 H   0  0  0  0  0  0  0  0  0  0  0  0
   42.4350   32.0610   40.8160 H   0  0  0  0  0  0  0  0  0  0  0  0
   41.1340   34.2240   39.1350 C   0  0  1  0  0  3  0  0  0  0  0  0
   42.4140   34.5700   39.8620 C   0  0  1  0  0  3  0  0  0  0  0  0
   41.9730   34.6940   41.1540 O   0  0  0  0  0  0  0  0  0  0  0  0
   40.9040   35.5760   41.0320 C   0  0  0  0  0  2  0  0  0  0  0  0
   40.2160   35.3130   39.7190 C   0  0  2  0  0  3  0  0  0  0  0  0
   41.2550   34.3560   37.7670 O   0  0  0  0  0  0  0  0  0  0  0  0
   40.6470   35.0510   37.4110 H   0  0  0  0  0  0  0  0  0  0  0  0
   38.9120   34.9010   39.8230 O   0  0  0  0  0  0  0  0  0  0  0  0
   38.4660   35.1430   40.6600 H   0  0  0  0  0  0  0  0  0  0  0  0
  2  1  2  6  0  0  0
  2  5  1  0  0  0  0
  3  2  1  0  0  0  0
  4  3  1  0  0  0  0
  5  8  1  0  0  0  0
  6  7  1  0  0  0  0
  6  9  1  1  0  0  0
  6 15  1  0  0  0  0
  7 11  1  0  0  0  0
  7 10  1  0  0  0  0
  8 12  1  6  0  0  0
  8  6  1  0  0  0  0
  8  7  1  0  0  0  0
 13 19  1  0  0  0  0
 14 20  1  0  0  0  0
 14 13  2  0  0  0  0
 15 14  1  0  0  0  0
 16 15  2  0  0  0  0
 16 17  1  0  0  0  0
 17 18  2  0  0  0  0
 18 13  1  0  0  0  0
 21 17  1  0  0  0  0
 22  2  1  0  0  0  0
 22 23  1  0  0  0  0
 23 28  2  0  0  0  0
 23 24  1  0  0  0  0
 24 25  2  0  0  0  0
 25 26  1  0  0  0  0
 25 30  1  0  0  0  0
 26 31  1  0  0  0  0
 27 26  2  0  0  0  0
 28 27  1  0  0  0  0
 29 24  1  0  0  0  0
 32 37  1  6  0  0  0
 32 36  1  0  0  0  0
 32 33  1  0  0  0  0
 33 27  1  1  0  0  0
 33 34  1  0  0  0  0
 35 34  1  0  0  0  0
 36 39  1  1  0  0  0
 36 35  1  0  0  0  0
 38 37  1  0  0  0  0
 39 40  1  0  0  0  0
M  END
>  <minimizedAffinity>
-5.63854885

>  <minimizedRMSD>
2.64310098

$$$$
