
 OpenBabel03252501063D

 40 43  0  0  1  0  0  0  0  0999 V2000
   48.5150   32.4010   37.9960 O   0  0  0  0  0  0  0  0  0  0  0  0
   48.1400   33.8630   38.2320 P   0  0  2  0  0  0  0  0  0  0  0  0
   49.3780   34.7740   37.5280 O   0  0  0  0  0  0  0  0  0  0  0  0
   48.9800   35.6740   37.3160 H   0  0  0  0  0  0  0  0  0  0  0  0
   47.8550   34.1860   39.8090 O   0  0  0  0  0  0  0  0  0  0  0  0
   48.2570   35.5390   41.7780 C   0  0  1  0  0  0  0  0  0  0  0  0
   49.4720   34.7310   41.6410 C   0  0  0  0  0  0  0  0  0  0  0  0
   48.6160   35.1150   40.4220 C   0  0  1  0  0  0  0  0  0  0  0  0
   48.3530   36.6140   42.0340 H   0  0  0  0  0  0  0  0  0  0  0  0
   49.4650   33.6360   41.8110 H   0  0  0  0  0  0  0  0  0  0  0  0
   50.4900   35.1500   41.7270 H   0  0  0  0  0  0  0  0  0  0  0  0
   49.1900   35.7650   39.7340 H   0  0  0  0  0  0  0  0  0  0  0  0
   46.2150   33.0810   43.8140 C   0  0  0  0  0  0  0  0  0  0  0  0
   47.3150   33.7260   43.2540 C   0  0  0  0  0  0  0  0  0  0  0  0
   47.0900   34.8290   42.4080 C   0  0  0  0  0  0  0  0  0  0  0  0
   45.8140   35.2360   42.1580 N   0  0  0  0  0  0  0  0  0  0  0  0
   44.7610   34.5830   42.7210 C   0  0  0  0  0  0  0  0  0  0  0  0
   44.9620   33.5100   43.5450 N   0  0  0  0  0  0  0  0  0  0  0  0
   46.3460   32.2370   44.4640 H   0  0  0  0  0  0  0  0  0  0  0  0
   48.3050   33.3780   43.4720 H   0  0  0  0  0  0  0  0  0  0  0  0
   43.7770   34.9610   42.4780 H   0  0  0  0  0  0  0  0  0  0  0  0
   46.7630   34.1050   37.3040 O   0  0  0  0  0  0  0  0  0  0  0  0
   45.7550   33.1660   37.1390 C   0  0  0  0  0  0  0  0  0  0  0  0
   45.5580   32.3120   36.0730 C   0  0  0  0  0  0  0  0  0  0  0  0
   44.5130   31.4380   36.0550 C   0  0  0  0  0  0  0  0  0  0  0  0
   43.6310   31.3920   37.1050 C   0  0  0  0  0  0  0  0  0  0  0  0
   43.8620   32.2710   38.1660 C   0  0  0  0  0  0  0  0  0  0  0  0
   44.8990   33.1330   38.1760 N   0  0  0  0  0  0  0  0  0  0  0  0
   46.3140   32.4300   35.2940 H   0  0  0  0  0  0  0  0  0  0  0  0
   44.4860   30.8320   35.1560 H   0  0  0  0  0  0  0  0  0  0  0  0
   42.8270   30.6900   37.0460 H   0  0  0  0  0  0  0  0  0  0  0  0
   43.2670   31.2210   40.3650 C   0  0  1  0  0  3  0  0  0  0  0  0
   42.8790   32.1900   39.2710 C   0  0  1  0  0  3  0  0  0  0  0  0
   42.6950   33.3480   39.9800 O   0  0  0  0  0  0  0  0  0  0  0  0
   41.8250   32.9550   40.9930 C   0  0  0  0  0  2  0  0  0  0  0  0
   42.1570   31.5390   41.3810 C   0  0  2  0  0  3  0  0  0  0  0  0
   43.2020   29.9070   39.9490 O   0  0  0  0  0  0  0  0  0  0  0  0
   42.5300   29.3940   40.4630 H   0  0  0  0  0  0  0  0  0  0  0  0
   42.5710   31.3780   42.6790 O   0  0  0  0  0  0  0  0  0  0  0  0
   42.2910   32.0850   43.2940 H   0  0  0  0  0  0  0  0  0  0  0  0
  2  1  2  6  0  0  0
  2  5  1  0  0  0  0
  3  2  1  0  0  0  0
  4  3  1  0  0  0  0
  5  8  1  0  0  0  0
  6  9  1  1  0  0  0
  6 15  1  0  0  0  0
  7 11  1  0  0  0  0
  7  6  1  0  0  0  0
  7 10  1  0  0  0  0
  8 12  1  6  0  0  0
  8  7  1  0  0  0  0
  8  6  1  0  0  0  0
 13 19  1  0  0  0  0
 14 20  1  0  0  0  0
 14 13  2  0  0  0  0
 15 14  1  0  0  0  0
 16 15  2  0  0  0  0
 16 17  1  0  0  0  0
 17 18  2  0  0  0  0
 18 13  1  0  0  0  0
 21 17  1  0  0  0  0
 22  2  1  0  0  0  0
 23 22  1  0  0  0  0
 23 28  1  0  0  0  0
 24 23  2  0  0  0  0
 25 24  1  0  0  0  0
 25 26  2  0  0  0  0
 26 27  1  0  0  0  0
 27 28  2  0  0  0  0
 29 24  1  0  0  0  0
 30 25  1  0  0  0  0
 31 26  1  0  0  0  0
 32 37  1  6  0  0  0
 32 36  1  0  0  0  0
 33 27  1  6  0  0  0
 33 34  1  0  0  0  0
 33 32  1  0  0  0  0
 34 35  1  0  0  0  0
 35 36  1  0  0  0  0
 36 39  1  1  0  0  0
 37 38  1  0  0  0  0
 39 40  1  0  0  0  0
M  END
>  <minimizedAffinity>
-5.02627993

>  <minimizedRMSD>
0.337022543

$$$$
