
 OpenBabel03242523553D

 45 48  0  0  1  0  0  0  0  0999 V2000
   42.8170   34.4940   38.7650 C   0  0  1  0  0  0  0  0  0  0  0  0
   42.9570   35.1790   40.1190 C   0  0  1  0  0  0  0  0  0  0  0  0
   41.6690   35.4040   40.6350 O   0  0  0  0  0  0  0  0  0  0  0  0
   40.7460   35.7360   39.6390 C   0  0  0  0  0  0  0  0  0  0  0  0
   40.4360   34.5590   38.7400 C   0  0  2  0  0  0  0  0  0  0  0  0
   41.6500   33.5690   38.8810 C   0  0  1  0  0  0  0  0  0  0  0  0
   43.7600   33.9420   38.5200 H   0  0  0  0  0  0  0  0  0  0  0  0
   43.5440   36.1070   40.0790 H   0  0  0  0  0  0  0  0  0  0  0  0
   41.0020   36.6430   39.0800 H   0  0  0  0  0  0  0  0  0  0  0  0
   39.8050   35.9550   40.1860 H   0  0  0  0  0  0  0  0  0  0  0  0
   39.5160   34.0230   39.0240 H   0  0  0  0  0  0  0  0  0  0  0  0
   41.4360   33.3030   39.9660 H   0  0  0  0  0  0  0  0  0  0  0  0
   42.6040   35.4390   37.7520 O   0  0  0  0  0  0  0  0  0  0  0  0
   43.4830   35.7060   37.4170 H   0  0  0  0  0  0  0  0  0  0  0  0
   40.4540   34.9680   37.4140 O   0  0  0  0  0  0  0  0  0  0  0  0
   40.0330   34.2660   36.8440 H   0  0  0  0  0  0  0  0  0  0  0  0
   43.4940   34.1930   40.9700 O   0  0  0  0  0  0  0  0  0  0  0  0
   44.6050   34.3400   41.7000 C   0  0  0  0  0  0  0  0  0  0  0  0
   45.8660   34.4390   41.0940 C   0  0  0  0  0  0  0  0  0  0  0  0
   46.9780   34.5920   41.9050 C   0  0  0  0  0  0  0  0  0  0  0  0
   46.8150   34.6430   43.2790 N   0  0  0  0  0  0  0  0  0  0  0  0
   45.5840   34.5440   43.8280 C   0  0  0  0  0  0  0  0  0  0  0  0
   44.4830   34.3930   43.0440 N   0  0  0  0  0  0  0  0  0  0  0  0
   45.9720   34.3960   40.0210 H   0  0  0  0  0  0  0  0  0  0  0  0
   45.4750   34.5850   44.9030 H   0  0  0  0  0  0  0  0  0  0  0  0
   48.3570   34.6880   41.3370 C   0  0  0  0  0  0  0  0  0  0  0  0
   49.0790   36.0240   41.5060 C   0  0  0  0  0  0  0  0  0  0  0  0
   49.5090   34.7030   42.1790 C   0  0  0  0  0  0  0  0  0  0  0  0
   48.3980   34.2480   40.3020 H   0  0  0  0  0  0  0  0  0  0  0  0
   48.5860   36.7790   42.1350 H   0  0  0  0  0  0  0  0  0  0  0  0
   49.6920   36.3440   40.6430 H   0  0  0  0  0  0  0  0  0  0  0  0
   50.4650   34.2650   41.8330 H   0  0  0  0  0  0  0  0  0  0  0  0
   49.4260   34.7030   43.2840 H   0  0  0  0  0  0  0  0  0  0  0  0
   41.5220   32.6310   37.9280 O   0  0  0  0  0  0  0  0  0  0  0  0
   40.8270   31.4690   37.9630 C   0  0  0  0  0  0  0  0  0  0  0  0
   39.6340   31.3910   37.4330 O   0  0  0  0  0  0  0  0  0  0  0  0
   40.8260   30.0980   38.3810 N   0  0  0  0  0  0  0  0  0  0  0  0
   40.6820   29.2790   37.1930 C   0  0  0  0  0  3  0  0  0  0  0  0
   39.7910   29.4780   36.6010 H   0  0  0  0  0  0  0  0  0  0  0  0
   40.8160   27.8340   37.6010 C   0  0  0  0  0  3  0  0  0  0  0  0
   41.8650   27.6250   37.8820 H   0  0  0  0  0  0  0  0  0  0  0  0
   39.8980   27.4690   38.6450 N   0  0  0  0  0  0  0  0  0  0  0  0
   40.1730   26.5130   38.9800 H   0  0  0  0  0  0  0  0  0  0  0  0
   39.8350   28.4090   39.7230 C   0  0  0  0  0  2  0  0  0  0  0  0
   40.9340   29.4690   39.6560 C   0  0  0  0  0  2  0  0  0  0  0  0
  1  7  1  6  0  0  0
  1  6  1  0  0  0  0
  1  2  1  0  0  0  0
  2  8  1  6  0  0  0
  2  3  1  0  0  0  0
  2 17  1  0  0  0  0
  4 10  1  0  0  0  0
  4  3  1  0  0  0  0
  5  6  1  0  0  0  0
  5 11  1  1  0  0  0
  5  4  1  0  0  0  0
  6 12  1  1  0  0  0
  9  4  1  0  0  0  0
 13  1  1  0  0  0  0
 14 13  1  0  0  0  0
 15  5  1  0  0  0  0
 16 15  1  0  0  0  0
 17 18  1  0  0  0  0
 18 23  1  0  0  0  0
 19 18  2  0  0  0  0
 19 20  1  0  0  0  0
 20 21  2  0  0  0  0
 21 22  1  0  0  0  0
 22 25  1  0  0  0  0
 23 22  2  0  0  0  0
 24 19  1  0  0  0  0
 26 27  1  0  0  0  0
 26 20  1  0  0  0  0
 26 28  1  0  0  0  0
 27 30  1  0  0  0  0
 27 28  1  0  0  0  0
 28 33  1  0  0  0  0
 29 26  1  0  0  0  0
 31 27  1  0  0  0  0
 32 28  1  0  0  0  0
 34 35  1  0  0  0  0
 34  6  1  0  0  0  0
 35 37  1  0  0  0  0
 36 35  2  0  0  0  0
 37 45  1  0  0  0  0
 38 40  1  0  0  0  0
 38 37  1  0  0  0  0
 39 38  1  0  0  0  0
 40 41  1  0  0  0  0
 40 42  1  0  0  0  0
 42 43  1  0  0  0  0
 42 44  1  0  0  0  0
 45 44  1  0  0  0  0
M  END
>  <minimizedAffinity>
-5.98011541

>  <minimizedRMSD>
0.131335393

$$$$
