
 OpenBabel03242523553D

 45 48  0  0  1  0  0  0  0  0999 V2000
   42.7190   34.3830   38.9950 C   0  0  1  0  0  0  0  0  0  0  0  0
   43.1020   35.1480   40.2550 C   0  0  1  0  0  0  0  0  0  0  0  0
   41.9240   35.6040   40.8710 O   0  0  0  0  0  0  0  0  0  0  0  0
   40.9510   35.9870   39.9440 C   0  0  0  0  0  0  0  0  0  0  0  0
   40.3820   34.7980   39.1980 C   0  0  2  0  0  0  0  0  0  0  0  0
   41.4540   33.6540   39.3150 C   0  0  1  0  0  0  0  0  0  0  0  0
   43.5430   33.6780   38.7130 H   0  0  0  0  0  0  0  0  0  0  0  0
   43.8050   35.9730   40.0670 H   0  0  0  0  0  0  0  0  0  0  0  0
   41.2670   36.7970   39.2760 H   0  0  0  0  0  0  0  0  0  0  0  0
   40.1170   36.3870   40.5560 H   0  0  0  0  0  0  0  0  0  0  0  0
   39.4340   34.4300   39.6230 H   0  0  0  0  0  0  0  0  0  0  0  0
   41.3280   33.5140   40.4360 H   0  0  0  0  0  0  0  0  0  0  0  0
   42.5270   35.2630   37.9200 O   0  0  0  0  0  0  0  0  0  0  0  0
   43.3920   35.3670   37.4760 H   0  0  0  0  0  0  0  0  0  0  0  0
   40.3080   35.0900   37.8430 O   0  0  0  0  0  0  0  0  0  0  0  0
   39.7330   34.4140   37.3890 H   0  0  0  0  0  0  0  0  0  0  0  0
   43.5880   34.1670   41.1410 O   0  0  0  0  0  0  0  0  0  0  0  0
   44.7200   34.2710   41.8480 C   0  0  0  0  0  0  0  0  0  0  0  0
   45.9600   34.4420   41.2150 C   0  0  0  0  0  0  0  0  0  0  0  0
   47.0940   34.5460   42.0030 C   0  0  0  0  0  0  0  0  0  0  0  0
   46.9730   34.4800   43.3810 N   0  0  0  0  0  0  0  0  0  0  0  0
   45.7600   34.3150   43.9550 C   0  0  0  0  0  0  0  0  0  0  0  0
   44.6380   34.2110   43.1940 N   0  0  0  0  0  0  0  0  0  0  0  0
   46.0330   34.4900   40.1400 H   0  0  0  0  0  0  0  0  0  0  0  0
   45.6840   34.2650   45.0330 H   0  0  0  0  0  0  0  0  0  0  0  0
   48.4530   34.7120   41.4040 C   0  0  0  0  0  0  0  0  0  0  0  0
   49.1040   36.0880   41.5470 C   0  0  0  0  0  0  0  0  0  0  0  0
   49.6200   34.7980   42.2220 C   0  0  0  0  0  0  0  0  0  0  0  0
   48.4970   34.2660   40.3720 H   0  0  0  0  0  0  0  0  0  0  0  0
   48.5840   36.8200   42.1800 H   0  0  0  0  0  0  0  0  0  0  0  0
   49.6800   36.4320   40.6690 H   0  0  0  0  0  0  0  0  0  0  0  0
   50.5920   34.4100   41.8580 H   0  0  0  0  0  0  0  0  0  0  0  0
   49.5610   34.8040   43.3280 H   0  0  0  0  0  0  0  0  0  0  0  0
   41.0910   32.6700   38.4750 O   0  0  0  0  0  0  0  0  0  0  0  0
   40.0350   31.8270   38.5560 C   0  0  0  0  0  0  0  0  0  0  0  0
   39.2940   31.5870   37.5050 O   0  0  0  0  0  0  0  0  0  0  0  0
   39.2690   30.9610   39.4030 N   0  0  0  0  0  0  0  0  0  0  0  0
   38.4480   30.1260   38.5460 C   0  0  0  0  0  3  0  0  0  0  0  0
   37.7790   30.6670   37.8810 H   0  0  0  0  0  0  0  0  0  0  0  0
   37.7390   29.1190   39.4160 C   0  0  0  0  0  3  0  0  0  0  0  0
   38.4690   28.3830   39.8000 H   0  0  0  0  0  0  0  0  0  0  0  0
   36.9900   29.7350   40.4760 N   0  0  0  0  0  0  0  0  0  0  0  0
   36.6770   28.9710   41.1210 H   0  0  0  0  0  0  0  0  0  0  0  0
   37.7060   30.7580   41.1800 C   0  0  0  0  0  2  0  0  0  0  0  0
   39.1910   30.8030   40.8180 C   0  0  0  0  0  2  0  0  0  0  0  0
  1  7  1  6  0  0  0
  1  6  1  0  0  0  0
  1  2  1  0  0  0  0
  2  8  1  6  0  0  0
  2  3  1  0  0  0  0
  2 17  1  0  0  0  0
  4 10  1  0  0  0  0
  4  3  1  0  0  0  0
  5  6  1  0  0  0  0
  5 11  1  1  0  0  0
  5  4  1  0  0  0  0
  6 12  1  1  0  0  0
  9  4  1  0  0  0  0
 13  1  1  0  0  0  0
 14 13  1  0  0  0  0
 15  5  1  0  0  0  0
 16 15  1  0  0  0  0
 17 18  1  0  0  0  0
 18 23  1  0  0  0  0
 19 18  2  0  0  0  0
 19 20  1  0  0  0  0
 20 21  2  0  0  0  0
 21 22  1  0  0  0  0
 22 25  1  0  0  0  0
 23 22  2  0  0  0  0
 24 19  1  0  0  0  0
 26 27  1  0  0  0  0
 26 20  1  0  0  0  0
 26 28  1  0  0  0  0
 27 30  1  0  0  0  0
 27 28  1  0  0  0  0
 28 33  1  0  0  0  0
 29 26  1  0  0  0  0
 31 27  1  0  0  0  0
 32 28  1  0  0  0  0
 34 35  1  0  0  0  0
 34  6  1  0  0  0  0
 35 37  1  0  0  0  0
 36 35  2  0  0  0  0
 37 45  1  0  0  0  0
 38 37  1  0  0  0  0
 38 40  1  0  0  0  0
 39 38  1  0  0  0  0
 40 41  1  0  0  0  0
 40 42  1  0  0  0  0
 42 43  1  0  0  0  0
 42 44  1  0  0  0  0
 45 44  1  0  0  0  0
M  END
>  <minimizedAffinity>
-6.43941021

>  <minimizedRMSD>
1.56989765

$$$$
