
 OpenBabel03242523553D

 45 48  0  0  1  0  0  0  0  0999 V2000
   42.8010   34.3530   38.9410 C   0  0  1  0  0  0  0  0  0  0  0  0
   43.0310   35.1890   40.1940 C   0  0  1  0  0  0  0  0  0  0  0  0
   41.7830   35.6350   40.6620 O   0  0  0  0  0  0  0  0  0  0  0  0
   40.9020   35.9420   39.6220 C   0  0  0  0  0  0  0  0  0  0  0  0
   40.4460   34.7020   38.8830 C   0  0  2  0  0  0  0  0  0  0  0  0
   41.5300   33.6000   39.1670 C   0  0  1  0  0  0  0  0  0  0  0  0
   43.6680   33.6630   38.7810 H   0  0  0  0  0  0  0  0  0  0  0  0
   43.7270   36.0260   40.0370 H   0  0  0  0  0  0  0  0  0  0  0  0
   41.2630   36.7290   38.9510 H   0  0  0  0  0  0  0  0  0  0  0  0
   39.9980   36.3440   40.1260 H   0  0  0  0  0  0  0  0  0  0  0  0
   39.4680   34.3240   39.2270 H   0  0  0  0  0  0  0  0  0  0  0  0
   41.2920   33.5090   40.2750 H   0  0  0  0  0  0  0  0  0  0  0  0
   42.6980   35.1740   37.8090 O   0  0  0  0  0  0  0  0  0  0  0  0
   43.6010   35.2850   37.4510 H   0  0  0  0  0  0  0  0  0  0  0  0
   40.5050   34.9260   37.5150 O   0  0  0  0  0  0  0  0  0  0  0  0
   39.9980   34.2120   37.0400 H   0  0  0  0  0  0  0  0  0  0  0  0
   43.4490   34.2670   41.1730 O   0  0  0  0  0  0  0  0  0  0  0  0
   44.5950   34.3510   41.8590 C   0  0  0  0  0  0  0  0  0  0  0  0
   45.8280   34.4800   41.2040 C   0  0  0  0  0  0  0  0  0  0  0  0
   46.9780   34.5650   41.9710 C   0  0  0  0  0  0  0  0  0  0  0  0
   46.8780   34.5210   43.3510 N   0  0  0  0  0  0  0  0  0  0  0  0
   45.6720   34.3970   43.9480 C   0  0  0  0  0  0  0  0  0  0  0  0
   44.5350   34.3120   43.2080 N   0  0  0  0  0  0  0  0  0  0  0  0
   45.8840   34.5120   40.1270 H   0  0  0  0  0  0  0  0  0  0  0  0
   45.6130   34.3630   45.0280 H   0  0  0  0  0  0  0  0  0  0  0  0
   48.3310   34.6870   41.3470 C   0  0  0  0  0  0  0  0  0  0  0  0
   49.0520   36.0230   41.5250 C   0  0  0  0  0  0  0  0  0  0  0  0
   49.5170   34.6850   42.1400 C   0  0  0  0  0  0  0  0  0  0  0  0
   48.3300   34.2790   40.2990 H   0  0  0  0  0  0  0  0  0  0  0  0
   48.5820   36.7550   42.1970 H   0  0  0  0  0  0  0  0  0  0  0  0
   49.6250   36.3720   40.6470 H   0  0  0  0  0  0  0  0  0  0  0  0
   50.4610   34.2640   41.7400 H   0  0  0  0  0  0  0  0  0  0  0  0
   49.4820   34.6510   43.2470 H   0  0  0  0  0  0  0  0  0  0  0  0
   41.2830   32.5660   38.3460 O   0  0  0  0  0  0  0  0  0  0  0  0
   40.3510   31.5910   38.4590 C   0  0  0  0  0  0  0  0  0  0  0  0
   39.8370   31.0340   37.3930 O   0  0  0  0  0  0  0  0  0  0  0  0
   39.5750   30.7890   39.3590 N   0  0  0  0  0  0  0  0  0  0  0  0
   38.7630   31.6890   40.1580 C   0  0  0  0  0  3  0  0  0  0  0  0
   39.3200   32.4320   40.7240 H   0  0  0  0  0  0  0  0  0  0  0  0
   37.8440   30.8550   41.0130 C   0  0  0  0  0  3  0  0  0  0  0  0
   37.0760   30.3790   40.3740 H   0  0  0  0  0  0  0  0  0  0  0  0
   38.5530   29.8910   41.8080 N   0  0  0  0  0  0  0  0  0  0  0  0
   37.8390   29.2510   42.2320 H   0  0  0  0  0  0  0  0  0  0  0  0
   39.5520   29.1600   41.0870 C   0  0  0  0  0  2  0  0  0  0  0  0
   39.4810   29.3840   39.5760 C   0  0  0  0  0  2  0  0  0  0  0  0
  1  7  1  6  0  0  0
  1  6  1  0  0  0  0
  1  2  1  0  0  0  0
  2  8  1  6  0  0  0
  2  3  1  0  0  0  0
  2 17  1  0  0  0  0
  4 10  1  0  0  0  0
  4  3  1  0  0  0  0
  5  6  1  0  0  0  0
  5 11  1  1  0  0  0
  5  4  1  0  0  0  0
  6 12  1  1  0  0  0
  9  4  1  0  0  0  0
 13  1  1  0  0  0  0
 14 13  1  0  0  0  0
 15  5  1  0  0  0  0
 16 15  1  0  0  0  0
 17 18  1  0  0  0  0
 18 23  1  0  0  0  0
 19 18  2  0  0  0  0
 19 20  1  0  0  0  0
 20 21  2  0  0  0  0
 21 22  1  0  0  0  0
 22 25  1  0  0  0  0
 23 22  2  0  0  0  0
 24 19  1  0  0  0  0
 26 27  1  0  0  0  0
 26 20  1  0  0  0  0
 26 28  1  0  0  0  0
 27 28  1  0  0  0  0
 27 30  1  0  0  0  0
 28 33  1  0  0  0  0
 29 26  1  0  0  0  0
 31 27  1  0  0  0  0
 32 28  1  0  0  0  0
 34 35  1  0  0  0  0
 34  6  1  0  0  0  0
 35 37  1  0  0  0  0
 36 35  2  0  0  0  0
 37 45  1  0  0  0  0
 37 38  1  0  0  0  0
 38 39  1  0  0  0  0
 38 40  1  0  0  0  0
 40 42  1  0  0  0  0
 41 40  1  0  0  0  0
 42 43  1  0  0  0  0
 44 42  1  0  0  0  0
 45 44  1  0  0  0  0
M  END
>  <minimizedAffinity>
-6.47748899

>  <minimizedRMSD>
1.68764305

$$$$
