
 OpenBabel03242523553D

 45 48  0  0  1  0  0  0  0  0999 V2000
   42.8180   34.4940   38.7750 C   0  0  1  0  0  0  0  0  0  0  0  0
   42.9570   35.1870   40.1240 C   0  0  1  0  0  0  0  0  0  0  0  0
   41.6690   35.4210   40.6360 O   0  0  0  0  0  0  0  0  0  0  0  0
   40.7500   35.7500   39.6360 C   0  0  0  0  0  0  0  0  0  0  0  0
   40.4370   34.5680   38.7440 C   0  0  2  0  0  0  0  0  0  0  0  0
   41.6460   33.5740   38.8940 C   0  0  1  0  0  0  0  0  0  0  0  0
   43.7590   33.9370   38.5360 H   0  0  0  0  0  0  0  0  0  0  0  0
   43.5480   36.1130   40.0800 H   0  0  0  0  0  0  0  0  0  0  0  0
   41.0100   36.6530   39.0720 H   0  0  0  0  0  0  0  0  0  0  0  0
   39.8080   35.9760   40.1790 H   0  0  0  0  0  0  0  0  0  0  0  0
   39.5140   34.0370   39.0300 H   0  0  0  0  0  0  0  0  0  0  0  0
   41.4290   33.3170   39.9800 H   0  0  0  0  0  0  0  0  0  0  0  0
   42.6100   35.4330   37.7550 O   0  0  0  0  0  0  0  0  0  0  0  0
   43.4910   35.6940   37.4200 H   0  0  0  0  0  0  0  0  0  0  0  0
   40.4590   34.9680   37.4150 O   0  0  0  0  0  0  0  0  0  0  0  0
   40.0370   34.2640   36.8490 H   0  0  0  0  0  0  0  0  0  0  0  0
   43.4880   34.2050   40.9830 O   0  0  0  0  0  0  0  0  0  0  0  0
   44.6030   34.3500   41.7090 C   0  0  0  0  0  0  0  0  0  0  0  0
   45.8620   34.4460   41.1000 C   0  0  0  0  0  0  0  0  0  0  0  0
   46.9770   34.5970   41.9080 C   0  0  0  0  0  0  0  0  0  0  0  0
   46.8180   34.6490   43.2820 N   0  0  0  0  0  0  0  0  0  0  0  0
   45.5880   34.5530   43.8340 C   0  0  0  0  0  0  0  0  0  0  0  0
   44.4850   34.4040   43.0540 N   0  0  0  0  0  0  0  0  0  0  0  0
   45.9640   34.4030   40.0270 H   0  0  0  0  0  0  0  0  0  0  0  0
   45.4830   34.5940   44.9100 H   0  0  0  0  0  0  0  0  0  0  0  0
   48.3540   34.6900   41.3350 C   0  0  0  0  0  0  0  0  0  0  0  0
   49.0800   36.0250   41.5040 C   0  0  0  0  0  0  0  0  0  0  0  0
   49.5080   34.7010   42.1740 C   0  0  0  0  0  0  0  0  0  0  0  0
   48.3900   34.2520   40.2990 H   0  0  0  0  0  0  0  0  0  0  0  0
   48.5910   36.7800   42.1350 H   0  0  0  0  0  0  0  0  0  0  0  0
   49.6910   36.3440   40.6390 H   0  0  0  0  0  0  0  0  0  0  0  0
   50.4630   34.2610   41.8230 H   0  0  0  0  0  0  0  0  0  0  0  0
   49.4290   34.6990   43.2790 H   0  0  0  0  0  0  0  0  0  0  0  0
   41.5170   32.6300   37.9470 O   0  0  0  0  0  0  0  0  0  0  0  0
   40.8510   31.4530   38.0030 C   0  0  0  0  0  0  0  0  0  0  0  0
   39.6830   31.3210   37.4300 O   0  0  0  0  0  0  0  0  0  0  0  0
   40.8690   30.1000   38.4770 N   0  0  0  0  0  0  0  0  0  0  0  0
   40.5950   30.1320   39.9020 C   0  0  0  0  0  3  0  0  0  0  0  0
   41.2840   30.7320   40.4910 H   0  0  0  0  0  0  0  0  0  0  0  0
   40.4760   28.7100   40.3870 C   0  0  0  0  0  3  0  0  0  0  0  0
   39.5420   28.2640   39.9970 H   0  0  0  0  0  0  0  0  0  0  0  0
   41.6280   27.9160   40.0600 N   0  0  0  0  0  0  0  0  0  0  0  0
   41.3910   26.9190   40.2780 H   0  0  0  0  0  0  0  0  0  0  0  0
   42.0770   28.0690   38.7080 C   0  0  0  0  0  2  0  0  0  0  0  0
   41.0910   28.8470   37.8360 C   0  0  0  0  0  2  0  0  0  0  0  0
  1  7  1  6  0  0  0
  1  6  1  0  0  0  0
  1  2  1  0  0  0  0
  2  8  1  6  0  0  0
  2  3  1  0  0  0  0
  2 17  1  0  0  0  0
  4 10  1  0  0  0  0
  4  3  1  0  0  0  0
  5  6  1  0  0  0  0
  5 11  1  1  0  0  0
  5  4  1  0  0  0  0
  6 12  1  1  0  0  0
  9  4  1  0  0  0  0
 13  1  1  0  0  0  0
 14 13  1  0  0  0  0
 15  5  1  0  0  0  0
 16 15  1  0  0  0  0
 17 18  1  0  0  0  0
 18 23  1  0  0  0  0
 19 18  2  0  0  0  0
 19 20  1  0  0  0  0
 20 21  2  0  0  0  0
 21 22  1  0  0  0  0
 22 25  1  0  0  0  0
 23 22  2  0  0  0  0
 24 19  1  0  0  0  0
 26 27  1  0  0  0  0
 26 20  1  0  0  0  0
 26 28  1  0  0  0  0
 27 30  1  0  0  0  0
 27 28  1  0  0  0  0
 28 33  1  0  0  0  0
 29 26  1  0  0  0  0
 31 27  1  0  0  0  0
 32 28  1  0  0  0  0
 34 35  1  0  0  0  0
 34  6  1  0  0  0  0
 35 37  1  0  0  0  0
 36 35  2  0  0  0  0
 37 38  1  0  0  0  0
 38 40  1  0  0  0  0
 38 39  1  0  0  0  0
 41 40  1  0  0  0  0
 42 43  1  0  0  0  0
 42 40  1  0  0  0  0
 44 42  1  0  0  0  0
 45 37  1  0  0  0  0
 45 44  1  0  0  0  0
M  END
>  <minimizedAffinity>
-5.97800779

>  <minimizedRMSD>
0.173936158

$$$$
