
 OpenBabel03242523553D

 45 48  0  0  1  0  0  0  0  0999 V2000
   42.8140   34.5030   38.7660 C   0  0  1  0  0  0  0  0  0  0  0  0
   42.9600   35.1950   40.1150 C   0  0  1  0  0  0  0  0  0  0  0  0
   41.6740   35.4350   40.6300 O   0  0  0  0  0  0  0  0  0  0  0  0
   40.7540   35.7690   39.6330 C   0  0  0  0  0  0  0  0  0  0  0  0
   40.4330   34.5890   38.7400 C   0  0  2  0  0  0  0  0  0  0  0  0
   41.6380   33.5890   38.8880 C   0  0  1  0  0  0  0  0  0  0  0  0
   43.7520   33.9410   38.5240 H   0  0  0  0  0  0  0  0  0  0  0  0
   43.5550   36.1180   40.0700 H   0  0  0  0  0  0  0  0  0  0  0  0
   41.0180   36.6710   39.0680 H   0  0  0  0  0  0  0  0  0  0  0  0
   39.8150   36.0000   40.1780 H   0  0  0  0  0  0  0  0  0  0  0  0
   39.5080   34.0630   39.0280 H   0  0  0  0  0  0  0  0  0  0  0  0
   41.4210   33.3320   39.9740 H   0  0  0  0  0  0  0  0  0  0  0  0
   42.6090   35.4440   37.7470 O   0  0  0  0  0  0  0  0  0  0  0  0
   43.4900   35.7000   37.4100 H   0  0  0  0  0  0  0  0  0  0  0  0
   40.4540   34.9900   37.4120 O   0  0  0  0  0  0  0  0  0  0  0  0
   40.0270   34.2880   36.8470 H   0  0  0  0  0  0  0  0  0  0  0  0
   43.4870   34.2090   40.9720 O   0  0  0  0  0  0  0  0  0  0  0  0
   44.6000   34.3510   41.7020 C   0  0  0  0  0  0  0  0  0  0  0  0
   45.8610   34.4450   41.0960 C   0  0  0  0  0  0  0  0  0  0  0  0
   46.9740   34.5930   41.9060 C   0  0  0  0  0  0  0  0  0  0  0  0
   46.8120   34.6430   43.2800 N   0  0  0  0  0  0  0  0  0  0  0  0
   45.5800   34.5490   43.8300 C   0  0  0  0  0  0  0  0  0  0  0  0
   44.4790   34.4030   43.0460 N   0  0  0  0  0  0  0  0  0  0  0  0
   45.9660   34.4030   40.0230 H   0  0  0  0  0  0  0  0  0  0  0  0
   45.4730   34.5890   44.9050 H   0  0  0  0  0  0  0  0  0  0  0  0
   48.3530   34.6840   41.3370 C   0  0  0  0  0  0  0  0  0  0  0  0
   49.0780   36.0190   41.5020 C   0  0  0  0  0  0  0  0  0  0  0  0
   49.5050   34.6990   42.1790 C   0  0  0  0  0  0  0  0  0  0  0  0
   48.3930   34.2410   40.3040 H   0  0  0  0  0  0  0  0  0  0  0  0
   48.5870   36.7770   42.1280 H   0  0  0  0  0  0  0  0  0  0  0  0
   49.6910   36.3340   40.6380 H   0  0  0  0  0  0  0  0  0  0  0  0
   50.4610   34.2580   41.8340 H   0  0  0  0  0  0  0  0  0  0  0  0
   49.4230   34.7030   43.2840 H   0  0  0  0  0  0  0  0  0  0  0  0
   41.5010   32.6460   37.9410 O   0  0  0  0  0  0  0  0  0  0  0  0
   40.8250   31.4750   37.9950 C   0  0  0  0  0  0  0  0  0  0  0  0
   39.6410   31.3630   37.4510 O   0  0  0  0  0  0  0  0  0  0  0  0
   40.8410   30.1150   38.4480 N   0  0  0  0  0  0  0  0  0  0  0  0
   41.9810   29.4610   37.8320 C   0  0  0  0  0  3  0  0  0  0  0  0
   41.9900   29.4810   36.7450 H   0  0  0  0  0  0  0  0  0  0  0  0
   42.0880   28.0710   38.4040 C   0  0  0  0  0  3  0  0  0  0  0  0
   42.4170   28.1300   39.4580 H   0  0  0  0  0  0  0  0  0  0  0  0
   40.8720   27.3200   38.2610 N   0  0  0  0  0  0  0  0  0  0  0  0
   40.9780   26.4440   38.8290 H   0  0  0  0  0  0  0  0  0  0  0  0
   39.6910   28.0450   38.6280 C   0  0  0  0  0  2  0  0  0  0  0  0
   39.9970   29.3710   39.3240 C   0  0  0  0  0  2  0  0  0  0  0  0
  1  7  1  6  0  0  0
  1  6  1  0  0  0  0
  1  2  1  0  0  0  0
  2  8  1  6  0  0  0
  2  3  1  0  0  0  0
  2 17  1  0  0  0  0
  4 10  1  0  0  0  0
  4  3  1  0  0  0  0
  5  6  1  0  0  0  0
  5 11  1  1  0  0  0
  5  4  1  0  0  0  0
  6 12  1  1  0  0  0
  9  4  1  0  0  0  0
 13  1  1  0  0  0  0
 14 13  1  0  0  0  0
 15  5  1  0  0  0  0
 16 15  1  0  0  0  0
 17 18  1  0  0  0  0
 18 23  1  0  0  0  0
 19 18  2  0  0  0  0
 19 20  1  0  0  0  0
 20 21  2  0  0  0  0
 21 22  1  0  0  0  0
 22 25  1  0  0  0  0
 23 22  2  0  0  0  0
 24 19  1  0  0  0  0
 26 27  1  0  0  0  0
 26 20  1  0  0  0  0
 26 28  1  0  0  0  0
 27 30  1  0  0  0  0
 27 28  1  0  0  0  0
 28 33  1  0  0  0  0
 29 26  1  0  0  0  0
 31 27  1  0  0  0  0
 32 28  1  0  0  0  0
 34 35  1  0  0  0  0
 34  6  1  0  0  0  0
 35 37  1  0  0  0  0
 36 35  2  0  0  0  0
 37 45  1  0  0  0  0
 38 40  1  0  0  0  0
 38 37  1  0  0  0  0
 39 38  1  0  0  0  0
 40 41  1  0  0  0  0
 42 40  1  0  0  0  0
 42 44  1  0  0  0  0
 42 43  1  0  0  0  0
 44 45  1  0  0  0  0
M  END
>  <minimizedAffinity>
-5.94470739

>  <minimizedRMSD>
0.138601661

$$$$
