
 OpenBabel03242523553D

 45 48  0  0  1  0  0  0  0  0999 V2000
   42.8130   34.4860   38.7760 C   0  0  1  0  0  0  0  0  0  0  0  0
   42.9590   35.1870   40.1200 C   0  0  1  0  0  0  0  0  0  0  0  0
   41.6730   35.4340   40.6310 O   0  0  0  0  0  0  0  0  0  0  0  0
   40.7550   35.7630   39.6300 C   0  0  0  0  0  0  0  0  0  0  0  0
   40.4330   34.5780   38.7460 C   0  0  2  0  0  0  0  0  0  0  0  0
   41.6350   33.5750   38.9030 C   0  0  1  0  0  0  0  0  0  0  0  0
   43.7500   33.9190   38.5390 H   0  0  0  0  0  0  0  0  0  0  0  0
   43.5570   36.1080   40.0690 H   0  0  0  0  0  0  0  0  0  0  0  0
   41.0220   36.6600   39.0590 H   0  0  0  0  0  0  0  0  0  0  0  0
   39.8170   36.0010   40.1730 H   0  0  0  0  0  0  0  0  0  0  0  0
   39.5060   34.0560   39.0370 H   0  0  0  0  0  0  0  0  0  0  0  0
   41.4160   33.3280   39.9900 H   0  0  0  0  0  0  0  0  0  0  0  0
   42.6120   35.4190   37.7490 O   0  0  0  0  0  0  0  0  0  0  0  0
   43.4940   35.6710   37.4120 H   0  0  0  0  0  0  0  0  0  0  0  0
   40.4570   34.9680   37.4150 O   0  0  0  0  0  0  0  0  0  0  0  0
   40.0290   34.2640   36.8540 H   0  0  0  0  0  0  0  0  0  0  0  0
   43.4830   34.2070   40.9850 O   0  0  0  0  0  0  0  0  0  0  0  0
   44.5980   34.3480   41.7110 C   0  0  0  0  0  0  0  0  0  0  0  0
   45.8570   34.4460   41.1000 C   0  0  0  0  0  0  0  0  0  0  0  0
   46.9730   34.5940   41.9070 C   0  0  0  0  0  0  0  0  0  0  0  0
   46.8150   34.6420   43.2820 N   0  0  0  0  0  0  0  0  0  0  0  0
   45.5860   34.5450   43.8350 C   0  0  0  0  0  0  0  0  0  0  0  0
   44.4820   34.3990   43.0550 N   0  0  0  0  0  0  0  0  0  0  0  0
   45.9580   34.4050   40.0270 H   0  0  0  0  0  0  0  0  0  0  0  0
   45.4820   34.5830   44.9110 H   0  0  0  0  0  0  0  0  0  0  0  0
   48.3500   34.6870   41.3330 C   0  0  0  0  0  0  0  0  0  0  0  0
   49.0760   36.0210   41.5040 C   0  0  0  0  0  0  0  0  0  0  0  0
   49.5050   34.6970   42.1710 C   0  0  0  0  0  0  0  0  0  0  0  0
   48.3850   34.2510   40.2970 H   0  0  0  0  0  0  0  0  0  0  0  0
   48.5880   36.7750   42.1370 H   0  0  0  0  0  0  0  0  0  0  0  0
   49.6860   36.3420   40.6390 H   0  0  0  0  0  0  0  0  0  0  0  0
   50.4590   34.2570   41.8190 H   0  0  0  0  0  0  0  0  0  0  0  0
   49.4270   34.6930   43.2760 H   0  0  0  0  0  0  0  0  0  0  0  0
   41.4970   32.6260   37.9620 O   0  0  0  0  0  0  0  0  0  0  0  0
   40.7900   31.4730   38.0130 C   0  0  0  0  0  0  0  0  0  0  0  0
   39.6010   31.3970   37.4740 O   0  0  0  0  0  0  0  0  0  0  0  0
   40.7710   30.1100   38.4560 N   0  0  0  0  0  0  0  0  0  0  0  0
   41.5720   30.0320   39.6650 C   0  0  0  0  0  3  0  0  0  0  0  0
   42.6020   30.3640   39.5560 H   0  0  0  0  0  0  0  0  0  0  0  0
   41.4500   28.6350   40.2170 C   0  0  0  0  0  3  0  0  0  0  0  0
   40.4320   28.4850   40.6220 H   0  0  0  0  0  0  0  0  0  0  0  0
   41.7970   27.6270   39.2530 N   0  0  0  0  0  0  0  0  0  0  0  0
   41.5240   26.7000   39.6590 H   0  0  0  0  0  0  0  0  0  0  0  0
   41.2130   27.8300   37.9600 C   0  0  0  0  0  2  0  0  0  0  0  0
   40.1520   28.9310   37.9500 C   0  0  0  0  0  2  0  0  0  0  0  0
  1  7  1  6  0  0  0
  1  6  1  0  0  0  0
  1  2  1  0  0  0  0
  2  8  1  6  0  0  0
  2  3  1  0  0  0  0
  2 17  1  0  0  0  0
  4 10  1  0  0  0  0
  4  3  1  0  0  0  0
  5  6  1  0  0  0  0
  5 11  1  1  0  0  0
  5  4  1  0  0  0  0
  6 12  1  1  0  0  0
  9  4  1  0  0  0  0
 13  1  1  0  0  0  0
 14 13  1  0  0  0  0
 15  5  1  0  0  0  0
 16 15  1  0  0  0  0
 17 18  1  0  0  0  0
 18 23  1  0  0  0  0
 19 18  2  0  0  0  0
 19 20  1  0  0  0  0
 20 21  2  0  0  0  0
 21 22  1  0  0  0  0
 22 25  1  0  0  0  0
 23 22  2  0  0  0  0
 24 19  1  0  0  0  0
 26 27  1  0  0  0  0
 26 20  1  0  0  0  0
 26 28  1  0  0  0  0
 27 30  1  0  0  0  0
 27 28  1  0  0  0  0
 28 33  1  0  0  0  0
 29 26  1  0  0  0  0
 31 27  1  0  0  0  0
 32 28  1  0  0  0  0
 34 35  1  0  0  0  0
 34  6  1  0  0  0  0
 35 37  1  0  0  0  0
 36 35  2  0  0  0  0
 37 38  1  0  0  0  0
 38 40  1  0  0  0  0
 39 38  1  0  0  0  0
 40 41  1  0  0  0  0
 42 43  1  0  0  0  0
 42 40  1  0  0  0  0
 44 42  1  0  0  0  0
 45 44  1  0  0  0  0
 45 37  1  0  0  0  0
M  END
>  <minimizedAffinity>
-5.90911245

>  <minimizedRMSD>
0.188782394

$$$$
