
 OpenBabel03242516553D

 45 48  0  0  1  0  0  0  0  0999 V2000
   38.9870   24.8650   40.9550 C   0  0  1  0  0  0  0  0  0  0  0  0
   38.3200   23.7790   41.6720 C   0  0  0  0  0  0  0  0  0  0  0  0
   37.3870   23.1190   40.6590 C   0  0  0  0  0  0  0  0  0  0  0  0
   36.2720   24.1110   40.3920 C   0  0  0  0  0  0  0  0  0  0  0  0
   36.7450   25.4680   39.9490 C   0  0  0  0  0  0  0  0  0  0  0  0
   38.0080   25.9610   40.5160 C   0  0  1  0  0  0  0  0  0  0  0  0
   39.3520   24.4660   39.9580 H   0  0  0  0  0  0  0  0  0  0  0  0
   37.6280   24.1320   42.4870 H   0  0  0  0  0  0  0  0  0  0  0  0
   39.0730   23.0810   42.0650 H   0  0  0  0  0  0  0  0  0  0  0  0
   37.9400   22.8830   39.7300 H   0  0  0  0  0  0  0  0  0  0  0  0
   36.9400   22.2460   41.1360 H   0  0  0  0  0  0  0  0  0  0  0  0
   35.7040   24.2220   41.3370 H   0  0  0  0  0  0  0  0  0  0  0  0
   35.6390   23.6500   39.6090 H   0  0  0  0  0  0  0  0  0  0  0  0
   36.7670   25.4540   38.8400 H   0  0  0  0  0  0  0  0  0  0  0  0
   35.9340   26.1870   40.2150 H   0  0  0  0  0  0  0  0  0  0  0  0
   38.5600   26.5220   39.7080 H   0  0  0  0  0  0  0  0  0  0  0  0
   41.3910   25.9050   43.6800 C   0  0  0  0  0  0  0  0  0  0  0  0
   40.3190   25.3380   42.9800 C   0  0  0  0  0  0  0  0  0  0  0  0
   40.1270   25.4780   41.6030 C   0  0  0  0  0  0  0  0  0  0  0  0
   41.0500   26.2030   40.9710 N   0  0  0  0  0  0  0  0  0  0  0  0
   42.0960   26.7600   41.6350 C   0  0  0  0  0  0  0  0  0  0  0  0
   42.2760   26.6230   42.9550 N   0  0  0  0  0  0  0  0  0  0  0  0
   41.4200   25.7190   44.7460 H   0  0  0  0  0  0  0  0  0  0  0  0
   39.5720   24.7460   43.5240 H   0  0  0  0  0  0  0  0  0  0  0  0
   42.8300   27.3460   41.0860 H   0  0  0  0  0  0  0  0  0  0  0  0
   37.7990   26.9530   41.5710 C   0  0  0  0  0  0  0  0  0  0  0  0
   37.0540   26.7600   42.7440 C   0  0  0  0  0  0  0  0  0  0  0  0
   37.0020   27.8400   43.6170 C   0  0  0  0  0  0  0  0  0  0  0  0
   37.6740   28.9960   43.2690 C   0  0  0  0  0  0  0  0  0  0  0  0
   38.4040   29.1660   42.1050 C   0  0  0  0  0  0  0  0  0  0  0  0
   38.4410   28.1000   41.2700 N   0  0  0  0  0  0  0  0  0  0  0  0
   36.5960   25.8110   42.8650 H   0  0  0  0  0  0  0  0  0  0  0  0
   36.4420   27.7140   44.5100 H   0  0  0  0  0  0  0  0  0  0  0  0
   37.5780   29.7920   44.0130 H   0  0  0  0  0  0  0  0  0  0  0  0
   39.0780   30.4290   41.8340 C   0  0  0  0  0  0  0  0  0  0  0  0
   39.9520   30.8330   42.6430 O   0  0  0  0  0  0  0  0  0  0  0  0
   38.9560   31.3740   40.7790 N   0  0  0  0  0  0  0  0  0  0  0  0
   38.2460   30.8820   39.6190 C   0  0  0  0  0  3  0  0  0  0  0  0
   39.0050   30.8430   38.7830 H   0  0  0  0  0  0  0  0  0  0  0  0
   37.2100   31.9130   39.2220 C   0  0  0  0  0  3  0  0  0  0  0  0
   36.2620   31.3640   39.0680 H   0  0  0  0  0  0  0  0  0  0  0  0
   36.9900   32.8880   40.2560 N   0  0  0  0  0  0  0  0  0  0  0  0
   36.1810   33.4750   40.0060 H   0  0  0  0  0  0  0  0  0  0  0  0
   38.1840   33.6690   40.5330 C   0  0  0  0  0  2  0  0  0  0  0  0
   39.3680   32.7590   40.5290 C   0  0  0  0  0  2  0  0  0  0  0  0
  1  7  1  6  0  0  0
  1 19  1  0  0  0  0
  1  2  1  0  0  0  0
  2  9  1  0  0  0  0
  2  8  1  0  0  0  0
  3 11  1  0  0  0  0
  3  2  1  0  0  0  0
  4  3  1  0  0  0  0
  4 12  1  0  0  0  0
  5 15  1  0  0  0  0
  5  4  1  0  0  0  0
  5  6  1  0  0  0  0
  6 16  1  6  0  0  0
  6  1  1  0  0  0  0
  6 26  1  0  0  0  0
 10  3  1  0  0  0  0
 13  4  1  0  0  0  0
 14  5  1  0  0  0  0
 17 23  1  0  0  0  0
 18 24  1  0  0  0  0
 18 17  1  0  0  0  0
 19 18  2  0  0  0  0
 20 19  1  0  0  0  0
 20 21  2  0  0  0  0
 21 22  1  0  0  0  0
 22 17  2  0  0  0  0
 25 21  1  0  0  0  0
 26 27  1  0  0  0  0
 27 32  1  0  0  0  0
 27 28  2  0  0  0  0
 28 33  1  0  0  0  0
 29 28  1  0  0  0  0
 29 34  1  0  0  0  0
 30 29  2  0  0  0  0
 31 26  2  0  0  0  0
 31 30  1  0  0  0  0
 35 30  1  0  0  0  0
 35 36  2  0  0  0  0
 37 35  1  0  0  0  0
 38 37  1  0  0  0  0
 39 38  1  0  0  0  0
 40 38  1  0  0  0  0
 40 42  1  0  0  0  0
 41 40  1  0  0  0  0
 42 44  1  0  0  0  0
 43 42  1  0  0  0  0
 45 44  1  0  0  0  0
 45 37  1  0  0  0  0
M  END
>  <minimizedAffinity>
-6.72762489

$$$$

 OpenBabel03242516553D

 45 48  0  0  1  0  0  0  0  0999 V2000
   39.8790   25.1180   41.5050 C   0  0  1  0  0  0  0  0  0  0  0  0
   40.9540   25.8200   40.8060 C   0  0  0  0  0  0  0  0  0  0  0  0
   42.2250   25.5460   41.6090 C   0  0  0  0  0  0  0  0  0  0  0  0
   42.0830   26.3090   42.9110 C   0  0  0  0  0  0  0  0  0  0  0  0
   40.8290   25.9940   43.6800 C   0  0  0  0  0  0  0  0  0  0  0  0
   39.6190   25.6930   42.9020 C   0  0  1  0  0  0  0  0  0  0  0  0
   40.2330   24.0680   41.7460 H   0  0  0  0  0  0  0  0  0  0  0  0
   40.8550   26.9410   40.8320 H   0  0  0  0  0  0  0  0  0  0  0  0
   41.0240   25.4510   39.7730 H   0  0  0  0  0  0  0  0  0  0  0  0
   42.3290   24.4600   41.7950 H   0  0  0  0  0  0  0  0  0  0  0  0
   43.0630   25.9810   41.0650 H   0  0  0  0  0  0  0  0  0  0  0  0
   42.0820   27.3880   42.6550 H   0  0  0  0  0  0  0  0  0  0  0  0
   42.9770   26.0520   43.5110 H   0  0  0  0  0  0  0  0  0  0  0  0
   41.0820   25.1760   44.3850 H   0  0  0  0  0  0  0  0  0  0  0  0
   40.6230   26.8810   44.3240 H   0  0  0  0  0  0  0  0  0  0  0  0
   39.0510   24.8780   43.4380 H   0  0  0  0  0  0  0  0  0  0  0  0
   36.5140   23.7350   40.4780 C   0  0  0  0  0  0  0  0  0  0  0  0
   37.7450   23.9370   41.1140 C   0  0  0  0  0  0  0  0  0  0  0  0
   38.6190   24.9820   40.8040 C   0  0  0  0  0  0  0  0  0  0  0  0
   38.2030   25.8040   39.8400 N   0  0  0  0  0  0  0  0  0  0  0  0
   37.0120   25.6220   39.2130 C   0  0  0  0  0  0  0  0  0  0  0  0
   36.1770   24.6180   39.5140 N   0  0  0  0  0  0  0  0  0  0  0  0
   35.9340   22.8850   40.8150 H   0  0  0  0  0  0  0  0  0  0  0  0
   38.0640   23.2450   41.9040 H   0  0  0  0  0  0  0  0  0  0  0  0
   36.7060   26.3130   38.4300 H   0  0  0  0  0  0  0  0  0  0  0  0
   38.6860   26.8190   42.8580 C   0  0  0  0  0  0  0  0  0  0  0  0
   37.3190   26.7660   43.1680 C   0  0  0  0  0  0  0  0  0  0  0  0
   36.6250   27.9660   43.0710 C   0  0  0  0  0  0  0  0  0  0  0  0
   37.3210   29.0950   42.6860 C   0  0  0  0  0  0  0  0  0  0  0  0
   38.6720   29.1260   42.3840 C   0  0  0  0  0  0  0  0  0  0  0  0
   39.3270   27.9450   42.4850 N   0  0  0  0  0  0  0  0  0  0  0  0
   36.9320   25.8190   43.4490 H   0  0  0  0  0  0  0  0  0  0  0  0
   35.5890   27.9460   43.3020 H   0  0  0  0  0  0  0  0  0  0  0  0
   36.6970   29.9920   42.6360 H   0  0  0  0  0  0  0  0  0  0  0  0
   39.3110   30.3740   41.9860 C   0  0  0  0  0  0  0  0  0  0  0  0
   40.2330   30.8360   42.7080 O   0  0  0  0  0  0  0  0  0  0  0  0
   39.1090   31.2470   40.8830 N   0  0  0  0  0  0  0  0  0  0  0  0
   38.3290   30.6740   39.8080 C   0  0  0  0  0  3  0  0  0  0  0  0
   39.0310   30.5870   38.9270 H   0  0  0  0  0  0  0  0  0  0  0  0
   37.2570   31.6700   39.4150 C   0  0  0  0  0  3  0  0  0  0  0  0
   36.3070   31.1050   39.3610 H   0  0  0  0  0  0  0  0  0  0  0  0
   37.0950   32.7090   40.3960 N   0  0  0  0  0  0  0  0  0  0  0  0
   36.2640   33.2720   40.1630 H   0  0  0  0  0  0  0  0  0  0  0  0
   38.2950   33.5150   40.5410 C   0  0  0  0  0  2  0  0  0  0  0  0
   39.4870   32.6160   40.5170 C   0  0  0  0  0  2  0  0  0  0  0  0
  1  7  1  1  0  0  0
  1  6  1  0  0  0  0
  2  8  1  0  0  0  0
  2  1  1  0  0  0  0
  2  3  1  0  0  0  0
  3 10  1  0  0  0  0
  3  4  1  0  0  0  0
  4 13  1  0  0  0  0
  4  5  1  0  0  0  0
  5 15  1  0  0  0  0
  5 14  1  0  0  0  0
  6 16  1  1  0  0  0
  6  5  1  0  0  0  0
  9  2  1  0  0  0  0
 11  3  1  0  0  0  0
 12  4  1  0  0  0  0
 17 23  1  0  0  0  0
 17 18  1  0  0  0  0
 18 24  1  0  0  0  0
 19 18  2  0  0  0  0
 19  1  1  0  0  0  0
 20 19  1  0  0  0  0
 21 22  1  0  0  0  0
 21 20  2  0  0  0  0
 22 17  2  0  0  0  0
 25 21  1  0  0  0  0
 26  6  1  0  0  0  0
 26 27  1  0  0  0  0
 27 32  1  0  0  0  0
 28 27  2  0  0  0  0
 28 33  1  0  0  0  0
 29 28  1  0  0  0  0
 30 31  1  0  0  0  0
 30 29  2  0  0  0  0
 31 26  2  0  0  0  0
 34 29  1  0  0  0  0
 35 30  1  0  0  0  0
 35 36  2  0  0  0  0
 37 35  1  0  0  0  0
 38 37  1  0  0  0  0
 39 38  1  0  0  0  0
 40 38  1  0  0  0  0
 40 42  1  0  0  0  0
 41 40  1  0  0  0  0
 42 44  1  0  0  0  0
 43 42  1  0  0  0  0
 45 44  1  0  0  0  0
 45 37  1  0  0  0  0
M  END
>  <minimizedAffinity>
-6.3052597

$$$$

 OpenBabel03242516553D

 45 48  0  0  1  0  0  0  0  0999 V2000
   36.5390   30.7070   38.9520 C   0  0  1  0  0  0  0  0  0  0  0  0
   36.7320   29.7980   37.8230 C   0  0  0  0  0  0  0  0  0  0  0  0
   35.3330   29.3610   37.3930 C   0  0  0  0  0  0  0  0  0  0  0  0
   34.8070   28.4610   38.4940 C   0  0  0  0  0  0  0  0  0  0  0  0
   34.8270   29.0820   39.8630 C   0  0  0  0  0  0  0  0  0  0  0  0
   35.9310   30.0020   40.1700 C   0  0  1  0  0  0  0  0  0  0  0  0
   35.7250   31.4480   38.6810 H   0  0  0  0  0  0  0  0  0  0  0  0
   37.2430   28.8340   38.1000 H   0  0  0  0  0  0  0  0  0  0  0  0
   37.2740   30.3180   37.0200 H   0  0  0  0  0  0  0  0  0  0  0  0
   34.6830   30.2470   37.2590 H   0  0  0  0  0  0  0  0  0  0  0  0
   35.4350   28.7520   36.4940 H   0  0  0  0  0  0  0  0  0  0  0  0
   35.4450   27.5550   38.5040 H   0  0  0  0  0  0  0  0  0  0  0  0
   33.7700   28.2040   38.2040 H   0  0  0  0  0  0  0  0  0  0  0  0
   33.8370   29.5590   40.0140 H   0  0  0  0  0  0  0  0  0  0  0  0
   34.8580   28.2380   40.5920 H   0  0  0  0  0  0  0  0  0  0  0  0
   35.5220   30.8410   40.8040 H   0  0  0  0  0  0  0  0  0  0  0  0
   38.5690   33.5140   40.4630 C   0  0  0  0  0  0  0  0  0  0  0  0
   37.5130   32.7050   40.0300 C   0  0  0  0  0  0  0  0  0  0  0  0
   37.6860   31.4830   39.3750 C   0  0  0  0  0  0  0  0  0  0  0  0
   38.9530   31.1180   39.1780 N   0  0  0  0  0  0  0  0  0  0  0  0
   39.9900   31.8930   39.5910 C   0  0  0  0  0  0  0  0  0  0  0  0
   39.8190   33.0630   40.2200 N   0  0  0  0  0  0  0  0  0  0  0  0
   38.2940   34.4380   40.9580 H   0  0  0  0  0  0  0  0  0  0  0  0
   36.4780   33.0280   40.2040 H   0  0  0  0  0  0  0  0  0  0  0  0
   41.0110   31.5630   39.4130 H   0  0  0  0  0  0  0  0  0  0  0  0
   36.9610   29.3830   41.0060 C   0  0  0  0  0  0  0  0  0  0  0  0
   37.4090   29.8620   42.2460 C   0  0  0  0  0  0  0  0  0  0  0  0
   38.3890   29.1020   42.8730 C   0  0  0  0  0  0  0  0  0  0  0  0
   38.8360   27.9580   42.2410 C   0  0  0  0  0  0  0  0  0  0  0  0
   38.3790   27.5030   41.0150 C   0  0  0  0  0  0  0  0  0  0  0  0
   37.4250   28.2590   40.4230 N   0  0  0  0  0  0  0  0  0  0  0  0
   36.9650   30.7580   42.5980 H   0  0  0  0  0  0  0  0  0  0  0  0
   38.7420   29.4480   43.8130 H   0  0  0  0  0  0  0  0  0  0  0  0
   39.6050   27.4240   42.8060 H   0  0  0  0  0  0  0  0  0  0  0  0
   38.9180   26.2800   40.4350 C   0  0  0  0  0  0  0  0  0  0  0  0
   40.0150   26.3350   39.8220 O   0  0  0  0  0  0  0  0  0  0  0  0
   38.4420   24.9400   40.4060 N   0  0  0  0  0  0  0  0  0  0  0  0
   37.3800   24.6670   41.3490 C   0  0  0  0  0  3  0  0  0  0  0  0
   37.8070   23.9370   42.0970 H   0  0  0  0  0  0  0  0  0  0  0  0
   36.2690   23.9420   40.6170 C   0  0  0  0  0  3  0  0  0  0  0  0
   35.3260   24.4520   40.8920 H   0  0  0  0  0  0  0  0  0  0  0  0
   36.4130   24.0280   39.1890 N   0  0  0  0  0  0  0  0  0  0  0  0
   35.5670   23.6540   38.7370 H   0  0  0  0  0  0  0  0  0  0  0  0
   37.6280   23.3820   38.7240 C   0  0  0  0  0  2  0  0  0  0  0  0
   38.7420   23.7130   39.6620 C   0  0  0  0  0  2  0  0  0  0  0  0
  1  7  1  6  0  0  0
  1 19  1  0  0  0  0
  1  6  1  0  0  0  0
  2  8  1  0  0  0  0
  2  1  1  0  0  0  0
  3  2  1  0  0  0  0
  3  4  1  0  0  0  0
  4 12  1  0  0  0  0
  4  5  1  0  0  0  0
  5 14  1  0  0  0  0
  5  6  1  0  0  0  0
  5 15  1  0  0  0  0
  6 16  1  1  0  0  0
  6 26  1  0  0  0  0
  9  2  1  0  0  0  0
 10  3  1  0  0  0  0
 11  3  1  0  0  0  0
 13  4  1  0  0  0  0
 17 23  1  0  0  0  0
 18 24  1  0  0  0  0
 18 17  2  0  0  0  0
 19 18  1  0  0  0  0
 20 19  2  0  0  0  0
 20 21  1  0  0  0  0
 21 22  2  0  0  0  0
 22 17  1  0  0  0  0
 25 21  1  0  0  0  0
 26 27  1  0  0  0  0
 27 32  1  0  0  0  0
 27 28  2  0  0  0  0
 28 33  1  0  0  0  0
 29 34  1  0  0  0  0
 29 28  1  0  0  0  0
 30 29  2  0  0  0  0
 31 26  2  0  0  0  0
 31 30  1  0  0  0  0
 35 30  1  0  0  0  0
 36 35  2  0  0  0  0
 37 35  1  0  0  0  0
 37 38  1  0  0  0  0
 38 39  1  0  0  0  0
 40 41  1  0  0  0  0
 40 38  1  0  0  0  0
 42 40  1  0  0  0  0
 43 42  1  0  0  0  0
 44 42  1  0  0  0  0
 44 45  1  0  0  0  0
 45 37  1  0  0  0  0
M  END
>  <minimizedAffinity>
-6.06669521

$$$$

 OpenBabel03242516553D

 45 48  0  0  1  0  0  0  0  0999 V2000
   38.9630   24.8600   40.8670 C   0  0  1  0  0  0  0  0  0  0  0  0
   38.4280   23.6870   41.5560 C   0  0  0  0  0  0  0  0  0  0  0  0
   37.6420   22.9050   40.5060 C   0  0  0  0  0  0  0  0  0  0  0  0
   36.4100   23.7300   40.1900 C   0  0  0  0  0  0  0  0  0  0  0  0
   36.7020   25.1420   39.7660 C   0  0  0  0  0  0  0  0  0  0  0  0
   37.8570   25.8070   40.3860 C   0  0  1  0  0  0  0  0  0  0  0  0
   39.4230   24.5220   39.8880 H   0  0  0  0  0  0  0  0  0  0  0  0
   37.6590   23.9330   42.3410 H   0  0  0  0  0  0  0  0  0  0  0  0
   39.2560   23.1000   41.9820 H   0  0  0  0  0  0  0  0  0  0  0  0
   38.2620   22.7560   39.6010 H   0  0  0  0  0  0  0  0  0  0  0  0
   37.3040   21.9750   40.9640 H   0  0  0  0  0  0  0  0  0  0  0  0
   35.7920   23.7540   41.1100 H   0  0  0  0  0  0  0  0  0  0  0  0
   35.8820   23.1870   39.3810 H   0  0  0  0  0  0  0  0  0  0  0  0
   36.7730   25.1370   38.6590 H   0  0  0  0  0  0  0  0  0  0  0  0
   35.7870   25.7370   39.9970 H   0  0  0  0  0  0  0  0  0  0  0  0
   38.3570   26.4450   39.6020 H   0  0  0  0  0  0  0  0  0  0  0  0
   41.2700   26.0200   43.6270 C   0  0  0  0  0  0  0  0  0  0  0  0
   40.3080   25.3240   42.8860 C   0  0  0  0  0  0  0  0  0  0  0  0
   39.9760   25.6260   41.5630 C   0  0  0  0  0  0  0  0  0  0  0  0
   40.6460   26.6460   41.0260 N   0  0  0  0  0  0  0  0  0  0  0  0
   41.5830   27.3320   41.7320 C   0  0  0  0  0  0  0  0  0  0  0  0
   41.8980   27.0390   43.0000 N   0  0  0  0  0  0  0  0  0  0  0  0
   41.4290   25.6830   44.6430 H   0  0  0  0  0  0  0  0  0  0  0  0
   39.7690   24.4880   43.3510 H   0  0  0  0  0  0  0  0  0  0  0  0
   42.1100   28.1590   41.2610 H   0  0  0  0  0  0  0  0  0  0  0  0
   37.4650   26.7540   41.4310 C   0  0  0  0  0  0  0  0  0  0  0  0
   37.0170   26.4190   42.7170 C   0  0  0  0  0  0  0  0  0  0  0  0
   36.7110   27.4860   43.5530 C   0  0  0  0  0  0  0  0  0  0  0  0
   36.8690   28.7680   43.0620 C   0  0  0  0  0  0  0  0  0  0  0  0
   37.3120   29.0770   41.7880 C   0  0  0  0  0  0  0  0  0  0  0  0
   37.6040   28.0210   40.9910 N   0  0  0  0  0  0  0  0  0  0  0  0
   36.9510   25.3840   42.9420 H   0  0  0  0  0  0  0  0  0  0  0  0
   36.3700   27.2530   44.5310 H   0  0  0  0  0  0  0  0  0  0  0  0
   36.6050   29.5430   43.7870 H   0  0  0  0  0  0  0  0  0  0  0  0
   37.4440   30.4660   41.3690 C   0  0  0  0  0  0  0  0  0  0  0  0
   36.4060   31.1010   41.0470 O   0  0  0  0  0  0  0  0  0  0  0  0
   38.5690   31.3260   41.2350 N   0  0  0  0  0  0  0  0  0  0  0  0
   39.7660   30.8430   41.8870 C   0  0  0  0  0  3  0  0  0  0  0  0
   39.9790   31.5710   42.7240 H   0  0  0  0  0  0  0  0  0  0  0  0
   40.9180   30.9530   40.9090 C   0  0  0  0  0  3  0  0  0  0  0  0
   41.4480   29.9820   40.9370 H   0  0  0  0  0  0  0  0  0  0  0  0
   40.4670   31.1670   39.5610 N   0  0  0  0  0  0  0  0  0  0  0  0
   41.2660   31.0870   38.9160 H   0  0  0  0  0  0  0  0  0  0  0  0
   39.7550   32.4250   39.4170 C   0  0  0  0  0  2  0  0  0  0  0  0
   38.8620   32.6140   40.5990 C   0  0  0  0  0  2  0  0  0  0  0  0
  1  7  1  6  0  0  0
  1  2  1  0  0  0  0
  1 19  1  0  0  0  0
  2  9  1  0  0  0  0
  2  8  1  0  0  0  0
  3 11  1  0  0  0  0
  3  2  1  0  0  0  0
  4  3  1  0  0  0  0
  4 12  1  0  0  0  0
  5 15  1  0  0  0  0
  5  4  1  0  0  0  0
  5  6  1  0  0  0  0
  6 16  1  6  0  0  0
  6  1  1  0  0  0  0
  6 26  1  0  0  0  0
 10  3  1  0  0  0  0
 13  4  1  0  0  0  0
 14  5  1  0  0  0  0
 17 23  1  0  0  0  0
 18 24  1  0  0  0  0
 18 17  2  0  0  0  0
 19 18  1  0  0  0  0
 20 19  2  0  0  0  0
 20 21  1  0  0  0  0
 21 22  2  0  0  0  0
 22 17  1  0  0  0  0
 25 21  1  0  0  0  0
 26 27  1  0  0  0  0
 27 32  1  0  0  0  0
 27 28  2  0  0  0  0
 28 33  1  0  0  0  0
 29 28  1  0  0  0  0
 29 34  1  0  0  0  0
 30 29  2  0  0  0  0
 31 26  2  0  0  0  0
 31 30  1  0  0  0  0
 35 30  1  0  0  0  0
 36 35  2  0  0  0  0
 37 35  1  0  0  0  0
 37 38  1  0  0  0  0
 38 39  1  0  0  0  0
 40 41  1  0  0  0  0
 40 38  1  0  0  0  0
 42 40  1  0  0  0  0
 43 42  1  0  0  0  0
 44 42  1  0  0  0  0
 44 45  1  0  0  0  0
 45 37  1  0  0  0  0
M  END
>  <minimizedAffinity>
-6.02154493

$$$$

 OpenBabel03242516553D

 45 48  0  0  1  0  0  0  0  0999 V2000
   37.0650   26.6050   41.4910 C   0  0  1  0  0  0  0  0  0  0  0  0
   37.0690   25.2220   41.0190 C   0  0  0  0  0  0  0  0  0  0  0  0
   37.4670   24.3690   42.2220 C   0  0  0  0  0  0  0  0  0  0  0  0
   38.9300   24.6610   42.4900 C   0  0  0  0  0  0  0  0  0  0  0  0
   39.2450   26.1190   42.6800 C   0  0  0  0  0  0  0  0  0  0  0  0
   38.4640   27.0860   41.8960 C   0  0  1  0  0  0  0  0  0  0  0  0
   36.5090   26.6460   42.4780 H   0  0  0  0  0  0  0  0  0  0  0  0
   37.8690   25.0040   40.2570 H   0  0  0  0  0  0  0  0  0  0  0  0
   36.0720   24.9620   40.6320 H   0  0  0  0  0  0  0  0  0  0  0  0
   36.8430   24.6320   43.0970 H   0  0  0  0  0  0  0  0  0  0  0  0
   37.3920   23.3220   41.9280 H   0  0  0  0  0  0  0  0  0  0  0  0
   39.5010   24.2840   41.6170 H   0  0  0  0  0  0  0  0  0  0  0  0
   39.1900   24.0900   43.4020 H   0  0  0  0  0  0  0  0  0  0  0  0
   39.1810   26.3220   43.7690 H   0  0  0  0  0  0  0  0  0  0  0  0
   40.3230   26.2460   42.4230 H   0  0  0  0  0  0  0  0  0  0  0  0
   38.2720   27.9900   42.5440 H   0  0  0  0  0  0  0  0  0  0  0  0
   35.6850   28.2280   38.3680 C   0  0  0  0  0  0  0  0  0  0  0  0
   36.2610   27.3250   39.2690 C   0  0  0  0  0  0  0  0  0  0  0  0
   36.4550   27.5930   40.6260 C   0  0  0  0  0  0  0  0  0  0  0  0
   36.0470   28.7970   41.0310 N   0  0  0  0  0  0  0  0  0  0  0  0
   35.4870   29.6860   40.1700 C   0  0  0  0  0  0  0  0  0  0  0  0
   35.3030   29.4230   38.8700 N   0  0  0  0  0  0  0  0  0  0  0  0
   35.5950   27.8930   37.3430 H   0  0  0  0  0  0  0  0  0  0  0  0
   36.5890   26.3400   38.9090 H   0  0  0  0  0  0  0  0  0  0  0  0
   35.1660   30.6590   40.5360 H   0  0  0  0  0  0  0  0  0  0  0  0
   39.2080   27.6100   40.7500 C   0  0  0  0  0  0  0  0  0  0  0  0
   39.6560   26.8630   39.6510 C   0  0  0  0  0  0  0  0  0  0  0  0
   40.3330   27.5730   38.6670 C   0  0  0  0  0  0  0  0  0  0  0  0
   40.5100   28.9320   38.8450 C   0  0  0  0  0  0  0  0  0  0  0  0
   40.0600   29.6510   39.9390 C   0  0  0  0  0  0  0  0  0  0  0  0
   39.4020   28.9380   40.8850 N   0  0  0  0  0  0  0  0  0  0  0  0
   39.4400   25.8250   39.6620 H   0  0  0  0  0  0  0  0  0  0  0  0
   40.6800   27.0260   37.8260 H   0  0  0  0  0  0  0  0  0  0  0  0
   41.0520   29.4080   38.0230 H   0  0  0  0  0  0  0  0  0  0  0  0
   40.2980   31.0850   40.0290 C   0  0  0  0  0  0  0  0  0  0  0  0
   41.3250   31.4900   40.6340 O   0  0  0  0  0  0  0  0  0  0  0  0
   39.5750   32.2110   39.5480 N   0  0  0  0  0  0  0  0  0  0  0  0
   38.5710   31.8920   38.5570 C   0  0  0  0  0  3  0  0  0  0  0  0
   38.9190   32.3750   37.5960 H   0  0  0  0  0  0  0  0  0  0  0  0
   37.2800   32.5800   38.9490 C   0  0  0  0  0  3  0  0  0  0  0  0
   36.4810   31.8180   38.8710 H   0  0  0  0  0  0  0  0  0  0  0  0
   37.3060   33.0500   40.3070 N   0  0  0  0  0  0  0  0  0  0  0  0
   36.3650   33.3740   40.5750 H   0  0  0  0  0  0  0  0  0  0  0  0
   38.3260   34.0620   40.5150 C   0  0  0  0  0  2  0  0  0  0  0  0
   39.5650   33.6580   39.7850 C   0  0  0  0  0  2  0  0  0  0  0  0
  1  6  1  0  0  0  0
  1  7  1  1  0  0  0
  2  1  1  0  0  0  0
  2  3  1  0  0  0  0
  3  4  1  0  0  0  0
  3 10  1  0  0  0  0
  4  5  1  0  0  0  0
  4 13  1  0  0  0  0
  5 14  1  0  0  0  0
  6 16  1  1  0  0  0
  6  5  1  0  0  0  0
  8  2  1  0  0  0  0
  9  2  1  0  0  0  0
 11  3  1  0  0  0  0
 12  4  1  0  0  0  0
 15  5  1  0  0  0  0
 17 22  2  0  0  0  0
 17 18  1  0  0  0  0
 18 19  2  0  0  0  0
 19 20  1  0  0  0  0
 19  1  1  0  0  0  0
 21 25  1  0  0  0  0
 21 20  2  0  0  0  0
 22 21  1  0  0  0  0
 23 17  1  0  0  0  0
 24 18  1  0  0  0  0
 26 31  1  0  0  0  0
 26  6  1  0  0  0  0
 27 32  1  0  0  0  0
 27 26  2  0  0  0  0
 28 29  2  0  0  0  0
 28 27  1  0  0  0  0
 29 30  1  0  0  0  0
 30 35  1  0  0  0  0
 30 31  2  0  0  0  0
 33 28  1  0  0  0  0
 34 29  1  0  0  0  0
 35 36  2  0  0  0  0
 37 45  1  0  0  0  0
 37 35  1  0  0  0  0
 38 40  1  0  0  0  0
 38 37  1  0  0  0  0
 39 38  1  0  0  0  0
 40 42  1  0  0  0  0
 41 40  1  0  0  0  0
 42 44  1  0  0  0  0
 42 43  1  0  0  0  0
 45 44  1  0  0  0  0
M  END
>  <minimizedAffinity>
-5.98335695

$$$$

 OpenBabel03242516553D

 45 48  0  0  1  0  0  0  0  0999 V2000
   37.7620   28.4970   40.7130 C   0  0  1  0  0  0  0  0  0  0  0  0
   39.1370   28.0060   40.6370 C   0  0  0  0  0  0  0  0  0  0  0  0
   39.4670   27.4670   42.0270 C   0  0  0  0  0  0  0  0  0  0  0  0
   39.5650   28.6720   42.9430 C   0  0  0  0  0  0  0  0  0  0  0  0
   38.3480   29.5550   42.9350 C   0  0  0  0  0  0  0  0  0  0  0  0
   37.6210   29.6900   41.6650 C   0  0  1  0  0  0  0  0  0  0  0  0
   37.1280   27.7110   41.2280 H   0  0  0  0  0  0  0  0  0  0  0  0
   39.9000   28.8180   40.4740 H   0  0  0  0  0  0  0  0  0  0  0  0
   39.2090   27.2320   39.8590 H   0  0  0  0  0  0  0  0  0  0  0  0
   38.6720   26.7760   42.3650 H   0  0  0  0  0  0  0  0  0  0  0  0
   40.4560   27.0100   41.9820 H   0  0  0  0  0  0  0  0  0  0  0  0
   40.4390   29.2650   42.6050 H   0  0  0  0  0  0  0  0  0  0  0  0
   39.7390   28.2660   43.9580 H   0  0  0  0  0  0  0  0  0  0  0  0
   37.6890   29.2010   43.7530 H   0  0  0  0  0  0  0  0  0  0  0  0
   38.6910   30.5680   43.2540 H   0  0  0  0  0  0  0  0  0  0  0  0
   36.5180   29.7350   41.8950 H   0  0  0  0  0  0  0  0  0  0  0  0
   37.2960   29.3560   37.0610 C   0  0  0  0  0  0  0  0  0  0  0  0
   37.8560   29.0440   38.3060 C   0  0  0  0  0  0  0  0  0  0  0  0
   37.1050   28.8080   39.4600 C   0  0  0  0  0  0  0  0  0  0  0  0
   35.7840   28.8980   39.3070 N   0  0  0  0  0  0  0  0  0  0  0  0
   35.2250   29.2000   38.1060 C   0  0  0  0  0  0  0  0  0  0  0  0
   35.9490   29.4260   37.0030 N   0  0  0  0  0  0  0  0  0  0  0  0
   37.9930   29.5160   36.2480 H   0  0  0  0  0  0  0  0  0  0  0  0
   38.9470   28.9770   38.4050 H   0  0  0  0  0  0  0  0  0  0  0  0
   34.1420   29.2650   38.0200 H   0  0  0  0  0  0  0  0  0  0  0  0
   37.9040   30.9580   40.9890 C   0  0  0  0  0  0  0  0  0  0  0  0
   36.9470   31.8520   40.4880 C   0  0  0  0  0  0  0  0  0  0  0  0
   37.4440   33.0060   39.8940 C   0  0  0  0  0  0  0  0  0  0  0  0
   38.8140   33.1790   39.8450 C   0  0  0  0  0  0  0  0  0  0  0  0
   39.7420   32.2820   40.3460 C   0  0  0  0  0  0  0  0  0  0  0  0
   39.2350   31.1650   40.9200 N   0  0  0  0  0  0  0  0  0  0  0  0
   35.9300   31.5750   40.6040 H   0  0  0  0  0  0  0  0  0  0  0  0
   36.7360   33.6970   39.5080 H   0  0  0  0  0  0  0  0  0  0  0  0
   39.1150   34.1120   39.3610 H   0  0  0  0  0  0  0  0  0  0  0  0
   41.1690   32.5610   40.2430 C   0  0  0  0  0  0  0  0  0  0  0  0
   41.7490   33.1080   41.2160 O   0  0  0  0  0  0  0  0  0  0  0  0
   42.1190   32.3340   39.2090 N   0  0  0  0  0  0  0  0  0  0  0  0
   41.6730   31.4180   38.1840 C   0  0  0  0  0  3  0  0  0  0  0  0
   42.3400   30.5090   38.2670 H   0  0  0  0  0  0  0  0  0  0  0  0
   41.9530   32.0430   36.8320 C   0  0  0  0  0  3  0  0  0  0  0  0
   41.0260   31.9350   36.2380 H   0  0  0  0  0  0  0  0  0  0  0  0
   42.2490   33.4460   36.9340 N   0  0  0  0  0  0  0  0  0  0  0  0
   42.2850   33.8570   35.9910 H   0  0  0  0  0  0  0  0  0  0  0  0
   43.4570   33.6950   37.7010 C   0  0  0  0  0  2  0  0  0  0  0  0
   43.4760   32.7860   38.8850 C   0  0  0  0  0  2  0  0  0  0  0  0
  1  7  1  1  0  0  0
  1  6  1  0  0  0  0
  2  1  1  0  0  0  0
  2  3  1  0  0  0  0
  3 10  1  0  0  0  0
  3  4  1  0  0  0  0
  4 13  1  0  0  0  0
  5  4  1  0  0  0  0
  5 15  1  0  0  0  0
  5 14  1  0  0  0  0
  6 16  1  1  0  0  0
  6  5  1  0  0  0  0
  8  2  1  0  0  0  0
  9  2  1  0  0  0  0
 11  3  1  0  0  0  0
 12  4  1  0  0  0  0
 17 18  1  0  0  0  0
 18 24  1  0  0  0  0
 18 19  2  0  0  0  0
 19  1  1  0  0  0  0
 20 19  1  0  0  0  0
 21 20  2  0  0  0  0
 22 17  2  0  0  0  0
 22 21  1  0  0  0  0
 23 17  1  0  0  0  0
 25 21  1  0  0  0  0
 26  6  1  0  0  0  0
 27 32  1  0  0  0  0
 27 26  2  0  0  0  0
 28 27  1  0  0  0  0
 29 28  2  0  0  0  0
 29 30  1  0  0  0  0
 30 31  2  0  0  0  0
 31 26  1  0  0  0  0
 33 28  1  0  0  0  0
 34 29  1  0  0  0  0
 35 30  1  0  0  0  0
 35 36  2  0  0  0  0
 37 35  1  0  0  0  0
 38 39  1  0  0  0  0
 38 37  1  0  0  0  0
 40 42  1  0  0  0  0
 40 38  1  0  0  0  0
 41 40  1  0  0  0  0
 42 44  1  0  0  0  0
 43 42  1  0  0  0  0
 44 45  1  0  0  0  0
 45 37  1  0  0  0  0
M  END
>  <minimizedAffinity>
-5.96390295

$$$$

 OpenBabel03242516553D

 45 48  0  0  1  0  0  0  0  0999 V2000
   37.8090   26.3880   41.3560 C   0  0  1  0  0  0  0  0  0  0  0  0
   39.1610   26.7480   41.7790 C   0  0  0  0  0  0  0  0  0  0  0  0
   39.1250   26.7930   43.3050 C   0  0  0  0  0  0  0  0  0  0  0  0
   38.2950   28.0060   43.6800 C   0  0  0  0  0  0  0  0  0  0  0  0
   36.9240   28.0310   43.0640 C   0  0  0  0  0  0  0  0  0  0  0  0
   36.7790   27.4660   41.7150 C   0  0  1  0  0  0  0  0  0  0  0  0
   37.4580   25.5110   41.9830 H   0  0  0  0  0  0  0  0  0  0  0  0
   39.4650   27.7920   41.4860 H   0  0  0  0  0  0  0  0  0  0  0  0
   39.8760   26.0040   41.3990 H   0  0  0  0  0  0  0  0  0  0  0  0
   38.6710   25.8640   43.7020 H   0  0  0  0  0  0  0  0  0  0  0  0
   40.1400   26.9710   43.6590 H   0  0  0  0  0  0  0  0  0  0  0  0
   38.8560   28.8990   43.3380 H   0  0  0  0  0  0  0  0  0  0  0  0
   38.2200   27.9910   44.7840 H   0  0  0  0  0  0  0  0  0  0  0  0
   36.2370   27.5500   43.7890 H   0  0  0  0  0  0  0  0  0  0  0  0
   36.6110   29.1020   43.0330 H   0  0  0  0  0  0  0  0  0  0  0  0
   35.7870   26.9330   41.6620 H   0  0  0  0  0  0  0  0  0  0  0  0
   36.3620   24.7330   38.2810 C   0  0  0  0  0  0  0  0  0  0  0  0
   36.5930   25.1520   39.5960 C   0  0  0  0  0  0  0  0  0  0  0  0
   37.6340   26.0060   39.9700 C   0  0  0  0  0  0  0  0  0  0  0  0
   38.4210   26.4130   38.9740 N   0  0  0  0  0  0  0  0  0  0  0  0
   38.2110   26.0140   37.6920 C   0  0  0  0  0  0  0  0  0  0  0  0
   37.2120   25.1960   37.3380 N   0  0  0  0  0  0  0  0  0  0  0  0
   35.5200   24.0690   38.1300 H   0  0  0  0  0  0  0  0  0  0  0  0
   35.9300   24.8020   40.3980 H   0  0  0  0  0  0  0  0  0  0  0  0
   38.8750   26.3660   36.9050 H   0  0  0  0  0  0  0  0  0  0  0  0
   36.6940   28.4980   40.6800 C   0  0  0  0  0  0  0  0  0  0  0  0
   35.7110   28.5820   39.6830 C   0  0  0  0  0  0  0  0  0  0  0  0
   35.8180   29.6580   38.8120 C   0  0  0  0  0  0  0  0  0  0  0  0
   36.8620   30.5450   38.9910 C   0  0  0  0  0  0  0  0  0  0  0  0
   37.8240   30.4430   39.9830 C   0  0  0  0  0  0  0  0  0  0  0  0
   37.6990   29.3860   40.8200 N   0  0  0  0  0  0  0  0  0  0  0  0
   34.9720   27.8210   39.6790 H   0  0  0  0  0  0  0  0  0  0  0  0
   35.0830   29.7400   38.0500 H   0  0  0  0  0  0  0  0  0  0  0  0
   36.8690   31.3590   38.2610 H   0  0  0  0  0  0  0  0  0  0  0  0
   38.8870   31.4340   40.0850 C   0  0  0  0  0  0  0  0  0  0  0  0
   38.7350   32.4030   40.8730 O   0  0  0  0  0  0  0  0  0  0  0  0
   40.1500   31.5560   39.4440 N   0  0  0  0  0  0  0  0  0  0  0  0
   40.5970   30.3530   38.7780 C   0  0  0  0  0  3  0  0  0  0  0  0
   41.5130   30.0070   39.3420 H   0  0  0  0  0  0  0  0  0  0  0  0
   41.0570   30.7230   37.3830 C   0  0  0  0  0  3  0  0  0  0  0  0
   40.5850   29.9970   36.6940 H   0  0  0  0  0  0  0  0  0  0  0  0
   40.6220   32.0390   36.9990 N   0  0  0  0  0  0  0  0  0  0  0  0
   40.8260   32.1890   36.0010 H   0  0  0  0  0  0  0  0  0  0  0  0
   41.1910   33.0710   37.8490 C   0  0  0  0  0  2  0  0  0  0  0  0
   41.1640   32.6010   39.2660 C   0  0  0  0  0  2  0  0  0  0  0  0
  1  6  1  0  0  0  0
  1  2  1  0  0  0  0
  1  7  1  1  0  0  0
  2  3  1  0  0  0  0
  3 11  1  0  0  0  0
  3  4  1  0  0  0  0
  3 10  1  0  0  0  0
  4 13  1  0  0  0  0
  5  4  1  0  0  0  0
  5 14  1  0  0  0  0
  6 16  1  6  0  0  0
  6  5  1  0  0  0  0
  8  2  1  0  0  0  0
  9  2  1  0  0  0  0
 12  4  1  0  0  0  0
 15  5  1  0  0  0  0
 17 18  1  0  0  0  0
 18 19  2  0  0  0  0
 18 24  1  0  0  0  0
 19  1  1  0  0  0  0
 20 19  1  0  0  0  0
 21 20  2  0  0  0  0
 22 21  1  0  0  0  0
 22 17  2  0  0  0  0
 23 17  1  0  0  0  0
 25 21  1  0  0  0  0
 26 31  1  0  0  0  0
 26  6  1  0  0  0  0
 27 26  2  0  0  0  0
 28 29  2  0  0  0  0
 28 27  1  0  0  0  0
 29 30  1  0  0  0  0
 30 35  1  0  0  0  0
 30 31  2  0  0  0  0
 32 27  1  0  0  0  0
 33 28  1  0  0  0  0
 34 29  1  0  0  0  0
 35 36  2  0  0  0  0
 37 35  1  0  0  0  0
 38 39  1  0  0  0  0
 38 37  1  0  0  0  0
 40 38  1  0  0  0  0
 41 40  1  0  0  0  0
 42 40  1  0  0  0  0
 42 44  1  0  0  0  0
 43 42  1  0  0  0  0
 44 45  1  0  0  0  0
 45 37  1  0  0  0  0
M  END
>  <minimizedAffinity>
-5.925529

$$$$

 OpenBabel03242516553D

 45 48  0  0  1  0  0  0  0  0999 V2000
   36.8980   28.4660   39.4430 C   0  0  1  0  0  0  0  0  0  0  0  0
   35.4510   28.6380   39.5540 C   0  0  0  0  0  0  0  0  0  0  0  0
   34.8740   28.2230   38.2030 C   0  0  0  0  0  0  0  0  0  0  0  0
   35.2890   29.2930   37.2120 C   0  0  0  0  0  0  0  0  0  0  0  0
   36.7700   29.5470   37.1590 C   0  0  0  0  0  0  0  0  0  0  0  0
   37.5210   29.4180   38.4160 C   0  0  1  0  0  0  0  0  0  0  0  0
   37.1040   27.4530   38.9780 H   0  0  0  0  0  0  0  0  0  0  0  0
   35.1290   29.7110   39.6670 H   0  0  0  0  0  0  0  0  0  0  0  0
   35.0680   28.0200   40.3800 H   0  0  0  0  0  0  0  0  0  0  0  0
   35.2720   27.2330   37.9070 H   0  0  0  0  0  0  0  0  0  0  0  0
   33.7870   28.2530   38.2790 H   0  0  0  0  0  0  0  0  0  0  0  0
   34.7770   30.2290   37.5130 H   0  0  0  0  0  0  0  0  0  0  0  0
   34.9220   28.9490   36.2250 H   0  0  0  0  0  0  0  0  0  0  0  0
   37.1800   28.8920   36.3640 H   0  0  0  0  0  0  0  0  0  0  0  0
   36.8980   30.5870   36.7760 H   0  0  0  0  0  0  0  0  0  0  0  0
   38.5230   28.9580   38.1800 H   0  0  0  0  0  0  0  0  0  0  0  0
   37.7900   29.1940   43.0440 C   0  0  0  0  0  0  0  0  0  0  0  0
   37.1130   29.0940   41.8220 C   0  0  0  0  0  0  0  0  0  0  0  0
   37.6630   28.5240   40.6710 C   0  0  0  0  0  0  0  0  0  0  0  0
   38.9080   28.0650   40.8030 N   0  0  0  0  0  0  0  0  0  0  0  0
   39.5790   28.1540   41.9810 C   0  0  0  0  0  0  0  0  0  0  0  0
   39.0470   28.7010   43.0820 N   0  0  0  0  0  0  0  0  0  0  0  0
   37.2470   29.6600   43.8560 H   0  0  0  0  0  0  0  0  0  0  0  0
   36.0890   29.4810   41.7400 H   0  0  0  0  0  0  0  0  0  0  0  0
   40.5930   27.7680   42.0520 H   0  0  0  0  0  0  0  0  0  0  0  0
   37.8470   30.7160   39.0100 C   0  0  0  0  0  0  0  0  0  0  0  0
   36.9240   31.7090   39.3690 C   0  0  0  0  0  0  0  0  0  0  0  0
   37.4580   32.8610   39.9320 C   0  0  0  0  0  0  0  0  0  0  0  0
   38.8280   32.9380   40.0920 C   0  0  0  0  0  0  0  0  0  0  0  0
   39.7220   31.9440   39.7300 C   0  0  0  0  0  0  0  0  0  0  0  0
   39.1790   30.8310   39.1830 N   0  0  0  0  0  0  0  0  0  0  0  0
   35.9010   31.4980   39.1810 H   0  0  0  0  0  0  0  0  0  0  0  0
   36.7750   33.6260   40.2110 H   0  0  0  0  0  0  0  0  0  0  0  0
   39.1590   33.8780   40.5420 H   0  0  0  0  0  0  0  0  0  0  0  0
   41.1520   32.1250   39.9430 C   0  0  0  0  0  0  0  0  0  0  0  0
   41.5430   32.6040   41.0390 O   0  0  0  0  0  0  0  0  0  0  0  0
   42.2850   31.8610   39.1260 N   0  0  0  0  0  0  0  0  0  0  0  0
   42.0130   31.0050   37.9920 C   0  0  0  0  0  3  0  0  0  0  0  0
   42.5880   30.0510   38.1770 H   0  0  0  0  0  0  0  0  0  0  0  0
   42.6140   31.6450   36.7580 C   0  0  0  0  0  3  0  0  0  0  0  0
   41.8310   31.6190   35.9770 H   0  0  0  0  0  0  0  0  0  0  0  0
   42.9690   33.0210   36.9780 N   0  0  0  0  0  0  0  0  0  0  0  0
   43.2320   33.4540   36.0810 H   0  0  0  0  0  0  0  0  0  0  0  0
   43.9980   33.1640   37.9920 C   0  0  0  0  0  2  0  0  0  0  0  0
   43.7060   32.2240   39.1150 C   0  0  0  0  0  2  0  0  0  0  0  0
  1  7  1  6  0  0  0
  1  2  1  0  0  0  0
  1 19  1  0  0  0  0
  2  8  1  0  0  0  0
  2  9  1  0  0  0  0
  3 11  1  0  0  0  0
  3  2  1  0  0  0  0
  4 12  1  0  0  0  0
  4  3  1  0  0  0  0
  5  4  1  0  0  0  0
  5  6  1  0  0  0  0
  6 16  1  6  0  0  0
  6 26  1  0  0  0  0
  6  1  1  0  0  0  0
 10  3  1  0  0  0  0
 13  4  1  0  0  0  0
 14  5  1  0  0  0  0
 15  5  1  0  0  0  0
 17 22  1  0  0  0  0
 17 23  1  0  0  0  0
 18 17  2  0  0  0  0
 19 20  2  0  0  0  0
 19 18  1  0  0  0  0
 20 21  1  0  0  0  0
 21 25  1  0  0  0  0
 21 22  2  0  0  0  0
 24 18  1  0  0  0  0
 26 31  2  0  0  0  0
 26 27  1  0  0  0  0
 27 28  2  0  0  0  0
 28 29  1  0  0  0  0
 28 33  1  0  0  0  0
 29 34  1  0  0  0  0
 30 35  1  0  0  0  0
 30 29  2  0  0  0  0
 31 30  1  0  0  0  0
 32 27  1  0  0  0  0
 35 36  2  0  0  0  0
 37 35  1  0  0  0  0
 38 39  1  0  0  0  0
 38 37  1  0  0  0  0
 40 42  1  0  0  0  0
 40 38  1  0  0  0  0
 41 40  1  0  0  0  0
 42 44  1  0  0  0  0
 43 42  1  0  0  0  0
 44 45  1  0  0  0  0
 45 37  1  0  0  0  0
M  END
>  <minimizedAffinity>
-5.85138416

$$$$

 OpenBabel03242516553D

 45 48  0  0  1  0  0  0  0  0999 V2000
   37.8230   26.6760   41.3690 C   0  0  1  0  0  0  0  0  0  0  0  0
   39.2150   27.0890   41.5380 C   0  0  0  0  0  0  0  0  0  0  0  0
   39.3500   27.5200   42.9970 C   0  0  0  0  0  0  0  0  0  0  0  0
   38.5720   28.8140   43.1360 C   0  0  0  0  0  0  0  0  0  0  0  0
   37.1400   28.7260   42.6850 C   0  0  0  0  0  0  0  0  0  0  0  0
   36.8440   27.8420   41.5490 C   0  0  1  0  0  0  0  0  0  0  0  0
   37.5420   25.9990   42.2340 H   0  0  0  0  0  0  0  0  0  0  0  0
   39.4880   28.0140   40.9570 H   0  0  0  0  0  0  0  0  0  0  0  0
   39.8810   26.2500   41.2860 H   0  0  0  0  0  0  0  0  0  0  0  0
   38.9410   26.7380   43.6640 H   0  0  0  0  0  0  0  0  0  0  0  0
   40.4000   27.7500   43.1820 H   0  0  0  0  0  0  0  0  0  0  0  0
   39.0940   29.5730   42.5190 H   0  0  0  0  0  0  0  0  0  0  0  0
   38.6210   29.0830   44.2090 H   0  0  0  0  0  0  0  0  0  0  0  0
   36.5370   28.4660   43.5790 H   0  0  0  0  0  0  0  0  0  0  0  0
   36.8300   29.7630   42.4150 H   0  0  0  0  0  0  0  0  0  0  0  0
   35.8500   27.3440   41.7420 H   0  0  0  0  0  0  0  0  0  0  0  0
   38.0680   25.3940   37.8210 C   0  0  0  0  0  0  0  0  0  0  0  0
   38.3210   26.0490   39.0320 C   0  0  0  0  0  0  0  0  0  0  0  0
   37.4930   25.9610   40.1540 C   0  0  0  0  0  0  0  0  0  0  0  0
   36.4130   25.1940   40.0040 N   0  0  0  0  0  0  0  0  0  0  0  0
   36.1520   24.5520   38.8350 C   0  0  0  0  0  0  0  0  0  0  0  0
   36.9490   24.6390   37.7630 N   0  0  0  0  0  0  0  0  0  0  0  0
   38.7920   25.5490   37.0310 H   0  0  0  0  0  0  0  0  0  0  0  0
   39.2180   26.6750   39.1290 H   0  0  0  0  0  0  0  0  0  0  0  0
   35.2600   23.9350   38.7490 H   0  0  0  0  0  0  0  0  0  0  0  0
   36.6460   28.5800   40.3000 C   0  0  0  0  0  0  0  0  0  0  0  0
   35.4970   28.5420   39.4980 C   0  0  0  0  0  0  0  0  0  0  0  0
   35.5230   29.3380   38.3590 C   0  0  0  0  0  0  0  0  0  0  0  0
   36.6560   30.0890   38.1110 C   0  0  0  0  0  0  0  0  0  0  0  0
   37.7820   30.1110   38.9180 C   0  0  0  0  0  0  0  0  0  0  0  0
   37.7330   29.3270   40.0210 N   0  0  0  0  0  0  0  0  0  0  0  0
   34.7080   27.9140   39.8260 H   0  0  0  0  0  0  0  0  0  0  0  0
   34.6620   29.3240   37.7370 H   0  0  0  0  0  0  0  0  0  0  0  0
   36.5890   30.6830   37.1950 H   0  0  0  0  0  0  0  0  0  0  0  0
   38.9260   30.9400   38.5650 C   0  0  0  0  0  0  0  0  0  0  0  0
   39.7770   30.4840   37.7570 O   0  0  0  0  0  0  0  0  0  0  0  0
   39.3230   32.2470   38.9600 N   0  0  0  0  0  0  0  0  0  0  0  0
   38.2820   33.0130   39.6090 C   0  0  0  0  0  3  0  0  0  0  0  0
   38.0470   33.8710   38.9130 H   0  0  0  0  0  0  0  0  0  0  0  0
   38.8540   33.6200   40.8730 C   0  0  0  0  0  3  0  0  0  0  0  0
   38.1270   33.4110   41.6800 H   0  0  0  0  0  0  0  0  0  0  0  0
   40.1060   33.0180   41.2450 N   0  0  0  0  0  0  0  0  0  0  0  0
   40.3820   33.3530   42.1800 H   0  0  0  0  0  0  0  0  0  0  0  0
   41.1360   33.2380   40.2450 C   0  0  0  0  0  2  0  0  0  0  0  0
   40.5380   33.0660   38.8880 C   0  0  0  0  0  2  0  0  0  0  0  0
  1  2  1  0  0  0  0
  1  6  1  0  0  0  0
  1  7  1  1  0  0  0
  2  3  1  0  0  0  0
  3  4  1  0  0  0  0
  3 11  1  0  0  0  0
  3 10  1  0  0  0  0
  4 13  1  0  0  0  0
  5  4  1  0  0  0  0
  5 14  1  0  0  0  0
  6 16  1  1  0  0  0
  6  5  1  0  0  0  0
  8  2  1  0  0  0  0
  9  2  1  0  0  0  0
 12  4  1  0  0  0  0
 15  5  1  0  0  0  0
 17 18  1  0  0  0  0
 18 24  1  0  0  0  0
 18 19  2  0  0  0  0
 19  1  1  0  0  0  0
 20 19  1  0  0  0  0
 21 20  2  0  0  0  0
 22 17  2  0  0  0  0
 22 21  1  0  0  0  0
 23 17  1  0  0  0  0
 25 21  1  0  0  0  0
 26  6  1  0  0  0  0
 27 32  1  0  0  0  0
 27 26  2  0  0  0  0
 28 27  1  0  0  0  0
 29 28  2  0  0  0  0
 29 30  1  0  0  0  0
 30 31  2  0  0  0  0
 31 26  1  0  0  0  0
 33 28  1  0  0  0  0
 34 29  1  0  0  0  0
 35 30  1  0  0  0  0
 35 37  1  0  0  0  0
 36 35  2  0  0  0  0
 37 38  1  0  0  0  0
 38 40  1  0  0  0  0
 39 38  1  0  0  0  0
 40 42  1  0  0  0  0
 40 41  1  0  0  0  0
 42 43  1  0  0  0  0
 44 42  1  0  0  0  0
 45 37  1  0  0  0  0
 45 44  1  0  0  0  0
M  END
>  <minimizedAffinity>
-5.8509531

$$$$
