
 OpenBabel03242523553D

 45 48  0  0  1  0  0  0  0  0999 V2000
   42.8140   34.5010   38.7550 C   0  0  1  0  0  0  0  0  0  0  0  0
   42.9570   35.1800   40.1110 C   0  0  1  0  0  0  0  0  0  0  0  0
   41.6690   35.4050   40.6300 O   0  0  0  0  0  0  0  0  0  0  0  0
   40.7460   35.7420   39.6370 C   0  0  0  0  0  0  0  0  0  0  0  0
   40.4330   34.5680   38.7330 C   0  0  2  0  0  0  0  0  0  0  0  0
   41.6460   33.5760   38.8690 C   0  0  1  0  0  0  0  0  0  0  0  0
   43.7560   33.9480   38.5070 H   0  0  0  0  0  0  0  0  0  0  0  0
   43.5450   36.1080   40.0740 H   0  0  0  0  0  0  0  0  0  0  0  0
   41.0020   36.6510   39.0810 H   0  0  0  0  0  0  0  0  0  0  0  0
   39.8060   35.9600   40.1850 H   0  0  0  0  0  0  0  0  0  0  0  0
   39.5120   34.0330   39.0170 H   0  0  0  0  0  0  0  0  0  0  0  0
   41.4330   33.3070   39.9530 H   0  0  0  0  0  0  0  0  0  0  0  0
   42.6010   35.4500   37.7450 O   0  0  0  0  0  0  0  0  0  0  0  0
   43.4790   35.7160   37.4100 H   0  0  0  0  0  0  0  0  0  0  0  0
   40.4490   34.9820   37.4090 O   0  0  0  0  0  0  0  0  0  0  0  0
   40.0270   34.2830   36.8370 H   0  0  0  0  0  0  0  0  0  0  0  0
   43.4930   34.1910   40.9570 O   0  0  0  0  0  0  0  0  0  0  0  0
   44.6030   34.3350   41.6910 C   0  0  0  0  0  0  0  0  0  0  0  0
   45.8660   34.4360   41.0890 C   0  0  0  0  0  0  0  0  0  0  0  0
   46.9760   34.5860   41.9030 C   0  0  0  0  0  0  0  0  0  0  0  0
   46.8090   34.6340   43.2760 N   0  0  0  0  0  0  0  0  0  0  0  0
   45.5760   34.5350   43.8220 C   0  0  0  0  0  0  0  0  0  0  0  0
   44.4780   34.3860   43.0350 N   0  0  0  0  0  0  0  0  0  0  0  0
   45.9740   34.3950   40.0160 H   0  0  0  0  0  0  0  0  0  0  0  0
   45.4650   34.5730   44.8970 H   0  0  0  0  0  0  0  0  0  0  0  0
   48.3560   34.6830   41.3380 C   0  0  0  0  0  0  0  0  0  0  0  0
   49.0750   36.0210   41.5050 C   0  0  0  0  0  0  0  0  0  0  0  0
   49.5050   34.7040   42.1840 C   0  0  0  0  0  0  0  0  0  0  0  0
   48.4010   34.2400   40.3050 H   0  0  0  0  0  0  0  0  0  0  0  0
   48.5780   36.7780   42.1290 H   0  0  0  0  0  0  0  0  0  0  0  0
   49.6890   36.3390   40.6430 H   0  0  0  0  0  0  0  0  0  0  0  0
   50.4640   34.2660   41.8420 H   0  0  0  0  0  0  0  0  0  0  0  0
   49.4190   34.7070   43.2880 H   0  0  0  0  0  0  0  0  0  0  0  0
   41.5150   32.6420   37.9130 O   0  0  0  0  0  0  0  0  0  0  0  0
   40.8280   31.4760   37.9490 C   0  0  0  0  0  0  0  0  0  0  0  0
   39.6200   31.4000   37.4510 O   0  0  0  0  0  0  0  0  0  0  0  0
   40.8460   30.0990   38.3440 N   0  0  0  0  0  0  0  0  0  0  0  0
   40.0080   29.9700   39.5230 C   0  0  0  0  0  3  0  0  0  0  0  0
   40.2990   30.5940   40.3650 H   0  0  0  0  0  0  0  0  0  0  0  0
   39.9090   28.5070   39.8690 C   0  0  0  0  0  3  0  0  0  0  0  0
   39.2940   27.9890   39.1090 H   0  0  0  0  0  0  0  0  0  0  0  0
   41.1950   27.8890   40.0320 N   0  0  0  0  0  0  0  0  0  0  0  0
   41.0380   26.8550   40.0990 H   0  0  0  0  0  0  0  0  0  0  0  0
   42.1340   28.2140   38.9990 C   0  0  0  0  0  2  0  0  0  0  0  0
   41.4930   28.9430   37.8180 C   0  0  0  0  0  2  0  0  0  0  0  0
  1  7  1  6  0  0  0
  1  6  1  0  0  0  0
  1  2  1  0  0  0  0
  2  8  1  6  0  0  0
  2  3  1  0  0  0  0
  2 17  1  0  0  0  0
  4 10  1  0  0  0  0
  4  3  1  0  0  0  0
  5  6  1  0  0  0  0
  5 11  1  1  0  0  0
  5  4  1  0  0  0  0
  6 12  1  1  0  0  0
  9  4  1  0  0  0  0
 13  1  1  0  0  0  0
 14 13  1  0  0  0  0
 15  5  1  0  0  0  0
 16 15  1  0  0  0  0
 17 18  1  0  0  0  0
 18 23  1  0  0  0  0
 19 18  2  0  0  0  0
 19 20  1  0  0  0  0
 20 21  2  0  0  0  0
 21 22  1  0  0  0  0
 22 25  1  0  0  0  0
 23 22  2  0  0  0  0
 24 19  1  0  0  0  0
 26 27  1  0  0  0  0
 26 20  1  0  0  0  0
 26 28  1  0  0  0  0
 27 30  1  0  0  0  0
 27 28  1  0  0  0  0
 28 33  1  0  0  0  0
 29 26  1  0  0  0  0
 31 27  1  0  0  0  0
 32 28  1  0  0  0  0
 34 35  1  0  0  0  0
 34  6  1  0  0  0  0
 35 37  1  0  0  0  0
 36 35  2  0  0  0  0
 37 38  1  0  0  0  0
 38 40  1  0  0  0  0
 38 39  1  0  0  0  0
 40 42  1  0  0  0  0
 41 40  1  0  0  0  0
 42 43  1  0  0  0  0
 44 42  1  0  0  0  0
 45 37  1  0  0  0  0
 45 44  1  0  0  0  0
M  END
>  <minimizedAffinity>
-5.9976368

>  <minimizedRMSD>
0.122721665

$$$$
