
 OpenBabel03252508513D

 28 30  0  0  0  0  0  0  0  0999 V2000
   45.8820   34.1130   41.0430 C   0  0  0  0  0  0  0  0  0  0  0  0
   46.4880   34.7760   42.1150 C   0  0  0  0  0  0  0  0  0  0  0  0
   47.8280   35.1650   41.9580 C   0  0  0  0  0  0  0  0  0  0  0  0
   48.4340   34.8640   40.7670 N   0  0  0  0  0  0  0  0  0  0  0  0
   47.8160   34.2300   39.7770 C   0  0  0  0  0  0  0  0  0  0  0  0
   46.5310   33.8430   39.8950 N   0  0  0  0  0  0  0  0  0  0  0  0
   48.3200   35.6800   42.7750 H   0  0  0  0  0  0  0  0  0  0  0  0
   48.3810   34.0440   38.8890 H   0  0  0  0  0  0  0  0  0  0  0  0
   45.7330   35.0350   43.3280 C   0  0  0  0  0  0  0  0  0  0  0  0
   45.0730   36.2240   43.5630 C   0  0  0  0  0  0  0  0  0  0  0  0
   44.5080   36.0260   44.8110 C   0  0  0  0  0  0  0  0  0  0  0  0
   44.8080   34.7920   45.3020 N   0  0  0  0  0  0  0  0  0  0  0  0
   45.5450   34.2260   44.3860 N   0  0  0  0  0  0  0  0  0  0  0  0
   44.9840   37.1210   42.9600 H   0  0  0  0  0  0  0  0  0  0  0  0
   43.8960   36.7730   45.3320 H   0  0  0  0  0  0  0  0  0  0  0  0
   44.4640   34.4710   46.2350 H   0  0  0  0  0  0  0  0  0  0  0  0
   44.5610   33.7260   41.1880 O   0  0  0  0  0  0  0  0  0  0  0  0
   43.4690   34.4190   40.7340 C   0  0  0  0  0  0  0  0  0  0  0  0
   43.3310   35.6770   40.6020 O   0  0  0  0  0  0  0  0  0  0  0  0
   42.1670   33.9770   40.2760 N   0  0  0  0  0  0  0  0  0  0  0  0
   42.1200   33.3890   38.9540 C   0  0  0  0  0  3  0  0  0  0  0  0
   42.0510   32.2770   39.1440 H   0  0  0  0  0  0  0  0  0  0  0  0
   40.8060   33.8190   38.3390 C   0  0  0  0  0  3  0  0  0  0  0  0
   41.0050   34.0270   37.2640 H   0  0  0  0  0  0  0  0  0  0  0  0
   40.3080   35.0600   38.8870 N   0  0  0  0  0  0  0  0  0  0  0  0
   39.4380   35.2910   38.3720 H   0  0  0  0  0  0  0  0  0  0  0  0
   39.9740   34.9500   40.2920 C   0  0  0  0  0  2  0  0  0  0  0  0
   40.9430   34.0860   41.0460 C   0  0  0  0  0  2  0  0  0  0  0  0
  1 17  1  0  0  0  0
  1  2  1  0  0  0  0
  2  9  1  0  0  0  0
  3  2  2  0  0  0  0
  3  7  1  0  0  0  0
  4  3  1  0  0  0  0
  5  6  1  0  0  0  0
  5  4  2  0  0  0  0
  6  1  2  0  0  0  0
  8  5  1  0  0  0  0
  9 10  1  0  0  0  0
  9 13  2  0  0  0  0
 10 11  2  0  0  0  0
 11 12  1  0  0  0  0
 11 15  1  0  0  0  0
 12 16  1  0  0  0  0
 13 12  1  0  0  0  0
 14 10  1  0  0  0  0
 18 17  1  0  0  0  0
 19 18  2  0  0  0  0
 20 18  1  0  0  0  0
 20 28  1  0  0  0  0
 21 22  1  0  0  0  0
 21 20  1  0  0  0  0
 23 25  1  0  0  0  0
 23 21  1  0  0  0  0
 24 23  1  0  0  0  0
 25 27  1  0  0  0  0
 26 25  1  0  0  0  0
 27 28  1  0  0  0  0
M  END
>  <minimizedAffinity>
-5.70922709

>  <minimizedRMSD>
0.84001708

$$$$
