
 OpenBabel03252502293D

 35 37  0  0  0  0  0  0  0  0999 V2000
   45.0720   34.5070   41.3410 C   0  0  0  0  0  0  0  0  0  0  0  0
   45.4240   35.1680   42.5070 C   0  0  0  0  0  0  0  0  0  0  0  0
   46.7710   35.4210   42.7550 C   0  0  0  0  0  0  0  0  0  0  0  0
   47.7120   35.0130   41.8460 C   0  0  0  0  0  0  0  0  0  0  0  0
   47.3850   34.3560   40.6820 C   0  0  0  0  0  0  0  0  0  0  0  0
   46.0270   34.1160   40.4600 C   0  0  0  0  0  0  0  0  0  0  0  0
   44.6830   35.4900   43.2250 H   0  0  0  0  0  0  0  0  0  0  0  0
   47.0010   35.9390   43.6770 H   0  0  0  0  0  0  0  0  0  0  0  0
   48.7590   35.2030   42.0260 H   0  0  0  0  0  0  0  0  0  0  0  0
   48.1120   34.0210   39.9430 H   0  0  0  0  0  0  0  0  0  0  0  0
   46.1680   32.8340   38.1850 C   0  0  0  0  0  0  0  0  0  0  0  0
   47.3690   32.8140   37.9430 O   0  0  0  0  0  0  0  0  0  0  0  0
   45.5580   33.4520   39.3030 N   0  0  0  0  0  0  0  0  0  0  0  0
   44.5000   33.4640   39.3710 H   0  0  0  0  0  0  0  0  0  0  0  0
   45.3270   32.1690   37.2450 N   0  0  0  0  0  0  0  0  0  0  0  0
   45.3780   32.6780   35.8890 C   0  0  0  0  0  3  0  0  0  0  0  0
   44.8310   33.6360   35.7860 H   0  0  0  0  0  0  0  0  0  0  0  0
   44.9670   31.6230   34.8930 C   0  0  0  0  0  3  0  0  0  0  0  0
   45.8370   30.9080   34.8120 H   0  0  0  0  0  0  0  0  0  0  0  0
   43.7470   30.9470   35.1920 N   0  0  0  0  0  0  0  0  0  0  0  0
   43.0050   31.1860   34.4960 H   0  0  0  0  0  0  0  0  0  0  0  0
   43.2560   31.3130   36.5000 C   0  0  0  0  0  2  0  0  0  0  0  0
   44.4250   31.0530   37.4610 C   0  0  0  0  0  2  0  0  0  0  0  0
   41.3980   34.8620   40.5630 C   0  0  0  0  0  0  0  0  0  0  0  0
   42.7470   35.2070   40.7100 C   0  0  0  0  0  0  0  0  0  0  0  0
   43.6470   34.2770   41.1460 C   0  0  0  0  0  0  0  0  0  0  0  0
   43.1550   33.0310   41.4200 N   0  0  0  0  0  0  0  0  0  0  0  0
   41.8590   32.6920   41.2810 C   0  0  0  0  0  0  0  0  0  0  0  0
   40.9720   33.6180   40.8480 N   0  0  0  0  0  0  0  0  0  0  0  0
   43.1130   36.2030   40.4860 H   0  0  0  0  0  0  0  0  0  0  0  0
   41.5350   31.6830   41.5160 H   0  0  0  0  0  0  0  0  0  0  0  0
   40.4180   35.8610   40.0930 C   0  0  0  0  0  0  0  0  0  0  0  0
   39.2130   35.1840   39.8490 F   0  0  0  0  0  0  0  0  0  0  0  0
   40.8570   36.2960   38.8500 F   0  0  0  0  0  0  0  0  0  0  0  0
   40.2140   36.8870   40.9740 F   0  0  0  0  0  0  0  0  0  0  0  0
  1  2  1  0  0  0  0
  2  3  2  0  0  0  0
  2  7  1  0  0  0  0
  3  8  1  0  0  0  0
  4  9  1  0  0  0  0
  4  3  1  0  0  0  0
  5  4  2  0  0  0  0
  6  5  1  0  0  0  0
  6  1  2  0  0  0  0
 10  5  1  0  0  0  0
 11 13  1  0  0  0  0
 12 11  2  0  0  0  0
 13 14  1  0  0  0  0
 13  6  1  0  0  0  0
 15 23  1  0  0  0  0
 15 11  1  0  0  0  0
 16 15  1  0  0  0  0
 17 16  1  0  0  0  0
 18 20  1  0  0  0  0
 18 16  1  0  0  0  0
 19 18  1  0  0  0  0
 20 22  1  0  0  0  0
 21 20  1  0  0  0  0
 22 23  1  0  0  0  0
 24 25  2  0  0  0  0
 24 29  1  0  0  0  0
 25 26  1  0  0  0  0
 26  1  1  0  0  0  0
 26 27  2  0  0  0  0
 28 27  1  0  0  0  0
 28 31  1  0  0  0  0
 29 28  2  0  0  0  0
 30 25  1  0  0  0  0
 32 24  1  0  0  0  0
 32 35  1  0  0  0  0
 33 32  1  0  0  0  0
 34 32  1  0  0  0  0
M  END
>  <minimizedAffinity>
-6.35942888

>  <minimizedRMSD>
0.820814788

$$$$
