
 OpenBabel03242517013D

 32 34  0  0  0  0  0  0  0  0999 V2000
   36.9610   26.2450   40.1970 C   0  0  0  0  0  0  0  0  0  0  0  0
   36.5580   24.9100   40.2330 C   0  0  0  0  0  0  0  0  0  0  0  0
   35.9050   24.3860   39.1300 C   0  0  0  0  0  0  0  0  0  0  0  0
   35.6690   25.1760   38.0350 C   0  0  0  0  0  0  0  0  0  0  0  0
   36.0520   26.4850   37.9690 C   0  0  0  0  0  0  0  0  0  0  0  0
   36.7080   26.9910   39.0940 C   0  0  0  0  0  0  0  0  0  0  0  0
   36.7510   24.2980   41.1060 H   0  0  0  0  0  0  0  0  0  0  0  0
   35.6020   23.3510   39.1820 H   0  0  0  0  0  0  0  0  0  0  0  0
   35.1530   24.7130   37.1960 H   0  0  0  0  0  0  0  0  0  0  0  0
   35.8690   27.1150   37.1080 H   0  0  0  0  0  0  0  0  0  0  0  0
   36.7010   29.5840   38.6610 C   0  0  0  0  0  0  0  0  0  0  0  0
   35.6490   29.7610   38.0040 O   0  0  0  0  0  0  0  0  0  0  0  0
   37.1560   28.3350   39.1550 N   0  0  0  0  0  0  0  0  0  0  0  0
   38.0360   28.2190   39.7310 H   0  0  0  0  0  0  0  0  0  0  0  0
   37.5900   30.6750   38.9940 N   0  0  0  0  0  0  0  0  0  0  0  0
   38.6990   30.8850   39.9280 C   0  0  0  0  0  3  0  0  0  0  0  0
   39.6010   31.0540   39.2670 H   0  0  0  0  0  0  0  0  0  0  0  0
   38.4840   32.0600   40.8140 C   0  0  0  0  0  3  0  0  0  0  0  0
   38.3390   31.6680   41.8610 H   0  0  0  0  0  0  0  0  0  0  0  0
   37.3540   32.8730   40.5300 N   0  0  0  0  0  0  0  0  0  0  0  0
   36.5290   32.7640   41.1250 H   0  0  0  0  0  0  0  0  0  0  0  0
   37.1150   33.0950   39.1310 C   0  0  0  0  0  2  0  0  0  0  0  0
   37.4080   31.9070   38.2770 C   0  0  0  0  0  2  0  0  0  0  0  0
   37.7880   27.5030   43.6510 C   0  0  0  0  0  0  0  0  0  0  0  0
   37.0190   27.0280   42.5710 C   0  0  0  0  0  0  0  0  0  0  0  0
   37.6400   26.7380   41.3800 C   0  0  0  0  0  0  0  0  0  0  0  0
   38.9930   26.9330   41.3160 N   0  0  0  0  0  0  0  0  0  0  0  0
   39.7350   27.3870   42.3460 C   0  0  0  0  0  0  0  0  0  0  0  0
   39.1170   27.6770   43.5360 N   0  0  0  0  0  0  0  0  0  0  0  0
   37.2880   27.7310   44.5930 H   0  0  0  0  0  0  0  0  0  0  0  0
   35.9700   26.8810   42.6290 H   0  0  0  0  0  0  0  0  0  0  0  0
   40.7870   27.5150   42.2270 H   0  0  0  0  0  0  0  0  0  0  0  0
  1  2  1  0  0  0  0
  1 26  1  0  0  0  0
  2  7  1  0  0  0  0
  3  8  1  0  0  0  0
  3  2  2  0  0  0  0
  4  3  1  0  0  0  0
  5  4  2  0  0  0  0
  5  6  1  0  0  0  0
  6 13  1  0  0  0  0
  6  1  2  0  0  0  0
  9  4  1  0  0  0  0
 10  5  1  0  0  0  0
 11 15  1  0  0  0  0
 11 13  1  0  0  0  0
 12 11  2  0  0  0  0
 13 14  1  0  0  0  0
 15 16  1  0  0  0  0
 16 18  1  0  0  0  0
 17 16  1  0  0  0  0
 18 19  1  0  0  0  0
 20 18  1  0  0  0  0
 20 21  1  0  0  0  0
 22 20  1  0  0  0  0
 23 15  1  0  0  0  0
 23 22  1  0  0  0  0
 24 30  1  0  0  0  0
 25 31  1  0  0  0  0
 25 24  2  0  0  0  0
 26 25  1  0  0  0  0
 27 26  2  0  0  0  0
 27 28  1  0  0  0  0
 28 29  2  0  0  0  0
 29 24  1  0  0  0  0
 32 28  1  0  0  0  0
M  END
>  <minimizedAffinity>
-5.42027569

$$$$

 OpenBabel03242517013D

 32 34  0  0  0  0  0  0  0  0999 V2000
   37.3480   28.6820   41.1110 C   0  0  0  0  0  0  0  0  0  0  0  0
   36.6760   27.4940   41.3990 C   0  0  0  0  0  0  0  0  0  0  0  0
   36.6780   27.0320   42.7050 C   0  0  0  0  0  0  0  0  0  0  0  0
   37.3330   27.7390   43.6790 C   0  0  0  0  0  0  0  0  0  0  0  0
   37.9990   28.9050   43.4280 C   0  0  0  0  0  0  0  0  0  0  0  0
   37.9820   29.3500   42.1040 C   0  0  0  0  0  0  0  0  0  0  0  0
   36.1630   26.9460   40.6180 H   0  0  0  0  0  0  0  0  0  0  0  0
   36.1520   26.1110   42.9030 H   0  0  0  0  0  0  0  0  0  0  0  0
   37.3040   27.3310   44.6880 H   0  0  0  0  0  0  0  0  0  0  0  0
   38.5190   29.4690   44.1930 H   0  0  0  0  0  0  0  0  0  0  0  0
   39.9490   30.9040   41.3110 C   0  0  0  0  0  0  0  0  0  0  0  0
   40.9090   30.1080   41.1880 O   0  0  0  0  0  0  0  0  0  0  0  0
   38.6370   30.5450   41.7110 N   0  0  0  0  0  0  0  0  0  0  0  0
   37.8370   31.2350   41.7800 H   0  0  0  0  0  0  0  0  0  0  0  0
   40.0870   32.3190   41.0480 N   0  0  0  0  0  0  0  0  0  0  0  0
   39.1760   33.4450   40.8290 C   0  0  0  0  0  3  0  0  0  0  0  0
   39.3520   34.1330   41.7090 H   0  0  0  0  0  0  0  0  0  0  0  0
   39.4510   34.1610   39.5550 C   0  0  0  0  0  3  0  0  0  0  0  0
   38.5760   33.9720   38.8680 H   0  0  0  0  0  0  0  0  0  0  0  0
   40.6140   33.7660   38.8400 N   0  0  0  0  0  0  0  0  0  0  0  0
   40.4880   33.1640   38.0220 H   0  0  0  0  0  0  0  0  0  0  0  0
   41.7590   33.4990   39.6660 C   0  0  0  0  0  2  0  0  0  0  0  0
   41.4240   32.8390   40.9620 C   0  0  0  0  0  2  0  0  0  0  0  0
   36.2970   30.0470   37.7600 C   0  0  0  0  0  0  0  0  0  0  0  0
   36.2100   29.6640   39.1120 C   0  0  0  0  0  0  0  0  0  0  0  0
   37.3100   29.1160   39.7280 C   0  0  0  0  0  0  0  0  0  0  0  0
   38.4440   28.9760   38.9740 N   0  0  0  0  0  0  0  0  0  0  0  0
   38.5340   29.3410   37.6800 C   0  0  0  0  0  0  0  0  0  0  0  0
   37.4370   29.8880   37.0620 N   0  0  0  0  0  0  0  0  0  0  0  0
   35.4200   30.4810   37.2790 H   0  0  0  0  0  0  0  0  0  0  0  0
   35.3270   29.7750   39.6890 H   0  0  0  0  0  0  0  0  0  0  0  0
   39.4500   29.2040   37.1510 H   0  0  0  0  0  0  0  0  0  0  0  0
  1  2  2  0  0  0  0
  1  6  1  0  0  0  0
  2  3  1  0  0  0  0
  3  8  1  0  0  0  0
  3  4  2  0  0  0  0
  4  9  1  0  0  0  0
  5  4  1  0  0  0  0
  5 10  1  0  0  0  0
  6  5  2  0  0  0  0
  7  2  1  0  0  0  0
 11 13  1  0  0  0  0
 12 11  2  0  0  0  0
 13 14  1  0  0  0  0
 13  6  1  0  0  0  0
 15 11  1  0  0  0  0
 16 15  1  0  0  0  0
 16 17  1  0  0  0  0
 18 16  1  0  0  0  0
 19 18  1  0  0  0  0
 20 18  1  0  0  0  0
 20 22  1  0  0  0  0
 21 20  1  0  0  0  0
 22 23  1  0  0  0  0
 23 15  1  0  0  0  0
 24 25  1  0  0  0  0
 25 31  1  0  0  0  0
 25 26  2  0  0  0  0
 26  1  1  0  0  0  0
 27 26  1  0  0  0  0
 28 27  2  0  0  0  0
 29 28  1  0  0  0  0
 29 24  2  0  0  0  0
 30 24  1  0  0  0  0
 32 28  1  0  0  0  0
M  END
>  <minimizedAffinity>
-5.34939194

$$$$

 OpenBabel03242517013D

 32 34  0  0  0  0  0  0  0  0999 V2000
   37.6020   31.8190   39.9190 C   0  0  0  0  0  0  0  0  0  0  0  0
   37.2480   33.1160   39.5500 C   0  0  0  0  0  0  0  0  0  0  0  0
   38.0740   34.1610   39.9300 C   0  0  0  0  0  0  0  0  0  0  0  0
   39.2100   33.9060   40.6530 C   0  0  0  0  0  0  0  0  0  0  0  0
   39.5830   32.6480   41.0290 C   0  0  0  0  0  0  0  0  0  0  0  0
   38.7340   31.6110   40.6340 C   0  0  0  0  0  0  0  0  0  0  0  0
   36.3470   33.3020   38.9780 H   0  0  0  0  0  0  0  0  0  0  0  0
   37.7790   35.1560   39.6330 H   0  0  0  0  0  0  0  0  0  0  0  0
   39.8230   34.7640   40.9250 H   0  0  0  0  0  0  0  0  0  0  0  0
   40.4790   32.4390   41.6000 H   0  0  0  0  0  0  0  0  0  0  0  0
   39.0640   29.4900   42.1520 C   0  0  0  0  0  0  0  0  0  0  0  0
   38.8240   29.9230   43.3030 O   0  0  0  0  0  0  0  0  0  0  0  0
   39.0060   30.2590   40.9620 N   0  0  0  0  0  0  0  0  0  0  0  0
   39.1870   29.8600   39.9980 H   0  0  0  0  0  0  0  0  0  0  0  0
   39.4370   28.1130   41.9120 N   0  0  0  0  0  0  0  0  0  0  0  0
   39.5170   27.2300   40.7460 C   0  0  0  0  0  3  0  0  0  0  0  0
   40.6170   26.9890   40.6440 H   0  0  0  0  0  0  0  0  0  0  0  0
   38.7320   25.9790   40.9240 C   0  0  0  0  0  3  0  0  0  0  0  0
   37.8660   26.0210   40.2030 H   0  0  0  0  0  0  0  0  0  0  0  0
   38.1710   25.7560   42.2120 N   0  0  0  0  0  0  0  0  0  0  0  0
   37.1720   25.9400   42.3330 H   0  0  0  0  0  0  0  0  0  0  0  0
   39.0300   26.1160   43.3050 C   0  0  0  0  0  2  0  0  0  0  0  0
   39.8450   27.3400   43.0520 C   0  0  0  0  0  2  0  0  0  0  0  0
   35.6630   29.2900   37.9090 C   0  0  0  0  0  0  0  0  0  0  0  0
   36.5770   30.3200   38.1990 C   0  0  0  0  0  0  0  0  0  0  0  0
   36.6990   30.7660   39.4930 C   0  0  0  0  0  0  0  0  0  0  0  0
   35.9100   30.1690   40.4380 N   0  0  0  0  0  0  0  0  0  0  0  0
   35.0330   29.1810   40.1670 C   0  0  0  0  0  0  0  0  0  0  0  0
   34.9090   28.7340   38.8760 N   0  0  0  0  0  0  0  0  0  0  0  0
   35.5710   28.9410   36.8800 H   0  0  0  0  0  0  0  0  0  0  0  0
   37.1840   30.7790   37.4600 H   0  0  0  0  0  0  0  0  0  0  0  0
   34.4490   28.7590   40.9530 H   0  0  0  0  0  0  0  0  0  0  0  0
  1  6  1  0  0  0  0
  2  1  2  0  0  0  0
  2  3  1  0  0  0  0
  3  4  2  0  0  0  0
  4  9  1  0  0  0  0
  4  5  1  0  0  0  0
  5 10  1  0  0  0  0
  6 13  1  0  0  0  0
  6  5  2  0  0  0  0
  7  2  1  0  0  0  0
  8  3  1  0  0  0  0
 11 12  2  0  0  0  0
 13 11  1  0  0  0  0
 14 13  1  0  0  0  0
 15 11  1  0  0  0  0
 15 23  1  0  0  0  0
 16 18  1  0  0  0  0
 16 15  1  0  0  0  0
 17 16  1  0  0  0  0
 18 20  1  0  0  0  0
 19 18  1  0  0  0  0
 20 21  1  0  0  0  0
 20 22  1  0  0  0  0
 23 22  1  0  0  0  0
 24 25  2  0  0  0  0
 24 29  1  0  0  0  0
 25 26  1  0  0  0  0
 26  1  1  0  0  0  0
 26 27  2  0  0  0  0
 28 27  1  0  0  0  0
 28 32  1  0  0  0  0
 29 28  2  0  0  0  0
 30 24  1  0  0  0  0
 31 25  1  0  0  0  0
M  END
>  <minimizedAffinity>
-5.33588982

$$$$

 OpenBabel03242517013D

 32 34  0  0  0  0  0  0  0  0999 V2000
   35.6630   28.8220   38.0520 C   0  0  0  0  0  0  0  0  0  0  0  0
   35.1430   29.1670   36.8050 C   0  0  0  0  0  0  0  0  0  0  0  0
   34.6250   28.1640   36.0030 C   0  0  0  0  0  0  0  0  0  0  0  0
   34.6320   26.8660   36.4410 C   0  0  0  0  0  0  0  0  0  0  0  0
   35.1330   26.4960   37.6560 C   0  0  0  0  0  0  0  0  0  0  0  0
   35.6500   27.5250   38.4470 C   0  0  0  0  0  0  0  0  0  0  0  0
   35.1450   30.1990   36.4730 H   0  0  0  0  0  0  0  0  0  0  0  0
   34.2290   28.4570   35.0430 H   0  0  0  0  0  0  0  0  0  0  0  0
   34.2130   26.1180   35.7700 H   0  0  0  0  0  0  0  0  0  0  0  0
   35.1420   25.4720   38.0090 H   0  0  0  0  0  0  0  0  0  0  0  0
   37.3120   26.5540   40.2380 C   0  0  0  0  0  0  0  0  0  0  0  0
   38.1500   25.9350   39.5430 O   0  0  0  0  0  0  0  0  0  0  0  0
   36.2020   27.2750   39.7290 N   0  0  0  0  0  0  0  0  0  0  0  0
   35.5240   27.8130   40.3390 H   0  0  0  0  0  0  0  0  0  0  0  0
   37.3950   26.6000   41.6810 N   0  0  0  0  0  0  0  0  0  0  0  0
   36.7940   27.4040   42.7480 C   0  0  0  0  0  3  0  0  0  0  0  0
   36.1630   26.6740   43.3380 H   0  0  0  0  0  0  0  0  0  0  0  0
   37.8130   28.0320   43.6310 C   0  0  0  0  0  3  0  0  0  0  0  0
   37.7680   29.1450   43.4550 H   0  0  0  0  0  0  0  0  0  0  0  0
   39.1640   27.6460   43.4190 N   0  0  0  0  0  0  0  0  0  0  0  0
   39.7700   28.2960   42.9110 H   0  0  0  0  0  0  0  0  0  0  0  0
   39.3490   26.2480   43.1490 C   0  0  0  0  0  2  0  0  0  0  0  0
   38.2670   25.6490   42.3140 C   0  0  0  0  0  2  0  0  0  0  0  0
   37.5100   31.8770   39.2560 C   0  0  0  0  0  0  0  0  0  0  0  0
   37.0680   30.8640   38.3840 C   0  0  0  0  0  0  0  0  0  0  0  0
   36.1910   29.9130   38.8480 C   0  0  0  0  0  0  0  0  0  0  0  0
   35.7930   30.0120   40.1550 N   0  0  0  0  0  0  0  0  0  0  0  0
   36.2130   30.9800   40.9940 C   0  0  0  0  0  0  0  0  0  0  0  0
   37.0890   31.9300   40.5340 N   0  0  0  0  0  0  0  0  0  0  0  0
   38.2060   32.6280   38.8810 H   0  0  0  0  0  0  0  0  0  0  0  0
   37.3820   30.7930   37.3740 H   0  0  0  0  0  0  0  0  0  0  0  0
   35.8630   30.9990   42.0020 H   0  0  0  0  0  0  0  0  0  0  0  0
  1  6  1  0  0  0  0
  1 26  1  0  0  0  0
  2  1  2  0  0  0  0
  3  4  2  0  0  0  0
  3  2  1  0  0  0  0
  4  5  1  0  0  0  0
  5 10  1  0  0  0  0
  5  6  2  0  0  0  0
  6 13  1  0  0  0  0
  7  2  1  0  0  0  0
  8  3  1  0  0  0  0
  9  4  1  0  0  0  0
 11 15  1  0  0  0  0
 12 11  2  0  0  0  0
 13 11  1  0  0  0  0
 13 14  1  0  0  0  0
 15 23  1  0  0  0  0
 15 16  1  0  0  0  0
 16 17  1  0  0  0  0
 16 18  1  0  0  0  0
 19 18  1  0  0  0  0
 20 18  1  0  0  0  0
 21 20  1  0  0  0  0
 22 20  1  0  0  0  0
 23 22  1  0  0  0  0
 24 29  1  0  0  0  0
 25 26  1  0  0  0  0
 25 24  2  0  0  0  0
 26 27  2  0  0  0  0
 27 28  1  0  0  0  0
 28 32  1  0  0  0  0
 29 28  2  0  0  0  0
 30 24  1  0  0  0  0
 31 25  1  0  0  0  0
M  END
>  <minimizedAffinity>
-5.13418055

$$$$

 OpenBabel03242517013D

 32 34  0  0  0  0  0  0  0  0999 V2000
   36.7940   26.8770   39.8830 C   0  0  0  0  0  0  0  0  0  0  0  0
   36.5520   25.5030   39.8630 C   0  0  0  0  0  0  0  0  0  0  0  0
   36.7990   24.7710   41.0130 C   0  0  0  0  0  0  0  0  0  0  0  0
   37.2700   25.3990   42.1360 C   0  0  0  0  0  0  0  0  0  0  0  0
   37.5160   26.7410   42.1860 C   0  0  0  0  0  0  0  0  0  0  0  0
   37.2600   27.4580   41.0150 C   0  0  0  0  0  0  0  0  0  0  0  0
   36.1790   25.0210   38.9680 H   0  0  0  0  0  0  0  0  0  0  0  0
   36.6050   23.7100   40.9720 H   0  0  0  0  0  0  0  0  0  0  0  0
   37.4470   24.7760   43.0110 H   0  0  0  0  0  0  0  0  0  0  0  0
   37.8890   27.2450   43.0700 H   0  0  0  0  0  0  0  0  0  0  0  0
   38.5990   29.7210   40.9890 C   0  0  0  0  0  0  0  0  0  0  0  0
   39.7890   29.3490   41.1100 O   0  0  0  0  0  0  0  0  0  0  0  0
   37.4750   28.8580   40.9340 N   0  0  0  0  0  0  0  0  0  0  0  0
   36.4810   29.1980   40.8040 H   0  0  0  0  0  0  0  0  0  0  0  0
   38.2370   31.1170   40.8880 N   0  0  0  0  0  0  0  0  0  0  0  0
   37.0490   31.8740   40.4820 C   0  0  0  0  0  3  0  0  0  0  0  0
   36.7100   32.4020   41.4230 H   0  0  0  0  0  0  0  0  0  0  0  0
   37.3430   32.8650   39.4130 C   0  0  0  0  0  3  0  0  0  0  0  0
   36.8210   32.5140   38.4780 H   0  0  0  0  0  0  0  0  0  0  0  0
   38.7100   33.0430   39.0670 N   0  0  0  0  0  0  0  0  0  0  0  0
   39.0450   32.5990   38.2080 H   0  0  0  0  0  0  0  0  0  0  0  0
   39.6120   33.0440   40.1850 C   0  0  0  0  0  2  0  0  0  0  0  0
   39.2380   32.0790   41.2600 C   0  0  0  0  0  2  0  0  0  0  0  0
   35.1170   28.5430   36.9490 C   0  0  0  0  0  0  0  0  0  0  0  0
   35.2580   27.8370   38.1590 C   0  0  0  0  0  0  0  0  0  0  0  0
   36.5170   27.5910   38.6510 C   0  0  0  0  0  0  0  0  0  0  0  0
   37.5770   28.0560   37.9210 N   0  0  0  0  0  0  0  0  0  0  0  0
   37.4490   28.7320   36.7620 C   0  0  0  0  0  0  0  0  0  0  0  0
   36.1930   28.9800   36.2680 N   0  0  0  0  0  0  0  0  0  0  0  0
   34.1150   28.7340   36.5640 H   0  0  0  0  0  0  0  0  0  0  0  0
   34.4310   27.4790   38.7180 H   0  0  0  0  0  0  0  0  0  0  0  0
   38.3190   29.0680   36.2430 H   0  0  0  0  0  0  0  0  0  0  0  0
  1  6  1  0  0  0  0
  2  1  2  0  0  0  0
  2  3  1  0  0  0  0
  3  4  2  0  0  0  0
  4  5  1  0  0  0  0
  4  9  1  0  0  0  0
  5 10  1  0  0  0  0
  6  5  2  0  0  0  0
  7  2  1  0  0  0  0
  8  3  1  0  0  0  0
 11 12  2  0  0  0  0
 13 11  1  0  0  0  0
 13  6  1  0  0  0  0
 14 13  1  0  0  0  0
 15 11  1  0  0  0  0
 15 23  1  0  0  0  0
 16 15  1  0  0  0  0
 16 17  1  0  0  0  0
 18 16  1  0  0  0  0
 19 18  1  0  0  0  0
 20 18  1  0  0  0  0
 20 22  1  0  0  0  0
 21 20  1  0  0  0  0
 22 23  1  0  0  0  0
 24 25  1  0  0  0  0
 25 26  2  0  0  0  0
 25 31  1  0  0  0  0
 26  1  1  0  0  0  0
 27 26  1  0  0  0  0
 28 27  2  0  0  0  0
 29 28  1  0  0  0  0
 29 24  2  0  0  0  0
 30 24  1  0  0  0  0
 32 28  1  0  0  0  0
M  END
>  <minimizedAffinity>
-5.11404324

$$$$

 OpenBabel03242517013D

 32 34  0  0  0  0  0  0  0  0999 V2000
   36.9480   28.9980   39.7210 C   0  0  0  0  0  0  0  0  0  0  0  0
   35.8100   28.2070   39.5580 C   0  0  0  0  0  0  0  0  0  0  0  0
   35.0570   28.3630   38.4060 C   0  0  0  0  0  0  0  0  0  0  0  0
   35.4350   29.2780   37.4590 C   0  0  0  0  0  0  0  0  0  0  0  0
   36.5430   30.0660   37.5910 C   0  0  0  0  0  0  0  0  0  0  0  0
   37.2860   29.8910   38.7600 C   0  0  0  0  0  0  0  0  0  0  0  0
   35.5240   27.4880   40.3150 H   0  0  0  0  0  0  0  0  0  0  0  0
   34.1810   27.7400   38.3030 H   0  0  0  0  0  0  0  0  0  0  0  0
   34.8070   29.3590   36.5740 H   0  0  0  0  0  0  0  0  0  0  0  0
   36.8480   30.7920   36.8470 H   0  0  0  0  0  0  0  0  0  0  0  0
   38.7630   32.0190   39.2140 C   0  0  0  0  0  0  0  0  0  0  0  0
   37.9260   32.9510   39.2180 O   0  0  0  0  0  0  0  0  0  0  0  0
   38.4570   30.6480   39.0200 N   0  0  0  0  0  0  0  0  0  0  0  0
   39.1820   29.8770   39.0490 H   0  0  0  0  0  0  0  0  0  0  0  0
   40.1760   32.2540   39.4130 N   0  0  0  0  0  0  0  0  0  0  0  0
   41.3480   31.4350   39.7310 C   0  0  0  0  0  3  0  0  0  0  0  0
   42.0070   31.5100   38.8160 H   0  0  0  0  0  0  0  0  0  0  0  0
   42.0770   31.9260   40.9310 C   0  0  0  0  0  3  0  0  0  0  0  0
   41.9450   31.1540   41.7430 H   0  0  0  0  0  0  0  0  0  0  0  0
   41.6430   33.1640   41.4790 N   0  0  0  0  0  0  0  0  0  0  0  0
   41.0660   33.1330   42.3230 H   0  0  0  0  0  0  0  0  0  0  0  0
   41.3060   34.1610   40.5020 C   0  0  0  0  0  2  0  0  0  0  0  0
   40.6340   33.6110   39.2880 C   0  0  0  0  0  2  0  0  0  0  0  0
   38.0800   28.8950   43.3140 C   0  0  0  0  0  0  0  0  0  0  0  0
   37.2590   29.1470   42.1990 C   0  0  0  0  0  0  0  0  0  0  0  0
   37.6970   28.7910   40.9460 C   0  0  0  0  0  0  0  0  0  0  0  0
   38.9290   28.2000   40.8590 N   0  0  0  0  0  0  0  0  0  0  0  0
   39.7200   27.9550   41.9230 C   0  0  0  0  0  0  0  0  0  0  0  0
   39.2840   28.3100   43.1740 N   0  0  0  0  0  0  0  0  0  0  0  0
   37.7250   29.1800   44.3050 H   0  0  0  0  0  0  0  0  0  0  0  0
   36.3060   29.6070   42.2750 H   0  0  0  0  0  0  0  0  0  0  0  0
   40.6690   27.4890   41.7830 H   0  0  0  0  0  0  0  0  0  0  0  0
  1 26  1  0  0  0  0
  2  1  1  0  0  0  0
  2  7  1  0  0  0  0
  3  2  2  0  0  0  0
  4  5  2  0  0  0  0
  4  3  1  0  0  0  0
  5  6  1  0  0  0  0
  6 13  1  0  0  0  0
  6  1  2  0  0  0  0
  8  3  1  0  0  0  0
  9  4  1  0  0  0  0
 10  5  1  0  0  0  0
 11 12  2  0  0  0  0
 11 15  1  0  0  0  0
 13 14  1  0  0  0  0
 13 11  1  0  0  0  0
 15 16  1  0  0  0  0
 16 18  1  0  0  0  0
 17 16  1  0  0  0  0
 18 20  1  0  0  0  0
 18 19  1  0  0  0  0
 20 21  1  0  0  0  0
 22 20  1  0  0  0  0
 23 15  1  0  0  0  0
 23 22  1  0  0  0  0
 24 30  1  0  0  0  0
 25 31  1  0  0  0  0
 25 24  2  0  0  0  0
 26 25  1  0  0  0  0
 27 26  2  0  0  0  0
 27 28  1  0  0  0  0
 28 29  2  0  0  0  0
 29 24  1  0  0  0  0
 32 28  1  0  0  0  0
M  END
>  <minimizedAffinity>
-5.06398249

$$$$

 OpenBabel03242517013D

 32 34  0  0  0  0  0  0  0  0999 V2000
   36.8720   28.9350   39.7790 C   0  0  0  0  0  0  0  0  0  0  0  0
   35.6400   28.5980   39.2210 C   0  0  0  0  0  0  0  0  0  0  0  0
   35.3240   29.0910   37.9660 C   0  0  0  0  0  0  0  0  0  0  0  0
   36.2160   29.8920   37.3020 C   0  0  0  0  0  0  0  0  0  0  0  0
   37.4300   30.2390   37.8220 C   0  0  0  0  0  0  0  0  0  0  0  0
   37.7260   29.7290   39.0880 C   0  0  0  0  0  0  0  0  0  0  0  0
   34.9450   27.9640   39.7580 H   0  0  0  0  0  0  0  0  0  0  0  0
   34.3640   28.8180   37.5560 H   0  0  0  0  0  0  0  0  0  0  0  0
   35.9180   30.2530   36.3190 H   0  0  0  0  0  0  0  0  0  0  0  0
   38.1410   30.8710   37.3030 H   0  0  0  0  0  0  0  0  0  0  0  0
   39.7960   31.1470   39.8740 C   0  0  0  0  0  0  0  0  0  0  0  0
   39.5660   32.2800   39.3900 O   0  0  0  0  0  0  0  0  0  0  0  0
   38.9520   30.0150   39.7400 N   0  0  0  0  0  0  0  0  0  0  0  0
   39.1580   29.0760   40.1830 H   0  0  0  0  0  0  0  0  0  0  0  0
   40.9870   30.8690   40.6460 N   0  0  0  0  0  0  0  0  0  0  0  0
   41.4350   29.8070   41.5500 C   0  0  0  0  0  3  0  0  0  0  0  0
   42.3110   29.3290   41.0180 H   0  0  0  0  0  0  0  0  0  0  0  0
   41.8610   30.3290   42.8760 C   0  0  0  0  0  3  0  0  0  0  0  0
   41.1110   29.9680   43.6350 H   0  0  0  0  0  0  0  0  0  0  0  0
   41.9230   31.7430   43.0140 N   0  0  0  0  0  0  0  0  0  0  0  0
   41.1590   32.2050   43.5120 H   0  0  0  0  0  0  0  0  0  0  0  0
   42.4570   32.4300   41.8710 C   0  0  0  0  0  2  0  0  0  0  0  0
   42.0530   31.8290   40.5660 C   0  0  0  0  0  2  0  0  0  0  0  0
   37.3990   26.6420   42.7230 C   0  0  0  0  0  0  0  0  0  0  0  0
   37.1130   27.0500   41.4060 C   0  0  0  0  0  0  0  0  0  0  0  0
   37.1480   28.3890   41.0940 C   0  0  0  0  0  0  0  0  0  0  0  0
   37.4660   29.2580   42.1030 N   0  0  0  0  0  0  0  0  0  0  0  0
   37.7410   28.8740   43.3650 C   0  0  0  0  0  0  0  0  0  0  0  0
   37.7060   27.5390   43.6790 N   0  0  0  0  0  0  0  0  0  0  0  0
   37.3690   25.5790   42.9630 H   0  0  0  0  0  0  0  0  0  0  0  0
   36.8660   26.3700   40.6310 H   0  0  0  0  0  0  0  0  0  0  0  0
   37.9820   29.6050   44.1030 H   0  0  0  0  0  0  0  0  0  0  0  0
  1 26  1  0  0  0  0
  2  7  1  0  0  0  0
  2  1  1  0  0  0  0
  3  2  2  0  0  0  0
  4  5  2  0  0  0  0
  4  3  1  0  0  0  0
  5  6  1  0  0  0  0
  6 13  1  0  0  0  0
  6  1  2  0  0  0  0
  8  3  1  0  0  0  0
  9  4  1  0  0  0  0
 10  5  1  0  0  0  0
 11 15  1  0  0  0  0
 12 11  2  0  0  0  0
 13 11  1  0  0  0  0
 13 14  1  0  0  0  0
 15 16  1  0  0  0  0
 16 18  1  0  0  0  0
 17 16  1  0  0  0  0
 18 20  1  0  0  0  0
 18 19  1  0  0  0  0
 20 21  1  0  0  0  0
 22 20  1  0  0  0  0
 23 15  1  0  0  0  0
 23 22  1  0  0  0  0
 24 30  1  0  0  0  0
 24 29  1  0  0  0  0
 25 24  2  0  0  0  0
 26 25  1  0  0  0  0
 26 27  2  0  0  0  0
 27 28  1  0  0  0  0
 28 29  2  0  0  0  0
 28 32  1  0  0  0  0
 31 25  1  0  0  0  0
M  END
>  <minimizedAffinity>
-5.04352903

$$$$

 OpenBabel03242517013D

 32 34  0  0  0  0  0  0  0  0999 V2000
   36.9340   27.5740   39.7230 C   0  0  0  0  0  0  0  0  0  0  0  0
   36.3200   26.3900   39.3160 C   0  0  0  0  0  0  0  0  0  0  0  0
   35.8800   26.2890   38.0070 C   0  0  0  0  0  0  0  0  0  0  0  0
   36.0500   27.3410   37.1450 C   0  0  0  0  0  0  0  0  0  0  0  0
   36.6470   28.5120   37.5130 C   0  0  0  0  0  0  0  0  0  0  0  0
   37.0830   28.5900   38.8380 C   0  0  0  0  0  0  0  0  0  0  0  0
   36.1920   25.5670   40.0090 H   0  0  0  0  0  0  0  0  0  0  0  0
   35.4080   25.3630   37.7160 H   0  0  0  0  0  0  0  0  0  0  0  0
   35.6850   27.2080   36.1280 H   0  0  0  0  0  0  0  0  0  0  0  0
   36.7860   29.3470   36.8380 H   0  0  0  0  0  0  0  0  0  0  0  0
   39.0140   30.3190   39.2780 C   0  0  0  0  0  0  0  0  0  0  0  0
   39.9770   29.8410   38.6360 O   0  0  0  0  0  0  0  0  0  0  0  0
   37.7160   29.7520   39.3480 N   0  0  0  0  0  0  0  0  0  0  0  0
   36.9130   30.1920   39.8770 H   0  0  0  0  0  0  0  0  0  0  0  0
   39.1310   31.5430   40.0410 N   0  0  0  0  0  0  0  0  0  0  0  0
   38.2050   32.4970   40.6550 C   0  0  0  0  0  3  0  0  0  0  0  0
   38.3990   32.4120   41.7650 H   0  0  0  0  0  0  0  0  0  0  0  0
   38.4380   33.8930   40.1980 C   0  0  0  0  0  3  0  0  0  0  0  0
   37.5470   34.1960   39.5770 H   0  0  0  0  0  0  0  0  0  0  0  0
   39.5850   34.1140   39.3880 N   0  0  0  0  0  0  0  0  0  0  0  0
   39.4420   34.2210   38.3810 H   0  0  0  0  0  0  0  0  0  0  0  0
   40.7540   33.3880   39.7990 C   0  0  0  0  0  2  0  0  0  0  0  0
   40.4610   32.0170   40.3110 C   0  0  0  0  0  2  0  0  0  0  0  0
   37.0950   27.8520   43.4770 C   0  0  0  0  0  0  0  0  0  0  0  0
   36.5460   27.8260   42.1810 C   0  0  0  0  0  0  0  0  0  0  0  0
   37.3750   27.6220   41.1040 C   0  0  0  0  0  0  0  0  0  0  0  0
   38.7080   27.4530   41.3640 N   0  0  0  0  0  0  0  0  0  0  0  0
   39.2400   27.4770   42.6020 C   0  0  0  0  0  0  0  0  0  0  0  0
   38.4150   27.6800   43.6790 N   0  0  0  0  0  0  0  0  0  0  0  0
   36.4310   28.0140   44.3270 H   0  0  0  0  0  0  0  0  0  0  0  0
   35.5110   27.9590   41.9890 H   0  0  0  0  0  0  0  0  0  0  0  0
   40.2890   27.3370   42.7330 H   0  0  0  0  0  0  0  0  0  0  0  0
  1 26  1  0  0  0  0
  2  1  1  0  0  0  0
  2  7  1  0  0  0  0
  3  2  2  0  0  0  0
  4  5  2  0  0  0  0
  4  3  1  0  0  0  0
  5  6  1  0  0  0  0
  6 13  1  0  0  0  0
  6  1  2  0  0  0  0
  8  3  1  0  0  0  0
  9  4  1  0  0  0  0
 10  5  1  0  0  0  0
 11 13  1  0  0  0  0
 11 15  1  0  0  0  0
 12 11  2  0  0  0  0
 13 14  1  0  0  0  0
 15 23  1  0  0  0  0
 15 16  1  0  0  0  0
 16 17  1  0  0  0  0
 18 16  1  0  0  0  0
 19 18  1  0  0  0  0
 20 22  1  0  0  0  0
 20 18  1  0  0  0  0
 21 20  1  0  0  0  0
 22 23  1  0  0  0  0
 24 29  1  0  0  0  0
 24 30  1  0  0  0  0
 25 24  2  0  0  0  0
 26 27  2  0  0  0  0
 26 25  1  0  0  0  0
 27 28  1  0  0  0  0
 28 32  1  0  0  0  0
 28 29  2  0  0  0  0
 31 25  1  0  0  0  0
M  END
>  <minimizedAffinity>
-5.0312624

$$$$

 OpenBabel03242517013D

 32 34  0  0  0  0  0  0  0  0999 V2000
   37.3220   27.2050   40.2110 C   0  0  0  0  0  0  0  0  0  0  0  0
   37.0060   25.9140   40.6340 C   0  0  0  0  0  0  0  0  0  0  0  0
   36.9790   25.6510   41.9940 C   0  0  0  0  0  0  0  0  0  0  0  0
   37.2600   26.6500   42.8890 C   0  0  0  0  0  0  0  0  0  0  0  0
   37.5720   27.9220   42.5060 C   0  0  0  0  0  0  0  0  0  0  0  0
   37.5930   28.1630   41.1300 C   0  0  0  0  0  0  0  0  0  0  0  0
   36.7860   25.1350   39.9140 H   0  0  0  0  0  0  0  0  0  0  0  0
   36.7320   24.6450   42.2960 H   0  0  0  0  0  0  0  0  0  0  0  0
   37.2240   26.3880   43.9450 H   0  0  0  0  0  0  0  0  0  0  0  0
   37.7950   28.7170   43.2080 H   0  0  0  0  0  0  0  0  0  0  0  0
   37.2750   30.7120   40.5670 C   0  0  0  0  0  0  0  0  0  0  0  0
   36.1760   30.9870   41.1010 O   0  0  0  0  0  0  0  0  0  0  0  0
   37.9040   29.4410   40.6010 N   0  0  0  0  0  0  0  0  0  0  0  0
   38.8480   29.2440   40.1640 H   0  0  0  0  0  0  0  0  0  0  0  0
   38.0420   31.6970   39.8370 N   0  0  0  0  0  0  0  0  0  0  0  0
   39.4170   31.8110   39.3440 C   0  0  0  0  0  3  0  0  0  0  0  0
   39.3170   31.8310   38.2180 H   0  0  0  0  0  0  0  0  0  0  0  0
   40.0930   33.0460   39.8230 C   0  0  0  0  0  3  0  0  0  0  0  0
   40.9090   32.7280   40.5340 H   0  0  0  0  0  0  0  0  0  0  0  0
   39.2880   33.9810   40.5280 N   0  0  0  0  0  0  0  0  0  0  0  0
   39.3720   34.0070   41.5470 H   0  0  0  0  0  0  0  0  0  0  0  0
   37.9700   34.1610   39.9850 C   0  0  0  0  0  2  0  0  0  0  0  0
   37.3600   32.9040   39.4600 C   0  0  0  0  0  2  0  0  0  0  0  0
   36.3780   27.5200   36.5770 C   0  0  0  0  0  0  0  0  0  0  0  0
   36.2390   27.2830   37.9580 C   0  0  0  0  0  0  0  0  0  0  0  0
   37.3340   27.4210   38.7770 C   0  0  0  0  0  0  0  0  0  0  0  0
   38.5140   27.7880   38.1880 N   0  0  0  0  0  0  0  0  0  0  0  0
   38.6530   28.0170   36.8670 C   0  0  0  0  0  0  0  0  0  0  0  0
   37.5620   27.8800   36.0470 N   0  0  0  0  0  0  0  0  0  0  0  0
   35.5040   27.4080   35.9330 H   0  0  0  0  0  0  0  0  0  0  0  0
   35.3210   26.9970   38.4060 H   0  0  0  0  0  0  0  0  0  0  0  0
   39.6030   28.3020   36.4730 H   0  0  0  0  0  0  0  0  0  0  0  0
  1  2  2  0  0  0  0
  1  6  1  0  0  0  0
  2  3  1  0  0  0  0
  3  8  1  0  0  0  0
  3  4  2  0  0  0  0
  4  9  1  0  0  0  0
  5  4  1  0  0  0  0
  5 10  1  0  0  0  0
  6  5  2  0  0  0  0
  7  2  1  0  0  0  0
 11 13  1  0  0  0  0
 11 12  2  0  0  0  0
 13  6  1  0  0  0  0
 14 13  1  0  0  0  0
 15 11  1  0  0  0  0
 16 18  1  0  0  0  0
 16 15  1  0  0  0  0
 17 16  1  0  0  0  0
 18 20  1  0  0  0  0
 18 19  1  0  0  0  0
 20 21  1  0  0  0  0
 22 20  1  0  0  0  0
 23 15  1  0  0  0  0
 23 22  1  0  0  0  0
 24 25  1  0  0  0  0
 25 31  1  0  0  0  0
 25 26  2  0  0  0  0
 26  1  1  0  0  0  0
 27 26  1  0  0  0  0
 28 27  2  0  0  0  0
 29 24  2  0  0  0  0
 29 28  1  0  0  0  0
 30 24  1  0  0  0  0
 32 28  1  0  0  0  0
M  END
>  <minimizedAffinity>
-5.01134682

$$$$
