
 OpenBabel03252501113D

 20 21  0  0  0  0  0  0  0  0999 V2000
   47.0440   34.8430   42.0310 C   0  0  0  0  0  0  0  0  0  0  0  0
   48.1590   35.3980   41.8910 O   0  0  0  0  0  0  0  0  0  0  0  0
   46.5500   34.1130   40.9100 N   0  0  0  0  0  0  0  0  0  0  0  0
   45.2840   33.4360   40.9570 C   0  0  0  0  0  3  0  0  0  0  0  0
   45.3500   32.4680   41.4820 H   0  0  0  0  0  0  0  0  0  0  0  0
   44.6460   33.3230   39.6000 C   0  0  0  0  0  3  0  0  0  0  0  0
   44.3060   34.3270   39.2730 H   0  0  0  0  0  0  0  0  0  0  0  0
   45.4810   32.6990   38.6190 N   0  0  0  0  0  0  0  0  0  0  0  0
   45.2200   31.7110   38.4640 H   0  0  0  0  0  0  0  0  0  0  0  0
   46.8870   32.7750   38.8960 C   0  0  0  0  0  2  0  0  0  0  0  0
   47.2760   34.0060   39.6780 C   0  0  0  0  0  2  0  0  0  0  0  0
   44.5710   36.0350   44.4920 C   0  0  0  0  0  0  0  0  0  0  0  0
   45.3590   35.9610   43.3360 C   0  0  0  0  0  0  0  0  0  0  0  0
   46.2450   34.8940   43.2300 C   0  0  0  0  0  0  0  0  0  0  0  0
   46.3000   33.9830   44.2420 N   0  0  0  0  0  0  0  0  0  0  0  0
   45.5160   34.0970   45.3410 C   0  0  0  0  0  0  0  0  0  0  0  0
   44.6450   35.1290   45.4690 N   0  0  0  0  0  0  0  0  0  0  0  0
   43.8640   36.8500   44.6240 H   0  0  0  0  0  0  0  0  0  0  0  0
   45.2200   36.7420   42.6140 H   0  0  0  0  0  0  0  0  0  0  0  0
   45.7350   33.2630   46.0020 H   0  0  0  0  0  0  0  0  0  0  0  0
  1 14  1  0  0  0  0
  2  1  2  0  0  0  0
  3  4  1  0  0  0  0
  3  1  1  0  0  0  0
  4  5  1  0  0  0  0
  6  4  1  0  0  0  0
  7  6  1  0  0  0  0
  8 10  1  0  0  0  0
  8  6  1  0  0  0  0
  9  8  1  0  0  0  0
 10 11  1  0  0  0  0
 11  3  1  0  0  0  0
 12 18  1  0  0  0  0
 12 17  1  0  0  0  0
 13 12  2  0  0  0  0
 14 13  1  0  0  0  0
 14 15  2  0  0  0  0
 15 16  1  0  0  0  0
 16 17  2  0  0  0  0
 16 20  1  0  0  0  0
 19 13  1  0  0  0  0
M  END
>  <minimizedAffinity>
-4.19259024

>  <minimizedRMSD>
0.171997115

$$$$
