
 OpenBabel03252508513D

 28 30  0  0  0  0  0  0  0  0999 V2000
   45.9580   34.1350   41.0670 C   0  0  0  0  0  0  0  0  0  0  0  0
   46.5340   34.8120   42.1470 C   0  0  0  0  0  0  0  0  0  0  0  0
   47.8660   35.2330   42.0070 C   0  0  0  0  0  0  0  0  0  0  0  0
   48.4960   34.9460   40.8250 N   0  0  0  0  0  0  0  0  0  0  0  0
   47.9060   34.2970   39.8270 C   0  0  0  0  0  0  0  0  0  0  0  0
   46.6290   33.8800   39.9280 N   0  0  0  0  0  0  0  0  0  0  0  0
   48.3350   35.7600   42.8300 H   0  0  0  0  0  0  0  0  0  0  0  0
   48.4870   34.1240   38.9470 H   0  0  0  0  0  0  0  0  0  0  0  0
   45.7570   35.0540   43.3490 C   0  0  0  0  0  0  0  0  0  0  0  0
   45.0660   36.2270   43.5750 C   0  0  0  0  0  0  0  0  0  0  0  0
   44.4890   36.0160   44.8160 C   0  0  0  0  0  0  0  0  0  0  0  0
   44.8110   34.7890   45.3110 N   0  0  0  0  0  0  0  0  0  0  0  0
   45.5730   34.2410   44.4050 N   0  0  0  0  0  0  0  0  0  0  0  0
   44.9640   37.1220   42.9700 H   0  0  0  0  0  0  0  0  0  0  0  0
   43.8530   36.7480   45.3280 H   0  0  0  0  0  0  0  0  0  0  0  0
   44.4620   34.4610   46.2400 H   0  0  0  0  0  0  0  0  0  0  0  0
   44.6450   33.7170   41.1940 O   0  0  0  0  0  0  0  0  0  0  0  0
   43.5460   34.3670   40.6980 C   0  0  0  0  0  0  0  0  0  0  0  0
   43.3550   35.6200   40.5820 O   0  0  0  0  0  0  0  0  0  0  0  0
   42.2900   33.8750   40.1670 N   0  0  0  0  0  0  0  0  0  0  0  0
   42.2510   32.4700   39.8180 C   0  0  0  0  0  3  0  0  0  0  0  0
   41.6870   31.9860   40.6690 H   0  0  0  0  0  0  0  0  0  0  0  0
   41.3810   32.3580   38.5850 C   0  0  0  0  0  3  0  0  0  0  0  0
   41.8470   31.5890   37.9300 H   0  0  0  0  0  0  0  0  0  0  0  0
   41.3580   33.5720   37.8020 N   0  0  0  0  0  0  0  0  0  0  0  0
   40.7780   33.3790   36.9630 H   0  0  0  0  0  0  0  0  0  0  0  0
   40.7500   34.6770   38.5120 C   0  0  0  0  0  2  0  0  0  0  0  0
   41.1050   34.6860   39.9710 C   0  0  0  0  0  2  0  0  0  0  0  0
  1 17  1  0  0  0  0
  1  2  1  0  0  0  0
  2  9  1  0  0  0  0
  3  2  2  0  0  0  0
  3  7  1  0  0  0  0
  4  3  1  0  0  0  0
  5  6  1  0  0  0  0
  5  4  2  0  0  0  0
  6  1  2  0  0  0  0
  8  5  1  0  0  0  0
  9 10  1  0  0  0  0
  9 13  2  0  0  0  0
 10 11  2  0  0  0  0
 11 12  1  0  0  0  0
 11 15  1  0  0  0  0
 12 16  1  0  0  0  0
 13 12  1  0  0  0  0
 14 10  1  0  0  0  0
 18 17  1  0  0  0  0
 19 18  2  0  0  0  0
 20 18  1  0  0  0  0
 21 20  1  0  0  0  0
 21 22  1  0  0  0  0
 23 21  1  0  0  0  0
 24 23  1  0  0  0  0
 25 27  1  0  0  0  0
 25 23  1  0  0  0  0
 26 25  1  0  0  0  0
 27 28  1  0  0  0  0
 28 20  1  0  0  0  0
M  END
>  <minimizedAffinity>
-5.70152521

>  <minimizedRMSD>
0.700794458

$$$$
