
 OpenBabel03242520203D

 35 37  0  0  0  0  0  0  0  0999 V2000
   40.9990   35.8580   39.3910 C   0  0  0  0  0  0  0  0  0  0  0  0
   40.8090   35.5710   38.3340 H   0  0  0  0  0  0  0  0  0  0  0  0
   41.1620   36.9510   39.4520 H   0  0  0  0  0  0  0  0  0  0  0  0
   43.9390   34.6810   41.4600 C   0  0  0  0  0  0  0  0  0  0  0  0
   42.7810   35.3930   41.0690 C   0  0  0  0  0  0  0  0  0  0  0  0
   42.2180   35.1380   39.8300 C   0  0  0  0  0  0  0  0  0  0  0  0
   42.8290   34.1980   39.0470 N   0  0  0  0  0  0  0  0  0  0  0  0
   43.9480   33.5340   39.4650 C   0  0  0  0  0  0  0  0  0  0  0  0
   44.4910   33.7760   40.6560 N   0  0  0  0  0  0  0  0  0  0  0  0
   42.3520   36.1160   41.7310 H   0  0  0  0  0  0  0  0  0  0  0  0
   44.3490   32.8060   38.7560 H   0  0  0  0  0  0  0  0  0  0  0  0
   44.5430   34.9660   42.7860 C   0  0  0  0  0  0  0  0  0  0  0  0
   46.0670   35.3320   42.6660 C   0  0  0  0  0  0  0  0  0  0  0  0
   45.0350   36.2310   43.1940 C   0  0  0  0  0  0  0  0  0  0  0  0
   44.3650   34.1210   43.5080 H   0  0  0  0  0  0  0  0  0  0  0  0
   46.7310   34.8710   43.4430 H   0  0  0  0  0  0  0  0  0  0  0  0
   46.4830   35.4350   41.6660 H   0  0  0  0  0  0  0  0  0  0  0  0
   44.8170   37.1550   42.6080 H   0  0  0  0  0  0  0  0  0  0  0  0
   45.0330   36.4750   44.2930 H   0  0  0  0  0  0  0  0  0  0  0  0
   39.8310   35.5240   40.2940 C   0  0  0  0  0  0  0  0  0  0  0  0
   40.1410   35.5650   41.3350 H   0  0  0  0  0  0  0  0  0  0  0  0
   39.0360   36.3140   40.1760 H   0  0  0  0  0  0  0  0  0  0  0  0
   39.2830   33.2110   40.8560 C   0  0  0  0  0  0  0  0  0  0  0  0
   39.8510   33.2400   41.9840 O   0  0  0  0  0  0  0  0  0  0  0  0
   39.1880   34.2820   39.9270 N   0  0  0  0  0  0  0  0  0  0  0  0
   38.6890   34.1700   39.0450 H   0  0  0  0  0  0  0  0  0  0  0  0
   38.7180   31.9240   40.6040 N   0  0  0  0  0  0  0  0  0  0  0  0
   38.3750   31.7620   39.1970 C   0  0  0  0  0  0  0  0  0  0  0  0
   39.2330   32.1010   38.5480 H   0  0  0  0  0  0  0  0  0  0  0  0
   38.2700   30.2610   38.9190 C   0  0  0  0  0  0  0  0  0  0  0  0
   39.2940   29.8540   39.0740 H   0  0  0  0  0  0  0  0  0  0  0  0
   37.2860   29.6260   39.7390 N   0  0  0  0  0  0  0  0  0  0  0  0
   36.3640   29.6840   39.2390 H   0  0  0  0  0  0  0  0  0  0  0  0
   37.1930   30.1340   41.0840 C   0  0  0  0  0  0  0  0  0  0  0  0
   38.4640   30.8450   41.5060 C   0  0  0  0  0  0  0  0  0  0  0  0
  1  3  1  0  0  0  0
  1  6  1  0  0  0  0
  1 20  1  0  0  0  0
  2  1  1  0  0  0  0
  4 12  1  0  0  0  0
  5  4  1  0  0  0  0
  5 10  1  0  0  0  0
  6  5  2  0  0  0  0
  7  8  2  0  0  0  0
  7  6  1  0  0  0  0
  8  9  1  0  0  0  0
  9  4  2  0  0  0  0
 11  8  1  0  0  0  0
 12 14  1  0  0  0  0
 12 15  1  0  0  0  0
 13 12  1  0  0  0  0
 13 14  1  0  0  0  0
 13 16  1  0  0  0  0
 14 19  1  0  0  0  0
 17 13  1  0  0  0  0
 18 14  1  0  0  0  0
 20 21  1  0  0  0  0
 22 20  1  0  0  0  0
 23 24  2  0  0  0  0
 25 20  1  0  0  0  0
 25 23  1  0  0  0  0
 26 25  1  0  0  0  0
 27 23  1  0  0  0  0
 27 35  1  0  0  0  0
 28 27  1  0  0  0  0
 29 28  1  0  0  0  0
 30 31  1  0  0  0  0
 30 28  1  0  0  0  0
 30 32  1  0  0  0  0
 32 34  1  0  0  0  0
 33 32  1  0  0  0  0
 34 35  1  0  0  0  0
M  END
>  <minimizedAffinity>
-5.06660223

>  <minimizedRMSD>
0.620413661

$$$$
