
 OpenBabel03252502293D

 35 37  0  0  0  0  0  0  0  0999 V2000
   45.1260   34.4640   41.2750 C   0  0  0  0  0  0  0  0  0  0  0  0
   45.4710   35.1140   42.4500 C   0  0  0  0  0  0  0  0  0  0  0  0
   46.8160   35.3730   42.7040 C   0  0  0  0  0  0  0  0  0  0  0  0
   47.7620   34.9820   41.7920 C   0  0  0  0  0  0  0  0  0  0  0  0
   47.4410   34.3370   40.6190 C   0  0  0  0  0  0  0  0  0  0  0  0
   46.0850   34.0900   40.3920 C   0  0  0  0  0  0  0  0  0  0  0  0
   44.7260   35.4230   43.1690 H   0  0  0  0  0  0  0  0  0  0  0  0
   47.0400   35.8810   43.6320 H   0  0  0  0  0  0  0  0  0  0  0  0
   48.8060   35.1770   41.9770 H   0  0  0  0  0  0  0  0  0  0  0  0
   48.1720   34.0150   39.8780 H   0  0  0  0  0  0  0  0  0  0  0  0
   45.8360   32.1670   38.6370 C   0  0  0  0  0  0  0  0  0  0  0  0
   46.6130   31.3110   39.0410 O   0  0  0  0  0  0  0  0  0  0  0  0
   45.6230   33.4370   39.2260 N   0  0  0  0  0  0  0  0  0  0  0  0
   44.9740   34.1240   38.7460 H   0  0  0  0  0  0  0  0  0  0  0  0
   45.0890   31.8370   37.4690 N   0  0  0  0  0  0  0  0  0  0  0  0
   43.9990   30.9010   37.6660 C   0  0  0  0  0  3  0  0  0  0  0  0
   44.3650   29.8630   37.7940 H   0  0  0  0  0  0  0  0  0  0  0  0
   42.9460   31.0570   36.5990 C   0  0  0  0  0  3  0  0  0  0  0  0
   42.3750   31.9980   36.8520 H   0  0  0  0  0  0  0  0  0  0  0  0
   43.4360   31.0730   35.2590 N   0  0  0  0  0  0  0  0  0  0  0  0
   43.1300   30.2210   34.7370 H   0  0  0  0  0  0  0  0  0  0  0  0
   44.8790   31.1100   35.2320 C   0  0  0  0  0  2  0  0  0  0  0  0
   45.2690   32.3070   36.1100 C   0  0  0  0  0  2  0  0  0  0  0  0
   41.4430   34.8160   40.5370 C   0  0  0  0  0  0  0  0  0  0  0  0
   42.7890   35.1700   40.6970 C   0  0  0  0  0  0  0  0  0  0  0  0
   43.7020   34.2280   41.0740 C   0  0  0  0  0  0  0  0  0  0  0  0
   43.2280   32.9610   41.2780 N   0  0  0  0  0  0  0  0  0  0  0  0
   41.9360   32.6140   41.1260 C   0  0  0  0  0  0  0  0  0  0  0  0
   41.0340   33.5520   40.7520 N   0  0  0  0  0  0  0  0  0  0  0  0
   43.1400   36.1810   40.5290 H   0  0  0  0  0  0  0  0  0  0  0  0
   41.6270   31.5890   41.3040 H   0  0  0  0  0  0  0  0  0  0  0  0
   40.4480   35.8270   40.1300 C   0  0  0  0  0  0  0  0  0  0  0  0
   39.2300   35.1590   39.9240 F   0  0  0  0  0  0  0  0  0  0  0  0
   40.8340   36.2860   38.8790 F   0  0  0  0  0  0  0  0  0  0  0  0
   40.2860   36.8350   41.0400 F   0  0  0  0  0  0  0  0  0  0  0  0
  1  2  1  0  0  0  0
  2  3  2  0  0  0  0
  2  7  1  0  0  0  0
  3  8  1  0  0  0  0
  4  9  1  0  0  0  0
  4  3  1  0  0  0  0
  5  4  2  0  0  0  0
  6  5  1  0  0  0  0
  6  1  2  0  0  0  0
 10  5  1  0  0  0  0
 11 12  2  0  0  0  0
 11 13  1  0  0  0  0
 13  6  1  0  0  0  0
 14 13  1  0  0  0  0
 15 16  1  0  0  0  0
 15 11  1  0  0  0  0
 16 17  1  0  0  0  0
 18 19  1  0  0  0  0
 18 16  1  0  0  0  0
 20 18  1  0  0  0  0
 21 20  1  0  0  0  0
 22 20  1  0  0  0  0
 22 23  1  0  0  0  0
 23 15  1  0  0  0  0
 24 25  2  0  0  0  0
 24 29  1  0  0  0  0
 25 26  1  0  0  0  0
 26  1  1  0  0  0  0
 26 27  2  0  0  0  0
 28 27  1  0  0  0  0
 28 31  1  0  0  0  0
 29 28  2  0  0  0  0
 30 25  1  0  0  0  0
 32 24  1  0  0  0  0
 32 35  1  0  0  0  0
 33 32  1  0  0  0  0
 34 32  1  0  0  0  0
M  END
>  <minimizedAffinity>
-6.35408831

>  <minimizedRMSD>
0.332426459

$$$$
