
 OpenBabel03252501113D

 20 21  0  0  0  0  0  0  0  0999 V2000
   47.0770   34.6460   42.1550 C   0  0  0  0  0  0  0  0  0  0  0  0
   48.0040   35.4290   41.8390 O   0  0  0  0  0  0  0  0  0  0  0  0
   46.8370   33.5530   41.2730 N   0  0  0  0  0  0  0  0  0  0  0  0
   46.9450   32.1930   41.7210 C   0  0  0  0  0  3  0  0  0  0  0  0
   47.9930   31.8510   41.7620 H   0  0  0  0  0  0  0  0  0  0  0  0
   46.0570   31.2620   40.9420 C   0  0  0  0  0  3  0  0  0  0  0  0
   44.9980   31.4600   41.2080 H   0  0  0  0  0  0  0  0  0  0  0  0
   46.2670   31.3130   39.5270 N   0  0  0  0  0  0  0  0  0  0  0  0
   46.8390   30.5190   39.1940 H   0  0  0  0  0  0  0  0  0  0  0  0
   46.8440   32.5380   39.0510 C   0  0  0  0  0  2  0  0  0  0  0  0
   46.4780   33.7350   39.8960 C   0  0  0  0  0  2  0  0  0  0  0  0
   44.5340   35.9850   44.4640 C   0  0  0  0  0  0  0  0  0  0  0  0
   45.3450   35.8320   43.3320 C   0  0  0  0  0  0  0  0  0  0  0  0
   46.2550   34.7800   43.3310 C   0  0  0  0  0  0  0  0  0  0  0  0
   46.3090   33.9580   44.4180 N   0  0  0  0  0  0  0  0  0  0  0  0
   45.5030   34.1460   45.4890 C   0  0  0  0  0  0  0  0  0  0  0  0
   44.6080   35.1660   45.5150 N   0  0  0  0  0  0  0  0  0  0  0  0
   43.8060   36.7920   44.5150 H   0  0  0  0  0  0  0  0  0  0  0  0
   45.2030   36.5460   42.5450 H   0  0  0  0  0  0  0  0  0  0  0  0
   45.7270   33.3750   46.2220 H   0  0  0  0  0  0  0  0  0  0  0  0
  1 14  1  0  0  0  0
  2  1  2  0  0  0  0
  3  4  1  0  0  0  0
  3  1  1  0  0  0  0
  4  5  1  0  0  0  0
  6  7  1  0  0  0  0
  6  4  1  0  0  0  0
  8  6  1  0  0  0  0
  9  8  1  0  0  0  0
 10  8  1  0  0  0  0
 10 11  1  0  0  0  0
 11  3  1  0  0  0  0
 12 18  1  0  0  0  0
 12 17  1  0  0  0  0
 13 12  2  0  0  0  0
 14 13  1  0  0  0  0
 14 15  2  0  0  0  0
 15 16  1  0  0  0  0
 16 17  2  0  0  0  0
 16 20  1  0  0  0  0
 19 13  1  0  0  0  0
M  END
>  <minimizedAffinity>
-3.86357117

>  <minimizedRMSD>
0.786101222

$$$$
