
 OpenBabel03252504003D

 34 37  0  0  0  0  0  0  0  0999 V2000
   46.7460   34.9090   42.6240 C   0  0  0  0  0  0  0  0  0  0  0  0
   45.8750   36.0050   42.6220 C   0  0  0  0  0  0  0  0  0  0  0  0
   44.9370   36.0770   43.6510 C   0  0  0  0  0  0  0  0  0  0  0  0
   44.9180   35.0910   44.5940 N   0  0  0  0  0  0  0  0  0  0  0  0
   45.7830   34.0550   44.5500 C   0  0  0  0  0  0  0  0  0  0  0  0
   46.6960   33.9620   43.5680 N   0  0  0  0  0  0  0  0  0  0  0  0
   45.8520   36.8020   41.9040 H   0  0  0  0  0  0  0  0  0  0  0  0
   44.2250   36.9010   43.7140 H   0  0  0  0  0  0  0  0  0  0  0  0
   46.0300   31.7020   45.1720 C   0  0  0  0  0  0  0  0  0  0  0  0
   45.7620   32.9950   45.5630 C   0  0  0  0  0  0  0  0  0  0  0  0
   45.4870   33.2440   46.8830 C   0  0  0  0  0  0  0  0  0  0  0  0
   45.4730   32.2320   47.8150 C   0  0  0  0  0  0  0  0  0  0  0  0
   45.2450   32.1750   49.1300 N   0  0  0  0  0  0  0  0  0  0  0  0
   45.3620   30.8970   49.5690 C   0  0  0  0  0  0  0  0  0  0  0  0
   45.6790   30.0780   48.4950 C   0  0  0  0  0  0  0  0  0  0  0  0
   45.7470   30.9150   47.4100 C   0  0  0  0  0  0  0  0  0  0  0  0
   46.0250   30.6640   46.0800 C   0  0  0  0  0  0  0  0  0  0  0  0
   46.2540   31.4560   44.1390 H   0  0  0  0  0  0  0  0  0  0  0  0
   45.2770   34.2750   47.1770 H   0  0  0  0  0  0  0  0  0  0  0  0
   45.0120   33.0390   49.6920 H   0  0  0  0  0  0  0  0  0  0  0  0
   45.2160   30.6140   50.6120 H   0  0  0  0  0  0  0  0  0  0  0  0
   45.8380   28.9980   48.5280 H   0  0  0  0  0  0  0  0  0  0  0  0
   46.2360   29.6310   45.7840 H   0  0  0  0  0  0  0  0  0  0  0  0
   47.6830   34.9000   41.5370 C   0  0  0  0  0  0  0  0  0  0  0  0
   48.6250   35.7510   41.3610 O   0  0  0  0  0  0  0  0  0  0  0  0
   47.4950   33.8250   40.6060 N   0  0  0  0  0  0  0  0  0  0  0  0
   48.5250   32.9720   40.0400 C   0  0  0  0  0  3  0  0  0  0  0  0
   49.5290   33.2240   40.4360 H   0  0  0  0  0  0  0  0  0  0  0  0
   48.5140   33.0840   38.5590 C   0  0  0  0  0  3  0  0  0  0  0  0
   48.6500   32.0580   38.1170 H   0  0  0  0  0  0  0  0  0  0  0  0
   47.3470   33.7320   38.0180 N   0  0  0  0  0  0  0  0  0  0  0  0
   47.2770   33.4360   37.0180 H   0  0  0  0  0  0  0  0  0  0  0  0
   46.1190   33.3410   38.6640 C   0  0  0  0  0  2  0  0  0  0  0  0
   46.1530   33.5160   40.1530 C   0  0  0  0  0  2  0  0  0  0  0  0
  1  6  1  0  0  0  0
  2  1  2  0  0  0  0
  2  3  1  0  0  0  0
  3  8  1  0  0  0  0
  3  4  2  0  0  0  0
  5  4  1  0  0  0  0
  5 10  1  0  0  0  0
  6  5  2  0  0  0  0
  7  2  1  0  0  0  0
  9 10  2  0  0  0  0
  9 17  1  0  0  0  0
 10 11  1  0  0  0  0
 11 19  1  0  0  0  0
 11 12  2  0  0  0  0
 12 13  1  0  0  0  0
 13 14  1  0  0  0  0
 13 20  1  0  0  0  0
 14 21  1  0  0  0  0
 15 22  1  0  0  0  0
 15 14  2  0  0  0  0
 16 12  1  0  0  0  0
 16 15  1  0  0  0  0
 17 16  2  0  0  0  0
 18  9  1  0  0  0  0
 23 17  1  0  0  0  0
 24  1  1  0  0  0  0
 25 24  2  0  0  0  0
 26 24  1  0  0  0  0
 27 28  1  0  0  0  0
 27 26  1  0  0  0  0
 29 27  1  0  0  0  0
 30 29  1  0  0  0  0
 31 29  1  0  0  0  0
 31 33  1  0  0  0  0
 32 31  1  0  0  0  0
 33 34  1  0  0  0  0
 34 26  1  0  0  0  0
M  END
>  <minimizedAffinity>
-6.34169388

>  <minimizedRMSD>
0.248599455

$$$$
