
 OpenBabel03242518503D

 23 24  0  0  0  0  0  0  0  0999 V2000
   44.5900   36.0560   44.4920 C   0  0  0  0  0  0  0  0  0  0  0  0
   45.3430   35.9400   43.2980 C   0  0  0  0  0  0  0  0  0  0  0  0
   46.1870   34.8150   43.2240 C   0  0  0  0  0  0  0  0  0  0  0  0
   46.2300   33.9430   44.2590 N   0  0  0  0  0  0  0  0  0  0  0  0
   45.4850   34.1050   45.3790 C   0  0  0  0  0  0  0  0  0  0  0  0
   44.6580   35.1770   45.4920 N   0  0  0  0  0  0  0  0  0  0  0  0
   43.9440   36.9190   44.5450 H   0  0  0  0  0  0  0  0  0  0  0  0
   45.2740   36.6650   42.5000 H   0  0  0  0  0  0  0  0  0  0  0  0
   45.5330   33.1510   46.4690 C   0  0  0  0  0  0  0  0  0  0  0  0
   44.9890   33.3950   47.5800 O   0  0  0  0  0  0  0  0  0  0  0  0
   46.2180   31.9090   46.2590 N   0  0  0  0  0  0  0  0  0  0  0  0
   47.1190   31.6500   45.1730 C   0  0  0  0  0  0  0  0  0  0  0  0
   46.6080   31.6770   44.1770 H   0  0  0  0  0  0  0  0  0  0  0  0
   47.6130   30.2190   45.3440 C   0  0  0  0  0  0  0  0  0  0  0  0
   46.8170   29.4900   45.1850 H   0  0  0  0  0  0  0  0  0  0  0  0
   48.2670   30.0450   46.6300 N   0  0  0  0  0  0  0  0  0  0  0  0
   49.0470   30.7450   46.6460 H   0  0  0  0  0  0  0  0  0  0  0  0
   47.3510   30.3920   47.7160 C   0  0  0  0  0  0  0  0  0  0  0  0
   46.0090   30.8190   47.1900 C   0  0  0  0  0  0  0  0  0  0  0  0
   46.9610   34.7000   41.9850 C   0  0  0  0  0  0  0  0  0  0  0  0
   47.7690   33.5610   42.0570 F   0  0  0  0  0  0  0  0  0  0  0  0
   47.8390   35.7690   41.9640 F   0  0  0  0  0  0  0  0  0  0  0  0
   46.1880   34.6160   40.8630 F   0  0  0  0  0  0  0  0  0  0  0  0
  1  7  1  0  0  0  0
  1  6  1  0  0  0  0
  2  1  2  0  0  0  0
  3  2  1  0  0  0  0
  3  4  2  0  0  0  0
  4  5  1  0  0  0  0
  5  6  2  0  0  0  0
  5  9  1  0  0  0  0
  8  2  1  0  0  0  0
  9 10  2  0  0  0  0
 11  9  1  0  0  0  0
 11 19  1  0  0  0  0
 12 14  1  0  0  0  0
 12 11  1  0  0  0  0
 13 12  1  0  0  0  0
 14 16  1  0  0  0  0
 15 14  1  0  0  0  0
 16 17  1  0  0  0  0
 16 18  1  0  0  0  0
 19 18  1  0  0  0  0
 20 21  1  0  0  0  0
 20  3  1  0  0  0  0
 22 20  1  0  0  0  0
 23 20  1  0  0  0  0
M  END
>  <minimizedAffinity>
-5.31231308

>  <minimizedRMSD>
0.532632887

$$$$
