
 OpenBabel03242518513D

 23 24  0  0  0  0  0  0  0  0999 V2000
   36.8890   27.8540   43.6800 C   0  0  0  0  0  0  0  0  0  0  0  0
   36.7920   26.7410   42.8100 C   0  0  0  0  0  0  0  0  0  0  0  0
   37.4900   26.8630   41.5930 C   0  0  0  0  0  0  0  0  0  0  0  0
   38.1870   27.9950   41.3330 N   0  0  0  0  0  0  0  0  0  0  0  0
   38.2450   29.0300   42.2060 C   0  0  0  0  0  0  0  0  0  0  0  0
   37.5850   28.9540   43.3910 N   0  0  0  0  0  0  0  0  0  0  0  0
   36.3520   27.7570   44.6110 H   0  0  0  0  0  0  0  0  0  0  0  0
   36.2200   25.8600   43.0630 H   0  0  0  0  0  0  0  0  0  0  0  0
   39.0110   30.2260   41.9160 C   0  0  0  0  0  0  0  0  0  0  0  0
   40.1190   30.4470   42.4760 O   0  0  0  0  0  0  0  0  0  0  0  0
   38.4810   31.1640   40.9710 N   0  0  0  0  0  0  0  0  0  0  0  0
   37.1210   31.1760   40.5120 C   0  0  0  0  0  3  0  0  0  0  0  0
   36.8570   30.2560   39.9310 H   0  0  0  0  0  0  0  0  0  0  0  0
   37.0020   32.3320   39.5270 C   0  0  0  0  0  3  0  0  0  0  0  0
   37.5700   32.1510   38.6120 H   0  0  0  0  0  0  0  0  0  0  0  0
   37.3610   33.5920   40.1560 N   0  0  0  0  0  0  0  0  0  0  0  0
   36.7150   33.6920   40.9750 H   0  0  0  0  0  0  0  0  0  0  0  0
   38.7230   33.5230   40.6850 C   0  0  0  0  0  2  0  0  0  0  0  0
   39.3510   32.1830   40.4200 C   0  0  0  0  0  2  0  0  0  0  0  0
   37.3860   25.7070   40.6990 C   0  0  0  0  0  0  0  0  0  0  0  0
   36.7080   26.0890   39.5370 F   0  0  0  0  0  0  0  0  0  0  0  0
   36.5550   24.7940   41.3230 F   0  0  0  0  0  0  0  0  0  0  0  0
   38.5950   25.1810   40.3450 F   0  0  0  0  0  0  0  0  0  0  0  0
  1  7  1  0  0  0  0
  2  8  1  0  0  0  0
  2  1  2  0  0  0  0
  3  2  1  0  0  0  0
  4  3  2  0  0  0  0
  4  5  1  0  0  0  0
  5  6  2  0  0  0  0
  6  1  1  0  0  0  0
  9  5  1  0  0  0  0
  9 10  2  0  0  0  0
 11  9  1  0  0  0  0
 12 11  1  0  0  0  0
 13 12  1  0  0  0  0
 14 16  1  0  0  0  0
 14 12  1  0  0  0  0
 15 14  1  0  0  0  0
 16 18  1  0  0  0  0
 16 17  1  0  0  0  0
 19 18  1  0  0  0  0
 19 11  1  0  0  0  0
 20 22  1  0  0  0  0
 20  3  1  0  0  0  0
 21 20  1  0  0  0  0
 23 20  1  0  0  0  0
M  END
>  <minimizedAffinity>
-5.21569824

$$$$

 OpenBabel03242518513D

 23 24  0  0  0  0  0  0  0  0999 V2000
   37.1630   27.4830   39.1780 C   0  0  0  0  0  0  0  0  0  0  0  0
   36.8330   26.9240   40.4370 C   0  0  0  0  0  0  0  0  0  0  0  0
   37.4240   27.5520   41.5490 C   0  0  0  0  0  0  0  0  0  0  0  0
   38.2440   28.6130   41.3610 N   0  0  0  0  0  0  0  0  0  0  0  0
   38.5240   29.1070   40.1300 C   0  0  0  0  0  0  0  0  0  0  0  0
   37.9750   28.5300   39.0300 N   0  0  0  0  0  0  0  0  0  0  0  0
   36.7090   26.9990   38.3270 H   0  0  0  0  0  0  0  0  0  0  0  0
   36.1740   26.0740   40.5340 H   0  0  0  0  0  0  0  0  0  0  0  0
   39.3910   30.2540   39.9510 C   0  0  0  0  0  0  0  0  0  0  0  0
   40.6460   30.1430   40.0010 O   0  0  0  0  0  0  0  0  0  0  0  0
   38.7890   31.5330   39.7130 N   0  0  0  0  0  0  0  0  0  0  0  0
   37.4050   31.8360   39.9360 C   0  0  0  0  0  3  0  0  0  0  0  0
   36.7260   31.2550   39.2610 H   0  0  0  0  0  0  0  0  0  0  0  0
   37.2080   33.2980   39.5560 C   0  0  0  0  0  3  0  0  0  0  0  0
   37.3280   33.4620   38.4830 H   0  0  0  0  0  0  0  0  0  0  0  0
   38.0740   34.1600   40.3430 N   0  0  0  0  0  0  0  0  0  0  0  0
   37.8300   33.9680   41.3440 H   0  0  0  0  0  0  0  0  0  0  0  0
   39.4740   33.7790   40.1580 C   0  0  0  0  0  2  0  0  0  0  0  0
   39.6080   32.6180   39.2110 C   0  0  0  0  0  2  0  0  0  0  0  0
   37.0770   26.9700   42.8480 C   0  0  0  0  0  0  0  0  0  0  0  0
   38.2010   27.0050   43.6800 F   0  0  0  0  0  0  0  0  0  0  0  0
   36.8280   25.6260   42.6290 F   0  0  0  0  0  0  0  0  0  0  0  0
   36.0490   27.6120   43.4780 F   0  0  0  0  0  0  0  0  0  0  0  0
  1  2  1  0  0  0  0
  2  8  1  0  0  0  0
  2  3  2  0  0  0  0
  3 20  1  0  0  0  0
  4  3  1  0  0  0  0
  5  4  2  0  0  0  0
  6  1  2  0  0  0  0
  6  5  1  0  0  0  0
  7  1  1  0  0  0  0
  9 10  2  0  0  0  0
  9  5  1  0  0  0  0
 11 12  1  0  0  0  0
 11  9  1  0  0  0  0
 13 12  1  0  0  0  0
 14 12  1  0  0  0  0
 14 16  1  0  0  0  0
 15 14  1  0  0  0  0
 16 17  1  0  0  0  0
 18 16  1  0  0  0  0
 19 11  1  0  0  0  0
 19 18  1  0  0  0  0
 20 23  1  0  0  0  0
 20 21  1  0  0  0  0
 22 20  1  0  0  0  0
M  END
>  <minimizedAffinity>
-5.03134584

$$$$

 OpenBabel03242518513D

 23 24  0  0  0  0  0  0  0  0999 V2000
   37.8040   28.5610   43.4540 C   0  0  0  0  0  0  0  0  0  0  0  0
   37.8040   27.1560   43.2730 C   0  0  0  0  0  0  0  0  0  0  0  0
   37.3590   26.7120   42.0130 C   0  0  0  0  0  0  0  0  0  0  0  0
   36.9700   27.6160   41.0830 N   0  0  0  0  0  0  0  0  0  0  0  0
   36.9920   28.9520   41.3140 C   0  0  0  0  0  0  0  0  0  0  0  0
   37.4130   29.4240   42.5160 N   0  0  0  0  0  0  0  0  0  0  0  0
   38.1450   28.8980   44.4220 H   0  0  0  0  0  0  0  0  0  0  0  0
   38.1230   26.4750   44.0470 H   0  0  0  0  0  0  0  0  0  0  0  0
   36.5880   29.9050   40.3000 C   0  0  0  0  0  0  0  0  0  0  0  0
   35.3710   30.1370   40.0650 O   0  0  0  0  0  0  0  0  0  0  0  0
   37.6080   30.5870   39.5590 N   0  0  0  0  0  0  0  0  0  0  0  0
   38.9870   30.1920   39.5190 C   0  0  0  0  0  3  0  0  0  0  0  0
   39.4850   30.2770   40.5180 H   0  0  0  0  0  0  0  0  0  0  0  0
   39.7030   31.1900   38.6170 C   0  0  0  0  0  3  0  0  0  0  0  0
   39.7430   32.1870   39.0600 H   0  0  0  0  0  0  0  0  0  0  0  0
   39.1150   31.2040   37.2880 N   0  0  0  0  0  0  0  0  0  0  0  0
   39.1890   30.2190   36.9370 H   0  0  0  0  0  0  0  0  0  0  0  0
   37.6920   31.5310   37.3660 C   0  0  0  0  0  2  0  0  0  0  0  0
   37.2560   31.7610   38.7870 C   0  0  0  0  0  2  0  0  0  0  0  0
   37.3640   25.2580   41.8300 C   0  0  0  0  0  0  0  0  0  0  0  0
   36.9020   24.9580   40.5450 F   0  0  0  0  0  0  0  0  0  0  0  0
   36.4090   24.7450   42.6900 F   0  0  0  0  0  0  0  0  0  0  0  0
   38.5960   24.6910   41.9940 F   0  0  0  0  0  0  0  0  0  0  0  0
  1  7  1  0  0  0  0
  2  1  1  0  0  0  0
  2  8  1  0  0  0  0
  3  2  2  0  0  0  0
  4  5  2  0  0  0  0
  4  3  1  0  0  0  0
  5  6  1  0  0  0  0
  6  1  2  0  0  0  0
  9  5  1  0  0  0  0
 10  9  2  0  0  0  0
 11  9  1  0  0  0  0
 12 11  1  0  0  0  0
 12 13  1  0  0  0  0
 14 15  1  0  0  0  0
 14 12  1  0  0  0  0
 16 18  1  0  0  0  0
 16 14  1  0  0  0  0
 17 16  1  0  0  0  0
 18 19  1  0  0  0  0
 19 11  1  0  0  0  0
 20 23  1  0  0  0  0
 20  3  1  0  0  0  0
 20 22  1  0  0  0  0
 21 20  1  0  0  0  0
M  END
>  <minimizedAffinity>
-4.97261143

$$$$

 OpenBabel03242518513D

 23 24  0  0  0  0  0  0  0  0999 V2000
   37.3690   27.5630   39.3110 C   0  0  0  0  0  0  0  0  0  0  0  0
   37.1860   26.8340   40.5120 C   0  0  0  0  0  0  0  0  0  0  0  0
   37.1450   27.6080   41.6870 C   0  0  0  0  0  0  0  0  0  0  0  0
   37.2800   28.9530   41.6070 N   0  0  0  0  0  0  0  0  0  0  0  0
   37.4520   29.5980   40.4270 C   0  0  0  0  0  0  0  0  0  0  0  0
   37.4980   28.8890   39.2690 N   0  0  0  0  0  0  0  0  0  0  0  0
   37.4000   26.9660   38.4120 H   0  0  0  0  0  0  0  0  0  0  0  0
   37.0850   25.7590   40.5230 H   0  0  0  0  0  0  0  0  0  0  0  0
   37.5770   31.0400   40.3600 C   0  0  0  0  0  0  0  0  0  0  0  0
   36.6080   31.7670   40.0090 O   0  0  0  0  0  0  0  0  0  0  0  0
   38.8360   31.6330   40.7060 N   0  0  0  0  0  0  0  0  0  0  0  0
   40.0710   30.9120   40.8190 C   0  0  0  0  0  3  0  0  0  0  0  0
   40.0560   30.1660   41.6530 H   0  0  0  0  0  0  0  0  0  0  0  0
   41.1400   31.9300   41.1980 C   0  0  0  0  0  3  0  0  0  0  0  0
   40.9900   32.3250   42.2050 H   0  0  0  0  0  0  0  0  0  0  0  0
   41.2290   32.9850   40.2020 N   0  0  0  0  0  0  0  0  0  0  0  0
   41.4370   32.5000   39.2970 H   0  0  0  0  0  0  0  0  0  0  0  0
   39.9360   33.6500   40.0500 C   0  0  0  0  0  2  0  0  0  0  0  0
   38.9000   33.0570   40.9650 C   0  0  0  0  0  2  0  0  0  0  0  0
   36.9540   26.8480   42.9250 C   0  0  0  0  0  0  0  0  0  0  0  0
   35.9290   27.4420   43.6700 F   0  0  0  0  0  0  0  0  0  0  0  0
   38.1000   27.0200   43.6800 F   0  0  0  0  0  0  0  0  0  0  0  0
   36.6370   25.5360   42.7170 F   0  0  0  0  0  0  0  0  0  0  0  0
  1  2  1  0  0  0  0
  2  8  1  0  0  0  0
  2  3  2  0  0  0  0
  3 20  1  0  0  0  0
  4  3  1  0  0  0  0
  5  4  2  0  0  0  0
  6  1  2  0  0  0  0
  6  5  1  0  0  0  0
  7  1  1  0  0  0  0
  9  5  1  0  0  0  0
  9 11  1  0  0  0  0
 10  9  2  0  0  0  0
 11 12  1  0  0  0  0
 11 19  1  0  0  0  0
 12 14  1  0  0  0  0
 12 13  1  0  0  0  0
 14 15  1  0  0  0  0
 16 14  1  0  0  0  0
 17 16  1  0  0  0  0
 18 16  1  0  0  0  0
 18 19  1  0  0  0  0
 20 21  1  0  0  0  0
 20 22  1  0  0  0  0
 23 20  1  0  0  0  0
M  END
>  <minimizedAffinity>
-4.83614731

$$$$

 OpenBabel03242518513D

 23 24  0  0  0  0  0  0  0  0999 V2000
   40.1310   27.3240   43.5100 C   0  0  0  0  0  0  0  0  0  0  0  0
   39.3390   26.1550   43.4030 C   0  0  0  0  0  0  0  0  0  0  0  0
   38.5610   26.0590   42.2330 C   0  0  0  0  0  0  0  0  0  0  0  0
   38.6130   27.0510   41.3130 N   0  0  0  0  0  0  0  0  0  0  0  0
   39.3930   28.1490   41.4680 C   0  0  0  0  0  0  0  0  0  0  0  0
   40.1580   28.2820   42.5830 N   0  0  0  0  0  0  0  0  0  0  0  0
   40.7260   27.3950   44.4080 H   0  0  0  0  0  0  0  0  0  0  0  0
   39.3320   25.3920   44.1670 H   0  0  0  0  0  0  0  0  0  0  0  0
   39.4460   29.1920   40.4640 C   0  0  0  0  0  0  0  0  0  0  0  0
   40.4550   29.3350   39.7200 O   0  0  0  0  0  0  0  0  0  0  0  0
   38.3200   30.0680   40.3280 N   0  0  0  0  0  0  0  0  0  0  0  0
   37.2700   30.2000   41.2970 C   0  0  0  0  0  3  0  0  0  0  0  0
   36.6770   29.2570   41.4160 H   0  0  0  0  0  0  0  0  0  0  0  0
   36.2940   31.2330   40.7480 C   0  0  0  0  0  3  0  0  0  0  0  0
   35.7690   30.8700   39.8620 H   0  0  0  0  0  0  0  0  0  0  0  0
   36.9600   32.5020   40.5100 N   0  0  0  0  0  0  0  0  0  0  0  0
   37.3680   32.7840   41.4340 H   0  0  0  0  0  0  0  0  0  0  0  0
   38.0750   32.3240   39.5810 C   0  0  0  0  0  2  0  0  0  0  0  0
   38.2030   30.8910   39.1410 C   0  0  0  0  0  2  0  0  0  0  0  0
   37.7450   24.8470   42.1270 C   0  0  0  0  0  0  0  0  0  0  0  0
   38.3800   23.8090   42.8170 F   0  0  0  0  0  0  0  0  0  0  0  0
   37.7660   24.4670   40.7970 F   0  0  0  0  0  0  0  0  0  0  0  0
   36.4830   24.9930   42.6260 F   0  0  0  0  0  0  0  0  0  0  0  0
  1  7  1  0  0  0  0
  2  1  1  0  0  0  0
  2  8  1  0  0  0  0
  3  2  2  0  0  0  0
  4  5  2  0  0  0  0
  4  3  1  0  0  0  0
  5  6  1  0  0  0  0
  6  1  2  0  0  0  0
  9  5  1  0  0  0  0
 10  9  2  0  0  0  0
 11  9  1  0  0  0  0
 11 12  1  0  0  0  0
 12 13  1  0  0  0  0
 14 12  1  0  0  0  0
 15 14  1  0  0  0  0
 16 14  1  0  0  0  0
 16 17  1  0  0  0  0
 18 16  1  0  0  0  0
 19 18  1  0  0  0  0
 19 11  1  0  0  0  0
 20  3  1  0  0  0  0
 20 23  1  0  0  0  0
 20 21  1  0  0  0  0
 22 20  1  0  0  0  0
M  END
>  <minimizedAffinity>
-4.76064253

$$$$

 OpenBabel03242518513D

 23 24  0  0  0  0  0  0  0  0999 V2000
   40.2060   28.1750   43.0900 C   0  0  0  0  0  0  0  0  0  0  0  0
   38.9290   27.5620   43.1180 C   0  0  0  0  0  0  0  0  0  0  0  0
   37.9260   28.2250   42.3860 C   0  0  0  0  0  0  0  0  0  0  0  0
   38.2260   29.3680   41.7240 N   0  0  0  0  0  0  0  0  0  0  0  0
   39.4690   29.9090   41.7330 C   0  0  0  0  0  0  0  0  0  0  0  0
   40.4660   29.3010   42.4270 N   0  0  0  0  0  0  0  0  0  0  0  0
   40.9730   27.6630   43.6520 H   0  0  0  0  0  0  0  0  0  0  0  0
   38.7400   26.6490   43.6630 H   0  0  0  0  0  0  0  0  0  0  0  0
   39.7730   31.1240   41.0040 C   0  0  0  0  0  0  0  0  0  0  0  0
   39.4320   32.2560   41.4430 O   0  0  0  0  0  0  0  0  0  0  0  0
   40.4780   31.0150   39.7600 N   0  0  0  0  0  0  0  0  0  0  0  0
   40.6430   29.7960   39.0220 C   0  0  0  0  0  3  0  0  0  0  0  0
   41.2560   29.0410   39.5760 H   0  0  0  0  0  0  0  0  0  0  0  0
   41.4460   30.1430   37.7750 C   0  0  0  0  0  3  0  0  0  0  0  0
   42.4720   30.4290   38.0150 H   0  0  0  0  0  0  0  0  0  0  0  0
   40.7660   31.1550   36.9840 N   0  0  0  0  0  0  0  0  0  0  0  0
   39.8250   30.7510   36.7580 H   0  0  0  0  0  0  0  0  0  0  0  0
   40.5400   32.3580   37.7850 C   0  0  0  0  0  2  0  0  0  0  0  0
   41.0780   32.2000   39.1800 C   0  0  0  0  0  2  0  0  0  0  0  0
   36.6080   27.5850   42.4180 C   0  0  0  0  0  0  0  0  0  0  0  0
   36.6930   26.3360   41.7940 F   0  0  0  0  0  0  0  0  0  0  0  0
   35.7790   28.3410   41.6090 F   0  0  0  0  0  0  0  0  0  0  0  0
   36.1160   27.4090   43.6790 F   0  0  0  0  0  0  0  0  0  0  0  0
  1  2  1  0  0  0  0
  1  7  1  0  0  0  0
  2  8  1  0  0  0  0
  3 20  1  0  0  0  0
  3  2  2  0  0  0  0
  4  5  2  0  0  0  0
  4  3  1  0  0  0  0
  5  6  1  0  0  0  0
  6  1  2  0  0  0  0
  9 10  2  0  0  0  0
  9  5  1  0  0  0  0
 11  9  1  0  0  0  0
 12 13  1  0  0  0  0
 12 11  1  0  0  0  0
 14 15  1  0  0  0  0
 14 12  1  0  0  0  0
 16 14  1  0  0  0  0
 16 18  1  0  0  0  0
 17 16  1  0  0  0  0
 18 19  1  0  0  0  0
 19 11  1  0  0  0  0
 20 23  1  0  0  0  0
 21 20  1  0  0  0  0
 22 20  1  0  0  0  0
M  END
>  <minimizedAffinity>
-4.74523067

$$$$

 OpenBabel03242518513D

 23 24  0  0  0  0  0  0  0  0999 V2000
   36.3150   27.3200   39.0800 C   0  0  0  0  0  0  0  0  0  0  0  0
   36.7320   26.3280   40.0010 C   0  0  0  0  0  0  0  0  0  0  0  0
   37.2790   26.8130   41.2040 C   0  0  0  0  0  0  0  0  0  0  0  0
   37.3720   28.1490   41.4050 N   0  0  0  0  0  0  0  0  0  0  0  0
   36.9550   29.0540   40.4860 C   0  0  0  0  0  0  0  0  0  0  0  0
   36.4220   28.6280   39.3110 N   0  0  0  0  0  0  0  0  0  0  0  0
   35.8970   26.9440   38.1580 H   0  0  0  0  0  0  0  0  0  0  0  0
   36.6380   25.2720   39.7920 H   0  0  0  0  0  0  0  0  0  0  0  0
   37.0470   30.4800   40.7270 C   0  0  0  0  0  0  0  0  0  0  0  0
   36.1010   31.1180   41.2650 O   0  0  0  0  0  0  0  0  0  0  0  0
   38.2480   31.1610   40.3400 N   0  0  0  0  0  0  0  0  0  0  0  0
   39.2440   30.6190   39.4620 C   0  0  0  0  0  3  0  0  0  0  0  0
   39.7490   29.7180   39.8930 H   0  0  0  0  0  0  0  0  0  0  0  0
   40.3330   31.6760   39.3280 C   0  0  0  0  0  3  0  0  0  0  0  0
   40.8790   31.8220   40.2620 H   0  0  0  0  0  0  0  0  0  0  0  0
   39.7880   32.9200   38.8100 N   0  0  0  0  0  0  0  0  0  0  0  0
   39.3500   32.6750   37.8910 H   0  0  0  0  0  0  0  0  0  0  0  0
   38.7210   33.4090   39.6830 C   0  0  0  0  0  2  0  0  0  0  0  0
   38.5040   32.4920   40.8550 C   0  0  0  0  0  2  0  0  0  0  0  0
   37.7070   25.7820   42.1520 C   0  0  0  0  0  0  0  0  0  0  0  0
   36.5880   25.0530   42.5680 F   0  0  0  0  0  0  0  0  0  0  0  0
   38.1540   26.4410   43.2830 F   0  0  0  0  0  0  0  0  0  0  0  0
   38.6260   24.9130   41.6370 F   0  0  0  0  0  0  0  0  0  0  0  0
  1  6  2  0  0  0  0
  1  2  1  0  0  0  0
  2  3  2  0  0  0  0
  3  4  1  0  0  0  0
  3 20  1  0  0  0  0
  5  9  1  0  0  0  0
  5  4  2  0  0  0  0
  6  5  1  0  0  0  0
  7  1  1  0  0  0  0
  8  2  1  0  0  0  0
  9 10  2  0  0  0  0
 11  9  1  0  0  0  0
 11 19  1  0  0  0  0
 12 13  1  0  0  0  0
 12 11  1  0  0  0  0
 14 12  1  0  0  0  0
 14 15  1  0  0  0  0
 16 14  1  0  0  0  0
 16 18  1  0  0  0  0
 17 16  1  0  0  0  0
 18 19  1  0  0  0  0
 20 21  1  0  0  0  0
 20 22  1  0  0  0  0
 23 20  1  0  0  0  0
M  END
>  <minimizedAffinity>
-4.56625748

$$$$

 OpenBabel03242518513D

 23 24  0  0  0  0  0  0  0  0999 V2000
   36.6530   27.3560   39.2850 C   0  0  0  0  0  0  0  0  0  0  0  0
   36.6390   26.8330   40.6010 C   0  0  0  0  0  0  0  0  0  0  0  0
   37.1960   27.6690   41.5870 C   0  0  0  0  0  0  0  0  0  0  0  0
   37.6960   28.8770   41.2350 N   0  0  0  0  0  0  0  0  0  0  0  0
   37.6820   29.3260   39.9560 C   0  0  0  0  0  0  0  0  0  0  0  0
   37.1540   28.5510   38.9740 N   0  0  0  0  0  0  0  0  0  0  0  0
   36.2250   26.7120   38.5310 H   0  0  0  0  0  0  0  0  0  0  0  0
   36.2290   25.8610   40.8300 H   0  0  0  0  0  0  0  0  0  0  0  0
   38.2070   30.6300   39.6030 C   0  0  0  0  0  0  0  0  0  0  0  0
   37.5550   31.6850   39.8360 O   0  0  0  0  0  0  0  0  0  0  0  0
   39.4940   30.7010   38.9760 N   0  0  0  0  0  0  0  0  0  0  0  0
   40.1780   29.5830   38.3930 C   0  0  0  0  0  3  0  0  0  0  0  0
   40.4540   28.8070   39.1510 H   0  0  0  0  0  0  0  0  0  0  0  0
   41.4970   30.1120   37.8460 C   0  0  0  0  0  3  0  0  0  0  0  0
   42.1740   30.4280   38.6430 H   0  0  0  0  0  0  0  0  0  0  0  0
   41.2710   31.1650   36.8700 N   0  0  0  0  0  0  0  0  0  0  0  0
   40.6700   30.7350   36.1270 H   0  0  0  0  0  0  0  0  0  0  0  0
   40.5040   32.2560   37.4700 C   0  0  0  0  0  2  0  0  0  0  0  0
   40.1800   31.9750   38.9110 C   0  0  0  0  0  2  0  0  0  0  0  0
   37.1770   27.1230   42.9470 C   0  0  0  0  0  0  0  0  0  0  0  0
   38.2890   27.6030   43.6470 F   0  0  0  0  0  0  0  0  0  0  0  0
   37.3780   25.7590   42.8320 F   0  0  0  0  0  0  0  0  0  0  0  0
   36.0490   27.4440   43.6480 F   0  0  0  0  0  0  0  0  0  0  0  0
  1  2  1  0  0  0  0
  2  8  1  0  0  0  0
  2  3  2  0  0  0  0
  3 20  1  0  0  0  0
  4  3  1  0  0  0  0
  5  4  2  0  0  0  0
  6  1  2  0  0  0  0
  6  5  1  0  0  0  0
  7  1  1  0  0  0  0
  9 10  2  0  0  0  0
  9  5  1  0  0  0  0
 11  9  1  0  0  0  0
 12 11  1  0  0  0  0
 12 13  1  0  0  0  0
 14 12  1  0  0  0  0
 14 15  1  0  0  0  0
 16 18  1  0  0  0  0
 16 14  1  0  0  0  0
 17 16  1  0  0  0  0
 18 19  1  0  0  0  0
 19 11  1  0  0  0  0
 20 21  1  0  0  0  0
 20 23  1  0  0  0  0
 22 20  1  0  0  0  0
M  END
>  <minimizedAffinity>
-4.56494951

$$$$

 OpenBabel03242518513D

 23 24  0  0  0  0  0  0  0  0999 V2000
   36.6020   30.2180   37.7180 C   0  0  0  0  0  0  0  0  0  0  0  0
   36.3600   29.1720   38.6420 C   0  0  0  0  0  0  0  0  0  0  0  0
   37.0680   29.2640   39.8550 C   0  0  0  0  0  0  0  0  0  0  0  0
   37.9080   30.3050   40.0620 N   0  0  0  0  0  0  0  0  0  0  0  0
   38.1010   31.2800   39.1400 C   0  0  0  0  0  0  0  0  0  0  0  0
   37.4380   31.2300   37.9560 N   0  0  0  0  0  0  0  0  0  0  0  0
   36.0580   30.1450   36.7880 H   0  0  0  0  0  0  0  0  0  0  0  0
   35.6790   28.3620   38.4280 H   0  0  0  0  0  0  0  0  0  0  0  0
   38.9920   32.3950   39.3880 C   0  0  0  0  0  0  0  0  0  0  0  0
   38.6650   33.3370   40.1620 O   0  0  0  0  0  0  0  0  0  0  0  0
   40.2660   32.4100   38.7320 N   0  0  0  0  0  0  0  0  0  0  0  0
   40.6170   31.5760   37.6180 C   0  0  0  0  0  3  0  0  0  0  0  0
   40.6310   30.4890   37.8850 H   0  0  0  0  0  0  0  0  0  0  0  0
   42.0520   31.9260   37.2440 C   0  0  0  0  0  3  0  0  0  0  0  0
   42.7620   31.6210   38.0150 H   0  0  0  0  0  0  0  0  0  0  0  0
   42.1740   33.3350   36.9120 N   0  0  0  0  0  0  0  0  0  0  0  0
   41.5010   33.4990   36.1250 H   0  0  0  0  0  0  0  0  0  0  0  0
   41.7340   34.1610   38.0360 C   0  0  0  0  0  2  0  0  0  0  0  0
   41.2930   33.3180   39.2000 C   0  0  0  0  0  2  0  0  0  0  0  0
   36.8100   28.1800   40.8070 C   0  0  0  0  0  0  0  0  0  0  0  0
   37.9810   27.9180   41.5260 F   0  0  0  0  0  0  0  0  0  0  0  0
   36.5790   27.0390   40.0590 F   0  0  0  0  0  0  0  0  0  0  0  0
   35.8080   28.4560   41.6920 F   0  0  0  0  0  0  0  0  0  0  0  0
  1  6  2  0  0  0  0
  1  2  1  0  0  0  0
  2  3  2  0  0  0  0
  3  4  1  0  0  0  0
  3 20  1  0  0  0  0
  5  9  1  0  0  0  0
  5  4  2  0  0  0  0
  6  5  1  0  0  0  0
  7  1  1  0  0  0  0
  8  2  1  0  0  0  0
  9 10  2  0  0  0  0
 11 19  1  0  0  0  0
 11  9  1  0  0  0  0
 12 13  1  0  0  0  0
 12 11  1  0  0  0  0
 14 12  1  0  0  0  0
 14 15  1  0  0  0  0
 16 14  1  0  0  0  0
 16 18  1  0  0  0  0
 17 16  1  0  0  0  0
 18 19  1  0  0  0  0
 20 21  1  0  0  0  0
 20 23  1  0  0  0  0
 22 20  1  0  0  0  0
M  END
>  <minimizedAffinity>
-4.49606991

$$$$
