
 OpenBabel03252501113D

 20 21  0  0  0  0  0  0  0  0999 V2000
   47.0710   34.6650   42.1120 C   0  0  0  0  0  0  0  0  0  0  0  0
   47.9660   35.4750   41.7750 O   0  0  0  0  0  0  0  0  0  0  0  0
   46.8560   33.5550   41.2450 N   0  0  0  0  0  0  0  0  0  0  0  0
   46.1740   33.7070   39.9910 C   0  0  0  0  0  3  0  0  0  0  0  0
   45.0790   33.7450   40.1160 H   0  0  0  0  0  0  0  0  0  0  0  0
   46.6120   32.6880   38.9750 C   0  0  0  0  0  3  0  0  0  0  0  0
   47.6470   32.9190   38.6500 H   0  0  0  0  0  0  0  0  0  0  0  0
   46.4850   31.3350   39.4210 N   0  0  0  0  0  0  0  0  0  0  0  0
   45.6440   30.8790   39.0350 H   0  0  0  0  0  0  0  0  0  0  0  0
   46.4920   31.1730   40.8480 C   0  0  0  0  0  2  0  0  0  0  0  0
   47.3000   32.2290   41.5640 C   0  0  0  0  0  2  0  0  0  0  0  0
   44.5590   35.9780   44.4710 C   0  0  0  0  0  0  0  0  0  0  0  0
   45.3580   35.8400   43.3280 C   0  0  0  0  0  0  0  0  0  0  0  0
   46.2610   34.7830   43.3000 C   0  0  0  0  0  0  0  0  0  0  0  0
   46.3220   33.9430   44.3710 N   0  0  0  0  0  0  0  0  0  0  0  0
   45.5280   34.1160   45.4540 C   0  0  0  0  0  0  0  0  0  0  0  0
   44.6390   35.1410   45.5070 N   0  0  0  0  0  0  0  0  0  0  0  0
   43.8370   36.7880   44.5430 H   0  0  0  0  0  0  0  0  0  0  0  0
   45.2120   36.5680   42.5550 H   0  0  0  0  0  0  0  0  0  0  0  0
   45.7550   33.3320   46.1710 H   0  0  0  0  0  0  0  0  0  0  0  0
  1 14  1  0  0  0  0
  2  1  2  0  0  0  0
  3 11  1  0  0  0  0
  3  1  1  0  0  0  0
  4  5  1  0  0  0  0
  4  3  1  0  0  0  0
  6  8  1  0  0  0  0
  6  4  1  0  0  0  0
  7  6  1  0  0  0  0
  8 10  1  0  0  0  0
  9  8  1  0  0  0  0
 10 11  1  0  0  0  0
 12 18  1  0  0  0  0
 12 17  1  0  0  0  0
 13 12  2  0  0  0  0
 14 13  1  0  0  0  0
 14 15  2  0  0  0  0
 15 16  1  0  0  0  0
 16 17  2  0  0  0  0
 16 20  1  0  0  0  0
 19 13  1  0  0  0  0
M  END
>  <minimizedAffinity>
-3.89336228

>  <minimizedRMSD>
0.808478355

$$$$
