
 OpenBabel03252501113D

 20 21  0  0  0  0  0  0  0  0999 V2000
   47.0160   34.7670   42.0340 C   0  0  0  0  0  0  0  0  0  0  0  0
   47.9670   35.5320   41.7500 O   0  0  0  0  0  0  0  0  0  0  0  0
   46.7100   33.7500   41.0820 N   0  0  0  0  0  0  0  0  0  0  0  0
   45.4190   33.6770   40.4570 C   0  0  0  0  0  3  0  0  0  0  0  0
   44.6680   33.2050   41.1120 H   0  0  0  0  0  0  0  0  0  0  0  0
   45.4810   33.0480   39.0920 C   0  0  0  0  0  3  0  0  0  0  0  0
   45.9840   33.7460   38.3920 H   0  0  0  0  0  0  0  0  0  0  0  0
   46.0900   31.7530   39.0790 N   0  0  0  0  0  0  0  0  0  0  0  0
   45.3860   30.9970   39.0360 H   0  0  0  0  0  0  0  0  0  0  0  0
   46.9830   31.5000   40.1750 C   0  0  0  0  0  2  0  0  0  0  0  0
   47.6580   32.7470   40.6910 C   0  0  0  0  0  2  0  0  0  0  0  0
   44.5860   36.0340   44.5000 C   0  0  0  0  0  0  0  0  0  0  0  0
   45.3630   35.9310   43.3390 C   0  0  0  0  0  0  0  0  0  0  0  0
   46.2280   34.8470   43.2390 C   0  0  0  0  0  0  0  0  0  0  0  0
   46.2750   33.9470   44.2620 N   0  0  0  0  0  0  0  0  0  0  0  0
   45.5030   34.0890   45.3650 C   0  0  0  0  0  0  0  0  0  0  0  0
   44.6520   35.1380   45.4880 N   0  0  0  0  0  0  0  0  0  0  0  0
   43.8940   36.8630   44.6280 H   0  0  0  0  0  0  0  0  0  0  0  0
   45.2320   36.7050   42.6090 H   0  0  0  0  0  0  0  0  0  0  0  0
   45.7130   33.2590   46.0340 H   0  0  0  0  0  0  0  0  0  0  0  0
  1 14  1  0  0  0  0
  2  1  2  0  0  0  0
  3  1  1  0  0  0  0
  4  3  1  0  0  0  0
  4  5  1  0  0  0  0
  6  4  1  0  0  0  0
  7  6  1  0  0  0  0
  8  6  1  0  0  0  0
  8 10  1  0  0  0  0
  9  8  1  0  0  0  0
 10 11  1  0  0  0  0
 11  3  1  0  0  0  0
 12 18  1  0  0  0  0
 12 17  1  0  0  0  0
 13 12  2  0  0  0  0
 14 13  1  0  0  0  0
 14 15  2  0  0  0  0
 15 16  1  0  0  0  0
 16 17  2  0  0  0  0
 16 20  1  0  0  0  0
 19 13  1  0  0  0  0
M  END
>  <minimizedAffinity>
-4.03574705

>  <minimizedRMSD>
0.503921092

$$$$
