
 OpenBabel03252502293D

 35 37  0  0  0  0  0  0  0  0999 V2000
   45.2170   34.3200   40.9320 C   0  0  0  0  0  0  0  0  0  0  0  0
   45.4990   34.9250   42.1470 C   0  0  0  0  0  0  0  0  0  0  0  0
   46.8290   35.1670   42.4830 C   0  0  0  0  0  0  0  0  0  0  0  0
   47.8220   34.8050   41.6110 C   0  0  0  0  0  0  0  0  0  0  0  0
   47.5640   34.2030   40.4000 C   0  0  0  0  0  0  0  0  0  0  0  0
   46.2220   33.9720   40.0900 C   0  0  0  0  0  0  0  0  0  0  0  0
   44.7160   35.2120   42.8350 H   0  0  0  0  0  0  0  0  0  0  0  0
   47.0030   35.6410   43.4390 H   0  0  0  0  0  0  0  0  0  0  0  0
   48.8550   34.9870   41.8600 H   0  0  0  0  0  0  0  0  0  0  0  0
   48.3340   33.9040   39.6890 H   0  0  0  0  0  0  0  0  0  0  0  0
   46.1950   32.1930   38.1730 C   0  0  0  0  0  0  0  0  0  0  0  0
   47.0980   31.4250   38.4850 O   0  0  0  0  0  0  0  0  0  0  0  0
   45.8220   33.3630   38.8780 N   0  0  0  0  0  0  0  0  0  0  0  0
   45.0700   33.9900   38.4730 H   0  0  0  0  0  0  0  0  0  0  0  0
   45.4680   31.8620   36.9920 N   0  0  0  0  0  0  0  0  0  0  0  0
   45.5050   32.8520   35.9340 C   0  0  0  0  0  3  0  0  0  0  0  0
   44.8550   33.7200   36.1600 H   0  0  0  0  0  0  0  0  0  0  0  0
   45.2520   32.2230   34.5890 C   0  0  0  0  0  3  0  0  0  0  0  0
   46.2020   31.6790   34.3090 H   0  0  0  0  0  0  0  0  0  0  0  0
   44.1090   31.3730   34.5200 N   0  0  0  0  0  0  0  0  0  0  0  0
   43.3690   31.7870   33.9110 H   0  0  0  0  0  0  0  0  0  0  0  0
   43.5360   31.1640   35.8290 C   0  0  0  0  0  2  0  0  0  0  0  0
   44.6950   30.6680   36.7040 C   0  0  0  0  0  2  0  0  0  0  0  0
   41.5590   34.7300   40.1070 C   0  0  0  0  0  0  0  0  0  0  0  0
   42.8920   35.0730   40.3670 C   0  0  0  0  0  0  0  0  0  0  0  0
   43.8060   34.0970   40.6450 C   0  0  0  0  0  0  0  0  0  0  0  0
   43.3450   32.8100   40.6520 N   0  0  0  0  0  0  0  0  0  0  0  0
   42.0650   32.4730   40.4040 C   0  0  0  0  0  0  0  0  0  0  0  0
   41.1630   33.4440   40.1280 N   0  0  0  0  0  0  0  0  0  0  0  0
   43.2330   36.1020   40.3550 H   0  0  0  0  0  0  0  0  0  0  0  0
   41.7660   31.4300   40.4250 H   0  0  0  0  0  0  0  0  0  0  0  0
   40.5630   35.7770   39.8050 C   0  0  0  0  0  0  0  0  0  0  0  0
   39.3410   35.1350   39.5530 F   0  0  0  0  0  0  0  0  0  0  0  0
   40.9380   36.3480   38.5970 F   0  0  0  0  0  0  0  0  0  0  0  0
   40.4150   36.6980   40.8060 F   0  0  0  0  0  0  0  0  0  0  0  0
  1  2  1  0  0  0  0
  2  3  2  0  0  0  0
  2  7  1  0  0  0  0
  3  8  1  0  0  0  0
  4  9  1  0  0  0  0
  4  3  1  0  0  0  0
  5  4  2  0  0  0  0
  6  5  1  0  0  0  0
  6  1  2  0  0  0  0
 10  5  1  0  0  0  0
 11 12  2  0  0  0  0
 11 13  1  0  0  0  0
 13  6  1  0  0  0  0
 14 13  1  0  0  0  0
 15 11  1  0  0  0  0
 16 17  1  0  0  0  0
 16 15  1  0  0  0  0
 18 16  1  0  0  0  0
 19 18  1  0  0  0  0
 20 18  1  0  0  0  0
 20 22  1  0  0  0  0
 21 20  1  0  0  0  0
 22 23  1  0  0  0  0
 23 15  1  0  0  0  0
 24 29  2  0  0  0  0
 24 25  1  0  0  0  0
 25 26  2  0  0  0  0
 26 27  1  0  0  0  0
 26  1  1  0  0  0  0
 28 31  1  0  0  0  0
 28 27  2  0  0  0  0
 29 28  1  0  0  0  0
 30 25  1  0  0  0  0
 32 24  1  0  0  0  0
 32 35  1  0  0  0  0
 33 32  1  0  0  0  0
 34 32  1  0  0  0  0
M  END
>  <minimizedAffinity>
-6.48574638

>  <minimizedRMSD>
0.661214054

$$$$
