
 OpenBabel03252501113D

 20 21  0  0  0  0  0  0  0  0999 V2000
   47.0740   34.6480   42.1580 C   0  0  0  0  0  0  0  0  0  0  0  0
   47.9910   35.4380   41.8350 O   0  0  0  0  0  0  0  0  0  0  0  0
   46.8450   33.5450   41.2850 N   0  0  0  0  0  0  0  0  0  0  0  0
   46.4810   33.7430   39.9090 C   0  0  0  0  0  3  0  0  0  0  0  0
   45.4100   33.9800   39.7940 H   0  0  0  0  0  0  0  0  0  0  0  0
   46.9270   32.6070   39.0320 C   0  0  0  0  0  3  0  0  0  0  0  0
   48.0320   32.6330   38.9340 H   0  0  0  0  0  0  0  0  0  0  0  0
   46.4620   31.3250   39.4640 N   0  0  0  0  0  0  0  0  0  0  0  0
   45.6500   31.0030   38.9120 H   0  0  0  0  0  0  0  0  0  0  0  0
   46.1390   31.2460   40.8610 C   0  0  0  0  0  2  0  0  0  0  0  0
   46.9600   32.1810   41.7150 C   0  0  0  0  0  2  0  0  0  0  0  0
   44.5330   35.9860   44.4700 C   0  0  0  0  0  0  0  0  0  0  0  0
   45.3430   35.8340   43.3380 C   0  0  0  0  0  0  0  0  0  0  0  0
   46.2520   34.7810   43.3350 C   0  0  0  0  0  0  0  0  0  0  0  0
   46.3060   33.9570   44.4210 N   0  0  0  0  0  0  0  0  0  0  0  0
   45.5000   34.1450   45.4930 C   0  0  0  0  0  0  0  0  0  0  0  0
   44.6060   35.1660   45.5200 N   0  0  0  0  0  0  0  0  0  0  0  0
   43.8060   36.7940   44.5220 H   0  0  0  0  0  0  0  0  0  0  0  0
   45.2020   36.5490   42.5520 H   0  0  0  0  0  0  0  0  0  0  0  0
   45.7230   33.3730   46.2240 H   0  0  0  0  0  0  0  0  0  0  0  0
  1 14  1  0  0  0  0
  2  1  2  0  0  0  0
  3 11  1  0  0  0  0
  3  1  1  0  0  0  0
  4  3  1  0  0  0  0
  5  4  1  0  0  0  0
  6  8  1  0  0  0  0
  6  4  1  0  0  0  0
  7  6  1  0  0  0  0
  8 10  1  0  0  0  0
  9  8  1  0  0  0  0
 10 11  1  0  0  0  0
 12 18  1  0  0  0  0
 12 17  1  0  0  0  0
 13 12  2  0  0  0  0
 14 13  1  0  0  0  0
 14 15  2  0  0  0  0
 15 16  1  0  0  0  0
 16 17  2  0  0  0  0
 16 20  1  0  0  0  0
 19 13  1  0  0  0  0
M  END
>  <minimizedAffinity>
-3.86395597

>  <minimizedRMSD>
0.804958165

$$$$
