
 OpenBabel03252504003D

 34 37  0  0  0  0  0  0  0  0999 V2000
   46.7900   34.8840   42.5820 C   0  0  0  0  0  0  0  0  0  0  0  0
   45.9120   35.9740   42.5560 C   0  0  0  0  0  0  0  0  0  0  0  0
   44.9590   36.0510   43.5710 C   0  0  0  0  0  0  0  0  0  0  0  0
   44.9330   35.0760   44.5240 N   0  0  0  0  0  0  0  0  0  0  0  0
   45.8050   34.0440   44.5030 C   0  0  0  0  0  0  0  0  0  0  0  0
   46.7320   33.9460   43.5350 N   0  0  0  0  0  0  0  0  0  0  0  0
   45.8950   36.7630   41.8290 H   0  0  0  0  0  0  0  0  0  0  0  0
   44.2420   36.8720   43.6150 H   0  0  0  0  0  0  0  0  0  0  0  0
   46.0280   31.6950   45.1480 C   0  0  0  0  0  0  0  0  0  0  0  0
   45.7760   32.9950   45.5270 C   0  0  0  0  0  0  0  0  0  0  0  0
   45.5080   33.2600   46.8450 C   0  0  0  0  0  0  0  0  0  0  0  0
   45.4860   32.2580   47.7880 C   0  0  0  0  0  0  0  0  0  0  0  0
   45.2630   32.2160   49.1040 N   0  0  0  0  0  0  0  0  0  0  0  0
   45.3670   30.9420   49.5550 C   0  0  0  0  0  0  0  0  0  0  0  0
   45.6720   30.1090   48.4890 C   0  0  0  0  0  0  0  0  0  0  0  0
   45.7440   30.9340   47.3950 C   0  0  0  0  0  0  0  0  0  0  0  0
   46.0160   30.6660   46.0670 C   0  0  0  0  0  0  0  0  0  0  0  0
   46.2460   31.4360   44.1170 H   0  0  0  0  0  0  0  0  0  0  0  0
   45.3100   34.2960   47.1290 H   0  0  0  0  0  0  0  0  0  0  0  0
   45.0400   33.0890   49.6580 H   0  0  0  0  0  0  0  0  0  0  0  0
   45.2210   30.6710   50.6010 H   0  0  0  0  0  0  0  0  0  0  0  0
   45.8190   29.0280   48.5310 H   0  0  0  0  0  0  0  0  0  0  0  0
   46.2140   29.6280   45.7810 H   0  0  0  0  0  0  0  0  0  0  0  0
   47.7430   34.8700   41.5090 C   0  0  0  0  0  0  0  0  0  0  0  0
   48.7060   35.7020   41.3580 O   0  0  0  0  0  0  0  0  0  0  0  0
   47.5450   33.8120   40.5600 N   0  0  0  0  0  0  0  0  0  0  0  0
   48.5660   33.1460   39.7700 C   0  0  0  0  0  3  0  0  0  0  0  0
   49.5780   33.5340   40.0000 H   0  0  0  0  0  0  0  0  0  0  0  0
   48.2690   33.3090   38.3240 C   0  0  0  0  0  3  0  0  0  0  0  0
   48.4680   32.3310   37.8010 H   0  0  0  0  0  0  0  0  0  0  0  0
   46.9420   33.7900   38.0360 N   0  0  0  0  0  0  0  0  0  0  0  0
   46.7350   33.5220   37.0480 H   0  0  0  0  0  0  0  0  0  0  0  0
   45.9210   33.1940   38.8610 C   0  0  0  0  0  2  0  0  0  0  0  0
   46.2020   33.3190   40.3290 C   0  0  0  0  0  2  0  0  0  0  0  0
  1  6  1  0  0  0  0
  2  1  2  0  0  0  0
  2  3  1  0  0  0  0
  3  8  1  0  0  0  0
  3  4  2  0  0  0  0
  5  4  1  0  0  0  0
  5 10  1  0  0  0  0
  6  5  2  0  0  0  0
  7  2  1  0  0  0  0
  9 10  2  0  0  0  0
  9 17  1  0  0  0  0
 10 11  1  0  0  0  0
 11 19  1  0  0  0  0
 11 12  2  0  0  0  0
 12 13  1  0  0  0  0
 13 14  1  0  0  0  0
 13 20  1  0  0  0  0
 14 21  1  0  0  0  0
 15 22  1  0  0  0  0
 15 14  2  0  0  0  0
 16 12  1  0  0  0  0
 16 15  1  0  0  0  0
 17 16  2  0  0  0  0
 18  9  1  0  0  0  0
 23 17  1  0  0  0  0
 24  1  1  0  0  0  0
 25 24  2  0  0  0  0
 26 24  1  0  0  0  0
 27 28  1  0  0  0  0
 27 26  1  0  0  0  0
 29 27  1  0  0  0  0
 30 29  1  0  0  0  0
 31 29  1  0  0  0  0
 31 33  1  0  0  0  0
 32 31  1  0  0  0  0
 33 34  1  0  0  0  0
 34 26  1  0  0  0  0
M  END
>  <minimizedAffinity>
-6.44833851

>  <minimizedRMSD>
0.214446679

$$$$
