
 OpenBabel03252508513D

 28 30  0  0  0  0  0  0  0  0999 V2000
   45.9620   34.1750   41.0350 C   0  0  0  0  0  0  0  0  0  0  0  0
   46.5460   34.8140   42.1340 C   0  0  0  0  0  0  0  0  0  0  0  0
   47.8910   35.1980   42.0160 C   0  0  0  0  0  0  0  0  0  0  0  0
   48.5240   34.9170   40.8350 N   0  0  0  0  0  0  0  0  0  0  0  0
   47.9260   34.3060   39.8180 C   0  0  0  0  0  0  0  0  0  0  0  0
   46.6370   33.9240   39.8980 N   0  0  0  0  0  0  0  0  0  0  0  0
   48.3660   35.6950   42.8540 H   0  0  0  0  0  0  0  0  0  0  0  0
   48.5120   34.1340   38.9400 H   0  0  0  0  0  0  0  0  0  0  0  0
   45.7640   35.0540   43.3330 C   0  0  0  0  0  0  0  0  0  0  0  0
   45.0770   36.2290   43.5600 C   0  0  0  0  0  0  0  0  0  0  0  0
   44.4920   36.0150   44.7970 C   0  0  0  0  0  0  0  0  0  0  0  0
   44.8060   34.7840   45.2890 N   0  0  0  0  0  0  0  0  0  0  0  0
   45.5710   34.2360   44.3850 N   0  0  0  0  0  0  0  0  0  0  0  0
   44.9820   37.1260   42.9590 H   0  0  0  0  0  0  0  0  0  0  0  0
   43.8570   36.7480   45.3090 H   0  0  0  0  0  0  0  0  0  0  0  0
   44.4510   34.4530   46.2140 H   0  0  0  0  0  0  0  0  0  0  0  0
   44.6360   33.7930   41.1410 O   0  0  0  0  0  0  0  0  0  0  0  0
   43.5660   34.4540   40.5970 C   0  0  0  0  0  0  0  0  0  0  0  0
   43.3060   35.6990   40.6330 O   0  0  0  0  0  0  0  0  0  0  0  0
   42.4240   33.9830   39.8380 N   0  0  0  0  0  0  0  0  0  0  0  0
   41.1230   34.2350   40.4190 C   0  0  0  0  0  3  0  0  0  0  0  0
   40.7200   35.1120   39.8310 H   0  0  0  0  0  0  0  0  0  0  0  0
   40.2630   33.0370   40.0800 C   0  0  0  0  0  3  0  0  0  0  0  0
   39.6290   32.8300   40.9710 H   0  0  0  0  0  0  0  0  0  0  0  0
   41.0330   31.8340   39.8660 N   0  0  0  0  0  0  0  0  0  0  0  0
   40.3560   31.0680   39.6880 H   0  0  0  0  0  0  0  0  0  0  0  0
   41.9010   31.9310   38.7100 C   0  0  0  0  0  2  0  0  0  0  0  0
   42.5110   33.2950   38.5630 C   0  0  0  0  0  2  0  0  0  0  0  0
  1 17  1  0  0  0  0
  1  2  1  0  0  0  0
  2  9  1  0  0  0  0
  3  2  2  0  0  0  0
  3  7  1  0  0  0  0
  4  3  1  0  0  0  0
  5  6  1  0  0  0  0
  5  4  2  0  0  0  0
  6  1  2  0  0  0  0
  8  5  1  0  0  0  0
  9 10  1  0  0  0  0
  9 13  2  0  0  0  0
 10 11  2  0  0  0  0
 11 12  1  0  0  0  0
 11 15  1  0  0  0  0
 12 16  1  0  0  0  0
 13 12  1  0  0  0  0
 14 10  1  0  0  0  0
 18 19  2  0  0  0  0
 18 17  1  0  0  0  0
 20 21  1  0  0  0  0
 20 18  1  0  0  0  0
 22 21  1  0  0  0  0
 23 21  1  0  0  0  0
 23 24  1  0  0  0  0
 25 23  1  0  0  0  0
 26 25  1  0  0  0  0
 27 25  1  0  0  0  0
 28 27  1  0  0  0  0
 28 20  1  0  0  0  0
M  END
>  <minimizedAffinity>
-5.3446331

>  <minimizedRMSD>
0.51232934

$$$$
