
 OpenBabel03252507173D

 29 31  0  0  0  0  0  0  0  0999 V2000
   39.5890   32.1900   40.9690 C   0  0  0  0  0  0  0  0  0  0  0  0
   38.6510   31.2160   40.5490 C   0  0  0  0  0  0  0  0  0  0  0  0
   37.5170   31.6580   39.9100 C   0  0  0  0  0  0  0  0  0  0  0  0
   37.3370   32.9810   39.7050 N   0  0  0  0  0  0  0  0  0  0  0  0
   38.2530   33.9080   40.1180 C   0  0  0  0  0  0  0  0  0  0  0  0
   39.3550   33.4830   40.7390 N   0  0  0  0  0  0  0  0  0  0  0  0
   40.5040   31.8820   41.4810 H   0  0  0  0  0  0  0  0  0  0  0  0
   37.9600   34.9250   39.8790 H   0  0  0  0  0  0  0  0  0  0  0  0
   38.9050   29.8400   40.7970 C   0  0  0  0  0  0  0  0  0  0  0  0
   39.3700   29.1510   39.8530 O   0  0  0  0  0  0  0  0  0  0  0  0
   38.7120   29.0800   41.9880 N   0  0  0  0  0  0  0  0  0  0  0  0
   39.6110   27.9600   42.2050 C   0  0  0  0  0  3  0  0  0  0  0  0
   40.0160   28.0930   43.2510 H   0  0  0  0  0  0  0  0  0  0  0  0
   38.8480   26.6630   42.2380 C   0  0  0  0  0  3  0  0  0  0  0  0
   39.4380   25.9480   42.8680 H   0  0  0  0  0  0  0  0  0  0  0  0
   37.5540   26.8210   42.8130 N   0  0  0  0  0  0  0  0  0  0  0  0
   36.7600   26.5710   42.2190 H   0  0  0  0  0  0  0  0  0  0  0  0
   37.3840   27.9450   43.6800 C   0  0  0  0  0  2  0  0  0  0  0  0
   37.7300   29.2590   43.0440 C   0  0  0  0  0  2  0  0  0  0  0  0
   36.5350   30.6680   39.4670 C   0  0  0  0  0  0  0  0  0  0  0  0
   36.5100   30.2750   38.1500 C   0  0  0  0  0  0  0  0  0  0  0  0
   35.5790   29.3450   37.7580 C   0  0  0  0  0  0  0  0  0  0  0  0
   34.6480   28.7740   38.6390 C   0  0  0  0  0  0  0  0  0  0  0  0
   34.7320   29.2180   39.9500 C   0  0  0  0  0  0  0  0  0  0  0  0
   35.6530   30.1330   40.3240 N   0  0  0  0  0  0  0  0  0  0  0  0
   37.2060   30.6820   37.4230 H   0  0  0  0  0  0  0  0  0  0  0  0
   35.5190   29.0040   36.7340 H   0  0  0  0  0  0  0  0  0  0  0  0
   33.9110   28.0490   38.3700 H   0  0  0  0  0  0  0  0  0  0  0  0
   34.0650   28.8520   40.7360 H   0  0  0  0  0  0  0  0  0  0  0  0
  1  7  1  0  0  0  0
  2  9  1  0  0  0  0
  2  1  2  0  0  0  0
  3  2  1  0  0  0  0
  4  3  2  0  0  0  0
  4  5  1  0  0  0  0
  5  6  2  0  0  0  0
  6  1  1  0  0  0  0
  8  5  1  0  0  0  0
  9 11  1  0  0  0  0
 10  9  2  0  0  0  0
 11 12  1  0  0  0  0
 11 19  1  0  0  0  0
 12 14  1  0  0  0  0
 12 13  1  0  0  0  0
 14 16  1  0  0  0  0
 14 15  1  0  0  0  0
 16 18  1  0  0  0  0
 17 16  1  0  0  0  0
 19 18  1  0  0  0  0
 20  3  1  0  0  0  0
 20 25  1  0  0  0  0
 21 20  2  0  0  0  0
 22 21  1  0  0  0  0
 22 23  2  0  0  0  0
 23 24  1  0  0  0  0
 24 25  2  0  0  0  0
 24 29  1  0  0  0  0
 26 21  1  0  0  0  0
 27 22  1  0  0  0  0
 28 23  1  0  0  0  0
M  END
>  <minimizedAffinity>
-5.32131052

$$$$

 OpenBabel03252507173D

 29 31  0  0  0  0  0  0  0  0999 V2000
   35.7530   29.5570   38.0790 C   0  0  0  0  0  0  0  0  0  0  0  0
   36.4190   29.4050   39.3180 C   0  0  0  0  0  0  0  0  0  0  0  0
   36.5410   28.1330   39.8230 C   0  0  0  0  0  0  0  0  0  0  0  0
   36.0320   27.0870   39.1360 N   0  0  0  0  0  0  0  0  0  0  0  0
   35.3910   27.2520   37.9400 C   0  0  0  0  0  0  0  0  0  0  0  0
   35.2700   28.4860   37.4460 N   0  0  0  0  0  0  0  0  0  0  0  0
   35.6330   30.5510   37.6410 H   0  0  0  0  0  0  0  0  0  0  0  0
   35.0410   26.3170   37.5170 H   0  0  0  0  0  0  0  0  0  0  0  0
   36.9310   30.5490   39.9880 C   0  0  0  0  0  0  0  0  0  0  0  0
   36.1870   31.1180   40.8260 O   0  0  0  0  0  0  0  0  0  0  0  0
   38.2030   31.1830   39.8630 N   0  0  0  0  0  0  0  0  0  0  0  0
   38.7210   31.8540   41.0420 C   0  0  0  0  0  3  0  0  0  0  0  0
   39.7700   31.4590   41.1800 H   0  0  0  0  0  0  0  0  0  0  0  0
   38.8820   33.3280   40.7890 C   0  0  0  0  0  3  0  0  0  0  0  0
   39.6950   33.6940   41.4680 H   0  0  0  0  0  0  0  0  0  0  0  0
   39.2550   33.5990   39.4410 N   0  0  0  0  0  0  0  0  0  0  0  0
   38.6190   34.1940   38.9050 H   0  0  0  0  0  0  0  0  0  0  0  0
   39.8860   32.5270   38.7350 C   0  0  0  0  0  2  0  0  0  0  0  0
   39.0810   31.2620   38.7080 C   0  0  0  0  0  2  0  0  0  0  0  0
   37.2290   27.9530   41.1030 C   0  0  0  0  0  0  0  0  0  0  0  0
   36.4960   27.8550   42.2620 C   0  0  0  0  0  0  0  0  0  0  0  0
   37.1640   27.6860   43.4490 C   0  0  0  0  0  0  0  0  0  0  0  0
   38.5620   27.6100   43.5400 C   0  0  0  0  0  0  0  0  0  0  0  0
   39.2340   27.7180   42.3320 C   0  0  0  0  0  0  0  0  0  0  0  0
   38.5670   27.8830   41.1690 N   0  0  0  0  0  0  0  0  0  0  0  0
   35.4120   27.9060   42.2540 H   0  0  0  0  0  0  0  0  0  0  0  0
   36.6330   27.6040   44.3890 H   0  0  0  0  0  0  0  0  0  0  0  0
   39.1140   27.4800   44.4450 H   0  0  0  0  0  0  0  0  0  0  0  0
   40.3250   27.6740   42.2620 H   0  0  0  0  0  0  0  0  0  0  0  0
  1  2  1  0  0  0  0
  2  3  2  0  0  0  0
  2  9  1  0  0  0  0
  3 20  1  0  0  0  0
  4  3  1  0  0  0  0
  5  4  2  0  0  0  0
  6  5  1  0  0  0  0
  6  1  2  0  0  0  0
  7  1  1  0  0  0  0
  8  5  1  0  0  0  0
  9 10  2  0  0  0  0
 11  9  1  0  0  0  0
 11 12  1  0  0  0  0
 12 13  1  0  0  0  0
 14 12  1  0  0  0  0
 14 15  1  0  0  0  0
 16 14  1  0  0  0  0
 17 16  1  0  0  0  0
 18 16  1  0  0  0  0
 19 18  1  0  0  0  0
 19 11  1  0  0  0  0
 20 25  2  0  0  0  0
 20 21  1  0  0  0  0
 21 22  2  0  0  0  0
 22 23  1  0  0  0  0
 22 27  1  0  0  0  0
 23 28  1  0  0  0  0
 24 23  2  0  0  0  0
 25 24  1  0  0  0  0
 26 21  1  0  0  0  0
 29 24  1  0  0  0  0
M  END
>  <minimizedAffinity>
-5.29074001

$$$$

 OpenBabel03252507173D

 29 31  0  0  0  0  0  0  0  0999 V2000
   35.3380   27.5520   37.9960 C   0  0  0  0  0  0  0  0  0  0  0  0
   36.0590   27.9080   39.1610 C   0  0  0  0  0  0  0  0  0  0  0  0
   36.6170   26.8910   39.8990 C   0  0  0  0  0  0  0  0  0  0  0  0
   36.4640   25.6100   39.4980 N   0  0  0  0  0  0  0  0  0  0  0  0
   35.7630   25.2850   38.3710 C   0  0  0  0  0  0  0  0  0  0  0  0
   35.2190   26.2690   37.6510 N   0  0  0  0  0  0  0  0  0  0  0  0
   34.8780   28.3290   37.3800 H   0  0  0  0  0  0  0  0  0  0  0  0
   35.7320   24.2170   38.1880 H   0  0  0  0  0  0  0  0  0  0  0  0
   36.1820   29.2760   39.5240 C   0  0  0  0  0  0  0  0  0  0  0  0
   35.2570   29.7860   40.2070 O   0  0  0  0  0  0  0  0  0  0  0  0
   37.2240   30.2050   39.2320 N   0  0  0  0  0  0  0  0  0  0  0  0
   37.4570   31.2580   40.2040 C   0  0  0  0  0  3  0  0  0  0  0  0
   38.5660   31.2310   40.4210 H   0  0  0  0  0  0  0  0  0  0  0  0
   37.2050   32.6110   39.5960 C   0  0  0  0  0  3  0  0  0  0  0  0
   37.8370   33.3480   40.1550 H   0  0  0  0  0  0  0  0  0  0  0  0
   37.5640   32.6510   38.2180 N   0  0  0  0  0  0  0  0  0  0  0  0
   36.8180   32.8890   37.5620 H   0  0  0  0  0  0  0  0  0  0  0  0
   38.5160   31.6740   37.7880 C   0  0  0  0  0  2  0  0  0  0  0  0
   38.1090   30.2610   38.0810 C   0  0  0  0  0  2  0  0  0  0  0  0
   37.3690   27.2370   41.1070 C   0  0  0  0  0  0  0  0  0  0  0  0
   36.7310   27.2510   42.3250 C   0  0  0  0  0  0  0  0  0  0  0  0
   37.4580   27.5780   43.4430 C   0  0  0  0  0  0  0  0  0  0  0  0
   38.8230   27.9010   43.4040 C   0  0  0  0  0  0  0  0  0  0  0  0
   39.3980   27.8680   42.1420 C   0  0  0  0  0  0  0  0  0  0  0  0
   38.6730   27.5430   41.0490 N   0  0  0  0  0  0  0  0  0  0  0  0
   35.6780   27.0090   42.4170 H   0  0  0  0  0  0  0  0  0  0  0  0
   37.0030   27.6030   44.4240 H   0  0  0  0  0  0  0  0  0  0  0  0
   39.4180   28.1600   44.2520 H   0  0  0  0  0  0  0  0  0  0  0  0
   40.4530   28.0980   41.9730 H   0  0  0  0  0  0  0  0  0  0  0  0
  1  2  1  0  0  0  0
  2  9  1  0  0  0  0
  2  3  2  0  0  0  0
  3 20  1  0  0  0  0
  4  3  1  0  0  0  0
  5  4  2  0  0  0  0
  6  1  2  0  0  0  0
  6  5  1  0  0  0  0
  7  1  1  0  0  0  0
  8  5  1  0  0  0  0
  9 10  2  0  0  0  0
 11  9  1  0  0  0  0
 11 12  1  0  0  0  0
 12 13  1  0  0  0  0
 14 15  1  0  0  0  0
 14 12  1  0  0  0  0
 16 14  1  0  0  0  0
 17 16  1  0  0  0  0
 18 19  1  0  0  0  0
 18 16  1  0  0  0  0
 19 11  1  0  0  0  0
 20 21  1  0  0  0  0
 21 26  1  0  0  0  0
 21 22  2  0  0  0  0
 22 27  1  0  0  0  0
 23 22  1  0  0  0  0
 23 28  1  0  0  0  0
 24 23  2  0  0  0  0
 25 20  2  0  0  0  0
 25 24  1  0  0  0  0
 29 24  1  0  0  0  0
M  END
>  <minimizedAffinity>
-5.05753326

$$$$

 OpenBabel03252507173D

 29 31  0  0  0  0  0  0  0  0999 V2000
   39.7130   32.2940   38.7460 C   0  0  0  0  0  0  0  0  0  0  0  0
   39.0720   31.1410   39.2590 C   0  0  0  0  0  0  0  0  0  0  0  0
   38.5050   31.2300   40.5080 C   0  0  0  0  0  0  0  0  0  0  0  0
   38.5740   32.3930   41.1930 N   0  0  0  0  0  0  0  0  0  0  0  0
   39.1970   33.4970   40.6820 C   0  0  0  0  0  0  0  0  0  0  0  0
   39.7500   33.4140   39.4690 N   0  0  0  0  0  0  0  0  0  0  0  0
   40.1770   32.2660   37.7570 H   0  0  0  0  0  0  0  0  0  0  0  0
   39.1660   34.3470   41.3540 H   0  0  0  0  0  0  0  0  0  0  0  0
   39.0360   29.9500   38.4840 C   0  0  0  0  0  0  0  0  0  0  0  0
   40.0430   29.1980   38.5200 O   0  0  0  0  0  0  0  0  0  0  0  0
   38.0040   29.4470   37.6390 N   0  0  0  0  0  0  0  0  0  0  0  0
   37.9080   28.0030   37.5080 C   0  0  0  0  0  3  0  0  0  0  0  0
   36.8270   27.7500   37.7170 H   0  0  0  0  0  0  0  0  0  0  0  0
   38.1470   27.5790   36.0840 C   0  0  0  0  0  3  0  0  0  0  0  0
   37.6010   26.6120   35.9310 H   0  0  0  0  0  0  0  0  0  0  0  0
   37.6520   28.5370   35.1530 N   0  0  0  0  0  0  0  0  0  0  0  0
   38.3360   28.9390   34.5090 H   0  0  0  0  0  0  0  0  0  0  0  0
   36.6270   29.4110   35.6350 C   0  0  0  0  0  2  0  0  0  0  0  0
   37.0100   30.1740   36.8680 C   0  0  0  0  0  2  0  0  0  0  0  0
   37.8360   30.0500   41.0570 C   0  0  0  0  0  0  0  0  0  0  0  0
   36.4920   29.8630   40.8350 C   0  0  0  0  0  0  0  0  0  0  0  0
   35.8880   28.7480   41.3610 C   0  0  0  0  0  0  0  0  0  0  0  0
   36.5760   27.7870   42.1170 C   0  0  0  0  0  0  0  0  0  0  0  0
   37.9270   28.0420   42.3000 C   0  0  0  0  0  0  0  0  0  0  0  0
   38.5110   29.1420   41.7770 N   0  0  0  0  0  0  0  0  0  0  0  0
   35.9090   30.5730   40.2580 H   0  0  0  0  0  0  0  0  0  0  0  0
   34.8340   28.5560   41.2150 H   0  0  0  0  0  0  0  0  0  0  0  0
   36.1390   26.9090   42.5400 H   0  0  0  0  0  0  0  0  0  0  0  0
   38.5780   27.3710   42.8690 H   0  0  0  0  0  0  0  0  0  0  0  0
  1  2  2  0  0  0  0
  1  6  1  0  0  0  0
  2  3  1  0  0  0  0
  3 20  1  0  0  0  0
  3  4  2  0  0  0  0
  5  4  1  0  0  0  0
  5  8  1  0  0  0  0
  6  5  2  0  0  0  0
  7  1  1  0  0  0  0
  9 10  2  0  0  0  0
  9  2  1  0  0  0  0
 11  9  1  0  0  0  0
 12 11  1  0  0  0  0
 12 13  1  0  0  0  0
 14 12  1  0  0  0  0
 15 14  1  0  0  0  0
 16 18  1  0  0  0  0
 16 14  1  0  0  0  0
 17 16  1  0  0  0  0
 18 19  1  0  0  0  0
 19 11  1  0  0  0  0
 20 25  1  0  0  0  0
 21 20  2  0  0  0  0
 21 22  1  0  0  0  0
 22 23  2  0  0  0  0
 23 24  1  0  0  0  0
 23 28  1  0  0  0  0
 24 29  1  0  0  0  0
 25 24  2  0  0  0  0
 26 21  1  0  0  0  0
 27 22  1  0  0  0  0
M  END
>  <minimizedAffinity>
-4.90842152

$$$$

 OpenBabel03252507173D

 29 31  0  0  0  0  0  0  0  0999 V2000
   35.6340   28.1660   38.1140 C   0  0  0  0  0  0  0  0  0  0  0  0
   36.3310   29.1780   38.8160 C   0  0  0  0  0  0  0  0  0  0  0  0
   36.9230   30.1740   38.0760 C   0  0  0  0  0  0  0  0  0  0  0  0
   36.8220   30.1580   36.7290 N   0  0  0  0  0  0  0  0  0  0  0  0
   36.1460   29.1720   36.0670 C   0  0  0  0  0  0  0  0  0  0  0  0
   35.5700   28.2020   36.7820 N   0  0  0  0  0  0  0  0  0  0  0  0
   35.1490   27.3550   38.6630 H   0  0  0  0  0  0  0  0  0  0  0  0
   36.1590   29.3020   34.9910 H   0  0  0  0  0  0  0  0  0  0  0  0
   36.3970   29.1350   40.2350 C   0  0  0  0  0  0  0  0  0  0  0  0
   35.5610   29.8160   40.8810 O   0  0  0  0  0  0  0  0  0  0  0  0
   37.2900   28.4150   41.0820 N   0  0  0  0  0  0  0  0  0  0  0  0
   36.7790   28.0050   42.3780 C   0  0  0  0  0  3  0  0  0  0  0  0
   37.0080   26.9010   42.4590 H   0  0  0  0  0  0  0  0  0  0  0  0
   37.5600   28.6540   43.4890 C   0  0  0  0  0  3  0  0  0  0  0  0
   37.4910   27.9780   44.3800 H   0  0  0  0  0  0  0  0  0  0  0  0
   38.9320   28.8230   43.1470 N   0  0  0  0  0  0  0  0  0  0  0  0
   39.2870   29.7820   43.1570 H   0  0  0  0  0  0  0  0  0  0  0  0
   39.4380   27.9570   42.1260 C   0  0  0  0  0  2  0  0  0  0  0  0
   38.6680   28.0200   40.8410 C   0  0  0  0  0  2  0  0  0  0  0  0
   37.6480   31.2320   38.7830 C   0  0  0  0  0  0  0  0  0  0  0  0
   37.0140   32.4180   39.0680 C   0  0  0  0  0  0  0  0  0  0  0  0
   37.7150   33.3950   39.7310 C   0  0  0  0  0  0  0  0  0  0  0  0
   39.0510   33.2420   40.1330 C   0  0  0  0  0  0  0  0  0  0  0  0
   39.6240   32.0210   39.8110 C   0  0  0  0  0  0  0  0  0  0  0  0
   38.9240   31.0670   39.1590 N   0  0  0  0  0  0  0  0  0  0  0  0
   35.9820   32.5940   38.7820 H   0  0  0  0  0  0  0  0  0  0  0  0
   37.2620   34.3450   39.9780 H   0  0  0  0  0  0  0  0  0  0  0  0
   39.6260   33.9790   40.6500 H   0  0  0  0  0  0  0  0  0  0  0  0
   40.6580   31.7730   40.0680 H   0  0  0  0  0  0  0  0  0  0  0  0
  1  7  1  0  0  0  0
  1  2  1  0  0  0  0
  2  9  1  0  0  0  0
  3 20  1  0  0  0  0
  3  2  2  0  0  0  0
  4  3  1  0  0  0  0
  5  4  2  0  0  0  0
  5  6  1  0  0  0  0
  6  1  2  0  0  0  0
  8  5  1  0  0  0  0
  9 10  2  0  0  0  0
  9 11  1  0  0  0  0
 11 12  1  0  0  0  0
 12 13  1  0  0  0  0
 12 14  1  0  0  0  0
 14 15  1  0  0  0  0
 16 17  1  0  0  0  0
 16 14  1  0  0  0  0
 18 16  1  0  0  0  0
 19 11  1  0  0  0  0
 19 18  1  0  0  0  0
 20 21  2  0  0  0  0
 20 25  1  0  0  0  0
 21 22  1  0  0  0  0
 22 27  1  0  0  0  0
 22 23  2  0  0  0  0
 23 28  1  0  0  0  0
 24 29  1  0  0  0  0
 24 23  1  0  0  0  0
 25 24  2  0  0  0  0
 26 21  1  0  0  0  0
M  END
>  <minimizedAffinity>
-4.83484697

$$$$

 OpenBabel03252507173D

 29 31  0  0  0  0  0  0  0  0999 V2000
   36.5300   29.9680   37.5620 C   0  0  0  0  0  0  0  0  0  0  0  0
   37.3070   29.7660   38.7280 C   0  0  0  0  0  0  0  0  0  0  0  0
   36.8180   28.9000   39.6760 C   0  0  0  0  0  0  0  0  0  0  0  0
   35.6360   28.2800   39.4710 N   0  0  0  0  0  0  0  0  0  0  0  0
   34.8980   28.4860   38.3400 C   0  0  0  0  0  0  0  0  0  0  0  0
   35.3690   29.3280   37.4150 N   0  0  0  0  0  0  0  0  0  0  0  0
   36.8810   30.6490   36.7820 H   0  0  0  0  0  0  0  0  0  0  0  0
   33.9760   27.9160   38.3270 H   0  0  0  0  0  0  0  0  0  0  0  0
   38.5420   30.4520   38.8790 C   0  0  0  0  0  0  0  0  0  0  0  0
   39.5980   29.8210   38.6170 O   0  0  0  0  0  0  0  0  0  0  0  0
   38.7930   31.7930   39.2940 N   0  0  0  0  0  0  0  0  0  0  0  0
   39.9770   32.4370   38.7540 C   0  0  0  0  0  3  0  0  0  0  0  0
   39.6230   33.4270   38.3410 H   0  0  0  0  0  0  0  0  0  0  0  0
   40.9420   32.7890   39.8540 C   0  0  0  0  0  3  0  0  0  0  0  0
   41.5420   33.6670   39.5000 H   0  0  0  0  0  0  0  0  0  0  0  0
   40.2690   33.1500   41.0570 N   0  0  0  0  0  0  0  0  0  0  0  0
   40.4790   32.5840   41.8820 H   0  0  0  0  0  0  0  0  0  0  0  0
   38.9200   33.6040   40.9110 C   0  0  0  0  0  2  0  0  0  0  0  0
   38.0270   32.6340   40.1980 C   0  0  0  0  0  2  0  0  0  0  0  0
   37.6070   28.6760   40.8900 C   0  0  0  0  0  0  0  0  0  0  0  0
   37.4220   29.4900   41.9820 C   0  0  0  0  0  0  0  0  0  0  0  0
   38.1730   29.2600   43.1070 C   0  0  0  0  0  0  0  0  0  0  0  0
   39.1240   28.2320   43.1980 C   0  0  0  0  0  0  0  0  0  0  0  0
   39.2560   27.4530   42.0590 C   0  0  0  0  0  0  0  0  0  0  0  0
   38.5110   27.6880   40.9570 N   0  0  0  0  0  0  0  0  0  0  0  0
   36.7010   30.3010   41.9700 H   0  0  0  0  0  0  0  0  0  0  0  0
   38.0660   29.8720   43.9920 H   0  0  0  0  0  0  0  0  0  0  0  0
   39.7260   28.0240   44.0560 H   0  0  0  0  0  0  0  0  0  0  0  0
   39.9610   26.6180   41.9980 H   0  0  0  0  0  0  0  0  0  0  0  0
  1  2  1  0  0  0  0
  2  9  1  0  0  0  0
  2  3  2  0  0  0  0
  3 20  1  0  0  0  0
  4  3  1  0  0  0  0
  5  4  2  0  0  0  0
  6  1  2  0  0  0  0
  6  5  1  0  0  0  0
  7  1  1  0  0  0  0
  8  5  1  0  0  0  0
  9 11  1  0  0  0  0
 10  9  2  0  0  0  0
 11 19  1  0  0  0  0
 12 11  1  0  0  0  0
 12 14  1  0  0  0  0
 13 12  1  0  0  0  0
 14 16  1  0  0  0  0
 15 14  1  0  0  0  0
 16 17  1  0  0  0  0
 18 16  1  0  0  0  0
 19 18  1  0  0  0  0
 20 25  2  0  0  0  0
 20 21  1  0  0  0  0
 21 22  2  0  0  0  0
 22 23  1  0  0  0  0
 22 27  1  0  0  0  0
 23 28  1  0  0  0  0
 24 23  2  0  0  0  0
 25 24  1  0  0  0  0
 26 21  1  0  0  0  0
 29 24  1  0  0  0  0
M  END
>  <minimizedAffinity>
-4.82704878

$$$$

 OpenBabel03252507173D

 29 31  0  0  0  0  0  0  0  0999 V2000
   38.6140   30.2180   40.9110 C   0  0  0  0  0  0  0  0  0  0  0  0
   38.4570   28.8120   40.9090 C   0  0  0  0  0  0  0  0  0  0  0  0
   37.1820   28.3140   41.0430 C   0  0  0  0  0  0  0  0  0  0  0  0
   36.1400   29.1650   41.1680 N   0  0  0  0  0  0  0  0  0  0  0  0
   36.3100   30.5200   41.1680 C   0  0  0  0  0  0  0  0  0  0  0  0
   37.5470   31.0090   41.0390 N   0  0  0  0  0  0  0  0  0  0  0  0
   39.6100   30.6570   40.8080 H   0  0  0  0  0  0  0  0  0  0  0  0
   35.3780   31.0620   41.2770 H   0  0  0  0  0  0  0  0  0  0  0  0
   39.5970   27.9750   40.7730 C   0  0  0  0  0  0  0  0  0  0  0  0
   39.8930   27.5720   39.6200 O   0  0  0  0  0  0  0  0  0  0  0  0
   40.4980   27.4970   41.7700 N   0  0  0  0  0  0  0  0  0  0  0  0
   41.8680   27.2530   41.3540 C   0  0  0  0  0  3  0  0  0  0  0  0
   42.5150   27.7990   42.1020 H   0  0  0  0  0  0  0  0  0  0  0  0
   42.2220   25.7990   41.5130 C   0  0  0  0  0  3  0  0  0  0  0  0
   43.3310   25.7430   41.6680 H   0  0  0  0  0  0  0  0  0  0  0  0
   41.5720   25.2120   42.6360 N   0  0  0  0  0  0  0  0  0  0  0  0
   40.9610   24.4160   42.4420 H   0  0  0  0  0  0  0  0  0  0  0  0
   41.1500   26.1150   43.6620 C   0  0  0  0  0  2  0  0  0  0  0  0
   40.2490   27.2100   43.1730 C   0  0  0  0  0  2  0  0  0  0  0  0
   36.9970   26.8610   41.0430 C   0  0  0  0  0  0  0  0  0  0  0  0
   37.0590   26.1670   42.2270 C   0  0  0  0  0  0  0  0  0  0  0  0
   36.8810   24.8060   42.2010 C   0  0  0  0  0  0  0  0  0  0  0  0
   36.6400   24.0860   41.0210 C   0  0  0  0  0  0  0  0  0  0  0  0
   36.5920   24.8520   39.8660 C   0  0  0  0  0  0  0  0  0  0  0  0
   36.7670   26.1910   39.9040 N   0  0  0  0  0  0  0  0  0  0  0  0
   37.2420   26.6700   43.1710 H   0  0  0  0  0  0  0  0  0  0  0  0
   36.9210   24.2140   43.1050 H   0  0  0  0  0  0  0  0  0  0  0  0
   36.4980   23.0290   40.9630 H   0  0  0  0  0  0  0  0  0  0  0  0
   36.4110   24.4150   38.8800 H   0  0  0  0  0  0  0  0  0  0  0  0
  1  6  1  0  0  0  0
  2  1  2  0  0  0  0
  2  3  1  0  0  0  0
  3 20  1  0  0  0  0
  3  4  2  0  0  0  0
  5  4  1  0  0  0  0
  5  8  1  0  0  0  0
  6  5  2  0  0  0  0
  7  1  1  0  0  0  0
  9  2  1  0  0  0  0
  9 11  1  0  0  0  0
 10  9  2  0  0  0  0
 11 19  1  0  0  0  0
 12 14  1  0  0  0  0
 12 11  1  0  0  0  0
 12 13  1  0  0  0  0
 14 15  1  0  0  0  0
 14 16  1  0  0  0  0
 16 18  1  0  0  0  0
 17 16  1  0  0  0  0
 19 18  1  0  0  0  0
 20 21  1  0  0  0  0
 21 26  1  0  0  0  0
 22 21  2  0  0  0  0
 22 27  1  0  0  0  0
 23 22  1  0  0  0  0
 24 25  1  0  0  0  0
 24 23  2  0  0  0  0
 25 20  2  0  0  0  0
 28 23  1  0  0  0  0
 29 24  1  0  0  0  0
M  END
>  <minimizedAffinity>
-4.69246674

$$$$

 OpenBabel03252507173D

 29 31  0  0  0  0  0  0  0  0999 V2000
   37.2830   26.7830   41.5800 C   0  0  0  0  0  0  0  0  0  0  0  0
   37.5570   28.0390   40.9880 C   0  0  0  0  0  0  0  0  0  0  0  0
   37.5480   29.1440   41.8060 C   0  0  0  0  0  0  0  0  0  0  0  0
   37.2840   28.9990   43.1230 N   0  0  0  0  0  0  0  0  0  0  0  0
   37.0210   27.7780   43.6780 C   0  0  0  0  0  0  0  0  0  0  0  0
   37.0290   26.7030   42.8870 N   0  0  0  0  0  0  0  0  0  0  0  0
   37.2800   25.8790   40.9660 H   0  0  0  0  0  0  0  0  0  0  0  0
   36.8300   27.8320   44.7440 H   0  0  0  0  0  0  0  0  0  0  0  0
   37.8270   28.1190   39.5950 C   0  0  0  0  0  0  0  0  0  0  0  0
   39.0290   28.1840   39.2350 O   0  0  0  0  0  0  0  0  0  0  0  0
   36.9210   28.1370   38.4940 N   0  0  0  0  0  0  0  0  0  0  0  0
   37.3960   27.5680   37.2440 C   0  0  0  0  0  3  0  0  0  0  0  0
   36.5980   26.8370   36.9190 H   0  0  0  0  0  0  0  0  0  0  0  0
   37.4370   28.6150   36.1640 C   0  0  0  0  0  3  0  0  0  0  0  0
   37.3160   28.0840   35.1840 H   0  0  0  0  0  0  0  0  0  0  0  0
   36.3860   29.5660   36.3030 N   0  0  0  0  0  0  0  0  0  0  0  0
   36.6690   30.5420   36.4170 H   0  0  0  0  0  0  0  0  0  0  0  0
   35.2420   29.1350   37.0460 C   0  0  0  0  0  2  0  0  0  0  0  0
   35.5630   28.6490   38.4280 C   0  0  0  0  0  2  0  0  0  0  0  0
   37.8300   30.4530   41.2150 C   0  0  0  0  0  0  0  0  0  0  0  0
   36.8050   31.1890   40.6700 C   0  0  0  0  0  0  0  0  0  0  0  0
   37.0950   32.4140   40.1220 C   0  0  0  0  0  0  0  0  0  0  0  0
   38.3900   32.9530   40.0890 C   0  0  0  0  0  0  0  0  0  0  0  0
   39.3720   32.1540   40.6560 C   0  0  0  0  0  0  0  0  0  0  0  0
   39.0750   30.9510   41.1930 N   0  0  0  0  0  0  0  0  0  0  0  0
   35.7830   30.8240   40.6670 H   0  0  0  0  0  0  0  0  0  0  0  0
   36.3240   33.0310   39.6800 H   0  0  0  0  0  0  0  0  0  0  0  0
   38.6510   33.9000   39.6710 H   0  0  0  0  0  0  0  0  0  0  0  0
   40.4220   32.4570   40.6960 H   0  0  0  0  0  0  0  0  0  0  0  0
  1  6  1  0  0  0  0
  2  1  2  0  0  0  0
  2  3  1  0  0  0  0
  3  4  2  0  0  0  0
  4  5  1  0  0  0  0
  5  8  1  0  0  0  0
  6  5  2  0  0  0  0
  7  1  1  0  0  0  0
  9  2  1  0  0  0  0
 10  9  2  0  0  0  0
 11  9  1  0  0  0  0
 12 11  1  0  0  0  0
 13 12  1  0  0  0  0
 14 16  1  0  0  0  0
 14 12  1  0  0  0  0
 15 14  1  0  0  0  0
 16 17  1  0  0  0  0
 16 18  1  0  0  0  0
 18 19  1  0  0  0  0
 19 11  1  0  0  0  0
 20  3  1  0  0  0  0
 21 20  2  0  0  0  0
 22 21  1  0  0  0  0
 23 22  2  0  0  0  0
 23 24  1  0  0  0  0
 24 29  1  0  0  0  0
 24 25  2  0  0  0  0
 25 20  1  0  0  0  0
 26 21  1  0  0  0  0
 27 22  1  0  0  0  0
 28 23  1  0  0  0  0
M  END
>  <minimizedAffinity>
-4.68299198

$$$$

 OpenBabel03252507173D

 29 31  0  0  0  0  0  0  0  0999 V2000
   39.4560   32.4840   41.0850 C   0  0  0  0  0  0  0  0  0  0  0  0
   38.5800   31.4490   40.6810 C   0  0  0  0  0  0  0  0  0  0  0  0
   37.4720   31.8020   39.9480 C   0  0  0  0  0  0  0  0  0  0  0  0
   37.2580   33.1000   39.6420 N   0  0  0  0  0  0  0  0  0  0  0  0
   38.1140   34.0880   40.0410 C   0  0  0  0  0  0  0  0  0  0  0  0
   39.1910   33.7490   40.7540 N   0  0  0  0  0  0  0  0  0  0  0  0
   40.3490   32.2480   41.6690 H   0  0  0  0  0  0  0  0  0  0  0  0
   37.8010   35.0740   39.7160 H   0  0  0  0  0  0  0  0  0  0  0  0
   38.8670   30.1040   41.0370 C   0  0  0  0  0  0  0  0  0  0  0  0
   38.7210   29.7730   42.2410 O   0  0  0  0  0  0  0  0  0  0  0  0
   39.3100   29.0210   40.2210 N   0  0  0  0  0  0  0  0  0  0  0  0
   38.9030   27.6860   40.6230 C   0  0  0  0  0  3  0  0  0  0  0  0
   38.4560   27.2130   39.7000 H   0  0  0  0  0  0  0  0  0  0  0  0
   40.1030   26.8420   40.9580 C   0  0  0  0  0  3  0  0  0  0  0  0
   39.8180   25.7730   40.7740 H   0  0  0  0  0  0  0  0  0  0  0  0
   41.2250   27.1630   40.1420 N   0  0  0  0  0  0  0  0  0  0  0  0
   42.0670   27.4750   40.6320 H   0  0  0  0  0  0  0  0  0  0  0  0
   40.9340   27.7930   38.8920 C   0  0  0  0  0  2  0  0  0  0  0  0
   40.1260   29.0500   39.0190 C   0  0  0  0  0  2  0  0  0  0  0  0
   36.5540   30.7460   39.5180 C   0  0  0  0  0  0  0  0  0  0  0  0
   35.6870   30.1860   40.4270 C   0  0  0  0  0  0  0  0  0  0  0  0
   34.8360   29.1970   39.9990 C   0  0  0  0  0  0  0  0  0  0  0  0
   34.8060   28.7280   38.6770 C   0  0  0  0  0  0  0  0  0  0  0  0
   35.7080   29.3390   37.8180 C   0  0  0  0  0  0  0  0  0  0  0  0
   36.5410   30.3110   38.2500 N   0  0  0  0  0  0  0  0  0  0  0  0
   35.6650   30.5080   41.4620 H   0  0  0  0  0  0  0  0  0  0  0  0
   34.1360   28.7240   40.6750 H   0  0  0  0  0  0  0  0  0  0  0  0
   34.1590   27.9620   38.3100 H   0  0  0  0  0  0  0  0  0  0  0  0
   35.7870   29.0670   36.7610 H   0  0  0  0  0  0  0  0  0  0  0  0
  1  7  1  0  0  0  0
  2  9  1  0  0  0  0
  2  1  2  0  0  0  0
  3  2  1  0  0  0  0
  4  3  2  0  0  0  0
  4  5  1  0  0  0  0
  5  6  2  0  0  0  0
  6  1  1  0  0  0  0
  8  5  1  0  0  0  0
  9 10  2  0  0  0  0
 11 12  1  0  0  0  0
 11  9  1  0  0  0  0
 12 14  1  0  0  0  0
 13 12  1  0  0  0  0
 15 14  1  0  0  0  0
 16 17  1  0  0  0  0
 16 14  1  0  0  0  0
 18 19  1  0  0  0  0
 18 16  1  0  0  0  0
 19 11  1  0  0  0  0
 20  3  1  0  0  0  0
 20 21  1  0  0  0  0
 21 26  1  0  0  0  0
 22 21  2  0  0  0  0
 22 27  1  0  0  0  0
 23 22  1  0  0  0  0
 24 25  1  0  0  0  0
 24 23  2  0  0  0  0
 25 20  2  0  0  0  0
 28 23  1  0  0  0  0
 29 24  1  0  0  0  0
M  END
>  <minimizedAffinity>
-4.66924953

$$$$
