
 OpenBabel03252504013D

 34 37  0  0  0  0  0  0  0  0999 V2000
   46.6640   35.0150   42.7220 C   0  0  0  0  0  0  0  0  0  0  0  0
   45.7830   36.1020   42.7510 C   0  0  0  0  0  0  0  0  0  0  0  0
   44.8530   36.1430   43.7900 C   0  0  0  0  0  0  0  0  0  0  0  0
   44.8520   35.1370   44.7110 N   0  0  0  0  0  0  0  0  0  0  0  0
   45.7260   34.1100   44.6370 C   0  0  0  0  0  0  0  0  0  0  0  0
   46.6320   34.0470   43.6460 N   0  0  0  0  0  0  0  0  0  0  0  0
   45.7460   36.9130   42.0510 H   0  0  0  0  0  0  0  0  0  0  0  0
   44.1340   36.9580   43.8770 H   0  0  0  0  0  0  0  0  0  0  0  0
   46.0170   31.7500   45.2090 C   0  0  0  0  0  0  0  0  0  0  0  0
   45.7250   33.0290   45.6280 C   0  0  0  0  0  0  0  0  0  0  0  0
   45.4430   33.2440   46.9520 C   0  0  0  0  0  0  0  0  0  0  0  0
   45.4470   32.2120   47.8620 C   0  0  0  0  0  0  0  0  0  0  0  0
   45.2190   32.1220   49.1750 N   0  0  0  0  0  0  0  0  0  0  0  0
   45.3600   30.8380   49.5860 C   0  0  0  0  0  0  0  0  0  0  0  0
   45.6940   30.0490   48.4960 C   0  0  0  0  0  0  0  0  0  0  0  0
   45.7470   30.9100   47.4290 C   0  0  0  0  0  0  0  0  0  0  0  0
   46.0310   30.6920   46.0950 C   0  0  0  0  0  0  0  0  0  0  0  0
   46.2470   31.5300   44.1710 H   0  0  0  0  0  0  0  0  0  0  0  0
   45.2130   34.2640   47.2670 H   0  0  0  0  0  0  0  0  0  0  0  0
   44.9690   32.9700   49.7560 H   0  0  0  0  0  0  0  0  0  0  0  0
   45.2180   30.5290   50.6230 H   0  0  0  0  0  0  0  0  0  0  0  0
   45.8730   28.9710   48.5060 H   0  0  0  0  0  0  0  0  0  0  0  0
   46.2620   29.6700   45.7770 H   0  0  0  0  0  0  0  0  0  0  0  0
   47.5920   35.0390   41.6270 C   0  0  0  0  0  0  0  0  0  0  0  0
   48.6320   35.7840   41.5500 O   0  0  0  0  0  0  0  0  0  0  0  0
   47.2720   34.1290   40.5650 N   0  0  0  0  0  0  0  0  0  0  0  0
   45.9470   33.6850   40.1660 C   0  0  0  0  0  3  0  0  0  0  0  0
   45.1560   34.1610   40.7780 H   0  0  0  0  0  0  0  0  0  0  0  0
   45.8600   32.2050   40.2740 C   0  0  0  0  0  3  0  0  0  0  0  0
   45.3060   31.8090   39.3770 H   0  0  0  0  0  0  0  0  0  0  0  0
   47.1280   31.5420   40.4360 N   0  0  0  0  0  0  0  0  0  0  0  0
   46.9860   30.5500   40.1400 H   0  0  0  0  0  0  0  0  0  0  0  0
   48.1750   32.0870   39.6070 C   0  0  0  0  0  2  0  0  0  0  0  0
   48.3490   33.5670   39.7750 C   0  0  0  0  0  2  0  0  0  0  0  0
  1  2  2  0  0  0  0
  1  6  1  0  0  0  0
  2  3  1  0  0  0  0
  3  8  1  0  0  0  0
  3  4  2  0  0  0  0
  5  4  1  0  0  0  0
  5 10  1  0  0  0  0
  6  5  2  0  0  0  0
  7  2  1  0  0  0  0
  9 10  2  0  0  0  0
  9 17  1  0  0  0  0
 10 11  1  0  0  0  0
 11 19  1  0  0  0  0
 11 12  2  0  0  0  0
 12 13  1  0  0  0  0
 13 14  1  0  0  0  0
 13 20  1  0  0  0  0
 14 21  1  0  0  0  0
 15 22  1  0  0  0  0
 15 14  2  0  0  0  0
 16 12  1  0  0  0  0
 16 15  1  0  0  0  0
 17 16  2  0  0  0  0
 18  9  1  0  0  0  0
 23 17  1  0  0  0  0
 24  1  1  0  0  0  0
 25 24  2  0  0  0  0
 26 24  1  0  0  0  0
 27 29  1  0  0  0  0
 27 26  1  0  0  0  0
 27 28  1  0  0  0  0
 29 31  1  0  0  0  0
 30 29  1  0  0  0  0
 32 31  1  0  0  0  0
 33 34  1  0  0  0  0
 33 31  1  0  0  0  0
 34 26  1  0  0  0  0
M  END
>  <minimizedAffinity>
-6.10838795

>  <minimizedRMSD>
0.504263163

$$$$
