
 OpenBabel03252502283D

 35 37  0  0  0  0  0  0  0  0999 V2000
   45.1100   34.4030   40.9490 C   0  0  0  0  0  0  0  0  0  0  0  0
   45.1080   35.0400   42.1800 C   0  0  0  0  0  0  0  0  0  0  0  0
   46.3280   35.3540   42.7750 C   0  0  0  0  0  0  0  0  0  0  0  0
   47.4940   35.0290   42.1340 C   0  0  0  0  0  0  0  0  0  0  0  0
   47.5190   34.3970   40.9110 C   0  0  0  0  0  0  0  0  0  0  0  0
   46.2810   34.0940   40.3390 C   0  0  0  0  0  0  0  0  0  0  0  0
   44.1880   35.2970   42.6860 H   0  0  0  0  0  0  0  0  0  0  0  0
   46.2800   35.8510   43.7340 H   0  0  0  0  0  0  0  0  0  0  0  0
   48.4450   35.2670   42.5830 H   0  0  0  0  0  0  0  0  0  0  0  0
   48.4310   34.1270   40.3800 H   0  0  0  0  0  0  0  0  0  0  0  0
   46.7410   32.2950   38.4970 C   0  0  0  0  0  0  0  0  0  0  0  0
   47.6060   31.5870   39.0000 O   0  0  0  0  0  0  0  0  0  0  0  0
   46.1670   33.4470   39.0870 N   0  0  0  0  0  0  0  0  0  0  0  0
   45.4750   34.0210   38.5260 H   0  0  0  0  0  0  0  0  0  0  0  0
   46.2840   31.9050   37.2040 N   0  0  0  0  0  0  0  0  0  0  0  0
   47.1170   30.9450   36.5080 C   0  0  0  0  0  3  0  0  0  0  0  0
   48.0370   31.4120   36.1050 H   0  0  0  0  0  0  0  0  0  0  0  0
   46.3220   30.1690   35.4900 C   0  0  0  0  0  3  0  0  0  0  0  0
   45.7010   29.4250   36.0720 H   0  0  0  0  0  0  0  0  0  0  0  0
   45.5240   30.9580   34.6110 N   0  0  0  0  0  0  0  0  0  0  0  0
   45.8850   30.9110   33.6310 H   0  0  0  0  0  0  0  0  0  0  0  0
   45.5220   32.3450   35.0130 C   0  0  0  0  0  2  0  0  0  0  0  0
   45.1000   32.3390   36.4890 C   0  0  0  0  0  2  0  0  0  0  0  0
   41.6120   34.6140   39.5520 C   0  0  0  0  0  0  0  0  0  0  0  0
   42.8360   35.0280   40.0930 C   0  0  0  0  0  0  0  0  0  0  0  0
   43.7990   34.1050   40.3850 C   0  0  0  0  0  0  0  0  0  0  0  0
   43.4950   32.7980   40.1240 N   0  0  0  0  0  0  0  0  0  0  0  0
   42.3210   32.3930   39.6050 C   0  0  0  0  0  0  0  0  0  0  0  0
   41.3690   33.3120   39.3160 N   0  0  0  0  0  0  0  0  0  0  0  0
   43.0530   36.0710   40.2910 H   0  0  0  0  0  0  0  0  0  0  0  0
   42.1450   31.3380   39.4220 H   0  0  0  0  0  0  0  0  0  0  0  0
   40.5640   35.6040   39.2320 C   0  0  0  0  0  0  0  0  0  0  0  0
   39.4680   34.9000   38.7090 F   0  0  0  0  0  0  0  0  0  0  0  0
   41.0470   36.3710   38.1820 F   0  0  0  0  0  0  0  0  0  0  0  0
   40.1740   36.3570   40.3060 F   0  0  0  0  0  0  0  0  0  0  0  0
  1  2  1  0  0  0  0
  2  7  1  0  0  0  0
  2  3  2  0  0  0  0
  3  8  1  0  0  0  0
  4  9  1  0  0  0  0
  4  3  1  0  0  0  0
  5  4  2  0  0  0  0
  6  5  1  0  0  0  0
  6  1  2  0  0  0  0
 10  5  1  0  0  0  0
 11 12  2  0  0  0  0
 11 13  1  0  0  0  0
 13  6  1  0  0  0  0
 14 13  1  0  0  0  0
 15 11  1  0  0  0  0
 16 15  1  0  0  0  0
 17 16  1  0  0  0  0
 18 19  1  0  0  0  0
 18 16  1  0  0  0  0
 20 22  1  0  0  0  0
 20 18  1  0  0  0  0
 21 20  1  0  0  0  0
 22 23  1  0  0  0  0
 23 15  1  0  0  0  0
 24 25  1  0  0  0  0
 25 30  1  0  0  0  0
 25 26  2  0  0  0  0
 26  1  1  0  0  0  0
 27 26  1  0  0  0  0
 28 27  2  0  0  0  0
 29 24  2  0  0  0  0
 29 28  1  0  0  0  0
 31 28  1  0  0  0  0
 32 24  1  0  0  0  0
 32 35  1  0  0  0  0
 33 32  1  0  0  0  0
 34 32  1  0  0  0  0
M  END
>  <minimizedAffinity>
-6.00943279

>  <minimizedRMSD>
1.32644606

$$$$
