
 OpenBabel03252502293D

 35 37  0  0  0  0  0  0  0  0999 V2000
   35.4140   29.1130   38.3690 C   0  0  0  0  0  0  0  0  0  0  0  0
   34.0960   28.6970   38.2640 C   0  0  0  0  0  0  0  0  0  0  0  0
   33.5290   28.5770   36.9980 C   0  0  0  0  0  0  0  0  0  0  0  0
   34.2820   28.8710   35.8910 C   0  0  0  0  0  0  0  0  0  0  0  0
   35.5920   29.2840   35.9720 C   0  0  0  0  0  0  0  0  0  0  0  0
   36.1340   29.3960   37.2550 C   0  0  0  0  0  0  0  0  0  0  0  0
   33.5010   28.4650   39.1370 H   0  0  0  0  0  0  0  0  0  0  0  0
   32.4980   28.2500   36.9620 H   0  0  0  0  0  0  0  0  0  0  0  0
   33.8540   28.7820   34.9050 H   0  0  0  0  0  0  0  0  0  0  0  0
   36.2130   29.5240   35.1100 H   0  0  0  0  0  0  0  0  0  0  0  0
   38.1860   31.0160   37.3020 C   0  0  0  0  0  0  0  0  0  0  0  0
   37.7490   32.0440   36.7970 O   0  0  0  0  0  0  0  0  0  0  0  0
   37.4680   29.8080   37.4770 N   0  0  0  0  0  0  0  0  0  0  0  0
   37.9740   28.9610   37.8640 H   0  0  0  0  0  0  0  0  0  0  0  0
   39.5400   31.0620   37.7460 N   0  0  0  0  0  0  0  0  0  0  0  0
   39.9160   32.2480   38.4910 C   0  0  0  0  0  3  0  0  0  0  0  0
   40.0450   33.1260   37.8270 H   0  0  0  0  0  0  0  0  0  0  0  0
   41.0920   31.9760   39.3920 C   0  0  0  0  0  3  0  0  0  0  0  0
   40.6940   31.3800   40.2640 H   0  0  0  0  0  0  0  0  0  0  0  0
   42.2010   31.3320   38.7680 N   0  0  0  0  0  0  0  0  0  0  0  0
   43.0260   31.9710   38.7120 H   0  0  0  0  0  0  0  0  0  0  0  0
   41.8740   30.9190   37.4230 C   0  0  0  0  0  2  0  0  0  0  0  0
   40.5930   30.0830   37.5560 C   0  0  0  0  0  2  0  0  0  0  0  0
   36.6680   28.3950   41.8540 C   0  0  0  0  0  0  0  0  0  0  0  0
   36.1530   28.1660   40.5720 C   0  0  0  0  0  0  0  0  0  0  0  0
   35.9420   29.2150   39.7230 C   0  0  0  0  0  0  0  0  0  0  0  0
   36.2560   30.4590   40.1970 N   0  0  0  0  0  0  0  0  0  0  0  0
   36.7510   30.6870   41.4290 C   0  0  0  0  0  0  0  0  0  0  0  0
   36.9580   29.6430   42.2660 N   0  0  0  0  0  0  0  0  0  0  0  0
   35.9120   27.1700   40.2200 H   0  0  0  0  0  0  0  0  0  0  0  0
   36.9790   31.7010   41.7410 H   0  0  0  0  0  0  0  0  0  0  0  0
   36.8990   27.2680   42.7790 C   0  0  0  0  0  0  0  0  0  0  0  0
   35.8230   27.2350   43.6790 F   0  0  0  0  0  0  0  0  0  0  0  0
   38.0100   27.6000   43.5410 F   0  0  0  0  0  0  0  0  0  0  0  0
   37.0270   26.0600   42.1510 F   0  0  0  0  0  0  0  0  0  0  0  0
  1 26  1  0  0  0  0
  2  1  1  0  0  0  0
  2  7  1  0  0  0  0
  3  2  2  0  0  0  0
  4  5  2  0  0  0  0
  4  3  1  0  0  0  0
  5  6  1  0  0  0  0
  6 13  1  0  0  0  0
  6  1  2  0  0  0  0
  8  3  1  0  0  0  0
  9  4  1  0  0  0  0
 10  5  1  0  0  0  0
 11 13  1  0  0  0  0
 11 15  1  0  0  0  0
 12 11  2  0  0  0  0
 13 14  1  0  0  0  0
 15 16  1  0  0  0  0
 16 18  1  0  0  0  0
 17 16  1  0  0  0  0
 18 19  1  0  0  0  0
 20 18  1  0  0  0  0
 21 20  1  0  0  0  0
 22 23  1  0  0  0  0
 22 20  1  0  0  0  0
 23 15  1  0  0  0  0
 24 29  1  0  0  0  0
 24 32  1  0  0  0  0
 25 24  2  0  0  0  0
 26 27  2  0  0  0  0
 26 25  1  0  0  0  0
 27 28  1  0  0  0  0
 28 31  1  0  0  0  0
 28 29  2  0  0  0  0
 30 25  1  0  0  0  0
 32 34  1  0  0  0  0
 32 33  1  0  0  0  0
 35 32  1  0  0  0  0
M  END
>  <minimizedAffinity>
-6.03632355

$$$$

 OpenBabel03252502293D

 35 37  0  0  0  0  0  0  0  0999 V2000
   37.4470   31.5930   39.9290 C   0  0  0  0  0  0  0  0  0  0  0  0
   37.2360   32.9140   39.5670 C   0  0  0  0  0  0  0  0  0  0  0  0
   38.1170   33.8870   40.0330 C   0  0  0  0  0  0  0  0  0  0  0  0
   39.1670   33.5190   40.8330 C   0  0  0  0  0  0  0  0  0  0  0  0
   39.3960   32.2130   41.2040 C   0  0  0  0  0  0  0  0  0  0  0  0
   38.4960   31.2590   40.7230 C   0  0  0  0  0  0  0  0  0  0  0  0
   36.4080   33.2060   38.9360 H   0  0  0  0  0  0  0  0  0  0  0  0
   37.9140   34.9050   39.7270 H   0  0  0  0  0  0  0  0  0  0  0  0
   39.8560   34.2620   41.2000 H   0  0  0  0  0  0  0  0  0  0  0  0
   40.2210   31.8930   41.8380 H   0  0  0  0  0  0  0  0  0  0  0  0
   38.5030   29.1040   42.2040 C   0  0  0  0  0  0  0  0  0  0  0  0
   38.3170   29.5360   43.3350 O   0  0  0  0  0  0  0  0  0  0  0  0
   38.6190   29.8840   41.0280 N   0  0  0  0  0  0  0  0  0  0  0  0
   38.8500   29.4030   40.1120 H   0  0  0  0  0  0  0  0  0  0  0  0
   38.6080   27.6880   42.0810 N   0  0  0  0  0  0  0  0  0  0  0  0
   37.6180   26.9200   42.8120 C   0  0  0  0  0  3  0  0  0  0  0  0
   37.8330   26.8990   43.8980 H   0  0  0  0  0  0  0  0  0  0  0  0
   37.4190   25.5600   42.1950 C   0  0  0  0  0  3  0  0  0  0  0  0
   36.8110   25.7220   41.2570 H   0  0  0  0  0  0  0  0  0  0  0  0
   38.6150   24.8290   41.9350 N   0  0  0  0  0  0  0  0  0  0  0  0
   38.6850   23.9890   42.5530 H   0  0  0  0  0  0  0  0  0  0  0  0
   39.7840   25.6420   42.1680 C   0  0  0  0  0  2  0  0  0  0  0  0
   39.5710   26.9090   41.3270 C   0  0  0  0  0  2  0  0  0  0  0  0
   35.4100   29.3150   37.7180 C   0  0  0  0  0  0  0  0  0  0  0  0
   36.3770   30.2540   38.0980 C   0  0  0  0  0  0  0  0  0  0  0  0
   36.4880   30.6290   39.4060 C   0  0  0  0  0  0  0  0  0  0  0  0
   35.6210   30.0440   40.2870 N   0  0  0  0  0  0  0  0  0  0  0  0
   34.6890   29.1410   39.9290 C   0  0  0  0  0  0  0  0  0  0  0  0
   34.5830   28.7720   38.6300 N   0  0  0  0  0  0  0  0  0  0  0  0
   37.0530   30.7040   37.3800 H   0  0  0  0  0  0  0  0  0  0  0  0
   34.0320   28.7150   40.6800 H   0  0  0  0  0  0  0  0  0  0  0  0
   35.2810   28.9030   36.3060 C   0  0  0  0  0  0  0  0  0  0  0  0
   34.0090   29.2990   35.8670 F   0  0  0  0  0  0  0  0  0  0  0  0
   35.2620   27.5150   36.2960 F   0  0  0  0  0  0  0  0  0  0  0  0
   36.2470   29.4270   35.4920 F   0  0  0  0  0  0  0  0  0  0  0  0
  1  6  1  0  0  0  0
  2  1  2  0  0  0  0
  2  3  1  0  0  0  0
  3  4  2  0  0  0  0
  4  9  1  0  0  0  0
  4  5  1  0  0  0  0
  5 10  1  0  0  0  0
  6 13  1  0  0  0  0
  6  5  2  0  0  0  0
  7  2  1  0  0  0  0
  8  3  1  0  0  0  0
 11 12  2  0  0  0  0
 13 11  1  0  0  0  0
 14 13  1  0  0  0  0
 15 11  1  0  0  0  0
 15 16  1  0  0  0  0
 16 17  1  0  0  0  0
 18 16  1  0  0  0  0
 19 18  1  0  0  0  0
 20 22  1  0  0  0  0
 20 18  1  0  0  0  0
 20 21  1  0  0  0  0
 23 15  1  0  0  0  0
 23 22  1  0  0  0  0
 24 25  2  0  0  0  0
 24 29  1  0  0  0  0
 25 26  1  0  0  0  0
 26  1  1  0  0  0  0
 26 27  2  0  0  0  0
 28 27  1  0  0  0  0
 28 31  1  0  0  0  0
 29 28  2  0  0  0  0
 30 25  1  0  0  0  0
 32 24  1  0  0  0  0
 33 32  1  0  0  0  0
 34 32  1  0  0  0  0
 35 32  1  0  0  0  0
M  END
>  <minimizedAffinity>
-5.95208788

$$$$

 OpenBabel03252502293D

 35 37  0  0  0  0  0  0  0  0999 V2000
   36.8160   28.6680   39.8850 C   0  0  0  0  0  0  0  0  0  0  0  0
   35.7310   28.0450   39.2870 C   0  0  0  0  0  0  0  0  0  0  0  0
   35.2050   28.5890   38.1180 C   0  0  0  0  0  0  0  0  0  0  0  0
   35.7690   29.7200   37.5870 C   0  0  0  0  0  0  0  0  0  0  0  0
   36.8470   30.3530   38.1630 C   0  0  0  0  0  0  0  0  0  0  0  0
   37.3520   29.7860   39.3350 C   0  0  0  0  0  0  0  0  0  0  0  0
   35.2860   27.1530   39.7050 H   0  0  0  0  0  0  0  0  0  0  0  0
   34.3600   28.0720   37.6860 H   0  0  0  0  0  0  0  0  0  0  0  0
   35.3720   30.1510   36.6820 H   0  0  0  0  0  0  0  0  0  0  0  0
   37.3140   31.2530   37.7640 H   0  0  0  0  0  0  0  0  0  0  0  0
   39.8500   30.4160   39.7860 C   0  0  0  0  0  0  0  0  0  0  0  0
   40.4480   29.8950   38.8520 O   0  0  0  0  0  0  0  0  0  0  0  0
   38.4560   30.3370   40.0250 N   0  0  0  0  0  0  0  0  0  0  0  0
   38.0610   30.7710   40.9070 H   0  0  0  0  0  0  0  0  0  0  0  0
   40.6460   31.1620   40.7030 N   0  0  0  0  0  0  0  0  0  0  0  0
   41.6220   32.0530   40.1060 C   0  0  0  0  0  3  0  0  0  0  0  0
   42.4960   31.4990   39.7100 H   0  0  0  0  0  0  0  0  0  0  0  0
   41.9760   33.1800   41.0400 C   0  0  0  0  0  3  0  0  0  0  0  0
   41.1020   33.8940   41.0240 H   0  0  0  0  0  0  0  0  0  0  0  0
   42.3170   32.7850   42.3680 N   0  0  0  0  0  0  0  0  0  0  0  0
   43.3270   32.9650   42.5670 H   0  0  0  0  0  0  0  0  0  0  0  0
   42.0740   31.3770   42.5710 C   0  0  0  0  0  2  0  0  0  0  0  0
   40.6140   31.1530   42.1530 C   0  0  0  0  0  2  0  0  0  0  0  0
   38.2400   26.2830   42.4370 C   0  0  0  0  0  0  0  0  0  0  0  0
   37.7870   26.7680   41.2040 C   0  0  0  0  0  0  0  0  0  0  0  0
   37.3140   28.0440   41.1040 C   0  0  0  0  0  0  0  0  0  0  0  0
   37.3120   28.7880   42.2510 N   0  0  0  0  0  0  0  0  0  0  0  0
   37.7460   28.3290   43.4410 C   0  0  0  0  0  0  0  0  0  0  0  0
   38.2140   27.0620   43.5330 N   0  0  0  0  0  0  0  0  0  0  0  0
   37.7990   26.1580   40.3080 H   0  0  0  0  0  0  0  0  0  0  0  0
   37.7170   28.9740   44.3130 H   0  0  0  0  0  0  0  0  0  0  0  0
   38.7530   24.9040   42.5550 C   0  0  0  0  0  0  0  0  0  0  0  0
   39.4960   24.6310   41.3960 F   0  0  0  0  0  0  0  0  0  0  0  0
   37.6520   24.0620   42.4960 F   0  0  0  0  0  0  0  0  0  0  0  0
   39.5210   24.6980   43.6690 F   0  0  0  0  0  0  0  0  0  0  0  0
  1 26  1  0  0  0  0
  2  7  1  0  0  0  0
  2  1  2  0  0  0  0
  3  2  1  0  0  0  0
  4  3  2  0  0  0  0
  4  5  1  0  0  0  0
  5  6  2  0  0  0  0
  6  1  1  0  0  0  0
  6 13  1  0  0  0  0
  8  3  1  0  0  0  0
  9  4  1  0  0  0  0
 10  5  1  0  0  0  0
 11 13  1  0  0  0  0
 11 15  1  0  0  0  0
 12 11  2  0  0  0  0
 13 14  1  0  0  0  0
 15 23  1  0  0  0  0
 16 15  1  0  0  0  0
 16 18  1  0  0  0  0
 17 16  1  0  0  0  0
 18 20  1  0  0  0  0
 19 18  1  0  0  0  0
 20 21  1  0  0  0  0
 20 22  1  0  0  0  0
 23 22  1  0  0  0  0
 24 32  1  0  0  0  0
 24 29  1  0  0  0  0
 25 24  2  0  0  0  0
 26 25  1  0  0  0  0
 26 27  2  0  0  0  0
 27 28  1  0  0  0  0
 28 29  2  0  0  0  0
 28 31  1  0  0  0  0
 30 25  1  0  0  0  0
 32 35  1  0  0  0  0
 33 32  1  0  0  0  0
 34 32  1  0  0  0  0
M  END
>  <minimizedAffinity>
-5.85408115

$$$$

 OpenBabel03252502293D

 35 37  0  0  0  0  0  0  0  0999 V2000
   35.6850   27.7700   38.6960 C   0  0  0  0  0  0  0  0  0  0  0  0
   34.7080   27.9080   37.7220 C   0  0  0  0  0  0  0  0  0  0  0  0
   34.2560   26.7690   37.0600 C   0  0  0  0  0  0  0  0  0  0  0  0
   34.7820   25.5460   37.3840 C   0  0  0  0  0  0  0  0  0  0  0  0
   35.7510   25.3870   38.3490 C   0  0  0  0  0  0  0  0  0  0  0  0
   36.1870   26.5460   38.9950 C   0  0  0  0  0  0  0  0  0  0  0  0
   34.2930   28.8720   37.4650 H   0  0  0  0  0  0  0  0  0  0  0  0
   33.4940   26.9220   36.3070 H   0  0  0  0  0  0  0  0  0  0  0  0
   34.4390   24.6570   36.8790 H   0  0  0  0  0  0  0  0  0  0  0  0
   36.1870   24.4280   38.6260 H   0  0  0  0  0  0  0  0  0  0  0  0
   37.4200   25.7220   41.1490 C   0  0  0  0  0  0  0  0  0  0  0  0
   36.6900   24.8330   41.5720 O   0  0  0  0  0  0  0  0  0  0  0  0
   37.1760   26.5200   40.0050 N   0  0  0  0  0  0  0  0  0  0  0  0
   37.8460   27.3080   39.7750 H   0  0  0  0  0  0  0  0  0  0  0  0
   38.6160   25.9580   41.8880 N   0  0  0  0  0  0  0  0  0  0  0  0
   39.3560   24.7740   42.2790 C   0  0  0  0  0  3  0  0  0  0  0  0
   38.8710   24.2460   43.1230 H   0  0  0  0  0  0  0  0  0  0  0  0
   40.8120   25.0890   42.5010 C   0  0  0  0  0  3  0  0  0  0  0  0
   41.2710   25.2130   41.4770 H   0  0  0  0  0  0  0  0  0  0  0  0
   41.0700   26.2120   43.3400 N   0  0  0  0  0  0  0  0  0  0  0  0
   41.5090   25.9170   44.2410 H   0  0  0  0  0  0  0  0  0  0  0  0
   39.8510   26.9170   43.6570 C   0  0  0  0  0  2  0  0  0  0  0  0
   39.1950   27.2210   42.3030 C   0  0  0  0  0  2  0  0  0  0  0  0
   37.0010   31.2230   39.4540 C   0  0  0  0  0  0  0  0  0  0  0  0
   36.6280   30.0950   38.7130 C   0  0  0  0  0  0  0  0  0  0  0  0
   36.1110   29.0020   39.3470 C   0  0  0  0  0  0  0  0  0  0  0  0
   35.9890   29.0840   40.7070 N   0  0  0  0  0  0  0  0  0  0  0  0
   36.3450   30.1650   41.4260 C   0  0  0  0  0  0  0  0  0  0  0  0
   36.8570   31.2460   40.7920 N   0  0  0  0  0  0  0  0  0  0  0  0
   36.7350   30.0550   37.6350 H   0  0  0  0  0  0  0  0  0  0  0  0
   36.2210   30.1630   42.5040 H   0  0  0  0  0  0  0  0  0  0  0  0
   37.5610   32.4100   38.7780 C   0  0  0  0  0  0  0  0  0  0  0  0
   36.7740   33.5130   39.1430 F   0  0  0  0  0  0  0  0  0  0  0  0
   37.3450   32.2340   37.4190 F   0  0  0  0  0  0  0  0  0  0  0  0
   38.8740   32.6460   39.0810 F   0  0  0  0  0  0  0  0  0  0  0  0
  1  6  1  0  0  0  0
  1 26  1  0  0  0  0
  2  1  2  0  0  0  0
  3  4  2  0  0  0  0
  3  2  1  0  0  0  0
  4  5  1  0  0  0  0
  5 10  1  0  0  0  0
  5  6  2  0  0  0  0
  6 13  1  0  0  0  0
  7  2  1  0  0  0  0
  8  3  1  0  0  0  0
  9  4  1  0  0  0  0
 11 12  2  0  0  0  0
 11 15  1  0  0  0  0
 13 11  1  0  0  0  0
 14 13  1  0  0  0  0
 15 16  1  0  0  0  0
 15 23  1  0  0  0  0
 16 18  1  0  0  0  0
 16 17  1  0  0  0  0
 18 20  1  0  0  0  0
 19 18  1  0  0  0  0
 20 22  1  0  0  0  0
 20 21  1  0  0  0  0
 23 22  1  0  0  0  0
 24 29  1  0  0  0  0
 25 26  1  0  0  0  0
 25 24  2  0  0  0  0
 26 27  2  0  0  0  0
 27 28  1  0  0  0  0
 28 31  1  0  0  0  0
 29 28  2  0  0  0  0
 30 25  1  0  0  0  0
 32 35  1  0  0  0  0
 32 33  1  0  0  0  0
 32 24  1  0  0  0  0
 34 32  1  0  0  0  0
M  END
>  <minimizedAffinity>
-5.78189945

$$$$

 OpenBabel03252502293D

 35 37  0  0  0  0  0  0  0  0999 V2000
   37.8660   26.6110   41.7640 C   0  0  0  0  0  0  0  0  0  0  0  0
   37.2010   25.3960   41.8300 C   0  0  0  0  0  0  0  0  0  0  0  0
   37.8880   24.2800   42.3000 C   0  0  0  0  0  0  0  0  0  0  0  0
   39.1970   24.4060   42.6860 C   0  0  0  0  0  0  0  0  0  0  0  0
   39.8760   25.6030   42.6300 C   0  0  0  0  0  0  0  0  0  0  0  0
   39.1620   26.7050   42.1540 C   0  0  0  0  0  0  0  0  0  0  0  0
   36.1690   25.2960   41.5260 H   0  0  0  0  0  0  0  0  0  0  0  0
   37.3320   23.3530   42.3340 H   0  0  0  0  0  0  0  0  0  0  0  0
   39.7400   23.5490   43.0520 H   0  0  0  0  0  0  0  0  0  0  0  0
   40.9150   25.7310   42.9300 H   0  0  0  0  0  0  0  0  0  0  0  0
   40.6510   28.6090   41.1570 C   0  0  0  0  0  0  0  0  0  0  0  0
   41.2350   28.0590   40.2310 O   0  0  0  0  0  0  0  0  0  0  0  0
   39.7410   27.9900   42.0480 N   0  0  0  0  0  0  0  0  0  0  0  0
   39.3500   28.5520   42.8570 H   0  0  0  0  0  0  0  0  0  0  0  0
   40.9250   29.9970   41.3360 N   0  0  0  0  0  0  0  0  0  0  0  0
   40.9240   30.7980   40.1270 C   0  0  0  0  0  3  0  0  0  0  0  0
   41.8410   30.6360   39.5260 H   0  0  0  0  0  0  0  0  0  0  0  0
   40.6320   32.2430   40.4300 C   0  0  0  0  0  3  0  0  0  0  0  0
   39.5250   32.3060   40.6440 H   0  0  0  0  0  0  0  0  0  0  0  0
   41.4100   32.8150   41.4800 N   0  0  0  0  0  0  0  0  0  0  0  0
   42.0640   33.5410   41.1110 H   0  0  0  0  0  0  0  0  0  0  0  0
   42.2020   31.8090   42.1480 C   0  0  0  0  0  2  0  0  0  0  0  0
   41.2050   30.7180   42.5630 C   0  0  0  0  0  2  0  0  0  0  0  0
   35.5810   28.8640   39.7810 C   0  0  0  0  0  0  0  0  0  0  0  0
   36.2810   27.7130   40.1610 C   0  0  0  0  0  0  0  0  0  0  0  0
   37.0870   27.7360   41.2640 C   0  0  0  0  0  0  0  0  0  0  0  0
   37.1590   28.9200   41.9440 N   0  0  0  0  0  0  0  0  0  0  0  0
   36.4900   30.0310   41.5840 C   0  0  0  0  0  0  0  0  0  0  0  0
   35.6920   30.0020   40.4910 N   0  0  0  0  0  0  0  0  0  0  0  0
   36.2070   26.7850   39.6050 H   0  0  0  0  0  0  0  0  0  0  0  0
   36.5920   30.9390   42.1700 H   0  0  0  0  0  0  0  0  0  0  0  0
   34.7080   28.8490   38.5910 C   0  0  0  0  0  0  0  0  0  0  0  0
   33.4020   29.1250   39.0250 F   0  0  0  0  0  0  0  0  0  0  0  0
   34.6780   27.5390   38.1350 F   0  0  0  0  0  0  0  0  0  0  0  0
   35.0830   29.7410   37.6240 F   0  0  0  0  0  0  0  0  0  0  0  0
  1  2  2  0  0  0  0
  1  6  1  0  0  0  0
  2  3  1  0  0  0  0
  3  8  1  0  0  0  0
  3  4  2  0  0  0  0
  4  9  1  0  0  0  0
  5  4  1  0  0  0  0
  5 10  1  0  0  0  0
  6  5  2  0  0  0  0
  7  2  1  0  0  0  0
 11 15  1  0  0  0  0
 11 13  1  0  0  0  0
 12 11  2  0  0  0  0
 13  6  1  0  0  0  0
 13 14  1  0  0  0  0
 15 23  1  0  0  0  0
 16 18  1  0  0  0  0
 16 15  1  0  0  0  0
 17 16  1  0  0  0  0
 18 19  1  0  0  0  0
 18 20  1  0  0  0  0
 20 22  1  0  0  0  0
 21 20  1  0  0  0  0
 22 23  1  0  0  0  0
 24 25  2  0  0  0  0
 24 29  1  0  0  0  0
 25 26  1  0  0  0  0
 26  1  1  0  0  0  0
 26 27  2  0  0  0  0
 28 27  1  0  0  0  0
 28 31  1  0  0  0  0
 29 28  2  0  0  0  0
 30 25  1  0  0  0  0
 32 33  1  0  0  0  0
 32 24  1  0  0  0  0
 34 32  1  0  0  0  0
 35 32  1  0  0  0  0
M  END
>  <minimizedAffinity>
-5.75990105

$$$$

 OpenBabel03252502293D

 35 37  0  0  0  0  0  0  0  0999 V2000
   37.7680   31.1840   39.5430 C   0  0  0  0  0  0  0  0  0  0  0  0
   37.6170   32.4870   39.0950 C   0  0  0  0  0  0  0  0  0  0  0  0
   38.2210   33.5170   39.8120 C   0  0  0  0  0  0  0  0  0  0  0  0
   38.9450   33.2220   40.9370 C   0  0  0  0  0  0  0  0  0  0  0  0
   39.1080   31.9350   41.3990 C   0  0  0  0  0  0  0  0  0  0  0  0
   38.4910   30.9230   40.6610 C   0  0  0  0  0  0  0  0  0  0  0  0
   37.0460   32.7210   38.2070 H   0  0  0  0  0  0  0  0  0  0  0  0
   38.0770   34.5180   39.4270 H   0  0  0  0  0  0  0  0  0  0  0  0
   39.4170   34.0100   41.5010 H   0  0  0  0  0  0  0  0  0  0  0  0
   39.6770   31.6720   42.2900 H   0  0  0  0  0  0  0  0  0  0  0  0
   38.1620   28.7910   42.1390 C   0  0  0  0  0  0  0  0  0  0  0  0
   37.6330   29.2270   43.1540 O   0  0  0  0  0  0  0  0  0  0  0  0
   38.5820   29.5600   41.0260 N   0  0  0  0  0  0  0  0  0  0  0  0
   39.0920   29.0800   40.2310 H   0  0  0  0  0  0  0  0  0  0  0  0
   38.3620   27.3800   42.0910 N   0  0  0  0  0  0  0  0  0  0  0  0
   37.2380   26.5720   42.5220 C   0  0  0  0  0  3  0  0  0  0  0  0
   37.1260   26.5760   43.6240 H   0  0  0  0  0  0  0  0  0  0  0  0
   37.2900   25.1960   41.9120 C   0  0  0  0  0  3  0  0  0  0  0  0
   36.9770   25.3140   40.8330 H   0  0  0  0  0  0  0  0  0  0  0  0
   38.5410   24.5230   42.0330 N   0  0  0  0  0  0  0  0  0  0  0  0
   38.4650   23.6970   42.6670 H   0  0  0  0  0  0  0  0  0  0  0  0
   39.5530   25.3990   42.5740 C   0  0  0  0  0  2  0  0  0  0  0  0
   39.5380   26.6420   41.6720 C   0  0  0  0  0  2  0  0  0  0  0  0
   35.2520   28.9360   37.8560 C   0  0  0  0  0  0  0  0  0  0  0  0
   35.7620   29.9610   38.6620 C   0  0  0  0  0  0  0  0  0  0  0  0
   37.1110   30.1570   38.7440 C   0  0  0  0  0  0  0  0  0  0  0  0
   37.8990   29.3130   38.0120 N   0  0  0  0  0  0  0  0  0  0  0  0
   37.4150   28.3250   37.2360 C   0  0  0  0  0  0  0  0  0  0  0  0
   36.0770   28.1350   37.1570 N   0  0  0  0  0  0  0  0  0  0  0  0
   35.1160   30.6180   39.2330 H   0  0  0  0  0  0  0  0  0  0  0  0
   38.0980   27.6900   36.6800 H   0  0  0  0  0  0  0  0  0  0  0  0
   33.7950   28.7150   37.7600 C   0  0  0  0  0  0  0  0  0  0  0  0
   33.5930   27.3500   37.5060 F   0  0  0  0  0  0  0  0  0  0  0  0
   33.3670   29.3730   36.6160 F   0  0  0  0  0  0  0  0  0  0  0  0
   33.1080   29.0940   38.8800 F   0  0  0  0  0  0  0  0  0  0  0  0
  1  6  1  0  0  0  0
  2  1  2  0  0  0  0
  2  3  1  0  0  0  0
  3  4  2  0  0  0  0
  4  5  1  0  0  0  0
  4  9  1  0  0  0  0
  5 10  1  0  0  0  0
  6 13  1  0  0  0  0
  6  5  2  0  0  0  0
  7  2  1  0  0  0  0
  8  3  1  0  0  0  0
 11 12  2  0  0  0  0
 13 11  1  0  0  0  0
 14 13  1  0  0  0  0
 15 11  1  0  0  0  0
 15 16  1  0  0  0  0
 16 17  1  0  0  0  0
 18 20  1  0  0  0  0
 18 16  1  0  0  0  0
 19 18  1  0  0  0  0
 20 22  1  0  0  0  0
 20 21  1  0  0  0  0
 23 15  1  0  0  0  0
 23 22  1  0  0  0  0
 24 25  1  0  0  0  0
 25 26  2  0  0  0  0
 25 30  1  0  0  0  0
 26  1  1  0  0  0  0
 27 26  1  0  0  0  0
 28 27  2  0  0  0  0
 29 28  1  0  0  0  0
 29 24  2  0  0  0  0
 31 28  1  0  0  0  0
 32 24  1  0  0  0  0
 32 35  1  0  0  0  0
 33 32  1  0  0  0  0
 34 32  1  0  0  0  0
M  END
>  <minimizedAffinity>
-5.6730938

$$$$

 OpenBabel03252502293D

 35 37  0  0  0  0  0  0  0  0999 V2000
   36.4570   29.3510   36.9580 C   0  0  0  0  0  0  0  0  0  0  0  0
   36.1560   29.6570   35.6400 C   0  0  0  0  0  0  0  0  0  0  0  0
   35.1980   28.8950   34.9760 C   0  0  0  0  0  0  0  0  0  0  0  0
   34.5770   27.8680   35.6360 C   0  0  0  0  0  0  0  0  0  0  0  0
   34.8600   27.5470   36.9440 C   0  0  0  0  0  0  0  0  0  0  0  0
   35.8250   28.3270   37.5850 C   0  0  0  0  0  0  0  0  0  0  0  0
   36.6450   30.4680   35.1180 H   0  0  0  0  0  0  0  0  0  0  0  0
   34.9950   29.1690   33.9490 H   0  0  0  0  0  0  0  0  0  0  0  0
   33.8330   27.2710   35.1320 H   0  0  0  0  0  0  0  0  0  0  0  0
   34.3820   26.7360   37.4920 H   0  0  0  0  0  0  0  0  0  0  0  0
   36.4500   26.9580   39.7230 C   0  0  0  0  0  0  0  0  0  0  0  0
   36.2910   25.7940   39.3720 O   0  0  0  0  0  0  0  0  0  0  0  0
   36.2060   28.1030   38.9280 N   0  0  0  0  0  0  0  0  0  0  0  0
   36.3130   29.0640   39.3630 H   0  0  0  0  0  0  0  0  0  0  0  0
   36.9230   27.1540   41.0530 N   0  0  0  0  0  0  0  0  0  0  0  0
   38.0210   26.2980   41.4610 C   0  0  0  0  0  3  0  0  0  0  0  0
   37.6800   25.2650   41.6740 H   0  0  0  0  0  0  0  0  0  0  0  0
   38.8190   26.9270   42.5730 C   0  0  0  0  0  3  0  0  0  0  0  0
   39.4410   27.7400   42.0980 H   0  0  0  0  0  0  0  0  0  0  0  0
   38.0520   27.4150   43.6720 N   0  0  0  0  0  0  0  0  0  0  0  0
   38.2280   26.8530   44.5340 H   0  0  0  0  0  0  0  0  0  0  0  0
   36.6380   27.3520   43.3890 C   0  0  0  0  0  2  0  0  0  0  0  0
   36.4570   28.0920   42.0560 C   0  0  0  0  0  2  0  0  0  0  0  0
   38.2810   32.0490   38.8620 C   0  0  0  0  0  0  0  0  0  0  0  0
   37.2190   31.3290   38.3000 C   0  0  0  0  0  0  0  0  0  0  0  0
   37.4670   30.1890   37.5910 C   0  0  0  0  0  0  0  0  0  0  0  0
   38.7770   29.8150   37.4710 N   0  0  0  0  0  0  0  0  0  0  0  0
   39.8030   30.5020   38.0080 C   0  0  0  0  0  0  0  0  0  0  0  0
   39.5510   31.6310   38.7120 N   0  0  0  0  0  0  0  0  0  0  0  0
   36.1880   31.6460   38.4100 H   0  0  0  0  0  0  0  0  0  0  0  0
   40.8200   30.1480   37.8750 H   0  0  0  0  0  0  0  0  0  0  0  0
   38.0230   33.2830   39.6310 C   0  0  0  0  0  0  0  0  0  0  0  0
   37.6690   32.8990   40.9340 F   0  0  0  0  0  0  0  0  0  0  0  0
   36.8820   33.8580   39.0910 F   0  0  0  0  0  0  0  0  0  0  0  0
   39.0870   34.1410   39.6630 F   0  0  0  0  0  0  0  0  0  0  0  0
  1  6  1  0  0  0  0
  1 26  1  0  0  0  0
  2  1  2  0  0  0  0
  3  4  2  0  0  0  0
  3  2  1  0  0  0  0
  4  5  1  0  0  0  0
  5 10  1  0  0  0  0
  5  6  2  0  0  0  0
  6 13  1  0  0  0  0
  7  2  1  0  0  0  0
  8  3  1  0  0  0  0
  9  4  1  0  0  0  0
 11 15  1  0  0  0  0
 12 11  2  0  0  0  0
 13 14  1  0  0  0  0
 13 11  1  0  0  0  0
 15 16  1  0  0  0  0
 15 23  1  0  0  0  0
 16 17  1  0  0  0  0
 16 18  1  0  0  0  0
 18 20  1  0  0  0  0
 19 18  1  0  0  0  0
 20 21  1  0  0  0  0
 22 20  1  0  0  0  0
 23 22  1  0  0  0  0
 24 32  1  0  0  0  0
 25 30  1  0  0  0  0
 25 24  2  0  0  0  0
 26 25  1  0  0  0  0
 27 26  2  0  0  0  0
 27 28  1  0  0  0  0
 28 29  2  0  0  0  0
 29 24  1  0  0  0  0
 31 28  1  0  0  0  0
 32 35  1  0  0  0  0
 32 33  1  0  0  0  0
 34 32  1  0  0  0  0
M  END
>  <minimizedAffinity>
-5.65685415

$$$$

 OpenBabel03252502293D

 35 37  0  0  0  0  0  0  0  0999 V2000
   35.8890   27.9350   38.4430 C   0  0  0  0  0  0  0  0  0  0  0  0
   34.9720   27.0720   37.8630 C   0  0  0  0  0  0  0  0  0  0  0  0
   34.5150   27.3440   36.5750 C   0  0  0  0  0  0  0  0  0  0  0  0
   34.9810   28.4500   35.9150 C   0  0  0  0  0  0  0  0  0  0  0  0
   35.8920   29.3190   36.4700 C   0  0  0  0  0  0  0  0  0  0  0  0
   36.3320   29.0220   37.7630 C   0  0  0  0  0  0  0  0  0  0  0  0
   34.6040   26.1990   38.3830 H   0  0  0  0  0  0  0  0  0  0  0  0
   33.8000   26.6460   36.1620 H   0  0  0  0  0  0  0  0  0  0  0  0
   34.6360   28.6720   34.9170 H   0  0  0  0  0  0  0  0  0  0  0  0
   36.2790   30.2050   35.9680 H   0  0  0  0  0  0  0  0  0  0  0  0
   37.8500   31.1020   38.2170 C   0  0  0  0  0  0  0  0  0  0  0  0
   37.6840   31.7980   37.2230 O   0  0  0  0  0  0  0  0  0  0  0  0
   37.2670   29.8320   38.4460 N   0  0  0  0  0  0  0  0  0  0  0  0
   37.5400   29.2900   39.3150 H   0  0  0  0  0  0  0  0  0  0  0  0
   38.7090   31.6360   39.2220 N   0  0  0  0  0  0  0  0  0  0  0  0
   38.4960   33.0320   39.5520 C   0  0  0  0  0  3  0  0  0  0  0  0
   38.8970   33.7060   38.7700 H   0  0  0  0  0  0  0  0  0  0  0  0
   38.9800   33.3430   40.9440 C   0  0  0  0  0  3  0  0  0  0  0  0
   38.2140   32.9100   41.6520 H   0  0  0  0  0  0  0  0  0  0  0  0
   40.2990   32.8920   41.2450 N   0  0  0  0  0  0  0  0  0  0  0  0
   40.9520   33.6970   41.3740 H   0  0  0  0  0  0  0  0  0  0  0  0
   40.8230   32.0690   40.1810 C   0  0  0  0  0  2  0  0  0  0  0  0
   39.7680   30.9750   39.9590 C   0  0  0  0  0  2  0  0  0  0  0  0
   37.2680   26.1910   41.4910 C   0  0  0  0  0  0  0  0  0  0  0  0
   36.8920   26.4030   40.1580 C   0  0  0  0  0  0  0  0  0  0  0  0
   36.3240   27.5890   39.7900 C   0  0  0  0  0  0  0  0  0  0  0  0
   36.1530   28.5190   40.7770 N   0  0  0  0  0  0  0  0  0  0  0  0
   36.5120   28.3220   42.0600 C   0  0  0  0  0  0  0  0  0  0  0  0
   37.0750   27.1450   42.4200 N   0  0  0  0  0  0  0  0  0  0  0  0
   37.0380   25.6490   39.3930 H   0  0  0  0  0  0  0  0  0  0  0  0
   36.3480   29.1050   42.7940 H   0  0  0  0  0  0  0  0  0  0  0  0
   37.8830   24.9130   41.8990 C   0  0  0  0  0  0  0  0  0  0  0  0
   38.3290   24.2700   40.7340 F   0  0  0  0  0  0  0  0  0  0  0  0
   36.8580   24.1170   42.3920 F   0  0  0  0  0  0  0  0  0  0  0  0
   38.9160   25.0590   42.7840 F   0  0  0  0  0  0  0  0  0  0  0  0
  1 26  1  0  0  0  0
  2  7  1  0  0  0  0
  2  1  1  0  0  0  0
  3  2  2  0  0  0  0
  4  5  2  0  0  0  0
  4  3  1  0  0  0  0
  5  6  1  0  0  0  0
  6  1  2  0  0  0  0
  6 13  1  0  0  0  0
  8  3  1  0  0  0  0
  9  4  1  0  0  0  0
 10  5  1  0  0  0  0
 11 13  1  0  0  0  0
 11 15  1  0  0  0  0
 12 11  2  0  0  0  0
 13 14  1  0  0  0  0
 15 16  1  0  0  0  0
 15 23  1  0  0  0  0
 16 18  1  0  0  0  0
 17 16  1  0  0  0  0
 18 20  1  0  0  0  0
 18 19  1  0  0  0  0
 20 21  1  0  0  0  0
 22 20  1  0  0  0  0
 23 22  1  0  0  0  0
 24 32  1  0  0  0  0
 24 29  1  0  0  0  0
 25 24  2  0  0  0  0
 26 25  1  0  0  0  0
 26 27  2  0  0  0  0
 27 28  1  0  0  0  0
 28 29  2  0  0  0  0
 28 31  1  0  0  0  0
 30 25  1  0  0  0  0
 32 34  1  0  0  0  0
 32 35  1  0  0  0  0
 33 32  1  0  0  0  0
M  END
>  <minimizedAffinity>
-5.64703083

$$$$

 OpenBabel03252502293D

 35 37  0  0  0  0  0  0  0  0999 V2000
   37.6820   29.2520   41.5630 C   0  0  0  0  0  0  0  0  0  0  0  0
   37.8180   29.2920   42.9420 C   0  0  0  0  0  0  0  0  0  0  0  0
   37.5170   28.1490   43.6790 C   0  0  0  0  0  0  0  0  0  0  0  0
   37.0970   27.0180   43.0290 C   0  0  0  0  0  0  0  0  0  0  0  0
   36.9560   26.9560   41.6610 C   0  0  0  0  0  0  0  0  0  0  0  0
   37.2640   28.1170   40.9480 C   0  0  0  0  0  0  0  0  0  0  0  0
   38.1490   30.1830   43.4560 H   0  0  0  0  0  0  0  0  0  0  0  0
   37.6370   28.2240   44.7520 H   0  0  0  0  0  0  0  0  0  0  0  0
   36.8610   26.1270   43.5890 H   0  0  0  0  0  0  0  0  0  0  0  0
   36.6240   26.0720   41.1200 H   0  0  0  0  0  0  0  0  0  0  0  0
   36.1070   28.4000   38.6200 C   0  0  0  0  0  0  0  0  0  0  0  0
   34.9200   28.5120   38.9030 O   0  0  0  0  0  0  0  0  0  0  0  0
   37.1620   28.1860   39.5400 N   0  0  0  0  0  0  0  0  0  0  0  0
   38.1440   28.0350   39.1700 H   0  0  0  0  0  0  0  0  0  0  0  0
   36.4340   28.4970   37.2360 N   0  0  0  0  0  0  0  0  0  0  0  0
   35.7930   29.5780   36.5130 C   0  0  0  0  0  3  0  0  0  0  0  0
   34.7270   29.3580   36.3050 H   0  0  0  0  0  0  0  0  0  0  0  0
   36.5910   29.9730   35.2990 C   0  0  0  0  0  3  0  0  0  0  0  0
   37.4780   30.5610   35.6790 H   0  0  0  0  0  0  0  0  0  0  0  0
   36.9890   28.8950   34.4550 N   0  0  0  0  0  0  0  0  0  0  0  0
   36.5000   28.9380   33.5330 H   0  0  0  0  0  0  0  0  0  0  0  0
   36.6770   27.6200   35.0570 C   0  0  0  0  0  2  0  0  0  0  0  0
   37.3220   27.6610   36.4500 C   0  0  0  0  0  2  0  0  0  0  0  0
   39.4660   32.1140   39.8740 C   0  0  0  0  0  0  0  0  0  0  0  0
   39.2770   30.9090   40.5610 C   0  0  0  0  0  0  0  0  0  0  0  0
   38.0140   30.4820   40.8560 C   0  0  0  0  0  0  0  0  0  0  0  0
   36.9850   31.2860   40.4490 N   0  0  0  0  0  0  0  0  0  0  0  0
   37.1590   32.4460   39.7890 C   0  0  0  0  0  0  0  0  0  0  0  0
   38.4140   32.8640   39.4980 N   0  0  0  0  0  0  0  0  0  0  0  0
   40.1100   30.2890   40.8720 H   0  0  0  0  0  0  0  0  0  0  0  0
   36.2970   33.0360   39.4950 H   0  0  0  0  0  0  0  0  0  0  0  0
   40.8270   32.5840   39.5500 C   0  0  0  0  0  0  0  0  0  0  0  0
   41.4310   32.9850   40.7520 F   0  0  0  0  0  0  0  0  0  0  0  0
   40.6810   33.7450   38.8030 F   0  0  0  0  0  0  0  0  0  0  0  0
   41.5980   31.6430   38.9240 F   0  0  0  0  0  0  0  0  0  0  0  0
  1  2  1  0  0  0  0
  2  7  1  0  0  0  0
  2  3  2  0  0  0  0
  3  8  1  0  0  0  0
  4  9  1  0  0  0  0
  4  3  1  0  0  0  0
  5  4  2  0  0  0  0
  6  1  2  0  0  0  0
  6  5  1  0  0  0  0
 10  5  1  0  0  0  0
 11 12  2  0  0  0  0
 11 13  1  0  0  0  0
 13  6  1  0  0  0  0
 14 13  1  0  0  0  0
 15 11  1  0  0  0  0
 16 15  1  0  0  0  0
 17 16  1  0  0  0  0
 18 19  1  0  0  0  0
 18 16  1  0  0  0  0
 20 22  1  0  0  0  0
 20 18  1  0  0  0  0
 21 20  1  0  0  0  0
 22 23  1  0  0  0  0
 23 15  1  0  0  0  0
 24 25  1  0  0  0  0
 25 26  2  0  0  0  0
 25 30  1  0  0  0  0
 26  1  1  0  0  0  0
 27 26  1  0  0  0  0
 28 27  2  0  0  0  0
 29 28  1  0  0  0  0
 29 24  2  0  0  0  0
 31 28  1  0  0  0  0
 32 24  1  0  0  0  0
 32 33  1  0  0  0  0
 34 32  1  0  0  0  0
 35 32  1  0  0  0  0
M  END
>  <minimizedAffinity>
-5.64100409

$$$$
