
 OpenBabel03242521183D

 38 40  0  0  0  0  0  0  0  0999 V2000
   44.4890   35.7160   44.6950 C   0  0  0  0  0  0  0  0  0  0  0  0
   45.0880   35.6560   43.4180 C   0  0  0  0  0  0  0  0  0  0  0  0
   46.1120   34.7280   43.2500 C   0  0  0  0  0  0  0  0  0  0  0  0
   46.4890   33.9280   44.3100 N   0  0  0  0  0  0  0  0  0  0  0  0
   45.8830   34.0320   45.4980 C   0  0  0  0  0  0  0  0  0  0  0  0
   44.8740   34.9240   45.7150 N   0  0  0  0  0  0  0  0  0  0  0  0
   43.6870   36.4170   44.8890 H   0  0  0  0  0  0  0  0  0  0  0  0
   44.7510   36.3070   42.6260 H   0  0  0  0  0  0  0  0  0  0  0  0
   46.7330   34.6500   41.9660 N   0  0  0  0  0  0  0  0  0  0  0  0
   47.9530   35.2220   41.8150 C   0  0  0  0  0  0  0  0  0  0  0  0
   48.5710   35.1590   40.5800 C   0  0  0  0  0  0  0  0  0  0  0  0
   47.9150   34.5150   39.5620 C   0  0  0  0  0  0  0  0  0  0  0  0
   48.4750   34.4520   38.4250 O   0  0  0  0  0  0  0  0  0  0  0  0
   46.7120   33.9470   39.7020 N   0  0  0  0  0  0  0  0  0  0  0  0
   46.1460   34.0370   40.9380 C   0  0  0  0  0  0  0  0  0  0  0  0
   45.0310   33.5440   41.1740 O   0  0  0  0  0  0  0  0  0  0  0  0
   48.4870   35.7370   42.6070 H   0  0  0  0  0  0  0  0  0  0  0  0
   49.5440   35.5990   40.4050 H   0  0  0  0  0  0  0  0  0  0  0  0
   46.2160   33.4520   38.9030 H   0  0  0  0  0  0  0  0  0  0  0  0
   46.4560   33.0750   46.4750 C   0  0  0  0  0  0  0  0  0  0  0  0
   47.1150   32.3370   45.9830 H   0  0  0  0  0  0  0  0  0  0  0  0
   47.0610   33.6890   47.1900 H   0  0  0  0  0  0  0  0  0  0  0  0
   45.3680   32.4410   47.3270 C   0  0  0  0  0  0  0  0  0  0  0  0
   45.4780   32.6120   48.3980 H   0  0  0  0  0  0  0  0  0  0  0  0
   44.3980   32.8920   47.0360 H   0  0  0  0  0  0  0  0  0  0  0  0
   46.0830   30.1480   47.8030 C   0  0  0  0  0  0  0  0  0  0  0  0
   46.7780   30.6370   48.7110 O   0  0  0  0  0  0  0  0  0  0  0  0
   45.3220   31.0290   47.0270 N   0  0  0  0  0  0  0  0  0  0  0  0
   44.7170   30.7370   46.2380 H   0  0  0  0  0  0  0  0  0  0  0  0
   46.0530   28.7470   47.5520 N   0  0  0  0  0  0  0  0  0  0  0  0
   47.1540   28.0660   46.8960 C   0  0  0  0  0  0  0  0  0  0  0  0
   47.9600   28.7340   46.6050 H   0  0  0  0  0  0  0  0  0  0  0  0
   47.6210   26.8750   47.7040 C   0  0  0  0  0  0  0  0  0  0  0  0
   48.3580   27.2680   48.4430 H   0  0  0  0  0  0  0  0  0  0  0  0
   46.5720   26.2320   48.4180 N   0  0  0  0  0  0  0  0  0  0  0  0
   46.6930   26.1030   49.4250 H   0  0  0  0  0  0  0  0  0  0  0  0
   45.2400   26.4940   47.9540 C   0  0  0  0  0  0  0  0  0  0  0  0
   44.8990   27.9660   47.9550 C   0  0  0  0  0  0  0  0  0  0  0  0
  1  7  1  0  0  0  0
  1  6  1  0  0  0  0
  2  1  2  0  0  0  0
  3  2  1  0  0  0  0
  3  4  2  0  0  0  0
  4  5  1  0  0  0  0
  5  6  2  0  0  0  0
  5 20  1  0  0  0  0
  8  2  1  0  0  0  0
  9  3  1  0  0  0  0
 10  9  1  0  0  0  0
 10 17  1  0  0  0  0
 11 10  2  0  0  0  0
 12 14  1  0  0  0  0
 12 11  1  0  0  0  0
 13 12  2  0  0  0  0
 14 15  1  0  0  0  0
 15 16  2  0  0  0  0
 15  9  1  0  0  0  0
 18 11  1  0  0  0  0
 19 14  1  0  0  0  0
 20 22  1  0  0  0  0
 20 23  1  0  0  0  0
 21 20  1  0  0  0  0
 23 24  1  0  0  0  0
 25 23  1  0  0  0  0
 26 27  2  0  0  0  0
 28 23  1  0  0  0  0
 28 26  1  0  0  0  0
 29 28  1  0  0  0  0
 30 26  1  0  0  0  0
 30 38  1  0  0  0  0
 31 30  1  0  0  0  0
 31 33  1  0  0  0  0
 32 31  1  0  0  0  0
 33 35  1  0  0  0  0
 33 34  1  0  0  0  0
 35 36  1  0  0  0  0
 37 38  1  0  0  0  0
 37 35  1  0  0  0  0
M  END
>  <minimizedAffinity>
-6.52707243

>  <minimizedRMSD>
1.50216341

$$$$
