
 OpenBabel03252501113D

 20 21  0  0  0  0  0  0  0  0999 V2000
   46.8840   34.8950   41.9740 C   0  0  0  0  0  0  0  0  0  0  0  0
   47.9710   35.4890   41.7770 O   0  0  0  0  0  0  0  0  0  0  0  0
   46.3570   34.1500   40.8790 N   0  0  0  0  0  0  0  0  0  0  0  0
   47.1680   33.8200   39.7410 C   0  0  0  0  0  3  0  0  0  0  0  0
   47.2630   34.6660   39.0400 H   0  0  0  0  0  0  0  0  0  0  0  0
   46.7180   32.5520   39.0680 C   0  0  0  0  0  3  0  0  0  0  0  0
   46.9580   31.6870   39.7200 H   0  0  0  0  0  0  0  0  0  0  0  0
   45.3390   32.5590   38.6830 N   0  0  0  0  0  0  0  0  0  0  0  0
   45.2230   32.7510   37.6740 H   0  0  0  0  0  0  0  0  0  0  0  0
   44.5150   33.4670   39.4300 C   0  0  0  0  0  2  0  0  0  0  0  0
   45.0000   33.6860   40.8420 C   0  0  0  0  0  2  0  0  0  0  0  0
   44.5560   36.0370   44.5950 C   0  0  0  0  0  0  0  0  0  0  0  0
   45.2830   35.9910   43.3980 C   0  0  0  0  0  0  0  0  0  0  0  0
   46.1490   34.9180   43.2140 C   0  0  0  0  0  0  0  0  0  0  0  0
   46.2450   33.9750   44.1940 N   0  0  0  0  0  0  0  0  0  0  0  0
   45.5200   34.0630   45.3350 C   0  0  0  0  0  0  0  0  0  0  0  0
   44.6690   35.1010   45.5390 N   0  0  0  0  0  0  0  0  0  0  0  0
   43.8660   36.8550   44.7880 H   0  0  0  0  0  0  0  0  0  0  0  0
   45.1160   36.7940   42.7090 H   0  0  0  0  0  0  0  0  0  0  0  0
   45.7630   33.2070   45.9580 H   0  0  0  0  0  0  0  0  0  0  0  0
  1 14  1  0  0  0  0
  2  1  2  0  0  0  0
  3  1  1  0  0  0  0
  4  3  1  0  0  0  0
  5  4  1  0  0  0  0
  6  7  1  0  0  0  0
  6  4  1  0  0  0  0
  8  6  1  0  0  0  0
  8 10  1  0  0  0  0
  9  8  1  0  0  0  0
 10 11  1  0  0  0  0
 11  3  1  0  0  0  0
 12 18  1  0  0  0  0
 12 17  1  0  0  0  0
 13 12  2  0  0  0  0
 14 13  1  0  0  0  0
 14 15  2  0  0  0  0
 15 16  1  0  0  0  0
 16 17  2  0  0  0  0
 16 20  1  0  0  0  0
 19 13  1  0  0  0  0
M  END
>  <minimizedAffinity>
-4.22486687

>  <minimizedRMSD>
0.197913989

$$$$
