
 OpenBabel03252508513D

 28 30  0  0  0  0  0  0  0  0999 V2000
   45.9480   34.2170   41.0250 C   0  0  0  0  0  0  0  0  0  0  0  0
   46.5440   34.8130   42.1420 C   0  0  0  0  0  0  0  0  0  0  0  0
   47.9040   35.1470   42.0430 C   0  0  0  0  0  0  0  0  0  0  0  0
   48.5380   34.8640   40.8630 N   0  0  0  0  0  0  0  0  0  0  0  0
   47.9270   34.2950   39.8300 C   0  0  0  0  0  0  0  0  0  0  0  0
   46.6240   33.9610   39.8900 N   0  0  0  0  0  0  0  0  0  0  0  0
   48.3890   35.6110   42.8950 H   0  0  0  0  0  0  0  0  0  0  0  0
   48.5140   34.1170   38.9540 H   0  0  0  0  0  0  0  0  0  0  0  0
   45.7590   35.0610   43.3380 C   0  0  0  0  0  0  0  0  0  0  0  0
   45.0990   36.2500   43.5700 C   0  0  0  0  0  0  0  0  0  0  0  0
   44.5010   36.0390   44.8010 C   0  0  0  0  0  0  0  0  0  0  0  0
   44.7820   34.7970   45.2840 N   0  0  0  0  0  0  0  0  0  0  0  0
   45.5400   34.2390   44.3810 N   0  0  0  0  0  0  0  0  0  0  0  0
   45.0290   37.1550   42.9770 H   0  0  0  0  0  0  0  0  0  0  0  0
   43.8790   36.7830   45.3160 H   0  0  0  0  0  0  0  0  0  0  0  0
   44.4130   34.4670   46.2040 H   0  0  0  0  0  0  0  0  0  0  0  0
   44.6060   33.8850   41.1110 O   0  0  0  0  0  0  0  0  0  0  0  0
   43.5700   34.5860   40.5550 C   0  0  0  0  0  0  0  0  0  0  0  0
   43.2070   35.7820   40.7940 O   0  0  0  0  0  0  0  0  0  0  0  0
   42.5830   34.2220   39.5570 N   0  0  0  0  0  0  0  0  0  0  0  0
   41.4310   35.0930   39.4510 C   0  0  0  0  0  3  0  0  0  0  0  0
   41.6340   35.7130   38.5290 H   0  0  0  0  0  0  0  0  0  0  0  0
   40.2480   34.2020   39.1380 C   0  0  0  0  0  3  0  0  0  0  0  0
   39.3810   34.6060   39.7070 H   0  0  0  0  0  0  0  0  0  0  0  0
   40.4230   32.8480   39.6100 N   0  0  0  0  0  0  0  0  0  0  0  0
   39.5490   32.3350   39.3910 H   0  0  0  0  0  0  0  0  0  0  0  0
   41.5110   32.1650   38.9420 C   0  0  0  0  0  2  0  0  0  0  0  0
   42.6820   33.0690   38.6830 C   0  0  0  0  0  2  0  0  0  0  0  0
  1 17  1  0  0  0  0
  1  2  1  0  0  0  0
  2  9  1  0  0  0  0
  3  2  2  0  0  0  0
  3  7  1  0  0  0  0
  4  3  1  0  0  0  0
  5  6  1  0  0  0  0
  5  4  2  0  0  0  0
  6  1  2  0  0  0  0
  8  5  1  0  0  0  0
  9 10  1  0  0  0  0
  9 13  2  0  0  0  0
 10 11  2  0  0  0  0
 11 12  1  0  0  0  0
 11 15  1  0  0  0  0
 12 16  1  0  0  0  0
 13 12  1  0  0  0  0
 14 10  1  0  0  0  0
 18 19  2  0  0  0  0
 18 17  1  0  0  0  0
 20 18  1  0  0  0  0
 21 20  1  0  0  0  0
 22 21  1  0  0  0  0
 23 21  1  0  0  0  0
 23 25  1  0  0  0  0
 23 24  1  0  0  0  0
 26 25  1  0  0  0  0
 27 25  1  0  0  0  0
 28 27  1  0  0  0  0
 28 20  1  0  0  0  0
M  END
>  <minimizedAffinity>
-5.43919182

>  <minimizedRMSD>
0.494439304

$$$$
