
 OpenBabel03252502283D

 35 37  0  0  0  0  0  0  0  0999 V2000
   45.1330   34.4600   41.2640 C   0  0  0  0  0  0  0  0  0  0  0  0
   45.4830   35.0950   42.4460 C   0  0  0  0  0  0  0  0  0  0  0  0
   46.8290   35.3520   42.6960 C   0  0  0  0  0  0  0  0  0  0  0  0
   47.7700   34.9750   41.7750 C   0  0  0  0  0  0  0  0  0  0  0  0
   47.4450   34.3440   40.5950 C   0  0  0  0  0  0  0  0  0  0  0  0
   46.0880   34.0990   40.3710 C   0  0  0  0  0  0  0  0  0  0  0  0
   44.7410   35.3940   43.1740 H   0  0  0  0  0  0  0  0  0  0  0  0
   47.0580   35.8490   43.6290 H   0  0  0  0  0  0  0  0  0  0  0  0
   48.8160   35.1680   41.9560 H   0  0  0  0  0  0  0  0  0  0  0  0
   48.1720   34.0330   39.8460 H   0  0  0  0  0  0  0  0  0  0  0  0
   45.9980   32.3100   38.4660 C   0  0  0  0  0  0  0  0  0  0  0  0
   46.9680   31.5980   38.6990 O   0  0  0  0  0  0  0  0  0  0  0  0
   45.6200   33.4600   39.2000 N   0  0  0  0  0  0  0  0  0  0  0  0
   44.7990   34.0390   38.8620 H   0  0  0  0  0  0  0  0  0  0  0  0
   45.1910   31.9290   37.3550 N   0  0  0  0  0  0  0  0  0  0  0  0
   44.1020   31.0190   37.6520 C   0  0  0  0  0  3  0  0  0  0  0  0
   44.4640   29.9840   37.8160 H   0  0  0  0  0  0  0  0  0  0  0  0
   43.0000   31.1330   36.6300 C   0  0  0  0  0  3  0  0  0  0  0  0
   42.4530   32.0940   36.8610 H   0  0  0  0  0  0  0  0  0  0  0  0
   43.4240   31.0740   35.2700 N   0  0  0  0  0  0  0  0  0  0  0  0
   43.0830   30.2020   34.8080 H   0  0  0  0  0  0  0  0  0  0  0  0
   44.8640   31.0910   35.1710 C   0  0  0  0  0  2  0  0  0  0  0  0
   45.3090   32.3270   35.9650 C   0  0  0  0  0  2  0  0  0  0  0  0
   41.4480   34.8130   40.5370 C   0  0  0  0  0  0  0  0  0  0  0  0
   42.7940   35.1660   40.6930 C   0  0  0  0  0  0  0  0  0  0  0  0
   43.7080   34.2240   41.0680 C   0  0  0  0  0  0  0  0  0  0  0  0
   43.2340   32.9580   41.2750 N   0  0  0  0  0  0  0  0  0  0  0  0
   41.9410   32.6120   41.1280 C   0  0  0  0  0  0  0  0  0  0  0  0
   41.0390   33.5500   40.7540 N   0  0  0  0  0  0  0  0  0  0  0  0
   43.1460   36.1780   40.5220 H   0  0  0  0  0  0  0  0  0  0  0  0
   41.6320   31.5870   41.3080 H   0  0  0  0  0  0  0  0  0  0  0  0
   40.4520   35.8240   40.1310 C   0  0  0  0  0  0  0  0  0  0  0  0
   39.2340   35.1570   39.9300 F   0  0  0  0  0  0  0  0  0  0  0  0
   40.8360   36.2820   38.8790 F   0  0  0  0  0  0  0  0  0  0  0  0
   40.2930   36.8340   41.0410 F   0  0  0  0  0  0  0  0  0  0  0  0
  1  2  1  0  0  0  0
  2  3  2  0  0  0  0
  2  7  1  0  0  0  0
  3  8  1  0  0  0  0
  4  9  1  0  0  0  0
  4  3  1  0  0  0  0
  5  4  2  0  0  0  0
  6  5  1  0  0  0  0
  6  1  2  0  0  0  0
 10  5  1  0  0  0  0
 11 12  2  0  0  0  0
 11 13  1  0  0  0  0
 13  6  1  0  0  0  0
 14 13  1  0  0  0  0
 15 16  1  0  0  0  0
 15 11  1  0  0  0  0
 16 17  1  0  0  0  0
 18 19  1  0  0  0  0
 18 16  1  0  0  0  0
 20 18  1  0  0  0  0
 21 20  1  0  0  0  0
 22 20  1  0  0  0  0
 22 23  1  0  0  0  0
 23 15  1  0  0  0  0
 24 25  2  0  0  0  0
 24 29  1  0  0  0  0
 25 26  1  0  0  0  0
 26  1  1  0  0  0  0
 26 27  2  0  0  0  0
 28 27  1  0  0  0  0
 28 31  1  0  0  0  0
 29 28  2  0  0  0  0
 30 25  1  0  0  0  0
 32 24  1  0  0  0  0
 32 35  1  0  0  0  0
 33 32  1  0  0  0  0
 34 32  1  0  0  0  0
M  END
>  <minimizedAffinity>
-6.38555956

>  <minimizedRMSD>
0.454650044

$$$$
