
 OpenBabel03252501113D

 20 21  0  0  0  0  0  0  0  0999 V2000
   47.0060   34.7790   42.0210 C   0  0  0  0  0  0  0  0  0  0  0  0
   47.9720   35.5300   41.7490 O   0  0  0  0  0  0  0  0  0  0  0  0
   46.6740   33.7900   41.0500 N   0  0  0  0  0  0  0  0  0  0  0  0
   47.6210   32.7860   40.6500 C   0  0  0  0  0  3  0  0  0  0  0  0
   48.3510   33.1730   39.9190 H   0  0  0  0  0  0  0  0  0  0  0  0
   46.9510   31.5200   40.1940 C   0  0  0  0  0  3  0  0  0  0  0  0
   46.5010   31.0080   41.0700 H   0  0  0  0  0  0  0  0  0  0  0  0
   45.9970   31.7150   39.1450 N   0  0  0  0  0  0  0  0  0  0  0  0
   46.3810   31.4590   38.2210 H   0  0  0  0  0  0  0  0  0  0  0  0
   45.4500   33.0410   39.0740 C   0  0  0  0  0  2  0  0  0  0  0  0
   45.3900   33.7330   40.4140 C   0  0  0  0  0  2  0  0  0  0  0  0
   44.5880   36.0230   44.5110 C   0  0  0  0  0  0  0  0  0  0  0  0
   45.3580   35.9300   43.3440 C   0  0  0  0  0  0  0  0  0  0  0  0
   46.2260   34.8490   43.2320 C   0  0  0  0  0  0  0  0  0  0  0  0
   46.2830   33.9440   44.2490 N   0  0  0  0  0  0  0  0  0  0  0  0
   45.5180   34.0760   45.3590 C   0  0  0  0  0  0  0  0  0  0  0  0
   44.6630   35.1220   45.4930 N   0  0  0  0  0  0  0  0  0  0  0  0
   43.8940   36.8490   44.6480 H   0  0  0  0  0  0  0  0  0  0  0  0
   45.2190   36.7070   42.6190 H   0  0  0  0  0  0  0  0  0  0  0  0
   45.7350   33.2430   46.0220 H   0  0  0  0  0  0  0  0  0  0  0  0
  1 14  1  0  0  0  0
  2  1  2  0  0  0  0
  3  1  1  0  0  0  0
  4  3  1  0  0  0  0
  5  4  1  0  0  0  0
  6  4  1  0  0  0  0
  6  7  1  0  0  0  0
  8  6  1  0  0  0  0
  9  8  1  0  0  0  0
 10  8  1  0  0  0  0
 10 11  1  0  0  0  0
 11  3  1  0  0  0  0
 12 18  1  0  0  0  0
 12 17  1  0  0  0  0
 13 12  2  0  0  0  0
 14 13  1  0  0  0  0
 14 15  2  0  0  0  0
 15 16  1  0  0  0  0
 16 17  2  0  0  0  0
 16 20  1  0  0  0  0
 19 13  1  0  0  0  0
M  END
>  <minimizedAffinity>
-4.05043983

>  <minimizedRMSD>
0.432400107

$$$$
