
 OpenBabel03252502283D

 35 37  0  0  0  0  0  0  0  0999 V2000
   45.2350   34.3800   41.0150 C   0  0  0  0  0  0  0  0  0  0  0  0
   45.4790   35.0150   42.2240 C   0  0  0  0  0  0  0  0  0  0  0  0
   46.7970   35.2830   42.5870 C   0  0  0  0  0  0  0  0  0  0  0  0
   47.8160   34.9180   41.7470 C   0  0  0  0  0  0  0  0  0  0  0  0
   47.5970   34.2890   40.5430 C   0  0  0  0  0  0  0  0  0  0  0  0
   46.2660   34.0310   40.2050 C   0  0  0  0  0  0  0  0  0  0  0  0
   44.6760   35.3030   42.8870 H   0  0  0  0  0  0  0  0  0  0  0  0
   46.9410   35.7790   43.5380 H   0  0  0  0  0  0  0  0  0  0  0  0
   48.8400   35.1210   42.0170 H   0  0  0  0  0  0  0  0  0  0  0  0
   48.3870   33.9870   39.8570 H   0  0  0  0  0  0  0  0  0  0  0  0
   45.7880   32.0470   38.5690 C   0  0  0  0  0  0  0  0  0  0  0  0
   46.0820   31.0580   39.2300 O   0  0  0  0  0  0  0  0  0  0  0  0
   45.9050   33.3930   38.9970 N   0  0  0  0  0  0  0  0  0  0  0  0
   45.6860   34.1710   38.3110 H   0  0  0  0  0  0  0  0  0  0  0  0
   45.2870   31.8020   37.2580 N   0  0  0  0  0  0  0  0  0  0  0  0
   45.2630   32.9480   36.3710 C   0  0  0  0  0  3  0  0  0  0  0  0
   44.4360   33.6420   36.6180 H   0  0  0  0  0  0  0  0  0  0  0  0
   45.3000   32.5220   34.9270 C   0  0  0  0  0  3  0  0  0  0  0  0
   46.3620   32.2010   34.7180 H   0  0  0  0  0  0  0  0  0  0  0  0
   44.3570   31.5150   34.5650 N   0  0  0  0  0  0  0  0  0  0  0  0
   43.6300   31.8940   33.9180 H   0  0  0  0  0  0  0  0  0  0  0  0
   43.6800   30.9930   35.7290 C   0  0  0  0  0  2  0  0  0  0  0  0
   44.7970   30.5610   36.6880 C   0  0  0  0  0  2  0  0  0  0  0  0
   41.6130   34.7080   40.0160 C   0  0  0  0  0  0  0  0  0  0  0  0
   42.9360   35.0740   40.2900 C   0  0  0  0  0  0  0  0  0  0  0  0
   43.8350   34.1310   40.6990 C   0  0  0  0  0  0  0  0  0  0  0  0
   43.3690   32.8510   40.8180 N   0  0  0  0  0  0  0  0  0  0  0  0
   42.0980   32.4920   40.5570 C   0  0  0  0  0  0  0  0  0  0  0  0
   41.2110   33.4310   40.1510 N   0  0  0  0  0  0  0  0  0  0  0  0
   43.2820   36.0970   40.1880 H   0  0  0  0  0  0  0  0  0  0  0  0
   41.7940   31.4560   40.6720 H   0  0  0  0  0  0  0  0  0  0  0  0
   40.6330   35.7200   39.5740 C   0  0  0  0  0  0  0  0  0  0  0  0
   39.4660   35.0380   39.1960 F   0  0  0  0  0  0  0  0  0  0  0  0
   41.1340   36.2750   38.4040 F   0  0  0  0  0  0  0  0  0  0  0  0
   40.3450   36.6580   40.5270 F   0  0  0  0  0  0  0  0  0  0  0  0
  1  2  1  0  0  0  0
  2  3  2  0  0  0  0
  2  7  1  0  0  0  0
  3  8  1  0  0  0  0
  4  9  1  0  0  0  0
  4  3  1  0  0  0  0
  5  4  2  0  0  0  0
  6  5  1  0  0  0  0
  6  1  2  0  0  0  0
 10  5  1  0  0  0  0
 11 13  1  0  0  0  0
 11 12  2  0  0  0  0
 13  6  1  0  0  0  0
 14 13  1  0  0  0  0
 15 11  1  0  0  0  0
 16 17  1  0  0  0  0
 16 15  1  0  0  0  0
 18 16  1  0  0  0  0
 19 18  1  0  0  0  0
 20 18  1  0  0  0  0
 20 22  1  0  0  0  0
 21 20  1  0  0  0  0
 22 23  1  0  0  0  0
 23 15  1  0  0  0  0
 24 29  2  0  0  0  0
 24 25  1  0  0  0  0
 25 26  2  0  0  0  0
 26 27  1  0  0  0  0
 26  1  1  0  0  0  0
 28 31  1  0  0  0  0
 28 27  2  0  0  0  0
 29 28  1  0  0  0  0
 30 25  1  0  0  0  0
 32 24  1  0  0  0  0
 32 35  1  0  0  0  0
 33 32  1  0  0  0  0
 34 32  1  0  0  0  0
M  END
>  <minimizedAffinity>
-6.30547667

>  <minimizedRMSD>
0.621031165

$$$$
