
 OpenBabel03242515023D

 37 39  0  0  0  0  0  0  0  0999 V2000
   36.3510   30.2000   39.5320 C   0  0  0  0  0  0  0  0  0  0  0  0
   36.6500   29.7470   38.2500 C   0  0  0  0  0  0  0  0  0  0  0  0
   37.3140   30.6220   37.3720 C   0  0  0  0  0  0  0  0  0  0  0  0
   37.6260   31.8620   37.8290 N   0  0  0  0  0  0  0  0  0  0  0  0
   37.3310   32.2830   39.0630 C   0  0  0  0  0  0  0  0  0  0  0  0
   36.7020   31.4530   39.8940 N   0  0  0  0  0  0  0  0  0  0  0  0
   36.4180   28.7670   37.8510 H   0  0  0  0  0  0  0  0  0  0  0  0
   37.5740   30.3210   36.3570 H   0  0  0  0  0  0  0  0  0  0  0  0
   37.7110   33.6270   39.4440 C   0  0  0  0  0  0  0  0  0  0  0  0
   36.8950   34.5530   39.2180 O   0  0  0  0  0  0  0  0  0  0  0  0
   38.9240   34.0510   40.0580 N   0  0  0  0  0  0  0  0  0  0  0  0
   40.0990   33.2860   39.7620 C   0  0  0  0  0  3  0  0  0  0  0  0
   39.9450   32.4180   39.1100 H   0  0  0  0  0  0  0  0  0  0  0  0
   41.0460   34.2300   39.0130 C   0  0  0  0  0  3  0  0  0  0  0  0
   41.9760   33.6640   38.7780 H   0  0  0  0  0  0  0  0  0  0  0  0
   41.4170   35.2860   39.9050 N   0  0  0  0  0  0  0  0  0  0  0  0
   42.2050   35.0470   40.5180 H   0  0  0  0  0  0  0  0  0  0  0  0
   40.3370   36.0060   40.4980 C   0  0  0  0  0  2  0  0  0  0  0  0
   39.1810   35.1410   40.9470 C   0  0  0  0  0  2  0  0  0  0  0  0
   35.5040   29.0490   40.6100 S   0  0  0  0  0  0  0  0  0  0  0  0
   36.6390   28.0080   41.5410 C   0  0  0  0  0  0  0  0  0  0  0  0
   36.1650   27.0330   41.8400 H   0  0  0  0  0  0  0  0  0  0  0  0
   37.4800   27.7320   40.8680 H   0  0  0  0  0  0  0  0  0  0  0  0
   37.1940   28.6810   42.7590 C   0  0  0  0  0  0  0  0  0  0  0  0
   36.5230   28.4830   43.5950 H   0  0  0  0  0  0  0  0  0  0  0  0
   37.2220   29.7870   42.5940 H   0  0  0  0  0  0  0  0  0  0  0  0
   39.4990   30.4620   41.8850 Cl  0  0  0  0  0  0  0  0  0  0  0  0
   39.6960   28.9450   42.6920 C   0  0  0  0  0  0  0  0  0  0  0  0
   38.5670   28.2050   43.0500 C   0  0  0  0  0  0  0  0  0  0  0  0
   38.7990   27.0050   43.6900 C   0  0  0  0  0  0  0  0  0  0  0  0
   40.0370   26.4670   44.0100 C   0  0  0  0  0  0  0  0  0  0  0  0
   41.1400   27.2280   43.6390 C   0  0  0  0  0  0  0  0  0  0  0  0
   42.7520   26.6190   44.0080 Cl  0  0  0  0  0  0  0  0  0  0  0  0
   40.9570   28.4330   42.9980 C   0  0  0  0  0  0  0  0  0  0  0  0
   37.9530   26.3900   43.9900 H   0  0  0  0  0  0  0  0  0  0  0  0
   40.1320   25.5260   44.5100 H   0  0  0  0  0  0  0  0  0  0  0  0
   41.8490   28.9960   42.7270 H   0  0  0  0  0  0  0  0  0  0  0  0
  1  6  1  0  0  0  0
  1 20  1  0  0  0  0
  2  1  2  0  0  0  0
  3  4  2  0  0  0  0
  3  2  1  0  0  0  0
  4  5  1  0  0  0  0
  5  9  1  0  0  0  0
  5  6  2  0  0  0  0
  7  2  1  0  0  0  0
  8  3  1  0  0  0  0
  9 11  1  0  0  0  0
 10  9  2  0  0  0  0
 11 19  1  0  0  0  0
 12 11  1  0  0  0  0
 13 12  1  0  0  0  0
 14 12  1  0  0  0  0
 14 16  1  0  0  0  0
 15 14  1  0  0  0  0
 16 18  1  0  0  0  0
 16 17  1  0  0  0  0
 18 19  1  0  0  0  0
 20 21  1  0  0  0  0
 21 22  1  0  0  0  0
 21 24  1  0  0  0  0
 23 21  1  0  0  0  0
 24 29  1  0  0  0  0
 24 25  1  0  0  0  0
 26 24  1  0  0  0  0
 27 28  1  0  0  0  0
 28 34  2  0  0  0  0
 28 29  1  0  0  0  0
 29 30  2  0  0  0  0
 30 35  1  0  0  0  0
 30 31  1  0  0  0  0
 31 36  1  0  0  0  0
 32 33  1  0  0  0  0
 32 31  2  0  0  0  0
 34 32  1  0  0  0  0
 37 34  1  0  0  0  0
M  END
>  <minimizedAffinity>
-6.24640512

$$$$

 OpenBabel03242515023D

 37 39  0  0  0  0  0  0  0  0999 V2000
   37.3390   28.2410   41.2140 C   0  0  0  0  0  0  0  0  0  0  0  0
   36.3790   27.8970   42.1610 C   0  0  0  0  0  0  0  0  0  0  0  0
   36.8070   27.5920   43.4640 C   0  0  0  0  0  0  0  0  0  0  0  0
   38.1380   27.6510   43.7240 N   0  0  0  0  0  0  0  0  0  0  0  0
   39.0500   27.9830   42.8040 C   0  0  0  0  0  0  0  0  0  0  0  0
   38.6420   28.2720   41.5680 N   0  0  0  0  0  0  0  0  0  0  0  0
   35.3100   27.8390   41.9910 H   0  0  0  0  0  0  0  0  0  0  0  0
   36.0990   27.3160   44.2470 H   0  0  0  0  0  0  0  0  0  0  0  0
   40.4440   28.0150   43.1910 C   0  0  0  0  0  0  0  0  0  0  0  0
   41.0800   29.0800   43.0020 O   0  0  0  0  0  0  0  0  0  0  0  0
   41.2120   26.9680   43.7750 N   0  0  0  0  0  0  0  0  0  0  0  0
   40.8400   25.6270   43.4340 C   0  0  0  0  0  3  0  0  0  0  0  0
   39.9690   25.5320   42.7750 H   0  0  0  0  0  0  0  0  0  0  0  0
   42.0300   25.0340   42.6700 C   0  0  0  0  0  3  0  0  0  0  0  0
   41.7730   23.9860   42.3990 H   0  0  0  0  0  0  0  0  0  0  0  0
   43.1450   24.9710   43.5650 N   0  0  0  0  0  0  0  0  0  0  0  0
   43.1530   24.1280   44.1500 H   0  0  0  0  0  0  0  0  0  0  0  0
   43.5020   26.1990   44.1990 C   0  0  0  0  0  2  0  0  0  0  0  0
   42.3260   27.0240   44.6710 C   0  0  0  0  0  2  0  0  0  0  0  0
   36.7420   28.6190   39.5690 S   0  0  0  0  0  0  0  0  0  0  0  0
   36.2370   30.3380   39.3930 C   0  0  0  0  0  0  0  0  0  0  0  0
   35.1290   30.4340   39.2280 H   0  0  0  0  0  0  0  0  0  0  0  0
   36.4370   30.8520   40.3580 H   0  0  0  0  0  0  0  0  0  0  0  0
   36.9640   31.0580   38.2990 C   0  0  0  0  0  0  0  0  0  0  0  0
   36.2250   31.4950   37.6270 H   0  0  0  0  0  0  0  0  0  0  0  0
   37.5740   30.3260   37.7110 H   0  0  0  0  0  0  0  0  0  0  0  0
   39.9570   30.6020   38.0100 Cl  0  0  0  0  0  0  0  0  0  0  0  0
   39.2550   31.9860   38.7750 C   0  0  0  0  0  0  0  0  0  0  0  0
   37.8640   32.0960   38.8530 C   0  0  0  0  0  0  0  0  0  0  0  0
   37.3740   33.2250   39.4760 C   0  0  0  0  0  0  0  0  0  0  0  0
   38.1230   34.2540   40.0280 C   0  0  0  0  0  0  0  0  0  0  0  0
   39.5030   34.1130   39.9330 C   0  0  0  0  0  0  0  0  0  0  0  0
   40.5310   35.3750   40.6070 Cl  0  0  0  0  0  0  0  0  0  0  0  0
   40.0380   33.0030   39.3190 C   0  0  0  0  0  0  0  0  0  0  0  0
   36.2980   33.3600   39.5640 H   0  0  0  0  0  0  0  0  0  0  0  0
   37.6650   35.1000   40.4950 H   0  0  0  0  0  0  0  0  0  0  0  0
   41.1240   32.9340   39.2670 H   0  0  0  0  0  0  0  0  0  0  0  0
  1  6  2  0  0  0  0
  1  2  1  0  0  0  0
  2  3  2  0  0  0  0
  3  4  1  0  0  0  0
  3  8  1  0  0  0  0
  5  9  1  0  0  0  0
  5  4  2  0  0  0  0
  6  5  1  0  0  0  0
  7  2  1  0  0  0  0
  9 11  1  0  0  0  0
 10  9  2  0  0  0  0
 11 19  1  0  0  0  0
 12 11  1  0  0  0  0
 13 12  1  0  0  0  0
 14 12  1  0  0  0  0
 14 16  1  0  0  0  0
 15 14  1  0  0  0  0
 16 17  1  0  0  0  0
 16 18  1  0  0  0  0
 18 19  1  0  0  0  0
 20  1  1  0  0  0  0
 21 20  1  0  0  0  0
 21 23  1  0  0  0  0
 22 21  1  0  0  0  0
 24 29  1  0  0  0  0
 24 21  1  0  0  0  0
 25 24  1  0  0  0  0
 26 24  1  0  0  0  0
 27 28  1  0  0  0  0
 28 29  2  0  0  0  0
 28 34  1  0  0  0  0
 29 30  1  0  0  0  0
 30 35  1  0  0  0  0
 30 31  2  0  0  0  0
 31 36  1  0  0  0  0
 32 31  1  0  0  0  0
 32 33  1  0  0  0  0
 34 32  2  0  0  0  0
 37 34  1  0  0  0  0
M  END
>  <minimizedAffinity>
-6.18331528

$$$$

 OpenBabel03242515023D

 37 39  0  0  0  0  0  0  0  0999 V2000
   37.8330   31.7700   39.3730 C   0  0  0  0  0  0  0  0  0  0  0  0
   37.3060   33.0130   39.7130 C   0  0  0  0  0  0  0  0  0  0  0  0
   38.1980   34.0450   40.0530 C   0  0  0  0  0  0  0  0  0  0  0  0
   39.5260   33.7680   40.0290 N   0  0  0  0  0  0  0  0  0  0  0  0
   40.0180   32.5680   39.7010 C   0  0  0  0  0  0  0  0  0  0  0  0
   39.1720   31.5910   39.3790 N   0  0  0  0  0  0  0  0  0  0  0  0
   36.2540   33.2710   39.7420 H   0  0  0  0  0  0  0  0  0  0  0  0
   37.8410   35.0380   40.3270 H   0  0  0  0  0  0  0  0  0  0  0  0
   41.4540   32.3850   39.7090 C   0  0  0  0  0  0  0  0  0  0  0  0
   42.0080   32.1480   40.8100 O   0  0  0  0  0  0  0  0  0  0  0  0
   42.3480   32.4390   38.6020 N   0  0  0  0  0  0  0  0  0  0  0  0
   41.9820   33.3020   37.5180 C   0  0  0  0  0  3  0  0  0  0  0  0
   41.0210   33.8180   37.6300 H   0  0  0  0  0  0  0  0  0  0  0  0
   43.0570   34.3920   37.4570 C   0  0  0  0  0  3  0  0  0  0  0  0
   42.8030   35.0750   36.6150 H   0  0  0  0  0  0  0  0  0  0  0  0
   44.3020   33.7690   37.1260 N   0  0  0  0  0  0  0  0  0  0  0  0
   44.4380   33.6350   36.1180 H   0  0  0  0  0  0  0  0  0  0  0  0
   44.7050   32.6970   37.9780 C   0  0  0  0  0  2  0  0  0  0  0  0
   43.5870   31.7610   38.3770 C   0  0  0  0  0  2  0  0  0  0  0  0
   36.6560   30.4900   38.9490 S   0  0  0  0  0  0  0  0  0  0  0  0
   35.9180   29.7190   40.3980 C   0  0  0  0  0  0  0  0  0  0  0  0
   34.8280   29.9730   40.4980 H   0  0  0  0  0  0  0  0  0  0  0  0
   35.9520   28.6170   40.2530 H   0  0  0  0  0  0  0  0  0  0  0  0
   36.6240   30.0610   41.6730 C   0  0  0  0  0  0  0  0  0  0  0  0
   35.8770   30.3600   42.4090 H   0  0  0  0  0  0  0  0  0  0  0  0
   37.3050   30.9330   41.5010 H   0  0  0  0  0  0  0  0  0  0  0  0
   39.4140   30.6640   42.7230 Cl  0  0  0  0  0  0  0  0  0  0  0  0
   38.7210   29.0810   42.6630 C   0  0  0  0  0  0  0  0  0  0  0  0
   37.4280   28.9160   42.1610 C   0  0  0  0  0  0  0  0  0  0  0  0
   36.9380   27.6260   42.1420 C   0  0  0  0  0  0  0  0  0  0  0  0
   37.6010   26.4850   42.5710 C   0  0  0  0  0  0  0  0  0  0  0  0
   38.8860   26.6850   43.0650 C   0  0  0  0  0  0  0  0  0  0  0  0
   39.8010   25.2900   43.6320 Cl  0  0  0  0  0  0  0  0  0  0  0  0
   39.4160   27.9550   43.1030 C   0  0  0  0  0  0  0  0  0  0  0  0
   35.9360   27.4430   41.7600 H   0  0  0  0  0  0  0  0  0  0  0  0
   37.1500   25.5170   42.5240 H   0  0  0  0  0  0  0  0  0  0  0  0
   40.4260   28.0640   43.4980 H   0  0  0  0  0  0  0  0  0  0  0  0
  1  6  2  0  0  0  0
  1  2  1  0  0  0  0
  2  7  1  0  0  0  0
  2  3  2  0  0  0  0
  3  8  1  0  0  0  0
  4  3  1  0  0  0  0
  5  9  1  0  0  0  0
  5  4  2  0  0  0  0
  6  5  1  0  0  0  0
  9 10  2  0  0  0  0
 11  9  1  0  0  0  0
 12 13  1  0  0  0  0
 12 11  1  0  0  0  0
 14 12  1  0  0  0  0
 15 14  1  0  0  0  0
 16 14  1  0  0  0  0
 16 18  1  0  0  0  0
 17 16  1  0  0  0  0
 18 19  1  0  0  0  0
 19 11  1  0  0  0  0
 20  1  1  0  0  0  0
 20 21  1  0  0  0  0
 21 22  1  0  0  0  0
 21 24  1  0  0  0  0
 23 21  1  0  0  0  0
 24 29  1  0  0  0  0
 24 25  1  0  0  0  0
 26 24  1  0  0  0  0
 28 27  1  0  0  0  0
 28 34  1  0  0  0  0
 29 28  2  0  0  0  0
 30 29  1  0  0  0  0
 30 31  2  0  0  0  0
 31 32  1  0  0  0  0
 32 34  2  0  0  0  0
 32 33  1  0  0  0  0
 34 37  1  0  0  0  0
 35 30  1  0  0  0  0
 36 31  1  0  0  0  0
M  END
>  <minimizedAffinity>
-6.06520033

$$$$

 OpenBabel03242515023D

 37 39  0  0  0  0  0  0  0  0999 V2000
   37.1920   27.5540   38.8010 C   0  0  0  0  0  0  0  0  0  0  0  0
   35.8410   27.2700   38.6220 C   0  0  0  0  0  0  0  0  0  0  0  0
   34.9630   28.3390   38.3690 C   0  0  0  0  0  0  0  0  0  0  0  0
   35.4870   29.5900   38.3150 N   0  0  0  0  0  0  0  0  0  0  0  0
   36.7870   29.8480   38.4900 C   0  0  0  0  0  0  0  0  0  0  0  0
   37.6180   28.8340   38.7290 N   0  0  0  0  0  0  0  0  0  0  0  0
   35.3870   26.2870   38.6570 H   0  0  0  0  0  0  0  0  0  0  0  0
   33.8950   28.1760   38.2210 H   0  0  0  0  0  0  0  0  0  0  0  0
   37.2370   31.2210   38.4110 C   0  0  0  0  0  0  0  0  0  0  0  0
   37.5850   31.6600   37.2870 O   0  0  0  0  0  0  0  0  0  0  0  0
   37.3410   32.1690   39.4680 N   0  0  0  0  0  0  0  0  0  0  0  0
   37.6150   31.6500   40.7760 C   0  0  0  0  0  3  0  0  0  0  0  0
   37.6860   30.5580   40.8440 H   0  0  0  0  0  0  0  0  0  0  0  0
   38.9880   32.2010   41.1760 C   0  0  0  0  0  3  0  0  0  0  0  0
   39.2250   31.8210   42.1950 H   0  0  0  0  0  0  0  0  0  0  0  0
   38.8820   33.6250   41.2770 N   0  0  0  0  0  0  0  0  0  0  0  0
   38.5330   33.9460   42.1880 H   0  0  0  0  0  0  0  0  0  0  0  0
   38.3760   34.2930   40.1220 C   0  0  0  0  0  2  0  0  0  0  0  0
   37.2150   33.5930   39.4530 C   0  0  0  0  0  2  0  0  0  0  0  0
   38.2670   26.1590   39.1190 S   0  0  0  0  0  0  0  0  0  0  0  0
   37.4430   24.8410   40.0260 C   0  0  0  0  0  0  0  0  0  0  0  0
   36.5660   24.4260   39.4570 H   0  0  0  0  0  0  0  0  0  0  0  0
   38.1580   23.9950   40.1220 H   0  0  0  0  0  0  0  0  0  0  0  0
   36.9940   25.2550   41.3930 C   0  0  0  0  0  0  0  0  0  0  0  0
   36.4750   24.4130   41.8530 H   0  0  0  0  0  0  0  0  0  0  0  0
   36.2670   26.1020   41.3070 H   0  0  0  0  0  0  0  0  0  0  0  0
   36.9630   28.1200   42.4130 Cl  0  0  0  0  0  0  0  0  0  0  0  0
   38.2290   26.9880   42.7380 C   0  0  0  0  0  0  0  0  0  0  0  0
   38.1430   25.6930   42.2200 C   0  0  0  0  0  0  0  0  0  0  0  0
   39.1880   24.8430   42.5190 C   0  0  0  0  0  0  0  0  0  0  0  0
   40.3070   25.1480   43.2790 C   0  0  0  0  0  0  0  0  0  0  0  0
   40.3620   26.4440   43.7800 C   0  0  0  0  0  0  0  0  0  0  0  0
   41.7490   26.9170   44.7580 Cl  0  0  0  0  0  0  0  0  0  0  0  0
   39.3410   27.3270   43.5080 C   0  0  0  0  0  0  0  0  0  0  0  0
   39.1700   23.8240   42.1390 H   0  0  0  0  0  0  0  0  0  0  0  0
   41.0770   24.4290   43.4670 H   0  0  0  0  0  0  0  0  0  0  0  0
   39.4250   28.3320   43.9210 H   0  0  0  0  0  0  0  0  0  0  0  0
  1 20  1  0  0  0  0
  2  7  1  0  0  0  0
  2  1  2  0  0  0  0
  3  2  1  0  0  0  0
  4  3  2  0  0  0  0
  4  5  1  0  0  0  0
  5  6  2  0  0  0  0
  6  1  1  0  0  0  0
  8  3  1  0  0  0  0
  9  5  1  0  0  0  0
  9 11  1  0  0  0  0
 10  9  2  0  0  0  0
 11 12  1  0  0  0  0
 12 13  1  0  0  0  0
 12 14  1  0  0  0  0
 14 16  1  0  0  0  0
 14 15  1  0  0  0  0
 16 17  1  0  0  0  0
 18 16  1  0  0  0  0
 19 11  1  0  0  0  0
 19 18  1  0  0  0  0
 20 21  1  0  0  0  0
 21 23  1  0  0  0  0
 21 24  1  0  0  0  0
 22 21  1  0  0  0  0
 24 25  1  0  0  0  0
 24 29  1  0  0  0  0
 26 24  1  0  0  0  0
 27 28  1  0  0  0  0
 28 34  1  0  0  0  0
 29 30  1  0  0  0  0
 29 28  2  0  0  0  0
 30 31  2  0  0  0  0
 31 36  1  0  0  0  0
 31 32  1  0  0  0  0
 32 33  1  0  0  0  0
 34 32  2  0  0  0  0
 34 37  1  0  0  0  0
 35 30  1  0  0  0  0
M  END
>  <minimizedAffinity>
-6.04799938

$$$$

 OpenBabel03242515023D

 37 39  0  0  0  0  0  0  0  0999 V2000
   38.0390   30.5640   38.5090 C   0  0  0  0  0  0  0  0  0  0  0  0
   36.9990   31.4060   38.8930 C   0  0  0  0  0  0  0  0  0  0  0  0
   37.3130   32.5580   39.6340 C   0  0  0  0  0  0  0  0  0  0  0  0
   38.6180   32.7830   39.9330 N   0  0  0  0  0  0  0  0  0  0  0  0
   39.6070   31.9650   39.5570 C   0  0  0  0  0  0  0  0  0  0  0  0
   39.3080   30.8730   38.8550 N   0  0  0  0  0  0  0  0  0  0  0  0
   35.9480   31.2600   38.6730 H   0  0  0  0  0  0  0  0  0  0  0  0
   36.5400   33.2540   39.9610 H   0  0  0  0  0  0  0  0  0  0  0  0
   40.9640   32.3030   39.9310 C   0  0  0  0  0  0  0  0  0  0  0  0
   41.2630   32.2640   41.1500 O   0  0  0  0  0  0  0  0  0  0  0  0
   42.0360   32.6850   39.0760 N   0  0  0  0  0  0  0  0  0  0  0  0
   41.6850   33.3750   37.8700 C   0  0  0  0  0  3  0  0  0  0  0  0
   40.6110   33.5160   37.7030 H   0  0  0  0  0  0  0  0  0  0  0  0
   42.2940   34.7770   37.9870 C   0  0  0  0  0  3  0  0  0  0  0  0
   42.0450   35.3360   37.0570 H   0  0  0  0  0  0  0  0  0  0  0  0
   43.7180   34.6420   38.0220 N   0  0  0  0  0  0  0  0  0  0  0  0
   44.1460   34.5780   37.0920 H   0  0  0  0  0  0  0  0  0  0  0  0
   44.2340   33.7720   39.0300 C   0  0  0  0  0  2  0  0  0  0  0  0
   43.4470   32.4950   39.2160 C   0  0  0  0  0  2  0  0  0  0  0  0
   37.5860   29.1100   37.5680 S   0  0  0  0  0  0  0  0  0  0  0  0
   37.1730   27.7070   38.6160 C   0  0  0  0  0  0  0  0  0  0  0  0
   36.2240   27.8800   39.1940 H   0  0  0  0  0  0  0  0  0  0  0  0
   36.9610   26.8390   37.9550 H   0  0  0  0  0  0  0  0  0  0  0  0
   38.2690   27.3360   39.5670 C   0  0  0  0  0  0  0  0  0  0  0  0
   39.1390   27.9540   39.3430 H   0  0  0  0  0  0  0  0  0  0  0  0
   38.5560   26.2660   39.4070 H   0  0  0  0  0  0  0  0  0  0  0  0
   36.8770   24.9820   40.8960 Cl  0  0  0  0  0  0  0  0  0  0  0  0
   37.1870   26.4930   41.6770 C   0  0  0  0  0  0  0  0  0  0  0  0
   37.8350   27.5110   40.9730 C   0  0  0  0  0  0  0  0  0  0  0  0
   38.0500   28.6890   41.6580 C   0  0  0  0  0  0  0  0  0  0  0  0
   37.6860   28.9590   42.9690 C   0  0  0  0  0  0  0  0  0  0  0  0
   37.0420   27.9250   43.6410 C   0  0  0  0  0  0  0  0  0  0  0  0
   36.5460   28.1820   45.3120 Cl  0  0  0  0  0  0  0  0  0  0  0  0
   36.8070   26.7310   42.9980 C   0  0  0  0  0  0  0  0  0  0  0  0
   38.5510   29.5130   41.1540 H   0  0  0  0  0  0  0  0  0  0  0  0
   37.8900   29.9020   43.4300 H   0  0  0  0  0  0  0  0  0  0  0  0
   36.3010   25.9500   43.5630 H   0  0  0  0  0  0  0  0  0  0  0  0
  1  6  2  0  0  0  0
  1  2  1  0  0  0  0
  2  3  2  0  0  0  0
  3  4  1  0  0  0  0
  3  8  1  0  0  0  0
  5  9  1  0  0  0  0
  5  4  2  0  0  0  0
  6  5  1  0  0  0  0
  7  2  1  0  0  0  0
  9 10  2  0  0  0  0
 11 19  1  0  0  0  0
 11  9  1  0  0  0  0
 12 14  1  0  0  0  0
 12 11  1  0  0  0  0
 13 12  1  0  0  0  0
 14 16  1  0  0  0  0
 15 14  1  0  0  0  0
 16 18  1  0  0  0  0
 17 16  1  0  0  0  0
 18 19  1  0  0  0  0
 20  1  1  0  0  0  0
 20 21  1  0  0  0  0
 21 22  1  0  0  0  0
 21 24  1  0  0  0  0
 23 21  1  0  0  0  0
 24 29  1  0  0  0  0
 25 24  1  0  0  0  0
 26 24  1  0  0  0  0
 27 28  1  0  0  0  0
 28 34  1  0  0  0  0
 29 30  1  0  0  0  0
 29 28  2  0  0  0  0
 30 31  2  0  0  0  0
 31 36  1  0  0  0  0
 31 32  1  0  0  0  0
 32 33  1  0  0  0  0
 34 37  1  0  0  0  0
 34 32  2  0  0  0  0
 35 30  1  0  0  0  0
M  END
>  <minimizedAffinity>
-6.01095676

$$$$

 OpenBabel03242515023D

 37 39  0  0  0  0  0  0  0  0999 V2000
   37.3270   29.4380   39.2140 C   0  0  0  0  0  0  0  0  0  0  0  0
   36.7670   29.6120   37.9510 C   0  0  0  0  0  0  0  0  0  0  0  0
   37.3020   30.6080   37.1160 C   0  0  0  0  0  0  0  0  0  0  0  0
   38.3380   31.3440   37.5920 N   0  0  0  0  0  0  0  0  0  0  0  0
   38.8660   31.1660   38.8080 C   0  0  0  0  0  0  0  0  0  0  0  0
   38.3570   30.2220   39.5990 N   0  0  0  0  0  0  0  0  0  0  0  0
   35.9420   29.0440   37.5370 H   0  0  0  0  0  0  0  0  0  0  0  0
   36.9040   30.7880   36.1170 H   0  0  0  0  0  0  0  0  0  0  0  0
   39.9700   32.0100   39.2120 C   0  0  0  0  0  0  0  0  0  0  0  0
   41.0780   31.4610   39.4300 O   0  0  0  0  0  0  0  0  0  0  0  0
   39.9680   33.4210   39.4030 N   0  0  0  0  0  0  0  0  0  0  0  0
   38.7330   34.0130   39.8250 C   0  0  0  0  0  3  0  0  0  0  0  0
   37.8890   33.3200   39.9300 H   0  0  0  0  0  0  0  0  0  0  0  0
   38.9920   34.5970   41.2180 C   0  0  0  0  0  3  0  0  0  0  0  0
   38.0500   35.0740   41.5700 H   0  0  0  0  0  0  0  0  0  0  0  0
   39.9630   35.6400   41.0890 N   0  0  0  0  0  0  0  0  0  0  0  0
   39.5570   36.5470   40.8290 H   0  0  0  0  0  0  0  0  0  0  0  0
   41.1850   35.2750   40.4490 C   0  0  0  0  0  2  0  0  0  0  0  0
   41.0160   34.3800   39.2420 C   0  0  0  0  0  2  0  0  0  0  0  0
   36.6090   28.1580   40.2390 S   0  0  0  0  0  0  0  0  0  0  0  0
   36.5920   28.5950   41.9840 C   0  0  0  0  0  0  0  0  0  0  0  0
   37.4350   29.2890   42.2510 H   0  0  0  0  0  0  0  0  0  0  0  0
   35.6630   29.1710   42.1820 H   0  0  0  0  0  0  0  0  0  0  0  0
   36.6270   27.4040   42.8920 C   0  0  0  0  0  0  0  0  0  0  0  0
   35.9000   26.6770   42.5310 H   0  0  0  0  0  0  0  0  0  0  0  0
   36.3230   27.7120   43.9240 H   0  0  0  0  0  0  0  0  0  0  0  0
   36.9630   24.5600   41.8690 Cl  0  0  0  0  0  0  0  0  0  0  0  0
   38.2520   25.5210   42.5050 C   0  0  0  0  0  0  0  0  0  0  0  0
   37.9870   26.8190   42.9490 C   0  0  0  0  0  0  0  0  0  0  0  0
   39.0630   27.5280   43.4440 C   0  0  0  0  0  0  0  0  0  0  0  0
   40.3720   27.0800   43.5430 C   0  0  0  0  0  0  0  0  0  0  0  0
   40.6010   25.7830   43.0930 C   0  0  0  0  0  0  0  0  0  0  0  0
   42.2360   25.1330   43.1820 Cl  0  0  0  0  0  0  0  0  0  0  0  0
   39.5580   25.0380   42.5910 C   0  0  0  0  0  0  0  0  0  0  0  0
   38.9100   28.5440   43.8020 H   0  0  0  0  0  0  0  0  0  0  0  0
   41.1520   27.6940   43.9400 H   0  0  0  0  0  0  0  0  0  0  0  0
   39.7830   24.0280   42.2500 H   0  0  0  0  0  0  0  0  0  0  0  0
  1  6  1  0  0  0  0
  1 20  1  0  0  0  0
  2  1  2  0  0  0  0
  3  4  2  0  0  0  0
  3  2  1  0  0  0  0
  4  5  1  0  0  0  0
  5  9  1  0  0  0  0
  5  6  2  0  0  0  0
  7  2  1  0  0  0  0
  8  3  1  0  0  0  0
  9 11  1  0  0  0  0
  9 10  2  0  0  0  0
 11 12  1  0  0  0  0
 12 13  1  0  0  0  0
 12 14  1  0  0  0  0
 14 15  1  0  0  0  0
 16 14  1  0  0  0  0
 17 16  1  0  0  0  0
 18 16  1  0  0  0  0
 19 11  1  0  0  0  0
 19 18  1  0  0  0  0
 20 21  1  0  0  0  0
 21 23  1  0  0  0  0
 21 22  1  0  0  0  0
 21 24  1  0  0  0  0
 24 29  1  0  0  0  0
 24 26  1  0  0  0  0
 25 24  1  0  0  0  0
 27 28  1  0  0  0  0
 28 34  2  0  0  0  0
 28 29  1  0  0  0  0
 29 30  2  0  0  0  0
 30 31  1  0  0  0  0
 30 35  1  0  0  0  0
 31 36  1  0  0  0  0
 32 33  1  0  0  0  0
 32 31  2  0  0  0  0
 34 32  1  0  0  0  0
 37 34  1  0  0  0  0
M  END
>  <minimizedAffinity>
-5.92302084

$$$$

 OpenBabel03242515023D

 37 39  0  0  0  0  0  0  0  0999 V2000
   38.8550   33.2110   39.7540 C   0  0  0  0  0  0  0  0  0  0  0  0
   38.5620   34.4000   40.4180 C   0  0  0  0  0  0  0  0  0  0  0  0
   39.5270   35.4220   40.4120 C   0  0  0  0  0  0  0  0  0  0  0  0
   40.6930   35.1890   39.7570 N   0  0  0  0  0  0  0  0  0  0  0  0
   40.9610   34.0410   39.1250 C   0  0  0  0  0  0  0  0  0  0  0  0
   40.0460   33.0730   39.1310 N   0  0  0  0  0  0  0  0  0  0  0  0
   37.6450   34.6220   40.9490 H   0  0  0  0  0  0  0  0  0  0  0  0
   39.3510   36.3740   40.9140 H   0  0  0  0  0  0  0  0  0  0  0  0
   42.2380   33.9020   38.4580 C   0  0  0  0  0  0  0  0  0  0  0  0
   42.2560   33.9760   37.2050 O   0  0  0  0  0  0  0  0  0  0  0  0
   43.5140   33.6830   39.0510 N   0  0  0  0  0  0  0  0  0  0  0  0
   43.5360   32.9570   40.2860 C   0  0  0  0  0  3  0  0  0  0  0  0
   42.5550   32.6630   40.6780 H   0  0  0  0  0  0  0  0  0  0  0  0
   44.2980   31.6570   40.0050 C   0  0  0  0  0  3  0  0  0  0  0  0
   44.3400   31.0740   40.9510 H   0  0  0  0  0  0  0  0  0  0  0  0
   45.6460   31.9980   39.6660 N   0  0  0  0  0  0  0  0  0  0  0  0
   46.2530   32.1290   40.4840 H   0  0  0  0  0  0  0  0  0  0  0  0
   45.8010   32.9270   38.5940 C   0  0  0  0  0  2  0  0  0  0  0  0
   44.8180   34.0760   38.6150 C   0  0  0  0  0  2  0  0  0  0  0  0
   37.5940   31.9410   39.7920 S   0  0  0  0  0  0  0  0  0  0  0  0
   37.8980   30.6990   41.0590 C   0  0  0  0  0  0  0  0  0  0  0  0
   38.6390   29.9260   40.7180 H   0  0  0  0  0  0  0  0  0  0  0  0
   38.3780   31.2060   41.9240 H   0  0  0  0  0  0  0  0  0  0  0  0
   36.6510   30.0160   41.5270 C   0  0  0  0  0  0  0  0  0  0  0  0
   35.8150   30.3840   40.9320 H   0  0  0  0  0  0  0  0  0  0  0  0
   36.4570   30.2840   42.5960 H   0  0  0  0  0  0  0  0  0  0  0  0
   37.2860   28.4830   44.0760 Cl  0  0  0  0  0  0  0  0  0  0  0  0
   37.0690   27.7440   42.5270 C   0  0  0  0  0  0  0  0  0  0  0  0
   36.7790   28.5440   41.4190 C   0  0  0  0  0  0  0  0  0  0  0  0
   36.6180   27.8870   40.2160 C   0  0  0  0  0  0  0  0  0  0  0  0
   36.7150   26.5210   40.0020 C   0  0  0  0  0  0  0  0  0  0  0  0
   37.0050   25.7530   41.1260 C   0  0  0  0  0  0  0  0  0  0  0  0
   37.1470   24.0070   40.9450 Cl  0  0  0  0  0  0  0  0  0  0  0  0
   37.1740   26.3650   42.3480 C   0  0  0  0  0  0  0  0  0  0  0  0
   36.3910   28.4640   39.3220 H   0  0  0  0  0  0  0  0  0  0  0  0
   36.5760   26.0880   39.0340 H   0  0  0  0  0  0  0  0  0  0  0  0
   37.3990   25.7260   43.2010 H   0  0  0  0  0  0  0  0  0  0  0  0
  1 20  1  0  0  0  0
  1  2  1  0  0  0  0
  2  7  1  0  0  0  0
  3  2  2  0  0  0  0
  3  8  1  0  0  0  0
  4  3  1  0  0  0  0
  5  6  1  0  0  0  0
  5  4  2  0  0  0  0
  6  1  2  0  0  0  0
  9 11  1  0  0  0  0
  9  5  1  0  0  0  0
 10  9  2  0  0  0  0
 11 12  1  0  0  0  0
 12 13  1  0  0  0  0
 14 12  1  0  0  0  0
 14 15  1  0  0  0  0
 16 14  1  0  0  0  0
 16 17  1  0  0  0  0
 18 19  1  0  0  0  0
 18 16  1  0  0  0  0
 19 11  1  0  0  0  0
 20 21  1  0  0  0  0
 21 24  1  0  0  0  0
 21 23  1  0  0  0  0
 22 21  1  0  0  0  0
 24 26  1  0  0  0  0
 25 24  1  0  0  0  0
 28 27  1  0  0  0  0
 29 24  1  0  0  0  0
 29 28  2  0  0  0  0
 30 29  1  0  0  0  0
 31 30  2  0  0  0  0
 31 32  1  0  0  0  0
 32 34  2  0  0  0  0
 33 32  1  0  0  0  0
 34 28  1  0  0  0  0
 34 37  1  0  0  0  0
 35 30  1  0  0  0  0
 36 31  1  0  0  0  0
M  END
>  <minimizedAffinity>
-5.86901999

$$$$

 OpenBabel03242515023D

 37 39  0  0  0  0  0  0  0  0999 V2000
   36.8490   28.3170   39.9950 C   0  0  0  0  0  0  0  0  0  0  0  0
   35.7000   28.8730   40.5510 C   0  0  0  0  0  0  0  0  0  0  0  0
   35.7770   30.1740   41.0780 C   0  0  0  0  0  0  0  0  0  0  0  0
   36.9730   30.8140   41.0140 N   0  0  0  0  0  0  0  0  0  0  0  0
   38.0680   30.2670   40.4770 C   0  0  0  0  0  0  0  0  0  0  0  0
   37.9940   29.0340   39.9780 N   0  0  0  0  0  0  0  0  0  0  0  0
   34.7310   28.3940   40.6190 H   0  0  0  0  0  0  0  0  0  0  0  0
   34.9090   30.6590   41.5250 H   0  0  0  0  0  0  0  0  0  0  0  0
   39.2910   31.0410   40.4610 C   0  0  0  0  0  0  0  0  0  0  0  0
   40.2520   30.6320   41.1570 O   0  0  0  0  0  0  0  0  0  0  0  0
   39.5560   32.2410   39.7420 N   0  0  0  0  0  0  0  0  0  0  0  0
   38.4400   33.1030   39.4910 C   0  0  0  0  0  3  0  0  0  0  0  0
   37.4710   32.7380   39.8510 H   0  0  0  0  0  0  0  0  0  0  0  0
   38.7240   34.4040   40.2500 C   0  0  0  0  0  3  0  0  0  0  0  0
   37.8750   35.0990   40.0660 H   0  0  0  0  0  0  0  0  0  0  0  0
   39.8880   35.0070   39.6770 N   0  0  0  0  0  0  0  0  0  0  0  0
   39.6870   35.5820   38.8510 H   0  0  0  0  0  0  0  0  0  0  0  0
   41.0500   34.1810   39.6190 C   0  0  0  0  0  2  0  0  0  0  0  0
   40.7810   32.7510   39.2090 C   0  0  0  0  0  2  0  0  0  0  0  0
   36.6990   26.6590   39.3380 S   0  0  0  0  0  0  0  0  0  0  0  0
   37.3690   25.4100   40.4480 C   0  0  0  0  0  0  0  0  0  0  0  0
   36.9200   24.3970   40.2590 H   0  0  0  0  0  0  0  0  0  0  0  0
   38.4520   25.2990   40.2220 H   0  0  0  0  0  0  0  0  0  0  0  0
   37.2090   25.7590   41.8950 C   0  0  0  0  0  0  0  0  0  0  0  0
   36.6220   24.9740   42.3740 H   0  0  0  0  0  0  0  0  0  0  0  0
   36.6400   26.7180   41.9870 H   0  0  0  0  0  0  0  0  0  0  0  0
   37.6240   28.2470   43.5940 Cl  0  0  0  0  0  0  0  0  0  0  0  0
   38.8230   27.0250   43.3540 C   0  0  0  0  0  0  0  0  0  0  0  0
   38.5270   25.9190   42.5530 C   0  0  0  0  0  0  0  0  0  0  0  0
   39.5300   24.9840   42.4050 C   0  0  0  0  0  0  0  0  0  0  0  0
   40.7950   25.0340   42.9720 C   0  0  0  0  0  0  0  0  0  0  0  0
   41.0580   26.1470   43.7640 C   0  0  0  0  0  0  0  0  0  0  0  0
   42.6400   26.2920   44.5230 Cl  0  0  0  0  0  0  0  0  0  0  0  0
   40.0860   27.1070   43.9390 C   0  0  0  0  0  0  0  0  0  0  0  0
   39.3510   24.1040   41.7910 H   0  0  0  0  0  0  0  0  0  0  0  0
   41.5200   24.2640   42.8090 H   0  0  0  0  0  0  0  0  0  0  0  0
   40.3350   27.9620   44.5680 H   0  0  0  0  0  0  0  0  0  0  0  0
  1  2  1  0  0  0  0
  2  7  1  0  0  0  0
  2  3  2  0  0  0  0
  3  8  1  0  0  0  0
  4  3  1  0  0  0  0
  5  4  2  0  0  0  0
  6  1  2  0  0  0  0
  6  5  1  0  0  0  0
  9  5  1  0  0  0  0
  9 10  2  0  0  0  0
 11  9  1  0  0  0  0
 12 11  1  0  0  0  0
 12 13  1  0  0  0  0
 12 14  1  0  0  0  0
 15 14  1  0  0  0  0
 16 14  1  0  0  0  0
 17 16  1  0  0  0  0
 18 16  1  0  0  0  0
 19 18  1  0  0  0  0
 19 11  1  0  0  0  0
 20  1  1  0  0  0  0
 20 21  1  0  0  0  0
 21 24  1  0  0  0  0
 22 21  1  0  0  0  0
 23 21  1  0  0  0  0
 24 26  1  0  0  0  0
 24 25  1  0  0  0  0
 24 29  1  0  0  0  0
 28 27  1  0  0  0  0
 28 34  1  0  0  0  0
 29 28  2  0  0  0  0
 30 29  1  0  0  0  0
 30 31  2  0  0  0  0
 31 32  1  0  0  0  0
 32 34  2  0  0  0  0
 32 33  1  0  0  0  0
 34 37  1  0  0  0  0
 35 30  1  0  0  0  0
 36 31  1  0  0  0  0
M  END
>  <minimizedAffinity>
-5.80721855

$$$$

 OpenBabel03242515023D

 37 39  0  0  0  0  0  0  0  0999 V2000
   39.5660   29.1590   41.3980 C   0  0  0  0  0  0  0  0  0  0  0  0
   40.1690   28.4430   40.3670 C   0  0  0  0  0  0  0  0  0  0  0  0
   40.3880   29.0950   39.1410 C   0  0  0  0  0  0  0  0  0  0  0  0
   39.9960   30.3900   39.0340 N   0  0  0  0  0  0  0  0  0  0  0  0
   39.4170   31.0650   40.0320 C   0  0  0  0  0  0  0  0  0  0  0  0
   39.2100   30.4460   41.1940 N   0  0  0  0  0  0  0  0  0  0  0  0
   40.4960   27.4110   40.4160 H   0  0  0  0  0  0  0  0  0  0  0  0
   40.8570   28.5830   38.3000 H   0  0  0  0  0  0  0  0  0  0  0  0
   39.0390   32.4440   39.8070 C   0  0  0  0  0  0  0  0  0  0  0  0
   38.0220   32.6660   39.1060 O   0  0  0  0  0  0  0  0  0  0  0  0
   39.6880   33.6170   40.2870 N   0  0  0  0  0  0  0  0  0  0  0  0
   41.1040   33.5350   40.4890 C   0  0  0  0  0  3  0  0  0  0  0  0
   41.5540   32.5560   40.2840 H   0  0  0  0  0  0  0  0  0  0  0  0
   41.7360   34.5200   39.4990 C   0  0  0  0  0  3  0  0  0  0  0  0
   42.8390   34.4850   39.6390 H   0  0  0  0  0  0  0  0  0  0  0  0
   41.3120   35.8400   39.8550 N   0  0  0  0  0  0  0  0  0  0  0  0
   41.8880   36.2710   40.5870 H   0  0  0  0  0  0  0  0  0  0  0  0
   39.9020   36.0360   39.9460 C   0  0  0  0  0  2  0  0  0  0  0  0
   39.1550   34.9040   40.6130 C   0  0  0  0  0  2  0  0  0  0  0  0
   39.3100   28.2830   42.9380 S   0  0  0  0  0  0  0  0  0  0  0  0
   37.6340   28.4670   43.5690 C   0  0  0  0  0  0  0  0  0  0  0  0
   37.5870   28.3160   44.6820 H   0  0  0  0  0  0  0  0  0  0  0  0
   37.3210   29.5200   43.4020 H   0  0  0  0  0  0  0  0  0  0  0  0
   36.6490   27.5560   42.9050 C   0  0  0  0  0  0  0  0  0  0  0  0
   35.7240   27.5730   43.4810 H   0  0  0  0  0  0  0  0  0  0  0  0
   37.0430   26.5080   42.9160 H   0  0  0  0  0  0  0  0  0  0  0  0
   37.3220   25.5310   40.7380 Cl  0  0  0  0  0  0  0  0  0  0  0  0
   36.6880   27.1090   40.4280 C   0  0  0  0  0  0  0  0  0  0  0  0
   36.4130   27.9620   41.4990 C   0  0  0  0  0  0  0  0  0  0  0  0
   35.9100   29.2060   41.1780 C   0  0  0  0  0  0  0  0  0  0  0  0
   35.6520   29.6880   39.9030 C   0  0  0  0  0  0  0  0  0  0  0  0
   35.9370   28.8140   38.8590 C   0  0  0  0  0  0  0  0  0  0  0  0
   35.6390   29.3450   37.2060 Cl  0  0  0  0  0  0  0  0  0  0  0  0
   36.4410   27.5620   39.1320 C   0  0  0  0  0  0  0  0  0  0  0  0
   35.6790   29.9090   41.9760 H   0  0  0  0  0  0  0  0  0  0  0  0
   35.2590   30.6690   39.7380 H   0  0  0  0  0  0  0  0  0  0  0  0
   36.6490   26.9110   38.2840 H   0  0  0  0  0  0  0  0  0  0  0  0
  1 20  1  0  0  0  0
  2  7  1  0  0  0  0
  2  1  2  0  0  0  0
  3  2  1  0  0  0  0
  4  3  2  0  0  0  0
  4  5  1  0  0  0  0
  5  6  2  0  0  0  0
  6  1  1  0  0  0  0
  8  3  1  0  0  0  0
  9  5  1  0  0  0  0
  9 11  1  0  0  0  0
 10  9  2  0  0  0  0
 11 12  1  0  0  0  0
 11 19  1  0  0  0  0
 13 12  1  0  0  0  0
 14 15  1  0  0  0  0
 14 16  1  0  0  0  0
 14 12  1  0  0  0  0
 16 18  1  0  0  0  0
 16 17  1  0  0  0  0
 18 19  1  0  0  0  0
 20 21  1  0  0  0  0
 21 22  1  0  0  0  0
 23 21  1  0  0  0  0
 24 26  1  0  0  0  0
 24 25  1  0  0  0  0
 24 21  1  0  0  0  0
 28 27  1  0  0  0  0
 28 29  1  0  0  0  0
 29 24  1  0  0  0  0
 30 29  2  0  0  0  0
 30 35  1  0  0  0  0
 31 30  1  0  0  0  0
 32 34  1  0  0  0  0
 32 31  2  0  0  0  0
 33 32  1  0  0  0  0
 34 28  2  0  0  0  0
 36 31  1  0  0  0  0
 37 34  1  0  0  0  0
M  END
>  <minimizedAffinity>
-5.80422258

$$$$
