
 OpenBabel03252501113D

 20 21  0  0  0  0  0  0  0  0999 V2000
   46.9120   34.8380   41.9480 C   0  0  0  0  0  0  0  0  0  0  0  0
   47.9560   35.4910   41.7160 O   0  0  0  0  0  0  0  0  0  0  0  0
   46.4410   33.9950   40.9000 N   0  0  0  0  0  0  0  0  0  0  0  0
   47.3450   33.3950   39.9590 C   0  0  0  0  0  3  0  0  0  0  0  0
   47.6530   34.1030   39.1700 H   0  0  0  0  0  0  0  0  0  0  0  0
   46.8190   32.0980   39.4080 C   0  0  0  0  0  3  0  0  0  0  0  0
   46.8460   31.3260   40.2040 H   0  0  0  0  0  0  0  0  0  0  0  0
   45.5210   32.2050   38.8150 N   0  0  0  0  0  0  0  0  0  0  0  0
   45.5710   32.2460   37.7840 H   0  0  0  0  0  0  0  0  0  0  0  0
   44.7370   33.3110   39.2910 C   0  0  0  0  0  2  0  0  0  0  0  0
   45.0500   33.6930   40.7160 C   0  0  0  0  0  2  0  0  0  0  0  0
   44.5900   36.0410   44.5470 C   0  0  0  0  0  0  0  0  0  0  0  0
   45.3210   35.9710   43.3540 C   0  0  0  0  0  0  0  0  0  0  0  0
   46.1720   34.8840   43.1850 C   0  0  0  0  0  0  0  0  0  0  0  0
   46.2500   33.9500   44.1750 N   0  0  0  0  0  0  0  0  0  0  0  0
   45.5220   34.0610   45.3110 C   0  0  0  0  0  0  0  0  0  0  0  0
   44.6850   35.1130   45.5010 N   0  0  0  0  0  0  0  0  0  0  0  0
   43.9110   36.8700   44.7290 H   0  0  0  0  0  0  0  0  0  0  0  0
   45.1690   36.7700   42.6560 H   0  0  0  0  0  0  0  0  0  0  0  0
   45.7490   33.2070   45.9440 H   0  0  0  0  0  0  0  0  0  0  0  0
  1 14  1  0  0  0  0
  2  1  2  0  0  0  0
  3  1  1  0  0  0  0
  4  3  1  0  0  0  0
  5  4  1  0  0  0  0
  6  4  1  0  0  0  0
  6  7  1  0  0  0  0
  8 10  1  0  0  0  0
  8  6  1  0  0  0  0
  9  8  1  0  0  0  0
 10 11  1  0  0  0  0
 11  3  1  0  0  0  0
 12 18  1  0  0  0  0
 12 17  1  0  0  0  0
 13 12  2  0  0  0  0
 14 13  1  0  0  0  0
 14 15  2  0  0  0  0
 15 16  1  0  0  0  0
 16 17  2  0  0  0  0
 16 20  1  0  0  0  0
 19 13  1  0  0  0  0
M  END
>  <minimizedAffinity>
-4.11240244

>  <minimizedRMSD>
0.0778592229

$$$$
