
 OpenBabel03252501113D

 20 21  0  0  0  0  0  0  0  0999 V2000
   47.0540   34.6970   42.1160 C   0  0  0  0  0  0  0  0  0  0  0  0
   47.9560   35.5040   41.7910 O   0  0  0  0  0  0  0  0  0  0  0  0
   46.8270   33.6040   41.2290 N   0  0  0  0  0  0  0  0  0  0  0  0
   45.8860   33.7020   40.1480 C   0  0  0  0  0  3  0  0  0  0  0  0
   44.8460   33.5630   40.4900 H   0  0  0  0  0  0  0  0  0  0  0  0
   46.2480   32.8080   38.9950 C   0  0  0  0  0  3  0  0  0  0  0  0
   47.1500   33.2110   38.4880 H   0  0  0  0  0  0  0  0  0  0  0  0
   46.4120   31.4330   39.3570 N   0  0  0  0  0  0  0  0  0  0  0  0
   45.5820   30.8680   39.1110 H   0  0  0  0  0  0  0  0  0  0  0  0
   46.7350   31.2140   40.7390 C   0  0  0  0  0  2  0  0  0  0  0  0
   47.5130   32.3510   41.3560 C   0  0  0  0  0  2  0  0  0  0  0  0
   44.5590   35.9920   44.5010 C   0  0  0  0  0  0  0  0  0  0  0  0
   45.3540   35.8670   43.3550 C   0  0  0  0  0  0  0  0  0  0  0  0
   46.2470   34.8020   43.3060 C   0  0  0  0  0  0  0  0  0  0  0  0
   46.3020   33.9410   44.3620 N   0  0  0  0  0  0  0  0  0  0  0  0
   45.5110   34.1030   45.4500 C   0  0  0  0  0  0  0  0  0  0  0  0
   44.6320   35.1350   45.5220 N   0  0  0  0  0  0  0  0  0  0  0  0
   43.8450   36.8080   44.5890 H   0  0  0  0  0  0  0  0  0  0  0  0
   45.2140   36.6100   42.5950 H   0  0  0  0  0  0  0  0  0  0  0  0
   45.7310   33.3040   46.1510 H   0  0  0  0  0  0  0  0  0  0  0  0
  1 14  1  0  0  0  0
  2  1  2  0  0  0  0
  3 11  1  0  0  0  0
  3  1  1  0  0  0  0
  4  5  1  0  0  0  0
  4  3  1  0  0  0  0
  6  8  1  0  0  0  0
  6  4  1  0  0  0  0
  7  6  1  0  0  0  0
  8 10  1  0  0  0  0
  9  8  1  0  0  0  0
 10 11  1  0  0  0  0
 12 18  1  0  0  0  0
 12 17  1  0  0  0  0
 13 12  2  0  0  0  0
 14 13  1  0  0  0  0
 14 15  2  0  0  0  0
 15 16  1  0  0  0  0
 16 17  2  0  0  0  0
 16 20  1  0  0  0  0
 19 13  1  0  0  0  0
M  END
>  <minimizedAffinity>
-3.9433744

>  <minimizedRMSD>
0.754913449

$$$$
