
 OpenBabel03252508513D

 28 30  0  0  0  0  0  0  0  0999 V2000
   45.9080   34.1180   41.0410 C   0  0  0  0  0  0  0  0  0  0  0  0
   46.5050   34.7820   42.1180 C   0  0  0  0  0  0  0  0  0  0  0  0
   47.8450   35.1760   41.9700 C   0  0  0  0  0  0  0  0  0  0  0  0
   48.4600   34.8770   40.7830 N   0  0  0  0  0  0  0  0  0  0  0  0
   47.8500   34.2420   39.7890 C   0  0  0  0  0  0  0  0  0  0  0  0
   46.5660   33.8510   39.8970 N   0  0  0  0  0  0  0  0  0  0  0  0
   48.3290   35.6930   42.7900 H   0  0  0  0  0  0  0  0  0  0  0  0
   48.4220   34.0580   38.9040 H   0  0  0  0  0  0  0  0  0  0  0  0
   45.7410   35.0390   43.3260 C   0  0  0  0  0  0  0  0  0  0  0  0
   45.0610   36.2180   43.5490 C   0  0  0  0  0  0  0  0  0  0  0  0
   44.4940   36.0210   44.7970 C   0  0  0  0  0  0  0  0  0  0  0  0
   44.8120   34.7950   45.2980 N   0  0  0  0  0  0  0  0  0  0  0  0
   45.5610   34.2340   44.3890 N   0  0  0  0  0  0  0  0  0  0  0  0
   44.9600   37.1090   42.9390 H   0  0  0  0  0  0  0  0  0  0  0  0
   43.8680   36.7610   45.3100 H   0  0  0  0  0  0  0  0  0  0  0  0
   44.4690   34.4750   46.2320 H   0  0  0  0  0  0  0  0  0  0  0  0
   44.5870   33.7270   41.1770 O   0  0  0  0  0  0  0  0  0  0  0  0
   43.4990   34.3980   40.6870 C   0  0  0  0  0  0  0  0  0  0  0  0
   43.3510   35.6520   40.5270 O   0  0  0  0  0  0  0  0  0  0  0  0
   42.2110   33.9330   40.2100 N   0  0  0  0  0  0  0  0  0  0  0  0
   41.4060   33.1960   41.1610 C   0  0  0  0  0  3  0  0  0  0  0  0
   40.6270   33.9400   41.5020 H   0  0  0  0  0  0  0  0  0  0  0  0
   40.6840   32.1250   40.3730 C   0  0  0  0  0  3  0  0  0  0  0  0
   40.6680   31.2120   41.0090 H   0  0  0  0  0  0  0  0  0  0  0  0
   41.3850   31.7440   39.1680 N   0  0  0  0  0  0  0  0  0  0  0  0
   40.8390   30.9800   38.7290 H   0  0  0  0  0  0  0  0  0  0  0  0
   41.4710   32.8290   38.2120 C   0  0  0  0  0  2  0  0  0  0  0  0
   41.6980   34.1580   38.8730 C   0  0  0  0  0  2  0  0  0  0  0  0
  1 17  1  0  0  0  0
  1  2  1  0  0  0  0
  2  9  1  0  0  0  0
  3  2  2  0  0  0  0
  3  7  1  0  0  0  0
  4  3  1  0  0  0  0
  5  6  1  0  0  0  0
  5  4  2  0  0  0  0
  6  1  2  0  0  0  0
  8  5  1  0  0  0  0
  9 10  1  0  0  0  0
  9 13  2  0  0  0  0
 10 11  2  0  0  0  0
 11 12  1  0  0  0  0
 11 15  1  0  0  0  0
 12 16  1  0  0  0  0
 13 12  1  0  0  0  0
 14 10  1  0  0  0  0
 18 17  1  0  0  0  0
 19 18  2  0  0  0  0
 20 18  1  0  0  0  0
 20 21  1  0  0  0  0
 21 22  1  0  0  0  0
 23 24  1  0  0  0  0
 23 21  1  0  0  0  0
 25 23  1  0  0  0  0
 26 25  1  0  0  0  0
 27 28  1  0  0  0  0
 27 25  1  0  0  0  0
 28 20  1  0  0  0  0
M  END
>  <minimizedAffinity>
-5.41270494

>  <minimizedRMSD>
0.872004986

$$$$
