
 OpenBabel03252501113D

 20 21  0  0  0  0  0  0  0  0999 V2000
   47.1590   34.8940   41.9330 C   0  0  0  0  0  0  0  0  0  0  0  0
   48.2380   35.5170   41.8000 O   0  0  0  0  0  0  0  0  0  0  0  0
   46.7270   34.1210   40.8160 N   0  0  0  0  0  0  0  0  0  0  0  0
   47.4950   34.0640   39.6040 C   0  0  0  0  0  3  0  0  0  0  0  0
   47.3380   34.9550   38.9720 H   0  0  0  0  0  0  0  0  0  0  0  0
   47.2910   32.7750   38.8580 C   0  0  0  0  0  3  0  0  0  0  0  0
   47.7750   31.9480   39.4190 H   0  0  0  0  0  0  0  0  0  0  0  0
   45.9200   32.4860   38.5650 N   0  0  0  0  0  0  0  0  0  0  0  0
   45.6810   32.7110   37.5850 H   0  0  0  0  0  0  0  0  0  0  0  0
   44.9760   33.1250   39.4370 C   0  0  0  0  0  2  0  0  0  0  0  0
   45.5120   33.3570   40.8290 C   0  0  0  0  0  2  0  0  0  0  0  0
   44.6120   35.9800   44.3680 C   0  0  0  0  0  0  0  0  0  0  0  0
   45.4170   35.9420   43.2220 C   0  0  0  0  0  0  0  0  0  0  0  0
   46.3430   34.9090   43.1220 C   0  0  0  0  0  0  0  0  0  0  0  0
   46.4180   33.9940   44.1300 N   0  0  0  0  0  0  0  0  0  0  0  0
   45.6160   34.0720   45.2190 C   0  0  0  0  0  0  0  0  0  0  0  0
   44.7050   35.0710   45.3410 N   0  0  0  0  0  0  0  0  0  0  0  0
   43.8720   36.7670   44.4940 H   0  0  0  0  0  0  0  0  0  0  0  0
   45.2580   36.7210   42.5030 H   0  0  0  0  0  0  0  0  0  0  0  0
   45.8580   33.2430   45.8780 H   0  0  0  0  0  0  0  0  0  0  0  0
  1 14  1  0  0  0  0
  2  1  2  0  0  0  0
  3 11  1  0  0  0  0
  3  1  1  0  0  0  0
  4  3  1  0  0  0  0
  5  4  1  0  0  0  0
  6  7  1  0  0  0  0
  6  4  1  0  0  0  0
  8  6  1  0  0  0  0
  8 10  1  0  0  0  0
  9  8  1  0  0  0  0
 10 11  1  0  0  0  0
 12 18  1  0  0  0  0
 12 17  1  0  0  0  0
 13 12  2  0  0  0  0
 14 13  1  0  0  0  0
 14 15  2  0  0  0  0
 15 16  1  0  0  0  0
 16 17  2  0  0  0  0
 16 20  1  0  0  0  0
 19 13  1  0  0  0  0
M  END
>  <minimizedAffinity>
-4.20209122

>  <minimizedRMSD>
0.2808097

$$$$
