
 OpenBabel03242516213D

 29 31  0  0  1  0  0  0  0  0999 V2000
   45.9710   32.7940   47.0840 C   0  0  0  0  0  0  0  0  0  0  0  0
   47.2690   32.5790   47.5410 C   0  0  0  0  0  0  0  0  0  0  0  0
   47.4880   31.7580   48.6360 C   0  0  0  0  0  0  0  0  0  0  0  0
   46.4500   31.1370   49.2990 C   0  0  0  0  0  0  0  0  0  0  0  0
   45.1840   31.3440   48.8560 C   0  0  0  0  0  0  0  0  0  0  0  0
   44.9510   32.1600   47.7650 C   0  0  0  0  0  0  0  0  0  0  0  0
   48.0490   33.0940   46.9800 H   0  0  0  0  0  0  0  0  0  0  0  0
   46.7330   30.5120   50.1490 H   0  0  0  0  0  0  0  0  0  0  0  0
   44.3920   30.8440   49.3970 H   0  0  0  0  0  0  0  0  0  0  0  0
   43.9400   32.3280   47.4090 H   0  0  0  0  0  0  0  0  0  0  0  0
   44.5520   35.4730   45.0480 C   0  0  0  0  0  0  0  0  0  0  0  0
   45.2060   35.3330   43.8120 C   0  0  0  0  0  0  0  0  0  0  0  0
   46.1410   34.3130   43.6780 C   0  0  0  0  0  0  0  0  0  0  0  0
   46.3720   33.5040   44.7440 N   0  0  0  0  0  0  0  0  0  0  0  0
   45.7300   33.6560   45.9290 C   0  0  0  0  0  0  0  0  0  0  0  0
   44.8180   34.6440   46.0770 N   0  0  0  0  0  0  0  0  0  0  0  0
   43.8420   36.2870   45.0770 H   0  0  0  0  0  0  0  0  0  0  0  0
   45.0580   35.9450   42.9440 H   0  0  0  0  0  0  0  0  0  0  0  0
   46.7320   34.0620   42.8080 H   0  0  0  0  0  0  0  0  0  0  0  0
   49.1730   31.5320   49.1700 S   0  0  0  0  0  0  0  0  0  0  0  0
   50.0800   28.0710   49.0180 H   0  0  0  0  0  0  0  0  0  0  0  0
   49.8930   29.0510   48.7340 N   0  0  0  0  0  0  0  0  0  0  0  0
   49.4090   29.8410   49.8430 C   0  0  1  0  0  3  0  0  0  0  0  0
   50.3060   29.8560   51.0190 C   0  0  0  0  0  3  0  0  0  0  0  0
   50.2860   30.8610   51.4880 H   0  0  0  0  0  0  0  0  0  0  0  0
   51.6560   29.4750   50.8020 N   0  0  0  0  0  0  0  0  0  0  0  0
   52.3640   30.0060   51.3580 H   0  0  0  0  0  0  0  0  0  0  0  0
   52.1180   29.2990   49.4810 C   0  0  0  0  0  2  0  0  0  0  0  0
   51.1830   29.6690   48.3770 C   0  0  0  0  0  2  0  0  0  0  0  0
  1  2  2  0  0  0  0
  1  6  1  0  0  0  0
  2  3  1  0  0  0  0
  3 20  1  0  0  0  0
  3  4  2  0  0  0  0
  4  8  1  0  0  0  0
  5  4  1  0  0  0  0
  5  9  1  0  0  0  0
  6  5  2  0  0  0  0
  7  2  1  0  0  0  0
 10  6  1  0  0  0  0
 11 17  1  0  0  0  0
 11 16  1  0  0  0  0
 12 11  2  0  0  0  0
 13 12  1  0  0  0  0
 13 14  2  0  0  0  0
 14 15  1  0  0  0  0
 15 16  2  0  0  0  0
 15  1  1  0  0  0  0
 18 12  1  0  0  0  0
 19 13  1  0  0  0  0
 22 21  1  0  0  0  0
 22 23  1  0  0  0  0
 23 20  1  6  0  0  0
 23 24  1  0  0  0  0
 24 25  1  0  0  0  0
 26 24  1  0  0  0  0
 26 27  1  0  0  0  0
 28 26  1  0  0  0  0
 29 22  1  0  0  0  0
 29 28  1  0  0  0  0
M  END
>  <minimizedAffinity>
-5.25201559

>  <minimizedRMSD>
1.24397922

$$$$
