
 OpenBabel03242518243D

 45 49  0  0  1  0  0  0  0  0999 V2000
   44.3630   34.4940   42.2360 C   0  0  0  0  0  0  0  0  0  0  0  0
   43.3220   33.8510   41.5920 C   0  0  0  0  0  0  0  0  0  0  0  0
   43.2150   32.4800   41.7600 C   0  0  0  0  0  0  0  0  0  0  0  0
   44.1090   31.8180   42.5340 N   0  0  0  0  0  0  0  0  0  0  0  0
   45.1100   32.4710   43.1490 C   0  0  0  0  0  0  0  0  0  0  0  0
   45.2350   33.7980   43.0020 N   0  0  0  0  0  0  0  0  0  0  0  0
   44.5450   35.5550   42.1790 H   0  0  0  0  0  0  0  0  0  0  0  0
   42.3980   31.9960   41.2490 H   0  0  0  0  0  0  0  0  0  0  0  0
   42.4620   34.6670   40.8140 N   0  0  0  0  0  0  0  0  0  0  0  0
   42.5460   34.5380   39.3850 C   0  0  0  0  0  0  0  0  0  0  0  0
   41.6890   35.4990   38.6440 C   0  0  0  0  0  0  0  0  0  0  0  0
   40.3520   35.5480   39.1570 N   0  0  0  0  0  0  0  0  0  0  0  0
   40.1820   35.4670   40.5610 C   0  0  0  0  0  0  0  0  0  0  0  0
   41.4990   35.6240   41.2810 C   0  0  0  0  0  0  0  0  0  0  0  0
   43.6000   34.7160   39.0900 H   0  0  0  0  0  0  0  0  0  0  0  0
   42.3190   33.4770   39.1320 H   0  0  0  0  0  0  0  0  0  0  0  0
   42.1740   36.5000   38.6850 H   0  0  0  0  0  0  0  0  0  0  0  0
   41.6490   35.2020   37.5770 H   0  0  0  0  0  0  0  0  0  0  0  0
   39.6610   35.0040   38.5970 H   0  0  0  0  0  0  0  0  0  0  0  0
   39.4320   36.1550   40.9650 H   0  0  0  0  0  0  0  0  0  0  0  0
   39.8040   34.4390   40.7960 H   0  0  0  0  0  0  0  0  0  0  0  0
   41.9250   36.6350   41.0940 H   0  0  0  0  0  0  0  0  0  0  0  0
   41.3660   35.5660   42.3820 H   0  0  0  0  0  0  0  0  0  0  0  0
   47.2400   31.2880   43.4550 C   0  0  0  0  0  0  0  0  0  0  0  0
   46.0630   31.7250   43.9810 C   0  0  0  0  0  0  0  0  0  0  0  0
   45.7980   31.4460   45.3010 C   0  0  0  0  0  0  0  0  0  0  0  0
   46.6980   30.7460   46.0670 C   0  0  0  0  0  0  0  0  0  0  0  0
   47.9040   30.3040   45.5130 C   0  0  0  0  0  0  0  0  0  0  0  0
   48.1860   30.5790   44.1810 C   0  0  0  0  0  0  0  0  0  0  0  0
   48.6160   29.6300   46.5060 O   0  0  0  0  0  0  0  0  0  0  0  0
   47.7240   29.3820   47.5890 C   0  0  1  0  0  0  0  0  0  0  0  0
   46.6960   30.3310   47.3960 O   0  0  0  0  0  0  0  0  0  0  0  0
   47.4830   31.4910   42.4180 H   0  0  0  0  0  0  0  0  0  0  0  0
   44.8540   31.8000   45.7070 H   0  0  0  0  0  0  0  0  0  0  0  0
   49.0960   30.2620   43.7090 H   0  0  0  0  0  0  0  0  0  0  0  0
   48.2310   29.6370   48.5450 H   0  0  0  0  0  0  0  0  0  0  0  0
   47.2590   28.0360   47.6200 N   0  0  2  0  0  0  0  0  0  0  0  0
   48.0900   27.0550   47.0280 C   0  0  0  0  0  3  0  0  0  0  0  0
   49.0100   27.5500   46.6380 H   0  0  0  0  0  0  0  0  0  0  0  0
   47.4800   26.3230   45.8660 C   0  0  0  0  0  3  0  0  0  0  0  0
   48.0420   25.3700   45.7350 H   0  0  0  0  0  0  0  0  0  0  0  0
   46.0900   25.9870   46.0850 N   0  0  0  0  0  0  0  0  0  0  0  0
   45.9850   25.4720   46.9880 H   0  0  0  0  0  0  0  0  0  0  0  0
   45.3790   27.2490   46.2490 C   0  0  0  0  0  2  0  0  0  0  0  0
   45.8570   27.8380   47.5560 C   0  0  0  0  0  2  0  0  0  0  0  0
  1  6  1  0  0  0  0
  2  3  1  0  0  0  0
  2  1  2  0  0  0  0
  3  4  2  0  0  0  0
  4  5  1  0  0  0  0
  5 25  1  0  0  0  0
  6  5  2  0  0  0  0
  7  1  1  0  0  0  0
  8  3  1  0  0  0  0
  9 14  1  0  0  0  0
  9  2  1  0  0  0  0
 10  9  1  0  0  0  0
 11 17  1  0  0  0  0
 11 12  1  0  0  0  0
 11 10  1  0  0  0  0
 12 13  1  0  0  0  0
 13 21  1  0  0  0  0
 13 20  1  0  0  0  0
 13 14  1  0  0  0  0
 14 23  1  0  0  0  0
 15 10  1  0  0  0  0
 16 10  1  0  0  0  0
 18 11  1  0  0  0  0
 19 12  1  0  0  0  0
 22 14  1  0  0  0  0
 24 25  2  0  0  0  0
 24 29  1  0  0  0  0
 25 26  1  0  0  0  0
 26 34  1  0  0  0  0
 26 27  2  0  0  0  0
 27 32  1  0  0  0  0
 28 27  1  0  0  0  0
 28 30  1  0  0  0  0
 29 28  2  0  0  0  0
 30 31  1  0  0  0  0
 31 37  1  0  0  0  0
 31 36  1  1  0  0  0
 32 31  1  0  0  0  0
 33 24  1  0  0  0  0
 35 29  1  0  0  0  0
 37 45  1  6  0  0  0
 38 37  1  0  0  0  0
 39 38  1  0  0  0  0
 40 42  1  0  0  0  0
 40 38  1  0  0  0  0
 41 40  1  0  0  0  0
 42 44  1  0  0  0  0
 42 43  1  0  0  0  0
 44 45  1  0  0  0  0
M  END
>  <minimizedAffinity>
-4.63269186

>  <minimizedRMSD>
3.0896368

$$$$
