
 OpenBabel03242516223D

 29 31  0  0  1  0  0  0  0  0999 V2000
   45.9870   32.8120   47.0750 C   0  0  0  0  0  0  0  0  0  0  0  0
   47.2900   32.5820   47.5100 C   0  0  0  0  0  0  0  0  0  0  0  0
   47.5190   31.7650   48.6050 C   0  0  0  0  0  0  0  0  0  0  0  0
   46.4850   31.1620   49.2910 C   0  0  0  0  0  0  0  0  0  0  0  0
   45.2150   31.3830   48.8710 C   0  0  0  0  0  0  0  0  0  0  0  0
   44.9720   32.1960   47.7790 C   0  0  0  0  0  0  0  0  0  0  0  0
   48.0670   33.0840   46.9300 H   0  0  0  0  0  0  0  0  0  0  0  0
   46.7760   30.5380   50.1390 H   0  0  0  0  0  0  0  0  0  0  0  0
   44.4250   30.8960   49.4290 H   0  0  0  0  0  0  0  0  0  0  0  0
   43.9560   32.3740   47.4400 H   0  0  0  0  0  0  0  0  0  0  0  0
   44.5450   35.4800   45.0420 C   0  0  0  0  0  0  0  0  0  0  0  0
   45.1930   35.3410   43.8020 C   0  0  0  0  0  0  0  0  0  0  0  0
   46.1320   34.3240   43.6650 C   0  0  0  0  0  0  0  0  0  0  0  0
   46.3720   33.5190   44.7320 N   0  0  0  0  0  0  0  0  0  0  0  0
   45.7360   33.6700   45.9190 C   0  0  0  0  0  0  0  0  0  0  0  0
   44.8200   34.6540   46.0710 N   0  0  0  0  0  0  0  0  0  0  0  0
   43.8310   36.2910   45.0720 H   0  0  0  0  0  0  0  0  0  0  0  0
   45.0370   35.9500   42.9330 H   0  0  0  0  0  0  0  0  0  0  0  0
   46.7190   34.0750   42.7930 H   0  0  0  0  0  0  0  0  0  0  0  0
   49.2100   31.5190   49.1090 S   0  0  0  0  0  0  0  0  0  0  0  0
   49.4990   28.0150   49.7820 H   0  0  0  0  0  0  0  0  0  0  0  0
   49.4000   28.9120   49.2710 N   0  0  0  0  0  0  0  0  0  0  0  0
   49.3500   30.0350   50.1790 C   0  0  1  0  0  3  0  0  0  0  0  0
   50.5150   30.1390   51.0840 C   0  0  0  0  0  3  0  0  0  0  0  0
   50.7740   31.2060   51.2360 H   0  0  0  0  0  0  0  0  0  0  0  0
   51.6850   29.4280   50.7100 N   0  0  0  0  0  0  0  0  0  0  0  0
   52.5870   29.9100   50.9270 H   0  0  0  0  0  0  0  0  0  0  0  0
   51.7510   28.8380   49.4310 C   0  0  0  0  0  2  0  0  0  0  0  0
   50.6300   29.1240   48.4890 C   0  0  0  0  0  2  0  0  0  0  0  0
  1  2  2  0  0  0  0
  1  6  1  0  0  0  0
  2  3  1  0  0  0  0
  3 20  1  0  0  0  0
  3  4  2  0  0  0  0
  4  8  1  0  0  0  0
  5  4  1  0  0  0  0
  5  9  1  0  0  0  0
  6  5  2  0  0  0  0
  7  2  1  0  0  0  0
 10  6  1  0  0  0  0
 11 17  1  0  0  0  0
 11 16  1  0  0  0  0
 12 11  2  0  0  0  0
 13 12  1  0  0  0  0
 13 14  2  0  0  0  0
 14 15  1  0  0  0  0
 15 16  2  0  0  0  0
 15  1  1  0  0  0  0
 18 12  1  0  0  0  0
 19 13  1  0  0  0  0
 22 21  1  0  0  0  0
 22 23  1  0  0  0  0
 23 20  1  6  0  0  0
 23 24  1  0  0  0  0
 24 25  1  0  0  0  0
 26 27  1  0  0  0  0
 26 24  1  0  0  0  0
 28 26  1  0  0  0  0
 29 22  1  0  0  0  0
 29 28  1  0  0  0  0
M  END
>  <minimizedAffinity>
-5.39329147

>  <minimizedRMSD>
1.15186131

$$$$
