
 OpenBabel03242521093D

 19 20  0  0  1  0  0  0  0  0999 V2000
   45.7490   32.7210   47.3170 S   0  0  0  0  0  0  0  0  0  0  0  0
   44.6160   35.6330   44.7810 C   0  0  0  0  0  0  0  0  0  0  0  0
   45.3850   35.3070   43.6400 C   0  0  0  0  0  0  0  0  0  0  0  0
   46.2240   34.1960   43.7040 C   0  0  0  0  0  0  0  0  0  0  0  0
   46.2460   33.5020   44.8600 N   0  0  0  0  0  0  0  0  0  0  0  0
   45.5070   33.8240   45.9410 C   0  0  0  0  0  0  0  0  0  0  0  0
   44.6980   34.8870   45.8940 N   0  0  0  0  0  0  0  0  0  0  0  0
   43.9840   36.4820   44.7090 H   0  0  0  0  0  0  0  0  0  0  0  0
   45.3850   35.8410   42.7140 H   0  0  0  0  0  0  0  0  0  0  0  0
   46.8310   33.9140   42.8480 H   0  0  0  0  0  0  0  0  0  0  0  0
   46.5310   31.1400   45.2310 H   0  0  0  0  0  0  0  0  0  0  0  0
   46.5100   30.5410   46.0740 N   0  0  0  0  0  0  0  0  0  0  0  0
   45.3980   30.9940   46.9000 C   0  0  1  0  0  3  0  0  0  0  0  0
   45.4360   30.1290   48.1620 C   0  0  0  0  0  3  0  0  0  0  0  0
   44.4690   29.5690   48.2910 H   0  0  0  0  0  0  0  0  0  0  0  0
   46.4660   29.1160   48.1060 N   0  0  0  0  0  0  0  0  0  0  0  0
   46.2550   28.5080   47.2670 H   0  0  0  0  0  0  0  0  0  0  0  0
   47.7820   29.6820   47.8980 C   0  0  0  0  0  2  0  0  0  0  0  0
   47.7170   30.7640   46.8570 C   0  0  0  0  0  2  0  0  0  0  0  0
  2  7  1  0  0  0  0
  3  4  1  0  0  0  0
  3  2  2  0  0  0  0
  4  5  2  0  0  0  0
  5  6  1  0  0  0  0
  6  1  1  0  0  0  0
  7  6  2  0  0  0  0
  8  2  1  0  0  0  0
  9  3  1  0  0  0  0
 10  4  1  0  0  0  0
 11 12  1  0  0  0  0
 12 19  1  0  0  0  0
 12 13  1  0  0  0  0
 13  1  1  1  0  0  0
 13 14  1  0  0  0  0
 14 15  1  0  0  0  0
 16 14  1  0  0  0  0
 17 16  1  0  0  0  0
 18 16  1  0  0  0  0
 19 18  1  0  0  0  0
M  END
>  <minimizedAffinity>
-3.77415419

>  <minimizedRMSD>
1.09626198

$$$$
