
 OpenBabel03242520133D

 34 36  0  0  0  0  0  0  0  0999 V2000
   39.8200   30.3690   41.9850 C   0  0  0  0  0  0  0  0  0  0  0  0
   41.0130   29.7550   42.1220 C   0  0  0  0  0  0  0  0  0  0  0  0
   41.0730   28.5470   42.7940 C   0  0  0  0  0  0  0  0  0  0  0  0
   39.9060   27.9880   43.3150 C   0  0  0  0  0  0  0  0  0  0  0  0
   38.6760   28.6620   43.1510 C   0  0  0  0  0  0  0  0  0  0  0  0
   38.6940   29.7940   42.5080 N   0  0  0  0  0  0  0  0  0  0  0  0
   41.8790   30.2450   41.6940 H   0  0  0  0  0  0  0  0  0  0  0  0
   42.0340   28.0910   42.8820 H   0  0  0  0  0  0  0  0  0  0  0  0
   39.9520   27.0310   43.8450 H   0  0  0  0  0  0  0  0  0  0  0  0
   38.2140   33.1720   40.2660 C   0  0  0  0  0  0  0  0  0  0  0  0
   39.3170   34.0220   40.0240 C   0  0  0  0  0  0  0  0  0  0  0  0
   40.5960   33.6410   40.4430 C   0  0  0  0  0  0  0  0  0  0  0  0
   40.6520   32.4590   41.0580 N   0  0  0  0  0  0  0  0  0  0  0  0
   39.6310   31.6560   41.2910 C   0  0  0  0  0  0  0  0  0  0  0  0
   38.3930   32.0090   40.8920 N   0  0  0  0  0  0  0  0  0  0  0  0
   36.9120   33.5800   39.8260 N   0  0  0  0  0  0  0  0  0  0  0  0
   39.1320   34.9580   39.5130 H   0  0  0  0  0  0  0  0  0  0  0  0
   41.3950   34.3030   40.2430 H   0  0  0  0  0  0  0  0  0  0  0  0
   36.0740   33.9790   40.2790 H   0  0  0  0  0  0  0  0  0  0  0  0
   37.0130   33.3580   38.8120 H   0  0  0  0  0  0  0  0  0  0  0  0
   37.4470   28.1080   43.6800 C   0  0  0  0  0  3  0  0  0  0  0  0
   36.6580   27.3280   42.9610 C   0  0  0  0  0  3  0  0  0  0  0  0
   36.9450   26.9440   41.5540 C   0  0  0  0  0  0  0  0  0  0  0  0
   37.5830   27.7000   41.1010 H   0  0  0  0  0  0  0  0  0  0  0  0
   35.9680   26.9250   41.0020 H   0  0  0  0  0  0  0  0  0  0  0  0
   37.5810   25.6430   41.6020 N   0  0  0  0  0  0  0  0  0  0  0  0
   38.8490   25.6130   40.8620 C   0  0  0  0  0  3  0  0  0  0  0  0
   39.3740   26.5410   41.0990 H   0  0  0  0  0  0  0  0  0  0  0  0
   39.5510   24.3630   41.4020 C   0  0  0  0  0  3  0  0  0  0  0  0
   40.3640   24.0260   40.7600 H   0  0  0  0  0  0  0  0  0  0  0  0
   38.5550   23.3430   41.7080 N   0  0  0  0  0  0  0  0  0  0  0  0
   38.2380   23.4240   42.6920 H   0  0  0  0  0  0  0  0  0  0  0  0
   37.4140   23.4180   40.8010 C   0  0  0  0  0  2  0  0  0  0  0  0
   36.6530   24.7160   40.9290 C   0  0  0  0  0  2  0  0  0  0  0  0
  1  2  2  0  0  0  0
  1  6  1  0  0  0  0
  2  3  1  0  0  0  0
  3  8  1  0  0  0  0
  3  4  2  0  0  0  0
  4  9  1  0  0  0  0
  5  4  1  0  0  0  0
  5 21  1  0  0  0  0
  6  5  2  0  0  0  0
  7  2  1  0  0  0  0
 10 15  1  0  0  0  0
 11 10  2  0  0  0  0
 11 12  1  0  0  0  0
 12 13  2  0  0  0  0
 13 14  1  0  0  0  0
 14  1  1  0  0  0  0
 15 14  2  0  0  0  0
 16 10  1  0  0  0  0
 16 19  1  0  0  0  0
 17 11  1  0  0  0  0
 18 12  1  0  0  0  0
 20 16  1  0  0  0  0
 22 21  2  0  0  0  0
 23 26  1  0  0  0  0
 23 22  1  0  0  0  0
 24 23  1  0  0  0  0
 25 23  1  0  0  0  0
 27 28  1  0  0  0  0
 27 29  1  0  0  0  0
 27 26  1  0  0  0  0
 29 31  1  0  0  0  0
 30 29  1  0  0  0  0
 31 32  1  0  0  0  0
 33 34  1  0  0  0  0
 33 31  1  0  0  0  0
 34 26  1  0  0  0  0
M  END
>  <minimizedAffinity>
-5.9681797

$$$$

 OpenBabel03242520133D

 34 36  0  0  0  0  0  0  0  0999 V2000
   37.3780   29.9200   40.1610 C   0  0  0  0  0  0  0  0  0  0  0  0
   37.2100   29.4840   38.8950 C   0  0  0  0  0  0  0  0  0  0  0  0
   37.2120   30.4030   37.8630 C   0  0  0  0  0  0  0  0  0  0  0  0
   37.3840   31.7590   38.1440 C   0  0  0  0  0  0  0  0  0  0  0  0
   37.5560   32.1770   39.4830 C   0  0  0  0  0  0  0  0  0  0  0  0
   37.5440   31.2570   40.4040 N   0  0  0  0  0  0  0  0  0  0  0  0
   37.0810   28.4190   38.7480 H   0  0  0  0  0  0  0  0  0  0  0  0
   37.0770   30.0210   36.8750 H   0  0  0  0  0  0  0  0  0  0  0  0
   37.3880   32.4880   37.3270 H   0  0  0  0  0  0  0  0  0  0  0  0
   37.1840   26.9130   42.2380 C   0  0  0  0  0  0  0  0  0  0  0  0
   37.4370   27.4430   43.5220 C   0  0  0  0  0  0  0  0  0  0  0  0
   37.6690   28.8130   43.6790 C   0  0  0  0  0  0  0  0  0  0  0  0
   37.6290   29.5180   42.5470 N   0  0  0  0  0  0  0  0  0  0  0  0
   37.3950   29.0370   41.3410 C   0  0  0  0  0  0  0  0  0  0  0  0
   37.1680   27.7190   41.1750 N   0  0  0  0  0  0  0  0  0  0  0  0
   36.9460   25.5060   42.0990 N   0  0  0  0  0  0  0  0  0  0  0  0
   37.4430   26.7570   44.3600 H   0  0  0  0  0  0  0  0  0  0  0  0
   37.8530   29.1720   44.6560 H   0  0  0  0  0  0  0  0  0  0  0  0
   37.5000   24.6930   41.7840 H   0  0  0  0  0  0  0  0  0  0  0  0
   35.9580   25.4820   42.4340 H   0  0  0  0  0  0  0  0  0  0  0  0
   37.7390   33.5760   39.8080 C   0  0  0  0  0  3  0  0  0  0  0  0
   38.9100   34.0690   40.1740 C   0  0  0  0  0  3  0  0  0  0  0  0
   40.1440   33.2500   40.2880 C   0  0  0  0  0  0  0  0  0  0  0  0
   39.8690   32.2090   40.4440 H   0  0  0  0  0  0  0  0  0  0  0  0
   40.7070   33.6080   41.1900 H   0  0  0  0  0  0  0  0  0  0  0  0
   40.8850   33.4450   39.0580 N   0  0  0  0  0  0  0  0  0  0  0  0
   41.2750   32.1750   38.4330 C   0  0  0  0  0  3  0  0  0  0  0  0
   40.4140   31.5080   38.5090 H   0  0  0  0  0  0  0  0  0  0  0  0
   41.6110   32.5720   36.9920 C   0  0  0  0  0  3  0  0  0  0  0  0
   42.1960   31.8140   36.4720 H   0  0  0  0  0  0  0  0  0  0  0  0
   42.1990   33.9060   36.9820 N   0  0  0  0  0  0  0  0  0  0  0  0
   41.4650   34.6290   36.8660 H   0  0  0  0  0  0  0  0  0  0  0  0
   42.9730   34.1610   38.1930 C   0  0  0  0  0  2  0  0  0  0  0  0
   42.1220   34.1500   39.4410 C   0  0  0  0  0  2  0  0  0  0  0  0
  1  6  1  0  0  0  0
  1 14  1  0  0  0  0
  2  1  2  0  0  0  0
  3  4  2  0  0  0  0
  3  2  1  0  0  0  0
  4  5  1  0  0  0  0
  5 21  1  0  0  0  0
  5  6  2  0  0  0  0
  7  2  1  0  0  0  0
  8  3  1  0  0  0  0
  9  4  1  0  0  0  0
 10 11  1  0  0  0  0
 11 12  2  0  0  0  0
 11 17  1  0  0  0  0
 12 18  1  0  0  0  0
 13 12  1  0  0  0  0
 14 13  2  0  0  0  0
 15 14  1  0  0  0  0
 15 10  2  0  0  0  0
 16 10  1  0  0  0  0
 16 20  1  0  0  0  0
 19 16  1  0  0  0  0
 21 22  2  0  0  0  0
 22 23  1  0  0  0  0
 23 24  1  0  0  0  0
 23 25  1  0  0  0  0
 26 34  1  0  0  0  0
 26 23  1  0  0  0  0
 27 28  1  0  0  0  0
 27 26  1  0  0  0  0
 29 27  1  0  0  0  0
 30 29  1  0  0  0  0
 31 29  1  0  0  0  0
 31 33  1  0  0  0  0
 32 31  1  0  0  0  0
 33 34  1  0  0  0  0
M  END
>  <minimizedAffinity>
-5.91027164

$$$$

 OpenBabel03242520133D

 34 36  0  0  0  0  0  0  0  0999 V2000
   37.2750   30.5370   40.9720 C   0  0  0  0  0  0  0  0  0  0  0  0
   36.2690   30.0360   40.2250 C   0  0  0  0  0  0  0  0  0  0  0  0
   35.7010   28.8280   40.5870 C   0  0  0  0  0  0  0  0  0  0  0  0
   36.1740   28.1510   41.7110 C   0  0  0  0  0  0  0  0  0  0  0  0
   37.2290   28.7080   42.4680 C   0  0  0  0  0  0  0  0  0  0  0  0
   37.7160   29.8480   42.0690 N   0  0  0  0  0  0  0  0  0  0  0  0
   35.9510   30.6120   39.3650 H   0  0  0  0  0  0  0  0  0  0  0  0
   34.9080   28.4640   39.9730 H   0  0  0  0  0  0  0  0  0  0  0  0
   35.7240   27.1960   42.0010 H   0  0  0  0  0  0  0  0  0  0  0  0
   39.8660   33.1140   40.8010 C   0  0  0  0  0  0  0  0  0  0  0  0
   39.1790   34.1590   40.1450 C   0  0  0  0  0  0  0  0  0  0  0  0
   37.8440   33.9870   39.7660 C   0  0  0  0  0  0  0  0  0  0  0  0
   37.3260   32.7970   40.0750 N   0  0  0  0  0  0  0  0  0  0  0  0
   37.9560   31.8120   40.6860 C   0  0  0  0  0  0  0  0  0  0  0  0
   39.2430   31.9640   41.0580 N   0  0  0  0  0  0  0  0  0  0  0  0
   41.2340   33.3120   41.1830 N   0  0  0  0  0  0  0  0  0  0  0  0
   39.7200   35.0780   39.9530 H   0  0  0  0  0  0  0  0  0  0  0  0
   37.3640   34.7930   39.2790 H   0  0  0  0  0  0  0  0  0  0  0  0
   42.1520   33.0180   40.8110 H   0  0  0  0  0  0  0  0  0  0  0  0
   41.0760   33.9000   42.0300 H   0  0  0  0  0  0  0  0  0  0  0  0
   37.7430   28.0310   43.6400 C   0  0  0  0  0  3  0  0  0  0  0  0
   38.5650   26.9990   43.5560 C   0  0  0  0  0  3  0  0  0  0  0  0
   39.0410   26.4330   42.2670 C   0  0  0  0  0  0  0  0  0  0  0  0
   39.0450   27.2180   41.5130 H   0  0  0  0  0  0  0  0  0  0  0  0
   38.3100   25.6420   41.9530 H   0  0  0  0  0  0  0  0  0  0  0  0
   40.3650   25.8990   42.5130 N   0  0  0  0  0  0  0  0  0  0  0  0
   41.2730   26.9000   43.0880 C   0  0  0  0  0  3  0  0  0  0  0  0
   40.7030   27.4480   43.8410 H   0  0  0  0  0  0  0  0  0  0  0  0
   42.4080   26.0580   43.6790 C   0  0  0  0  0  3  0  0  0  0  0  0
   43.3050   26.6430   43.8820 H   0  0  0  0  0  0  0  0  0  0  0  0
   42.6250   24.8830   42.8430 N   0  0  0  0  0  0  0  0  0  0  0  0
   42.0470   24.0880   43.1720 H   0  0  0  0  0  0  0  0  0  0  0  0
   42.3460   25.1650   41.4380 C   0  0  0  0  0  2  0  0  0  0  0  0
   40.8990   25.5220   41.1920 C   0  0  0  0  0  2  0  0  0  0  0  0
  1  6  1  0  0  0  0
  2  3  1  0  0  0  0
  2  1  2  0  0  0  0
  3  4  2  0  0  0  0
  4  9  1  0  0  0  0
  4  5  1  0  0  0  0
  5 21  1  0  0  0  0
  6  5  2  0  0  0  0
  7  2  1  0  0  0  0
  8  3  1  0  0  0  0
 10 15  1  0  0  0  0
 10 16  1  0  0  0  0
 11 10  2  0  0  0  0
 12 13  2  0  0  0  0
 12 11  1  0  0  0  0
 13 14  1  0  0  0  0
 14  1  1  0  0  0  0
 14 15  2  0  0  0  0
 16 20  1  0  0  0  0
 17 11  1  0  0  0  0
 18 12  1  0  0  0  0
 19 16  1  0  0  0  0
 22 21  2  0  0  0  0
 23 26  1  0  0  0  0
 23 22  1  0  0  0  0
 24 23  1  0  0  0  0
 25 23  1  0  0  0  0
 26 27  1  0  0  0  0
 27 29  1  0  0  0  0
 27 28  1  0  0  0  0
 29 30  1  0  0  0  0
 31 32  1  0  0  0  0
 31 29  1  0  0  0  0
 33 31  1  0  0  0  0
 34 33  1  0  0  0  0
 34 26  1  0  0  0  0
M  END
>  <minimizedAffinity>
-5.81618404

$$$$

 OpenBabel03242520133D

 34 36  0  0  0  0  0  0  0  0999 V2000
   39.9590   30.3080   42.0370 C   0  0  0  0  0  0  0  0  0  0  0  0
   41.1330   29.6620   42.1960 C   0  0  0  0  0  0  0  0  0  0  0  0
   41.1470   28.4450   42.8520 C   0  0  0  0  0  0  0  0  0  0  0  0
   39.9550   27.9080   43.3370 C   0  0  0  0  0  0  0  0  0  0  0  0
   38.7450   28.6140   43.1510 C   0  0  0  0  0  0  0  0  0  0  0  0
   38.8060   29.7530   42.5250 N   0  0  0  0  0  0  0  0  0  0  0  0
   42.0210   30.1370   41.7960 H   0  0  0  0  0  0  0  0  0  0  0  0
   42.0940   27.9650   42.9580 H   0  0  0  0  0  0  0  0  0  0  0  0
   39.9640   26.9430   43.8540 H   0  0  0  0  0  0  0  0  0  0  0  0
   38.4560   33.2010   40.3750 C   0  0  0  0  0  0  0  0  0  0  0  0
   39.5940   33.9950   40.1130 C   0  0  0  0  0  0  0  0  0  0  0  0
   40.8620   33.5480   40.4980 C   0  0  0  0  0  0  0  0  0  0  0  0
   40.8730   32.3600   41.1040 N   0  0  0  0  0  0  0  0  0  0  0  0
   39.8190   31.6080   41.3560 C   0  0  0  0  0  0  0  0  0  0  0  0
   38.5910   32.0250   40.9900 N   0  0  0  0  0  0  0  0  0  0  0  0
   37.1660   33.6770   39.9690 N   0  0  0  0  0  0  0  0  0  0  0  0
   39.4440   34.9440   39.6120 H   0  0  0  0  0  0  0  0  0  0  0  0
   41.6880   34.1700   40.2830 H   0  0  0  0  0  0  0  0  0  0  0  0
   36.3600   34.1140   40.4460 H   0  0  0  0  0  0  0  0  0  0  0  0
   37.2320   33.4580   38.9520 H   0  0  0  0  0  0  0  0  0  0  0  0
   37.4900   28.0830   43.6410 C   0  0  0  0  0  3  0  0  0  0  0  0
   36.7070   27.3210   42.8970 C   0  0  0  0  0  3  0  0  0  0  0  0
   37.0280   26.9340   41.4980 C   0  0  0  0  0  0  0  0  0  0  0  0
   36.3610   26.1330   41.1870 H   0  0  0  0  0  0  0  0  0  0  0  0
   38.0810   26.5440   41.4870 H   0  0  0  0  0  0  0  0  0  0  0  0
   36.8700   28.1280   40.6920 N   0  0  0  0  0  0  0  0  0  0  0  0
   35.5260   28.7080   40.8110 C   0  0  0  0  0  3  0  0  0  0  0  0
   35.2550   28.6630   41.8670 H   0  0  0  0  0  0  0  0  0  0  0  0
   35.7030   30.1370   40.2890 C   0  0  0  0  0  3  0  0  0  0  0  0
   34.7570   30.6110   40.0300 H   0  0  0  0  0  0  0  0  0  0  0  0
   36.6970   30.1420   39.2220 N   0  0  0  0  0  0  0  0  0  0  0  0
   37.6450   30.3100   39.6060 H   0  0  0  0  0  0  0  0  0  0  0  0
   36.6730   28.8980   38.4590 C   0  0  0  0  0  2  0  0  0  0  0  0
   37.0450   27.6960   39.2940 C   0  0  0  0  0  2  0  0  0  0  0  0
  1  2  2  0  0  0  0
  1  6  1  0  0  0  0
  2  3  1  0  0  0  0
  3  8  1  0  0  0  0
  3  4  2  0  0  0  0
  4  9  1  0  0  0  0
  5  4  1  0  0  0  0
  5 21  1  0  0  0  0
  6  5  2  0  0  0  0
  7  2  1  0  0  0  0
 10 15  1  0  0  0  0
 11 10  2  0  0  0  0
 11 12  1  0  0  0  0
 12 13  2  0  0  0  0
 13 14  1  0  0  0  0
 14  1  1  0  0  0  0
 15 14  2  0  0  0  0
 16 10  1  0  0  0  0
 16 19  1  0  0  0  0
 17 11  1  0  0  0  0
 18 12  1  0  0  0  0
 20 16  1  0  0  0  0
 22 21  2  0  0  0  0
 23 22  1  0  0  0  0
 24 23  1  0  0  0  0
 25 23  1  0  0  0  0
 26 27  1  0  0  0  0
 26 23  1  0  0  0  0
 27 28  1  0  0  0  0
 29 27  1  0  0  0  0
 30 29  1  0  0  0  0
 31 32  1  0  0  0  0
 31 29  1  0  0  0  0
 33 31  1  0  0  0  0
 33 34  1  0  0  0  0
 34 26  1  0  0  0  0
M  END
>  <minimizedAffinity>
-5.77897453

$$$$

 OpenBabel03242520133D

 34 36  0  0  0  0  0  0  0  0999 V2000
   39.1200   31.1840   39.2500 C   0  0  0  0  0  0  0  0  0  0  0  0
   37.8860   31.6160   38.9150 C   0  0  0  0  0  0  0  0  0  0  0  0
   36.8470   31.4400   39.8110 C   0  0  0  0  0  0  0  0  0  0  0  0
   37.0890   30.8220   41.0370 C   0  0  0  0  0  0  0  0  0  0  0  0
   38.3950   30.3830   41.3520 C   0  0  0  0  0  0  0  0  0  0  0  0
   39.3240   30.5810   40.4620 N   0  0  0  0  0  0  0  0  0  0  0  0
   37.7680   32.0860   37.9470 H   0  0  0  0  0  0  0  0  0  0  0  0
   35.8860   31.7940   39.5110 H   0  0  0  0  0  0  0  0  0  0  0  0
   36.2680   30.6840   41.7480 H   0  0  0  0  0  0  0  0  0  0  0  0
   41.8030   32.6770   37.2610 C   0  0  0  0  0  0  0  0  0  0  0  0
   42.4760   31.5270   36.7900 C   0  0  0  0  0  0  0  0  0  0  0  0
   42.0180   30.2550   37.1470 C   0  0  0  0  0  0  0  0  0  0  0  0
   40.9410   30.2520   37.9340 N   0  0  0  0  0  0  0  0  0  0  0  0
   40.3030   31.3160   38.3810 C   0  0  0  0  0  0  0  0  0  0  0  0
   40.7330   32.5490   38.0450 N   0  0  0  0  0  0  0  0  0  0  0  0
   42.2880   33.9710   36.8810 N   0  0  0  0  0  0  0  0  0  0  0  0
   43.3420   31.6720   36.1560 H   0  0  0  0  0  0  0  0  0  0  0  0
   42.5470   29.4200   36.7740 H   0  0  0  0  0  0  0  0  0  0  0  0
   42.8430   34.7130   37.3390 H   0  0  0  0  0  0  0  0  0  0  0  0
   41.9090   34.0010   35.9090 H   0  0  0  0  0  0  0  0  0  0  0  0
   38.6790   29.7380   42.6170 C   0  0  0  0  0  3  0  0  0  0  0  0
   38.4380   28.4550   42.8250 C   0  0  0  0  0  3  0  0  0  0  0  0
   37.8570   27.5520   41.7980 C   0  0  0  0  0  0  0  0  0  0  0  0
   38.2340   27.8380   40.8180 H   0  0  0  0  0  0  0  0  0  0  0  0
   36.7450   27.6990   41.8070 H   0  0  0  0  0  0  0  0  0  0  0  0
   38.2430   26.2050   42.1650 N   0  0  0  0  0  0  0  0  0  0  0  0
   39.6480   25.9200   41.8500 C   0  0  0  0  0  3  0  0  0  0  0  0
   40.2220   26.8030   42.1400 H   0  0  0  0  0  0  0  0  0  0  0  0
   39.9640   24.6850   42.6990 C   0  0  0  0  0  3  0  0  0  0  0  0
   40.8640   24.1660   42.3690 H   0  0  0  0  0  0  0  0  0  0  0  0
   38.7770   23.8440   42.7900 N   0  0  0  0  0  0  0  0  0  0  0  0
   38.2090   24.1010   43.6190 H   0  0  0  0  0  0  0  0  0  0  0  0
   37.9670   23.9250   41.5780 C   0  0  0  0  0  2  0  0  0  0  0  0
   37.4130   25.3100   41.3390 C   0  0  0  0  0  2  0  0  0  0  0  0
  1  6  1  0  0  0  0
  2  1  2  0  0  0  0
  2  3  1  0  0  0  0
  3  4  2  0  0  0  0
  4  5  1  0  0  0  0
  4  9  1  0  0  0  0
  5 21  1  0  0  0  0
  6  5  2  0  0  0  0
  7  2  1  0  0  0  0
  8  3  1  0  0  0  0
 10 15  1  0  0  0  0
 11 12  1  0  0  0  0
 11 10  2  0  0  0  0
 12 13  2  0  0  0  0
 13 14  1  0  0  0  0
 14  1  1  0  0  0  0
 15 14  2  0  0  0  0
 16 10  1  0  0  0  0
 16 19  1  0  0  0  0
 17 11  1  0  0  0  0
 18 12  1  0  0  0  0
 20 16  1  0  0  0  0
 21 22  2  0  0  0  0
 23 25  1  0  0  0  0
 23 26  1  0  0  0  0
 23 22  1  0  0  0  0
 24 23  1  0  0  0  0
 27 28  1  0  0  0  0
 27 26  1  0  0  0  0
 27 29  1  0  0  0  0
 29 31  1  0  0  0  0
 30 29  1  0  0  0  0
 31 32  1  0  0  0  0
 33 31  1  0  0  0  0
 34 33  1  0  0  0  0
 34 26  1  0  0  0  0
M  END
>  <minimizedAffinity>
-5.72295332

$$$$

 OpenBabel03242520133D

 34 36  0  0  0  0  0  0  0  0999 V2000
   37.3040   29.9810   40.2140 C   0  0  0  0  0  0  0  0  0  0  0  0
   37.0230   29.6580   38.9350 C   0  0  0  0  0  0  0  0  0  0  0  0
   37.0260   30.6530   37.9750 C   0  0  0  0  0  0  0  0  0  0  0  0
   37.3180   31.9660   38.3420 C   0  0  0  0  0  0  0  0  0  0  0  0
   37.6070   32.2650   39.6930 C   0  0  0  0  0  0  0  0  0  0  0  0
   37.5860   31.2790   40.5420 N   0  0  0  0  0  0  0  0  0  0  0  0
   36.8040   28.6190   38.7190 H   0  0  0  0  0  0  0  0  0  0  0  0
   36.8000   30.3600   36.9740 H   0  0  0  0  0  0  0  0  0  0  0  0
   37.3230   32.7550   37.5830 H   0  0  0  0  0  0  0  0  0  0  0  0
   37.2960   26.8070   42.0360 C   0  0  0  0  0  0  0  0  0  0  0  0
   37.3880   27.2510   43.3730 C   0  0  0  0  0  0  0  0  0  0  0  0
   37.4500   28.6200   43.6510 C   0  0  0  0  0  0  0  0  0  0  0  0
   37.4160   29.4090   42.5760 N   0  0  0  0  0  0  0  0  0  0  0  0
   37.3310   29.0080   41.3220 C   0  0  0  0  0  0  0  0  0  0  0  0
   37.2690   27.6920   41.0390 N   0  0  0  0  0  0  0  0  0  0  0  0
   37.2300   25.3990   41.7730 N   0  0  0  0  0  0  0  0  0  0  0  0
   37.4080   26.5020   44.1550 H   0  0  0  0  0  0  0  0  0  0  0  0
   37.5170   28.9130   44.6640 H   0  0  0  0  0  0  0  0  0  0  0  0
   37.8950   24.6800   41.4460 H   0  0  0  0  0  0  0  0  0  0  0  0
   36.2290   25.2410   42.0200 H   0  0  0  0  0  0  0  0  0  0  0  0
   37.9140   33.6190   40.1060 C   0  0  0  0  0  3  0  0  0  0  0  0
   39.1380   34.1150   40.0450 C   0  0  0  0  0  3  0  0  0  0  0  0
   40.3110   33.3460   39.5510 C   0  0  0  0  0  0  0  0  0  0  0  0
   40.6660   33.7930   38.6250 H   0  0  0  0  0  0  0  0  0  0  0  0
   39.9640   32.3020   39.3320 H   0  0  0  0  0  0  0  0  0  0  0  0
   41.3070   33.3920   40.6020 N   0  0  0  0  0  0  0  0  0  0  0  0
   42.6440   33.7190   40.0910 C   0  0  0  0  0  3  0  0  0  0  0  0
   42.5150   34.5190   39.3590 H   0  0  0  0  0  0  0  0  0  0  0  0
   43.4100   34.1590   41.3420 C   0  0  0  0  0  3  0  0  0  0  0  0
   44.4900   34.1540   41.1990 H   0  0  0  0  0  0  0  0  0  0  0  0
   42.9460   33.3880   42.4900 N   0  0  0  0  0  0  0  0  0  0  0  0
   42.1630   33.8730   42.9640 H   0  0  0  0  0  0  0  0  0  0  0  0
   42.5450   32.0380   42.1030 C   0  0  0  0  0  2  0  0  0  0  0  0
   41.3660   32.0280   41.1590 C   0  0  0  0  0  2  0  0  0  0  0  0
  1  6  1  0  0  0  0
  1 14  1  0  0  0  0
  2  1  2  0  0  0  0
  3  4  2  0  0  0  0
  3  2  1  0  0  0  0
  4  5  1  0  0  0  0
  5 21  1  0  0  0  0
  5  6  2  0  0  0  0
  7  2  1  0  0  0  0
  8  3  1  0  0  0  0
  9  4  1  0  0  0  0
 10 11  1  0  0  0  0
 11 12  2  0  0  0  0
 11 17  1  0  0  0  0
 12 18  1  0  0  0  0
 13 12  1  0  0  0  0
 14 13  2  0  0  0  0
 15 14  1  0  0  0  0
 15 10  2  0  0  0  0
 16 20  1  0  0  0  0
 16 10  1  0  0  0  0
 19 16  1  0  0  0  0
 22 21  2  0  0  0  0
 23 22  1  0  0  0  0
 23 26  1  0  0  0  0
 24 23  1  0  0  0  0
 25 23  1  0  0  0  0
 26 34  1  0  0  0  0
 27 26  1  0  0  0  0
 27 29  1  0  0  0  0
 28 27  1  0  0  0  0
 29 31  1  0  0  0  0
 30 29  1  0  0  0  0
 31 32  1  0  0  0  0
 33 31  1  0  0  0  0
 34 33  1  0  0  0  0
M  END
>  <minimizedAffinity>
-5.65407515

$$$$

 OpenBabel03242520133D

 34 36  0  0  0  0  0  0  0  0999 V2000
   37.3710   30.5800   41.0600 C   0  0  0  0  0  0  0  0  0  0  0  0
   36.3180   30.1410   40.3390 C   0  0  0  0  0  0  0  0  0  0  0  0
   35.7220   28.9420   40.6840 C   0  0  0  0  0  0  0  0  0  0  0  0
   36.2150   28.2110   41.7640 C   0  0  0  0  0  0  0  0  0  0  0  0
   37.3190   28.7040   42.4940 C   0  0  0  0  0  0  0  0  0  0  0  0
   37.8310   29.8390   42.1140 N   0  0  0  0  0  0  0  0  0  0  0  0
   35.9880   30.7580   39.5120 H   0  0  0  0  0  0  0  0  0  0  0  0
   34.8920   28.6280   40.0910 H   0  0  0  0  0  0  0  0  0  0  0  0
   35.7420   27.2620   42.0400 H   0  0  0  0  0  0  0  0  0  0  0  0
   40.0460   33.0700   40.8680 C   0  0  0  0  0  0  0  0  0  0  0  0
   39.3720   34.1600   40.2760 C   0  0  0  0  0  0  0  0  0  0  0  0
   38.0180   34.0480   39.9460 C   0  0  0  0  0  0  0  0  0  0  0  0
   37.4700   32.8670   40.2360 N   0  0  0  0  0  0  0  0  0  0  0  0
   38.0870   31.8400   40.7880 C   0  0  0  0  0  0  0  0  0  0  0  0
   39.3920   31.9340   41.1120 N   0  0  0  0  0  0  0  0  0  0  0  0
   41.4340   33.2070   41.2010 N   0  0  0  0  0  0  0  0  0  0  0  0
   39.9380   35.0660   40.0920 H   0  0  0  0  0  0  0  0  0  0  0  0
   37.5480   34.8860   39.5060 H   0  0  0  0  0  0  0  0  0  0  0  0
   42.3250   32.8930   40.7830 H   0  0  0  0  0  0  0  0  0  0  0  0
   41.3310   33.7700   42.0730 H   0  0  0  0  0  0  0  0  0  0  0  0
   37.8540   27.9680   43.6220 C   0  0  0  0  0  3  0  0  0  0  0  0
   38.8980   27.1650   43.5080 C   0  0  0  0  0  3  0  0  0  0  0  0
   39.6220   26.9350   42.2310 C   0  0  0  0  0  0  0  0  0  0  0  0
   40.6610   26.6960   42.4480 H   0  0  0  0  0  0  0  0  0  0  0  0
   39.5920   27.8930   41.6470 H   0  0  0  0  0  0  0  0  0  0  0  0
   38.9350   25.8520   41.5560 N   0  0  0  0  0  0  0  0  0  0  0  0
   38.6470   24.7270   42.4540 C   0  0  0  0  0  3  0  0  0  0  0  0
   38.2990   25.1560   43.3960 H   0  0  0  0  0  0  0  0  0  0  0  0
   37.5650   23.9400   41.7090 C   0  0  0  0  0  3  0  0  0  0  0  0
   37.4470   22.9250   42.0870 H   0  0  0  0  0  0  0  0  0  0  0  0
   37.8050   24.0290   40.2730 N   0  0  0  0  0  0  0  0  0  0  0  0
   37.3020   24.8400   39.8680 H   0  0  0  0  0  0  0  0  0  0  0  0
   39.2300   24.1150   39.9710 C   0  0  0  0  0  2  0  0  0  0  0  0
   39.8680   25.3680   40.5230 C   0  0  0  0  0  2  0  0  0  0  0  0
  1  6  1  0  0  0  0
  2  3  1  0  0  0  0
  2  1  2  0  0  0  0
  3  4  2  0  0  0  0
  4  9  1  0  0  0  0
  4  5  1  0  0  0  0
  5 21  1  0  0  0  0
  6  5  2  0  0  0  0
  7  2  1  0  0  0  0
  8  3  1  0  0  0  0
 10 15  1  0  0  0  0
 10 16  1  0  0  0  0
 11 10  2  0  0  0  0
 12 13  2  0  0  0  0
 12 11  1  0  0  0  0
 13 14  1  0  0  0  0
 14  1  1  0  0  0  0
 14 15  2  0  0  0  0
 16 20  1  0  0  0  0
 17 11  1  0  0  0  0
 18 12  1  0  0  0  0
 19 16  1  0  0  0  0
 22 21  2  0  0  0  0
 23 24  1  0  0  0  0
 23 22  1  0  0  0  0
 25 23  1  0  0  0  0
 26 23  1  0  0  0  0
 26 27  1  0  0  0  0
 27 28  1  0  0  0  0
 29 30  1  0  0  0  0
 29 27  1  0  0  0  0
 31 29  1  0  0  0  0
 32 31  1  0  0  0  0
 33 31  1  0  0  0  0
 33 34  1  0  0  0  0
 34 26  1  0  0  0  0
M  END
>  <minimizedAffinity>
-5.65307093

$$$$

 OpenBabel03242520133D

 34 36  0  0  0  0  0  0  0  0999 V2000
   37.3900   26.7190   41.7110 C   0  0  0  0  0  0  0  0  0  0  0  0
   38.0770   26.6910   42.8720 C   0  0  0  0  0  0  0  0  0  0  0  0
   38.2150   27.8600   43.5990 C   0  0  0  0  0  0  0  0  0  0  0  0
   37.6460   29.0410   43.1220 C   0  0  0  0  0  0  0  0  0  0  0  0
   36.9340   29.0290   41.9020 C   0  0  0  0  0  0  0  0  0  0  0  0
   36.8440   27.8940   41.2720 N   0  0  0  0  0  0  0  0  0  0  0  0
   38.4940   25.7410   43.1830 H   0  0  0  0  0  0  0  0  0  0  0  0
   38.7650   27.7990   44.5110 H   0  0  0  0  0  0  0  0  0  0  0  0
   37.7530   29.9670   43.6980 H   0  0  0  0  0  0  0  0  0  0  0  0
   37.5460   23.2940   40.4330 C   0  0  0  0  0  0  0  0  0  0  0  0
   36.7630   23.3960   39.2620 C   0  0  0  0  0  0  0  0  0  0  0  0
   36.1890   24.6220   38.9110 C   0  0  0  0  0  0  0  0  0  0  0  0
   36.4480   25.6210   39.7560 N   0  0  0  0  0  0  0  0  0  0  0  0
   37.1760   25.5400   40.8530 C   0  0  0  0  0  0  0  0  0  0  0  0
   37.7360   24.3650   41.2030 N   0  0  0  0  0  0  0  0  0  0  0  0
   38.1270   22.0280   40.7730 N   0  0  0  0  0  0  0  0  0  0  0  0
   36.6300   22.5040   38.6620 H   0  0  0  0  0  0  0  0  0  0  0  0
   35.6110   24.6580   38.0270 H   0  0  0  0  0  0  0  0  0  0  0  0
   37.9100   21.2750   41.4460 H   0  0  0  0  0  0  0  0  0  0  0  0
   38.9230   22.0360   40.0980 H   0  0  0  0  0  0  0  0  0  0  0  0
   36.3310   30.2390   41.3810 C   0  0  0  0  0  3  0  0  0  0  0  0
   37.0370   31.1690   40.7620 C   0  0  0  0  0  3  0  0  0  0  0  0
   38.5030   31.0740   40.5400 C   0  0  0  0  0  0  0  0  0  0  0  0
   38.8230   30.0460   40.7020 H   0  0  0  0  0  0  0  0  0  0  0  0
   39.0050   31.7270   41.3020 H   0  0  0  0  0  0  0  0  0  0  0  0
   38.7460   31.5190   39.1820 N   0  0  0  0  0  0  0  0  0  0  0  0
   38.0540   30.6870   38.1900 C   0  0  0  0  0  3  0  0  0  0  0  0
   37.0540   30.4930   38.5820 H   0  0  0  0  0  0  0  0  0  0  0  0
   38.0540   31.5560   36.9290 C   0  0  0  0  0  3  0  0  0  0  0  0
   37.8460   30.9860   36.0240 H   0  0  0  0  0  0  0  0  0  0  0  0
   39.2800   32.3440   36.8840 N   0  0  0  0  0  0  0  0  0  0  0  0
   39.1450   33.2590   37.3510 H   0  0  0  0  0  0  0  0  0  0  0  0
   40.4000   31.6280   37.4880 C   0  0  0  0  0  2  0  0  0  0  0  0
   40.1950   31.3620   38.9600 C   0  0  0  0  0  2  0  0  0  0  0  0
  1  2  1  0  0  0  0
  2  7  1  0  0  0  0
  2  3  2  0  0  0  0
  3  8  1  0  0  0  0
  4  3  1  0  0  0  0
  4  9  1  0  0  0  0
  5  4  2  0  0  0  0
  6  1  2  0  0  0  0
  6  5  1  0  0  0  0
 10 16  1  0  0  0  0
 10 15  1  0  0  0  0
 11 10  2  0  0  0  0
 12 11  1  0  0  0  0
 12 13  2  0  0  0  0
 13 14  1  0  0  0  0
 14 15  2  0  0  0  0
 14  1  1  0  0  0  0
 16 19  1  0  0  0  0
 17 11  1  0  0  0  0
 18 12  1  0  0  0  0
 20 16  1  0  0  0  0
 21  5  1  0  0  0  0
 22 21  2  0  0  0  0
 23 24  1  0  0  0  0
 23 22  1  0  0  0  0
 23 25  1  0  0  0  0
 26 23  1  0  0  0  0
 27 28  1  0  0  0  0
 27 26  1  0  0  0  0
 29 27  1  0  0  0  0
 30 29  1  0  0  0  0
 31 29  1  0  0  0  0
 31 32  1  0  0  0  0
 31 33  1  0  0  0  0
 33 34  1  0  0  0  0
 34 26  1  0  0  0  0
M  END
>  <minimizedAffinity>
-5.58490372

$$$$

 OpenBabel03242520133D

 34 36  0  0  0  0  0  0  0  0999 V2000
   36.4250   26.9930   39.2750 C   0  0  0  0  0  0  0  0  0  0  0  0
   36.7500   25.6840   39.2990 C   0  0  0  0  0  0  0  0  0  0  0  0
   37.1560   25.1140   40.4920 C   0  0  0  0  0  0  0  0  0  0  0  0
   37.2240   25.8970   41.6440 C   0  0  0  0  0  0  0  0  0  0  0  0
   36.8750   27.2650   41.5790 C   0  0  0  0  0  0  0  0  0  0  0  0
   36.5020   27.7340   40.4230 N   0  0  0  0  0  0  0  0  0  0  0  0
   36.6760   25.1350   38.3680 H   0  0  0  0  0  0  0  0  0  0  0  0
   37.4040   24.0770   40.4710 H   0  0  0  0  0  0  0  0  0  0  0  0
   37.5430   25.4470   42.5900 H   0  0  0  0  0  0  0  0  0  0  0  0
   36.4380   28.4970   35.9390 C   0  0  0  0  0  0  0  0  0  0  0  0
   35.1300   29.0240   35.8640 C   0  0  0  0  0  0  0  0  0  0  0  0
   34.2520   28.8690   36.9420 C   0  0  0  0  0  0  0  0  0  0  0  0
   34.7590   28.2070   37.9830 N   0  0  0  0  0  0  0  0  0  0  0  0
   35.9780   27.7100   38.0670 C   0  0  0  0  0  0  0  0  0  0  0  0
   36.8350   27.8520   37.0360 N   0  0  0  0  0  0  0  0  0  0  0  0
   37.3230   28.6690   34.8240 N   0  0  0  0  0  0  0  0  0  0  0  0
   34.8430   29.5400   34.9560 H   0  0  0  0  0  0  0  0  0  0  0  0
   33.2820   29.2780   36.8480 H   0  0  0  0  0  0  0  0  0  0  0  0
   37.6580   28.0710   34.0510 H   0  0  0  0  0  0  0  0  0  0  0  0
   37.5860   29.6650   34.9870 H   0  0  0  0  0  0  0  0  0  0  0  0
   36.9340   28.1050   42.7570 C   0  0  0  0  0  3  0  0  0  0  0  0
   37.7410   29.1490   42.8400 C   0  0  0  0  0  3  0  0  0  0  0  0
   38.6590   29.5650   41.7480 C   0  0  0  0  0  0  0  0  0  0  0  0
   38.6920   28.7820   40.9920 H   0  0  0  0  0  0  0  0  0  0  0  0
   39.6840   29.6760   42.1900 H   0  0  0  0  0  0  0  0  0  0  0  0
   38.1410   30.8140   41.2250 N   0  0  0  0  0  0  0  0  0  0  0  0
   37.9330   30.7680   39.7720 C   0  0  0  0  0  3  0  0  0  0  0  0
   37.4850   29.7980   39.5480 H   0  0  0  0  0  0  0  0  0  0  0  0
   36.9930   31.9480   39.5060 C   0  0  0  0  0  3  0  0  0  0  0  0
   36.9700   32.2400   38.4570 H   0  0  0  0  0  0  0  0  0  0  0  0
   37.3020   33.0310   40.4320 N   0  0  0  0  0  0  0  0  0  0  0  0
   36.7340   32.9490   41.2950 H   0  0  0  0  0  0  0  0  0  0  0  0
   38.7240   33.0640   40.7640 C   0  0  0  0  0  2  0  0  0  0  0  0
   39.1810   31.8230   41.4930 C   0  0  0  0  0  2  0  0  0  0  0  0
  1  2  2  0  0  0  0
  1  6  1  0  0  0  0
  2  3  1  0  0  0  0
  3  4  2  0  0  0  0
  4  9  1  0  0  0  0
  5  4  1  0  0  0  0
  5 21  1  0  0  0  0
  6  5  2  0  0  0  0
  7  2  1  0  0  0  0
  8  3  1  0  0  0  0
 10 15  1  0  0  0  0
 11 10  2  0  0  0  0
 11 12  1  0  0  0  0
 12 13  2  0  0  0  0
 13 14  1  0  0  0  0
 14  1  1  0  0  0  0
 15 14  2  0  0  0  0
 16 20  1  0  0  0  0
 16 10  1  0  0  0  0
 17 11  1  0  0  0  0
 18 12  1  0  0  0  0
 19 16  1  0  0  0  0
 21 22  2  0  0  0  0
 23 25  1  0  0  0  0
 23 22  1  0  0  0  0
 24 23  1  0  0  0  0
 26 34  1  0  0  0  0
 26 23  1  0  0  0  0
 27 26  1  0  0  0  0
 28 27  1  0  0  0  0
 29 27  1  0  0  0  0
 29 31  1  0  0  0  0
 30 29  1  0  0  0  0
 31 33  1  0  0  0  0
 31 32  1  0  0  0  0
 33 34  1  0  0  0  0
M  END
>  <minimizedAffinity>
-5.52428913

$$$$
