
 OpenBabel03242521093D

 19 20  0  0  1  0  0  0  0  0999 V2000
   46.4910   32.6850   46.7870 S   0  0  0  0  0  0  0  0  0  0  0  0
   44.5570   35.5850   44.7770 C   0  0  0  0  0  0  0  0  0  0  0  0
   45.1970   35.5100   43.5190 C   0  0  0  0  0  0  0  0  0  0  0  0
   46.2040   34.5620   43.3450 C   0  0  0  0  0  0  0  0  0  0  0  0
   46.5010   33.7730   44.3980 N   0  0  0  0  0  0  0  0  0  0  0  0
   45.8820   33.8560   45.5940 C   0  0  0  0  0  0  0  0  0  0  0  0
   44.9160   34.7610   45.7750 N   0  0  0  0  0  0  0  0  0  0  0  0
   43.7940   36.3140   44.8860 H   0  0  0  0  0  0  0  0  0  0  0  0
   44.9800   36.1230   42.6700 H   0  0  0  0  0  0  0  0  0  0  0  0
   46.7190   34.4740   42.3930 H   0  0  0  0  0  0  0  0  0  0  0  0
   46.6270   30.7010   44.9140 H   0  0  0  0  0  0  0  0  0  0  0  0
   46.5480   30.2400   45.8370 N   0  0  0  0  0  0  0  0  0  0  0  0
   45.6790   31.0700   46.6620 C   0  0  1  0  0  3  0  0  0  0  0  0
   45.6360   30.3940   48.0330 C   0  0  0  0  0  3  0  0  0  0  0  0
   44.5780   30.1280   48.3140 H   0  0  0  0  0  0  0  0  0  0  0  0
   46.3690   29.1480   48.0590 N   0  0  0  0  0  0  0  0  0  0  0  0
   45.9230   28.5150   47.3390 H   0  0  0  0  0  0  0  0  0  0  0  0
   47.7530   29.3190   47.6750 C   0  0  0  0  0  2  0  0  0  0  0  0
   47.8500   30.2380   46.4900 C   0  0  0  0  0  2  0  0  0  0  0  0
  2  8  1  0  0  0  0
  2  7  1  0  0  0  0
  3  2  2  0  0  0  0
  4  3  1  0  0  0  0
  4  5  2  0  0  0  0
  5  6  1  0  0  0  0
  6  7  2  0  0  0  0
  6  1  1  0  0  0  0
  9  3  1  0  0  0  0
 10  4  1  0  0  0  0
 11 12  1  0  0  0  0
 12 19  1  0  0  0  0
 12 13  1  0  0  0  0
 13  1  1  1  0  0  0
 13 14  1  0  0  0  0
 14 16  1  0  0  0  0
 14 15  1  0  0  0  0
 17 16  1  0  0  0  0
 18 16  1  0  0  0  0
 19 18  1  0  0  0  0
M  END
>  <minimizedAffinity>
-3.852525

>  <minimizedRMSD>
0.706397235

$$$$
