
 OpenBabel03242516213D

 29 31  0  0  1  0  0  0  0  0999 V2000
   46.0010   32.7400   47.0600 C   0  0  0  0  0  0  0  0  0  0  0  0
   47.2710   32.4240   47.5380 C   0  0  0  0  0  0  0  0  0  0  0  0
   47.4050   31.6270   48.6640 C   0  0  0  0  0  0  0  0  0  0  0  0
   46.3100   31.1280   49.3370 C   0  0  0  0  0  0  0  0  0  0  0  0
   45.0720   31.4330   48.8740 C   0  0  0  0  0  0  0  0  0  0  0  0
   44.9230   32.2270   47.7520 C   0  0  0  0  0  0  0  0  0  0  0  0
   48.0990   32.8450   46.9670 H   0  0  0  0  0  0  0  0  0  0  0  0
   46.5290   30.5110   50.2110 H   0  0  0  0  0  0  0  0  0  0  0  0
   44.2330   31.0270   49.4230 H   0  0  0  0  0  0  0  0  0  0  0  0
   43.9340   32.4730   47.3790 H   0  0  0  0  0  0  0  0  0  0  0  0
   44.7230   35.3580   44.8590 C   0  0  0  0  0  0  0  0  0  0  0  0
   45.4860   35.2100   43.6880 C   0  0  0  0  0  0  0  0  0  0  0  0
   46.4460   34.2050   43.6550 C   0  0  0  0  0  0  0  0  0  0  0  0
   46.5960   33.4190   44.7520 N   0  0  0  0  0  0  0  0  0  0  0  0
   45.8490   33.5780   45.8720 C   0  0  0  0  0  0  0  0  0  0  0  0
   44.9100   34.5510   45.9220 N   0  0  0  0  0  0  0  0  0  0  0  0
   43.9980   36.1590   44.8100 H   0  0  0  0  0  0  0  0  0  0  0  0
   45.4040   35.8050   42.7990 H   0  0  0  0  0  0  0  0  0  0  0  0
   47.1160   33.9520   42.8460 H   0  0  0  0  0  0  0  0  0  0  0  0
   49.0590   31.2670   49.2230 S   0  0  0  0  0  0  0  0  0  0  0  0
   51.6420   28.9960   48.2250 H   0  0  0  0  0  0  0  0  0  0  0  0
   51.1370   29.7510   48.7290 N   0  0  0  0  0  0  0  0  0  0  0  0
   49.8040   29.9380   48.2010 C   0  0  1  0  0  0  0  0  0  0  0  0
   48.9640   28.7210   48.2150 C   0  0  0  0  0  0  0  0  0  0  0  0
   47.9170   28.9950   48.4520 H   0  0  0  0  0  0  0  0  0  0  0  0
   49.3730   27.6700   49.0790 N   0  0  0  0  0  0  0  0  0  0  0  0
   48.5950   27.1460   49.5420 H   0  0  0  0  0  0  0  0  0  0  0  0
   50.4110   27.9030   50.0040 C   0  0  0  0  0  0  0  0  0  0  0  0
   50.9240   29.3010   50.1160 C   0  0  0  0  0  0  0  0  0  0  0  0
  1  2  2  0  0  0  0
  1  6  1  0  0  0  0
  2  3  1  0  0  0  0
  3 20  1  0  0  0  0
  3  4  2  0  0  0  0
  4  8  1  0  0  0  0
  5  4  1  0  0  0  0
  5  9  1  0  0  0  0
  6  5  2  0  0  0  0
  7  2  1  0  0  0  0
 10  6  1  0  0  0  0
 11 16  1  0  0  0  0
 12 11  2  0  0  0  0
 13 12  1  0  0  0  0
 13 14  2  0  0  0  0
 14 15  1  0  0  0  0
 15 16  2  0  0  0  0
 15  1  1  0  0  0  0
 17 11  1  0  0  0  0
 18 12  1  0  0  0  0
 19 13  1  0  0  0  0
 21 22  1  0  0  0  0
 22 29  1  0  0  0  0
 23 24  1  0  0  0  0
 23 22  1  0  0  0  0
 23 20  1  1  0  0  0
 24 25  1  0  0  0  0
 24 26  1  0  0  0  0
 26 27  1  0  0  0  0
 26 28  1  0  0  0  0
 28 29  1  0  0  0  0
M  END
>  <minimizedAffinity>
-5.45261765

>  <minimizedRMSD>
0.432497203

$$$$
