
 OpenBabel03242523403D

 37 41  0  0  1  0  0  0  0  0999 V2000
   38.3250   26.3570   42.3110 C   0  0  2  0  0  0  0  0  0  0  0  0
   39.2340   25.4570   42.3440 N   0  0  1  0  0  4  0  0  0  0  0  0
   39.6010   24.5910   43.1850 C   0  0  0  0  0  0  0  0  0  0  0  0
   38.9630   23.6370   42.4990 N   0  0  0  0  0  0  0  0  0  0  0  0
   38.0890   24.0090   41.5220 C   0  0  2  0  0  3  0  0  0  0  0  0
   37.5840   22.9700   40.6990 C   0  0  0  0  0  0  0  0  0  0  0  0
   36.7480   23.3240   39.6940 C   0  0  0  0  0  0  0  0  0  0  0  0
   36.3530   24.5970   39.4110 C   0  0  0  0  0  0  0  0  0  0  0  0
   36.9100   25.5200   40.2810 C   0  0  0  0  0  0  0  0  0  0  0  0
   37.7760   25.3930   41.3680 C   0  0  1  0  0  0  0  0  0  0  0  0
   37.7080   26.1110   43.2850 H   0  0  0  0  0  0  0  0  0  0  0  0
   40.0600   25.7700   41.7610 H   0  0  0  0  0  0  0  0  0  0  0  0
   40.7000   24.3790   43.3080 H   0  0  0  0  0  0  0  0  0  0  0  0
   39.2480   24.6930   44.2470 H   0  0  0  0  0  0  0  0  0  0  0  0
   39.2020   22.6490   42.7880 H   0  0  0  0  0  0  0  0  0  0  0  0
   37.8280   21.9530   40.8330 H   0  0  0  0  0  0  0  0  0  0  0  0
   36.3580   22.5060   39.0580 H   0  0  0  0  0  0  0  0  0  0  0  0
   35.7020   24.8410   38.6230 H   0  0  0  0  0  0  0  0  0  0  0  0
   36.5880   26.5120   39.9840 H   0  0  0  0  0  0  0  0  0  0  0  0
   36.2130   29.2190   41.2440 C   0  0  0  0  0  0  0  0  0  0  0  0
   37.1670   30.2080   41.5470 C   0  0  0  0  0  0  0  0  0  0  0  0
   38.3840   29.7820   42.0540 C   0  0  0  0  0  0  0  0  0  0  0  0
   38.5450   28.4530   42.2120 N   0  0  0  0  0  0  0  0  0  0  0  0
   37.6050   27.5120   41.9110 C   0  0  0  0  0  0  0  0  0  0  0  0
   36.5270   27.9770   41.4550 N   0  0  0  0  0  0  0  0  0  0  0  0
   35.2470   29.4950   40.8460 H   0  0  0  0  0  0  0  0  0  0  0  0
   36.9080   31.2450   41.3710 H   0  0  0  0  0  0  0  0  0  0  0  0
   39.6070   31.0260   42.4630 S   0  0  0  0  0  0  0  0  0  0  0  0
   41.1860   33.1640   42.2930 H   0  0  0  0  0  0  0  0  0  0  0  0
   41.3120   32.7130   41.3580 N   0  0  0  0  0  0  0  0  0  0  0  0
   40.0720   32.0210   41.0380 C   0  0  2  0  0  3  0  0  0  0  0  0
   39.0280   33.1230   40.8220 C   0  0  0  0  0  3  0  0  0  0  0  0
   38.0000   32.7540   40.9040 H   0  0  0  0  0  0  0  0  0  0  0  0
   39.3030   33.8220   39.5840 N   0  0  0  0  0  0  0  0  0  0  0  0
   38.7730   33.2920   38.8460 H   0  0  0  0  0  0  0  0  0  0  0  0
   40.6900   33.7790   39.2140 C   0  0  0  0  0  2  0  0  0  0  0  0
   41.6170   33.7290   40.4030 C   0  0  0  0  0  2  0  0  0  0  0  0
  1  2  1  0  0  0  0
  1 11  1  1  0  0  0
  2 12  1  6  0  0  0
  2  3  1  0  0  0  0
  3 13  1  0  0  0  0
  3 14  1  0  0  0  0
  4 15  1  0  0  0  0
  4  3  1  0  0  0  0
  5  6  1  6  0  0  0
  5  4  1  0  0  0  0
  6 16  1  0  0  0  0
  7  6  2  0  0  0  0
  8  7  1  0  0  0  0
  8  9  2  0  0  0  0
 10  9  1  6  0  0  0
 10  5  1  0  0  0  0
 10  1  1  0  0  0  0
 10  2  1  0  0  0  0
 17  7  1  0  0  0  0
 18  8  1  0  0  0  0
 19  9  1  0  0  0  0
 20 25  2  0  0  0  0
 20 21  1  0  0  0  0
 21 22  2  0  0  0  0
 22 23  1  0  0  0  0
 22 28  1  0  0  0  0
 24 23  2  0  0  0  0
 24  1  1  0  0  0  0
 25 24  1  0  0  0  0
 26 20  1  0  0  0  0
 27 21  1  0  0  0  0
 30 29  1  0  0  0  0
 31 30  1  0  0  0  0
 31 28  1  1  0  0  0
 32 33  1  0  0  0  0
 32 31  1  0  0  0  0
 34 32  1  0  0  0  0
 35 34  1  0  0  0  0
 36 34  1  0  0  0  0
 36 37  1  0  0  0  0
 37 30  1  0  0  0  0
M  END
>  <minimizedAffinity>
-6.07159424

$$$$

 OpenBabel03242523403D

 37 41  0  0  1  0  0  0  0  0999 V2000
   37.2670   26.5920   40.2060 C   0  0  2  0  0  0  0  0  0  0  0  0
   37.4960   26.3700   38.9670 N   0  0  1  0  0  4  0  0  0  0  0  0
   37.3450   25.3830   38.1950 C   0  0  0  0  0  0  0  0  0  0  0  0
   36.2390   25.9340   37.6860 N   0  0  0  0  0  0  0  0  0  0  0  0
   35.6840   26.9990   38.3300 C   0  0  0  0  0  0  0  0  0  0  0  0
   34.6300   27.6650   37.6540 C   0  0  0  0  0  0  0  0  0  0  0  0
   34.0930   28.7530   38.2580 C   0  0  0  0  0  0  0  0  0  0  0  0
   34.4850   29.2570   39.4610 C   0  0  0  0  0  0  0  0  0  0  0  0
   35.5180   28.5230   40.0220 C   0  0  0  0  0  3  0  0  0  0  0  0
   36.2130   27.3900   39.5960 C   0  0  1  0  0  0  0  0  0  0  0  0
   36.6750   25.6200   40.5180 H   0  0  0  0  0  0  0  0  0  0  0  0
   38.3170   26.9560   38.6510 H   0  0  0  0  0  0  0  0  0  0  0  0
   38.1290   25.1760   37.4140 H   0  0  0  0  0  0  0  0  0  0  0  0
   37.1740   24.3690   38.6500 H   0  0  0  0  0  0  0  0  0  0  0  0
   35.8840   25.4780   36.8010 H   0  0  0  0  0  0  0  0  0  0  0  0
   34.2530   27.3560   36.7180 H   0  0  0  0  0  0  0  0  0  0  0  0
   33.2710   29.2650   37.7240 H   0  0  0  0  0  0  0  0  0  0  0  0
   34.0490   30.1040   39.9050 H   0  0  0  0  0  0  0  0  0  0  0  0
   35.8060   28.9920   40.9560 H   0  0  0  0  0  0  0  0  0  0  0  0
   37.2680   27.9790   43.6510 C   0  0  0  0  0  0  0  0  0  0  0  0
   38.1600   29.0310   43.3690 C   0  0  0  0  0  0  0  0  0  0  0  0
   38.6260   29.1370   42.0690 C   0  0  0  0  0  0  0  0  0  0  0  0
   38.1830   28.2190   41.1870 N   0  0  0  0  0  0  0  0  0  0  0  0
   37.3180   27.2070   41.4830 C   0  0  0  0  0  0  0  0  0  0  0  0
   36.9390   27.1780   42.6840 N   0  0  0  0  0  0  0  0  0  0  0  0
   36.8730   27.8490   44.6480 H   0  0  0  0  0  0  0  0  0  0  0  0
   38.4350   29.7020   44.1740 H   0  0  0  0  0  0  0  0  0  0  0  0
   39.7760   30.4590   41.6940 S   0  0  0  0  0  0  0  0  0  0  0  0
   39.2990   32.9950   42.3560 H   0  0  0  0  0  0  0  0  0  0  0  0
   39.4420   33.0530   41.3220 N   0  0  0  0  0  0  0  0  0  0  0  0
   39.0080   31.7850   40.7510 C   0  0  2  0  0  3  0  0  0  0  0  0
   37.4890   31.7410   40.9530 C   0  0  0  0  0  3  0  0  0  0  0  0
   37.0810   30.7270   40.8790 H   0  0  0  0  0  0  0  0  0  0  0  0
   36.8490   32.6950   40.0710 N   0  0  0  0  0  0  0  0  0  0  0  0
   36.6620   32.1650   39.1810 H   0  0  0  0  0  0  0  0  0  0  0  0
   37.7030   33.7970   39.7270 C   0  0  0  0  0  2  0  0  0  0  0  0
   38.6800   34.1520   40.8200 C   0  0  0  0  0  2  0  0  0  0  0  0
  1 11  1  1  0  0  0
  1 24  1  0  0  0  0
  2 12  1  6  0  0  0
  2 10  1  0  0  0  0
  2  1  1  0  0  0  0
  3 14  1  0  0  0  0
  3  2  1  0  0  0  0
  4  3  1  0  0  0  0
  4  5  1  0  0  0  0
  6  7  1  0  0  0  0
  6  5  2  0  0  0  0
  7  8  2  0  0  0  0
  8 18  1  0  0  0  0
  8  9  1  0  0  0  0
  9 19  1  0  0  0  0
 10  5  1  1  0  0  0
 10  9  1  0  0  0  0
 10  1  1  0  0  0  0
 13  3  1  0  0  0  0
 15  4  1  0  0  0  0
 16  6  1  0  0  0  0
 17  7  1  0  0  0  0
 20 26  1  0  0  0  0
 21 20  1  0  0  0  0
 21 27  1  0  0  0  0
 22 21  2  0  0  0  0
 23 24  2  0  0  0  0
 23 22  1  0  0  0  0
 24 25  1  0  0  0  0
 25 20  2  0  0  0  0
 28 22  1  0  0  0  0
 30 29  1  0  0  0  0
 31 32  1  0  0  0  0
 31 30  1  0  0  0  0
 31 28  1  1  0  0  0
 33 32  1  0  0  0  0
 34 32  1  0  0  0  0
 35 34  1  0  0  0  0
 36 34  1  0  0  0  0
 36 37  1  0  0  0  0
 37 30  1  0  0  0  0
M  END
>  <minimizedAffinity>
-6.03237152

$$$$

 OpenBabel03242523403D

 37 41  0  0  1  0  0  0  0  0999 V2000
   38.0020   28.0170   42.0370 C   0  0  2  0  0  0  0  0  0  0  0  0
   39.1760   27.6180   42.3520 N   0  0  1  0  0  4  0  0  0  0  0  0
   39.8120   27.4820   43.4330 C   0  0  0  0  0  0  0  0  0  0  0  0
   39.5880   26.1640   43.4130 N   0  0  0  0  0  0  0  0  0  0  0  0
   38.6660   25.6720   42.5390 C   0  0  2  0  0  3  0  0  0  0  0  0
   38.6010   24.2600   42.4210 C   0  0  0  0  0  0  0  0  0  0  0  0
   37.7210   23.7510   41.5250 C   0  0  0  0  0  0  0  0  0  0  0  0
   36.8950   24.4870   40.7310 C   0  0  0  0  0  0  0  0  0  0  0  0
   37.0490   25.8480   40.9360 C   0  0  0  0  0  0  0  0  0  0  0  0
   37.8720   26.5880   41.7880 C   0  0  1  0  0  0  0  0  0  0  0  0
   37.4910   28.1180   43.0960 H   0  0  0  0  0  0  0  0  0  0  0  0
   39.8450   27.8390   41.5620 H   0  0  0  0  0  0  0  0  0  0  0  0
   40.9080   27.7380   43.4580 H   0  0  0  0  0  0  0  0  0  0  0  0
   39.4170   27.9920   44.3540 H   0  0  0  0  0  0  0  0  0  0  0  0
   40.1650   25.6070   44.1010 H   0  0  0  0  0  0  0  0  0  0  0  0
   39.1980   23.6010   42.9890 H   0  0  0  0  0  0  0  0  0  0  0  0
   37.6760   22.6490   41.4410 H   0  0  0  0  0  0  0  0  0  0  0  0
   36.2210   24.0630   40.0440 H   0  0  0  0  0  0  0  0  0  0  0  0
   36.3930   26.3770   40.2540 H   0  0  0  0  0  0  0  0  0  0  0  0
   34.9980   29.1890   40.1960 C   0  0  0  0  0  0  0  0  0  0  0  0
   35.7150   29.8420   39.1750 C   0  0  0  0  0  0  0  0  0  0  0  0
   37.0980   29.7900   39.2380 C   0  0  0  0  0  0  0  0  0  0  0  0
   37.6340   29.1180   40.2760 N   0  0  0  0  0  0  0  0  0  0  0  0
   36.9190   28.4920   41.2530 C   0  0  0  0  0  0  0  0  0  0  0  0
   35.6690   28.5830   41.1270 N   0  0  0  0  0  0  0  0  0  0  0  0
   33.9170   29.1970   40.1960 H   0  0  0  0  0  0  0  0  0  0  0  0
   35.1570   30.3480   38.3970 H   0  0  0  0  0  0  0  0  0  0  0  0
   38.0290   30.6300   37.9590 S   0  0  0  0  0  0  0  0  0  0  0  0
   39.3360   30.8820   40.2660 H   0  0  0  0  0  0  0  0  0  0  0  0
   39.9020   31.4750   39.6180 N   0  0  0  0  0  0  0  0  0  0  0  0
   38.9970   32.0010   38.6060 C   0  0  2  0  0  3  0  0  0  0  0  0
   38.0710   32.9740   39.3470 C   0  0  0  0  0  3  0  0  0  0  0  0
   37.1500   33.1840   38.7940 H   0  0  0  0  0  0  0  0  0  0  0  0
   38.8110   34.1600   39.7260 N   0  0  0  0  0  0  0  0  0  0  0  0
   38.7120   34.8180   38.9110 H   0  0  0  0  0  0  0  0  0  0  0  0
   40.2160   33.9130   39.8940 C   0  0  0  0  0  2  0  0  0  0  0  0
   40.5160   32.5160   40.3780 C   0  0  0  0  0  2  0  0  0  0  0  0
  1  2  1  0  0  0  0
  1 11  1  1  0  0  0
  2 12  1  6  0  0  0
  2  3  1  0  0  0  0
  3 13  1  0  0  0  0
  3 14  1  0  0  0  0
  4  3  1  0  0  0  0
  4 15  1  0  0  0  0
  5  6  1  6  0  0  0
  5  4  1  0  0  0  0
  6 16  1  0  0  0  0
  7  6  2  0  0  0  0
  8  9  2  0  0  0  0
  8  7  1  0  0  0  0
 10  9  1  6  0  0  0
 10  1  1  0  0  0  0
 10  2  1  0  0  0  0
 10  5  1  0  0  0  0
 17  7  1  0  0  0  0
 18  8  1  0  0  0  0
 19  9  1  0  0  0  0
 20 25  1  0  0  0  0
 21 22  1  0  0  0  0
 21 20  2  0  0  0  0
 22 23  2  0  0  0  0
 23 24  1  0  0  0  0
 24  1  1  0  0  0  0
 25 24  2  0  0  0  0
 26 20  1  0  0  0  0
 27 21  1  0  0  0  0
 28 22  1  0  0  0  0
 30 29  1  0  0  0  0
 30 37  1  0  0  0  0
 31 28  1  1  0  0  0
 31 32  1  0  0  0  0
 31 30  1  0  0  0  0
 32 34  1  0  0  0  0
 33 32  1  0  0  0  0
 34 36  1  0  0  0  0
 35 34  1  0  0  0  0
 36 37  1  0  0  0  0
M  END
>  <minimizedAffinity>
-5.77197552

$$$$

 OpenBabel03242523403D

 37 41  0  0  1  0  0  0  0  0999 V2000
   36.4970   28.5660   41.4710 C   0  0  2  0  0  0  0  0  0  0  0  0
   37.4140   28.5370   42.3630 N   0  0  1  0  0  4  0  0  0  0  0  0
   37.4320   28.5450   43.6250 C   0  0  0  0  0  0  0  0  0  0  0  0
   37.6520   27.2260   43.6410 N   0  0  0  0  0  0  0  0  0  0  0  0
   37.4870   26.5210   42.4870 C   0  0  2  0  0  3  0  0  0  0  0  0
   37.9140   25.1690   42.5070 C   0  0  0  0  0  0  0  0  0  0  0  0
   37.7970   24.4630   41.3570 C   0  0  0  0  0  0  0  0  0  0  0  0
   37.3030   24.9480   40.1840 C   0  0  0  0  0  0  0  0  0  0  0  0
   36.9200   26.2750   40.2890 C   0  0  0  0  0  0  0  0  0  0  0  0
   36.9420   27.1850   41.3480 C   0  0  1  0  0  0  0  0  0  0  0  0
   35.5230   28.4410   42.1250 H   0  0  0  0  0  0  0  0  0  0  0  0
   38.2870   29.0000   41.9850 H   0  0  0  0  0  0  0  0  0  0  0  0
   38.2340   29.1280   44.1570 H   0  0  0  0  0  0  0  0  0  0  0  0
   36.4980   28.8510   44.1710 H   0  0  0  0  0  0  0  0  0  0  0  0
   37.9450   26.8380   44.5800 H   0  0  0  0  0  0  0  0  0  0  0  0
   38.3120   24.6980   43.3640 H   0  0  0  0  0  0  0  0  0  0  0  0
   38.1310   23.4080   41.3830 H   0  0  0  0  0  0  0  0  0  0  0  0
   37.2250   24.3750   39.3070 H   0  0  0  0  0  0  0  0  0  0  0  0
   36.5690   26.6110   39.3200 H   0  0  0  0  0  0  0  0  0  0  0  0
   34.6190   28.8590   38.2810 C   0  0  0  0  0  0  0  0  0  0  0  0
   35.5570   29.6980   37.6520 C   0  0  0  0  0  0  0  0  0  0  0  0
   36.6880   30.0400   38.3740 C   0  0  0  0  0  0  0  0  0  0  0  0
   36.7890   29.5360   39.6210 N   0  0  0  0  0  0  0  0  0  0  0  0
   35.8660   28.7230   40.2100 C   0  0  0  0  0  0  0  0  0  0  0  0
   34.8680   28.4580   39.4910 N   0  0  0  0  0  0  0  0  0  0  0  0
   33.7180   28.5600   37.7630 H   0  0  0  0  0  0  0  0  0  0  0  0
   35.3520   30.0330   36.6420 H   0  0  0  0  0  0  0  0  0  0  0  0
   37.8870   31.1220   37.5980 S   0  0  0  0  0  0  0  0  0  0  0  0
   38.6400   30.8840   40.1420 H   0  0  0  0  0  0  0  0  0  0  0  0
   39.2620   31.6470   39.7910 N   0  0  0  0  0  0  0  0  0  0  0  0
   38.5390   32.3490   38.7400 C   0  0  2  0  0  3  0  0  0  0  0  0
   37.3770   33.0610   39.4430 C   0  0  0  0  0  3  0  0  0  0  0  0
   36.5760   33.3460   38.7530 H   0  0  0  0  0  0  0  0  0  0  0  0
   37.8850   34.1610   40.2360 N   0  0  0  0  0  0  0  0  0  0  0  0
   37.8890   34.9890   39.5880 H   0  0  0  0  0  0  0  0  0  0  0  0
   39.2410   33.9610   40.6660 C   0  0  0  0  0  2  0  0  0  0  0  0
   39.5830   32.5080   40.8840 C   0  0  0  0  0  2  0  0  0  0  0  0
  1 11  1  1  0  0  0
  1  2  1  0  0  0  0
  2 12  1  6  0  0  0
  2  3  1  0  0  0  0
  3  4  1  0  0  0  0
  3 13  1  0  0  0  0
  3 14  1  0  0  0  0
  4 15  1  0  0  0  0
  5  6  1  6  0  0  0
  5  4  1  0  0  0  0
  6 16  1  0  0  0  0
  7 17  1  0  0  0  0
  7  6  2  0  0  0  0
  8  9  2  0  0  0  0
  8  7  1  0  0  0  0
 10  9  1  6  0  0  0
 10  1  1  0  0  0  0
 10  2  1  0  0  0  0
 10  5  1  0  0  0  0
 18  8  1  0  0  0  0
 19  9  1  0  0  0  0
 20 25  1  0  0  0  0
 21 20  2  0  0  0  0
 21 22  1  0  0  0  0
 22 23  2  0  0  0  0
 23 24  1  0  0  0  0
 24  1  1  0  0  0  0
 25 24  2  0  0  0  0
 26 20  1  0  0  0  0
 27 21  1  0  0  0  0
 28 22  1  0  0  0  0
 30 29  1  0  0  0  0
 30 37  1  0  0  0  0
 31 28  1  6  0  0  0
 31 32  1  0  0  0  0
 31 30  1  0  0  0  0
 32 34  1  0  0  0  0
 33 32  1  0  0  0  0
 34 36  1  0  0  0  0
 35 34  1  0  0  0  0
 36 37  1  0  0  0  0
M  END
>  <minimizedAffinity>
-5.76610661

$$$$

 OpenBabel03242523403D

 37 41  0  0  1  0  0  0  0  0999 V2000
   36.8800   26.7260   40.3710 C   0  0  2  0  0  0  0  0  0  0  0  0
   36.8560   25.4640   40.5850 N   0  0  1  0  0  4  0  0  0  0  0  0
   37.3370   24.4520   40.0040 C   0  0  0  0  0  0  0  0  0  0  0  0
   38.3180   24.3840   40.9100 N   0  0  0  0  0  0  0  0  0  0  0  0
   38.5090   25.4430   41.7460 C   0  0  0  0  0  0  0  0  0  0  0  0
   39.4300   25.2490   42.8080 C   0  0  0  0  0  0  0  0  0  0  0  0
   39.6030   26.2740   43.6760 C   0  0  0  0  0  0  0  0  0  0  0  0
   38.9640   27.4750   43.6100 C   0  0  0  0  0  0  0  0  0  0  0  0
   38.0930   27.5450   42.5350 C   0  0  0  0  0  3  0  0  0  0  0  0
   37.7600   26.6360   41.5280 C   0  0  1  0  0  0  0  0  0  0  0  0
   37.6590   26.8040   39.4890 H   0  0  0  0  0  0  0  0  0  0  0  0
   35.9540   25.2080   41.0740 H   0  0  0  0  0  0  0  0  0  0  0  0
   36.7240   23.5090   39.9540 H   0  0  0  0  0  0  0  0  0  0  0  0
   37.7060   24.5660   38.9490 H   0  0  0  0  0  0  0  0  0  0  0  0
   38.8740   23.4850   40.8930 H   0  0  0  0  0  0  0  0  0  0  0  0
   39.9750   24.3570   42.9470 H   0  0  0  0  0  0  0  0  0  0  0  0
   40.3250   26.1140   44.4990 H   0  0  0  0  0  0  0  0  0  0  0  0
   39.1190   28.2530   44.2990 H   0  0  0  0  0  0  0  0  0  0  0  0
   37.5930   28.5060   42.5570 H   0  0  0  0  0  0  0  0  0  0  0  0
   35.8520   30.2660   40.8170 C   0  0  0  0  0  0  0  0  0  0  0  0
   36.5980   30.7580   39.7290 C   0  0  0  0  0  0  0  0  0  0  0  0
   37.3300   29.8400   38.9940 C   0  0  0  0  0  0  0  0  0  0  0  0
   37.2620   28.5530   39.3880 N   0  0  0  0  0  0  0  0  0  0  0  0
   36.5310   28.0990   40.4460 C   0  0  0  0  0  0  0  0  0  0  0  0
   35.8940   28.9920   41.0640 N   0  0  0  0  0  0  0  0  0  0  0  0
   35.2630   30.9380   41.4240 H   0  0  0  0  0  0  0  0  0  0  0  0
   36.5650   31.8200   39.5210 H   0  0  0  0  0  0  0  0  0  0  0  0
   38.3010   30.4480   37.6170 S   0  0  0  0  0  0  0  0  0  0  0  0
   40.2270   31.6240   36.2010 H   0  0  0  0  0  0  0  0  0  0  0  0
   40.1330   32.2570   37.0270 N   0  0  0  0  0  0  0  0  0  0  0  0
   39.7010   31.4420   38.1540 C   0  0  2  0  0  3  0  0  0  0  0  0
   40.8850   30.5230   38.4750 C   0  0  0  0  0  3  0  0  0  0  0  0
   40.5940   29.6470   39.0650 H   0  0  0  0  0  0  0  0  0  0  0  0
   41.9590   31.2950   39.0660 N   0  0  0  0  0  0  0  0  0  0  0  0
   41.7730   31.2780   40.1010 H   0  0  0  0  0  0  0  0  0  0  0  0
   41.9430   32.6740   38.6620 C   0  0  0  0  0  2  0  0  0  0  0  0
   41.3970   32.8750   37.2700 C   0  0  0  0  0  2  0  0  0  0  0  0
  1 11  1  6  0  0  0
  1 24  1  0  0  0  0
  1  2  1  0  0  0  0
  1 10  1  0  0  0  0
  2 12  1  1  0  0  0
  2 10  1  0  0  0  0
  3  2  1  0  0  0  0
  3  4  1  0  0  0  0
  4  5  1  0  0  0  0
  5  6  2  0  0  0  0
  6 16  1  0  0  0  0
  6  7  1  0  0  0  0
  7 17  1  0  0  0  0
  8  7  2  0  0  0  0
  8 18  1  0  0  0  0
  9 19  1  0  0  0  0
  9  8  1  0  0  0  0
 10  5  1  6  0  0  0
 10  9  1  0  0  0  0
 13  3  1  0  0  0  0
 14  3  1  0  0  0  0
 15  4  1  0  0  0  0
 20 25  1  0  0  0  0
 20 26  1  0  0  0  0
 21 20  2  0  0  0  0
 22 23  2  0  0  0  0
 22 21  1  0  0  0  0
 23 24  1  0  0  0  0
 24 25  2  0  0  0  0
 27 21  1  0  0  0  0
 28 22  1  0  0  0  0
 29 30  1  0  0  0  0
 30 37  1  0  0  0  0
 30 31  1  0  0  0  0
 31 28  1  6  0  0  0
 31 32  1  0  0  0  0
 32 33  1  0  0  0  0
 32 34  1  0  0  0  0
 34 35  1  0  0  0  0
 36 34  1  0  0  0  0
 37 36  1  0  0  0  0
M  END
>  <minimizedAffinity>
-5.72326279

$$$$

 OpenBabel03242523403D

 37 41  0  0  1  0  0  0  0  0999 V2000
   38.3230   32.5410   39.1880 C   0  0  2  0  0  0  0  0  0  0  0  0
   38.9540   33.5720   39.6070 N   0  0  1  0  0  4  0  0  0  0  0  0
   39.0620   34.1610   40.7180 C   0  0  0  0  0  0  0  0  0  0  0  0
   40.2580   33.5970   40.9150 N   0  0  0  0  0  0  0  0  0  0  0  0
   40.6360   32.5680   40.1050 C   0  0  2  0  0  3  0  0  0  0  0  0
   41.9800   32.1310   40.2270 C   0  0  0  0  0  0  0  0  0  0  0  0
   42.3890   31.1390   39.4010 C   0  0  0  0  0  0  0  0  0  0  0  0
   41.6120   30.5270   38.4630 C   0  0  0  0  0  0  0  0  0  0  0  0
   40.3240   31.0380   38.4390 C   0  0  0  0  0  0  0  0  0  0  0  0
   39.6890   32.0360   39.1810 C   0  0  1  0  0  0  0  0  0  0  0  0
   37.9100   32.0870   40.1950 H   0  0  0  0  0  0  0  0  0  0  0  0
   39.0570   34.2660   38.8160 H   0  0  0  0  0  0  0  0  0  0  0  0
   39.1020   35.2860   40.7380 H   0  0  0  0  0  0  0  0  0  0  0  0
   38.3150   33.9240   41.5230 H   0  0  0  0  0  0  0  0  0  0  0  0
   40.8190   34.0140   41.7070 H   0  0  0  0  0  0  0  0  0  0  0  0
   42.6620   32.5390   40.9200 H   0  0  0  0  0  0  0  0  0  0  0  0
   43.4380   30.8040   39.5040 H   0  0  0  0  0  0  0  0  0  0  0  0
   41.9570   29.7590   37.8360 H   0  0  0  0  0  0  0  0  0  0  0  0
   39.7690   30.5370   37.6540 H   0  0  0  0  0  0  0  0  0  0  0  0
   36.9380   30.2010   36.6590 C   0  0  0  0  0  0  0  0  0  0  0  0
   36.1540   29.4690   37.5710 C   0  0  0  0  0  0  0  0  0  0  0  0
   36.1890   29.8650   38.8980 C   0  0  0  0  0  0  0  0  0  0  0  0
   36.9740   30.9190   39.1980 N   0  0  0  0  0  0  0  0  0  0  0  0
   37.7250   31.6130   38.2960 C   0  0  0  0  0  0  0  0  0  0  0  0
   37.6400   31.1940   37.1120 N   0  0  0  0  0  0  0  0  0  0  0  0
   36.9480   29.9350   35.6110 H   0  0  0  0  0  0  0  0  0  0  0  0
   35.5660   28.6400   37.1960 H   0  0  0  0  0  0  0  0  0  0  0  0
   35.2120   28.9360   40.0780 S   0  0  0  0  0  0  0  0  0  0  0  0
   37.2270   30.1250   41.3510 H   0  0  0  0  0  0  0  0  0  0  0  0
   36.7780   29.5640   42.1100 N   0  0  0  0  0  0  0  0  0  0  0  0
   36.1840   28.3890   41.4890 C   0  0  2  0  0  3  0  0  0  0  0  0
   37.3630   27.5410   40.9980 C   0  0  0  0  0  3  0  0  0  0  0  0
   37.0720   26.8120   40.2350 H   0  0  0  0  0  0  0  0  0  0  0  0
   38.0540   26.9590   42.1300 N   0  0  0  0  0  0  0  0  0  0  0  0
   37.5730   26.0390   42.3020 H   0  0  0  0  0  0  0  0  0  0  0  0
   37.9100   27.7350   43.3310 C   0  0  0  0  0  2  0  0  0  0  0  0
   37.7790   29.2140   43.0660 C   0  0  0  0  0  2  0  0  0  0  0  0
  1  2  1  0  0  0  0
  1 11  1  1  0  0  0
  2 12  1  6  0  0  0
  2  3  1  0  0  0  0
  3 13  1  0  0  0  0
  3  4  1  0  0  0  0
  3 14  1  0  0  0  0
  4 15  1  0  0  0  0
  5  6  1  6  0  0  0
  5  4  1  0  0  0  0
  6 16  1  0  0  0  0
  7 17  1  0  0  0  0
  7  6  2  0  0  0  0
  8  7  1  0  0  0  0
  9  8  2  0  0  0  0
 10  9  1  6  0  0  0
 10  1  1  0  0  0  0
 10  2  1  0  0  0  0
 10  5  1  0  0  0  0
 18  8  1  0  0  0  0
 19  9  1  0  0  0  0
 20 25  2  0  0  0  0
 20 21  1  0  0  0  0
 21 22  2  0  0  0  0
 22 23  1  0  0  0  0
 22 28  1  0  0  0  0
 24  1  1  0  0  0  0
 24 23  2  0  0  0  0
 25 24  1  0  0  0  0
 26 20  1  0  0  0  0
 27 21  1  0  0  0  0
 29 30  1  0  0  0  0
 30 37  1  0  0  0  0
 31 28  1  6  0  0  0
 31 30  1  0  0  0  0
 32 31  1  0  0  0  0
 32 34  1  0  0  0  0
 33 32  1  0  0  0  0
 34 35  1  0  0  0  0
 34 36  1  0  0  0  0
 37 36  1  0  0  0  0
M  END
>  <minimizedAffinity>
-5.70760202

$$$$

 OpenBabel03242523403D

 37 41  0  0  1  0  0  0  0  0999 V2000
   39.3600   29.9580   42.6580 C   0  0  2  0  0  0  0  0  0  0  0  0
   39.9670   31.0720   42.8240 N   0  0  1  0  0  4  0  0  0  0  0  0
   41.1120   31.5170   42.5300 C   0  0  0  0  0  0  0  0  0  0  0  0
   40.5980   32.1820   41.4890 N   0  0  0  0  0  0  0  0  0  0  0  0
   39.3280   31.8910   41.0920 C   0  0  0  0  0  0  0  0  0  0  0  0
   38.7630   32.7490   40.1130 C   0  0  0  0  0  0  0  0  0  0  0  0
   37.4850   32.5040   39.7350 C   0  0  0  0  0  0  0  0  0  0  0  0
   36.7020   31.5000   40.2180 C   0  0  0  0  0  0  0  0  0  0  0  0
   37.3620   30.7330   41.1640 C   0  0  0  0  0  3  0  0  0  0  0  0
   38.6500   30.7920   41.6980 C   0  0  1  0  0  0  0  0  0  0  0  0
   40.1100   29.3790   41.9560 H   0  0  0  0  0  0  0  0  0  0  0  0
   39.6130   31.5370   43.7050 H   0  0  0  0  0  0  0  0  0  0  0  0
   41.6400   32.1900   43.2610 H   0  0  0  0  0  0  0  0  0  0  0  0
   41.9130   30.7830   42.2430 H   0  0  0  0  0  0  0  0  0  0  0  0
   41.2470   32.8950   41.0570 H   0  0  0  0  0  0  0  0  0  0  0  0
   39.2850   33.5550   39.6770 H   0  0  0  0  0  0  0  0  0  0  0  0
   37.0530   33.1770   38.9700 H   0  0  0  0  0  0  0  0  0  0  0  0
   35.7120   31.3340   39.9050 H   0  0  0  0  0  0  0  0  0  0  0  0
   36.6780   29.9770   41.5330 H   0  0  0  0  0  0  0  0  0  0  0  0
   36.6730   27.4430   43.1470 C   0  0  0  0  0  0  0  0  0  0  0  0
   37.3940   26.3680   42.5940 C   0  0  0  0  0  0  0  0  0  0  0  0
   38.6790   26.6310   42.1460 C   0  0  0  0  0  0  0  0  0  0  0  0
   39.1230   27.8960   42.2790 N   0  0  0  0  0  0  0  0  0  0  0  0
   38.4050   28.9220   42.8200 C   0  0  0  0  0  0  0  0  0  0  0  0
   37.2480   28.6050   43.2040 N   0  0  0  0  0  0  0  0  0  0  0  0
   35.6670   27.2940   43.5130 H   0  0  0  0  0  0  0  0  0  0  0  0
   36.9170   25.3980   42.5460 H   0  0  0  0  0  0  0  0  0  0  0  0
   39.6080   25.2810   41.4220 S   0  0  0  0  0  0  0  0  0  0  0  0
   39.3800   22.6280   41.3640 H   0  0  0  0  0  0  0  0  0  0  0  0
   38.4270   22.9450   41.0720 N   0  0  0  0  0  0  0  0  0  0  0  0
   38.5840   24.2220   40.3900 C   0  0  2  0  0  3  0  0  0  0  0  0
   39.3270   23.9060   39.0870 C   0  0  0  0  0  3  0  0  0  0  0  0
   39.7980   24.7890   38.6430 H   0  0  0  0  0  0  0  0  0  0  0  0
   38.4480   23.1950   38.1820 N   0  0  0  0  0  0  0  0  0  0  0  0
   37.9620   23.9440   37.6250 H   0  0  0  0  0  0  0  0  0  0  0  0
   37.4240   22.4530   38.8650 C   0  0  0  0  0  2  0  0  0  0  0  0
   37.8620   21.9500   40.2170 C   0  0  0  0  0  2  0  0  0  0  0  0
  1 11  1  6  0  0  0
  1 24  1  0  0  0  0
  1  2  1  0  0  0  0
  2 12  1  1  0  0  0
  3  2  1  0  0  0  0
  3 13  1  0  0  0  0
  4  3  1  0  0  0  0
  5  4  1  0  0  0  0
  6  5  2  0  0  0  0
  7  6  1  0  0  0  0
  7  8  2  0  0  0  0
  8  9  1  0  0  0  0
  9 19  1  0  0  0  0
  9 10  1  0  0  0  0
 10  5  1  6  0  0  0
 10  1  1  0  0  0  0
 10  2  1  0  0  0  0
 14  3  1  0  0  0  0
 15  4  1  0  0  0  0
 16  6  1  0  0  0  0
 17  7  1  0  0  0  0
 18  8  1  0  0  0  0
 20 25  1  0  0  0  0
 20 26  1  0  0  0  0
 21 20  2  0  0  0  0
 22 23  2  0  0  0  0
 22 21  1  0  0  0  0
 23 24  1  0  0  0  0
 24 25  2  0  0  0  0
 27 21  1  0  0  0  0
 28 22  1  0  0  0  0
 30 29  1  0  0  0  0
 31 30  1  0  0  0  0
 31 28  1  1  0  0  0
 32 31  1  0  0  0  0
 33 32  1  0  0  0  0
 34 36  1  0  0  0  0
 34 32  1  0  0  0  0
 35 34  1  0  0  0  0
 36 37  1  0  0  0  0
 37 30  1  0  0  0  0
M  END
>  <minimizedAffinity>
-5.67195225

$$$$

 OpenBabel03242523403D

 37 41  0  0  1  0  0  0  0  0999 V2000
   38.0520   26.5750   39.4910 C   0  0  2  0  0  0  0  0  0  0  0  0
   38.7650   25.6660   40.0420 N   0  0  1  0  0  4  0  0  0  0  0  0
   40.0030   25.4460   40.1490 C   0  0  0  0  0  0  0  0  0  0  0  0
   39.9900   25.9140   41.4010 N   0  0  0  0  0  0  0  0  0  0  0  0
   38.8900   26.5920   41.8340 C   0  0  2  0  0  3  0  0  0  0  0  0
   38.8440   26.9010   43.2170 C   0  0  0  0  0  0  0  0  0  0  0  0
   37.7400   27.5370   43.6760 C   0  0  0  0  0  0  0  0  0  0  0  0
   36.6710   27.9030   42.9150 C   0  0  0  0  0  0  0  0  0  0  0  0
   36.8320   27.5480   41.5850 C   0  0  0  0  0  0  0  0  0  0  0  0
   37.8620   26.9050   40.8960 C   0  0  1  0  0  0  0  0  0  0  0  0
   38.8710   27.3610   39.1730 H   0  0  0  0  0  0  0  0  0  0  0  0
   38.2320   24.7520   40.0390 H   0  0  0  0  0  0  0  0  0  0  0  0
   40.3770   24.3860   40.0830 H   0  0  0  0  0  0  0  0  0  0  0  0
   40.7050   26.0000   39.4680 H   0  0  0  0  0  0  0  0  0  0  0  0
   40.8640   25.7090   41.9590 H   0  0  0  0  0  0  0  0  0  0  0  0
   39.6190   26.6610   43.8920 H   0  0  0  0  0  0  0  0  0  0  0  0
   37.7130   27.7750   44.7560 H   0  0  0  0  0  0  0  0  0  0  0  0
   35.8260   28.3960   43.2990 H   0  0  0  0  0  0  0  0  0  0  0  0
   35.9390   27.8340   41.0410 H   0  0  0  0  0  0  0  0  0  0  0  0
   34.9380   28.1090   38.1730 C   0  0  0  0  0  0  0  0  0  0  0  0
   35.5580   29.2830   37.7020 C   0  0  0  0  0  0  0  0  0  0  0  0
   36.9270   29.3930   37.8810 C   0  0  0  0  0  0  0  0  0  0  0  0
   37.5450   28.3620   38.4920 N   0  0  0  0  0  0  0  0  0  0  0  0
   36.9240   27.2340   38.9390 C   0  0  0  0  0  0  0  0  0  0  0  0
   35.6810   27.2080   38.7400 N   0  0  0  0  0  0  0  0  0  0  0  0
   33.8720   27.9710   38.0590 H   0  0  0  0  0  0  0  0  0  0  0  0
   34.9410   30.0360   37.2280 H   0  0  0  0  0  0  0  0  0  0  0  0
   37.7330   30.8860   37.3060 S   0  0  0  0  0  0  0  0  0  0  0  0
   38.4710   30.2620   39.7880 H   0  0  0  0  0  0  0  0  0  0  0  0
   39.0330   31.1210   39.5920 N   0  0  0  0  0  0  0  0  0  0  0  0
   38.2680   31.9390   38.6620 C   0  0  2  0  0  3  0  0  0  0  0  0
   37.0430   32.4220   39.4470 C   0  0  0  0  0  3  0  0  0  0  0  0
   36.2300   32.7600   38.7970 H   0  0  0  0  0  0  0  0  0  0  0  0
   37.4490   33.4010   40.4350 N   0  0  0  0  0  0  0  0  0  0  0  0
   37.3940   34.3280   39.9420 H   0  0  0  0  0  0  0  0  0  0  0  0
   38.8110   33.2340   40.8590 C   0  0  0  0  0  2  0  0  0  0  0  0
   39.2690   31.7980   40.8280 C   0  0  0  0  0  2  0  0  0  0  0  0
  1 11  1  6  0  0  0
  1  2  1  0  0  0  0
  1 10  1  0  0  0  0
  2 12  1  1  0  0  0
  2  3  1  0  0  0  0
  2 10  1  0  0  0  0
  3  4  1  0  0  0  0
  4  5  1  0  0  0  0
  4 15  1  0  0  0  0
  5  6  1  1  0  0  0
  6  7  2  0  0  0  0
  6 16  1  0  0  0  0
  7 17  1  0  0  0  0
  8 18  1  0  0  0  0
  8  7  1  0  0  0  0
  9  8  2  0  0  0  0
 10  9  1  1  0  0  0
 10  5  1  0  0  0  0
 13  3  1  0  0  0  0
 14  3  1  0  0  0  0
 19  9  1  0  0  0  0
 20 25  1  0  0  0  0
 21 22  1  0  0  0  0
 21 20  2  0  0  0  0
 22 23  2  0  0  0  0
 23 24  1  0  0  0  0
 24  1  1  0  0  0  0
 25 24  2  0  0  0  0
 26 20  1  0  0  0  0
 27 21  1  0  0  0  0
 28 22  1  0  0  0  0
 30 29  1  0  0  0  0
 30 37  1  0  0  0  0
 31 28  1  6  0  0  0
 31 32  1  0  0  0  0
 31 30  1  0  0  0  0
 32 34  1  0  0  0  0
 33 32  1  0  0  0  0
 34 36  1  0  0  0  0
 35 34  1  0  0  0  0
 37 36  1  0  0  0  0
M  END
>  <minimizedAffinity>
-5.65725231

$$$$

 OpenBabel03242523403D

 37 41  0  0  1  0  0  0  0  0999 V2000
   37.1790   29.2740   39.5320 C   0  0  2  0  0  0  0  0  0  0  0  0
   37.4410   29.9610   40.5790 N   0  0  1  0  0  4  0  0  0  0  0  0
   36.8090   30.8050   41.2740 C   0  0  0  0  0  0  0  0  0  0  0  0
   36.5520   29.8710   42.1960 N   0  0  0  0  0  0  0  0  0  0  0  0
   36.7870   28.5650   41.8850 C   0  0  2  0  0  3  0  0  0  0  0  0
   36.6810   27.6360   42.9510 C   0  0  0  0  0  0  0  0  0  0  0  0
   36.9510   26.3380   42.6740 C   0  0  0  0  0  0  0  0  0  0  0  0
   37.3170   25.8550   41.4530 C   0  0  0  0  0  0  0  0  0  0  0  0
   37.3850   26.8550   40.4960 C   0  0  0  0  0  0  0  0  0  0  0  0
   37.1520   28.2300   40.5480 C   0  0  1  0  0  0  0  0  0  0  0  0
   36.0280   29.4890   39.3860 H   0  0  0  0  0  0  0  0  0  0  0  0
   38.4780   30.1660   40.6140 H   0  0  0  0  0  0  0  0  0  0  0  0
   37.3620   31.6910   41.6930 H   0  0  0  0  0  0  0  0  0  0  0  0
   35.8850   31.2720   40.8370 H   0  0  0  0  0  0  0  0  0  0  0  0
   36.1780   30.2440   43.1110 H   0  0  0  0  0  0  0  0  0  0  0  0
   36.4060   27.9070   43.9330 H   0  0  0  0  0  0  0  0  0  0  0  0
   36.8650   25.6200   43.5110 H   0  0  0  0  0  0  0  0  0  0  0  0
   37.5210   24.8410   41.2680 H   0  0  0  0  0  0  0  0  0  0  0  0
   37.7120   26.4150   39.5610 H   0  0  0  0  0  0  0  0  0  0  0  0
   37.4150   27.1650   36.4850 C   0  0  0  0  0  0  0  0  0  0  0  0
   38.8000   27.3460   36.3060 C   0  0  0  0  0  0  0  0  0  0  0  0
   39.4610   28.1360   37.2320 C   0  0  0  0  0  0  0  0  0  0  0  0
   38.7170   28.6630   38.2240 N   0  0  0  0  0  0  0  0  0  0  0  0
   37.3750   28.4730   38.3780 C   0  0  0  0  0  0  0  0  0  0  0  0
   36.8460   27.7440   37.4980 N   0  0  0  0  0  0  0  0  0  0  0  0
   36.8490   26.5580   35.7920 H   0  0  0  0  0  0  0  0  0  0  0  0
   39.2770   26.8640   35.4620 H   0  0  0  0  0  0  0  0  0  0  0  0
   41.2210   28.3930   37.0120 S   0  0  0  0  0  0  0  0  0  0  0  0
   40.0870   30.7020   36.3200 H   0  0  0  0  0  0  0  0  0  0  0  0
   40.5380   30.9340   37.2340 N   0  0  0  0  0  0  0  0  0  0  0  0
   41.7140   30.0860   37.3690 C   0  0  2  0  0  3  0  0  0  0  0  0
   42.6950   30.5680   36.2950 C   0  0  0  0  0  3  0  0  0  0  0  0
   43.4660   29.8260   36.0610 H   0  0  0  0  0  0  0  0  0  0  0  0
   43.2250   31.8650   36.6630 N   0  0  0  0  0  0  0  0  0  0  0  0
   44.0830   31.6600   37.2360 H   0  0  0  0  0  0  0  0  0  0  0  0
   42.3330   32.6150   37.5030 C   0  0  0  0  0  2  0  0  0  0  0  0
   40.8790   32.3210   37.2310 C   0  0  0  0  0  2  0  0  0  0  0  0
  1 11  1  6  0  0  0
  1 10  1  0  0  0  0
  1  2  1  0  0  0  0
  2 12  1  1  0  0  0
  2  3  1  0  0  0  0
  3 13  1  0  0  0  0
  3  4  1  0  0  0  0
  4 15  1  0  0  0  0
  5  4  1  0  0  0  0
  5  6  1  1  0  0  0
  6 16  1  0  0  0  0
  7  6  2  0  0  0  0
  7 17  1  0  0  0  0
  8  7  1  0  0  0  0
  9  8  2  0  0  0  0
 10  9  1  1  0  0  0
 10  2  1  0  0  0  0
 10  5  1  0  0  0  0
 14  3  1  0  0  0  0
 18  8  1  0  0  0  0
 19  9  1  0  0  0  0
 20 25  1  0  0  0  0
 21 20  2  0  0  0  0
 21 22  1  0  0  0  0
 22 23  2  0  0  0  0
 23 24  1  0  0  0  0
 24  1  1  0  0  0  0
 25 24  2  0  0  0  0
 26 20  1  0  0  0  0
 27 21  1  0  0  0  0
 28 22  1  0  0  0  0
 29 30  1  0  0  0  0
 30 31  1  0  0  0  0
 31 28  1  6  0  0  0
 32 34  1  0  0  0  0
 32 31  1  0  0  0  0
 33 32  1  0  0  0  0
 34 35  1  0  0  0  0
 34 36  1  0  0  0  0
 37 30  1  0  0  0  0
 37 36  1  0  0  0  0
M  END
>  <minimizedAffinity>
-5.63736105

$$$$
