
 OpenBabel03252509073D

 41 44  0  0  1  0  0  0  0  0999 V2000
   47.6150   31.8140   38.9650 C   0  0  0  0  0  0  0  0  0  0  0  0
   47.1590   33.0970   38.9490 C   0  0  0  0  0  0  0  0  0  0  0  0
   47.8010   34.0180   38.1410 C   0  0  0  0  0  0  0  0  0  0  0  0
   48.8740   33.6430   37.3690 C   0  0  0  0  0  0  0  0  0  0  0  0
   49.3520   32.3360   37.3700 C   0  0  0  0  0  0  0  0  0  0  0  0
   48.7020   31.4200   38.1860 C   0  0  0  0  0  0  0  0  0  0  0  0
   47.4620   35.0510   38.1070 H   0  0  0  0  0  0  0  0  0  0  0  0
   49.3370   34.4000   36.7570 H   0  0  0  0  0  0  0  0  0  0  0  0
   50.1820   32.0440   36.7720 H   0  0  0  0  0  0  0  0  0  0  0  0
   49.0800   30.4110   38.1800 H   0  0  0  0  0  0  0  0  0  0  0  0
   45.3600   35.4080   43.1810 Cl  0  0  0  0  0  0  0  0  0  0  0  0
   45.1970   34.6240   41.6360 C   0  0  0  0  0  0  0  0  0  0  0  0
   46.2760   34.2000   40.9500 C   0  0  0  0  0  0  0  0  0  0  0  0
   46.0340   33.5860   39.7250 C   0  0  0  0  0  0  0  0  0  0  0  0
   44.7650   33.4150   39.2300 C   0  0  0  0  0  0  0  0  0  0  0  0
   43.6940   33.8510   39.9410 C   0  0  0  0  0  0  0  0  0  0  0  0
   43.9200   34.4590   41.1530 C   0  0  0  0  0  0  0  0  0  0  0  0
   44.5740   32.9350   38.2690 H   0  0  0  0  0  0  0  0  0  0  0  0
   42.6820   33.7330   39.5850 H   0  0  0  0  0  0  0  0  0  0  0  0
   43.0460   34.8030   41.7130 H   0  0  0  0  0  0  0  0  0  0  0  0
   49.5820   35.7370   41.9290 C   0  0  0  0  0  0  0  0  0  0  0  0
   48.3080   35.5680   41.3780 C   0  0  0  0  0  0  0  0  0  0  0  0
   47.5920   34.3890   41.5080 C   0  0  0  0  0  0  0  0  0  0  0  0
   48.2210   33.4110   42.2120 N   0  0  0  0  0  0  0  0  0  0  0  0
   49.4440   33.5730   42.7400 C   0  0  0  0  0  0  0  0  0  0  0  0
   50.1160   34.7230   42.5990 N   0  0  0  0  0  0  0  0  0  0  0  0
   50.0660   36.6950   41.7760 H   0  0  0  0  0  0  0  0  0  0  0  0
   47.8400   36.3730   40.8260 H   0  0  0  0  0  0  0  0  0  0  0  0
   49.9450   32.7900   43.3000 H   0  0  0  0  0  0  0  0  0  0  0  0
   46.8780   30.6260   39.9040 S   0  0  0  0  0  0  0  0  0  0  0  0
   45.6210   30.0690   39.2710 O   0  0  0  0  0  0  0  0  0  0  0  0
   47.8740   29.4300   39.8530 O   0  0  0  0  0  0  0  0  0  0  0  0
   44.4860   30.3250   41.2690 H   0  0  0  0  0  0  0  0  0  0  0  0
   45.0640   30.9110   41.8780 N   0  0  0  0  0  0  0  0  0  0  0  0
   46.4880   30.6720   41.5450 C   0  0  1  0  0  3  0  0  0  0  0  0
   46.4700   29.1570   41.9740 C   0  0  0  0  0  3  0  0  0  0  0  0
   45.6680   28.6290   41.4530 H   0  0  0  0  0  0  0  0  0  0  0  0
   46.4110   29.0420   43.3950 N   0  0  0  0  0  0  0  0  0  0  0  0
   47.2740   28.6430   43.8160 H   0  0  0  0  0  0  0  0  0  0  0  0
   45.9530   30.2270   44.0620 C   0  0  0  0  0  2  0  0  0  0  0  0
   44.8220   30.8420   43.2790 C   0  0  0  0  0  2  0  0  0  0  0  0
  1 30  1  0  0  0  0
  2  1  1  0  0  0  0
  2 14  1  0  0  0  0
  3  2  2  0  0  0  0
  4  5  2  0  0  0  0
  4  3  1  0  0  0  0
  5  6  1  0  0  0  0
  6  1  2  0  0  0  0
  7  3  1  0  0  0  0
  8  4  1  0  0  0  0
  9  5  1  0  0  0  0
 10  6  1  0  0  0  0
 12 11  1  0  0  0  0
 13 23  1  0  0  0  0
 13 12  2  0  0  0  0
 14 13  1  0  0  0  0
 15 14  2  0  0  0  0
 15 16  1  0  0  0  0
 16 17  2  0  0  0  0
 17 12  1  0  0  0  0
 17 20  1  0  0  0  0
 18 15  1  0  0  0  0
 19 16  1  0  0  0  0
 21 26  1  0  0  0  0
 22 23  1  0  0  0  0
 22 21  2  0  0  0  0
 23 24  2  0  0  0  0
 24 25  1  0  0  0  0
 25 29  1  0  0  0  0
 26 25  2  0  0  0  0
 27 21  1  0  0  0  0
 28 22  1  0  0  0  0
 31 30  2  0  0  0  0
 32 30  2  0  0  0  0
 33 34  1  0  0  0  0
 34 41  1  0  0  0  0
 35 30  1  6  0  0  0
 35 34  1  0  0  0  0
 35 36  1  0  0  0  0
 36 38  1  0  0  0  0
 37 36  1  0  0  0  0
 38 39  1  0  0  0  0
 38 40  1  0  0  0  0
 41 40  1  0  0  0  0
M  END
>  <minimizedAffinity>
-4.67628241

>  <minimizedRMSD>
0.704725862

$$$$
