
 OpenBabel03252509073D

 41 44  0  0  1  0  0  0  0  0999 V2000
   47.6220   31.8170   38.9930 C   0  0  0  0  0  0  0  0  0  0  0  0
   47.1560   33.0970   38.9620 C   0  0  0  0  0  0  0  0  0  0  0  0
   47.7870   34.0120   38.1380 C   0  0  0  0  0  0  0  0  0  0  0  0
   48.8580   33.6350   37.3650 C   0  0  0  0  0  0  0  0  0  0  0  0
   49.3460   32.3320   37.3810 C   0  0  0  0  0  0  0  0  0  0  0  0
   48.7070   31.4210   38.2130 C   0  0  0  0  0  0  0  0  0  0  0  0
   47.4400   35.0420   38.0920 H   0  0  0  0  0  0  0  0  0  0  0  0
   49.3120   34.3870   36.7410 H   0  0  0  0  0  0  0  0  0  0  0  0
   50.1750   32.0380   36.7820 H   0  0  0  0  0  0  0  0  0  0  0  0
   49.0920   30.4150   38.2170 H   0  0  0  0  0  0  0  0  0  0  0  0
   45.3600   35.4240   43.1870 Cl  0  0  0  0  0  0  0  0  0  0  0  0
   45.1960   34.6330   41.6450 C   0  0  0  0  0  0  0  0  0  0  0  0
   46.2750   34.2070   40.9590 C   0  0  0  0  0  0  0  0  0  0  0  0
   46.0310   33.5880   39.7380 C   0  0  0  0  0  0  0  0  0  0  0  0
   44.7620   33.4140   39.2440 C   0  0  0  0  0  0  0  0  0  0  0  0
   43.6910   33.8520   39.9560 C   0  0  0  0  0  0  0  0  0  0  0  0
   43.9190   34.4650   41.1650 C   0  0  0  0  0  0  0  0  0  0  0  0
   44.5700   32.9300   38.2860 H   0  0  0  0  0  0  0  0  0  0  0  0
   42.6790   33.7310   39.6010 H   0  0  0  0  0  0  0  0  0  0  0  0
   43.0450   34.8110   41.7250 H   0  0  0  0  0  0  0  0  0  0  0  0
   49.5830   35.7480   41.9210 C   0  0  0  0  0  0  0  0  0  0  0  0
   48.3090   35.5760   41.3720 C   0  0  0  0  0  0  0  0  0  0  0  0
   47.5910   34.4000   41.5150 C   0  0  0  0  0  0  0  0  0  0  0  0
   48.2190   33.4280   42.2290 N   0  0  0  0  0  0  0  0  0  0  0  0
   49.4430   33.5930   42.7540 C   0  0  0  0  0  0  0  0  0  0  0  0
   50.1160   34.7410   42.6020 N   0  0  0  0  0  0  0  0  0  0  0  0
   50.0700   36.7040   41.7570 H   0  0  0  0  0  0  0  0  0  0  0  0
   47.8430   36.3760   40.8110 H   0  0  0  0  0  0  0  0  0  0  0  0
   49.9420   32.8160   43.3230 H   0  0  0  0  0  0  0  0  0  0  0  0
   46.8970   30.6370   39.9510 S   0  0  0  0  0  0  0  0  0  0  0  0
   45.6100   30.1050   39.3600 O   0  0  0  0  0  0  0  0  0  0  0  0
   47.8710   29.4250   39.8580 O   0  0  0  0  0  0  0  0  0  0  0  0
   44.5520   30.3550   41.3980 H   0  0  0  0  0  0  0  0  0  0  0  0
   45.1590   30.9320   41.9890 N   0  0  0  0  0  0  0  0  0  0  0  0
   46.5670   30.6800   41.6050 C   0  0  1  0  0  3  0  0  0  0  0  0
   46.5490   29.1630   42.0280 C   0  0  0  0  0  3  0  0  0  0  0  0
   45.7230   28.6470   41.5350 H   0  0  0  0  0  0  0  0  0  0  0  0
   46.5380   29.0430   43.4510 N   0  0  0  0  0  0  0  0  0  0  0  0
   47.4120   28.6330   43.8380 H   0  0  0  0  0  0  0  0  0  0  0  0
   46.1160   30.2300   44.1380 C   0  0  0  0  0  2  0  0  0  0  0  0
   44.9660   30.8600   43.3970 C   0  0  0  0  0  2  0  0  0  0  0  0
  1 30  1  0  0  0  0
  2  1  1  0  0  0  0
  2 14  1  0  0  0  0
  3  2  2  0  0  0  0
  4  5  2  0  0  0  0
  4  3  1  0  0  0  0
  5  6  1  0  0  0  0
  6 10  1  0  0  0  0
  6  1  2  0  0  0  0
  7  3  1  0  0  0  0
  8  4  1  0  0  0  0
  9  5  1  0  0  0  0
 12 11  1  0  0  0  0
 13 23  1  0  0  0  0
 13 12  2  0  0  0  0
 14 13  1  0  0  0  0
 15 14  2  0  0  0  0
 15 16  1  0  0  0  0
 16 17  2  0  0  0  0
 17 12  1  0  0  0  0
 17 20  1  0  0  0  0
 18 15  1  0  0  0  0
 19 16  1  0  0  0  0
 21 26  1  0  0  0  0
 22 23  1  0  0  0  0
 22 21  2  0  0  0  0
 23 24  2  0  0  0  0
 24 25  1  0  0  0  0
 25 29  1  0  0  0  0
 26 25  2  0  0  0  0
 27 21  1  0  0  0  0
 28 22  1  0  0  0  0
 31 30  2  0  0  0  0
 32 30  2  0  0  0  0
 33 34  1  0  0  0  0
 34 41  1  0  0  0  0
 35 30  1  6  0  0  0
 35 34  1  0  0  0  0
 35 36  1  0  0  0  0
 36 38  1  0  0  0  0
 37 36  1  0  0  0  0
 38 39  1  0  0  0  0
 38 40  1  0  0  0  0
 41 40  1  0  0  0  0
M  END
>  <minimizedAffinity>
-4.68115187

>  <minimizedRMSD>
0.768804133

$$$$
