
 OpenBabel03242520493D

 22 23  0  0  0  0  0  0  0  0999 V2000
   44.6660   35.7680   43.8300 C   0  0  0  0  0  0  0  0  0  0  0  0
   45.6390   36.0450   42.8800 C   0  0  0  0  0  0  0  0  0  0  0  0
   46.7530   35.2260   42.7610 C   0  0  0  0  0  0  0  0  0  0  0  0
   46.8110   34.1740   43.6170 N   0  0  0  0  0  0  0  0  0  0  0  0
   45.8670   33.9150   44.5300 C   0  0  0  0  0  0  0  0  0  0  0  0
   44.7990   34.7170   44.6290 N   0  0  0  0  0  0  0  0  0  0  0  0
   43.8440   36.4860   43.8200 H   0  0  0  0  0  0  0  0  0  0  0  0
   45.6470   36.8790   42.1630 H   0  0  0  0  0  0  0  0  0  0  0  0
   46.0380   32.7830   45.3700 N   0  0  0  0  0  0  0  0  0  0  0  0
   46.4340   32.9800   46.7500 C   0  0  0  0  0  0  0  0  0  0  0  0
   46.3490   34.0330   47.0700 H   0  0  0  0  0  0  0  0  0  0  0  0
   45.5210   32.1960   47.6660 C   0  0  0  0  0  0  0  0  0  0  0  0
   44.6190   32.7940   47.8340 H   0  0  0  0  0  0  0  0  0  0  0  0
   45.1880   30.8890   47.1950 N   0  0  0  0  0  0  0  0  0  0  0  0
   44.1850   30.8580   46.9540 H   0  0  0  0  0  0  0  0  0  0  0  0
   46.0430   30.5140   46.0910 C   0  0  0  0  0  0  0  0  0  0  0  0
   45.8290   31.4260   44.8990 C   0  0  0  0  0  0  0  0  0  0  0  0
   47.7980   35.3650   41.8750 O   0  0  0  0  0  0  0  0  0  0  0  0
   47.7550   34.5250   40.7160 C   0  0  0  0  0  0  0  0  0  0  0  0
   46.4450   34.3080   40.3280 F   0  0  0  0  0  0  0  0  0  0  0  0
   48.4280   35.2090   39.6930 F   0  0  0  0  0  0  0  0  0  0  0  0
   48.4420   33.3240   40.9520 F   0  0  0  0  0  0  0  0  0  0  0  0
  1  6  1  0  0  0  0
  2  1  2  0  0  0  0
  3  2  1  0  0  0  0
  3  4  2  0  0  0  0
  4  5  1  0  0  0  0
  5  6  2  0  0  0  0
  5  9  1  0  0  0  0
  7  1  1  0  0  0  0
  8  2  1  0  0  0  0
  9 10  1  0  0  0  0
 10 11  1  0  0  0  0
 10 12  1  0  0  0  0
 12 13  1  0  0  0  0
 14 12  1  0  0  0  0
 15 14  1  0  0  0  0
 16 14  1  0  0  0  0
 17  9  1  0  0  0  0
 17 16  1  0  0  0  0
 18  3  1  0  0  0  0
 19 22  1  0  0  0  0
 19 18  1  0  0  0  0
 20 19  1  0  0  0  0
 21 19  1  0  0  0  0
M  END
>  <minimizedAffinity>
-5.11843014

>  <minimizedRMSD>
0.752914131

$$$$
