
 OpenBabel03252506353D

 33 35  0  0  1  0  0  0  0  0999 V2000
   37.9100   30.9880   38.1150 C   0  0  0  0  0  0  0  0  0  0  0  0
   39.2660   31.3160   37.8780 C   0  0  0  0  0  0  0  0  0  0  0  0
   40.2360   30.7440   38.6430 C   0  0  0  0  0  0  0  0  0  0  0  0
   39.8400   29.8790   39.6040 N   0  0  0  0  0  0  0  0  0  0  0  0
   38.5580   29.5710   39.8260 C   0  0  0  0  0  0  0  0  0  0  0  0
   37.5930   30.1160   39.0930 N   0  0  0  0  0  0  0  0  0  0  0  0
   38.2700   28.6450   40.8690 N   0  0  0  0  0  0  0  0  0  0  0  0
   36.9740   27.9790   41.0390 C   0  0  0  0  0  0  0  0  0  0  0  0
   36.8470   27.9530   42.5450 C   0  0  0  0  0  0  0  0  0  0  0  0
   38.1740   28.3420   43.1160 C   0  0  0  0  0  0  0  0  0  0  0  0
   39.1200   28.1720   41.9310 C   0  0  1  0  0  0  0  0  0  0  0  0
   37.1660   31.4460   37.5070 H   0  0  0  0  0  0  0  0  0  0  0  0
   41.2710   30.9970   38.4580 H   0  0  0  0  0  0  0  0  0  0  0  0
   36.1750   28.5980   40.5750 H   0  0  0  0  0  0  0  0  0  0  0  0
   37.0160   26.9790   40.5820 H   0  0  0  0  0  0  0  0  0  0  0  0
   36.0260   28.6150   42.8910 H   0  0  0  0  0  0  0  0  0  0  0  0
   36.6240   26.9290   42.8660 H   0  0  0  0  0  0  0  0  0  0  0  0
   38.1880   29.4000   43.4110 H   0  0  0  0  0  0  0  0  0  0  0  0
   38.5140   27.6880   43.9470 H   0  0  0  0  0  0  0  0  0  0  0  0
   40.0170   28.7950   42.0840 H   0  0  0  0  0  0  0  0  0  0  0  0
   39.5250   32.2570   36.8150 N   0  0  0  0  0  0  0  0  0  0  0  0
   39.8810   33.1840   37.1300 H   0  0  0  0  0  0  0  0  0  0  0  0
   39.3110   31.8570   35.8810 H   0  0  0  0  0  0  0  0  0  0  0  0
   39.5050   26.4210   41.7760 S   0  0  0  0  0  0  0  0  0  0  0  0
   41.0870   28.1050   42.8780 H   0  0  0  0  0  0  0  0  0  0  0  0
   41.7870   27.4080   42.6100 N   0  0  0  0  0  0  0  0  0  0  0  0
   41.3140   26.2110   41.9970 C   0  0  1  0  0  3  0  0  0  0  0  0
   41.4810   25.0500   42.9330 C   0  0  0  0  0  3  0  0  0  0  0  0
   41.1610   24.1100   42.4120 H   0  0  0  0  0  0  0  0  0  0  0  0
   42.8300   24.8300   43.3780 N   0  0  0  0  0  0  0  0  0  0  0  0
   42.7710   24.7010   44.4320 H   0  0  0  0  0  0  0  0  0  0  0  0
   43.6590   25.9990   43.1490 C   0  0  0  0  0  2  0  0  0  0  0  0
   42.8370   27.2000   43.5680 C   0  0  0  0  0  2  0  0  0  0  0  0
  1  6  1  0  0  0  0
  2  1  2  0  0  0  0
  2  3  1  0  0  0  0
  3  4  2  0  0  0  0
  4  5  1  0  0  0  0
  5  7  1  0  0  0  0
  6  5  2  0  0  0  0
  7  8  1  0  0  0  0
  7 11  1  0  0  0  0
  8  9  1  0  0  0  0
  9 17  1  0  0  0  0
  9 16  1  0  0  0  0
  9 10  1  0  0  0  0
 10 18  1  0  0  0  0
 10 19  1  0  0  0  0
 11 20  1  1  0  0  0
 11 10  1  0  0  0  0
 12  1  1  0  0  0  0
 13  3  1  0  0  0  0
 14  8  1  0  0  0  0
 15  8  1  0  0  0  0
 21 22  1  0  0  0  0
 21  2  1  0  0  0  0
 23 21  1  0  0  0  0
 24 11  1  0  0  0  0
 26 25  1  0  0  0  0
 26 33  1  0  0  0  0
 27 24  1  1  0  0  0
 27 26  1  0  0  0  0
 27 28  1  0  0  0  0
 28 30  1  0  0  0  0
 29 28  1  0  0  0  0
 30 31  1  0  0  0  0
 32 30  1  0  0  0  0
 32 33  1  0  0  0  0
M  END
>  <minimizedAffinity>
-5.09075451

$$$$

 OpenBabel03252506353D

 33 35  0  0  1  0  0  0  0  0999 V2000
   37.5990   32.0240   38.6100 C   0  0  0  0  0  0  0  0  0  0  0  0
   37.8620   31.3600   37.3890 C   0  0  0  0  0  0  0  0  0  0  0  0
   38.1090   30.0200   37.3960 C   0  0  0  0  0  0  0  0  0  0  0  0
   38.0900   29.3920   38.5940 N   0  0  0  0  0  0  0  0  0  0  0  0
   37.8400   30.0220   39.7460 C   0  0  0  0  0  0  0  0  0  0  0  0
   37.5970   31.3280   39.7640 N   0  0  0  0  0  0  0  0  0  0  0  0
   37.8480   29.2480   40.9400 N   0  0  0  0  0  0  0  0  0  0  0  0
   37.3050   29.7120   42.2220 C   0  0  0  0  0  0  0  0  0  0  0  0
   38.2960   29.1220   43.1980 C   0  0  0  0  0  0  0  0  0  0  0  0
   39.1510   28.1530   42.4410 C   0  0  0  0  0  0  0  0  0  0  0  0
   38.3530   27.9170   41.1630 C   0  0  1  0  0  0  0  0  0  0  0  0
   37.4080   33.0710   38.5830 H   0  0  0  0  0  0  0  0  0  0  0  0
   38.3100   29.5160   36.4610 H   0  0  0  0  0  0  0  0  0  0  0  0
   37.3200   30.8240   42.2500 H   0  0  0  0  0  0  0  0  0  0  0  0
   36.2810   29.3260   42.3440 H   0  0  0  0  0  0  0  0  0  0  0  0
   38.8930   29.9140   43.6960 H   0  0  0  0  0  0  0  0  0  0  0  0
   37.7490   28.5640   43.9680 H   0  0  0  0  0  0  0  0  0  0  0  0
   40.1130   28.6030   42.1620 H   0  0  0  0  0  0  0  0  0  0  0  0
   39.2960   27.1830   42.9620 H   0  0  0  0  0  0  0  0  0  0  0  0
   39.0290   27.5670   40.3660 H   0  0  0  0  0  0  0  0  0  0  0  0
   37.8480   32.1710   36.1970 N   0  0  0  0  0  0  0  0  0  0  0  0
   38.7770   32.2990   35.7440 H   0  0  0  0  0  0  0  0  0  0  0  0
   36.8930   32.5110   35.9690 H   0  0  0  0  0  0  0  0  0  0  0  0
   37.0450   26.7390   41.5350 S   0  0  0  0  0  0  0  0  0  0  0  0
   39.1230   26.2750   40.1140 H   0  0  0  0  0  0  0  0  0  0  0  0
   38.6430   25.3840   39.9590 N   0  0  0  0  0  0  0  0  0  0  0  0
   37.4150   25.1750   40.6520 C   0  0  1  0  0  3  0  0  0  0  0  0
   37.5950   24.1340   41.7180 C   0  0  0  0  0  3  0  0  0  0  0  0
   36.6060   23.9390   42.2100 H   0  0  0  0  0  0  0  0  0  0  0  0
   38.0680   22.8630   41.2400 N   0  0  0  0  0  0  0  0  0  0  0  0
   38.8620   22.5850   41.8910 H   0  0  0  0  0  0  0  0  0  0  0  0
   38.6430   22.9800   39.9120 C   0  0  0  0  0  2  0  0  0  0  0  0
   39.4980   24.2300   39.9210 C   0  0  0  0  0  2  0  0  0  0  0  0
  1  6  1  0  0  0  0
  2  3  1  0  0  0  0
  2  1  2  0  0  0  0
  3  4  2  0  0  0  0
  4  5  1  0  0  0  0
  5  6  2  0  0  0  0
  5  7  1  0  0  0  0
  7 11  1  0  0  0  0
  7  8  1  0  0  0  0
  8 14  1  0  0  0  0
  8 15  1  0  0  0  0
  8  9  1  0  0  0  0
  9 16  1  0  0  0  0
  9 17  1  0  0  0  0
 10 19  1  0  0  0  0
 10  9  1  0  0  0  0
 11 20  1  6  0  0  0
 11 24  1  0  0  0  0
 11 10  1  0  0  0  0
 12  1  1  0  0  0  0
 13  3  1  0  0  0  0
 18 10  1  0  0  0  0
 21  2  1  0  0  0  0
 22 21  1  0  0  0  0
 23 21  1  0  0  0  0
 26 25  1  0  0  0  0
 26 27  1  0  0  0  0
 27 24  1  1  0  0  0
 27 28  1  0  0  0  0
 28 29  1  0  0  0  0
 30 28  1  0  0  0  0
 30 31  1  0  0  0  0
 32 33  1  0  0  0  0
 32 30  1  0  0  0  0
 33 26  1  0  0  0  0
M  END
>  <minimizedAffinity>
-5.00586605

$$$$

 OpenBabel03252506353D

 33 35  0  0  1  0  0  0  0  0999 V2000
   37.2680   25.6890   42.2500 C   0  0  0  0  0  0  0  0  0  0  0  0
   38.3750   25.0560   41.6380 C   0  0  0  0  0  0  0  0  0  0  0  0
   39.1850   25.7750   40.8130 C   0  0  0  0  0  0  0  0  0  0  0  0
   38.8770   27.0780   40.6210 N   0  0  0  0  0  0  0  0  0  0  0  0
   37.8310   27.6740   41.2010 C   0  0  0  0  0  0  0  0  0  0  0  0
   37.0260   26.9940   42.0100 N   0  0  0  0  0  0  0  0  0  0  0  0
   37.6130   29.0520   40.9190 N   0  0  0  0  0  0  0  0  0  0  0  0
   36.7140   29.9160   41.6930 C   0  0  0  0  0  0  0  0  0  0  0  0
   36.1230   30.7830   40.6060 C   0  0  0  0  0  0  0  0  0  0  0  0
   36.9170   30.5470   39.3600 C   0  0  0  0  0  0  0  0  0  0  0  0
   38.1830   29.8740   39.8820 C   0  0  1  0  0  0  0  0  0  0  0  0
   36.6470   25.1110   42.8920 H   0  0  0  0  0  0  0  0  0  0  0  0
   40.0300   25.2870   40.3470 H   0  0  0  0  0  0  0  0  0  0  0  0
   35.9340   29.2940   42.1850 H   0  0  0  0  0  0  0  0  0  0  0  0
   37.3000   30.4770   42.4370 H   0  0  0  0  0  0  0  0  0  0  0  0
   35.0420   30.5730   40.4660 H   0  0  0  0  0  0  0  0  0  0  0  0
   36.2380   31.8360   40.8890 H   0  0  0  0  0  0  0  0  0  0  0  0
   36.4100   29.8400   38.6900 H   0  0  0  0  0  0  0  0  0  0  0  0
   37.1980   31.4790   38.8240 H   0  0  0  0  0  0  0  0  0  0  0  0
   38.6520   29.2920   39.0710 H   0  0  0  0  0  0  0  0  0  0  0  0
   38.5680   23.6590   41.9430 N   0  0  0  0  0  0  0  0  0  0  0  0
   38.3990   23.0110   41.1450 H   0  0  0  0  0  0  0  0  0  0  0  0
   38.8510   23.5120   42.9320 H   0  0  0  0  0  0  0  0  0  0  0  0
   39.2640   31.1550   40.5360 S   0  0  0  0  0  0  0  0  0  0  0  0
   40.6200   29.4400   39.2050 H   0  0  0  0  0  0  0  0  0  0  0  0
   41.0550   30.2860   38.8280 N   0  0  0  0  0  0  0  0  0  0  0  0
   40.5300   31.5390   39.2660 C   0  0  1  0  0  3  0  0  0  0  0  0
   39.7970   32.2120   38.1430 C   0  0  0  0  0  3  0  0  0  0  0  0
   39.4460   33.2190   38.4880 H   0  0  0  0  0  0  0  0  0  0  0  0
   40.5860   32.4380   36.9630 N   0  0  0  0  0  0  0  0  0  0  0  0
   39.9910   32.1030   36.1470 H   0  0  0  0  0  0  0  0  0  0  0  0
   41.7840   31.6200   36.9660 C   0  0  0  0  0  2  0  0  0  0  0  0
   41.3640   30.2400   37.4260 C   0  0  0  0  0  2  0  0  0  0  0  0
  1 12  1  0  0  0  0
  2 21  1  0  0  0  0
  2  1  2  0  0  0  0
  3  2  1  0  0  0  0
  4  3  2  0  0  0  0
  4  5  1  0  0  0  0
  5  6  2  0  0  0  0
  6  1  1  0  0  0  0
  7  5  1  0  0  0  0
  7  8  1  0  0  0  0
  8 14  1  0  0  0  0
  8 15  1  0  0  0  0
  9 17  1  0  0  0  0
  9  8  1  0  0  0  0
 10 11  1  0  0  0  0
 10  9  1  0  0  0  0
 11 20  1  6  0  0  0
 11 24  1  0  0  0  0
 11  7  1  0  0  0  0
 13  3  1  0  0  0  0
 16  9  1  0  0  0  0
 18 10  1  0  0  0  0
 19 10  1  0  0  0  0
 21 23  1  0  0  0  0
 22 21  1  0  0  0  0
 26 25  1  0  0  0  0
 26 27  1  0  0  0  0
 27 24  1  1  0  0  0
 28 29  1  0  0  0  0
 28 27  1  0  0  0  0
 30 32  1  0  0  0  0
 30 28  1  0  0  0  0
 31 30  1  0  0  0  0
 32 33  1  0  0  0  0
 33 26  1  0  0  0  0
M  END
>  <minimizedAffinity>
-4.97147083

$$$$

 OpenBabel03252506353D

 33 35  0  0  1  0  0  0  0  0999 V2000
   38.5210   27.6050   43.5680 C   0  0  0  0  0  0  0  0  0  0  0  0
   37.3250   28.2350   43.1490 C   0  0  0  0  0  0  0  0  0  0  0  0
   37.3940   29.3880   42.4270 C   0  0  0  0  0  0  0  0  0  0  0  0
   38.6250   29.8740   42.1480 N   0  0  0  0  0  0  0  0  0  0  0  0
   39.7530   29.2770   42.5440 C   0  0  0  0  0  0  0  0  0  0  0  0
   39.7120   28.1510   43.2500 N   0  0  0  0  0  0  0  0  0  0  0  0
   40.9880   29.8880   42.1860 N   0  0  0  0  0  0  0  0  0  0  0  0
   42.2900   29.2180   42.2740 C   0  0  0  0  0  0  0  0  0  0  0  0
   43.1800   30.3530   42.7260 C   0  0  0  0  0  0  0  0  0  0  0  0
   42.3950   31.6200   42.5940 C   0  0  0  0  0  0  0  0  0  0  0  0
   41.2390   31.2150   41.6860 C   0  0  1  0  0  0  0  0  0  0  0  0
   38.4470   26.7050   44.1310 H   0  0  0  0  0  0  0  0  0  0  0  0
   36.4780   29.8660   42.1100 H   0  0  0  0  0  0  0  0  0  0  0  0
   42.2420   28.4110   43.0380 H   0  0  0  0  0  0  0  0  0  0  0  0
   42.5580   28.8120   41.2860 H   0  0  0  0  0  0  0  0  0  0  0  0
   43.5500   30.1880   43.7600 H   0  0  0  0  0  0  0  0  0  0  0  0
   44.0450   30.4160   42.0550 H   0  0  0  0  0  0  0  0  0  0  0  0
   41.9740   31.9320   43.5600 H   0  0  0  0  0  0  0  0  0  0  0  0
   42.9590   32.4480   42.1150 H   0  0  0  0  0  0  0  0  0  0  0  0
   40.3930   31.9060   41.8350 H   0  0  0  0  0  0  0  0  0  0  0  0
   36.0910   27.5920   43.5280 N   0  0  0  0  0  0  0  0  0  0  0  0
   35.5240   28.1140   44.2300 H   0  0  0  0  0  0  0  0  0  0  0  0
   35.9550   26.6890   43.0330 H   0  0  0  0  0  0  0  0  0  0  0  0
   41.8410   31.2080   39.9900 S   0  0  0  0  0  0  0  0  0  0  0  0
   39.4230   31.8020   40.5810 H   0  0  0  0  0  0  0  0  0  0  0  0
   39.2560   31.4600   39.6310 N   0  0  0  0  0  0  0  0  0  0  0  0
   40.3960   31.0690   38.8690 C   0  0  1  0  0  3  0  0  0  0  0  0
   40.6390   32.0520   37.7620 C   0  0  0  0  0  3  0  0  0  0  0  0
   41.5000   31.6960   37.1380 H   0  0  0  0  0  0  0  0  0  0  0  0
   39.5310   32.2270   36.8630 N   0  0  0  0  0  0  0  0  0  0  0  0
   39.4090   33.2770   36.7520 H   0  0  0  0  0  0  0  0  0  0  0  0
   38.2980   31.7250   37.4430 C   0  0  0  0  0  2  0  0  0  0  0  0
   38.2750   32.1950   38.8820 C   0  0  0  0  0  2  0  0  0  0  0  0
  1 12  1  0  0  0  0
  2 21  1  0  0  0  0
  2  1  2  0  0  0  0
  3  2  1  0  0  0  0
  4  3  2  0  0  0  0
  4  5  1  0  0  0  0
  5  6  2  0  0  0  0
  6  1  1  0  0  0  0
  7  8  1  0  0  0  0
  7  5  1  0  0  0  0
  8  9  1  0  0  0  0
  8 14  1  0  0  0  0
  9 16  1  0  0  0  0
 10  9  1  0  0  0  0
 10 18  1  0  0  0  0
 11 20  1  1  0  0  0
 11  7  1  0  0  0  0
 11 10  1  0  0  0  0
 13  3  1  0  0  0  0
 15  8  1  0  0  0  0
 17  9  1  0  0  0  0
 19 10  1  0  0  0  0
 21 22  1  0  0  0  0
 23 21  1  0  0  0  0
 24 11  1  0  0  0  0
 26 25  1  0  0  0  0
 27 26  1  0  0  0  0
 27 24  1  1  0  0  0
 28 27  1  0  0  0  0
 29 28  1  0  0  0  0
 30 32  1  0  0  0  0
 30 28  1  0  0  0  0
 31 30  1  0  0  0  0
 32 33  1  0  0  0  0
 33 26  1  0  0  0  0
M  END
>  <minimizedAffinity>
-4.9554038

$$$$

 OpenBabel03252506353D

 33 35  0  0  1  0  0  0  0  0999 V2000
   40.2880   32.7950   39.0470 C   0  0  0  0  0  0  0  0  0  0  0  0
   40.0560   33.0960   40.4100 C   0  0  0  0  0  0  0  0  0  0  0  0
   39.1000   32.4080   41.0940 C   0  0  0  0  0  0  0  0  0  0  0  0
   38.4140   31.4590   40.4170 N   0  0  0  0  0  0  0  0  0  0  0  0
   38.6350   31.1760   39.1300 C   0  0  0  0  0  0  0  0  0  0  0  0
   39.5620   31.8340   38.4410 N   0  0  0  0  0  0  0  0  0  0  0  0
   37.8460   30.1540   38.5310 N   0  0  0  0  0  0  0  0  0  0  0  0
   38.1610   29.5220   37.2450 C   0  0  0  0  0  0  0  0  0  0  0  0
   36.7820   29.3370   36.6560 C   0  0  0  0  0  0  0  0  0  0  0  0
   35.7890   29.6120   37.7410 C   0  0  0  0  0  0  0  0  0  0  0  0
   36.6360   29.5360   39.0080 C   0  0  1  0  0  0  0  0  0  0  0  0
   41.0380   33.3440   38.5290 H   0  0  0  0  0  0  0  0  0  0  0  0
   38.9270   32.6410   42.1350 H   0  0  0  0  0  0  0  0  0  0  0  0
   38.7750   30.2170   36.6300 H   0  0  0  0  0  0  0  0  0  0  0  0
   38.6960   28.5770   37.4250 H   0  0  0  0  0  0  0  0  0  0  0  0
   36.6320   29.9870   35.7690 H   0  0  0  0  0  0  0  0  0  0  0  0
   36.6660   28.2920   36.3430 H   0  0  0  0  0  0  0  0  0  0  0  0
   35.3840   30.6300   37.6640 H   0  0  0  0  0  0  0  0  0  0  0  0
   34.9750   28.8580   37.8050 H   0  0  0  0  0  0  0  0  0  0  0  0
   36.1430   30.1050   39.8140 H   0  0  0  0  0  0  0  0  0  0  0  0
   40.8710   34.1360   40.9880 N   0  0  0  0  0  0  0  0  0  0  0  0
   40.3570   35.0100   41.2300 H   0  0  0  0  0  0  0  0  0  0  0  0
   41.8650   33.8490   41.0740 H   0  0  0  0  0  0  0  0  0  0  0  0
   36.8650   27.8000   39.4190 S   0  0  0  0  0  0  0  0  0  0  0  0
   39.1830   27.9930   40.4900 H   0  0  0  0  0  0  0  0  0  0  0  0
   38.6500   27.7980   41.3410 N   0  0  0  0  0  0  0  0  0  0  0  0
   37.2340   27.6800   41.2120 C   0  0  1  0  0  3  0  0  0  0  0  0
   36.5580   28.8570   41.8510 C   0  0  0  0  0  3  0  0  0  0  0  0
   35.4470   28.7160   41.7930 H   0  0  0  0  0  0  0  0  0  0  0  0
   36.8720   29.0470   43.2400 N   0  0  0  0  0  0  0  0  0  0  0  0
   37.1040   30.0790   43.3480 H   0  0  0  0  0  0  0  0  0  0  0  0
   38.0660   28.3120   43.6160 C   0  0  0  0  0  2  0  0  0  0  0  0
   39.0720   28.5270   42.5050 C   0  0  0  0  0  2  0  0  0  0  0  0
  1  2  1  0  0  0  0
  2 21  1  0  0  0  0
  2  3  2  0  0  0  0
  3 13  1  0  0  0  0
  4  3  1  0  0  0  0
  5  4  2  0  0  0  0
  6  1  2  0  0  0  0
  6  5  1  0  0  0  0
  7 11  1  0  0  0  0
  7  5  1  0  0  0  0
  8 15  1  0  0  0  0
  8  7  1  0  0  0  0
  9  8  1  0  0  0  0
  9 10  1  0  0  0  0
 10 19  1  0  0  0  0
 10 11  1  0  0  0  0
 11 24  1  0  0  0  0
 11 20  1  1  0  0  0
 12  1  1  0  0  0  0
 14  8  1  0  0  0  0
 16  9  1  0  0  0  0
 17  9  1  0  0  0  0
 18 10  1  0  0  0  0
 21 23  1  0  0  0  0
 21 22  1  0  0  0  0
 25 26  1  0  0  0  0
 26 33  1  0  0  0  0
 27 24  1  6  0  0  0
 27 26  1  0  0  0  0
 27 28  1  0  0  0  0
 28 30  1  0  0  0  0
 29 28  1  0  0  0  0
 30 31  1  0  0  0  0
 30 32  1  0  0  0  0
 33 32  1  0  0  0  0
M  END
>  <minimizedAffinity>
-4.92611933

$$$$

 OpenBabel03252506353D

 33 35  0  0  1  0  0  0  0  0999 V2000
   35.7710   29.4710   40.1310 C   0  0  0  0  0  0  0  0  0  0  0  0
   36.5010   30.2700   41.0430 C   0  0  0  0  0  0  0  0  0  0  0  0
   37.4320   29.6860   41.8470 C   0  0  0  0  0  0  0  0  0  0  0  0
   37.6070   28.3500   41.7270 N   0  0  0  0  0  0  0  0  0  0  0  0
   36.9160   27.5980   40.8650 C   0  0  0  0  0  0  0  0  0  0  0  0
   36.0020   28.1440   40.0690 N   0  0  0  0  0  0  0  0  0  0  0  0
   37.1940   26.2020   40.8330 N   0  0  0  0  0  0  0  0  0  0  0  0
   36.7560   25.3030   39.7600 C   0  0  0  0  0  0  0  0  0  0  0  0
   36.4200   24.0510   40.5350 C   0  0  0  0  0  0  0  0  0  0  0  0
   36.9440   24.2290   41.9260 C   0  0  0  0  0  0  0  0  0  0  0  0
   37.9190   25.3930   41.7790 C   0  0  1  0  0  0  0  0  0  0  0  0
   35.0480   29.9460   39.5110 H   0  0  0  0  0  0  0  0  0  0  0  0
   37.9880   30.3000   42.5420 H   0  0  0  0  0  0  0  0  0  0  0  0
   35.8560   25.7270   39.2640 H   0  0  0  0  0  0  0  0  0  0  0  0
   37.5780   25.1700   39.0390 H   0  0  0  0  0  0  0  0  0  0  0  0
   35.3290   23.8450   40.5160 H   0  0  0  0  0  0  0  0  0  0  0  0
   36.9410   23.2000   40.0810 H   0  0  0  0  0  0  0  0  0  0  0  0
   36.1480   24.5390   42.6160 H   0  0  0  0  0  0  0  0  0  0  0  0
   37.4920   23.3440   42.3150 H   0  0  0  0  0  0  0  0  0  0  0  0
   38.0580   25.8820   42.7570 H   0  0  0  0  0  0  0  0  0  0  0  0
   36.1970   31.6800   41.0510 N   0  0  0  0  0  0  0  0  0  0  0  0
   35.7230   32.0190   41.9150 H   0  0  0  0  0  0  0  0  0  0  0  0
   36.5030   32.1490   40.1760 H   0  0  0  0  0  0  0  0  0  0  0  0
   39.4540   24.7480   41.0970 S   0  0  0  0  0  0  0  0  0  0  0  0
   39.2450   26.8900   42.4840 H   0  0  0  0  0  0  0  0  0  0  0  0
   40.2670   26.8360   42.4610 N   0  0  0  0  0  0  0  0  0  0  0  0
   40.8450   25.7030   41.8160 C   0  0  1  0  0  3  0  0  0  0  0  0
   41.4810   24.8010   42.8330 C   0  0  0  0  0  3  0  0  0  0  0  0
   41.9830   23.9490   42.3040 H   0  0  0  0  0  0  0  0  0  0  0  0
   42.4900   25.4280   43.6420 N   0  0  0  0  0  0  0  0  0  0  0  0
   42.2700   25.1550   44.6460 H   0  0  0  0  0  0  0  0  0  0  0  0
   42.3960   26.8740   43.5750 C   0  0  0  0  0  2  0  0  0  0  0  0
   40.9250   27.2160   43.6800 C   0  0  0  0  0  2  0  0  0  0  0  0
  1  2  1  0  0  0  0
  2 21  1  0  0  0  0
  2  3  2  0  0  0  0
  3 13  1  0  0  0  0
  4  3  1  0  0  0  0
  5  4  2  0  0  0  0
  6  1  2  0  0  0  0
  6  5  1  0  0  0  0
  7  5  1  0  0  0  0
  7 11  1  0  0  0  0
  8  9  1  0  0  0  0
  8  7  1  0  0  0  0
  9 10  1  0  0  0  0
 10 19  1  0  0  0  0
 10 18  1  0  0  0  0
 11 10  1  0  0  0  0
 11 20  1  1  0  0  0
 12  1  1  0  0  0  0
 14  8  1  0  0  0  0
 15  8  1  0  0  0  0
 16  9  1  0  0  0  0
 17  9  1  0  0  0  0
 21 22  1  0  0  0  0
 23 21  1  0  0  0  0
 24 11  1  0  0  0  0
 26 25  1  0  0  0  0
 26 33  1  0  0  0  0
 27 24  1  1  0  0  0
 27 26  1  0  0  0  0
 27 28  1  0  0  0  0
 28 30  1  0  0  0  0
 29 28  1  0  0  0  0
 30 31  1  0  0  0  0
 32 30  1  0  0  0  0
 32 33  1  0  0  0  0
M  END
>  <minimizedAffinity>
-4.92141199

$$$$

 OpenBabel03252506353D

 33 35  0  0  1  0  0  0  0  0999 V2000
   41.1550   25.4410   42.8350 C   0  0  0  0  0  0  0  0  0  0  0  0
   39.8040   25.0520   42.9990 C   0  0  0  0  0  0  0  0  0  0  0  0
   38.8170   25.9770   42.8350 C   0  0  0  0  0  0  0  0  0  0  0  0
   39.1930   27.2370   42.5190 N   0  0  0  0  0  0  0  0  0  0  0  0
   40.4690   27.6020   42.3640 C   0  0  0  0  0  0  0  0  0  0  0  0
   41.4500   26.7180   42.5200 N   0  0  0  0  0  0  0  0  0  0  0  0
   40.7350   28.9600   42.0310 N   0  0  0  0  0  0  0  0  0  0  0  0
   42.0280   29.4450   41.5360 C   0  0  0  0  0  0  0  0  0  0  0  0
   42.1210   30.7930   42.2120 C   0  0  0  0  0  0  0  0  0  0  0  0
   40.7810   31.0930   42.8060 C   0  0  0  0  0  0  0  0  0  0  0  0
   39.8620   30.1040   42.0940 C   0  0  1  0  0  0  0  0  0  0  0  0
   41.9110   24.7050   42.9670 H   0  0  0  0  0  0  0  0  0  0  0  0
   37.7870   25.6750   42.9620 H   0  0  0  0  0  0  0  0  0  0  0  0
   42.8370   28.7620   41.8780 H   0  0  0  0  0  0  0  0  0  0  0  0
   41.9980   29.5030   40.4370 H   0  0  0  0  0  0  0  0  0  0  0  0
   42.9330   30.8090   42.9690 H   0  0  0  0  0  0  0  0  0  0  0  0
   42.3380   31.5570   41.4550 H   0  0  0  0  0  0  0  0  0  0  0  0
   40.7580   30.8630   43.8790 H   0  0  0  0  0  0  0  0  0  0  0  0
   40.4230   32.1250   42.6070 H   0  0  0  0  0  0  0  0  0  0  0  0
   38.9610   29.9330   42.7060 H   0  0  0  0  0  0  0  0  0  0  0  0
   39.5670   23.6710   43.3370 N   0  0  0  0  0  0  0  0  0  0  0  0
   39.2030   23.5130   44.3000 H   0  0  0  0  0  0  0  0  0  0  0  0
   39.8030   23.0320   42.5520 H   0  0  0  0  0  0  0  0  0  0  0  0
   39.4830   30.7700   40.4670 S   0  0  0  0  0  0  0  0  0  0  0  0
   38.4690   28.4220   40.5710 H   0  0  0  0  0  0  0  0  0  0  0  0
   37.6470   28.9150   40.2100 N   0  0  0  0  0  0  0  0  0  0  0  0
   37.7510   30.3300   40.0560 C   0  0  1  0  0  3  0  0  0  0  0  0
   36.8970   31.0230   41.0760 C   0  0  0  0  0  3  0  0  0  0  0  0
   36.9430   32.1300   40.9010 H   0  0  0  0  0  0  0  0  0  0  0  0
   35.5060   30.6640   41.0370 N   0  0  0  0  0  0  0  0  0  0  0  0
   35.2290   30.4650   42.0450 H   0  0  0  0  0  0  0  0  0  0  0  0
   35.3010   29.4300   40.3000 C   0  0  0  0  0  2  0  0  0  0  0  0
   36.3890   28.4750   40.7440 C   0  0  0  0  0  2  0  0  0  0  0  0
  1 12  1  0  0  0  0
  1  2  1  0  0  0  0
  2 21  1  0  0  0  0
  3 13  1  0  0  0  0
  3  2  2  0  0  0  0
  4  3  1  0  0  0  0
  5  4  2  0  0  0  0
  5  6  1  0  0  0  0
  6  1  2  0  0  0  0
  7 11  1  0  0  0  0
  7  5  1  0  0  0  0
  8 14  1  0  0  0  0
  8  7  1  0  0  0  0
  8  9  1  0  0  0  0
  9 10  1  0  0  0  0
  9 16  1  0  0  0  0
 10 18  1  0  0  0  0
 11 20  1  1  0  0  0
 11 10  1  0  0  0  0
 15  8  1  0  0  0  0
 17  9  1  0  0  0  0
 19 10  1  0  0  0  0
 21 22  1  0  0  0  0
 23 21  1  0  0  0  0
 24 11  1  0  0  0  0
 26 25  1  0  0  0  0
 26 33  1  0  0  0  0
 27 26  1  0  0  0  0
 27 24  1  1  0  0  0
 27 28  1  0  0  0  0
 29 28  1  0  0  0  0
 30 28  1  0  0  0  0
 30 31  1  0  0  0  0
 32 33  1  0  0  0  0
 32 30  1  0  0  0  0
M  END
>  <minimizedAffinity>
-4.89431

$$$$

 OpenBabel03252506353D

 33 35  0  0  1  0  0  0  0  0999 V2000
   36.6560   29.7050   36.4050 C   0  0  0  0  0  0  0  0  0  0  0  0
   37.5470   28.6290   36.1790 C   0  0  0  0  0  0  0  0  0  0  0  0
   38.6400   28.4870   36.9780 C   0  0  0  0  0  0  0  0  0  0  0  0
   38.8150   29.4010   37.9600 N   0  0  0  0  0  0  0  0  0  0  0  0
   37.9720   30.4160   38.1710 C   0  0  0  0  0  0  0  0  0  0  0  0
   36.8990   30.5770   37.4040 N   0  0  0  0  0  0  0  0  0  0  0  0
   38.2670   31.3110   39.2380 N   0  0  0  0  0  0  0  0  0  0  0  0
   37.3080   32.2760   39.7870 C   0  0  0  0  0  0  0  0  0  0  0  0
   38.2040   33.4580   40.0760 C   0  0  0  0  0  0  0  0  0  0  0  0
   39.6210   32.9940   39.9370 C   0  0  0  0  0  0  0  0  0  0  0  0
   39.4890   31.4740   39.9820 C   0  0  1  0  0  0  0  0  0  0  0  0
   35.8080   29.8000   35.7690 H   0  0  0  0  0  0  0  0  0  0  0  0
   39.3180   27.6630   36.8020 H   0  0  0  0  0  0  0  0  0  0  0  0
   36.5470   32.5240   39.0160 H   0  0  0  0  0  0  0  0  0  0  0  0
   36.8370   31.8490   40.6860 H   0  0  0  0  0  0  0  0  0  0  0  0
   37.9710   34.3140   39.4090 H   0  0  0  0  0  0  0  0  0  0  0  0
   38.0510   33.7760   41.1150 H   0  0  0  0  0  0  0  0  0  0  0  0
   40.0370   33.2680   38.9580 H   0  0  0  0  0  0  0  0  0  0  0  0
   40.2840   33.3250   40.7640 H   0  0  0  0  0  0  0  0  0  0  0  0
   40.3640   31.0150   39.4940 H   0  0  0  0  0  0  0  0  0  0  0  0
   37.2210   27.7400   35.0910 N   0  0  0  0  0  0  0  0  0  0  0  0
   37.8720   27.7870   34.2790 H   0  0  0  0  0  0  0  0  0  0  0  0
   36.3700   27.1790   35.2880 H   0  0  0  0  0  0  0  0  0  0  0  0
   39.3160   30.9840   41.7050 S   0  0  0  0  0  0  0  0  0  0  0  0
   40.0310   29.0610   43.2370 H   0  0  0  0  0  0  0  0  0  0  0  0
   39.3060   28.5630   42.7130 N   0  0  0  0  0  0  0  0  0  0  0  0
   38.5650   29.3110   41.7510 C   0  0  1  0  0  3  0  0  0  0  0  0
   37.1550   29.5070   42.2260 C   0  0  0  0  0  3  0  0  0  0  0  0
   36.5720   30.0430   41.4320 H   0  0  0  0  0  0  0  0  0  0  0  0
   36.4420   28.2890   42.5010 N   0  0  0  0  0  0  0  0  0  0  0  0
   35.9810   28.4300   43.4500 H   0  0  0  0  0  0  0  0  0  0  0  0
   37.3510   27.1670   42.6440 C   0  0  0  0  0  2  0  0  0  0  0  0
   38.5090   27.6540   43.4880 C   0  0  0  0  0  2  0  0  0  0  0  0
  1  6  1  0  0  0  0
  2  1  2  0  0  0  0
  2  3  1  0  0  0  0
  3  4  2  0  0  0  0
  4  5  1  0  0  0  0
  5  7  1  0  0  0  0
  6  5  2  0  0  0  0
  7  8  1  0  0  0  0
  7 11  1  0  0  0  0
  8  9  1  0  0  0  0
  8 15  1  0  0  0  0
  9 17  1  0  0  0  0
 10 11  1  0  0  0  0
 10  9  1  0  0  0  0
 10 19  1  0  0  0  0
 11 20  1  6  0  0  0
 11 24  1  0  0  0  0
 12  1  1  0  0  0  0
 13  3  1  0  0  0  0
 14  8  1  0  0  0  0
 16  9  1  0  0  0  0
 18 10  1  0  0  0  0
 21 23  1  0  0  0  0
 21  2  1  0  0  0  0
 22 21  1  0  0  0  0
 26 25  1  0  0  0  0
 26 33  1  0  0  0  0
 27 24  1  1  0  0  0
 27 28  1  0  0  0  0
 27 26  1  0  0  0  0
 28 30  1  0  0  0  0
 29 28  1  0  0  0  0
 30 32  1  0  0  0  0
 30 31  1  0  0  0  0
 32 33  1  0  0  0  0
M  END
>  <minimizedAffinity>
-4.85859442

$$$$

 OpenBabel03252506353D

 33 35  0  0  1  0  0  0  0  0999 V2000
   37.5930   31.9620   38.3770 C   0  0  0  0  0  0  0  0  0  0  0  0
   37.1000   32.3820   39.6350 C   0  0  0  0  0  0  0  0  0  0  0  0
   36.5780   31.4600   40.4900 C   0  0  0  0  0  0  0  0  0  0  0  0
   36.5590   30.1720   40.0800 N   0  0  0  0  0  0  0  0  0  0  0  0
   37.0270   29.7770   38.8910 C   0  0  0  0  0  0  0  0  0  0  0  0
   37.5400   30.6580   38.0390 N   0  0  0  0  0  0  0  0  0  0  0  0
   36.9520   28.3910   38.5760 N   0  0  0  0  0  0  0  0  0  0  0  0
   37.6800   27.7610   37.4690 C   0  0  0  0  0  0  0  0  0  0  0  0
   36.6680   26.7510   36.9820 C   0  0  0  0  0  0  0  0  0  0  0  0
   35.5710   26.6850   37.9980 C   0  0  0  0  0  0  0  0  0  0  0  0
   36.1970   27.3470   39.2210 C   0  0  1  0  0  0  0  0  0  0  0  0
   37.9970   32.6980   37.7220 H   0  0  0  0  0  0  0  0  0  0  0  0
   36.2020   31.7860   41.4500 H   0  0  0  0  0  0  0  0  0  0  0  0
   37.9010   28.5230   36.6890 H   0  0  0  0  0  0  0  0  0  0  0  0
   38.6060   27.3080   37.8550 H   0  0  0  0  0  0  0  0  0  0  0  0
   36.2930   27.0120   35.9700 H   0  0  0  0  0  0  0  0  0  0  0  0
   37.1450   25.7650   36.9310 H   0  0  0  0  0  0  0  0  0  0  0  0
   34.7060   27.2890   37.6920 H   0  0  0  0  0  0  0  0  0  0  0  0
   35.2670   25.6500   38.2630 H   0  0  0  0  0  0  0  0  0  0  0  0
   35.4010   27.7270   39.8820 H   0  0  0  0  0  0  0  0  0  0  0  0
   37.1890   33.7920   39.9240 N   0  0  0  0  0  0  0  0  0  0  0  0
   36.2740   34.2890   39.9660 H   0  0  0  0  0  0  0  0  0  0  0  0
   38.1730   34.1020   40.0480 H   0  0  0  0  0  0  0  0  0  0  0  0
   37.2540   26.1350   40.0290 S   0  0  0  0  0  0  0  0  0  0  0  0
   38.9610   27.9840   40.4960 H   0  0  0  0  0  0  0  0  0  0  0  0
   38.7240   27.7620   41.4660 N   0  0  0  0  0  0  0  0  0  0  0  0
   37.7100   26.7830   41.6820 C   0  0  1  0  0  3  0  0  0  0  0  0
   36.4710   27.4340   42.2250 C   0  0  0  0  0  3  0  0  0  0  0  0
   35.7080   26.6430   42.4450 H   0  0  0  0  0  0  0  0  0  0  0  0
   36.6650   28.1640   43.4470 N   0  0  0  0  0  0  0  0  0  0  0  0
   36.1870   29.1040   43.3050 H   0  0  0  0  0  0  0  0  0  0  0  0
   38.0710   28.4460   43.6760 C   0  0  0  0  0  2  0  0  0  0  0  0
   38.6430   28.8930   42.3480 C   0  0  0  0  0  2  0  0  0  0  0  0
  1  2  1  0  0  0  0
  2 21  1  0  0  0  0
  2  3  2  0  0  0  0
  3 13  1  0  0  0  0
  4  3  1  0  0  0  0
  5  4  2  0  0  0  0
  6  1  2  0  0  0  0
  6  5  1  0  0  0  0
  7  5  1  0  0  0  0
  7 11  1  0  0  0  0
  8 15  1  0  0  0  0
  8  7  1  0  0  0  0
  9  8  1  0  0  0  0
  9 10  1  0  0  0  0
 10 19  1  0  0  0  0
 10 11  1  0  0  0  0
 11 20  1  1  0  0  0
 11 24  1  0  0  0  0
 12  1  1  0  0  0  0
 14  8  1  0  0  0  0
 16  9  1  0  0  0  0
 17  9  1  0  0  0  0
 18 10  1  0  0  0  0
 21 22  1  0  0  0  0
 21 23  1  0  0  0  0
 25 26  1  0  0  0  0
 26 27  1  0  0  0  0
 26 33  1  0  0  0  0
 27 24  1  6  0  0  0
 27 28  1  0  0  0  0
 28 29  1  0  0  0  0
 28 30  1  0  0  0  0
 30 32  1  0  0  0  0
 31 30  1  0  0  0  0
 33 32  1  0  0  0  0
M  END
>  <minimizedAffinity>
-4.82339907

$$$$
