
 OpenBabel03252509073D

 41 44  0  0  1  0  0  0  0  0999 V2000
   47.5820   31.8360   38.7930 C   0  0  0  0  0  0  0  0  0  0  0  0
   47.1630   33.1290   38.8850 C   0  0  0  0  0  0  0  0  0  0  0  0
   47.8380   34.0970   38.1630 C   0  0  0  0  0  0  0  0  0  0  0  0
   48.9070   33.7580   37.3680 C   0  0  0  0  0  0  0  0  0  0  0  0
   49.3470   32.4430   37.2600 C   0  0  0  0  0  0  0  0  0  0  0  0
   48.6630   31.4790   37.9900 C   0  0  0  0  0  0  0  0  0  0  0  0
   47.5300   35.1390   38.2170 H   0  0  0  0  0  0  0  0  0  0  0  0
   49.3970   34.5510   36.8280 H   0  0  0  0  0  0  0  0  0  0  0  0
   50.1740   32.1790   36.6440 H   0  0  0  0  0  0  0  0  0  0  0  0
   49.0120   30.4640   37.8990 H   0  0  0  0  0  0  0  0  0  0  0  0
   45.4080   35.2720   43.2220 Cl  0  0  0  0  0  0  0  0  0  0  0  0
   45.2290   34.5450   41.6520 C   0  0  0  0  0  0  0  0  0  0  0  0
   46.3010   34.1520   40.9360 C   0  0  0  0  0  0  0  0  0  0  0  0
   46.0450   33.5820   39.6930 C   0  0  0  0  0  0  0  0  0  0  0  0
   44.7710   33.4220   39.2080 C   0  0  0  0  0  0  0  0  0  0  0  0
   43.7070   33.8250   39.9500 C   0  0  0  0  0  0  0  0  0  0  0  0
   43.9460   34.3890   41.1800 C   0  0  0  0  0  0  0  0  0  0  0  0
   44.5700   32.9760   38.2330 H   0  0  0  0  0  0  0  0  0  0  0  0
   42.6920   33.7140   39.6020 H   0  0  0  0  0  0  0  0  0  0  0  0
   43.0770   34.7080   41.7630 H   0  0  0  0  0  0  0  0  0  0  0  0
   49.5960   35.6820   41.9600 C   0  0  0  0  0  0  0  0  0  0  0  0
   48.3150   35.5270   41.4210 C   0  0  0  0  0  0  0  0  0  0  0  0
   47.6230   34.3290   41.4840 C   0  0  0  0  0  0  0  0  0  0  0  0
   48.2820   33.3180   42.1100 N   0  0  0  0  0  0  0  0  0  0  0  0
   49.5110   33.4670   42.6270 C   0  0  0  0  0  0  0  0  0  0  0  0
   50.1600   34.6370   42.5530 N   0  0  0  0  0  0  0  0  0  0  0  0
   50.0600   36.6580   41.8630 H   0  0  0  0  0  0  0  0  0  0  0  0
   47.8240   36.3580   40.9310 H   0  0  0  0  0  0  0  0  0  0  0  0
   50.0360   32.6590   43.1250 H   0  0  0  0  0  0  0  0  0  0  0  0
   46.8020   30.5940   39.6210 S   0  0  0  0  0  0  0  0  0  0  0  0
   47.7430   29.4920   40.0550 O   0  0  0  0  0  0  0  0  0  0  0  0
   46.3630   31.2510   40.9630 O   0  0  0  0  0  0  0  0  0  0  0  0
   44.1170   31.2740   39.6620 H   0  0  0  0  0  0  0  0  0  0  0  0
   44.1310   30.2540   39.7490 N   0  0  0  0  0  0  0  0  0  0  0  0
   45.4060   29.7520   39.1850 C   0  0  1  0  0  3  0  0  0  0  0  0
   45.1060   30.2480   37.7210 C   0  0  0  0  0  3  0  0  0  0  0  0
   44.8660   31.3150   37.7280 H   0  0  0  0  0  0  0  0  0  0  0  0
   44.1010   29.4350   37.1150 N   0  0  0  0  0  0  0  0  0  0  0  0
   44.4550   28.8620   36.3220 H   0  0  0  0  0  0  0  0  0  0  0  0
   43.3110   28.6850   38.0480 C   0  0  0  0  0  2  0  0  0  0  0  0
   43.0060   29.5370   39.2520 C   0  0  0  0  0  2  0  0  0  0  0  0
  1  2  1  0  0  0  0
  1 30  1  0  0  0  0
  2 14  1  0  0  0  0
  3  7  1  0  0  0  0
  3  2  2  0  0  0  0
  4  3  1  0  0  0  0
  5  4  2  0  0  0  0
  5  6  1  0  0  0  0
  6  1  2  0  0  0  0
  8  4  1  0  0  0  0
  9  5  1  0  0  0  0
 10  6  1  0  0  0  0
 12 11  1  0  0  0  0
 13 23  1  0  0  0  0
 13 12  2  0  0  0  0
 14 13  1  0  0  0  0
 15 14  2  0  0  0  0
 15 16  1  0  0  0  0
 16 17  2  0  0  0  0
 17 12  1  0  0  0  0
 17 20  1  0  0  0  0
 18 15  1  0  0  0  0
 19 16  1  0  0  0  0
 21 26  1  0  0  0  0
 22 23  1  0  0  0  0
 22 21  2  0  0  0  0
 23 24  2  0  0  0  0
 24 25  1  0  0  0  0
 25 29  1  0  0  0  0
 26 25  2  0  0  0  0
 27 21  1  0  0  0  0
 28 22  1  0  0  0  0
 30 31  2  0  0  0  0
 30 32  2  0  0  0  0
 33 34  1  0  0  0  0
 35 30  1  1  0  0  0
 35 34  1  0  0  0  0
 36 37  1  0  0  0  0
 36 35  1  0  0  0  0
 38 36  1  0  0  0  0
 38 40  1  0  0  0  0
 39 38  1  0  0  0  0
 40 41  1  0  0  0  0
 41 34  1  0  0  0  0
M  END
>  <minimizedAffinity>
-4.60957956

>  <minimizedRMSD>
1.85105419

$$$$
