
 OpenBabel03252509073D

 41 44  0  0  1  0  0  0  0  0999 V2000
   47.6210   31.8180   38.9930 C   0  0  0  0  0  0  0  0  0  0  0  0
   47.1550   33.0980   38.9620 C   0  0  0  0  0  0  0  0  0  0  0  0
   47.7860   34.0130   38.1380 C   0  0  0  0  0  0  0  0  0  0  0  0
   48.8570   33.6360   37.3650 C   0  0  0  0  0  0  0  0  0  0  0  0
   49.3450   32.3330   37.3810 C   0  0  0  0  0  0  0  0  0  0  0  0
   48.7060   31.4220   38.2120 C   0  0  0  0  0  0  0  0  0  0  0  0
   47.4390   35.0430   38.0930 H   0  0  0  0  0  0  0  0  0  0  0  0
   49.3110   34.3880   36.7410 H   0  0  0  0  0  0  0  0  0  0  0  0
   50.1740   32.0390   36.7820 H   0  0  0  0  0  0  0  0  0  0  0  0
   49.0910   30.4160   38.2170 H   0  0  0  0  0  0  0  0  0  0  0  0
   45.3600   35.4230   43.1880 Cl  0  0  0  0  0  0  0  0  0  0  0  0
   45.1960   34.6330   41.6460 C   0  0  0  0  0  0  0  0  0  0  0  0
   46.2740   34.2070   40.9600 C   0  0  0  0  0  0  0  0  0  0  0  0
   46.0300   33.5880   39.7380 C   0  0  0  0  0  0  0  0  0  0  0  0
   44.7610   33.4140   39.2450 C   0  0  0  0  0  0  0  0  0  0  0  0
   43.6900   33.8520   39.9560 C   0  0  0  0  0  0  0  0  0  0  0  0
   43.9180   34.4650   41.1660 C   0  0  0  0  0  0  0  0  0  0  0  0
   44.5690   32.9300   38.2860 H   0  0  0  0  0  0  0  0  0  0  0  0
   42.6780   33.7310   39.6020 H   0  0  0  0  0  0  0  0  0  0  0  0
   43.0440   34.8110   41.7250 H   0  0  0  0  0  0  0  0  0  0  0  0
   49.5830   35.7480   41.9200 C   0  0  0  0  0  0  0  0  0  0  0  0
   48.3080   35.5760   41.3720 C   0  0  0  0  0  0  0  0  0  0  0  0
   47.5900   34.4000   41.5160 C   0  0  0  0  0  0  0  0  0  0  0  0
   48.2170   33.4280   42.2300 N   0  0  0  0  0  0  0  0  0  0  0  0
   49.4410   33.5940   42.7550 C   0  0  0  0  0  0  0  0  0  0  0  0
   50.1150   34.7410   42.6020 N   0  0  0  0  0  0  0  0  0  0  0  0
   50.0690   36.7030   41.7560 H   0  0  0  0  0  0  0  0  0  0  0  0
   47.8420   36.3750   40.8110 H   0  0  0  0  0  0  0  0  0  0  0  0
   49.9400   32.8160   43.3240 H   0  0  0  0  0  0  0  0  0  0  0  0
   46.8970   30.6370   39.9500 S   0  0  0  0  0  0  0  0  0  0  0  0
   45.6100   30.1060   39.3600 O   0  0  0  0  0  0  0  0  0  0  0  0
   47.8710   29.4260   39.8580 O   0  0  0  0  0  0  0  0  0  0  0  0
   44.5520   30.3550   41.3990 H   0  0  0  0  0  0  0  0  0  0  0  0
   45.1580   30.9330   41.9900 N   0  0  0  0  0  0  0  0  0  0  0  0
   46.5660   30.6800   41.6050 C   0  0  1  0  0  3  0  0  0  0  0  0
   46.5490   29.1640   42.0290 C   0  0  0  0  0  3  0  0  0  0  0  0
   45.7220   28.6470   41.5340 H   0  0  0  0  0  0  0  0  0  0  0  0
   46.5380   29.0430   43.4510 N   0  0  0  0  0  0  0  0  0  0  0  0
   47.4110   28.6330   43.8380 H   0  0  0  0  0  0  0  0  0  0  0  0
   46.1160   30.2300   44.1380 C   0  0  0  0  0  2  0  0  0  0  0  0
   44.9650   30.8590   43.3970 C   0  0  0  0  0  2  0  0  0  0  0  0
  1 30  1  0  0  0  0
  2  1  1  0  0  0  0
  2 14  1  0  0  0  0
  3  2  2  0  0  0  0
  4  5  2  0  0  0  0
  4  3  1  0  0  0  0
  5  6  1  0  0  0  0
  6 10  1  0  0  0  0
  6  1  2  0  0  0  0
  7  3  1  0  0  0  0
  8  4  1  0  0  0  0
  9  5  1  0  0  0  0
 12 11  1  0  0  0  0
 13 23  1  0  0  0  0
 13 12  2  0  0  0  0
 14 13  1  0  0  0  0
 15 14  2  0  0  0  0
 15 16  1  0  0  0  0
 16 17  2  0  0  0  0
 17 12  1  0  0  0  0
 17 20  1  0  0  0  0
 18 15  1  0  0  0  0
 19 16  1  0  0  0  0
 21 26  1  0  0  0  0
 22 23  1  0  0  0  0
 22 21  2  0  0  0  0
 23 24  2  0  0  0  0
 24 25  1  0  0  0  0
 25 29  1  0  0  0  0
 26 25  2  0  0  0  0
 27 21  1  0  0  0  0
 28 22  1  0  0  0  0
 31 30  2  0  0  0  0
 32 30  2  0  0  0  0
 33 34  1  0  0  0  0
 34 41  1  0  0  0  0
 35 30  1  6  0  0  0
 35 34  1  0  0  0  0
 35 36  1  0  0  0  0
 36 38  1  0  0  0  0
 37 36  1  0  0  0  0
 38 39  1  0  0  0  0
 38 40  1  0  0  0  0
 41 40  1  0  0  0  0
M  END
>  <minimizedAffinity>
-4.68061543

>  <minimizedRMSD>
0.764175653

$$$$
