
 OpenBabel03252509073D

 41 44  0  0  1  0  0  0  0  0999 V2000
   47.6470   31.7640   39.1760 C   0  0  0  0  0  0  0  0  0  0  0  0
   47.1580   33.0280   39.0400 C   0  0  0  0  0  0  0  0  0  0  0  0
   47.7690   33.8820   38.1400 C   0  0  0  0  0  0  0  0  0  0  0  0
   48.8460   33.4610   37.3970 C   0  0  0  0  0  0  0  0  0  0  0  0
   49.3590   32.1730   37.5210 C   0  0  0  0  0  0  0  0  0  0  0  0
   48.7380   31.3240   38.4280 C   0  0  0  0  0  0  0  0  0  0  0  0
   47.4030   34.8980   38.0090 H   0  0  0  0  0  0  0  0  0  0  0  0
   49.2850   34.1670   36.7110 H   0  0  0  0  0  0  0  0  0  0  0  0
   50.1920   31.8450   36.9460 H   0  0  0  0  0  0  0  0  0  0  0  0
   49.1430   30.3290   38.5160 H   0  0  0  0  0  0  0  0  0  0  0  0
   45.3180   35.5550   43.1290 Cl  0  0  0  0  0  0  0  0  0  0  0  0
   45.1710   34.6970   41.6220 C   0  0  0  0  0  0  0  0  0  0  0  0
   46.2560   34.2320   40.9720 C   0  0  0  0  0  0  0  0  0  0  0  0
   46.0250   33.5610   39.7760 C   0  0  0  0  0  0  0  0  0  0  0  0
   44.7620   33.3730   39.2720 C   0  0  0  0  0  0  0  0  0  0  0  0
   43.6850   33.8500   39.9470 C   0  0  0  0  0  0  0  0  0  0  0  0
   43.8990   34.5160   41.1310 C   0  0  0  0  0  0  0  0  0  0  0  0
   44.5800   32.8480   38.3330 H   0  0  0  0  0  0  0  0  0  0  0  0
   42.6770   33.7210   39.5830 H   0  0  0  0  0  0  0  0  0  0  0  0
   43.0200   34.8930   41.6610 H   0  0  0  0  0  0  0  0  0  0  0  0
   49.5760   35.7780   41.8840 C   0  0  0  0  0  0  0  0  0  0  0  0
   48.3090   35.5900   41.3240 C   0  0  0  0  0  0  0  0  0  0  0  0
   47.5650   34.4410   41.5380 C   0  0  0  0  0  0  0  0  0  0  0  0
   48.1600   33.5120   42.3330 N   0  0  0  0  0  0  0  0  0  0  0  0
   49.3770   33.6930   42.8690 C   0  0  0  0  0  0  0  0  0  0  0  0
   50.0760   34.8140   42.6470 N   0  0  0  0  0  0  0  0  0  0  0  0
   50.0850   36.7100   41.6610 H   0  0  0  0  0  0  0  0  0  0  0  0
   47.8690   36.3550   40.6980 H   0  0  0  0  0  0  0  0  0  0  0  0
   49.8500   32.9500   43.5030 H   0  0  0  0  0  0  0  0  0  0  0  0
   46.9480   30.6550   40.2330 S   0  0  0  0  0  0  0  0  0  0  0  0
   45.5460   30.2570   39.8270 O   0  0  0  0  0  0  0  0  0  0  0  0
   47.7750   29.3530   40.0170 O   0  0  0  0  0  0  0  0  0  0  0  0
   44.8050   30.8290   41.9800 H   0  0  0  0  0  0  0  0  0  0  0  0
   45.5920   31.2510   42.4850 N   0  0  0  0  0  0  0  0  0  0  0  0
   46.8530   30.7200   41.9160 C   0  0  1  0  0  3  0  0  0  0  0  0
   46.5680   29.2280   42.3380 C   0  0  0  0  0  3  0  0  0  0  0  0
   45.5950   28.9110   41.9570 H   0  0  0  0  0  0  0  0  0  0  0  0
   46.7170   29.0720   43.7490 N   0  0  0  0  0  0  0  0  0  0  0  0
   47.5280   28.4770   44.0160 H   0  0  0  0  0  0  0  0  0  0  0  0
   46.6500   30.3010   44.4870 C   0  0  0  0  0  2  0  0  0  0  0  0
   45.5720   31.1790   43.9060 C   0  0  0  0  0  2  0  0  0  0  0  0
  1 30  1  0  0  0  0
  2  1  1  0  0  0  0
  2 14  1  0  0  0  0
  3  2  2  0  0  0  0
  4  5  2  0  0  0  0
  4  3  1  0  0  0  0
  5  6  1  0  0  0  0
  6 10  1  0  0  0  0
  6  1  2  0  0  0  0
  7  3  1  0  0  0  0
  8  4  1  0  0  0  0
  9  5  1  0  0  0  0
 12 11  1  0  0  0  0
 13 23  1  0  0  0  0
 13 12  2  0  0  0  0
 14 13  1  0  0  0  0
 15 14  2  0  0  0  0
 15 16  1  0  0  0  0
 16 17  2  0  0  0  0
 17 12  1  0  0  0  0
 17 20  1  0  0  0  0
 18 15  1  0  0  0  0
 19 16  1  0  0  0  0
 21 26  1  0  0  0  0
 22 23  1  0  0  0  0
 22 21  2  0  0  0  0
 23 24  2  0  0  0  0
 24 25  1  0  0  0  0
 25 29  1  0  0  0  0
 26 25  2  0  0  0  0
 27 21  1  0  0  0  0
 28 22  1  0  0  0  0
 31 30  2  0  0  0  0
 32 30  2  0  0  0  0
 33 34  1  0  0  0  0
 34 41  1  0  0  0  0
 35 30  1  6  0  0  0
 35 36  1  0  0  0  0
 35 34  1  0  0  0  0
 36 38  1  0  0  0  0
 37 36  1  0  0  0  0
 38 39  1  0  0  0  0
 38 40  1  0  0  0  0
 41 40  1  0  0  0  0
M  END
>  <minimizedAffinity>
-4.69154215

>  <minimizedRMSD>
1.39380944

$$$$
