
 OpenBabel03242520403D

 39 42  0  0  1  0  0  0  0  0999 V2000
   45.9260   33.4930   45.8410 C   0  0  0  0  0  0  0  0  0  0  0  0
   46.7040   33.6250   44.6670 C   0  0  0  0  0  0  0  0  0  0  0  0
   47.3190   32.4510   44.1650 C   0  0  0  0  0  0  0  0  0  0  0  0
   47.1440   31.2600   44.8240 N   0  0  0  0  0  0  0  0  0  0  0  0
   46.3830   31.2070   45.9490 C   0  0  0  0  0  0  0  0  0  0  0  0
   45.7890   32.3200   46.4370 N   0  0  0  0  0  0  0  0  0  0  0  0
   46.2670   29.9570   46.5630 N   0  0  0  0  0  0  0  0  0  0  0  0
   47.4150   29.2510   47.0240 C   0  0  2  0  0  0  0  0  0  0  0  0
   47.1750   27.8300   47.3960 C   0  0  0  0  0  0  0  0  0  0  0  0
   45.8830   27.5160   47.8820 N   0  0  0  0  0  0  0  0  0  0  0  0
   45.0140   28.6140   48.0310 C   0  0  0  0  0  0  0  0  0  0  0  0
   44.9520   29.3570   46.7290 C   0  0  0  0  0  0  0  0  0  0  0  0
   45.4800   34.4060   46.1920 H   0  0  0  0  0  0  0  0  0  0  0  0
   46.8660   34.5310   44.1380 H   0  0  0  0  0  0  0  0  0  0  0  0
   47.9230   32.4870   43.2810 H   0  0  0  0  0  0  0  0  0  0  0  0
   48.1040   29.1860   46.1220 H   0  0  0  0  0  0  0  0  0  0  0  0
   47.9190   27.5160   48.1630 H   0  0  0  0  0  0  0  0  0  0  0  0
   47.3620   27.1380   46.5320 H   0  0  0  0  0  0  0  0  0  0  0  0
   45.8290   26.7690   48.5990 H   0  0  0  0  0  0  0  0  0  0  0  0
   45.2470   29.2320   48.9010 H   0  0  0  0  0  0  0  0  0  0  0  0
   43.9870   28.1940   48.2530 H   0  0  0  0  0  0  0  0  0  0  0  0
   44.1970   30.1660   46.8770 H   0  0  0  0  0  0  0  0  0  0  0  0
   44.6890   28.6700   45.9300 H   0  0  0  0  0  0  0  0  0  0  0  0
   48.1540   30.0090   48.0580 C   0  0  0  0  0  0  0  0  0  0  0  0
   47.7450   30.9420   48.9870 C   0  0  0  0  0  0  0  0  0  0  0  0
   48.7740   31.3830   49.7420 N   0  0  0  0  0  0  0  0  0  0  0  0
   49.8410   30.7150   49.2800 C   0  0  0  0  0  0  0  0  0  0  0  0
   49.4770   29.8990   48.2800 N   0  0  0  0  0  0  0  0  0  0  0  0
   46.7330   31.2970   49.1110 H   0  0  0  0  0  0  0  0  0  0  0  0
   48.7900   32.0670   50.5050 H   0  0  0  0  0  0  0  0  0  0  0  0
   51.2140   30.7720   49.6810 N   0  0  0  0  0  0  0  0  0  0  0  0
   51.9070   29.6970   50.3380 C   0  0  0  0  0  0  0  0  0  0  0  0
   51.6140   29.6600   51.4100 H   0  0  0  0  0  0  0  0  0  0  0  0
   53.3870   29.9050   50.1720 C   0  0  0  0  0  0  0  0  0  0  0  0
   53.6600   29.6930   49.1150 H   0  0  0  0  0  0  0  0  0  0  0  0
   53.8770   31.1720   50.6070 N   0  0  0  0  0  0  0  0  0  0  0  0
   54.6250   31.5120   49.9640 H   0  0  0  0  0  0  0  0  0  0  0  0
   52.8400   32.1650   50.6680 C   0  0  0  0  0  0  0  0  0  0  0  0
   51.9950   31.9780   49.4130 C   0  0  0  0  0  0  0  0  0  0  0  0
  1 13  1  0  0  0  0
  1  6  1  0  0  0  0
  2  1  2  0  0  0  0
  3  2  1  0  0  0  0
  3  4  2  0  0  0  0
  4  5  1  0  0  0  0
  5  6  2  0  0  0  0
  5  7  1  0  0  0  0
  7 12  1  0  0  0  0
  7  8  1  0  0  0  0
  8 16  1  6  0  0  0
  8  9  1  0  0  0  0
  8 24  1  0  0  0  0
  9 10  1  0  0  0  0
  9 17  1  0  0  0  0
 10 11  1  0  0  0  0
 10 19  1  0  0  0  0
 11 21  1  0  0  0  0
 11 20  1  0  0  0  0
 12 22  1  0  0  0  0
 12 11  1  0  0  0  0
 14  2  1  0  0  0  0
 15  3  1  0  0  0  0
 18  9  1  0  0  0  0
 23 12  1  0  0  0  0
 24 28  1  0  0  0  0
 24 25  2  0  0  0  0
 25 29  1  0  0  0  0
 25 26  1  0  0  0  0
 26 30  1  0  0  0  0
 27 31  1  0  0  0  0
 27 26  1  0  0  0  0
 28 27  2  0  0  0  0
 31 32  1  0  0  0  0
 32 33  1  0  0  0  0
 34 32  1  0  0  0  0
 34 36  1  0  0  0  0
 35 34  1  0  0  0  0
 36 38  1  0  0  0  0
 37 36  1  0  0  0  0
 39 31  1  0  0  0  0
 39 38  1  0  0  0  0
M  END
>  <minimizedAffinity>
-5.23898125

>  <minimizedRMSD>
0.284975588

$$$$
