
 OpenBabel03252509133D

 32 35  0  0  1  0  0  0  0  0999 V2000
   37.6650   30.9660   37.1480 C   0  0  0  0  0  0  0  0  0  0  0  0
   37.4680   31.1130   38.5280 C   0  0  0  0  0  0  0  0  0  0  0  0
   36.5220   30.3880   39.2170 C   0  0  0  0  0  0  0  0  0  0  0  0
   35.7180   29.4690   38.5380 C   0  0  0  0  0  0  0  0  0  0  0  0
   34.7240   28.6110   38.8690 N   0  0  0  0  0  0  0  0  0  0  0  0
   34.3100   27.9580   37.7650 C   0  0  0  0  0  0  0  0  0  0  0  0
   35.0660   28.4250   36.7450 N   0  0  0  0  0  0  0  0  0  0  0  0
   35.9290   29.3440   37.1930 C   0  0  0  0  0  0  0  0  0  0  0  0
   36.8720   30.0540   36.4590 C   0  0  0  0  0  0  0  0  0  0  0  0
   38.4090   31.5390   36.6140 H   0  0  0  0  0  0  0  0  0  0  0  0
   34.3570   28.5010   39.8470 H   0  0  0  0  0  0  0  0  0  0  0  0
   33.5300   27.2140   37.7390 H   0  0  0  0  0  0  0  0  0  0  0  0
   36.9760   29.8960   35.3900 H   0  0  0  0  0  0  0  0  0  0  0  0
   38.5500   34.1600   40.2610 C   0  0  0  0  0  0  0  0  0  0  0  0
   39.8410   33.8560   40.6500 C   0  0  0  0  0  0  0  0  0  0  0  0
   40.3380   32.5950   40.3130 C   0  0  0  0  0  0  0  0  0  0  0  0
   39.5460   31.7130   39.6190 N   0  0  0  0  0  0  0  0  0  0  0  0
   38.2910   32.0580   39.2610 C   0  0  0  0  0  0  0  0  0  0  0  0
   37.7950   33.2700   39.5780 N   0  0  0  0  0  0  0  0  0  0  0  0
   38.0300   35.0900   40.4500 H   0  0  0  0  0  0  0  0  0  0  0  0
   40.3780   34.6090   41.1900 H   0  0  0  0  0  0  0  0  0  0  0  0
   41.3480   32.3480   40.6140 H   0  0  0  0  0  0  0  0  0  0  0  0
   36.2730   30.5690   40.9660 S   0  0  0  0  0  0  0  0  0  0  0  0
   37.4340   29.9480   44.0100 H   0  0  0  0  0  0  0  0  0  0  0  0
   37.0060   29.3150   43.2710 N   0  0  0  0  0  0  0  0  0  0  0  0
   37.4770   29.7020   41.9690 C   0  0  1  0  0  3  0  0  0  0  0  0
   37.7980   28.4020   41.2200 C   0  0  0  0  0  3  0  0  0  0  0  0
   37.7890   28.6580   40.1400 H   0  0  0  0  0  0  0  0  0  0  0  0
   36.7320   27.4640   41.4380 N   0  0  0  0  0  0  0  0  0  0  0  0
   36.7440   26.6740   40.7790 H   0  0  0  0  0  0  0  0  0  0  0  0
   36.8310   26.9230   42.7790 C   0  0  0  0  0  2  0  0  0  0  0  0
   37.5310   27.9820   43.6080 C   0  0  0  0  0  2  0  0  0  0  0  0
  1  2  1  0  0  0  0
  2  3  2  0  0  0  0
  2 18  1  0  0  0  0
  3 23  1  0  0  0  0
  4  5  1  0  0  0  0
  4  3  1  0  0  0  0
  5 11  1  0  0  0  0
  6  5  1  0  0  0  0
  7  8  1  0  0  0  0
  7  6  2  0  0  0  0
  8  4  2  0  0  0  0
  9  1  2  0  0  0  0
  9  8  1  0  0  0  0
 10  1  1  0  0  0  0
 12  6  1  0  0  0  0
 13  9  1  0  0  0  0
 14 20  1  0  0  0  0
 14 15  1  0  0  0  0
 15 21  1  0  0  0  0
 16 22  1  0  0  0  0
 16 15  2  0  0  0  0
 17 16  1  0  0  0  0
 18 19  1  0  0  0  0
 18 17  2  0  0  0  0
 19 14  2  0  0  0  0
 25 32  1  0  0  0  0
 25 24  1  0  0  0  0
 26 23  1  6  0  0  0
 26 25  1  0  0  0  0
 27 29  1  0  0  0  0
 27 26  1  0  0  0  0
 28 27  1  0  0  0  0
 29 31  1  0  0  0  0
 30 29  1  0  0  0  0
 31 32  1  0  0  0  0
M  END
>  <minimizedAffinity>
-5.79172516

$$$$

 OpenBabel03252509133D

 32 35  0  0  1  0  0  0  0  0999 V2000
   37.4100   33.0340   39.6610 C   0  0  0  0  0  0  0  0  0  0  0  0
   37.6970   31.6710   39.8200 C   0  0  0  0  0  0  0  0  0  0  0  0
   38.9300   31.2230   40.2390 C   0  0  0  0  0  0  0  0  0  0  0  0
   39.9460   32.1400   40.5200 C   0  0  0  0  0  0  0  0  0  0  0  0
   41.2320   32.0740   40.9380 N   0  0  0  0  0  0  0  0  0  0  0  0
   41.7360   33.3210   41.0370 C   0  0  0  0  0  0  0  0  0  0  0  0
   40.7390   34.1600   40.6740 N   0  0  0  0  0  0  0  0  0  0  0  0
   39.6420   33.4640   40.3560 C   0  0  0  0  0  0  0  0  0  0  0  0
   38.4120   33.9580   39.9370 C   0  0  0  0  0  0  0  0  0  0  0  0
   36.4400   33.3770   39.3310 H   0  0  0  0  0  0  0  0  0  0  0  0
   41.7280   31.1710   41.1410 H   0  0  0  0  0  0  0  0  0  0  0  0
   42.7390   33.5620   41.3490 H   0  0  0  0  0  0  0  0  0  0  0  0
   38.2510   35.0270   39.8320 H   0  0  0  0  0  0  0  0  0  0  0  0
   35.5270   29.3360   38.0040 C   0  0  0  0  0  0  0  0  0  0  0  0
   34.7000   28.8430   38.9960 C   0  0  0  0  0  0  0  0  0  0  0  0
   34.8930   29.3190   40.2950 C   0  0  0  0  0  0  0  0  0  0  0  0
   35.8790   30.2440   40.5430 N   0  0  0  0  0  0  0  0  0  0  0  0
   36.6600   30.6940   39.5390 C   0  0  0  0  0  0  0  0  0  0  0  0
   36.4890   30.2470   38.2810 N   0  0  0  0  0  0  0  0  0  0  0  0
   35.4990   29.0620   36.9580 H   0  0  0  0  0  0  0  0  0  0  0  0
   33.9620   28.1240   38.7040 H   0  0  0  0  0  0  0  0  0  0  0  0
   34.2500   28.9390   41.0790 H   0  0  0  0  0  0  0  0  0  0  0  0
   39.2950   29.4980   40.4460 S   0  0  0  0  0  0  0  0  0  0  0  0
   38.3380   30.1720   43.5480 H   0  0  0  0  0  0  0  0  0  0  0  0
   38.0020   29.4530   42.8430 N   0  0  0  0  0  0  0  0  0  0  0  0
   39.1260   28.9120   42.1290 C   0  0  1  0  0  3  0  0  0  0  0  0
   38.8890   27.3980   42.0310 C   0  0  0  0  0  3  0  0  0  0  0  0
   39.5180   27.0430   41.1880 H   0  0  0  0  0  0  0  0  0  0  0  0
   37.5210   27.1650   41.6620 N   0  0  0  0  0  0  0  0  0  0  0  0
   37.3460   26.2060   41.3320 H   0  0  0  0  0  0  0  0  0  0  0  0
   36.6640   27.4020   42.8060 C   0  0  0  0  0  2  0  0  0  0  0  0
   37.3980   28.4020   43.6790 C   0  0  0  0  0  2  0  0  0  0  0  0
  1  2  2  0  0  0  0
  1  9  1  0  0  0  0
  2  3  1  0  0  0  0
  3 23  1  0  0  0  0
  3  4  2  0  0  0  0
  4  5  1  0  0  0  0
  5  6  1  0  0  0  0
  5 11  1  0  0  0  0
  6 12  1  0  0  0  0
  7  6  2  0  0  0  0
  8  4  1  0  0  0  0
  8  7  1  0  0  0  0
  9  8  2  0  0  0  0
 10  1  1  0  0  0  0
 13  9  1  0  0  0  0
 14 19  2  0  0  0  0
 14 15  1  0  0  0  0
 15 16  2  0  0  0  0
 16 17  1  0  0  0  0
 16 22  1  0  0  0  0
 18  2  1  0  0  0  0
 18 17  2  0  0  0  0
 19 18  1  0  0  0  0
 20 14  1  0  0  0  0
 21 15  1  0  0  0  0
 25 24  1  0  0  0  0
 25 32  1  0  0  0  0
 26 23  1  6  0  0  0
 26 25  1  0  0  0  0
 27 26  1  0  0  0  0
 28 27  1  0  0  0  0
 29 27  1  0  0  0  0
 29 31  1  0  0  0  0
 30 29  1  0  0  0  0
 31 32  1  0  0  0  0
M  END
>  <minimizedAffinity>
-5.5488143

$$$$

 OpenBabel03252509133D

 32 35  0  0  1  0  0  0  0  0999 V2000
   36.6450   26.5090   39.5240 C   0  0  0  0  0  0  0  0  0  0  0  0
   36.1930   27.8330   39.4420 C   0  0  0  0  0  0  0  0  0  0  0  0
   36.3160   28.7190   40.4900 C   0  0  0  0  0  0  0  0  0  0  0  0
   36.9080   28.3050   41.6860 C   0  0  0  0  0  0  0  0  0  0  0  0
   37.1900   28.8730   42.8820 N   0  0  0  0  0  0  0  0  0  0  0  0
   37.7850   27.9640   43.6800 C   0  0  0  0  0  0  0  0  0  0  0  0
   37.8670   26.8230   42.9570 N   0  0  0  0  0  0  0  0  0  0  0  0
   37.3400   27.0090   41.7410 C   0  0  0  0  0  0  0  0  0  0  0  0
   37.2360   26.0830   40.7090 C   0  0  0  0  0  0  0  0  0  0  0  0
   36.5440   25.8200   38.6980 H   0  0  0  0  0  0  0  0  0  0  0  0
   36.9630   29.8710   43.1160 H   0  0  0  0  0  0  0  0  0  0  0  0
   38.1180   28.1460   44.6890 H   0  0  0  0  0  0  0  0  0  0  0  0
   37.6060   25.0700   40.8340 H   0  0  0  0  0  0  0  0  0  0  0  0
   33.6490   28.6650   36.9320 C   0  0  0  0  0  0  0  0  0  0  0  0
   34.3980   29.1630   35.8820 C   0  0  0  0  0  0  0  0  0  0  0  0
   35.7850   29.2100   36.0420 C   0  0  0  0  0  0  0  0  0  0  0  0
   36.3520   28.7700   37.2150 N   0  0  0  0  0  0  0  0  0  0  0  0
   35.5760   28.2930   38.2110 C   0  0  0  0  0  0  0  0  0  0  0  0
   34.2370   28.2400   38.0740 N   0  0  0  0  0  0  0  0  0  0  0  0
   32.5720   28.5690   36.9570 H   0  0  0  0  0  0  0  0  0  0  0  0
   33.8640   29.4820   35.0110 H   0  0  0  0  0  0  0  0  0  0  0  0
   36.3800   29.5980   35.2260 H   0  0  0  0  0  0  0  0  0  0  0  0
   35.7480   30.3980   40.3870 S   0  0  0  0  0  0  0  0  0  0  0  0
   36.3220   33.4610   39.2550 H   0  0  0  0  0  0  0  0  0  0  0  0
   36.8330   32.8610   39.9670 N   0  0  0  0  0  0  0  0  0  0  0  0
   36.8630   31.4950   39.5180 C   0  0  1  0  0  3  0  0  0  0  0  0
   38.2790   30.9770   39.8030 C   0  0  0  0  0  3  0  0  0  0  0  0
   38.2030   29.8690   39.8210 H   0  0  0  0  0  0  0  0  0  0  0  0
   38.6700   31.3930   41.1210 N   0  0  0  0  0  0  0  0  0  0  0  0
   39.4880   30.8830   41.4830 H   0  0  0  0  0  0  0  0  0  0  0  0
   39.0010   32.8040   41.1040 C   0  0  0  0  0  2  0  0  0  0  0  0
   38.2000   33.4090   39.9680 C   0  0  0  0  0  2  0  0  0  0  0  0
  1  9  1  0  0  0  0
  2  1  2  0  0  0  0
  2  3  1  0  0  0  0
  3  4  2  0  0  0  0
  4  8  1  0  0  0  0
  4  5  1  0  0  0  0
  5 11  1  0  0  0  0
  5  6  1  0  0  0  0
  6 12  1  0  0  0  0
  7  6  2  0  0  0  0
  8  7  1  0  0  0  0
  9 13  1  0  0  0  0
  9  8  2  0  0  0  0
 10  1  1  0  0  0  0
 14 20  1  0  0  0  0
 14 19  1  0  0  0  0
 15 16  1  0  0  0  0
 15 14  2  0  0  0  0
 16 17  2  0  0  0  0
 17 18  1  0  0  0  0
 18  2  1  0  0  0  0
 19 18  2  0  0  0  0
 21 15  1  0  0  0  0
 22 16  1  0  0  0  0
 23  3  1  0  0  0  0
 24 25  1  0  0  0  0
 25 32  1  0  0  0  0
 26 27  1  0  0  0  0
 26 25  1  0  0  0  0
 26 23  1  1  0  0  0
 27 28  1  0  0  0  0
 27 29  1  0  0  0  0
 29 30  1  0  0  0  0
 31 29  1  0  0  0  0
 32 31  1  0  0  0  0
M  END
>  <minimizedAffinity>
-5.46602631

$$$$

 OpenBabel03252509133D

 32 35  0  0  1  0  0  0  0  0999 V2000
   39.4680   30.3870   42.0910 C   0  0  0  0  0  0  0  0  0  0  0  0
   38.2440   29.8920   41.6190 C   0  0  0  0  0  0  0  0  0  0  0  0
   37.3690   30.6670   40.8920 C   0  0  0  0  0  0  0  0  0  0  0  0
   37.6900   31.9950   40.6030 C   0  0  0  0  0  0  0  0  0  0  0  0
   37.1020   33.0190   39.9400 N   0  0  0  0  0  0  0  0  0  0  0  0
   37.9020   34.1020   39.9870 C   0  0  0  0  0  0  0  0  0  0  0  0
   38.9970   33.7320   40.6910 N   0  0  0  0  0  0  0  0  0  0  0  0
   38.8890   32.4540   41.0740 C   0  0  0  0  0  0  0  0  0  0  0  0
   39.8010   31.7070   41.8100 C   0  0  0  0  0  0  0  0  0  0  0  0
   40.1500   29.7720   42.6610 H   0  0  0  0  0  0  0  0  0  0  0  0
   36.1630   32.9430   39.4740 H   0  0  0  0  0  0  0  0  0  0  0  0
   37.6810   35.0580   39.5400 H   0  0  0  0  0  0  0  0  0  0  0  0
   40.7340   32.1480   42.1480 H   0  0  0  0  0  0  0  0  0  0  0  0
   36.7260   26.9560   43.2120 C   0  0  0  0  0  0  0  0  0  0  0  0
   37.1970   25.9060   42.4440 C   0  0  0  0  0  0  0  0  0  0  0  0
   38.0400   26.2150   41.3750 C   0  0  0  0  0  0  0  0  0  0  0  0
   38.3700   27.5250   41.1220 N   0  0  0  0  0  0  0  0  0  0  0  0
   37.8850   28.5140   41.9020 C   0  0  0  0  0  0  0  0  0  0  0  0
   37.0700   28.2350   42.9370 N   0  0  0  0  0  0  0  0  0  0  0  0
   36.0670   26.8740   44.0660 H   0  0  0  0  0  0  0  0  0  0  0  0
   36.8810   24.9210   42.7200 H   0  0  0  0  0  0  0  0  0  0  0  0
   38.4130   25.4000   40.7680 H   0  0  0  0  0  0  0  0  0  0  0  0
   35.8200   30.0420   40.2900 S   0  0  0  0  0  0  0  0  0  0  0  0
   36.2990   31.4160   37.3110 H   0  0  0  0  0  0  0  0  0  0  0  0
   36.7500   30.5810   37.7870 N   0  0  0  0  0  0  0  0  0  0  0  0
   35.7540   29.8400   38.5130 C   0  0  1  0  0  3  0  0  0  0  0  0
   36.0350   28.3560   38.2420 C   0  0  0  0  0  3  0  0  0  0  0  0
   35.5440   27.7950   39.0640 H   0  0  0  0  0  0  0  0  0  0  0  0
   37.4480   28.1220   38.3580 N   0  0  0  0  0  0  0  0  0  0  0  0
   37.6900   27.1250   38.4410 H   0  0  0  0  0  0  0  0  0  0  0  0
   38.1220   28.6440   37.1870 C   0  0  0  0  0  2  0  0  0  0  0  0
   37.2480   29.7670   36.6650 C   0  0  0  0  0  2  0  0  0  0  0  0
  1 10  1  0  0  0  0
  2 18  1  0  0  0  0
  2  1  2  0  0  0  0
  3  2  1  0  0  0  0
  4  3  2  0  0  0  0
  4  8  1  0  0  0  0
  5  6  1  0  0  0  0
  5  4  1  0  0  0  0
  6  7  2  0  0  0  0
  7  8  1  0  0  0  0
  8  9  2  0  0  0  0
  9  1  1  0  0  0  0
  9 13  1  0  0  0  0
 11  5  1  0  0  0  0
 12  6  1  0  0  0  0
 14 20  1  0  0  0  0
 15 21  1  0  0  0  0
 15 14  2  0  0  0  0
 16 15  1  0  0  0  0
 17 16  2  0  0  0  0
 17 18  1  0  0  0  0
 18 19  2  0  0  0  0
 19 14  1  0  0  0  0
 22 16  1  0  0  0  0
 23  3  1  0  0  0  0
 24 25  1  0  0  0  0
 25 26  1  0  0  0  0
 26 23  1  1  0  0  0
 27 29  1  0  0  0  0
 27 26  1  0  0  0  0
 27 28  1  0  0  0  0
 29 30  1  0  0  0  0
 31 29  1  0  0  0  0
 32 31  1  0  0  0  0
 32 25  1  0  0  0  0
M  END
>  <minimizedAffinity>
-5.40484619

$$$$

 OpenBabel03252509133D

 32 35  0  0  1  0  0  0  0  0999 V2000
   35.8970   28.0570   37.5410 C   0  0  0  0  0  0  0  0  0  0  0  0
   36.5590   29.2350   37.9110 C   0  0  0  0  0  0  0  0  0  0  0  0
   36.9420   30.1850   36.9900 C   0  0  0  0  0  0  0  0  0  0  0  0
   36.6720   29.9880   35.6340 C   0  0  0  0  0  0  0  0  0  0  0  0
   36.8880   30.6730   34.4870 N   0  0  0  0  0  0  0  0  0  0  0  0
   36.3940   29.9730   33.4460 C   0  0  0  0  0  0  0  0  0  0  0  0
   35.8680   28.8420   33.9690 N   0  0  0  0  0  0  0  0  0  0  0  0
   36.0250   28.8310   35.2980 C   0  0  0  0  0  0  0  0  0  0  0  0
   35.6210   27.8480   36.1940 C   0  0  0  0  0  0  0  0  0  0  0  0
   35.5990   27.3170   38.2700 H   0  0  0  0  0  0  0  0  0  0  0  0
   37.3720   31.6050   34.4510 H   0  0  0  0  0  0  0  0  0  0  0  0
   36.4290   30.2850   32.4150 H   0  0  0  0  0  0  0  0  0  0  0  0
   35.1110   26.9550   35.8450 H   0  0  0  0  0  0  0  0  0  0  0  0
   36.2960   30.4840   41.3510 C   0  0  0  0  0  0  0  0  0  0  0  0
   37.3940   29.9180   41.9730 C   0  0  0  0  0  0  0  0  0  0  0  0
   38.2260   29.1030   41.2020 C   0  0  0  0  0  0  0  0  0  0  0  0
   37.9350   28.8930   39.8750 N   0  0  0  0  0  0  0  0  0  0  0  0
   36.8500   29.4690   39.3140 C   0  0  0  0  0  0  0  0  0  0  0  0
   36.0370   30.2570   40.0430 N   0  0  0  0  0  0  0  0  0  0  0  0
   35.5650   31.1310   41.8160 H   0  0  0  0  0  0  0  0  0  0  0  0
   37.5350   30.1400   43.0110 H   0  0  0  0  0  0  0  0  0  0  0  0
   39.0870   28.6560   41.6800 H   0  0  0  0  0  0  0  0  0  0  0  0
   37.7780   31.6800   37.4570 S   0  0  0  0  0  0  0  0  0  0  0  0
   40.7870   31.7980   36.0680 H   0  0  0  0  0  0  0  0  0  0  0  0
   40.3470   32.3570   36.8570 N   0  0  0  0  0  0  0  0  0  0  0  0
   39.5440   31.4920   37.6770 C   0  0  1  0  0  3  0  0  0  0  0  0
   39.8360   31.8820   39.1330 C   0  0  0  0  0  3  0  0  0  0  0  0
   38.9770   31.5090   39.7290 H   0  0  0  0  0  0  0  0  0  0  0  0
   39.8320   33.3140   39.2400 N   0  0  0  0  0  0  0  0  0  0  0  0
   39.7680   33.6500   40.2110 H   0  0  0  0  0  0  0  0  0  0  0  0
   41.0540   33.8450   38.6680 C   0  0  0  0  0  2  0  0  0  0  0  0
   41.5050   32.8350   37.6310 C   0  0  0  0  0  2  0  0  0  0  0  0
  1  2  1  0  0  0  0
  1 10  1  0  0  0  0
  2 18  1  0  0  0  0
  3 23  1  0  0  0  0
  3  2  2  0  0  0  0
  4  3  1  0  0  0  0
  5  4  1  0  0  0  0
  6  7  2  0  0  0  0
  6  5  1  0  0  0  0
  7  8  1  0  0  0  0
  8  4  2  0  0  0  0
  8  9  1  0  0  0  0
  9  1  2  0  0  0  0
 11  5  1  0  0  0  0
 12  6  1  0  0  0  0
 13  9  1  0  0  0  0
 14 20  1  0  0  0  0
 14 15  1  0  0  0  0
 15 21  1  0  0  0  0
 16 22  1  0  0  0  0
 16 15  2  0  0  0  0
 17 16  1  0  0  0  0
 18 17  2  0  0  0  0
 18 19  1  0  0  0  0
 19 14  2  0  0  0  0
 24 25  1  0  0  0  0
 25 32  1  0  0  0  0
 25 26  1  0  0  0  0
 26 23  1  6  0  0  0
 26 27  1  0  0  0  0
 27 29  1  0  0  0  0
 27 28  1  0  0  0  0
 29 30  1  0  0  0  0
 31 29  1  0  0  0  0
 32 31  1  0  0  0  0
M  END
>  <minimizedAffinity>
-5.31171179

$$$$

 OpenBabel03252509133D

 32 35  0  0  1  0  0  0  0  0999 V2000
   38.0990   26.8960   38.8530 C   0  0  0  0  0  0  0  0  0  0  0  0
   37.5650   28.0330   39.4730 C   0  0  0  0  0  0  0  0  0  0  0  0
   36.9750   29.0520   38.7590 C   0  0  0  0  0  0  0  0  0  0  0  0
   36.8960   28.9720   37.3660 C   0  0  0  0  0  0  0  0  0  0  0  0
   36.4080   29.7470   36.3710 N   0  0  0  0  0  0  0  0  0  0  0  0
   36.6190   29.1410   35.1860 C   0  0  0  0  0  0  0  0  0  0  0  0
   37.2470   27.9760   35.4650 N   0  0  0  0  0  0  0  0  0  0  0  0
   37.4250   27.8520   36.7850 C   0  0  0  0  0  0  0  0  0  0  0  0
   38.0270   26.8020   37.4670 C   0  0  0  0  0  0  0  0  0  0  0  0
   38.5600   26.1000   39.4210 H   0  0  0  0  0  0  0  0  0  0  0  0
   35.9430   30.6750   36.5350 H   0  0  0  0  0  0  0  0  0  0  0  0
   36.3290   29.5360   34.2250 H   0  0  0  0  0  0  0  0  0  0  0  0
   38.4230   25.9460   36.9290 H   0  0  0  0  0  0  0  0  0  0  0  0
   36.7230   27.6640   43.0250 C   0  0  0  0  0  0  0  0  0  0  0  0
   37.7430   28.3470   43.6600 C   0  0  0  0  0  0  0  0  0  0  0  0
   38.7240   28.9360   42.8590 C   0  0  0  0  0  0  0  0  0  0  0  0
   38.6470   28.8220   41.4920 N   0  0  0  0  0  0  0  0  0  0  0  0
   37.6290   28.1440   40.9200 C   0  0  0  0  0  0  0  0  0  0  0  0
   36.6750   27.5690   41.6770 N   0  0  0  0  0  0  0  0  0  0  0  0
   35.8990   27.1570   43.5090 H   0  0  0  0  0  0  0  0  0  0  0  0
   37.7170   28.3790   44.7310 H   0  0  0  0  0  0  0  0  0  0  0  0
   39.5270   29.4730   43.3470 H   0  0  0  0  0  0  0  0  0  0  0  0
   36.2940   30.4920   39.5420 S   0  0  0  0  0  0  0  0  0  0  0  0
   36.2550   33.8060   39.6590 H   0  0  0  0  0  0  0  0  0  0  0  0
   36.9430   33.0910   40.0390 N   0  0  0  0  0  0  0  0  0  0  0  0
   37.1060   32.0230   39.0910 C   0  0  1  0  0  3  0  0  0  0  0  0
   38.6080   31.7110   39.0460 C   0  0  0  0  0  3  0  0  0  0  0  0
   38.6960   30.6830   38.6350 H   0  0  0  0  0  0  0  0  0  0  0  0
   39.1160   31.6720   40.3890 N   0  0  0  0  0  0  0  0  0  0  0  0
   40.0410   31.2270   40.4620 H   0  0  0  0  0  0  0  0  0  0  0  0
   39.2330   33.0230   40.9000 C   0  0  0  0  0  2  0  0  0  0  0  0
   38.2020   33.8460   40.1530 C   0  0  0  0  0  2  0  0  0  0  0  0
  1 10  1  0  0  0  0
  1  2  1  0  0  0  0
  2 18  1  0  0  0  0
  3  2  2  0  0  0  0
  3 23  1  0  0  0  0
  4  3  1  0  0  0  0
  5 11  1  0  0  0  0
  5  4  1  0  0  0  0
  6  7  2  0  0  0  0
  6  5  1  0  0  0  0
  7  8  1  0  0  0  0
  8  4  2  0  0  0  0
  8  9  1  0  0  0  0
  9  1  2  0  0  0  0
 12  6  1  0  0  0  0
 13  9  1  0  0  0  0
 14 20  1  0  0  0  0
 14 15  1  0  0  0  0
 15 21  1  0  0  0  0
 16 22  1  0  0  0  0
 16 15  2  0  0  0  0
 17 16  1  0  0  0  0
 18 17  2  0  0  0  0
 18 19  1  0  0  0  0
 19 14  2  0  0  0  0
 24 25  1  0  0  0  0
 25 32  1  0  0  0  0
 26 23  1  1  0  0  0
 26 25  1  0  0  0  0
 27 26  1  0  0  0  0
 27 29  1  0  0  0  0
 28 27  1  0  0  0  0
 29 30  1  0  0  0  0
 29 31  1  0  0  0  0
 32 31  1  0  0  0  0
M  END
>  <minimizedAffinity>
-5.13089752

$$$$

 OpenBabel03252509133D

 32 35  0  0  1  0  0  0  0  0999 V2000
   36.9350   30.3750   36.6460 C   0  0  0  0  0  0  0  0  0  0  0  0
   36.7130   30.2520   38.0250 C   0  0  0  0  0  0  0  0  0  0  0  0
   35.8010   29.3620   38.5460 C   0  0  0  0  0  0  0  0  0  0  0  0
   35.0580   28.5440   37.6910 C   0  0  0  0  0  0  0  0  0  0  0  0
   34.1100   27.5890   37.8340 N   0  0  0  0  0  0  0  0  0  0  0  0
   33.7470   27.1310   36.6190 C   0  0  0  0  0  0  0  0  0  0  0  0
   34.4880   27.8190   35.7210 N   0  0  0  0  0  0  0  0  0  0  0  0
   35.2930   28.6830   36.3510 C   0  0  0  0  0  0  0  0  0  0  0  0
   36.2030   29.5670   35.7830 C   0  0  0  0  0  0  0  0  0  0  0  0
   37.6530   31.0760   36.2450 H   0  0  0  0  0  0  0  0  0  0  0  0
   33.7370   27.2790   38.7660 H   0  0  0  0  0  0  0  0  0  0  0  0
   33.0100   26.3660   36.4380 H   0  0  0  0  0  0  0  0  0  0  0  0
   36.3300   29.6160   34.7060 H   0  0  0  0  0  0  0  0  0  0  0  0
   37.7110   33.0990   40.1120 C   0  0  0  0  0  0  0  0  0  0  0  0
   38.9030   32.6740   40.6710 C   0  0  0  0  0  0  0  0  0  0  0  0
   39.3620   31.4010   40.3240 C   0  0  0  0  0  0  0  0  0  0  0  0
   38.6300   30.6250   39.4570 N   0  0  0  0  0  0  0  0  0  0  0  0
   37.4720   31.0860   38.9390 C   0  0  0  0  0  0  0  0  0  0  0  0
   37.0140   32.3110   39.2620 N   0  0  0  0  0  0  0  0  0  0  0  0
   37.2310   34.0530   40.2860 H   0  0  0  0  0  0  0  0  0  0  0  0
   39.3980   33.3510   41.3370 H   0  0  0  0  0  0  0  0  0  0  0  0
   40.2930   31.0600   40.7560 H   0  0  0  0  0  0  0  0  0  0  0  0
   35.5210   29.2010   40.2920 S   0  0  0  0  0  0  0  0  0  0  0  0
   38.2340   27.3010   40.1270 H   0  0  0  0  0  0  0  0  0  0  0  0
   37.9430   28.0650   40.8050 N   0  0  0  0  0  0  0  0  0  0  0  0
   36.5370   27.9580   41.0840 C   0  0  1  0  0  3  0  0  0  0  0  0
   36.3770   28.1760   42.5950 C   0  0  0  0  0  3  0  0  0  0  0  0
   35.3180   28.4700   42.7520 H   0  0  0  0  0  0  0  0  0  0  0  0
   37.1870   29.2940   42.9910 N   0  0  0  0  0  0  0  0  0  0  0  0
   36.9470   29.6610   43.9220 H   0  0  0  0  0  0  0  0  0  0  0  0
   38.5800   28.8960   43.0180 C   0  0  0  0  0  2  0  0  0  0  0  0
   38.7120   27.7600   42.0240 C   0  0  0  0  0  2  0  0  0  0  0  0
  1  2  1  0  0  0  0
  2  3  2  0  0  0  0
  2 18  1  0  0  0  0
  3 23  1  0  0  0  0
  4  5  1  0  0  0  0
  4  3  1  0  0  0  0
  5 11  1  0  0  0  0
  6  5  1  0  0  0  0
  7  8  1  0  0  0  0
  7  6  2  0  0  0  0
  8  4  2  0  0  0  0
  9  8  1  0  0  0  0
  9  1  2  0  0  0  0
 10  1  1  0  0  0  0
 12  6  1  0  0  0  0
 13  9  1  0  0  0  0
 14 20  1  0  0  0  0
 14 15  1  0  0  0  0
 15 21  1  0  0  0  0
 16 15  2  0  0  0  0
 16 22  1  0  0  0  0
 17 16  1  0  0  0  0
 18 19  1  0  0  0  0
 18 17  2  0  0  0  0
 19 14  2  0  0  0  0
 24 25  1  0  0  0  0
 25 26  1  0  0  0  0
 25 32  1  0  0  0  0
 26 23  1  6  0  0  0
 26 27  1  0  0  0  0
 27 28  1  0  0  0  0
 27 29  1  0  0  0  0
 29 31  1  0  0  0  0
 29 30  1  0  0  0  0
 32 31  1  0  0  0  0
M  END
>  <minimizedAffinity>
-5.0949707

$$$$

 OpenBabel03252509133D

 32 35  0  0  1  0  0  0  0  0999 V2000
   36.9780   30.1180   36.9850 C   0  0  0  0  0  0  0  0  0  0  0  0
   36.3740   29.4250   38.0430 C   0  0  0  0  0  0  0  0  0  0  0  0
   36.2990   29.9450   39.3150 C   0  0  0  0  0  0  0  0  0  0  0  0
   36.8380   31.2060   39.5850 C   0  0  0  0  0  0  0  0  0  0  0  0
   36.9460   32.0090   40.6690 N   0  0  0  0  0  0  0  0  0  0  0  0
   37.5830   33.1450   40.3230 C   0  0  0  0  0  0  0  0  0  0  0  0
   37.8660   33.0330   39.0050 N   0  0  0  0  0  0  0  0  0  0  0  0
   37.4210   31.8620   38.5360 C   0  0  0  0  0  0  0  0  0  0  0  0
   37.5170   31.3740   37.2380 C   0  0  0  0  0  0  0  0  0  0  0  0
   37.0320   29.7020   35.9880 H   0  0  0  0  0  0  0  0  0  0  0  0
   36.5800   31.7510   41.6190 H   0  0  0  0  0  0  0  0  0  0  0  0
   37.8030   33.9620   40.9920 H   0  0  0  0  0  0  0  0  0  0  0  0
   37.9980   31.9590   36.4600 H   0  0  0  0  0  0  0  0  0  0  0  0
   33.9950   26.7960   37.0970 C   0  0  0  0  0  0  0  0  0  0  0  0
   34.7120   25.6340   37.3150 C   0  0  0  0  0  0  0  0  0  0  0  0
   36.0200   25.7590   37.7890 C   0  0  0  0  0  0  0  0  0  0  0  0
   36.5440   27.0090   38.0200 N   0  0  0  0  0  0  0  0  0  0  0  0
   35.8030   28.1130   37.7920 C   0  0  0  0  0  0  0  0  0  0  0  0
   34.5400   28.0110   37.3350 N   0  0  0  0  0  0  0  0  0  0  0  0
   32.9790   26.8580   36.7320 H   0  0  0  0  0  0  0  0  0  0  0  0
   34.2170   24.7080   37.1030 H   0  0  0  0  0  0  0  0  0  0  0  0
   36.5890   24.8550   37.9620 H   0  0  0  0  0  0  0  0  0  0  0  0
   35.5320   29.0710   40.6570 S   0  0  0  0  0  0  0  0  0  0  0  0
   37.9580   26.8200   40.4510 H   0  0  0  0  0  0  0  0  0  0  0  0
   37.9160   27.7770   40.9100 N   0  0  0  0  0  0  0  0  0  0  0  0
   36.6320   27.9610   41.5300 C   0  0  1  0  0  3  0  0  0  0  0  0
   36.9000   28.6130   42.8940 C   0  0  0  0  0  3  0  0  0  0  0  0
   35.9460   29.0930   43.1980 H   0  0  0  0  0  0  0  0  0  0  0  0
   37.8650   29.6640   42.7250 N   0  0  0  0  0  0  0  0  0  0  0  0
   37.9110   30.3070   43.5280 H   0  0  0  0  0  0  0  0  0  0  0  0
   39.1820   29.0870   42.5450 C   0  0  0  0  0  2  0  0  0  0  0  0
   38.9590   27.7120   41.9470 C   0  0  0  0  0  2  0  0  0  0  0  0
  1  9  2  0  0  0  0
  1  2  1  0  0  0  0
  2  3  2  0  0  0  0
  3  4  1  0  0  0  0
  3 23  1  0  0  0  0
  4  5  1  0  0  0  0
  5 11  1  0  0  0  0
  6  5  1  0  0  0  0
  6 12  1  0  0  0  0
  7  6  2  0  0  0  0
  8  7  1  0  0  0  0
  8  4  2  0  0  0  0
  9  8  1  0  0  0  0
 10  1  1  0  0  0  0
 13  9  1  0  0  0  0
 14 15  2  0  0  0  0
 14 19  1  0  0  0  0
 15 16  1  0  0  0  0
 16 22  1  0  0  0  0
 16 17  2  0  0  0  0
 18 17  1  0  0  0  0
 18  2  1  0  0  0  0
 19 18  2  0  0  0  0
 20 14  1  0  0  0  0
 21 15  1  0  0  0  0
 24 25  1  0  0  0  0
 25 26  1  0  0  0  0
 25 32  1  0  0  0  0
 26 23  1  6  0  0  0
 26 27  1  0  0  0  0
 27 28  1  0  0  0  0
 29 27  1  0  0  0  0
 29 30  1  0  0  0  0
 31 29  1  0  0  0  0
 32 31  1  0  0  0  0
M  END
>  <minimizedAffinity>
-5.07200432

$$$$

 OpenBabel03252509133D

 32 35  0  0  1  0  0  0  0  0999 V2000
   38.3960   30.8730   37.3610 C   0  0  0  0  0  0  0  0  0  0  0  0
   37.5970   30.4400   38.4280 C   0  0  0  0  0  0  0  0  0  0  0  0
   37.6890   30.9910   39.6870 C   0  0  0  0  0  0  0  0  0  0  0  0
   38.6040   32.0180   39.9320 C   0  0  0  0  0  0  0  0  0  0  0  0
   38.9610   32.7720   40.9980 N   0  0  0  0  0  0  0  0  0  0  0  0
   39.9310   33.6340   40.6320 C   0  0  0  0  0  0  0  0  0  0  0  0
   40.1680   33.4010   39.3210 N   0  0  0  0  0  0  0  0  0  0  0  0
   39.3710   32.4230   38.8750 C   0  0  0  0  0  0  0  0  0  0  0  0
   39.3100   31.8960   37.5900 C   0  0  0  0  0  0  0  0  0  0  0  0
   38.3170   30.4360   36.3760 H   0  0  0  0  0  0  0  0  0  0  0  0
   38.5280   32.6710   41.9490 H   0  0  0  0  0  0  0  0  0  0  0  0
   40.4000   34.3540   41.2840 H   0  0  0  0  0  0  0  0  0  0  0  0
   39.9560   32.2740   36.8040 H   0  0  0  0  0  0  0  0  0  0  0  0
   34.4870   28.6960   37.5640 C   0  0  0  0  0  0  0  0  0  0  0  0
   34.8060   27.3670   37.7720 C   0  0  0  0  0  0  0  0  0  0  0  0
   36.0990   27.0740   38.2130 C   0  0  0  0  0  0  0  0  0  0  0  0
   36.9970   28.0930   38.4210 N   0  0  0  0  0  0  0  0  0  0  0  0
   36.6350   29.3760   38.2030 C   0  0  0  0  0  0  0  0  0  0  0  0
   35.3940   29.6770   37.7780 N   0  0  0  0  0  0  0  0  0  0  0  0
   33.5330   29.0760   37.2230 H   0  0  0  0  0  0  0  0  0  0  0  0
   34.0390   26.6450   37.5800 H   0  0  0  0  0  0  0  0  0  0  0  0
   36.3580   26.0360   38.3780 H   0  0  0  0  0  0  0  0  0  0  0  0
   36.6770   30.4460   41.0400 S   0  0  0  0  0  0  0  0  0  0  0  0
   36.6850   29.4440   44.2010 H   0  0  0  0  0  0  0  0  0  0  0  0
   36.7830   28.9110   43.2870 N   0  0  0  0  0  0  0  0  0  0  0  0
   37.5900   29.6660   42.3680 C   0  0  1  0  0  3  0  0  0  0  0  0
   38.5390   28.6620   41.7000 C   0  0  0  0  0  3  0  0  0  0  0  0
   38.8780   29.1400   40.7570 H   0  0  0  0  0  0  0  0  0  0  0  0
   37.7940   27.4900   41.3330 N   0  0  0  0  0  0  0  0  0  0  0  0
   38.2900   26.8850   40.6650 H   0  0  0  0  0  0  0  0  0  0  0  0
   37.5150   26.7050   42.5180 C   0  0  0  0  0  2  0  0  0  0  0  0
   37.4980   27.6830   43.6760 C   0  0  0  0  0  2  0  0  0  0  0  0
  1  9  2  0  0  0  0
  1  2  1  0  0  0  0
  2  3  2  0  0  0  0
  3  4  1  0  0  0  0
  3 23  1  0  0  0  0
  4  5  1  0  0  0  0
  5 11  1  0  0  0  0
  6  5  1  0  0  0  0
  6 12  1  0  0  0  0
  7  6  2  0  0  0  0
  8  7  1  0  0  0  0
  8  4  2  0  0  0  0
  9  8  1  0  0  0  0
 10  1  1  0  0  0  0
 13  9  1  0  0  0  0
 14 15  2  0  0  0  0
 14 19  1  0  0  0  0
 15 16  1  0  0  0  0
 16 22  1  0  0  0  0
 16 17  2  0  0  0  0
 18 17  1  0  0  0  0
 18  2  1  0  0  0  0
 19 18  2  0  0  0  0
 20 14  1  0  0  0  0
 21 15  1  0  0  0  0
 25 32  1  0  0  0  0
 25 24  1  0  0  0  0
 26 23  1  6  0  0  0
 26 25  1  0  0  0  0
 27 26  1  0  0  0  0
 28 27  1  0  0  0  0
 29 27  1  0  0  0  0
 29 31  1  0  0  0  0
 30 29  1  0  0  0  0
 31 32  1  0  0  0  0
M  END
>  <minimizedAffinity>
-5.04754257

$$$$
