
 OpenBabel03252509133D

 45 49  0  0  1  0  0  0  0  0999 V2000
   44.9200   35.5980   42.7780 S   0  0  0  0  0  0  0  0  0  0  0  0
   47.4960   32.7080   44.0640 C   0  0  0  0  0  0  0  0  0  0  0  0
   46.8260   33.6460   43.2840 C   0  0  0  0  0  0  0  0  0  0  0  0
   45.7650   34.4060   43.7780 C   0  0  0  0  0  0  0  0  0  0  0  0
   45.3560   34.2240   45.1010 C   0  0  0  0  0  0  0  0  0  0  0  0
   44.4050   34.7590   45.8940 N   0  0  0  0  0  0  0  0  0  0  0  0
   44.4590   34.1970   47.1170 C   0  0  0  0  0  0  0  0  0  0  0  0
   45.4630   33.3050   47.0590 N   0  0  0  0  0  0  0  0  0  0  0  0
   46.0290   33.2980   45.8470 C   0  0  0  0  0  0  0  0  0  0  0  0
   47.0850   32.5260   45.3890 C   0  0  0  0  0  0  0  0  0  0  0  0
   48.3170   32.1240   43.6700 H   0  0  0  0  0  0  0  0  0  0  0  0
   43.7700   35.4870   45.5400 H   0  0  0  0  0  0  0  0  0  0  0  0
   43.7830   34.4860   47.8940 H   0  0  0  0  0  0  0  0  0  0  0  0
   47.5700   31.8070   46.0480 H   0  0  0  0  0  0  0  0  0  0  0  0
   47.1470   33.2040   39.6650 C   0  0  0  0  0  0  0  0  0  0  0  0
   48.0180   34.2400   39.3050 C   0  0  0  0  0  0  0  0  0  0  0  0
   48.4890   35.0830   40.3200 C   0  0  0  0  0  0  0  0  0  0  0  0
   48.0820   34.8670   41.6120 N   0  0  0  0  0  0  0  0  0  0  0  0
   47.2370   33.8500   41.9070 C   0  0  0  0  0  0  0  0  0  0  0  0
   46.7480   32.9970   40.9580 N   0  0  0  0  0  0  0  0  0  0  0  0
   46.7540   32.5250   38.9370 H   0  0  0  0  0  0  0  0  0  0  0  0
   48.3110   34.3720   38.2750 H   0  0  0  0  0  0  0  0  0  0  0  0
   49.1550   35.8790   40.0620 H   0  0  0  0  0  0  0  0  0  0  0  0
   43.1600   33.7400   42.1650 N   0  0  0  0  0  0  0  0  0  0  0  0
   43.8380   34.8610   41.5230 C   0  0  1  0  0  0  0  0  0  0  0  0
   42.8570   35.9560   41.1240 C   0  0  0  0  0  0  0  0  0  0  0  0
   41.7010   35.4670   40.5470 O   0  0  0  0  0  0  0  0  0  0  0  0
   41.6960   34.1340   40.2490 C   0  0  0  0  0  0  0  0  0  0  0  0
   41.9610   33.3510   41.5100 C   0  0  1  0  0  0  0  0  0  0  0  0
   43.0280   33.9930   43.1730 H   0  0  0  0  0  0  0  0  0  0  0  0
   44.4530   34.5510   40.6660 H   0  0  0  0  0  0  0  0  0  0  0  0
   43.3140   36.5560   40.3420 H   0  0  0  0  0  0  0  0  0  0  0  0
   42.5840   36.5510   42.0190 H   0  0  0  0  0  0  0  0  0  0  0  0
   40.7180   33.8710   39.8520 H   0  0  0  0  0  0  0  0  0  0  0  0
   42.5310   33.9300   39.5360 H   0  0  0  0  0  0  0  0  0  0  0  0
   41.1170   33.6430   42.2040 H   0  0  0  0  0  0  0  0  0  0  0  0
   41.7970   31.9180   41.3400 N   0  0  1  0  0  0  0  0  0  0  0  0
   42.1820   31.6610   39.9450 C   0  0  0  0  0  3  0  0  0  0  0  0
   41.8570   32.4750   39.2760 H   0  0  0  0  0  0  0  0  0  0  0  0
   43.6580   31.4090   39.8160 C   0  0  0  0  0  3  0  0  0  0  0  0
   44.2990   32.1920   40.2420 H   0  0  0  0  0  0  0  0  0  0  0  0
   43.9160   30.1160   40.4230 N   0  0  0  0  0  0  0  0  0  0  0  0
   44.9470   29.9900   40.4740 H   0  0  0  0  0  0  0  0  0  0  0  0
   43.2320   29.9410   41.6800 C   0  0  0  0  0  2  0  0  0  0  0  0
   42.7540   31.2790   42.2060 C   0  0  0  0  0  2  0  0  0  0  0  0
  1  4  1  0  0  0  0
  2 10  1  0  0  0  0
  3  4  1  0  0  0  0
  3  2  2  0  0  0  0
  4  5  2  0  0  0  0
  5  9  1  0  0  0  0
  5  6  1  0  0  0  0
  6  7  1  0  0  0  0
  7 13  1  0  0  0  0
  8  7  2  0  0  0  0
  9  8  1  0  0  0  0
 10  9  2  0  0  0  0
 10 14  1  0  0  0  0
 11  2  1  0  0  0  0
 12  6  1  0  0  0  0
 15 20  1  0  0  0  0
 16 15  2  0  0  0  0
 16 17  1  0  0  0  0
 17 18  2  0  0  0  0
 18 19  1  0  0  0  0
 19  3  1  0  0  0  0
 20 19  2  0  0  0  0
 21 15  1  0  0  0  0
 22 16  1  0  0  0  0
 23 17  1  0  0  0  0
 24 30  1  0  0  0  0
 25 31  1  6  0  0  0
 25 24  1  0  0  0  0
 25  1  1  0  0  0  0
 26 25  1  0  0  0  0
 26 33  1  0  0  0  0
 27 26  1  0  0  0  0
 28 27  1  0  0  0  0
 28 29  1  0  0  0  0
 29 24  1  0  0  0  0
 29 36  1  1  0  0  0
 32 26  1  0  0  0  0
 34 28  1  0  0  0  0
 35 28  1  0  0  0  0
 37 29  1  0  0  0  0
 37 45  1  1  0  0  0
 38 37  1  0  0  0  0
 39 38  1  0  0  0  0
 40 38  1  0  0  0  0
 40 41  1  0  0  0  0
 40 42  1  0  0  0  0
 42 43  1  0  0  0  0
 42 44  1  0  0  0  0
 44 45  1  0  0  0  0
M  END
>  <minimizedAffinity>
-5.47992134

>  <minimizedRMSD>
2.43950963

$$$$
