
 OpenBabel03242512073D

 27 29  0  0  1  0  0  0  0  0999 V2000
   37.4020   28.8400   42.3900 C   0  0  1  0  0  0  0  0  0  0  0  0
   38.7380   29.3000   43.0700 C   0  0  0  0  0  0  0  0  0  0  0  0
   38.5650   29.1480   41.6070 C   0  0  2  0  0  0  0  0  0  0  0  0
   36.5980   29.5840   42.6830 H   0  0  0  0  0  0  0  0  0  0  0  0
   39.3010   28.5260   43.6230 H   0  0  0  0  0  0  0  0  0  0  0  0
   38.6610   30.2420   43.5900 H   0  0  0  0  0  0  0  0  0  0  0  0
   39.1010   28.2560   41.1640 H   0  0  0  0  0  0  0  0  0  0  0  0
   38.5530   30.2500   40.7050 N   0  0  2  0  0  0  0  0  0  0  0  0
   38.9870   31.4670   41.2950 C   0  0  0  0  0  3  0  0  0  0  0  0
   40.1070   31.5160   41.2710 H   0  0  0  0  0  0  0  0  0  0  0  0
   38.4850   32.7310   40.6690 C   0  0  0  0  0  3  0  0  0  0  0  0
   38.6770   33.5530   41.3920 H   0  0  0  0  0  0  0  0  0  0  0  0
   37.0750   32.7290   40.3980 N   0  0  0  0  0  0  0  0  0  0  0  0
   36.5300   33.3870   40.9580 H   0  0  0  0  0  0  0  0  0  0  0  0
   36.4970   31.4100   40.3660 C   0  0  0  0  0  2  0  0  0  0  0  0
   37.4500   30.3730   39.8290 C   0  0  0  0  0  2  0  0  0  0  0  0
   37.0490   27.4340   42.7330 C   0  0  0  0  0  0  0  0  0  0  0  0
   36.2380   27.2580   43.6430 O   0  0  0  0  0  0  0  0  0  0  0  0
   38.6090   25.5540   42.5800 C   0  0  0  0  0  0  0  0  0  0  0  0
   37.5880   26.2920   42.0580 C   0  0  0  0  0  0  0  0  0  0  0  0
   37.0520   25.8890   40.8200 C   0  0  0  0  0  0  0  0  0  0  0  0
   37.5490   24.8070   40.1910 N   0  0  0  0  0  0  0  0  0  0  0  0
   38.5790   24.0850   40.7460 C   0  0  0  0  0  0  0  0  0  0  0  0
   39.0800   24.4690   41.9100 N   0  0  0  0  0  0  0  0  0  0  0  0
   38.9970   25.8920   43.5290 H   0  0  0  0  0  0  0  0  0  0  0  0
   36.2430   26.4150   40.3350 H   0  0  0  0  0  0  0  0  0  0  0  0
   39.0340   23.2160   40.3190 H   0  0  0  0  0  0  0  0  0  0  0  0
  1  4  1  6  0  0  0
  1 17  1  0  0  0  0
  1  2  1  0  0  0  0
  2  6  1  0  0  0  0
  2  5  1  0  0  0  0
  3  7  1  6  0  0  0
  3  1  1  0  0  0  0
  3  2  1  0  0  0  0
  8 16  1  1  0  0  0
  8  9  1  0  0  0  0
  8  3  1  0  0  0  0
 10  9  1  0  0  0  0
 11  9  1  0  0  0  0
 11 12  1  0  0  0  0
 13 11  1  0  0  0  0
 13 14  1  0  0  0  0
 15 13  1  0  0  0  0
 16 15  1  0  0  0  0
 17 18  2  0  0  0  0
 19 25  1  0  0  0  0
 20 19  1  0  0  0  0
 20 17  1  0  0  0  0
 21 20  2  0  0  0  0
 22 23  2  0  0  0  0
 22 21  1  0  0  0  0
 23 24  1  0  0  0  0
 24 19  2  0  0  0  0
 26 21  1  0  0  0  0
 27 23  1  0  0  0  0
M  END
>  <minimizedAffinity>
-4.69164419

$$$$

 OpenBabel03242512073D

 27 29  0  0  1  0  0  0  0  0999 V2000
   37.3740   29.1220   41.1590 C   0  0  1  0  0  0  0  0  0  0  0  0
   35.8260   28.9520   40.9730 C   0  0  0  0  0  0  0  0  0  0  0  0
   36.5050   30.2620   41.0910 C   0  0  2  0  0  0  0  0  0  0  0  0
   37.8790   28.6320   40.2690 H   0  0  0  0  0  0  0  0  0  0  0  0
   35.2650   28.5620   41.8430 H   0  0  0  0  0  0  0  0  0  0  0  0
   35.5460   28.5010   40.0340 H   0  0  0  0  0  0  0  0  0  0  0  0
   36.3260   30.7950   42.0730 H   0  0  0  0  0  0  0  0  0  0  0  0
   36.6130   31.1840   40.0100 N   0  0  2  0  0  0  0  0  0  0  0  0
   36.8810   30.5610   38.7630 C   0  0  0  0  0  3  0  0  0  0  0  0
   35.9190   30.2070   38.3070 H   0  0  0  0  0  0  0  0  0  0  0  0
   37.5660   31.4010   37.7290 C   0  0  0  0  0  3  0  0  0  0  0  0
   37.9450   30.7100   36.9450 H   0  0  0  0  0  0  0  0  0  0  0  0
   38.6950   32.1340   38.2270 N   0  0  0  0  0  0  0  0  0  0  0  0
   39.5990   31.8350   37.8520 H   0  0  0  0  0  0  0  0  0  0  0  0
   38.7040   32.2750   39.6600 C   0  0  0  0  0  2  0  0  0  0  0  0
   37.3170   32.3880   40.2390 C   0  0  0  0  0  2  0  0  0  0  0  0
   37.8480   28.5850   42.4650 C   0  0  0  0  0  0  0  0  0  0  0  0
   37.7460   29.3170   43.4510 O   0  0  0  0  0  0  0  0  0  0  0  0
   37.9390   26.1970   41.9330 C   0  0  0  0  0  0  0  0  0  0  0  0
   38.3990   27.2740   42.6320 C   0  0  0  0  0  0  0  0  0  0  0  0
   39.4630   27.0680   43.5310 C   0  0  0  0  0  0  0  0  0  0  0  0
   39.9920   25.8380   43.6790 N   0  0  0  0  0  0  0  0  0  0  0  0
   39.5040   24.7740   42.9580 C   0  0  0  0  0  0  0  0  0  0  0  0
   38.5030   24.9730   42.1130 N   0  0  0  0  0  0  0  0  0  0  0  0
   37.1230   26.3910   41.2540 H   0  0  0  0  0  0  0  0  0  0  0  0
   39.8880   27.8640   44.1250 H   0  0  0  0  0  0  0  0  0  0  0  0
   39.8610   23.7670   43.0100 H   0  0  0  0  0  0  0  0  0  0  0  0
  1  4  1  6  0  0  0
  1 17  1  0  0  0  0
  2  3  1  0  0  0  0
  2  1  1  0  0  0  0
  2  5  1  0  0  0  0
  3  1  1  0  0  0  0
  3  7  1  1  0  0  0
  6  2  1  0  0  0  0
  8 16  1  1  0  0  0
  8  3  1  0  0  0  0
  9  8  1  0  0  0  0
 10  9  1  0  0  0  0
 11 13  1  0  0  0  0
 11  9  1  0  0  0  0
 12 11  1  0  0  0  0
 13 15  1  0  0  0  0
 14 13  1  0  0  0  0
 15 16  1  0  0  0  0
 17 20  1  0  0  0  0
 17 18  2  0  0  0  0
 19 24  2  0  0  0  0
 19 20  1  0  0  0  0
 20 21  2  0  0  0  0
 21 22  1  0  0  0  0
 21 26  1  0  0  0  0
 23 27  1  0  0  0  0
 23 22  2  0  0  0  0
 24 23  1  0  0  0  0
 25 19  1  0  0  0  0
M  END
>  <minimizedAffinity>
-4.58960295

$$$$

 OpenBabel03242512073D

 27 29  0  0  1  0  0  0  0  0999 V2000
   37.6530   30.8720   39.7600 C   0  0  1  0  0  0  0  0  0  0  0  0
   37.3610   32.4010   39.9530 C   0  0  0  0  0  0  0  0  0  0  0  0
   38.5940   31.7300   40.4230 C   0  0  2  0  0  0  0  0  0  0  0  0
   37.6350   30.6610   38.6460 H   0  0  0  0  0  0  0  0  0  0  0  0
   36.5820   32.6640   40.6930 H   0  0  0  0  0  0  0  0  0  0  0  0
   37.2910   32.9520   39.0290 H   0  0  0  0  0  0  0  0  0  0  0  0
   38.6580   31.6030   41.5460 H   0  0  0  0  0  0  0  0  0  0  0  0
   39.8770   31.9670   39.8510 N   0  0  2  0  0  0  0  0  0  0  0  0
   40.1830   33.3460   39.7050 C   0  0  0  0  0  3  0  0  0  0  0  0
   40.5890   33.7430   40.6720 H   0  0  0  0  0  0  0  0  0  0  0  0
   41.1740   33.7020   38.6410 C   0  0  0  0  0  3  0  0  0  0  0  0
   41.0910   34.7980   38.4710 H   0  0  0  0  0  0  0  0  0  0  0  0
   40.9320   33.0610   37.3790 N   0  0  0  0  0  0  0  0  0  0  0  0
   40.6550   33.6910   36.6240 H   0  0  0  0  0  0  0  0  0  0  0  0
   40.0840   31.9000   37.4760 C   0  0  0  0  0  2  0  0  0  0  0  0
   40.2770   31.1500   38.7690 C   0  0  0  0  0  2  0  0  0  0  0  0
   36.7090   30.0150   40.5300 C   0  0  0  0  0  0  0  0  0  0  0  0
   35.5030   30.1950   40.3520 O   0  0  0  0  0  0  0  0  0  0  0  0
   37.5090   29.2810   42.7250 C   0  0  0  0  0  0  0  0  0  0  0  0
   37.1270   28.9970   41.4470 C   0  0  0  0  0  0  0  0  0  0  0  0
   37.1370   27.6490   41.0430 C   0  0  0  0  0  0  0  0  0  0  0  0
   37.5170   26.6880   41.9070 N   0  0  0  0  0  0  0  0  0  0  0  0
   37.8960   27.0100   43.1890 C   0  0  0  0  0  0  0  0  0  0  0  0
   37.8850   28.2800   43.5650 N   0  0  0  0  0  0  0  0  0  0  0  0
   37.4910   30.3250   43.0010 H   0  0  0  0  0  0  0  0  0  0  0  0
   36.8500   27.3350   40.0500 H   0  0  0  0  0  0  0  0  0  0  0  0
   38.2110   26.3160   43.9410 H   0  0  0  0  0  0  0  0  0  0  0  0
  1  4  1  6  0  0  0
  1  2  1  0  0  0  0
  1  3  1  0  0  0  0
  1 17  1  0  0  0  0
  2  3  1  0  0  0  0
  2  5  1  0  0  0  0
  3  7  1  1  0  0  0
  6  2  1  0  0  0  0
  8 16  1  6  0  0  0
  8  3  1  0  0  0  0
  9  8  1  0  0  0  0
  9 10  1  0  0  0  0
 11  9  1  0  0  0  0
 12 11  1  0  0  0  0
 13 15  1  0  0  0  0
 13 11  1  0  0  0  0
 14 13  1  0  0  0  0
 15 16  1  0  0  0  0
 17 20  1  0  0  0  0
 18 17  2  0  0  0  0
 19 25  1  0  0  0  0
 19 24  1  0  0  0  0
 20 19  2  0  0  0  0
 21 20  1  0  0  0  0
 21 22  2  0  0  0  0
 22 23  1  0  0  0  0
 23 24  2  0  0  0  0
 23 27  1  0  0  0  0
 26 21  1  0  0  0  0
M  END
>  <minimizedAffinity>
-4.48874283

$$$$

 OpenBabel03242512073D

 27 29  0  0  1  0  0  0  0  0999 V2000
   38.1390   28.9250   41.4470 C   0  0  1  0  0  0  0  0  0  0  0  0
   38.1050   28.5520   42.9700 C   0  0  0  0  0  0  0  0  0  0  0  0
   37.5770   27.6830   41.8950 C   0  0  2  0  0  0  0  0  0  0  0  0
   39.2250   29.0840   41.1610 H   0  0  0  0  0  0  0  0  0  0  0  0
   37.3920   29.1150   43.6000 H   0  0  0  0  0  0  0  0  0  0  0  0
   39.0820   28.4350   43.4130 H   0  0  0  0  0  0  0  0  0  0  0  0
   36.4470   27.6200   41.8570 H   0  0  0  0  0  0  0  0  0  0  0  0
   38.1800   26.4470   41.5240 N   0  0  2  0  0  0  0  0  0  0  0  0
   37.3320   25.3250   41.7200 C   0  0  0  0  0  3  0  0  0  0  0  0
   36.6540   25.2090   40.8340 H   0  0  0  0  0  0  0  0  0  0  0  0
   38.0060   24.0030   41.9230 C   0  0  0  0  0  3  0  0  0  0  0  0
   37.2420   23.3050   42.3300 H   0  0  0  0  0  0  0  0  0  0  0  0
   39.0880   24.0390   42.8660 N   0  0  0  0  0  0  0  0  0  0  0  0
   38.9230   23.5170   43.7290 H   0  0  0  0  0  0  0  0  0  0  0  0
   39.6000   25.3650   43.1050 C   0  0  0  0  0  2  0  0  0  0  0  0
   39.5320   26.2410   41.8810 C   0  0  0  0  0  2  0  0  0  0  0  0
   37.2770   30.0990   41.1340 C   0  0  0  0  0  0  0  0  0  0  0  0
   36.0560   29.9380   41.1900 O   0  0  0  0  0  0  0  0  0  0  0  0
   37.0660   32.2880   40.0590 C   0  0  0  0  0  0  0  0  0  0  0  0
   37.7880   31.3910   40.7880 C   0  0  0  0  0  0  0  0  0  0  0  0
   39.0720   31.7760   41.2180 C   0  0  0  0  0  0  0  0  0  0  0  0
   39.5500   32.9960   40.9060 N   0  0  0  0  0  0  0  0  0  0  0  0
   38.7940   33.8770   40.1690 C   0  0  0  0  0  0  0  0  0  0  0  0
   37.5870   33.5090   39.7660 N   0  0  0  0  0  0  0  0  0  0  0  0
   36.0860   31.9590   39.7450 H   0  0  0  0  0  0  0  0  0  0  0  0
   39.7120   31.1290   41.8000 H   0  0  0  0  0  0  0  0  0  0  0  0
   39.0910   34.8620   39.8750 H   0  0  0  0  0  0  0  0  0  0  0  0
  1  4  1  6  0  0  0
  1  3  1  0  0  0  0
  1  2  1  0  0  0  0
  2  6  1  0  0  0  0
  2  5  1  0  0  0  0
  3  7  1  6  0  0  0
  3  2  1  0  0  0  0
  8  9  1  0  0  0  0
  8 16  1  1  0  0  0
  8  3  1  0  0  0  0
  9 11  1  0  0  0  0
 10  9  1  0  0  0  0
 11 12  1  0  0  0  0
 11 13  1  0  0  0  0
 13 15  1  0  0  0  0
 13 14  1  0  0  0  0
 16 15  1  0  0  0  0
 17 18  2  0  0  0  0
 17  1  1  0  0  0  0
 19 20  1  0  0  0  0
 20 17  1  0  0  0  0
 20 21  2  0  0  0  0
 21 26  1  0  0  0  0
 22 21  1  0  0  0  0
 23 22  2  0  0  0  0
 24 19  2  0  0  0  0
 24 23  1  0  0  0  0
 25 19  1  0  0  0  0
 27 23  1  0  0  0  0
M  END
>  <minimizedAffinity>
-4.48228645

$$$$

 OpenBabel03242512073D

 27 29  0  0  1  0  0  0  0  0999 V2000
   36.6330   28.9670   40.1720 C   0  0  1  0  0  0  0  0  0  0  0  0
   35.1250   29.3910   40.2470 C   0  0  0  0  0  0  0  0  0  0  0  0
   36.2570   30.3270   40.4340 C   0  0  2  0  0  0  0  0  0  0  0  0
   36.8110   28.5260   39.1420 H   0  0  0  0  0  0  0  0  0  0  0  0
   34.5610   29.0520   41.1350 H   0  0  0  0  0  0  0  0  0  0  0  0
   34.5920   29.2710   39.3170 H   0  0  0  0  0  0  0  0  0  0  0  0
   36.4040   30.6740   41.5010 H   0  0  0  0  0  0  0  0  0  0  0  0
   36.5820   31.3540   39.5030 N   0  0  2  0  0  0  0  0  0  0  0  0
   36.9680   30.8590   38.2290 C   0  0  0  0  0  3  0  0  0  0  0  0
   36.0530   30.6510   37.6150 H   0  0  0  0  0  0  0  0  0  0  0  0
   37.8500   31.7460   37.4050 C   0  0  0  0  0  3  0  0  0  0  0  0
   38.2780   31.1180   36.5940 H   0  0  0  0  0  0  0  0  0  0  0  0
   38.9550   32.3070   38.1310 N   0  0  0  0  0  0  0  0  0  0  0  0
   39.8750   31.9710   37.8380 H   0  0  0  0  0  0  0  0  0  0  0  0
   38.7790   32.2790   39.5600 C   0  0  0  0  0  2  0  0  0  0  0  0
   37.3390   32.4520   39.9700 C   0  0  0  0  0  2  0  0  0  0  0  0
   37.0140   28.0420   41.2760 C   0  0  0  0  0  0  0  0  0  0  0  0
   37.3680   28.5450   42.3430 O   0  0  0  0  0  0  0  0  0  0  0  0
   36.7210   25.9840   39.9820 C   0  0  0  0  0  0  0  0  0  0  0  0
   36.9780   26.6140   41.1630 C   0  0  0  0  0  0  0  0  0  0  0  0
   37.2300   25.8140   42.2940 C   0  0  0  0  0  0  0  0  0  0  0  0
   37.2110   24.4710   42.1870 N   0  0  0  0  0  0  0  0  0  0  0  0
   36.9480   23.8680   40.9790 C   0  0  0  0  0  0  0  0  0  0  0  0
   36.7120   24.6260   39.9190 N   0  0  0  0  0  0  0  0  0  0  0  0
   36.5310   26.6280   39.1360 H   0  0  0  0  0  0  0  0  0  0  0  0
   37.4430   26.2290   43.2680 H   0  0  0  0  0  0  0  0  0  0  0  0
   36.9130   22.8130   40.8020 H   0  0  0  0  0  0  0  0  0  0  0  0
  1  4  1  6  0  0  0
  1  2  1  0  0  0  0
  1  3  1  0  0  0  0
  1 17  1  0  0  0  0
  2  3  1  0  0  0  0
  2  5  1  0  0  0  0
  3  7  1  1  0  0  0
  6  2  1  0  0  0  0
  8 16  1  1  0  0  0
  8  3  1  0  0  0  0
  9  8  1  0  0  0  0
 10  9  1  0  0  0  0
 11 13  1  0  0  0  0
 11  9  1  0  0  0  0
 12 11  1  0  0  0  0
 13 15  1  0  0  0  0
 14 13  1  0  0  0  0
 15 16  1  0  0  0  0
 17 18  2  0  0  0  0
 19 20  1  0  0  0  0
 20 17  1  0  0  0  0
 20 21  2  0  0  0  0
 21 26  1  0  0  0  0
 22 21  1  0  0  0  0
 23 22  2  0  0  0  0
 24 19  2  0  0  0  0
 24 23  1  0  0  0  0
 25 19  1  0  0  0  0
 27 23  1  0  0  0  0
M  END
>  <minimizedAffinity>
-4.44260454

$$$$

 OpenBabel03242512073D

 27 29  0  0  1  0  0  0  0  0999 V2000
   38.4500   27.5330   42.4020 C   0  0  1  0  0  0  0  0  0  0  0  0
   39.7350   28.4300   42.3340 C   0  0  0  0  0  0  0  0  0  0  0  0
   38.8540   28.1600   41.1750 C   0  0  2  0  0  0  0  0  0  0  0  0
   37.7550   27.9940   43.1710 H   0  0  0  0  0  0  0  0  0  0  0  0
   40.7060   27.9050   42.4000 H   0  0  0  0  0  0  0  0  0  0  0  0
   39.6770   29.3210   42.9390 H   0  0  0  0  0  0  0  0  0  0  0  0
   39.3000   27.4660   40.4010 H   0  0  0  0  0  0  0  0  0  0  0  0
   38.0320   29.1550   40.5720 N   0  0  2  0  0  0  0  0  0  0  0  0
   37.7010   30.2200   41.4500 C   0  0  0  0  0  3  0  0  0  0  0  0
   38.5320   30.9720   41.4560 H   0  0  0  0  0  0  0  0  0  0  0  0
   36.4400   30.9700   41.1470 C   0  0  0  0  0  3  0  0  0  0  0  0
   36.1850   31.5610   42.0530 H   0  0  0  0  0  0  0  0  0  0  0  0
   35.3140   30.1270   40.8620 N   0  0  0  0  0  0  0  0  0  0  0  0
   34.5670   30.1610   41.5590 H   0  0  0  0  0  0  0  0  0  0  0  0
   35.6780   28.7820   40.4980 C   0  0  0  0  0  2  0  0  0  0  0  0
   36.9770   28.7200   39.7370 C   0  0  0  0  0  2  0  0  0  0  0  0
   38.7710   26.1070   42.6870 C   0  0  0  0  0  0  0  0  0  0  0  0
   39.4750   25.8670   43.6690 O   0  0  0  0  0  0  0  0  0  0  0  0
   39.1190   24.0020   41.4850 C   0  0  0  0  0  0  0  0  0  0  0  0
   38.2990   25.0130   41.8920 C   0  0  0  0  0  0  0  0  0  0  0  0
   36.9430   24.9480   41.5200 C   0  0  0  0  0  0  0  0  0  0  0  0
   36.4940   23.9130   40.7850 N   0  0  0  0  0  0  0  0  0  0  0  0
   37.3490   22.9100   40.3910 C   0  0  0  0  0  0  0  0  0  0  0  0
   38.6240   22.9760   40.7440 N   0  0  0  0  0  0  0  0  0  0  0  0
   40.1530   24.0840   41.7870 H   0  0  0  0  0  0  0  0  0  0  0  0
   36.2240   25.7050   41.7980 H   0  0  0  0  0  0  0  0  0  0  0  0
   37.0810   22.0530   39.8090 H   0  0  0  0  0  0  0  0  0  0  0  0
  1 17  1  0  0  0  0
  1  4  1  1  0  0  0
  2  5  1  0  0  0  0
  2  1  1  0  0  0  0
  2  6  1  0  0  0  0
  3  7  1  6  0  0  0
  3  2  1  0  0  0  0
  3  1  1  0  0  0  0
  8 16  1  1  0  0  0
  8  3  1  0  0  0  0
  8  9  1  0  0  0  0
  9 10  1  0  0  0  0
 11  9  1  0  0  0  0
 11 12  1  0  0  0  0
 13 11  1  0  0  0  0
 13 14  1  0  0  0  0
 15 13  1  0  0  0  0
 16 15  1  0  0  0  0
 17 18  2  0  0  0  0
 19 25  1  0  0  0  0
 19 20  1  0  0  0  0
 20 17  1  0  0  0  0
 21 26  1  0  0  0  0
 21 20  2  0  0  0  0
 22 21  1  0  0  0  0
 23 24  1  0  0  0  0
 23 22  2  0  0  0  0
 24 19  2  0  0  0  0
 27 23  1  0  0  0  0
M  END
>  <minimizedAffinity>
-4.36683083

$$$$

 OpenBabel03242512073D

 27 29  0  0  1  0  0  0  0  0999 V2000
   36.8900   28.4740   41.9510 C   0  0  1  0  0  0  0  0  0  0  0  0
   36.6080   27.6020   40.6780 C   0  0  0  0  0  0  0  0  0  0  0  0
   37.7630   27.3960   41.5800 C   0  0  2  0  0  0  0  0  0  0  0  0
   35.9900   28.3780   42.6340 H   0  0  0  0  0  0  0  0  0  0  0  0
   36.7750   28.0900   39.7000 H   0  0  0  0  0  0  0  0  0  0  0  0
   35.6930   27.0340   40.7320 H   0  0  0  0  0  0  0  0  0  0  0  0
   38.7590   27.7080   41.1420 H   0  0  0  0  0  0  0  0  0  0  0  0
   37.8990   26.2580   42.4250 N   0  0  2  0  0  0  0  0  0  0  0  0
   39.2500   25.9070   42.6870 C   0  0  0  0  0  3  0  0  0  0  0  0
   39.6400   26.5290   43.5350 H   0  0  0  0  0  0  0  0  0  0  0  0
   39.5140   24.4770   43.0430 C   0  0  0  0  0  3  0  0  0  0  0  0
   40.6080   24.3110   42.9410 H   0  0  0  0  0  0  0  0  0  0  0  0
   38.8620   23.5320   42.1810 N   0  0  0  0  0  0  0  0  0  0  0  0
   39.4930   22.9760   41.6000 H   0  0  0  0  0  0  0  0  0  0  0  0
   37.7650   24.0930   41.4350 C   0  0  0  0  0  2  0  0  0  0  0  0
   37.0320   25.1640   42.2010 C   0  0  0  0  0  2  0  0  0  0  0  0
   37.2140   29.8870   41.6080 C   0  0  0  0  0  0  0  0  0  0  0  0
   36.2710   30.6530   41.4070 O   0  0  0  0  0  0  0  0  0  0  0  0
   39.0970   30.7850   40.3260 C   0  0  0  0  0  0  0  0  0  0  0  0
   38.5490   30.3950   41.5130 C   0  0  0  0  0  0  0  0  0  0  0  0
   39.3380   30.5210   42.6720 C   0  0  0  0  0  0  0  0  0  0  0  0
   40.5890   31.0120   42.5870 N   0  0  0  0  0  0  0  0  0  0  0  0
   41.1100   31.3970   41.3740 C   0  0  0  0  0  0  0  0  0  0  0  0
   40.3640   31.2760   40.2860 N   0  0  0  0  0  0  0  0  0  0  0  0
   38.4650   30.6740   39.4570 H   0  0  0  0  0  0  0  0  0  0  0  0
   38.9840   30.2360   43.6520 H   0  0  0  0  0  0  0  0  0  0  0  0
   42.0890   31.7960   41.2130 H   0  0  0  0  0  0  0  0  0  0  0  0
  1  4  1  1  0  0  0
  2  6  1  0  0  0  0
  2  3  1  0  0  0  0
  2  1  1  0  0  0  0
  3  7  1  6  0  0  0
  3  1  1  0  0  0  0
  3  8  1  0  0  0  0
  5  2  1  0  0  0  0
  8 16  1  6  0  0  0
  8  9  1  0  0  0  0
  9 11  1  0  0  0  0
  9 10  1  0  0  0  0
 12 11  1  0  0  0  0
 13 11  1  0  0  0  0
 14 13  1  0  0  0  0
 15 13  1  0  0  0  0
 15 16  1  0  0  0  0
 17  1  1  0  0  0  0
 18 17  2  0  0  0  0
 19 20  1  0  0  0  0
 20 17  1  0  0  0  0
 20 21  2  0  0  0  0
 21 26  1  0  0  0  0
 22 21  1  0  0  0  0
 23 22  2  0  0  0  0
 24 19  2  0  0  0  0
 24 23  1  0  0  0  0
 25 19  1  0  0  0  0
 27 23  1  0  0  0  0
M  END
>  <minimizedAffinity>
-4.3395896

$$$$

 OpenBabel03242512073D

 27 29  0  0  1  0  0  0  0  0999 V2000
   36.0540   27.8370   40.4680 C   0  0  1  0  0  0  0  0  0  0  0  0
   36.5820   26.9280   39.3040 C   0  0  0  0  0  0  0  0  0  0  0  0
   37.4510   27.5330   40.3380 C   0  0  2  0  0  0  0  0  0  0  0  0
   35.3070   27.2260   41.0630 H   0  0  0  0  0  0  0  0  0  0  0  0
   36.5720   27.3700   38.2900 H   0  0  0  0  0  0  0  0  0  0  0  0
   36.2170   25.9140   39.3430 H   0  0  0  0  0  0  0  0  0  0  0  0
   38.0990   28.3830   39.9650 H   0  0  0  0  0  0  0  0  0  0  0  0
   38.1170   26.7710   41.3410 N   0  0  2  0  0  0  0  0  0  0  0  0
   39.0910   25.8800   40.8170 C   0  0  0  0  0  3  0  0  0  0  0  0
   40.0550   26.4310   40.6580 H   0  0  0  0  0  0  0  0  0  0  0  0
   39.4130   24.6770   41.6490 C   0  0  0  0  0  3  0  0  0  0  0  0
   39.9590   23.9630   40.9940 H   0  0  0  0  0  0  0  0  0  0  0  0
   38.2570   23.9880   42.1510 N   0  0  0  0  0  0  0  0  0  0  0  0
   38.1130   23.0540   41.7620 H   0  0  0  0  0  0  0  0  0  0  0  0
   37.0600   24.7890   42.1400 C   0  0  0  0  0  2  0  0  0  0  0  0
   37.3370   26.2480   42.3970 C   0  0  0  0  0  2  0  0  0  0  0  0
   35.4910   29.1220   39.9690 C   0  0  0  0  0  0  0  0  0  0  0  0
   34.2740   29.1760   39.7820 O   0  0  0  0  0  0  0  0  0  0  0  0
   36.6930   30.6250   38.4550 C   0  0  0  0  0  0  0  0  0  0  0  0
   36.2810   30.2890   39.7110 C   0  0  0  0  0  0  0  0  0  0  0  0
   36.6440   31.1410   40.7720 C   0  0  0  0  0  0  0  0  0  0  0  0
   37.3740   32.2460   40.5290 N   0  0  0  0  0  0  0  0  0  0  0  0
   37.7730   32.5560   39.2500 C   0  0  0  0  0  0  0  0  0  0  0  0
   37.4290   31.7510   38.2560 N   0  0  0  0  0  0  0  0  0  0  0  0
   36.3980   29.9490   37.6670 H   0  0  0  0  0  0  0  0  0  0  0  0
   36.3600   30.9500   41.7960 H   0  0  0  0  0  0  0  0  0  0  0  0
   38.3530   33.4090   38.9650 H   0  0  0  0  0  0  0  0  0  0  0  0
  1  4  1  1  0  0  0
  2  6  1  0  0  0  0
  2  3  1  0  0  0  0
  2  1  1  0  0  0  0
  3  7  1  6  0  0  0
  3  1  1  0  0  0  0
  3  8  1  0  0  0  0
  5  2  1  0  0  0  0
  8 16  1  6  0  0  0
  9  8  1  0  0  0  0
  9 11  1  0  0  0  0
 10  9  1  0  0  0  0
 11 13  1  0  0  0  0
 12 11  1  0  0  0  0
 14 13  1  0  0  0  0
 15 13  1  0  0  0  0
 15 16  1  0  0  0  0
 17  1  1  0  0  0  0
 18 17  2  0  0  0  0
 19 20  1  0  0  0  0
 20 17  1  0  0  0  0
 20 21  2  0  0  0  0
 21 26  1  0  0  0  0
 22 21  1  0  0  0  0
 23 22  2  0  0  0  0
 24 19  2  0  0  0  0
 24 23  1  0  0  0  0
 25 19  1  0  0  0  0
 27 23  1  0  0  0  0
M  END
>  <minimizedAffinity>
-4.33064842

$$$$

 OpenBabel03242512073D

 27 29  0  0  1  0  0  0  0  0999 V2000
   37.5060   27.0920   42.1460 C   0  0  1  0  0  0  0  0  0  0  0  0
   36.5520   27.3530   43.3630 C   0  0  0  0  0  0  0  0  0  0  0  0
   37.7830   28.1310   43.0970 C   0  0  2  0  0  0  0  0  0  0  0  0
   36.8930   27.2200   41.2000 H   0  0  0  0  0  0  0  0  0  0  0  0
   36.5640   26.5950   44.1690 H   0  0  0  0  0  0  0  0  0  0  0  0
   35.5630   27.6760   43.0800 H   0  0  0  0  0  0  0  0  0  0  0  0
   38.6330   27.9200   43.8120 H   0  0  0  0  0  0  0  0  0  0  0  0
   37.7690   29.4970   42.6930 N   0  0  2  0  0  0  0  0  0  0  0  0
   36.7910   29.7820   41.7030 C   0  0  0  0  0  3  0  0  0  0  0  0
   35.8010   29.9640   42.1970 H   0  0  0  0  0  0  0  0  0  0  0  0
   37.0560   30.9620   40.8200 C   0  0  0  0  0  3  0  0  0  0  0  0
   36.3680   30.8820   39.9510 H   0  0  0  0  0  0  0  0  0  0  0  0
   38.3920   31.0110   40.2970 N   0  0  0  0  0  0  0  0  0  0  0  0
   38.4610   30.8790   39.2860 H   0  0  0  0  0  0  0  0  0  0  0  0
   39.3290   30.2000   41.0320 C   0  0  0  0  0  2  0  0  0  0  0  0
   39.0130   30.1410   42.5040 C   0  0  0  0  0  2  0  0  0  0  0  0
   38.1790   25.7660   42.2290 C   0  0  0  0  0  0  0  0  0  0  0  0
   39.0730   25.6330   43.0670 O   0  0  0  0  0  0  0  0  0  0  0  0
   38.7020   23.6210   41.1710 C   0  0  0  0  0  0  0  0  0  0  0  0
   37.8360   24.6480   41.4030 C   0  0  0  0  0  0  0  0  0  0  0  0
   36.5600   24.5760   40.8120 C   0  0  0  0  0  0  0  0  0  0  0  0
   36.2290   23.5190   40.0460 N   0  0  0  0  0  0  0  0  0  0  0  0
   37.1280   22.5000   39.8330 C   0  0  0  0  0  0  0  0  0  0  0  0
   38.3280   22.5720   40.3910 N   0  0  0  0  0  0  0  0  0  0  0  0
   39.6720   23.7090   41.6380 H   0  0  0  0  0  0  0  0  0  0  0  0
   35.8120   25.3450   40.9430 H   0  0  0  0  0  0  0  0  0  0  0  0
   36.9530   21.6250   39.2420 H   0  0  0  0  0  0  0  0  0  0  0  0
  1  4  1  6  0  0  0
  1 17  1  0  0  0  0
  1  3  1  0  0  0  0
  1  2  1  0  0  0  0
  2  5  1  0  0  0  0
  3  2  1  0  0  0  0
  3  7  1  1  0  0  0
  6  2  1  0  0  0  0
  8 16  1  6  0  0  0
  8  3  1  0  0  0  0
  9 10  1  0  0  0  0
  9  8  1  0  0  0  0
 11  9  1  0  0  0  0
 12 11  1  0  0  0  0
 13 11  1  0  0  0  0
 13 15  1  0  0  0  0
 14 13  1  0  0  0  0
 15 16  1  0  0  0  0
 17 18  2  0  0  0  0
 19 20  1  0  0  0  0
 19 25  1  0  0  0  0
 20 17  1  0  0  0  0
 21 26  1  0  0  0  0
 21 20  2  0  0  0  0
 22 21  1  0  0  0  0
 23 22  2  0  0  0  0
 23 24  1  0  0  0  0
 24 19  2  0  0  0  0
 27 23  1  0  0  0  0
M  END
>  <minimizedAffinity>
-4.32649565

$$$$
