
 OpenBabel03252509133D

 45 49  0  0  1  0  0  0  0  0999 V2000
   49.3960   32.1680   40.7370 S   0  0  0  0  0  0  0  0  0  0  0  0
   48.5800   28.3230   41.8270 C   0  0  0  0  0  0  0  0  0  0  0  0
   48.5270   29.5800   41.2320 C   0  0  0  0  0  0  0  0  0  0  0  0
   49.4710   30.5720   41.4990 C   0  0  0  0  0  0  0  0  0  0  0  0
   50.5090   30.3010   42.3940 C   0  0  0  0  0  0  0  0  0  0  0  0
   51.5630   30.9880   42.8780 N   0  0  0  0  0  0  0  0  0  0  0  0
   52.2570   30.2170   43.7380 C   0  0  0  0  0  0  0  0  0  0  0  0
   51.6070   29.0410   43.7720 N   0  0  0  0  0  0  0  0  0  0  0  0
   50.5390   29.0600   42.9650 C   0  0  0  0  0  0  0  0  0  0  0  0
   49.6190   28.0520   42.7240 C   0  0  0  0  0  0  0  0  0  0  0  0
   47.8420   27.5620   41.6130 H   0  0  0  0  0  0  0  0  0  0  0  0
   51.7430   31.9570   42.5830 H   0  0  0  0  0  0  0  0  0  0  0  0
   53.1330   30.5810   44.2310 H   0  0  0  0  0  0  0  0  0  0  0  0
   49.7130   27.0870   43.2210 H   0  0  0  0  0  0  0  0  0  0  0  0
   45.2770   30.6200   39.9100 C   0  0  0  0  0  0  0  0  0  0  0  0
   45.4360   30.4470   38.5290 C   0  0  0  0  0  0  0  0  0  0  0  0
   46.6700   29.9700   38.0670 C   0  0  0  0  0  0  0  0  0  0  0  0
   47.6630   29.6950   38.9730 N   0  0  0  0  0  0  0  0  0  0  0  0
   47.4570   29.8810   40.2990 C   0  0  0  0  0  0  0  0  0  0  0  0
   46.2740   30.3430   40.8040 N   0  0  0  0  0  0  0  0  0  0  0  0
   44.3580   30.9800   40.3260 H   0  0  0  0  0  0  0  0  0  0  0  0
   44.6270   30.6760   37.8540 H   0  0  0  0  0  0  0  0  0  0  0  0
   46.8090   29.8320   37.0150 H   0  0  0  0  0  0  0  0  0  0  0  0
   47.7430   32.7730   42.6920 N   0  0  0  0  0  0  0  0  0  0  0  0
   48.0190   33.1930   41.3230 C   0  0  1  0  0  0  0  0  0  0  0  0
   48.5170   34.6310   41.2670 C   0  0  0  0  0  0  0  0  0  0  0  0
   47.8060   35.4860   42.0880 O   0  0  0  0  0  0  0  0  0  0  0  0
   46.6770   34.9700   42.6550 C   0  0  0  0  0  0  0  0  0  0  0  0
   47.0460   33.7470   43.4560 C   0  0  1  0  0  0  0  0  0  0  0  0
   48.6540   32.4760   43.1160 H   0  0  0  0  0  0  0  0  0  0  0  0
   47.1600   33.0470   40.6520 H   0  0  0  0  0  0  0  0  0  0  0  0
   48.3440   35.0140   40.2650 H   0  0  0  0  0  0  0  0  0  0  0  0
   49.5860   34.6630   41.5600 H   0  0  0  0  0  0  0  0  0  0  0  0
   46.2450   35.7230   43.3120 H   0  0  0  0  0  0  0  0  0  0  0  0
   45.9860   34.6510   41.8370 H   0  0  0  0  0  0  0  0  0  0  0  0
   47.7820   34.1270   44.2250 H   0  0  0  0  0  0  0  0  0  0  0  0
   45.9450   33.2270   44.2480 N   0  0  1  0  0  0  0  0  0  0  0  0
   46.3400   31.8530   44.5840 C   0  0  0  0  0  3  0  0  0  0  0  0
   46.8760   31.3680   43.7520 H   0  0  0  0  0  0  0  0  0  0  0  0
   47.1450   31.8040   45.8520 C   0  0  0  0  0  3  0  0  0  0  0  0
   48.0260   32.4600   45.8640 H   0  0  0  0  0  0  0  0  0  0  0  0
   46.2340   32.1110   46.9390 N   0  0  0  0  0  0  0  0  0  0  0  0
   46.8000   32.2240   47.8050 H   0  0  0  0  0  0  0  0  0  0  0  0
   45.3650   33.2220   46.6460 C   0  0  0  0  0  2  0  0  0  0  0  0
   45.8970   34.0030   45.4610 C   0  0  0  0  0  2  0  0  0  0  0  0
  1 25  1  0  0  0  0
  1  4  1  0  0  0  0
  2 10  1  0  0  0  0
  3  4  1  0  0  0  0
  3  2  2  0  0  0  0
  4  5  2  0  0  0  0
  5  6  1  0  0  0  0
  5  9  1  0  0  0  0
  6  7  1  0  0  0  0
  7  8  2  0  0  0  0
  7 13  1  0  0  0  0
  9  8  1  0  0  0  0
 10  9  2  0  0  0  0
 10 14  1  0  0  0  0
 11  2  1  0  0  0  0
 12  6  1  0  0  0  0
 15 21  1  0  0  0  0
 15 20  1  0  0  0  0
 16 15  2  0  0  0  0
 17 16  1  0  0  0  0
 17 18  2  0  0  0  0
 18 19  1  0  0  0  0
 19 20  2  0  0  0  0
 19  3  1  0  0  0  0
 22 16  1  0  0  0  0
 23 17  1  0  0  0  0
 24 30  1  0  0  0  0
 24 29  1  0  0  0  0
 25 31  1  6  0  0  0
 25 24  1  0  0  0  0
 26 25  1  0  0  0  0
 26 33  1  0  0  0  0
 26 27  1  0  0  0  0
 27 28  1  0  0  0  0
 28 34  1  0  0  0  0
 28 29  1  0  0  0  0
 29 36  1  1  0  0  0
 29 37  1  0  0  0  0
 32 26  1  0  0  0  0
 35 28  1  0  0  0  0
 37 38  1  0  0  0  0
 37 45  1  1  0  0  0
 38 40  1  0  0  0  0
 39 38  1  0  0  0  0
 40 41  1  0  0  0  0
 40 42  1  0  0  0  0
 42 43  1  0  0  0  0
 44 42  1  0  0  0  0
 45 44  1  0  0  0  0
M  END
>  <minimizedAffinity>
-3.57924056

>  <minimizedRMSD>
6.83257055

$$$$
