
 OpenBabel03252506333D

 33 35  0  0  1  0  0  0  0  0999 V2000
   44.4470   35.7190   44.9940 C   0  0  0  0  0  0  0  0  0  0  0  0
   45.1240   35.6850   43.7520 C   0  0  0  0  0  0  0  0  0  0  0  0
   46.0530   34.7160   43.5240 C   0  0  0  0  0  0  0  0  0  0  0  0
   46.2810   33.8260   44.5170 N   0  0  0  0  0  0  0  0  0  0  0  0
   45.6400   33.8610   45.6890 C   0  0  0  0  0  0  0  0  0  0  0  0
   44.7290   34.7970   45.9360 N   0  0  0  0  0  0  0  0  0  0  0  0
   45.9680   32.8670   46.6540 N   0  0  0  0  0  0  0  0  0  0  0  0
   45.1610   32.5820   47.8450 C   0  0  0  0  0  0  0  0  0  0  0  0
   46.2320   32.2910   48.8700 C   0  0  0  0  0  0  0  0  0  0  0  0
   47.5310   32.1590   48.1390 C   0  0  0  0  0  0  0  0  0  0  0  0
   47.0910   31.9660   46.6910 C   0  0  1  0  0  0  0  0  0  0  0  0
   43.7250   36.4840   45.1540 H   0  0  0  0  0  0  0  0  0  0  0  0
   46.5680   34.6930   42.5730 H   0  0  0  0  0  0  0  0  0  0  0  0
   44.5710   33.4840   48.1190 H   0  0  0  0  0  0  0  0  0  0  0  0
   44.5000   31.7250   47.6400 H   0  0  0  0  0  0  0  0  0  0  0  0
   46.2640   33.0770   49.6540 H   0  0  0  0  0  0  0  0  0  0  0  0
   46.0120   31.3310   49.3520 H   0  0  0  0  0  0  0  0  0  0  0  0
   48.1170   33.0860   48.1950 H   0  0  0  0  0  0  0  0  0  0  0  0
   48.1350   31.2810   48.4540 H   0  0  0  0  0  0  0  0  0  0  0  0
   47.9110   32.2610   46.0150 H   0  0  0  0  0  0  0  0  0  0  0  0
   44.7700   36.7050   42.7960 N   0  0  0  0  0  0  0  0  0  0  0  0
   45.5160   37.4070   42.6100 H   0  0  0  0  0  0  0  0  0  0  0  0
   43.8040   36.5800   42.4340 H   0  0  0  0  0  0  0  0  0  0  0  0
   46.6010   30.2470   46.4840 S   0  0  0  0  0  0  0  0  0  0  0  0
   46.1390   27.8430   47.2320 H   0  0  0  0  0  0  0  0  0  0  0  0
   47.0330   27.9710   47.7130 N   0  0  0  0  0  0  0  0  0  0  0  0
   47.7140   29.2070   47.5060 C   0  0  1  0  0  0  0  0  0  0  0  0
   48.9450   28.9860   46.6780 C   0  0  0  0  0  0  0  0  0  0  0  0
   49.4990   29.9560   46.5780 H   0  0  0  0  0  0  0  0  0  0  0  0
   49.8770   28.0420   47.2310 N   0  0  0  0  0  0  0  0  0  0  0  0
   50.1380   27.3880   46.4340 H   0  0  0  0  0  0  0  0  0  0  0  0
   49.2520   27.2210   48.2520 C   0  0  0  0  0  0  0  0  0  0  0  0
   47.8950   26.8210   47.7140 C   0  0  0  0  0  0  0  0  0  0  0  0
  1 12  1  0  0  0  0
  1  6  1  0  0  0  0
  2  1  2  0  0  0  0
  3  2  1  0  0  0  0
  3  4  2  0  0  0  0
  4  5  1  0  0  0  0
  5  6  2  0  0  0  0
  5  7  1  0  0  0  0
  7 11  1  0  0  0  0
  7  8  1  0  0  0  0
  8 14  1  0  0  0  0
  8  9  1  0  0  0  0
  9 17  1  0  0  0  0
  9 16  1  0  0  0  0
 10 18  1  0  0  0  0
 10 19  1  0  0  0  0
 10  9  1  0  0  0  0
 11 20  1  6  0  0  0
 11 10  1  0  0  0  0
 13  3  1  0  0  0  0
 15  8  1  0  0  0  0
 21  2  1  0  0  0  0
 22 21  1  0  0  0  0
 23 21  1  0  0  0  0
 24 11  1  0  0  0  0
 25 26  1  0  0  0  0
 26 33  1  0  0  0  0
 27 24  1  6  0  0  0
 27 26  1  0  0  0  0
 28 30  1  0  0  0  0
 28 27  1  0  0  0  0
 29 28  1  0  0  0  0
 30 32  1  0  0  0  0
 31 30  1  0  0  0  0
 33 32  1  0  0  0  0
M  END
>  <minimizedAffinity>
-5.36899853

>  <minimizedRMSD>
1.25476468

$$$$
