
 OpenBabel03252509133D

 45 49  0  0  1  0  0  0  0  0999 V2000
   44.9050   35.3670   43.1630 S   0  0  0  0  0  0  0  0  0  0  0  0
   47.5770   32.5470   44.4060 C   0  0  0  0  0  0  0  0  0  0  0  0
   46.8710   33.4690   43.6380 C   0  0  0  0  0  0  0  0  0  0  0  0
   45.7970   34.1970   44.1470 C   0  0  0  0  0  0  0  0  0  0  0  0
   45.4100   34.0000   45.4760 C   0  0  0  0  0  0  0  0  0  0  0  0
   44.4550   34.5060   46.2820 N   0  0  0  0  0  0  0  0  0  0  0  0
   44.5400   33.9420   47.5030 C   0  0  0  0  0  0  0  0  0  0  0  0
   45.5680   33.0790   47.4290 N   0  0  0  0  0  0  0  0  0  0  0  0
   46.1180   33.0910   46.2090 C   0  0  0  0  0  0  0  0  0  0  0  0
   47.1890   32.3500   45.7360 C   0  0  0  0  0  0  0  0  0  0  0  0
   48.4090   31.9870   43.9990 H   0  0  0  0  0  0  0  0  0  0  0  0
   43.7960   35.2170   45.9400 H   0  0  0  0  0  0  0  0  0  0  0  0
   43.8680   34.2100   48.2900 H   0  0  0  0  0  0  0  0  0  0  0  0
   47.7020   31.6430   46.3860 H   0  0  0  0  0  0  0  0  0  0  0  0
   47.2730   32.9710   40.0340 C   0  0  0  0  0  0  0  0  0  0  0  0
   47.9940   34.1080   39.6450 C   0  0  0  0  0  0  0  0  0  0  0  0
   48.3360   35.0370   40.6360 C   0  0  0  0  0  0  0  0  0  0  0  0
   47.9560   34.8030   41.9330 N   0  0  0  0  0  0  0  0  0  0  0  0
   47.2580   33.6870   42.2560 C   0  0  0  0  0  0  0  0  0  0  0  0
   46.8990   32.7480   41.3310 N   0  0  0  0  0  0  0  0  0  0  0  0
   46.9820   32.2240   39.3260 H   0  0  0  0  0  0  0  0  0  0  0  0
   48.2720   34.2490   38.6120 H   0  0  0  0  0  0  0  0  0  0  0  0
   48.8880   35.9100   40.3560 H   0  0  0  0  0  0  0  0  0  0  0  0
   42.4340   35.2470   42.2690 N   0  0  0  0  0  0  0  0  0  0  0  0
   43.7210   34.6070   42.0200 C   0  0  1  0  0  0  0  0  0  0  0  0
   44.2380   34.9130   40.6200 C   0  0  0  0  0  0  0  0  0  0  0  0
   43.2600   34.8270   39.6480 O   0  0  0  0  0  0  0  0  0  0  0  0
   42.0630   34.3050   40.0460 C   0  0  0  0  0  0  0  0  0  0  0  0
   41.5240   35.1330   41.1840 C   0  0  1  0  0  0  0  0  0  0  0  0
   42.6290   36.2360   42.5540 H   0  0  0  0  0  0  0  0  0  0  0  0
   43.6980   33.5230   42.2040 H   0  0  0  0  0  0  0  0  0  0  0  0
   44.9570   34.1450   40.3470 H   0  0  0  0  0  0  0  0  0  0  0  0
   44.6700   35.9330   40.6010 H   0  0  0  0  0  0  0  0  0  0  0  0
   41.3720   34.3420   39.2060 H   0  0  0  0  0  0  0  0  0  0  0  0
   42.2390   33.2690   40.4260 H   0  0  0  0  0  0  0  0  0  0  0  0
   41.4200   36.1720   40.7520 H   0  0  0  0  0  0  0  0  0  0  0  0
   40.1680   34.7720   41.5620 N   0  0  1  0  0  0  0  0  0  0  0  0
   39.3120   35.4430   40.5750 C   0  0  0  0  0  0  0  0  0  0  0  0
   39.7070   36.4340   40.3000 H   0  0  0  0  0  0  0  0  0  0  0  0
   39.0950   34.5880   39.3600 C   0  0  0  0  0  0  0  0  0  0  0  0
   40.0150   34.2310   38.8750 H   0  0  0  0  0  0  0  0  0  0  0  0
   38.2440   33.4860   39.7690 N   0  0  0  0  0  0  0  0  0  0  0  0
   38.2020   32.8070   38.9810 H   0  0  0  0  0  0  0  0  0  0  0  0
   38.6410   32.9100   41.0290 C   0  0  0  0  0  0  0  0  0  0  0  0
   40.0470   33.3480   41.3840 C   0  0  0  0  0  0  0  0  0  0  0  0
  1  4  1  0  0  0  0
  2 10  1  0  0  0  0
  3  4  1  0  0  0  0
  3  2  2  0  0  0  0
  4  5  2  0  0  0  0
  5  9  1  0  0  0  0
  5  6  1  0  0  0  0
  6  7  1  0  0  0  0
  7 13  1  0  0  0  0
  8  7  2  0  0  0  0
  9  8  1  0  0  0  0
 10  9  2  0  0  0  0
 10 14  1  0  0  0  0
 11  2  1  0  0  0  0
 12  6  1  0  0  0  0
 15 20  1  0  0  0  0
 16 15  2  0  0  0  0
 16 17  1  0  0  0  0
 17 18  2  0  0  0  0
 18 19  1  0  0  0  0
 19  3  1  0  0  0  0
 20 19  2  0  0  0  0
 21 15  1  0  0  0  0
 22 16  1  0  0  0  0
 23 17  1  0  0  0  0
 24 30  1  0  0  0  0
 25 31  1  1  0  0  0
 25 24  1  0  0  0  0
 25  1  1  0  0  0  0
 26 25  1  0  0  0  0
 27 28  1  0  0  0  0
 27 26  1  0  0  0  0
 28 35  1  0  0  0  0
 28 29  1  0  0  0  0
 29 36  1  6  0  0  0
 29 37  1  0  0  0  0
 29 24  1  0  0  0  0
 32 26  1  0  0  0  0
 33 26  1  0  0  0  0
 34 28  1  0  0  0  0
 37 45  1  6  0  0  0
 38 37  1  0  0  0  0
 39 38  1  0  0  0  0
 40 42  1  0  0  0  0
 40 38  1  0  0  0  0
 41 40  1  0  0  0  0
 42 44  1  0  0  0  0
 43 42  1  0  0  0  0
 44 45  1  0  0  0  0
M  END
>  <minimizedAffinity>
-6.49555588

>  <minimizedRMSD>
0.702528477

$$$$
