
 OpenBabel03242511153D

 19 20  0  0  1  0  0  0  0  0999 V2000
   45.7570   34.4200   41.5080 S   0  0  0  0  0  0  0  0  0  0  0  0
   44.4080   35.7780   45.0840 C   0  0  0  0  0  0  0  0  0  0  0  0
   44.6680   35.6920   43.6960 C   0  0  0  0  0  0  0  0  0  0  0  0
   45.3980   34.5810   43.2500 C   0  0  0  0  0  0  0  0  0  0  0  0
   45.8080   33.6660   44.1630 N   0  0  0  0  0  0  0  0  0  0  0  0
   45.5470   33.7740   45.4710 C   0  0  0  0  0  0  0  0  0  0  0  0
   44.8550   34.8180   45.9310 N   0  0  0  0  0  0  0  0  0  0  0  0
   43.8340   36.6690   45.3580 H   0  0  0  0  0  0  0  0  0  0  0  0
   44.3170   36.4510   43.0060 H   0  0  0  0  0  0  0  0  0  0  0  0
   45.8950   33.0180   46.1690 H   0  0  0  0  0  0  0  0  0  0  0  0
   47.2200   32.4110   42.0170 H   0  0  0  0  0  0  0  0  0  0  0  0
   48.0320   32.9380   41.5740 N   0  0  0  0  0  0  0  0  0  0  0  0
   47.5030   34.1930   41.1580 C   0  0  2  0  0  0  0  0  0  0  0  0
   48.2430   35.3900   41.7060 C   0  0  0  0  0  0  0  0  0  0  0  0
   47.9600   36.3000   41.1780 H   0  0  0  0  0  0  0  0  0  0  0  0
   49.6500   35.1620   41.5790 N   0  0  0  0  0  0  0  0  0  0  0  0
   50.0000   35.0820   40.6190 H   0  0  0  0  0  0  0  0  0  0  0  0
   50.0140   34.1140   42.4810 C   0  0  0  0  0  0  0  0  0  0  0  0
   49.0630   32.9690   42.5570 C   0  0  0  0  0  0  0  0  0  0  0  0
  1  4  1  0  0  0  0
  2  8  1  0  0  0  0
  2  7  1  0  0  0  0
  3  2  2  0  0  0  0
  4  3  1  0  0  0  0
  4  5  2  0  0  0  0
  5  6  1  0  0  0  0
  6  7  2  0  0  0  0
  6 10  1  0  0  0  0
  9  3  1  0  0  0  0
 12 11  1  0  0  0  0
 12 19  1  0  0  0  0
 13  1  1  1  0  0  0
 13 12  1  0  0  0  0
 13 14  1  0  0  0  0
 15 14  1  0  0  0  0
 16 14  1  0  0  0  0
 16 18  1  0  0  0  0
 17 16  1  0  0  0  0
 18 19  2  0  0  0  0
M  END
>  <minimizedAffinity>
-4.03292799

>  <minimizedRMSD>
2.23427701

$$$$
