
 OpenBabel03252508353D

 35 37  0  0  1  0  0  0  0  0999 V2000
   36.7010   28.3050   41.0700 N   0  0  0  0  0  0  0  0  0  0  0  0
   37.3700   29.5550   41.3070 C   0  0  1  0  0  0  0  0  0  0  0  0
   38.1010   29.6450   42.5950 C   0  0  0  0  0  0  0  0  0  0  0  0
   37.4690   29.0390   43.6800 N   0  0  0  0  0  0  0  0  0  0  0  0
   36.6720   27.9090   43.4720 C   0  0  0  0  0  0  0  0  0  0  0  0
   36.9080   27.3250   42.0900 C   0  0  0  0  0  0  0  0  0  0  0  0
   36.6080   30.3510   41.2680 H   0  0  0  0  0  0  0  0  0  0  0  0
   39.0990   29.1620   42.4520 H   0  0  0  0  0  0  0  0  0  0  0  0
   38.2770   30.7210   42.8300 H   0  0  0  0  0  0  0  0  0  0  0  0
   37.4950   29.4620   44.5970 H   0  0  0  0  0  0  0  0  0  0  0  0
   36.9250   27.1110   44.2010 H   0  0  0  0  0  0  0  0  0  0  0  0
   35.5710   28.0750   43.6150 H   0  0  0  0  0  0  0  0  0  0  0  0
   37.8980   26.8280   42.0480 H   0  0  0  0  0  0  0  0  0  0  0  0
   36.1400   26.5230   41.9500 H   0  0  0  0  0  0  0  0  0  0  0  0
   34.8220   29.0270   39.8130 C   0  0  0  0  0  0  0  0  0  0  0  0
   35.9390   28.1830   39.8960 C   0  0  0  0  0  0  0  0  0  0  0  0
   36.1980   27.3140   38.8330 C   0  0  0  0  0  0  0  0  0  0  0  0
   35.3650   27.3120   37.7590 N   0  0  0  0  0  0  0  0  0  0  0  0
   34.3040   28.1270   37.7010 C   0  0  0  0  0  0  0  0  0  0  0  0
   34.0300   28.9660   38.6970 N   0  0  0  0  0  0  0  0  0  0  0  0
   34.5600   29.7290   40.6050 H   0  0  0  0  0  0  0  0  0  0  0  0
   37.0630   26.6870   38.9380 H   0  0  0  0  0  0  0  0  0  0  0  0
   33.6320   28.1220   36.8310 H   0  0  0  0  0  0  0  0  0  0  0  0
   38.3840   29.7760   40.1960 C   0  0  0  0  0  0  0  0  0  0  0  0
   38.1840   29.0750   39.3650 H   0  0  0  0  0  0  0  0  0  0  0  0
   39.4100   29.5180   40.5520 H   0  0  0  0  0  0  0  0  0  0  0  0
   38.3760   31.1030   39.6690 N   0  0  0  0  0  0  0  0  0  0  0  0
   39.4570   31.9070   40.1670 C   0  0  0  0  0  3  0  0  0  0  0  0
   40.0890   32.2920   39.3280 H   0  0  0  0  0  0  0  0  0  0  0  0
   38.9950   33.0730   41.0100 C   0  0  0  0  0  3  0  0  0  0  0  0
   39.9300   33.6120   41.3190 H   0  0  0  0  0  0  0  0  0  0  0  0
   38.1270   33.9520   40.2780 N   0  0  0  0  0  0  0  0  0  0  0  0
   37.7420   34.6570   40.9520 H   0  0  0  0  0  0  0  0  0  0  0  0
   37.0980   33.1960   39.6230 C   0  0  0  0  0  2  0  0  0  0  0  0
   37.1260   31.7320   40.0010 C   0  0  0  0  0  2  0  0  0  0  0  0
  1  2  1  0  0  0  0
  1  6  1  0  0  0  0
  2  7  1  6  0  0  0
  2  3  1  0  0  0  0
  3  9  1  0  0  0  0
  3  4  1  0  0  0  0
  4 10  1  0  0  0  0
  5 12  1  0  0  0  0
  5  4  1  0  0  0  0
  5 11  1  0  0  0  0
  6  5  1  0  0  0  0
  8  3  1  0  0  0  0
 13  6  1  0  0  0  0
 14  6  1  0  0  0  0
 15 16  1  0  0  0  0
 15 21  1  0  0  0  0
 16  1  1  0  0  0  0
 17 22  1  0  0  0  0
 17 16  2  0  0  0  0
 18 17  1  0  0  0  0
 19 18  2  0  0  0  0
 19 20  1  0  0  0  0
 20 15  2  0  0  0  0
 23 19  1  0  0  0  0
 24 26  1  0  0  0  0
 24  2  1  0  0  0  0
 25 24  1  0  0  0  0
 27 35  1  0  0  0  0
 27 28  1  0  0  0  0
 27 24  1  0  0  0  0
 28 30  1  0  0  0  0
 29 28  1  0  0  0  0
 30 31  1  0  0  0  0
 32 33  1  0  0  0  0
 32 30  1  0  0  0  0
 34 35  1  0  0  0  0
 34 32  1  0  0  0  0
M  END
>  <minimizedAffinity>
-4.88730383

$$$$

 OpenBabel03252508353D

 35 37  0  0  1  0  0  0  0  0999 V2000
   36.9660   28.3490   41.0670 N   0  0  0  0  0  0  0  0  0  0  0  0
   37.7920   29.5250   41.0970 C   0  0  1  0  0  0  0  0  0  0  0  0
   38.6170   29.6860   42.3190 C   0  0  0  0  0  0  0  0  0  0  0  0
   37.9950   29.3070   43.5080 N   0  0  0  0  0  0  0  0  0  0  0  0
   37.0590   28.2680   43.4980 C   0  0  0  0  0  0  0  0  0  0  0  0
   37.1270   27.4880   42.1960 C   0  0  0  0  0  0  0  0  0  0  0  0
   37.1270   30.3990   40.9920 H   0  0  0  0  0  0  0  0  0  0  0  0
   39.5380   29.0680   42.1890 H   0  0  0  0  0  0  0  0  0  0  0  0
   38.9330   30.7520   42.3980 H   0  0  0  0  0  0  0  0  0  0  0  0
   38.1350   29.8370   44.3580 H   0  0  0  0  0  0  0  0  0  0  0  0
   37.2670   27.5450   44.3130 H   0  0  0  0  0  0  0  0  0  0  0  0
   35.9970   28.5880   43.6770 H   0  0  0  0  0  0  0  0  0  0  0  0
   38.0480   26.8700   42.1690 H   0  0  0  0  0  0  0  0  0  0  0  0
   36.2630   26.7780   42.2080 H   0  0  0  0  0  0  0  0  0  0  0  0
   35.0720   29.1070   39.8530 C   0  0  0  0  0  0  0  0  0  0  0  0
   36.1140   28.1750   39.9630 C   0  0  0  0  0  0  0  0  0  0  0  0
   36.2200   27.1780   38.9910 C   0  0  0  0  0  0  0  0  0  0  0  0
   35.3160   27.1400   37.9770 N   0  0  0  0  0  0  0  0  0  0  0  0
   34.3280   28.0410   37.8920 C   0  0  0  0  0  0  0  0  0  0  0  0
   34.2000   29.0030   38.8020 N   0  0  0  0  0  0  0  0  0  0  0  0
   34.9290   29.9110   40.5760 H   0  0  0  0  0  0  0  0  0  0  0  0
   37.0330   26.4860   39.1130 H   0  0  0  0  0  0  0  0  0  0  0  0
   33.5990   28.0060   37.0710 H   0  0  0  0  0  0  0  0  0  0  0  0
   38.7440   29.4740   39.9130 C   0  0  0  0  0  0  0  0  0  0  0  0
   38.3320   28.8090   39.1320 H   0  0  0  0  0  0  0  0  0  0  0  0
   39.7110   29.0040   40.2150 H   0  0  0  0  0  0  0  0  0  0  0  0
   38.9920   30.7500   39.3220 N   0  0  0  0  0  0  0  0  0  0  0  0
   37.8280   31.3110   38.6950 C   0  0  0  0  0  3  0  0  0  0  0  0
   37.5760   32.3070   39.1360 H   0  0  0  0  0  0  0  0  0  0  0  0
   37.9680   31.4560   37.1970 C   0  0  0  0  0  3  0  0  0  0  0  0
   37.0020   31.9090   36.8470 H   0  0  0  0  0  0  0  0  0  0  0  0
   39.0760   32.2980   36.8430 N   0  0  0  0  0  0  0  0  0  0  0  0
   39.1950   32.2500   35.8020 H   0  0  0  0  0  0  0  0  0  0  0  0
   40.2530   31.8880   37.5520 C   0  0  0  0  0  2  0  0  0  0  0  0
   40.0390   30.6180   38.3440 C   0  0  0  0  0  2  0  0  0  0  0  0
  1  2  1  0  0  0  0
  1  6  1  0  0  0  0
  2  7  1  6  0  0  0
  2  3  1  0  0  0  0
  3  9  1  0  0  0  0
  3  4  1  0  0  0  0
  4 10  1  0  0  0  0
  5  4  1  0  0  0  0
  5 12  1  0  0  0  0
  5 11  1  0  0  0  0
  6 14  1  0  0  0  0
  6  5  1  0  0  0  0
  8  3  1  0  0  0  0
 13  6  1  0  0  0  0
 15 16  1  0  0  0  0
 15 21  1  0  0  0  0
 16  1  1  0  0  0  0
 17 22  1  0  0  0  0
 17 16  2  0  0  0  0
 18 17  1  0  0  0  0
 19 18  2  0  0  0  0
 19 20  1  0  0  0  0
 20 15  2  0  0  0  0
 23 19  1  0  0  0  0
 24 26  1  0  0  0  0
 24  2  1  0  0  0  0
 25 24  1  0  0  0  0
 27 24  1  0  0  0  0
 28 29  1  0  0  0  0
 28 27  1  0  0  0  0
 30 28  1  0  0  0  0
 31 30  1  0  0  0  0
 32 30  1  0  0  0  0
 32 34  1  0  0  0  0
 33 32  1  0  0  0  0
 34 35  1  0  0  0  0
 35 27  1  0  0  0  0
M  END
>  <minimizedAffinity>
-4.76465893

$$$$

 OpenBabel03252508353D

 35 37  0  0  1  0  0  0  0  0999 V2000
   36.9850   29.8550   38.9780 N   0  0  0  0  0  0  0  0  0  0  0  0
   37.8100   31.0320   38.9510 C   0  0  1  0  0  0  0  0  0  0  0  0
   37.7160   31.8390   37.7100 C   0  0  0  0  0  0  0  0  0  0  0  0
   37.6070   31.1040   36.5310 N   0  0  0  0  0  0  0  0  0  0  0  0
   36.9500   29.8700   36.5450 C   0  0  0  0  0  0  0  0  0  0  0  0
   36.1550   29.6920   37.8270 C   0  0  0  0  0  0  0  0  0  0  0  0
   38.8540   30.7080   39.0930 H   0  0  0  0  0  0  0  0  0  0  0  0
   36.8170   32.4970   37.8020 H   0  0  0  0  0  0  0  0  0  0  0  0
   38.6130   32.4990   37.6460 H   0  0  0  0  0  0  0  0  0  0  0  0
   38.0830   31.4000   35.6890 H   0  0  0  0  0  0  0  0  0  0  0  0
   36.2230   29.8030   35.7080 H   0  0  0  0  0  0  0  0  0  0  0  0
   37.6180   28.9780   36.4020 H   0  0  0  0  0  0  0  0  0  0  0  0
   35.2600   30.3460   37.8160 H   0  0  0  0  0  0  0  0  0  0  0  0
   35.7830   28.6370   37.8240 H   0  0  0  0  0  0  0  0  0  0  0  0
   38.2760   28.2920   40.2150 C   0  0  0  0  0  0  0  0  0  0  0  0
   37.0800   29.0160   40.1020 C   0  0  0  0  0  0  0  0  0  0  0  0
   36.1060   28.8510   41.0890 C   0  0  0  0  0  0  0  0  0  0  0  0
   36.3440   27.9990   42.1210 N   0  0  0  0  0  0  0  0  0  0  0  0
   37.4940   27.3180   42.2080 C   0  0  0  0  0  0  0  0  0  0  0  0
   38.4420   27.4540   41.2840 N   0  0  0  0  0  0  0  0  0  0  0  0
   39.0780   28.3730   39.4810 H   0  0  0  0  0  0  0  0  0  0  0  0
   35.2060   29.4240   40.9640 H   0  0  0  0  0  0  0  0  0  0  0  0
   37.6830   26.6290   43.0450 H   0  0  0  0  0  0  0  0  0  0  0  0
   37.4030   31.9320   40.1070 C   0  0  0  0  0  0  0  0  0  0  0  0
   36.6970   31.3940   40.7660 H   0  0  0  0  0  0  0  0  0  0  0  0
   36.8310   32.8130   39.7280 H   0  0  0  0  0  0  0  0  0  0  0  0
   38.5020   32.3760   40.9020 N   0  0  0  0  0  0  0  0  0  0  0  0
   38.7660   33.7800   40.7530 C   0  0  0  0  0  3  0  0  0  0  0  0
   38.7030   34.3070   41.7380 H   0  0  0  0  0  0  0  0  0  0  0  0
   40.1090   34.0720   40.1240 C   0  0  0  0  0  3  0  0  0  0  0  0
   40.1850   35.1910   40.0790 H   0  0  0  0  0  0  0  0  0  0  0  0
   41.1900   33.5260   40.8950 N   0  0  0  0  0  0  0  0  0  0  0  0
   42.0730   33.6480   40.3410 H   0  0  0  0  0  0  0  0  0  0  0  0
   40.9250   32.1520   41.2140 C   0  0  0  0  0  2  0  0  0  0  0  0
   39.6770   31.6320   40.5360 C   0  0  0  0  0  2  0  0  0  0  0  0
  1 16  1  0  0  0  0
  2  1  1  0  0  0  0
  2  7  1  1  0  0  0
  2 24  1  0  0  0  0
  3  8  1  0  0  0  0
  3  2  1  0  0  0  0
  4  5  1  0  0  0  0
  4  3  1  0  0  0  0
  5  6  1  0  0  0  0
  6  1  1  0  0  0  0
  9  3  1  0  0  0  0
 10  4  1  0  0  0  0
 11  5  1  0  0  0  0
 12  5  1  0  0  0  0
 13  6  1  0  0  0  0
 14  6  1  0  0  0  0
 15 20  1  0  0  0  0
 16 15  2  0  0  0  0
 16 17  1  0  0  0  0
 17 18  2  0  0  0  0
 18 19  1  0  0  0  0
 19 23  1  0  0  0  0
 20 19  2  0  0  0  0
 21 15  1  0  0  0  0
 22 17  1  0  0  0  0
 24 25  1  0  0  0  0
 24 27  1  0  0  0  0
 26 24  1  0  0  0  0
 28 27  1  0  0  0  0
 28 29  1  0  0  0  0
 30 28  1  0  0  0  0
 30 32  1  0  0  0  0
 31 30  1  0  0  0  0
 32 34  1  0  0  0  0
 33 32  1  0  0  0  0
 35 27  1  0  0  0  0
 35 34  1  0  0  0  0
M  END
>  <minimizedAffinity>
-4.61065722

$$$$

 OpenBabel03252508353D

 35 37  0  0  1  0  0  0  0  0999 V2000
   38.5800   30.2470   41.1720 N   0  0  0  0  0  0  0  0  0  0  0  0
   38.0550   29.1140   41.8840 C   0  0  1  0  0  0  0  0  0  0  0  0
   36.6440   28.7740   41.5770 C   0  0  0  0  0  0  0  0  0  0  0  0
   35.7970   29.8670   41.3940 N   0  0  0  0  0  0  0  0  0  0  0  0
   36.3040   31.0510   40.8510 C   0  0  0  0  0  0  0  0  0  0  0  0
   37.6710   30.8220   40.2290 C   0  0  0  0  0  0  0  0  0  0  0  0
   38.1490   29.3280   42.9610 H   0  0  0  0  0  0  0  0  0  0  0  0
   36.6390   28.1630   40.6420 H   0  0  0  0  0  0  0  0  0  0  0  0
   36.2430   28.1370   42.4000 H   0  0  0  0  0  0  0  0  0  0  0  0
   34.8470   29.8510   41.7400 H   0  0  0  0  0  0  0  0  0  0  0  0
   35.6460   31.4250   40.0400 H   0  0  0  0  0  0  0  0  0  0  0  0
   36.3700   31.9100   41.5710 H   0  0  0  0  0  0  0  0  0  0  0  0
   37.5710   30.2470   39.2860 H   0  0  0  0  0  0  0  0  0  0  0  0
   38.0660   31.8310   39.9510 H   0  0  0  0  0  0  0  0  0  0  0  0
   40.7350   30.8250   40.3610 C   0  0  0  0  0  0  0  0  0  0  0  0
   39.8910   30.6560   41.4680 C   0  0  0  0  0  0  0  0  0  0  0  0
   40.4070   30.9020   42.7430 C   0  0  0  0  0  0  0  0  0  0  0  0
   41.7020   31.2940   42.8710 N   0  0  0  0  0  0  0  0  0  0  0  0
   42.4900   31.4490   41.7980 C   0  0  0  0  0  0  0  0  0  0  0  0
   42.0280   31.2220   40.5710 N   0  0  0  0  0  0  0  0  0  0  0  0
   40.3980   30.6500   39.3390 H   0  0  0  0  0  0  0  0  0  0  0  0
   39.7260   30.7610   43.5620 H   0  0  0  0  0  0  0  0  0  0  0  0
   43.5370   31.7660   41.9050 H   0  0  0  0  0  0  0  0  0  0  0  0
   38.8970   27.8970   41.5390 C   0  0  0  0  0  0  0  0  0  0  0  0
   39.9620   28.1110   41.7450 H   0  0  0  0  0  0  0  0  0  0  0  0
   38.8500   27.6920   40.4420 H   0  0  0  0  0  0  0  0  0  0  0  0
   38.5320   26.7220   42.2650 N   0  0  0  0  0  0  0  0  0  0  0  0
   39.3590   26.5000   43.4180 C   0  0  0  0  0  3  0  0  0  0  0  0
   38.7440   26.4610   44.3510 H   0  0  0  0  0  0  0  0  0  0  0  0
   40.1900   25.2410   43.3220 C   0  0  0  0  0  3  0  0  0  0  0  0
   40.7710   25.1890   44.2820 H   0  0  0  0  0  0  0  0  0  0  0  0
   39.3720   24.0710   43.1670 N   0  0  0  0  0  0  0  0  0  0  0  0
   40.0080   23.2590   42.9750 H   0  0  0  0  0  0  0  0  0  0  0  0
   38.4110   24.2770   42.1210 C   0  0  0  0  0  2  0  0  0  0  0  0
   38.6210   25.5840   41.3910 C   0  0  0  0  0  2  0  0  0  0  0  0
  1 16  1  0  0  0  0
  1  2  1  0  0  0  0
  2  7  1  1  0  0  0
  3  2  1  0  0  0  0
  3  9  1  0  0  0  0
  4  3  1  0  0  0  0
  4 10  1  0  0  0  0
  5  4  1  0  0  0  0
  5 12  1  0  0  0  0
  6  5  1  0  0  0  0
  6  1  1  0  0  0  0
  8  3  1  0  0  0  0
 11  5  1  0  0  0  0
 13  6  1  0  0  0  0
 14  6  1  0  0  0  0
 15 20  2  0  0  0  0
 15 16  1  0  0  0  0
 16 17  2  0  0  0  0
 17 18  1  0  0  0  0
 17 22  1  0  0  0  0
 19 23  1  0  0  0  0
 19 18  2  0  0  0  0
 20 19  1  0  0  0  0
 21 15  1  0  0  0  0
 24 25  1  0  0  0  0
 24  2  1  0  0  0  0
 24 27  1  0  0  0  0
 26 24  1  0  0  0  0
 27 28  1  0  0  0  0
 28 29  1  0  0  0  0
 30 28  1  0  0  0  0
 30 31  1  0  0  0  0
 32 30  1  0  0  0  0
 33 32  1  0  0  0  0
 34 32  1  0  0  0  0
 35 34  1  0  0  0  0
 35 27  1  0  0  0  0
M  END
>  <minimizedAffinity>
-4.58487654

$$$$

 OpenBabel03252508353D

 35 37  0  0  1  0  0  0  0  0999 V2000
   38.3140   30.7280   41.1330 N   0  0  0  0  0  0  0  0  0  0  0  0
   37.0370   30.9070   40.4980 C   0  0  1  0  0  0  0  0  0  0  0  0
   36.8990   32.1470   39.6950 C   0  0  0  0  0  0  0  0  0  0  0  0
   37.5100   33.2760   40.2390 N   0  0  0  0  0  0  0  0  0  0  0  0
   38.6720   33.1320   41.0030 C   0  0  0  0  0  0  0  0  0  0  0  0
   39.2690   31.7470   40.8280 C   0  0  0  0  0  0  0  0  0  0  0  0
   36.2700   30.9020   41.2900 H   0  0  0  0  0  0  0  0  0  0  0  0
   37.3470   31.9510   38.6910 H   0  0  0  0  0  0  0  0  0  0  0  0
   35.8140   32.3570   39.5470 H   0  0  0  0  0  0  0  0  0  0  0  0
   37.0710   34.1850   40.1740 H   0  0  0  0  0  0  0  0  0  0  0  0
   39.4480   33.8560   40.6780 H   0  0  0  0  0  0  0  0  0  0  0  0
   38.5440   33.3390   42.1000 H   0  0  0  0  0  0  0  0  0  0  0  0
   39.7300   31.6530   39.8240 H   0  0  0  0  0  0  0  0  0  0  0  0
   40.1000   31.6640   41.5720 H   0  0  0  0  0  0  0  0  0  0  0  0
   39.6700   28.8840   41.7620 C   0  0  0  0  0  0  0  0  0  0  0  0
   38.4820   29.6040   41.9580 C   0  0  0  0  0  0  0  0  0  0  0  0
   37.5860   29.1580   42.9330 C   0  0  0  0  0  0  0  0  0  0  0  0
   37.8900   28.0480   43.6560 N   0  0  0  0  0  0  0  0  0  0  0  0
   39.0320   27.3760   43.4520 C   0  0  0  0  0  0  0  0  0  0  0  0
   39.9050   27.7760   42.5310 N   0  0  0  0  0  0  0  0  0  0  0  0
   40.4130   29.1760   41.0190 H   0  0  0  0  0  0  0  0  0  0  0  0
   36.6900   29.7380   43.0500 H   0  0  0  0  0  0  0  0  0  0  0  0
   39.2740   26.4790   44.0380 H   0  0  0  0  0  0  0  0  0  0  0  0
   36.7960   29.7340   39.5620 C   0  0  0  0  0  0  0  0  0  0  0  0
   35.7290   29.6990   39.2750 H   0  0  0  0  0  0  0  0  0  0  0  0
   36.9850   28.7700   40.0930 H   0  0  0  0  0  0  0  0  0  0  0  0
   37.5750   29.7860   38.3660 N   0  0  0  0  0  0  0  0  0  0  0  0
   36.7690   29.8520   37.1780 C   0  0  0  0  0  3  0  0  0  0  0  0
   37.0090   30.7670   36.5810 H   0  0  0  0  0  0  0  0  0  0  0  0
   36.9110   28.6350   36.2930 C   0  0  0  0  0  3  0  0  0  0  0  0
   36.2430   28.8250   35.4110 H   0  0  0  0  0  0  0  0  0  0  0  0
   38.2670   28.4410   35.8640 N   0  0  0  0  0  0  0  0  0  0  0  0
   38.3170   27.5170   35.3690 H   0  0  0  0  0  0  0  0  0  0  0  0
   39.1550   28.5120   36.9880 C   0  0  0  0  0  2  0  0  0  0  0  0
   38.4160   28.6210   38.3030 C   0  0  0  0  0  2  0  0  0  0  0  0
  1 16  1  0  0  0  0
  2  1  1  0  0  0  0
  2  7  1  1  0  0  0
  3  4  1  0  0  0  0
  3  2  1  0  0  0  0
  4  5  1  0  0  0  0
  5 12  1  0  0  0  0
  6  5  1  0  0  0  0
  6  1  1  0  0  0  0
  6 14  1  0  0  0  0
  8  3  1  0  0  0  0
  9  3  1  0  0  0  0
 10  4  1  0  0  0  0
 11  5  1  0  0  0  0
 13  6  1  0  0  0  0
 15 16  2  0  0  0  0
 15 20  1  0  0  0  0
 16 17  1  0  0  0  0
 17 22  1  0  0  0  0
 17 18  2  0  0  0  0
 19 18  1  0  0  0  0
 19 23  1  0  0  0  0
 20 19  2  0  0  0  0
 21 15  1  0  0  0  0
 24 26  1  0  0  0  0
 24  2  1  0  0  0  0
 25 24  1  0  0  0  0
 27 24  1  0  0  0  0
 28 27  1  0  0  0  0
 29 28  1  0  0  0  0
 30 28  1  0  0  0  0
 31 30  1  0  0  0  0
 32 30  1  0  0  0  0
 32 34  1  0  0  0  0
 33 32  1  0  0  0  0
 34 35  1  0  0  0  0
 35 27  1  0  0  0  0
M  END
>  <minimizedAffinity>
-4.58410597

$$$$

 OpenBabel03252508353D

 35 37  0  0  1  0  0  0  0  0999 V2000
   37.0630   28.2350   40.8620 N   0  0  0  0  0  0  0  0  0  0  0  0
   37.3640   29.4410   41.5830 C   0  0  1  0  0  0  0  0  0  0  0  0
   37.7470   29.2490   43.0030 C   0  0  0  0  0  0  0  0  0  0  0  0
   37.0410   28.2550   43.6790 N   0  0  0  0  0  0  0  0  0  0  0  0
   36.5860   27.1330   42.9800 C   0  0  0  0  0  0  0  0  0  0  0  0
   37.2510   27.0360   41.6180 C   0  0  0  0  0  0  0  0  0  0  0  0
   36.4710   30.0870   41.5350 H   0  0  0  0  0  0  0  0  0  0  0  0
   38.8340   28.9890   43.0270 H   0  0  0  0  0  0  0  0  0  0  0  0
   37.6190   30.2170   43.5420 H   0  0  0  0  0  0  0  0  0  0  0  0
   36.7640   28.3810   44.6440 H   0  0  0  0  0  0  0  0  0  0  0  0
   36.8410   26.2010   43.5250 H   0  0  0  0  0  0  0  0  0  0  0  0
   35.4720   27.0790   42.8470 H   0  0  0  0  0  0  0  0  0  0  0  0
   38.3110   26.7320   41.7300 H   0  0  0  0  0  0  0  0  0  0  0  0
   36.7350   26.2070   41.0720 H   0  0  0  0  0  0  0  0  0  0  0  0
   35.4100   29.0250   39.3530 C   0  0  0  0  0  0  0  0  0  0  0  0
   36.6310   28.3590   39.5310 C   0  0  0  0  0  0  0  0  0  0  0  0
   37.3030   27.8860   38.4010 C   0  0  0  0  0  0  0  0  0  0  0  0
   36.7560   28.0840   37.1720 N   0  0  0  0  0  0  0  0  0  0  0  0
   35.5880   28.7230   37.0260 C   0  0  0  0  0  0  0  0  0  0  0  0
   34.9240   29.1850   38.0830 N   0  0  0  0  0  0  0  0  0  0  0  0
   34.8330   29.4190   40.1900 H   0  0  0  0  0  0  0  0  0  0  0  0
   38.2340   27.3830   38.5830 H   0  0  0  0  0  0  0  0  0  0  0  0
   35.1480   28.8810   36.0310 H   0  0  0  0  0  0  0  0  0  0  0  0
   38.5240   30.1390   40.8930 C   0  0  0  0  0  0  0  0  0  0  0  0
   38.5660   29.8300   39.8320 H   0  0  0  0  0  0  0  0  0  0  0  0
   39.4940   29.8010   41.3310 H   0  0  0  0  0  0  0  0  0  0  0  0
   38.4450   31.5640   40.9370 N   0  0  0  0  0  0  0  0  0  0  0  0
   37.1770   32.0660   40.4870 C   0  0  0  0  0  3  0  0  0  0  0  0
   36.6840   32.6800   41.2820 H   0  0  0  0  0  0  0  0  0  0  0  0
   37.2750   32.8870   39.2220 C   0  0  0  0  0  3  0  0  0  0  0  0
   36.2270   33.2190   38.9950 H   0  0  0  0  0  0  0  0  0  0  0  0
   38.1370   34.0230   39.3870 N   0  0  0  0  0  0  0  0  0  0  0  0
   38.2640   34.4690   38.4450 H   0  0  0  0  0  0  0  0  0  0  0  0
   39.3800   33.6180   39.9760 C   0  0  0  0  0  2  0  0  0  0  0  0
   39.4910   32.1170   40.1190 C   0  0  0  0  0  2  0  0  0  0  0  0
  1  2  1  0  0  0  0
  1  6  1  0  0  0  0
  2  7  1  6  0  0  0
  2  3  1  0  0  0  0
  3  8  1  0  0  0  0
  3  9  1  0  0  0  0
  3  4  1  0  0  0  0
  4 10  1  0  0  0  0
  5 11  1  0  0  0  0
  5  4  1  0  0  0  0
  6 13  1  0  0  0  0
  6  5  1  0  0  0  0
 12  5  1  0  0  0  0
 14  6  1  0  0  0  0
 15 16  1  0  0  0  0
 15 21  1  0  0  0  0
 16  1  1  0  0  0  0
 17 22  1  0  0  0  0
 17 16  2  0  0  0  0
 18 17  1  0  0  0  0
 19 18  2  0  0  0  0
 19 20  1  0  0  0  0
 20 15  2  0  0  0  0
 23 19  1  0  0  0  0
 24 27  1  0  0  0  0
 24 26  1  0  0  0  0
 24  2  1  0  0  0  0
 25 24  1  0  0  0  0
 28 27  1  0  0  0  0
 28 29  1  0  0  0  0
 30 32  1  0  0  0  0
 30 28  1  0  0  0  0
 31 30  1  0  0  0  0
 32 34  1  0  0  0  0
 33 32  1  0  0  0  0
 34 35  1  0  0  0  0
 35 27  1  0  0  0  0
M  END
>  <minimizedAffinity>
-4.56153965

$$$$

 OpenBabel03252508353D

 35 37  0  0  1  0  0  0  0  0999 V2000
   36.6620   28.9510   40.2480 N   0  0  0  0  0  0  0  0  0  0  0  0
   37.4210   29.1140   39.0390 C   0  0  1  0  0  0  0  0  0  0  0  0
   36.6830   29.7270   37.9080 C   0  0  0  0  0  0  0  0  0  0  0  0
   35.3520   29.3290   37.7830 N   0  0  0  0  0  0  0  0  0  0  0  0
   34.6180   29.0040   38.9280 C   0  0  0  0  0  0  0  0  0  0  0  0
   35.3330   29.4730   40.1830 C   0  0  0  0  0  0  0  0  0  0  0  0
   37.7810   28.1160   38.7370 H   0  0  0  0  0  0  0  0  0  0  0  0
   36.7090   30.8350   38.0480 H   0  0  0  0  0  0  0  0  0  0  0  0
   37.2230   29.4930   36.9600 H   0  0  0  0  0  0  0  0  0  0  0  0
   34.9410   29.1750   36.8730 H   0  0  0  0  0  0  0  0  0  0  0  0
   33.6300   29.5100   38.9170 H   0  0  0  0  0  0  0  0  0  0  0  0
   34.3690   27.9140   39.0350 H   0  0  0  0  0  0  0  0  0  0  0  0
   35.2740   30.5770   40.2670 H   0  0  0  0  0  0  0  0  0  0  0  0
   34.7620   29.0530   41.0480 H   0  0  0  0  0  0  0  0  0  0  0  0
   37.3220   29.0550   42.5260 C   0  0  0  0  0  0  0  0  0  0  0  0
   37.2900   28.3170   41.3340 C   0  0  0  0  0  0  0  0  0  0  0  0
   37.8670   27.0460   41.3220 C   0  0  0  0  0  0  0  0  0  0  0  0
   38.4390   26.5650   42.4570 N   0  0  0  0  0  0  0  0  0  0  0  0
   38.4580   27.2880   43.5860 C   0  0  0  0  0  0  0  0  0  0  0  0
   37.9170   28.5030   43.6290 N   0  0  0  0  0  0  0  0  0  0  0  0
   36.8910   30.0540   42.6070 H   0  0  0  0  0  0  0  0  0  0  0  0
   37.8200   26.5160   40.3890 H   0  0  0  0  0  0  0  0  0  0  0  0
   38.9230   26.8970   44.5020 H   0  0  0  0  0  0  0  0  0  0  0  0
   38.6150   30.0070   39.3350 C   0  0  0  0  0  0  0  0  0  0  0  0
   39.4860   29.6720   38.7430 H   0  0  0  0  0  0  0  0  0  0  0  0
   38.9280   29.8920   40.4010 H   0  0  0  0  0  0  0  0  0  0  0  0
   38.3850   31.3860   39.0460 N   0  0  0  0  0  0  0  0  0  0  0  0
   39.4700   31.9940   38.3280 C   0  0  0  0  0  3  0  0  0  0  0  0
   39.1180   32.4190   37.3540 H   0  0  0  0  0  0  0  0  0  0  0  0
   40.1730   33.0770   39.1120 C   0  0  0  0  0  3  0  0  0  0  0  0
   40.9800   33.4650   38.4350 H   0  0  0  0  0  0  0  0  0  0  0  0
   39.2770   34.1360   39.4840 N   0  0  0  0  0  0  0  0  0  0  0  0
   39.7930   34.7800   40.1310 H   0  0  0  0  0  0  0  0  0  0  0  0
   38.0900   33.5920   40.0780 C   0  0  0  0  0  2  0  0  0  0  0  0
   38.1780   32.0960   40.2800 C   0  0  0  0  0  2  0  0  0  0  0  0
  1 16  1  0  0  0  0
  2  7  1  6  0  0  0
  2 24  1  0  0  0  0
  2  1  1  0  0  0  0
  3  8  1  0  0  0  0
  3  2  1  0  0  0  0
  4  3  1  0  0  0  0
  4  5  1  0  0  0  0
  5 12  1  0  0  0  0
  5  6  1  0  0  0  0
  6  1  1  0  0  0  0
  6 13  1  0  0  0  0
  6 14  1  0  0  0  0
  9  3  1  0  0  0  0
 10  4  1  0  0  0  0
 11  5  1  0  0  0  0
 15 21  1  0  0  0  0
 15 20  1  0  0  0  0
 16 15  2  0  0  0  0
 17 16  1  0  0  0  0
 17 18  2  0  0  0  0
 18 19  1  0  0  0  0
 19 20  2  0  0  0  0
 19 23  1  0  0  0  0
 22 17  1  0  0  0  0
 24 26  1  0  0  0  0
 25 24  1  0  0  0  0
 27 24  1  0  0  0  0
 27 35  1  0  0  0  0
 28 27  1  0  0  0  0
 28 30  1  0  0  0  0
 29 28  1  0  0  0  0
 30 32  1  0  0  0  0
 31 30  1  0  0  0  0
 32 34  1  0  0  0  0
 32 33  1  0  0  0  0
 34 35  1  0  0  0  0
M  END
>  <minimizedAffinity>
-4.54342651

$$$$

 OpenBabel03252508353D

 35 37  0  0  1  0  0  0  0  0999 V2000
   37.1270   30.6020   39.3620 N   0  0  0  0  0  0  0  0  0  0  0  0
   36.1790   30.2460   40.3830 C   0  0  1  0  0  0  0  0  0  0  0  0
   35.2770   29.1180   40.0410 C   0  0  0  0  0  0  0  0  0  0  0  0
   34.8380   29.0910   38.7180 N   0  0  0  0  0  0  0  0  0  0  0  0
   35.6680   29.5790   37.7040 C   0  0  0  0  0  0  0  0  0  0  0  0
   37.0890   29.7620   38.2060 C   0  0  0  0  0  0  0  0  0  0  0  0
   35.5720   31.1410   40.5980 H   0  0  0  0  0  0  0  0  0  0  0  0
   35.8280   28.1690   40.2510 H   0  0  0  0  0  0  0  0  0  0  0  0
   34.3910   29.1520   40.7170 H   0  0  0  0  0  0  0  0  0  0  0  0
   33.8910   28.8180   38.4920 H   0  0  0  0  0  0  0  0  0  0  0  0
   35.7190   28.8610   36.8590 H   0  0  0  0  0  0  0  0  0  0  0  0
   35.3210   30.5370   37.2310 H   0  0  0  0  0  0  0  0  0  0  0  0
   37.5760   28.7750   38.3460 H   0  0  0  0  0  0  0  0  0  0  0  0
   37.6490   30.2840   37.3900 H   0  0  0  0  0  0  0  0  0  0  0  0
   37.3180   32.9440   39.6960 C   0  0  0  0  0  0  0  0  0  0  0  0
   37.9650   31.7040   39.6040 C   0  0  0  0  0  0  0  0  0  0  0  0
   39.3520   31.6630   39.7580 C   0  0  0  0  0  0  0  0  0  0  0  0
   40.0290   32.8190   39.9880 N   0  0  0  0  0  0  0  0  0  0  0  0
   39.3890   33.9940   40.0720 C   0  0  0  0  0  0  0  0  0  0  0  0
   38.0680   34.0650   39.9300 N   0  0  0  0  0  0  0  0  0  0  0  0
   36.2380   33.0490   39.5860 H   0  0  0  0  0  0  0  0  0  0  0  0
   39.8070   30.6930   39.6800 H   0  0  0  0  0  0  0  0  0  0  0  0
   39.9400   34.9270   40.2590 H   0  0  0  0  0  0  0  0  0  0  0  0
   36.9450   29.8470   41.6340 C   0  0  0  0  0  0  0  0  0  0  0  0
   36.3570   30.1120   42.5310 H   0  0  0  0  0  0  0  0  0  0  0  0
   37.8860   30.4430   41.7170 H   0  0  0  0  0  0  0  0  0  0  0  0
   37.2500   28.4530   41.6990 N   0  0  0  0  0  0  0  0  0  0  0  0
   37.0120   27.8910   42.9990 C   0  0  0  0  0  3  0  0  0  0  0  0
   36.2800   27.0470   42.9430 H   0  0  0  0  0  0  0  0  0  0  0  0
   38.2710   27.4050   43.6800 C   0  0  0  0  0  3  0  0  0  0  0  0
   37.9390   26.9880   44.6670 H   0  0  0  0  0  0  0  0  0  0  0  0
   38.9410   26.3970   42.9080 N   0  0  0  0  0  0  0  0  0  0  0  0
   39.8640   26.2020   43.3670 H   0  0  0  0  0  0  0  0  0  0  0  0
   39.0830   26.8300   41.5470 C   0  0  0  0  0  2  0  0  0  0  0  0
   38.6310   28.2580   41.3450 C   0  0  0  0  0  2  0  0  0  0  0  0
  1 16  1  0  0  0  0
  1  2  1  0  0  0  0
  2  7  1  1  0  0  0
  2 24  1  0  0  0  0
  3  8  1  0  0  0  0
  3  2  1  0  0  0  0
  3  9  1  0  0  0  0
  4  3  1  0  0  0  0
  5  6  1  0  0  0  0
  5  4  1  0  0  0  0
  6 13  1  0  0  0  0
  6  1  1  0  0  0  0
 10  4  1  0  0  0  0
 11  5  1  0  0  0  0
 12  5  1  0  0  0  0
 14  6  1  0  0  0  0
 15 20  1  0  0  0  0
 16 15  2  0  0  0  0
 16 17  1  0  0  0  0
 17 18  2  0  0  0  0
 18 19  1  0  0  0  0
 19 23  1  0  0  0  0
 20 19  2  0  0  0  0
 21 15  1  0  0  0  0
 22 17  1  0  0  0  0
 24 27  1  0  0  0  0
 24 26  1  0  0  0  0
 24 25  1  0  0  0  0
 27 28  1  0  0  0  0
 28 30  1  0  0  0  0
 29 28  1  0  0  0  0
 30 31  1  0  0  0  0
 32 33  1  0  0  0  0
 32 30  1  0  0  0  0
 34 32  1  0  0  0  0
 35 34  1  0  0  0  0
 35 27  1  0  0  0  0
M  END
>  <minimizedAffinity>
-4.52055264

$$$$

 OpenBabel03252508353D

 35 37  0  0  1  0  0  0  0  0999 V2000
   37.4130   29.1000   39.5270 N   0  0  0  0  0  0  0  0  0  0  0  0
   37.5050   30.5340   39.5830 C   0  0  1  0  0  0  0  0  0  0  0  0
   36.7590   31.1710   40.6960 C   0  0  0  0  0  0  0  0  0  0  0  0
   35.5240   30.5940   40.9890 N   0  0  0  0  0  0  0  0  0  0  0  0
   35.3380   29.2220   40.7950 C   0  0  0  0  0  0  0  0  0  0  0  0
   36.6690   28.5160   40.5990 C   0  0  0  0  0  0  0  0  0  0  0  0
   37.1290   30.9280   38.6240 H   0  0  0  0  0  0  0  0  0  0  0  0
   37.4010   31.1150   41.6090 H   0  0  0  0  0  0  0  0  0  0  0  0
   36.6090   32.2490   40.4540 H   0  0  0  0  0  0  0  0  0  0  0  0
   34.7310   31.1680   41.2420 H   0  0  0  0  0  0  0  0  0  0  0  0
   34.8620   28.7610   41.6850 H   0  0  0  0  0  0  0  0  0  0  0  0
   34.6540   28.9540   39.9460 H   0  0  0  0  0  0  0  0  0  0  0  0
   37.2200   28.4660   41.5600 H   0  0  0  0  0  0  0  0  0  0  0  0
   36.4290   27.4630   40.3100 H   0  0  0  0  0  0  0  0  0  0  0  0
   38.9620   27.4480   38.8180 C   0  0  0  0  0  0  0  0  0  0  0  0
   38.0460   28.4460   38.4570 C   0  0  0  0  0  0  0  0  0  0  0  0
   37.8400   28.7020   37.0990 C   0  0  0  0  0  0  0  0  0  0  0  0
   38.5310   27.9810   36.1760 N   0  0  0  0  0  0  0  0  0  0  0  0
   39.4020   27.0320   36.5450 C   0  0  0  0  0  0  0  0  0  0  0  0
   39.6190   26.7650   37.8300 N   0  0  0  0  0  0  0  0  0  0  0  0
   39.1710   27.1960   39.8580 H   0  0  0  0  0  0  0  0  0  0  0  0
   37.1300   29.4730   36.8670 H   0  0  0  0  0  0  0  0  0  0  0  0
   39.9580   26.4520   35.7950 H   0  0  0  0  0  0  0  0  0  0  0  0
   38.9670   30.9160   39.7430 C   0  0  0  0  0  0  0  0  0  0  0  0
   39.6090   30.0930   39.3780 H   0  0  0  0  0  0  0  0  0  0  0  0
   39.2220   31.0250   40.8240 H   0  0  0  0  0  0  0  0  0  0  0  0
   39.3290   32.1060   39.0400 N   0  0  0  0  0  0  0  0  0  0  0  0
   39.5520   31.8800   37.6400 C   0  0  0  0  0  3  0  0  0  0  0  0
   38.8740   32.5160   37.0180 H   0  0  0  0  0  0  0  0  0  0  0  0
   40.9820   32.1250   37.2160 C   0  0  0  0  0  3  0  0  0  0  0  0
   41.0090   31.9230   36.1120 H   0  0  0  0  0  0  0  0  0  0  0  0
   41.3980   33.4710   37.4910 N   0  0  0  0  0  0  0  0  0  0  0  0
   42.4280   33.5350   37.2980 H   0  0  0  0  0  0  0  0  0  0  0  0
   41.0680   33.8230   38.8420 C   0  0  0  0  0  2  0  0  0  0  0  0
   40.5220   32.6530   39.6280 C   0  0  0  0  0  2  0  0  0  0  0  0
  1  2  1  0  0  0  0
  1  6  1  0  0  0  0
  2  7  1  6  0  0  0
  2 24  1  0  0  0  0
  2  3  1  0  0  0  0
  3  4  1  0  0  0  0
  3  8  1  0  0  0  0
  4 10  1  0  0  0  0
  5  4  1  0  0  0  0
  5 11  1  0  0  0  0
  6  5  1  0  0  0  0
  6 13  1  0  0  0  0
  9  3  1  0  0  0  0
 12  5  1  0  0  0  0
 14  6  1  0  0  0  0
 15 21  1  0  0  0  0
 16 15  1  0  0  0  0
 16  1  1  0  0  0  0
 17 16  2  0  0  0  0
 18 19  2  0  0  0  0
 18 17  1  0  0  0  0
 19 20  1  0  0  0  0
 20 15  2  0  0  0  0
 22 17  1  0  0  0  0
 23 19  1  0  0  0  0
 24 26  1  0  0  0  0
 25 24  1  0  0  0  0
 27 35  1  0  0  0  0
 27 24  1  0  0  0  0
 28 27  1  0  0  0  0
 29 28  1  0  0  0  0
 30 32  1  0  0  0  0
 30 28  1  0  0  0  0
 31 30  1  0  0  0  0
 32 34  1  0  0  0  0
 33 32  1  0  0  0  0
 34 35  1  0  0  0  0
M  END
>  <minimizedAffinity>
-4.5009532

$$$$
