
 OpenBabel03252508373D

 41 44  0  0  0  0  0  0  0  0999 V2000
   45.0220   34.0310   40.8080 C   0  0  0  0  0  0  0  0  0  0  0  0
   43.9730   33.6620   39.9910 C   0  0  0  0  0  0  0  0  0  0  0  0
   44.2790   33.0800   38.7950 C   0  0  0  0  0  0  0  0  0  0  0  0
   45.5560   32.8430   38.3600 C   0  0  0  0  0  0  0  0  0  0  0  0
   46.5890   33.2200   39.1940 C   0  0  0  0  0  0  0  0  0  0  0  0
   46.3320   33.8130   40.4160 C   0  0  0  0  0  0  0  0  0  0  0  0
   43.4350   32.8000   38.1700 H   0  0  0  0  0  0  0  0  0  0  0  0
   45.6920   32.3740   37.3930 H   0  0  0  0  0  0  0  0  0  0  0  0
   47.6060   33.0270   38.8440 H   0  0  0  0  0  0  0  0  0  0  0  0
   40.7250   35.3730   40.8310 C   0  0  0  0  0  0  0  0  0  0  0  0
   42.0250   35.1720   40.3310 C   0  0  0  0  0  0  0  0  0  0  0  0
   42.6380   33.9260   40.4850 C   0  0  0  0  0  0  0  0  0  0  0  0
   41.8960   32.9820   41.1320 N   0  0  0  0  0  0  0  0  0  0  0  0
   40.6650   33.1970   41.5970 C   0  0  0  0  0  0  0  0  0  0  0  0
   40.0800   34.3890   41.4480 N   0  0  0  0  0  0  0  0  0  0  0  0
   40.1540   36.6570   40.6450 N   0  0  0  0  0  0  0  0  0  0  0  0
   42.5490   35.9780   39.8270 H   0  0  0  0  0  0  0  0  0  0  0  0
   40.0890   32.4350   42.1070 H   0  0  0  0  0  0  0  0  0  0  0  0
   40.1700   37.1490   39.7340 H   0  0  0  0  0  0  0  0  0  0  0  0
   39.6800   37.1910   41.4190 H   0  0  0  0  0  0  0  0  0  0  0  0
   47.4860   34.1710   41.2120 C   0  0  0  0  0  0  0  0  0  0  0  0
   48.1150   35.3500   40.8410 C   0  0  0  0  0  0  0  0  0  0  0  0
   49.2440   35.8630   41.4880 C   0  0  0  0  0  0  0  0  0  0  0  0
   49.7490   35.1550   42.5470 C   0  0  0  0  0  0  0  0  0  0  0  0
   49.1410   33.9890   42.9270 C   0  0  0  0  0  0  0  0  0  0  0  0
   48.0170   33.4910   42.2730 C   0  0  0  0  0  0  0  0  0  0  0  0
   47.7600   35.9580   40.0060 H   0  0  0  0  0  0  0  0  0  0  0  0
   49.6980   36.7880   41.1590 H   0  0  0  0  0  0  0  0  0  0  0  0
   50.6200   35.5420   43.0550 H   0  0  0  0  0  0  0  0  0  0  0  0
   49.5640   33.4540   43.7670 H   0  0  0  0  0  0  0  0  0  0  0  0
   47.3850   32.2810   42.6600 N   0  0  0  0  0  0  0  0  0  0  0  0
   46.7830   31.1710   41.8990 C   0  0  0  0  0  0  0  0  0  0  0  0
   46.3330   31.5150   40.9550 H   0  0  0  0  0  0  0  0  0  0  0  0
   45.7540   30.4650   42.7800 C   0  0  0  0  0  0  0  0  0  0  0  0
   45.0270   29.9930   42.0940 H   0  0  0  0  0  0  0  0  0  0  0  0
   45.0270   31.4060   43.5970 N   0  0  0  0  0  0  0  0  0  0  0  0
   44.2250   30.9210   44.0530 H   0  0  0  0  0  0  0  0  0  0  0  0
   45.8580   32.1470   44.5160 C   0  0  0  0  0  0  0  0  0  0  0  0
   47.2880   32.0490   44.0910 C   0  0  0  0  0  0  0  0  0  0  0  0
   44.6160   35.1400   43.1290 N   0  0  0  0  0  0  0  0  0  0  0  0
   44.7940   34.6480   42.0770 C   0  0  0  0  0  0  0  0  0  0  0  0
  1 41  1  0  0  0  0
  2 12  1  0  0  0  0
  2  1  2  0  0  0  0
  3  2  1  0  0  0  0
  4  3  2  0  0  0  0
  4  5  1  0  0  0  0
  5  6  2  0  0  0  0
  6  1  1  0  0  0  0
  6 21  1  0  0  0  0
  7  3  1  0  0  0  0
  8  4  1  0  0  0  0
  9  5  1  0  0  0  0
 10 15  1  0  0  0  0
 11 12  1  0  0  0  0
 11 10  2  0  0  0  0
 12 13  2  0  0  0  0
 13 14  1  0  0  0  0
 14 18  1  0  0  0  0
 15 14  2  0  0  0  0
 16 10  1  0  0  0  0
 16 20  1  0  0  0  0
 17 11  1  0  0  0  0
 19 16  1  0  0  0  0
 21 26  1  0  0  0  0
 22 21  2  0  0  0  0
 22 23  1  0  0  0  0
 23 24  2  0  0  0  0
 24 25  1  0  0  0  0
 24 29  1  0  0  0  0
 25 30  1  0  0  0  0
 26 31  1  0  0  0  0
 26 25  2  0  0  0  0
 27 22  1  0  0  0  0
 28 23  1  0  0  0  0
 31 39  1  0  0  0  0
 32 31  1  0  0  0  0
 32 34  1  0  0  0  0
 33 32  1  0  0  0  0
 34 36  1  0  0  0  0
 35 34  1  0  0  0  0
 36 37  1  0  0  0  0
 36 38  1  0  0  0  0
 39 38  1  0  0  0  0
 41 40  3  0  0  0  0
M  END
>  <minimizedAffinity>
-6.27150536

>  <minimizedRMSD>
0.647233486

$$$$
