
 OpenBabel03252508573D

 24 25  0  0  0  0  0  0  0  0999 V2000
   37.9160   28.7980   43.3200 C   0  0  0  0  0  0  0  0  0  0  0  0
   36.8970   29.0130   42.9430 H   0  0  0  0  0  0  0  0  0  0  0  0
   37.9170   29.0050   44.4080 H   0  0  0  0  0  0  0  0  0  0  0  0
   39.8900   25.5780   43.4800 C   0  0  0  0  0  0  0  0  0  0  0  0
   39.5230   26.9340   43.6780 C   0  0  0  0  0  0  0  0  0  0  0  0
   38.3280   27.3940   43.1340 C   0  0  0  0  0  0  0  0  0  0  0  0
   37.5720   26.4950   42.4300 N   0  0  0  0  0  0  0  0  0  0  0  0
   37.9440   25.2110   42.2560 C   0  0  0  0  0  0  0  0  0  0  0  0
   39.0810   24.7600   42.7710 N   0  0  0  0  0  0  0  0  0  0  0  0
   40.8230   25.2370   43.9110 H   0  0  0  0  0  0  0  0  0  0  0  0
   40.1820   27.5620   44.2460 H   0  0  0  0  0  0  0  0  0  0  0  0
   37.2270   24.6430   41.6740 H   0  0  0  0  0  0  0  0  0  0  0  0
   38.9350   29.6940   42.6420 C   0  0  0  0  0  0  0  0  0  0  0  0
   39.7980   29.0920   42.3060 H   0  0  0  0  0  0  0  0  0  0  0  0
   39.2070   30.5350   43.3120 H   0  0  0  0  0  0  0  0  0  0  0  0
   38.3680   30.3450   41.4580 N   0  0  0  0  0  0  0  0  0  0  0  0
   38.9570   31.6470   41.4250 C   0  0  0  0  0  3  0  0  0  0  0  0
   39.0310   32.0330   42.4790 H   0  0  0  0  0  0  0  0  0  0  0  0
   38.2770   32.6390   40.5320 C   0  0  0  0  0  3  0  0  0  0  0  0
   38.7710   32.6080   39.5390 H   0  0  0  0  0  0  0  0  0  0  0  0
   36.8580   32.4840   40.4230 N   0  0  0  0  0  0  0  0  0  0  0  0
   36.3210   32.9140   41.1820 H   0  0  0  0  0  0  0  0  0  0  0  0
   36.4760   31.1070   40.2490 C   0  0  0  0  0  2  0  0  0  0  0  0
   36.9300   30.3560   41.4910 C   0  0  0  0  0  2  0  0  0  0  0  0
  1  3  1  0  0  0  0
  2  1  1  0  0  0  0
  4  5  1  0  0  0  0
  4 10  1  0  0  0  0
  5 11  1  0  0  0  0
  6  1  1  0  0  0  0
  6  5  2  0  0  0  0
  7  6  1  0  0  0  0
  8  7  2  0  0  0  0
  8  9  1  0  0  0  0
  9  4  2  0  0  0  0
 12  8  1  0  0  0  0
 13 15  1  0  0  0  0
 13  1  1  0  0  0  0
 14 13  1  0  0  0  0
 16 24  1  0  0  0  0
 16 13  1  0  0  0  0
 17 16  1  0  0  0  0
 17 18  1  0  0  0  0
 19 17  1  0  0  0  0
 20 19  1  0  0  0  0
 21 19  1  0  0  0  0
 21 22  1  0  0  0  0
 23 21  1  0  0  0  0
 23 24  1  0  0  0  0
M  END
>  <minimizedAffinity>
-4.42179441

$$$$

 OpenBabel03252508573D

 24 25  0  0  0  0  0  0  0  0999 V2000
   36.4230   30.7850   41.0200 C   0  0  0  0  0  0  0  0  0  0  0  0
   35.8220   30.4970   40.1370 H   0  0  0  0  0  0  0  0  0  0  0  0
   35.7520   31.3290   41.7140 H   0  0  0  0  0  0  0  0  0  0  0  0
   36.9140   27.3100   42.4240 C   0  0  0  0  0  0  0  0  0  0  0  0
   36.3480   28.3970   41.7080 C   0  0  0  0  0  0  0  0  0  0  0  0
   36.9840   29.6350   41.7520 C   0  0  0  0  0  0  0  0  0  0  0  0
   38.1300   29.7250   42.4950 N   0  0  0  0  0  0  0  0  0  0  0  0
   38.6460   28.6770   43.1660 C   0  0  0  0  0  0  0  0  0  0  0  0
   38.0500   27.4910   43.1320 N   0  0  0  0  0  0  0  0  0  0  0  0
   36.4060   26.3540   42.3790 H   0  0  0  0  0  0  0  0  0  0  0  0
   35.4470   28.2270   41.1530 H   0  0  0  0  0  0  0  0  0  0  0  0
   39.5560   28.9290   43.7010 H   0  0  0  0  0  0  0  0  0  0  0  0
   37.5640   31.7010   40.6130 C   0  0  0  0  0  0  0  0  0  0  0  0
   38.4050   31.5870   41.3190 H   0  0  0  0  0  0  0  0  0  0  0  0
   37.1970   32.7420   40.5130 H   0  0  0  0  0  0  0  0  0  0  0  0
   38.0650   31.3640   39.2770 N   0  0  0  0  0  0  0  0  0  0  0  0
   39.4260   31.8010   39.2650 C   0  0  0  0  0  3  0  0  0  0  0  0
   39.4940   32.7750   39.8230 H   0  0  0  0  0  0  0  0  0  0  0  0
   40.0550   31.9090   37.9100 C   0  0  0  0  0  3  0  0  0  0  0  0
   40.5680   30.9510   37.6880 H   0  0  0  0  0  0  0  0  0  0  0  0
   39.1630   32.2880   36.8560 N   0  0  0  0  0  0  0  0  0  0  0  0
   38.9990   33.2960   36.7760 H   0  0  0  0  0  0  0  0  0  0  0  0
   37.9140   31.5750   36.9210 C   0  0  0  0  0  2  0  0  0  0  0  0
   37.2550   31.9470   38.2410 C   0  0  0  0  0  2  0  0  0  0  0  0
  1  3  1  0  0  0  0
  1  6  1  0  0  0  0
  2  1  1  0  0  0  0
  4  9  1  0  0  0  0
  5  6  1  0  0  0  0
  5  4  2  0  0  0  0
  6  7  2  0  0  0  0
  7  8  1  0  0  0  0
  8 12  1  0  0  0  0
  9  8  2  0  0  0  0
 10  4  1  0  0  0  0
 11  5  1  0  0  0  0
 13  1  1  0  0  0  0
 13 14  1  0  0  0  0
 15 13  1  0  0  0  0
 16 13  1  0  0  0  0
 17 16  1  0  0  0  0
 17 18  1  0  0  0  0
 19 17  1  0  0  0  0
 20 19  1  0  0  0  0
 21 23  1  0  0  0  0
 21 19  1  0  0  0  0
 22 21  1  0  0  0  0
 23 24  1  0  0  0  0
 24 16  1  0  0  0  0
M  END
>  <minimizedAffinity>
-4.22590542

$$$$

 OpenBabel03252508573D

 24 25  0  0  0  0  0  0  0  0999 V2000
   37.6890   28.5240   43.6060 C   0  0  0  0  0  0  0  0  0  0  0  0
   38.5720   28.2590   44.2200 H   0  0  0  0  0  0  0  0  0  0  0  0
   36.9010   28.8820   44.2960 H   0  0  0  0  0  0  0  0  0  0  0  0
   39.4190   31.2520   41.6410 C   0  0  0  0  0  0  0  0  0  0  0  0
   39.1990   30.2180   42.5880 C   0  0  0  0  0  0  0  0  0  0  0  0
   37.9520   29.6020   42.6340 C   0  0  0  0  0  0  0  0  0  0  0  0
   37.0030   30.0410   41.7500 N   0  0  0  0  0  0  0  0  0  0  0  0
   37.2370   31.0250   40.8600 C   0  0  0  0  0  0  0  0  0  0  0  0
   38.4230   31.6200   40.8060 N   0  0  0  0  0  0  0  0  0  0  0  0
   40.3950   31.7200   41.6190 H   0  0  0  0  0  0  0  0  0  0  0  0
   40.0060   29.9440   43.2380 H   0  0  0  0  0  0  0  0  0  0  0  0
   36.3740   31.2430   40.2400 H   0  0  0  0  0  0  0  0  0  0  0  0
   37.1790   27.3090   42.8540 C   0  0  0  0  0  0  0  0  0  0  0  0
   36.7090   27.6270   41.9060 H   0  0  0  0  0  0  0  0  0  0  0  0
   36.5120   26.7110   43.5070 H   0  0  0  0  0  0  0  0  0  0  0  0
   38.2720   26.3940   42.5160 N   0  0  0  0  0  0  0  0  0  0  0  0
   37.6350   25.1750   42.1250 C   0  0  0  0  0  3  0  0  0  0  0  0
   36.7480   25.0040   42.7950 H   0  0  0  0  0  0  0  0  0  0  0  0
   38.5230   23.9700   42.0840 C   0  0  0  0  0  3  0  0  0  0  0  0
   38.9160   23.8630   41.0520 H   0  0  0  0  0  0  0  0  0  0  0  0
   39.5750   23.9570   43.0540 N   0  0  0  0  0  0  0  0  0  0  0  0
   39.2960   23.6260   43.9830 H   0  0  0  0  0  0  0  0  0  0  0  0
   40.2380   25.2310   43.1500 C   0  0  0  0  0  2  0  0  0  0  0  0
   39.1990   26.2440   43.6050 C   0  0  0  0  0  2  0  0  0  0  0  0
  1  2  1  0  0  0  0
  1  3  1  0  0  0  0
  4  5  1  0  0  0  0
  5  6  2  0  0  0  0
  5 11  1  0  0  0  0
  6  1  1  0  0  0  0
  7  6  1  0  0  0  0
  8  7  2  0  0  0  0
  9  8  1  0  0  0  0
  9  4  2  0  0  0  0
 10  4  1  0  0  0  0
 12  8  1  0  0  0  0
 13 15  1  0  0  0  0
 13  1  1  0  0  0  0
 14 13  1  0  0  0  0
 16 13  1  0  0  0  0
 16 24  1  0  0  0  0
 17 16  1  0  0  0  0
 17 18  1  0  0  0  0
 19 17  1  0  0  0  0
 19 21  1  0  0  0  0
 20 19  1  0  0  0  0
 21 23  1  0  0  0  0
 21 22  1  0  0  0  0
 23 24  1  0  0  0  0
M  END
>  <minimizedAffinity>
-4.04965496

$$$$

 OpenBabel03252508573D

 24 25  0  0  0  0  0  0  0  0999 V2000
   37.4310   28.6520   42.9970 C   0  0  0  0  0  0  0  0  0  0  0  0
   37.1320   28.9210   44.0290 H   0  0  0  0  0  0  0  0  0  0  0  0
   36.6140   28.0410   42.5640 H   0  0  0  0  0  0  0  0  0  0  0  0
   36.7890   31.4430   40.5280 C   0  0  0  0  0  0  0  0  0  0  0  0
   36.5670   30.3170   41.3650 C   0  0  0  0  0  0  0  0  0  0  0  0
   37.6260   29.8200   42.1180 C   0  0  0  0  0  0  0  0  0  0  0  0
   38.8320   30.4570   42.0020 N   0  0  0  0  0  0  0  0  0  0  0  0
   39.0160   31.5240   41.2000 C   0  0  0  0  0  0  0  0  0  0  0  0
   38.0140   32.0090   40.4770 N   0  0  0  0  0  0  0  0  0  0  0  0
   35.9530   31.8160   39.9500 H   0  0  0  0  0  0  0  0  0  0  0  0
   35.5850   29.8870   41.3890 H   0  0  0  0  0  0  0  0  0  0  0  0
   40.0330   31.9010   41.2310 H   0  0  0  0  0  0  0  0  0  0  0  0
   38.7100   27.8370   43.0090 C   0  0  0  0  0  0  0  0  0  0  0  0
   39.3220   28.1130   43.8860 H   0  0  0  0  0  0  0  0  0  0  0  0
   39.2390   27.9460   42.0400 H   0  0  0  0  0  0  0  0  0  0  0  0
   38.4270   26.4020   43.1060 N   0  0  0  0  0  0  0  0  0  0  0  0
   39.6940   25.7830   43.3370 C   0  0  0  0  0  3  0  0  0  0  0  0
   40.4690   26.3120   42.7160 H   0  0  0  0  0  0  0  0  0  0  0  0
   39.7380   24.3030   43.1110 C   0  0  0  0  0  3  0  0  0  0  0  0
   39.5380   23.7980   44.0780 H   0  0  0  0  0  0  0  0  0  0  0  0
   38.8750   23.8220   42.0750 N   0  0  0  0  0  0  0  0  0  0  0  0
   39.2570   23.9010   41.1280 H   0  0  0  0  0  0  0  0  0  0  0  0
   37.5650   24.4150   42.1430 C   0  0  0  0  0  2  0  0  0  0  0  0
   37.7410   25.9130   41.9410 C   0  0  0  0  0  2  0  0  0  0  0  0
  1 13  1  0  0  0  0
  1  2  1  0  0  0  0
  3  1  1  0  0  0  0
  4  5  1  0  0  0  0
  5 11  1  0  0  0  0
  5  6  2  0  0  0  0
  6  1  1  0  0  0  0
  7  6  1  0  0  0  0
  8 12  1  0  0  0  0
  8  7  2  0  0  0  0
  9  4  2  0  0  0  0
  9  8  1  0  0  0  0
 10  4  1  0  0  0  0
 13 16  1  0  0  0  0
 13 14  1  0  0  0  0
 15 13  1  0  0  0  0
 16 17  1  0  0  0  0
 18 17  1  0  0  0  0
 19 17  1  0  0  0  0
 19 20  1  0  0  0  0
 21 23  1  0  0  0  0
 21 19  1  0  0  0  0
 22 21  1  0  0  0  0
 24 23  1  0  0  0  0
 24 16  1  0  0  0  0
M  END
>  <minimizedAffinity>
-4.04819632

$$$$

 OpenBabel03252508573D

 24 25  0  0  0  0  0  0  0  0999 V2000
   38.3900   28.4110   43.3480 C   0  0  0  0  0  0  0  0  0  0  0  0
   37.3100   28.6520   43.4050 H   0  0  0  0  0  0  0  0  0  0  0  0
   38.8440   28.6940   44.3180 H   0  0  0  0  0  0  0  0  0  0  0  0
   40.0280   25.0060   43.4500 C   0  0  0  0  0  0  0  0  0  0  0  0
   39.7950   26.3870   43.6800 C   0  0  0  0  0  0  0  0  0  0  0  0
   38.6620   26.9790   43.1290 C   0  0  0  0  0  0  0  0  0  0  0  0
   37.8340   26.1790   42.3890 N   0  0  0  0  0  0  0  0  0  0  0  0
   38.0780   24.8700   42.1850 C   0  0  0  0  0  0  0  0  0  0  0  0
   39.1540   24.2930   42.7060 N   0  0  0  0  0  0  0  0  0  0  0  0
   40.9140   24.5620   43.8860 H   0  0  0  0  0  0  0  0  0  0  0  0
   40.5030   26.9300   44.2750 H   0  0  0  0  0  0  0  0  0  0  0  0
   37.3180   24.3910   41.5760 H   0  0  0  0  0  0  0  0  0  0  0  0
   39.0540   29.2050   42.2380 C   0  0  0  0  0  0  0  0  0  0  0  0
   39.0950   28.5960   41.3170 H   0  0  0  0  0  0  0  0  0  0  0  0
   40.0420   29.5760   42.5760 H   0  0  0  0  0  0  0  0  0  0  0  0
   38.2980   30.4210   41.9260 N   0  0  0  0  0  0  0  0  0  0  0  0
   36.9720   29.9740   41.6320 C   0  0  0  0  0  3  0  0  0  0  0  0
   37.0390   29.0130   41.0520 H   0  0  0  0  0  0  0  0  0  0  0  0
   36.0980   30.9690   40.9320 C   0  0  0  0  0  3  0  0  0  0  0  0
   35.5260   31.5290   41.6990 H   0  0  0  0  0  0  0  0  0  0  0  0
   36.7820   31.8500   40.0340 N   0  0  0  0  0  0  0  0  0  0  0  0
   36.9550   31.4610   39.1020 H   0  0  0  0  0  0  0  0  0  0  0  0
   38.0000   32.3640   40.6020 C   0  0  0  0  0  2  0  0  0  0  0  0
   38.9090   31.1730   40.8650 C   0  0  0  0  0  2  0  0  0  0  0  0
  1  2  1  0  0  0  0
  1  3  1  0  0  0  0
  4  5  1  0  0  0  0
  4 10  1  0  0  0  0
  5 11  1  0  0  0  0
  6  1  1  0  0  0  0
  6  5  2  0  0  0  0
  7  6  1  0  0  0  0
  8  7  2  0  0  0  0
  8  9  1  0  0  0  0
  9  4  2  0  0  0  0
 12  8  1  0  0  0  0
 13 15  1  0  0  0  0
 13  1  1  0  0  0  0
 14 13  1  0  0  0  0
 16 13  1  0  0  0  0
 17 16  1  0  0  0  0
 18 17  1  0  0  0  0
 19 17  1  0  0  0  0
 19 20  1  0  0  0  0
 21 23  1  0  0  0  0
 21 19  1  0  0  0  0
 22 21  1  0  0  0  0
 23 24  1  0  0  0  0
 24 16  1  0  0  0  0
M  END
>  <minimizedAffinity>
-4.02589035

$$$$

 OpenBabel03252508573D

 24 25  0  0  0  0  0  0  0  0999 V2000
   36.1960   30.7830   40.7800 C   0  0  0  0  0  0  0  0  0  0  0  0
   35.1060   30.7450   40.5880 H   0  0  0  0  0  0  0  0  0  0  0  0
   36.3820   31.6360   41.4630 H   0  0  0  0  0  0  0  0  0  0  0  0
   36.9480   27.1620   41.5650 C   0  0  0  0  0  0  0  0  0  0  0  0
   36.4270   28.3110   40.9140 C   0  0  0  0  0  0  0  0  0  0  0  0
   36.7210   29.5690   41.4310 C   0  0  0  0  0  0  0  0  0  0  0  0
   37.5050   29.6180   42.5530 N   0  0  0  0  0  0  0  0  0  0  0  0
   37.9870   28.5120   43.1520 C   0  0  0  0  0  0  0  0  0  0  0  0
   37.7140   27.3060   42.6680 N   0  0  0  0  0  0  0  0  0  0  0  0
   36.7090   26.1920   41.1490 H   0  0  0  0  0  0  0  0  0  0  0  0
   35.8220   28.1700   40.0400 H   0  0  0  0  0  0  0  0  0  0  0  0
   38.5880   28.7380   44.0270 H   0  0  0  0  0  0  0  0  0  0  0  0
   36.9580   31.0060   39.4870 C   0  0  0  0  0  0  0  0  0  0  0  0
   36.3520   31.6210   38.7970 H   0  0  0  0  0  0  0  0  0  0  0  0
   37.2750   30.0330   39.0610 H   0  0  0  0  0  0  0  0  0  0  0  0
   38.2140   31.7220   39.7250 N   0  0  0  0  0  0  0  0  0  0  0  0
   37.8300   32.9720   40.3030 C   0  0  0  0  0  3  0  0  0  0  0  0
   36.8960   33.3310   39.7900 H   0  0  0  0  0  0  0  0  0  0  0  0
   38.8880   34.0330   40.3040 C   0  0  0  0  0  3  0  0  0  0  0  0
   39.4320   33.9800   41.2690 H   0  0  0  0  0  0  0  0  0  0  0  0
   39.7850   33.9950   39.1890 N   0  0  0  0  0  0  0  0  0  0  0  0
   39.4340   34.4530   38.3420 H   0  0  0  0  0  0  0  0  0  0  0  0
   40.2270   32.6570   38.8940 C   0  0  0  0  0  2  0  0  0  0  0  0
   38.9930   31.8490   38.5240 C   0  0  0  0  0  2  0  0  0  0  0  0
  1  6  1  0  0  0  0
  1  3  1  0  0  0  0
  2  1  1  0  0  0  0
  4  9  1  0  0  0  0
  5  6  1  0  0  0  0
  5  4  2  0  0  0  0
  6  7  2  0  0  0  0
  7  8  1  0  0  0  0
  8 12  1  0  0  0  0
  9  8  2  0  0  0  0
 10  4  1  0  0  0  0
 11  5  1  0  0  0  0
 13 16  1  0  0  0  0
 13  1  1  0  0  0  0
 14 13  1  0  0  0  0
 15 13  1  0  0  0  0
 16 17  1  0  0  0  0
 17 19  1  0  0  0  0
 18 17  1  0  0  0  0
 19 20  1  0  0  0  0
 21 19  1  0  0  0  0
 22 21  1  0  0  0  0
 23 21  1  0  0  0  0
 24 23  1  0  0  0  0
 24 16  1  0  0  0  0
M  END
>  <minimizedAffinity>
-3.95795655

$$$$

 OpenBabel03252508573D

 24 25  0  0  0  0  0  0  0  0999 V2000
   37.2860   29.4540   42.2710 C   0  0  0  0  0  0  0  0  0  0  0  0
   36.1800   29.4320   42.2570 H   0  0  0  0  0  0  0  0  0  0  0  0
   37.5940   30.1300   43.0940 H   0  0  0  0  0  0  0  0  0  0  0  0
   37.9090   25.7250   42.3080 C   0  0  0  0  0  0  0  0  0  0  0  0
   37.2960   26.9770   42.0440 C   0  0  0  0  0  0  0  0  0  0  0  0
   37.8970   28.1360   42.5270 C   0  0  0  0  0  0  0  0  0  0  0  0
   39.0580   27.9900   43.2370 N   0  0  0  0  0  0  0  0  0  0  0  0
   39.6200   26.7890   43.4740 C   0  0  0  0  0  0  0  0  0  0  0  0
   39.0570   25.6760   43.0180 N   0  0  0  0  0  0  0  0  0  0  0  0
   37.4270   24.8340   41.9240 H   0  0  0  0  0  0  0  0  0  0  0  0
   36.3860   26.9890   41.4770 H   0  0  0  0  0  0  0  0  0  0  0  0
   40.5360   26.8610   44.0510 H   0  0  0  0  0  0  0  0  0  0  0  0
   37.8260   29.9900   40.9580 C   0  0  0  0  0  0  0  0  0  0  0  0
   37.1850   29.6520   40.1250 H   0  0  0  0  0  0  0  0  0  0  0  0
   38.8940   29.7130   40.8450 H   0  0  0  0  0  0  0  0  0  0  0  0
   37.8290   31.4550   40.9430 N   0  0  0  0  0  0  0  0  0  0  0  0
   37.0310   31.8220   39.8150 C   0  0  0  0  0  3  0  0  0  0  0  0
   37.2470   31.1040   38.9760 H   0  0  0  0  0  0  0  0  0  0  0  0
   37.1730   33.2420   39.3610 C   0  0  0  0  0  3  0  0  0  0  0  0
   36.3890   33.8460   39.8610 H   0  0  0  0  0  0  0  0  0  0  0  0
   38.4740   33.8100   39.5420 N   0  0  0  0  0  0  0  0  0  0  0  0
   39.1460   33.5860   38.8010 H   0  0  0  0  0  0  0  0  0  0  0  0
   39.0260   33.4990   40.8350 C   0  0  0  0  0  2  0  0  0  0  0  0
   39.1650   31.9860   40.9100 C   0  0  0  0  0  2  0  0  0  0  0  0
  1  6  1  0  0  0  0
  1  3  1  0  0  0  0
  2  1  1  0  0  0  0
  4  9  1  0  0  0  0
  5  4  2  0  0  0  0
  5  6  1  0  0  0  0
  6  7  2  0  0  0  0
  7  8  1  0  0  0  0
  8 12  1  0  0  0  0
  9  8  2  0  0  0  0
 10  4  1  0  0  0  0
 11  5  1  0  0  0  0
 13  1  1  0  0  0  0
 14 13  1  0  0  0  0
 15 13  1  0  0  0  0
 16 13  1  0  0  0  0
 17 16  1  0  0  0  0
 18 17  1  0  0  0  0
 19 21  1  0  0  0  0
 19 17  1  0  0  0  0
 19 20  1  0  0  0  0
 21 23  1  0  0  0  0
 22 21  1  0  0  0  0
 23 24  1  0  0  0  0
 24 16  1  0  0  0  0
M  END
>  <minimizedAffinity>
-3.89858341

$$$$

 OpenBabel03252508573D

 24 25  0  0  0  0  0  0  0  0999 V2000
   35.8190   29.1240   40.5180 C   0  0  0  0  0  0  0  0  0  0  0  0
   35.9480   28.6700   39.5160 H   0  0  0  0  0  0  0  0  0  0  0  0
   34.7650   28.9640   40.8200 H   0  0  0  0  0  0  0  0  0  0  0  0
   38.1940   28.7060   43.4290 C   0  0  0  0  0  0  0  0  0  0  0  0
   37.3780   29.3220   42.4450 C   0  0  0  0  0  0  0  0  0  0  0  0
   36.6760   28.5170   41.5530 C   0  0  0  0  0  0  0  0  0  0  0  0
   36.8220   27.1620   41.6830 N   0  0  0  0  0  0  0  0  0  0  0  0
   37.6050   26.6020   42.6260 C   0  0  0  0  0  0  0  0  0  0  0  0
   38.2780   27.3590   43.4840 N   0  0  0  0  0  0  0  0  0  0  0  0
   38.7330   29.3480   44.1150 H   0  0  0  0  0  0  0  0  0  0  0  0
   37.3270   30.3930   42.4240 H   0  0  0  0  0  0  0  0  0  0  0  0
   37.6020   25.5180   42.5840 H   0  0  0  0  0  0  0  0  0  0  0  0
   36.1020   30.6140   40.4690 C   0  0  0  0  0  0  0  0  0  0  0  0
   36.8500   30.8770   41.2370 H   0  0  0  0  0  0  0  0  0  0  0  0
   35.1540   31.1830   40.5490 H   0  0  0  0  0  0  0  0  0  0  0  0
   36.6520   31.0090   39.1690 N   0  0  0  0  0  0  0  0  0  0  0  0
   36.1960   30.0130   38.2500 C   0  0  0  0  0  3  0  0  0  0  0  0
   36.2330   29.0110   38.7600 H   0  0  0  0  0  0  0  0  0  0  0  0
   36.9120   29.9760   36.9340 C   0  0  0  0  0  3  0  0  0  0  0  0
   36.3510   30.6100   36.2170 H   0  0  0  0  0  0  0  0  0  0  0  0
   38.2970   30.3340   36.9870 N   0  0  0  0  0  0  0  0  0  0  0  0
   38.9250   29.5720   37.2630 H   0  0  0  0  0  0  0  0  0  0  0  0
   38.5250   31.4990   37.8010 C   0  0  0  0  0  2  0  0  0  0  0  0
   38.0820   31.1510   39.2140 C   0  0  0  0  0  2  0  0  0  0  0  0
  1  3  1  0  0  0  0
  1  6  1  0  0  0  0
  2  1  1  0  0  0  0
  4  9  1  0  0  0  0
  4 10  1  0  0  0  0
  5  4  2  0  0  0  0
  6  7  2  0  0  0  0
  6  5  1  0  0  0  0
  7  8  1  0  0  0  0
  8  9  2  0  0  0  0
 11  5  1  0  0  0  0
 12  8  1  0  0  0  0
 13  1  1  0  0  0  0
 13 15  1  0  0  0  0
 13 14  1  0  0  0  0
 16 24  1  0  0  0  0
 16 13  1  0  0  0  0
 17 18  1  0  0  0  0
 17 16  1  0  0  0  0
 19 21  1  0  0  0  0
 19 17  1  0  0  0  0
 20 19  1  0  0  0  0
 21 22  1  0  0  0  0
 21 23  1  0  0  0  0
 23 24  1  0  0  0  0
M  END
>  <minimizedAffinity>
-3.81605959

$$$$

 OpenBabel03252508573D

 24 25  0  0  0  0  0  0  0  0999 V2000
   38.5550   28.9990   40.0240 C   0  0  0  0  0  0  0  0  0  0  0  0
   38.9060   28.2080   39.3330 H   0  0  0  0  0  0  0  0  0  0  0  0
   37.7380   29.5460   39.5140 H   0  0  0  0  0  0  0  0  0  0  0  0
   36.9630   26.7190   42.5860 C   0  0  0  0  0  0  0  0  0  0  0  0
   37.4740   27.1940   41.3490 C   0  0  0  0  0  0  0  0  0  0  0  0
   38.0170   28.4740   41.2920 C   0  0  0  0  0  0  0  0  0  0  0  0
   38.0220   29.2050   42.4500 N   0  0  0  0  0  0  0  0  0  0  0  0
   37.5300   28.7310   43.6120 C   0  0  0  0  0  0  0  0  0  0  0  0
   37.0110   27.5110   43.6790 N   0  0  0  0  0  0  0  0  0  0  0  0
   36.5450   25.7210   42.6110 H   0  0  0  0  0  0  0  0  0  0  0  0
   37.4250   26.5450   40.4960 H   0  0  0  0  0  0  0  0  0  0  0  0
   37.6160   29.4430   44.4250 H   0  0  0  0  0  0  0  0  0  0  0  0
   39.6810   29.9670   40.3410 C   0  0  0  0  0  0  0  0  0  0  0  0
   40.6550   29.4630   40.2100 H   0  0  0  0  0  0  0  0  0  0  0  0
   39.5320   30.4040   41.3480 H   0  0  0  0  0  0  0  0  0  0  0  0
   39.6590   31.1210   39.4380 N   0  0  0  0  0  0  0  0  0  0  0  0
   38.4620   30.9760   38.6700 C   0  0  0  0  0  3  0  0  0  0  0  0
   38.3210   29.8860   38.4300 H   0  0  0  0  0  0  0  0  0  0  0  0
   38.3870   31.8170   37.4320 C   0  0  0  0  0  3  0  0  0  0  0  0
   37.8710   32.7650   37.6880 H   0  0  0  0  0  0  0  0  0  0  0  0
   39.6400   32.0530   36.7820 N   0  0  0  0  0  0  0  0  0  0  0  0
   39.9480   31.3000   36.1600 H   0  0  0  0  0  0  0  0  0  0  0  0
   40.6790   32.3940   37.7180 C   0  0  0  0  0  2  0  0  0  0  0  0
   40.8560   31.2010   38.6450 C   0  0  0  0  0  2  0  0  0  0  0  0
  1 13  1  0  0  0  0
  1  6  1  0  0  0  0
  2  1  1  0  0  0  0
  3  1  1  0  0  0  0
  4 10  1  0  0  0  0
  4  9  1  0  0  0  0
  5  4  2  0  0  0  0
  6  5  1  0  0  0  0
  6  7  2  0  0  0  0
  7  8  1  0  0  0  0
  8  9  2  0  0  0  0
  8 12  1  0  0  0  0
 11  5  1  0  0  0  0
 13 15  1  0  0  0  0
 14 13  1  0  0  0  0
 16 13  1  0  0  0  0
 17 16  1  0  0  0  0
 18 17  1  0  0  0  0
 19 20  1  0  0  0  0
 19 17  1  0  0  0  0
 21 19  1  0  0  0  0
 21 23  1  0  0  0  0
 22 21  1  0  0  0  0
 23 24  1  0  0  0  0
 24 16  1  0  0  0  0
M  END
>  <minimizedAffinity>
-3.66620111

$$$$
