
 OpenBabel03252500563D

 38 40  0  0  0  0  0  0  0  0999 V2000
   43.8040   34.8280   40.1170 O   0  0  0  0  0  0  0  0  0  0  0  0
   43.3200   34.7130   41.5690 P   0  0  1  0  0  0  0  0  0  0  0  0
   43.2030   33.0580   41.9480 O   0  0  0  0  0  0  0  0  0  0  0  0
   42.7240   32.9140   42.7830 H   0  0  0  0  0  0  0  0  0  0  0  0
   44.4650   35.4050   42.6020 O   0  0  0  0  0  0  0  0  0  0  0  0
   46.5310   34.3570   43.0280 C   0  0  0  0  0  0  0  0  0  0  0  0
   45.2880   34.7320   43.4920 C   0  0  0  0  0  0  0  0  0  0  0  0
   44.9550   34.4070   44.8190 C   0  0  0  0  0  0  0  0  0  0  0  0
   45.8790   33.7480   45.5480 N   0  0  0  0  0  0  0  0  0  0  0  0
   47.0750   33.3940   45.0820 C   0  0  0  0  0  0  0  0  0  0  0  0
   47.4000   33.6990   43.8240 N   0  0  0  0  0  0  0  0  0  0  0  0
   43.9960   34.7070   45.1500 H   0  0  0  0  0  0  0  0  0  0  0  0
   47.8110   32.8640   45.6780 H   0  0  0  0  0  0  0  0  0  0  0  0
   46.9480   34.6630   41.6580 C   0  0  0  0  0  0  0  0  0  0  0  0
   46.2330   35.4260   41.2320 H   0  0  0  0  0  0  0  0  0  0  0  0
   47.0230   33.7690   41.0320 H   0  0  0  0  0  0  0  0  0  0  0  0
   48.2900   35.3390   41.6890 C   0  0  0  0  0  0  0  0  0  0  0  0
   48.6610   35.6380   40.6890 H   0  0  0  0  0  0  0  0  0  0  0  0
   49.0550   34.7560   42.2310 H   0  0  0  0  0  0  0  0  0  0  0  0
   48.1560   36.2870   42.2630 H   0  0  0  0  0  0  0  0  0  0  0  0
   41.7840   35.3750   41.7240 O   0  0  0  0  0  0  0  0  0  0  0  0
   40.6910   34.6590   41.2540 C   0  0  0  0  0  0  0  0  0  0  0  0
   39.8570   35.3070   40.3350 C   0  0  0  0  0  0  0  0  0  0  0  0
   38.7440   34.6800   39.8090 C   0  0  0  0  0  0  0  0  0  0  0  0
   38.4780   33.4070   40.2090 N   0  0  0  0  0  0  0  0  0  0  0  0
   39.2780   32.8000   41.0810 C   0  0  0  0  0  0  0  0  0  0  0  0
   40.3490   33.3910   41.5940 N   0  0  0  0  0  0  0  0  0  0  0  0
   40.0560   36.3380   40.0000 H   0  0  0  0  0  0  0  0  0  0  0  0
   38.1190   35.2030   39.1030 H   0  0  0  0  0  0  0  0  0  0  0  0
   38.9330   31.4680   41.4510 N   0  0  0  0  0  0  0  0  0  0  0  0
   37.6160   30.9310   41.1610 C   0  0  0  0  0  0  0  0  0  0  0  0
   36.9470   31.7420   40.7860 H   0  0  0  0  0  0  0  0  0  0  0  0
   37.8240   29.8180   40.1640 C   0  0  0  0  0  0  0  0  0  0  0  0
   37.0720   29.0230   40.3490 H   0  0  0  0  0  0  0  0  0  0  0  0
   39.1480   29.3050   40.1040 N   0  0  0  0  0  0  0  0  0  0  0  0
   39.6410   29.3660   39.2100 H   0  0  0  0  0  0  0  0  0  0  0  0
   39.9180   29.3140   41.2930 C   0  0  0  0  0  0  0  0  0  0  0  0
   39.8350   30.5560   42.1300 C   0  0  0  0  0  0  0  0  0  0  0  0
  2  1  2  6  0  0  0
  2 21  1  0  0  0  0
  2  3  1  0  0  0  0
  2  5  1  0  0  0  0
  3  4  1  0  0  0  0
  5  7  1  0  0  0  0
  6  7  2  0  0  0  0
  6 11  1  0  0  0  0
  7  8  1  0  0  0  0
  8 12  1  0  0  0  0
  8  9  2  0  0  0  0
 10  9  1  0  0  0  0
 10 13  1  0  0  0  0
 11 10  2  0  0  0  0
 14 17  1  0  0  0  0
 14  6  1  0  0  0  0
 15 14  1  0  0  0  0
 16 14  1  0  0  0  0
 17 19  1  0  0  0  0
 17 20  1  0  0  0  0
 18 17  1  0  0  0  0
 22 27  1  0  0  0  0
 22 21  1  0  0  0  0
 23 22  2  0  0  0  0
 24 25  2  0  0  0  0
 24 23  1  0  0  0  0
 25 26  1  0  0  0  0
 26 30  1  0  0  0  0
 26 27  2  0  0  0  0
 28 23  1  0  0  0  0
 29 24  1  0  0  0  0
 30 38  1  0  0  0  0
 31 30  1  0  0  0  0
 32 31  1  0  0  0  0
 33 34  1  0  0  0  0
 33 31  1  0  0  0  0
 35 33  1  0  0  0  0
 35 37  1  0  0  0  0
 36 35  1  0  0  0  0
 37 38  1  0  0  0  0
M  END
>  <minimizedAffinity>
-5.89708376

>  <minimizedRMSD>
0.391744763

$$$$
