
 OpenBabel03252509023D

 48 50  0  0  1  0  0  0  0  0999 V2000
   46.8990   34.4530   43.2370 N   0  0  0  0  0  0  0  0  0  0  0  0
   46.5640   34.8810   41.9290 C   0  0  0  0  0  0  0  0  0  0  0  0
   45.1300   34.6300   41.5190 C   0  0  0  0  0  0  0  0  0  0  0  0
   44.1460   34.7380   42.6520 C   0  0  0  0  0  0  0  0  0  0  0  0
   44.8160   35.1650   43.9420 C   0  0  0  0  0  0  0  0  0  0  0  0
   45.9260   34.0770   44.1430 C   0  0  2  0  0  0  0  0  0  0  0  0
   46.6980   36.0000   41.9090 H   0  0  0  0  0  0  0  0  0  0  0  0
   47.1970   34.5110   41.1160 H   0  0  0  0  0  0  0  0  0  0  0  0
   45.0850   33.6120   41.0640 H   0  0  0  0  0  0  0  0  0  0  0  0
   44.9070   35.3330   40.6840 H   0  0  0  0  0  0  0  0  0  0  0  0
   43.6830   33.7440   42.8480 H   0  0  0  0  0  0  0  0  0  0  0  0
   43.3490   35.4930   42.3980 H   0  0  0  0  0  0  0  0  0  0  0  0
   44.0980   35.1240   44.7600 H   0  0  0  0  0  0  0  0  0  0  0  0
   45.2790   36.1520   43.7550 H   0  0  0  0  0  0  0  0  0  0  0  0
   45.3880   33.1270   43.9690 H   0  0  0  0  0  0  0  0  0  0  0  0
   48.2110   33.8580   43.3470 C   0  0  0  0  0  0  0  0  0  0  0  0
   48.5530   33.9780   44.3900 H   0  0  0  0  0  0  0  0  0  0  0  0
   48.8970   34.4310   42.6970 H   0  0  0  0  0  0  0  0  0  0  0  0
   48.1290   32.4240   42.9550 C   0  0  0  0  0  0  0  0  0  0  0  0
   48.2630   31.7120   43.7850 H   0  0  0  0  0  0  0  0  0  0  0  0
   47.1300   32.1790   42.4910 H   0  0  0  0  0  0  0  0  0  0  0  0
   51.4070   31.9630   41.1760 C   0  0  0  0  0  0  0  0  0  0  0  0
   50.4480   32.2200   42.1730 C   0  0  0  0  0  0  0  0  0  0  0  0
   49.1190   32.1470   41.8830 C   0  0  0  0  0  0  0  0  0  0  0  0
   48.7810   31.8270   40.6310 N   0  0  0  0  0  0  0  0  0  0  0  0
   49.6770   31.5790   39.6700 C   0  0  0  0  0  0  0  0  0  0  0  0
   51.0010   31.6430   39.9260 N   0  0  0  0  0  0  0  0  0  0  0  0
   52.4380   32.0500   41.5170 H   0  0  0  0  0  0  0  0  0  0  0  0
   50.7490   32.4760   43.1720 H   0  0  0  0  0  0  0  0  0  0  0  0
   49.3540   31.3210   38.6630 H   0  0  0  0  0  0  0  0  0  0  0  0
   46.3110   34.3000   45.4500 O   0  0  0  0  0  0  0  0  0  0  0  0
   45.5890   31.7490   45.6470 O   0  0  0  0  0  0  0  0  0  0  0  0
   46.0410   32.9640   46.4500 P   0  0  2  0  0  0  0  0  0  0  0  0
   44.7340   33.3840   47.4540 O   0  0  0  0  0  0  0  0  0  0  0  0
   44.9190   34.2370   47.8890 H   0  0  0  0  0  0  0  0  0  0  0  0
   47.3480   32.6040   47.4240 O   0  0  0  0  0  0  0  0  0  0  0  0
   46.9180   32.0240   48.5870 C   0  0  0  0  0  0  0  0  0  0  0  0
   45.9050   31.5820   48.3580 H   0  0  0  0  0  0  0  0  0  0  0  0
   46.7630   32.8000   49.3420 H   0  0  0  0  0  0  0  0  0  0  0  0
   47.7250   30.9730   49.1190 N   0  0  0  0  0  0  0  0  0  0  0  0
   49.0770   31.3450   49.3920 C   0  0  0  0  0  0  0  0  0  0  0  0
   49.6070   31.7450   48.4970 H   0  0  0  0  0  0  0  0  0  0  0  0
   49.8180   30.0910   49.8450 C   0  0  0  0  0  0  0  0  0  0  0  0
   49.3720   29.6730   50.7550 H   0  0  0  0  0  0  0  0  0  0  0  0
   49.8880   29.0930   48.8200 N   0  0  0  0  0  0  0  0  0  0  0  0
   49.4940   28.1800   49.1430 H   0  0  0  0  0  0  0  0  0  0  0  0
   49.1200   29.5290   47.6890 C   0  0  0  0  0  0  0  0  0  0  0  0
   47.7380   29.9000   48.1420 C   0  0  0  0  0  0  0  0  0  0  0  0
  1 16  1  0  0  0  0
  1  6  1  0  0  0  0
  2  1  1  0  0  0  0
  3  2  1  0  0  0  0
  3  4  1  0  0  0  0
  4 11  1  0  0  0  0
  4  5  1  0  0  0  0
  5  6  1  0  0  0  0
  5 13  1  0  0  0  0
  6 15  1  6  0  0  0
  6 31  1  0  0  0  0
  7  2  1  0  0  0  0
  8  2  1  0  0  0  0
  9  3  1  0  0  0  0
 10  3  1  0  0  0  0
 12  4  1  0  0  0  0
 14  5  1  0  0  0  0
 16 17  1  0  0  0  0
 18 16  1  0  0  0  0
 19 16  1  0  0  0  0
 19 20  1  0  0  0  0
 21 19  1  0  0  0  0
 22 28  1  0  0  0  0
 22 23  1  0  0  0  0
 23 29  1  0  0  0  0
 24 23  2  0  0  0  0
 24 19  1  0  0  0  0
 25 24  1  0  0  0  0
 26 27  1  0  0  0  0
 26 25  2  0  0  0  0
 27 22  2  0  0  0  0
 30 26  1  0  0  0  0
 31 33  1  0  0  0  0
 33 32  2  6  0  0  0
 33 36  1  0  0  0  0
 33 34  1  0  0  0  0
 34 35  1  0  0  0  0
 36 37  1  0  0  0  0
 37 40  1  0  0  0  0
 37 39  1  0  0  0  0
 38 37  1  0  0  0  0
 40 41  1  0  0  0  0
 41 43  1  0  0  0  0
 42 41  1  0  0  0  0
 43 44  1  0  0  0  0
 45 46  1  0  0  0  0
 45 43  1  0  0  0  0
 47 48  1  0  0  0  0
 47 45  1  0  0  0  0
 48 40  1  0  0  0  0
M  END
>  <minimizedAffinity>
-4.98197365

>  <minimizedRMSD>
3.45235324

$$$$
