
 OpenBabel03252509033D

 48 50  0  0  1  0  0  0  0  0999 V2000
   46.6000   34.5590   43.5770 N   0  0  0  0  0  0  0  0  0  0  0  0
   46.1190   35.5320   42.6690 C   0  0  0  0  0  0  0  0  0  0  0  0
   44.6130   35.6810   42.6250 C   0  0  0  0  0  0  0  0  0  0  0  0
   43.9420   35.4500   43.9520 C   0  0  0  0  0  0  0  0  0  0  0  0
   44.9480   35.2050   45.0580 C   0  0  0  0  0  0  0  0  0  0  0  0
   45.7740   33.9860   44.5240 C   0  0  2  0  0  0  0  0  0  0  0  0
   46.5150   36.5280   43.0170 H   0  0  0  0  0  0  0  0  0  0  0  0
   46.4590   35.4460   41.6320 H   0  0  0  0  0  0  0  0  0  0  0  0
   44.2280   34.9600   41.8660 H   0  0  0  0  0  0  0  0  0  0  0  0
   44.4030   36.6900   42.2040 H   0  0  0  0  0  0  0  0  0  0  0  0
   43.3000   34.5410   43.8990 H   0  0  0  0  0  0  0  0  0  0  0  0
   43.3200   36.3490   44.2290 H   0  0  0  0  0  0  0  0  0  0  0  0
   44.4260   34.9330   45.9750 H   0  0  0  0  0  0  0  0  0  0  0  0
   45.5900   36.1040   45.1170 H   0  0  0  0  0  0  0  0  0  0  0  0
   44.9950   33.2790   44.1800 H   0  0  0  0  0  0  0  0  0  0  0  0
   47.7200   33.7910   43.0830 C   0  0  0  0  0  0  0  0  0  0  0  0
   48.2870   33.4160   43.9520 H   0  0  0  0  0  0  0  0  0  0  0  0
   48.3780   34.4780   42.5190 H   0  0  0  0  0  0  0  0  0  0  0  0
   47.2100   32.6770   42.2360 C   0  0  0  0  0  0  0  0  0  0  0  0
   47.4190   31.6690   42.6280 H   0  0  0  0  0  0  0  0  0  0  0  0
   46.0900   32.7370   42.1060 H   0  0  0  0  0  0  0  0  0  0  0  0
   49.3240   32.1190   39.1800 C   0  0  0  0  0  0  0  0  0  0  0  0
   48.7880   32.0120   40.4760 C   0  0  0  0  0  0  0  0  0  0  0  0
   47.7550   32.8120   40.8610 C   0  0  0  0  0  0  0  0  0  0  0  0
   47.2880   33.6840   39.9640 N   0  0  0  0  0  0  0  0  0  0  0  0
   47.7840   33.8010   38.7280 C   0  0  0  0  0  0  0  0  0  0  0  0
   48.8070   33.0220   38.3160 N   0  0  0  0  0  0  0  0  0  0  0  0
   50.1460   31.4320   38.9790 H   0  0  0  0  0  0  0  0  0  0  0  0
   49.1840   31.3010   41.1770 H   0  0  0  0  0  0  0  0  0  0  0  0
   47.3700   34.5270   38.0290 H   0  0  0  0  0  0  0  0  0  0  0  0
   46.4630   33.5900   45.6530 O   0  0  0  0  0  0  0  0  0  0  0  0
   45.5160   31.2150   44.9240 O   0  0  0  0  0  0  0  0  0  0  0  0
   46.1660   31.9800   46.0730 P   0  0  2  0  0  0  0  0  0  0  0  0
   45.0160   32.0250   47.3250 O   0  0  0  0  0  0  0  0  0  0  0  0
   45.3270   32.6200   48.0320 H   0  0  0  0  0  0  0  0  0  0  0  0
   47.5230   31.1940   46.6440 O   0  0  0  0  0  0  0  0  0  0  0  0
   47.9060   30.2210   45.7600 C   0  0  0  0  0  0  0  0  0  0  0  0
   48.7910   30.6400   45.2000 H   0  0  0  0  0  0  0  0  0  0  0  0
   47.1090   30.0660   45.0270 H   0  0  0  0  0  0  0  0  0  0  0  0
   48.3140   28.9700   46.3170 N   0  0  0  0  0  0  0  0  0  0  0  0
   47.3240   28.3300   47.1240 C   0  0  0  0  0  3  0  0  0  0  0  0
   46.9730   28.9670   47.9700 H   0  0  0  0  0  0  0  0  0  0  0  0
   47.9560   27.0770   47.7230 C   0  0  0  0  0  3  0  0  0  0  0  0
   48.2790   26.3840   46.9370 H   0  0  0  0  0  0  0  0  0  0  0  0
   49.0440   27.3770   48.6040 N   0  0  0  0  0  0  0  0  0  0  0  0
   49.9200   26.8850   48.3160 H   0  0  0  0  0  0  0  0  0  0  0  0
   49.3000   28.7900   48.5690 C   0  0  0  0  0  2  0  0  0  0  0  0
   49.4780   29.2240   47.1430 C   0  0  0  0  0  2  0  0  0  0  0  0
  1  6  1  0  0  0  0
  2  7  1  0  0  0  0
  2  1  1  0  0  0  0
  3  2  1  0  0  0  0
  3  4  1  0  0  0  0
  4 12  1  0  0  0  0
  4  5  1  0  0  0  0
  5 14  1  0  0  0  0
  5 13  1  0  0  0  0
  6 15  1  6  0  0  0
  6  5  1  0  0  0  0
  6 31  1  0  0  0  0
  8  2  1  0  0  0  0
  9  3  1  0  0  0  0
 10  3  1  0  0  0  0
 11  4  1  0  0  0  0
 16  1  1  0  0  0  0
 16 17  1  0  0  0  0
 18 16  1  0  0  0  0
 19 20  1  0  0  0  0
 19 16  1  0  0  0  0
 21 19  1  0  0  0  0
 22 23  1  0  0  0  0
 23 24  2  0  0  0  0
 23 29  1  0  0  0  0
 24 19  1  0  0  0  0
 25 24  1  0  0  0  0
 26 25  2  0  0  0  0
 27 26  1  0  0  0  0
 27 22  2  0  0  0  0
 28 22  1  0  0  0  0
 30 26  1  0  0  0  0
 31 33  1  0  0  0  0
 33 32  2  6  0  0  0
 33 36  1  0  0  0  0
 33 34  1  0  0  0  0
 34 35  1  0  0  0  0
 37 40  1  0  0  0  0
 37 36  1  0  0  0  0
 38 37  1  0  0  0  0
 39 37  1  0  0  0  0
 40 41  1  0  0  0  0
 40 48  1  0  0  0  0
 41 43  1  0  0  0  0
 41 42  1  0  0  0  0
 43 45  1  0  0  0  0
 44 43  1  0  0  0  0
 46 45  1  0  0  0  0
 47 45  1  0  0  0  0
 48 47  1  0  0  0  0
M  END
>  <minimizedAffinity>
-4.33778811

>  <minimizedRMSD>
2.37978244

$$$$
