
 OpenBabel03242522383D

 45 48  0  0  0  0  0  0  0  0999 V2000
   36.4950   27.9610   41.5350 C   0  0  0  0  0  0  0  0  0  0  0  0
   37.0870   26.8230   42.0220 C   0  0  0  0  0  0  0  0  0  0  0  0
   37.1950   25.7360   41.1780 C   0  0  0  0  0  0  0  0  0  0  0  0
   36.7440   25.7200   39.8650 C   0  0  0  0  0  0  0  0  0  0  0  0
   36.1470   26.8850   39.3920 C   0  0  0  0  0  0  0  0  0  0  0  0
   36.0360   27.9780   40.2350 C   0  0  0  0  0  0  0  0  0  0  0  0
   37.6600   24.8300   41.5490 H   0  0  0  0  0  0  0  0  0  0  0  0
   36.8540   24.8350   39.2430 H   0  0  0  0  0  0  0  0  0  0  0  0
   35.8040   26.8610   38.3850 H   0  0  0  0  0  0  0  0  0  0  0  0
   37.6010   26.7370   43.4060 C   0  0  0  0  0  0  0  0  0  0  0  0
   37.0800   27.5120   44.0060 H   0  0  0  0  0  0  0  0  0  0  0  0
   37.3830   25.7320   43.8120 H   0  0  0  0  0  0  0  0  0  0  0  0
   41.2360   26.4750   44.0740 C   0  0  0  0  0  0  0  0  0  0  0  0
   41.7130   27.6720   43.5440 C   0  0  0  0  0  0  0  0  0  0  0  0
   40.7960   28.5290   42.9790 C   0  0  0  0  0  0  0  0  0  0  0  0
   39.4920   28.1870   42.9570 N   0  0  0  0  0  0  0  0  0  0  0  0
   39.0490   27.0230   43.4770 C   0  0  0  0  0  0  0  0  0  0  0  0
   39.9320   26.1890   44.0250 N   0  0  0  0  0  0  0  0  0  0  0  0
   41.8440   25.7100   44.5480 H   0  0  0  0  0  0  0  0  0  0  0  0
   42.7670   27.8530   43.6090 H   0  0  0  0  0  0  0  0  0  0  0  0
   41.1640   29.4580   42.5660 H   0  0  0  0  0  0  0  0  0  0  0  0
   36.3640   29.0670   42.3340 O   0  0  0  0  0  0  0  0  0  0  0  0
   35.7450   29.8270   42.1710 H   0  0  0  0  0  0  0  0  0  0  0  0
   35.4360   29.1170   39.7250 O   0  0  0  0  0  0  0  0  0  0  0  0
   36.2240   29.9860   38.9680 C   0  0  0  0  0  0  0  0  0  0  0  0
   36.3740   29.6360   37.6290 C   0  0  0  0  0  0  0  0  0  0  0  0
   37.1460   30.4580   36.8180 C   0  0  0  0  0  0  0  0  0  0  0  0
   37.7460   31.5910   37.3330 C   0  0  0  0  0  0  0  0  0  0  0  0
   37.5620   31.8960   38.6820 C   0  0  0  0  0  0  0  0  0  0  0  0
   36.8070   31.1000   39.4960 C   0  0  0  0  0  0  0  0  0  0  0  0
   35.9000   28.7440   37.2320 H   0  0  0  0  0  0  0  0  0  0  0  0
   37.2200   30.1260   35.7870 H   0  0  0  0  0  0  0  0  0  0  0  0
   38.3020   32.1040   36.5720 H   0  0  0  0  0  0  0  0  0  0  0  0
   38.2240   33.0750   39.1170 N   0  0  0  0  0  0  0  0  0  0  0  0
   39.6370   33.2470   39.3190 C   0  0  0  0  0  3  0  0  0  0  0  0
   40.2850   32.4400   39.0050 H   0  0  0  0  0  0  0  0  0  0  0  0
   39.8440   33.3750   40.8350 C   0  0  0  0  0  3  0  0  0  0  0  0
   40.8930   33.4580   41.1180 H   0  0  0  0  0  0  0  0  0  0  0  0
   39.0520   34.4600   41.3660 N   0  0  0  0  0  0  0  0  0  0  0  0
   38.2430   34.1300   41.9420 H   0  0  0  0  0  0  0  0  0  0  0  0
   38.4910   35.2120   40.2610 C   0  0  0  0  0  2  0  0  0  0  0  0
   37.5660   34.3280   39.4430 C   0  0  0  0  0  2  0  0  0  0  0  0
   36.6300   31.4240   40.8460 N   0  0  0  0  0  0  0  0  0  0  0  0
   36.0750   32.1280   41.3770 H   0  0  0  0  0  0  0  0  0  0  0  0
   37.2600   30.7080   41.3180 H   0  0  0  0  0  0  0  0  0  0  0  0
  1  2  1  0  0  0  0
  1 22  1  0  0  0  0
  2 10  1  0  0  0  0
  3  7  1  0  0  0  0
  3  2  2  0  0  0  0
  4  3  1  0  0  0  0
  5  4  2  0  0  0  0
  5  6  1  0  0  0  0
  6  1  2  0  0  0  0
  8  4  1  0  0  0  0
  9  5  1  0  0  0  0
 10 17  1  0  0  0  0
 10 12  1  0  0  0  0
 10 11  1  0  0  0  0
 13 19  1  0  0  0  0
 14 20  1  0  0  0  0
 14 13  2  0  0  0  0
 15 14  1  0  0  0  0
 16 15  2  0  0  0  0
 16 17  1  0  0  0  0
 17 18  2  0  0  0  0
 18 13  1  0  0  0  0
 21 15  1  0  0  0  0
 23 22  1  0  0  0  0
 24  6  1  0  0  0  0
 25 30  1  0  0  0  0
 25 24  1  0  0  0  0
 26 25  2  0  0  0  0
 27 28  2  0  0  0  0
 27 26  1  0  0  0  0
 28 29  1  0  0  0  0
 29 34  1  0  0  0  0
 29 30  2  0  0  0  0
 30 43  1  0  0  0  0
 31 26  1  0  0  0  0
 32 27  1  0  0  0  0
 33 28  1  0  0  0  0
 34 35  1  0  0  0  0
 34 42  1  0  0  0  0
 35 37  1  0  0  0  0
 36 35  1  0  0  0  0
 37 38  1  0  0  0  0
 37 39  1  0  0  0  0
 39 40  1  0  0  0  0
 41 39  1  0  0  0  0
 42 41  1  0  0  0  0
 43 45  1  0  0  0  0
 43 44  1  0  0  0  0
M  END
>  <minimizedAffinity>
-6.8592577

$$$$

 OpenBabel03242522383D

 45 48  0  0  0  0  0  0  0  0999 V2000
   36.4420   31.0930   39.8940 C   0  0  0  0  0  0  0  0  0  0  0  0
   37.0840   32.0800   39.1890 C   0  0  0  0  0  0  0  0  0  0  0  0
   37.6080   31.7570   37.9530 C   0  0  0  0  0  0  0  0  0  0  0  0
   37.5270   30.4970   37.3770 C   0  0  0  0  0  0  0  0  0  0  0  0
   36.8710   29.5120   38.1090 C   0  0  0  0  0  0  0  0  0  0  0  0
   36.3450   29.8310   39.3490 C   0  0  0  0  0  0  0  0  0  0  0  0
   38.1170   32.5260   37.3840 H   0  0  0  0  0  0  0  0  0  0  0  0
   37.9580   30.2970   36.3990 H   0  0  0  0  0  0  0  0  0  0  0  0
   36.8160   28.5500   37.6580 H   0  0  0  0  0  0  0  0  0  0  0  0
   37.2250   33.4550   39.7140 C   0  0  0  0  0  0  0  0  0  0  0  0
   36.8820   34.1530   38.9210 H   0  0  0  0  0  0  0  0  0  0  0  0
   36.5960   33.5660   40.6160 H   0  0  0  0  0  0  0  0  0  0  0  0
   40.8010   33.2130   40.6520 C   0  0  0  0  0  0  0  0  0  0  0  0
   41.2150   34.5400   40.5550 C   0  0  0  0  0  0  0  0  0  0  0  0
   40.2770   35.4730   40.1770 C   0  0  0  0  0  0  0  0  0  0  0  0
   39.0140   35.0800   39.9180 N   0  0  0  0  0  0  0  0  0  0  0  0
   38.6320   33.7890   40.0180 C   0  0  0  0  0  0  0  0  0  0  0  0
   39.5360   32.8810   40.3830 N   0  0  0  0  0  0  0  0  0  0  0  0
   41.4320   32.3760   40.9390 H   0  0  0  0  0  0  0  0  0  0  0  0
   42.2400   34.7520   40.7810 H   0  0  0  0  0  0  0  0  0  0  0  0
   40.5960   36.5040   40.1000 H   0  0  0  0  0  0  0  0  0  0  0  0
   35.9050   31.3640   41.1260 O   0  0  0  0  0  0  0  0  0  0  0  0
   35.6550   30.6860   41.8080 H   0  0  0  0  0  0  0  0  0  0  0  0
   35.7010   28.8220   40.0460 O   0  0  0  0  0  0  0  0  0  0  0  0
   36.4820   27.9610   40.8200 C   0  0  0  0  0  0  0  0  0  0  0  0
   36.8210   28.4420   42.0810 C   0  0  0  0  0  0  0  0  0  0  0  0
   37.5980   27.6370   42.9040 C   0  0  0  0  0  0  0  0  0  0  0  0
   38.0190   26.3930   42.4750 C   0  0  0  0  0  0  0  0  0  0  0  0
   37.6510   25.9590   41.2020 C   0  0  0  0  0  0  0  0  0  0  0  0
   36.8870   26.7370   40.3770 C   0  0  0  0  0  0  0  0  0  0  0  0
   36.4860   29.4210   42.4110 H   0  0  0  0  0  0  0  0  0  0  0  0
   37.8240   28.0730   43.8730 H   0  0  0  0  0  0  0  0  0  0  0  0
   38.6070   25.9100   43.2320 H   0  0  0  0  0  0  0  0  0  0  0  0
   38.1380   24.6720   40.8500 N   0  0  0  0  0  0  0  0  0  0  0  0
   39.4330   24.3570   40.3120 C   0  0  0  0  0  3  0  0  0  0  0  0
   40.1610   25.1560   40.2690 H   0  0  0  0  0  0  0  0  0  0  0  0
   39.2030   23.9310   38.8550 C   0  0  0  0  0  3  0  0  0  0  0  0
   40.1280   23.7160   38.3220 H   0  0  0  0  0  0  0  0  0  0  0  0
   38.2710   22.8300   38.7890 N   0  0  0  0  0  0  0  0  0  0  0  0
   37.3400   23.1070   38.4000 H   0  0  0  0  0  0  0  0  0  0  0  0
   38.0270   22.3440   40.1330 C   0  0  0  0  0  2  0  0  0  0  0  0
   37.3880   23.4340   40.9750 C   0  0  0  0  0  2  0  0  0  0  0  0
   36.5230   26.2840   39.1040 N   0  0  0  0  0  0  0  0  0  0  0  0
   35.8440   25.5910   38.7250 H   0  0  0  0  0  0  0  0  0  0  0  0
   37.1610   26.8680   38.4830 H   0  0  0  0  0  0  0  0  0  0  0  0
  1 22  1  0  0  0  0
  2 10  1  0  0  0  0
  2  1  2  0  0  0  0
  3  2  1  0  0  0  0
  4  3  2  0  0  0  0
  4  5  1  0  0  0  0
  5  6  2  0  0  0  0
  6  1  1  0  0  0  0
  6 24  1  0  0  0  0
  7  3  1  0  0  0  0
  8  4  1  0  0  0  0
  9  5  1  0  0  0  0
 10 17  1  0  0  0  0
 10 12  1  0  0  0  0
 11 10  1  0  0  0  0
 13 19  1  0  0  0  0
 14 13  1  0  0  0  0
 14 20  1  0  0  0  0
 15 14  2  0  0  0  0
 16 17  2  0  0  0  0
 16 15  1  0  0  0  0
 17 18  1  0  0  0  0
 18 13  2  0  0  0  0
 21 15  1  0  0  0  0
 22 23  1  0  0  0  0
 24 25  1  0  0  0  0
 25 26  1  0  0  0  0
 26 31  1  0  0  0  0
 26 27  2  0  0  0  0
 27 32  1  0  0  0  0
 28 27  1  0  0  0  0
 28 33  1  0  0  0  0
 29 28  2  0  0  0  0
 30 25  2  0  0  0  0
 30 29  1  0  0  0  0
 34 42  1  0  0  0  0
 34 29  1  0  0  0  0
 35 34  1  0  0  0  0
 36 35  1  0  0  0  0
 37 35  1  0  0  0  0
 38 37  1  0  0  0  0
 39 37  1  0  0  0  0
 39 41  1  0  0  0  0
 40 39  1  0  0  0  0
 41 42  1  0  0  0  0
 43 30  1  0  0  0  0
 44 43  1  0  0  0  0
 45 43  1  0  0  0  0
M  END
>  <minimizedAffinity>
-6.76132154

$$$$

 OpenBabel03242522383D

 45 48  0  0  0  0  0  0  0  0999 V2000
   39.6530   32.1970   41.2250 C   0  0  0  0  0  0  0  0  0  0  0  0
   39.1840   33.1460   40.3500 C   0  0  0  0  0  0  0  0  0  0  0  0
   37.9280   32.9620   39.8080 C   0  0  0  0  0  0  0  0  0  0  0  0
   37.1060   31.8800   40.0920 C   0  0  0  0  0  0  0  0  0  0  0  0
   37.6020   30.9320   40.9820 C   0  0  0  0  0  0  0  0  0  0  0  0
   38.8610   31.1100   41.5280 C   0  0  0  0  0  0  0  0  0  0  0  0
   37.5440   33.7020   39.1160 H   0  0  0  0  0  0  0  0  0  0  0  0
   36.1240   31.7850   39.6360 H   0  0  0  0  0  0  0  0  0  0  0  0
   36.9630   30.1060   41.1910 H   0  0  0  0  0  0  0  0  0  0  0  0
   39.9800   34.3350   39.9810 C   0  0  0  0  0  0  0  0  0  0  0  0
   39.3480   34.9720   39.3280 H   0  0  0  0  0  0  0  0  0  0  0  0
   40.2560   34.8870   40.8980 H   0  0  0  0  0  0  0  0  0  0  0  0
   42.2520   33.0970   37.3290 C   0  0  0  0  0  0  0  0  0  0  0  0
   43.5060   33.3530   37.8810 C   0  0  0  0  0  0  0  0  0  0  0  0
   43.5460   33.9340   39.1280 C   0  0  0  0  0  0  0  0  0  0  0  0
   42.3940   34.2310   39.7610 N   0  0  0  0  0  0  0  0  0  0  0  0
   41.1880   33.9740   39.2090 C   0  0  0  0  0  0  0  0  0  0  0  0
   41.1430   33.4120   38.0020 N   0  0  0  0  0  0  0  0  0  0  0  0
   42.0730   32.6440   36.3580 H   0  0  0  0  0  0  0  0  0  0  0  0
   44.3630   33.0810   37.2990 H   0  0  0  0  0  0  0  0  0  0  0  0
   44.5180   34.1340   39.5580 H   0  0  0  0  0  0  0  0  0  0  0  0
   40.8950   32.3350   41.7900 O   0  0  0  0  0  0  0  0  0  0  0  0
   41.4160   31.6060   42.2190 H   0  0  0  0  0  0  0  0  0  0  0  0
   39.3170   30.1440   42.4080 O   0  0  0  0  0  0  0  0  0  0  0  0
   38.5900   28.9560   42.5070 C   0  0  0  0  0  0  0  0  0  0  0  0
   37.6450   28.9220   43.5270 C   0  0  0  0  0  0  0  0  0  0  0  0
   36.8870   27.7690   43.6830 C   0  0  0  0  0  0  0  0  0  0  0  0
   37.0710   26.6880   42.8420 C   0  0  0  0  0  0  0  0  0  0  0  0
   38.0320   26.7740   41.8350 C   0  0  0  0  0  0  0  0  0  0  0  0
   38.7880   27.9000   41.6660 C   0  0  0  0  0  0  0  0  0  0  0  0
   37.5060   29.7750   44.1840 H   0  0  0  0  0  0  0  0  0  0  0  0
   36.1690   27.8110   44.4970 H   0  0  0  0  0  0  0  0  0  0  0  0
   36.4070   25.8870   43.1040 H   0  0  0  0  0  0  0  0  0  0  0  0
   38.1520   25.6110   41.0290 N   0  0  0  0  0  0  0  0  0  0  0  0
   37.2010   25.1260   40.0660 C   0  0  0  0  0  3  0  0  0  0  0  0
   36.3550   25.7620   39.8400 H   0  0  0  0  0  0  0  0  0  0  0  0
   36.6040   23.8410   40.6570 C   0  0  0  0  0  3  0  0  0  0  0  0
   35.8240   23.4070   40.0330 H   0  0  0  0  0  0  0  0  0  0  0  0
   37.6470   22.8900   40.9610 N   0  0  0  0  0  0  0  0  0  0  0  0
   37.8040   22.7740   41.9890 H   0  0  0  0  0  0  0  0  0  0  0  0
   38.8950   23.3740   40.4060 C   0  0  0  0  0  2  0  0  0  0  0  0
   39.2780   24.6940   41.0510 C   0  0  0  0  0  2  0  0  0  0  0  0
   39.7450   27.9720   40.6470 N   0  0  0  0  0  0  0  0  0  0  0  0
   39.7240   28.0900   39.6120 H   0  0  0  0  0  0  0  0  0  0  0  0
   40.6480   27.8720   41.2000 H   0  0  0  0  0  0  0  0  0  0  0  0
  1  6  1  0  0  0  0
  1 22  1  0  0  0  0
  2  1  2  0  0  0  0
  3  4  2  0  0  0  0
  3  2  1  0  0  0  0
  4  5  1  0  0  0  0
  5  9  1  0  0  0  0
  5  6  2  0  0  0  0
  6 24  1  0  0  0  0
  7  3  1  0  0  0  0
  8  4  1  0  0  0  0
 10  2  1  0  0  0  0
 10 12  1  0  0  0  0
 11 10  1  0  0  0  0
 13 14  2  0  0  0  0
 13 18  1  0  0  0  0
 14 15  1  0  0  0  0
 15 21  1  0  0  0  0
 15 16  2  0  0  0  0
 17 16  1  0  0  0  0
 17 10  1  0  0  0  0
 18 17  2  0  0  0  0
 19 13  1  0  0  0  0
 20 14  1  0  0  0  0
 22 23  1  0  0  0  0
 24 25  1  0  0  0  0
 25 26  1  0  0  0  0
 26 27  2  0  0  0  0
 26 31  1  0  0  0  0
 27 32  1  0  0  0  0
 28 33  1  0  0  0  0
 28 27  1  0  0  0  0
 29 28  2  0  0  0  0
 30 29  1  0  0  0  0
 30 25  2  0  0  0  0
 34 42  1  0  0  0  0
 34 29  1  0  0  0  0
 35 37  1  0  0  0  0
 35 34  1  0  0  0  0
 36 35  1  0  0  0  0
 37 39  1  0  0  0  0
 38 37  1  0  0  0  0
 39 40  1  0  0  0  0
 41 39  1  0  0  0  0
 41 42  1  0  0  0  0
 43 45  1  0  0  0  0
 43 30  1  0  0  0  0
 44 43  1  0  0  0  0
M  END
>  <minimizedAffinity>
-6.60828257

$$$$

 OpenBabel03242522383D

 45 48  0  0  0  0  0  0  0  0999 V2000
   37.4990   29.4140   42.0490 C   0  0  0  0  0  0  0  0  0  0  0  0
   36.9140   28.2330   41.6630 C   0  0  0  0  0  0  0  0  0  0  0  0
   36.5630   28.0870   40.3360 C   0  0  0  0  0  0  0  0  0  0  0  0
   36.7640   29.0580   39.3650 C   0  0  0  0  0  0  0  0  0  0  0  0
   37.3590   30.2470   39.7780 C   0  0  0  0  0  0  0  0  0  0  0  0
   37.7120   30.3980   41.1070 C   0  0  0  0  0  0  0  0  0  0  0  0
   36.1010   27.1610   40.0170 H   0  0  0  0  0  0  0  0  0  0  0  0
   36.4670   28.8900   38.3320 H   0  0  0  0  0  0  0  0  0  0  0  0
   37.5070   30.9840   39.0240 H   0  0  0  0  0  0  0  0  0  0  0  0
   36.6560   27.1360   42.6200 C   0  0  0  0  0  0  0  0  0  0  0  0
   36.4490   27.5960   43.6090 H   0  0  0  0  0  0  0  0  0  0  0  0
   35.7800   26.5550   42.2790 H   0  0  0  0  0  0  0  0  0  0  0  0
   39.9510   25.7730   43.6290 C   0  0  0  0  0  0  0  0  0  0  0  0
   39.9520   24.5290   43.0020 C   0  0  0  0  0  0  0  0  0  0  0  0
   38.8440   24.1890   42.2590 C   0  0  0  0  0  0  0  0  0  0  0  0
   37.8150   25.0540   42.1660 N   0  0  0  0  0  0  0  0  0  0  0  0
   37.8330   26.2550   42.7810 C   0  0  0  0  0  0  0  0  0  0  0  0
   38.9020   26.5900   43.5020 N   0  0  0  0  0  0  0  0  0  0  0  0
   40.7550   26.1690   44.2420 H   0  0  0  0  0  0  0  0  0  0  0  0
   40.8170   23.9120   43.1360 H   0  0  0  0  0  0  0  0  0  0  0  0
   38.8430   23.2230   41.7720 H   0  0  0  0  0  0  0  0  0  0  0  0
   37.8660   29.6070   43.3550 O   0  0  0  0  0  0  0  0  0  0  0  0
   38.0540   30.4870   43.7780 H   0  0  0  0  0  0  0  0  0  0  0  0
   38.3010   31.5960   41.4770 O   0  0  0  0  0  0  0  0  0  0  0  0
   39.6940   31.6800   41.4310 C   0  0  0  0  0  0  0  0  0  0  0  0
   40.3550   31.1850   42.5510 C   0  0  0  0  0  0  0  0  0  0  0  0
   41.7430   31.2390   42.5720 C   0  0  0  0  0  0  0  0  0  0  0  0
   42.4410   31.7710   41.5050 C   0  0  0  0  0  0  0  0  0  0  0  0
   41.7290   32.2520   40.4060 C   0  0  0  0  0  0  0  0  0  0  0  0
   40.3640   32.2080   40.3670 C   0  0  0  0  0  0  0  0  0  0  0  0
   39.7990   30.7700   43.3860 H   0  0  0  0  0  0  0  0  0  0  0  0
   42.1930   30.8370   43.4740 H   0  0  0  0  0  0  0  0  0  0  0  0
   43.4980   31.7350   41.6880 H   0  0  0  0  0  0  0  0  0  0  0  0
   42.5360   32.7850   39.3650 N   0  0  0  0  0  0  0  0  0  0  0  0
   43.0230   34.1320   39.2540 C   0  0  0  0  0  3  0  0  0  0  0  0
   42.8600   34.7900   40.0980 H   0  0  0  0  0  0  0  0  0  0  0  0
   42.2640   34.7710   38.0820 C   0  0  0  0  0  3  0  0  0  0  0  0
   42.5130   35.8210   37.9340 H   0  0  0  0  0  0  0  0  0  0  0  0
   42.4440   33.9960   36.8780 N   0  0  0  0  0  0  0  0  0  0  0  0
   41.5790   33.4810   36.5920 H   0  0  0  0  0  0  0  0  0  0  0  0
   43.4600   32.9910   37.1180 C   0  0  0  0  0  2  0  0  0  0  0  0
   43.0070   32.0390   38.2110 C   0  0  0  0  0  2  0  0  0  0  0  0
   39.6660   32.6920   39.2550 N   0  0  0  0  0  0  0  0  0  0  0  0
   39.4900   32.3610   38.2830 H   0  0  0  0  0  0  0  0  0  0  0  0
   39.2750   33.6070   39.6330 H   0  0  0  0  0  0  0  0  0  0  0  0
  1 22  1  0  0  0  0
  2  1  1  0  0  0  0
  2 10  1  0  0  0  0
  3  2  2  0  0  0  0
  4  5  2  0  0  0  0
  4  3  1  0  0  0  0
  5  6  1  0  0  0  0
  6 24  1  0  0  0  0
  6  1  2  0  0  0  0
  7  3  1  0  0  0  0
  8  4  1  0  0  0  0
  9  5  1  0  0  0  0
 10 17  1  0  0  0  0
 10 11  1  0  0  0  0
 12 10  1  0  0  0  0
 13 19  1  0  0  0  0
 14 20  1  0  0  0  0
 14 13  2  0  0  0  0
 15 14  1  0  0  0  0
 16 15  2  0  0  0  0
 16 17  1  0  0  0  0
 17 18  2  0  0  0  0
 18 13  1  0  0  0  0
 21 15  1  0  0  0  0
 22 23  1  0  0  0  0
 25 24  1  0  0  0  0
 25 26  1  0  0  0  0
 26 27  2  0  0  0  0
 26 31  1  0  0  0  0
 27 32  1  0  0  0  0
 28 33  1  0  0  0  0
 28 27  1  0  0  0  0
 29 28  2  0  0  0  0
 30 29  1  0  0  0  0
 30 25  2  0  0  0  0
 34 29  1  0  0  0  0
 35 34  1  0  0  0  0
 35 36  1  0  0  0  0
 37 35  1  0  0  0  0
 38 37  1  0  0  0  0
 39 41  1  0  0  0  0
 39 37  1  0  0  0  0
 40 39  1  0  0  0  0
 41 42  1  0  0  0  0
 42 34  1  0  0  0  0
 43 45  1  0  0  0  0
 43 30  1  0  0  0  0
 44 43  1  0  0  0  0
M  END
>  <minimizedAffinity>
-6.56607151

$$$$

 OpenBabel03242522383D

 45 48  0  0  0  0  0  0  0  0999 V2000
   36.5830   29.8980   41.0220 C   0  0  0  0  0  0  0  0  0  0  0  0
   36.5270   30.6070   39.8480 C   0  0  0  0  0  0  0  0  0  0  0  0
   36.1800   29.9270   38.6970 C   0  0  0  0  0  0  0  0  0  0  0  0
   35.8840   28.5720   38.6510 C   0  0  0  0  0  0  0  0  0  0  0  0
   35.9460   27.8740   39.8540 C   0  0  0  0  0  0  0  0  0  0  0  0
   36.2940   28.5500   41.0100 C   0  0  0  0  0  0  0  0  0  0  0  0
   36.1320   30.4730   37.7620 H   0  0  0  0  0  0  0  0  0  0  0  0
   35.6170   28.0860   37.7160 H   0  0  0  0  0  0  0  0  0  0  0  0
   35.7180   26.8350   39.8050 H   0  0  0  0  0  0  0  0  0  0  0  0
   36.8240   32.0540   39.7890 C   0  0  0  0  0  0  0  0  0  0  0  0
   36.3440   32.4570   38.8740 H   0  0  0  0  0  0  0  0  0  0  0  0
   36.4080   32.5470   40.6870 H   0  0  0  0  0  0  0  0  0  0  0  0
   40.2580   32.4740   38.4630 C   0  0  0  0  0  0  0  0  0  0  0  0
   40.9680   32.8270   39.6080 C   0  0  0  0  0  0  0  0  0  0  0  0
   40.2690   32.9120   40.7900 C   0  0  0  0  0  0  0  0  0  0  0  0
   38.9450   32.6570   40.7990 N   0  0  0  0  0  0  0  0  0  0  0  0
   38.2750   32.3150   39.6790 C   0  0  0  0  0  0  0  0  0  0  0  0
   38.9470   32.2320   38.5310 N   0  0  0  0  0  0  0  0  0  0  0  0
   40.6810   32.3690   37.4670 H   0  0  0  0  0  0  0  0  0  0  0  0
   42.0180   33.0110   39.4980 H   0  0  0  0  0  0  0  0  0  0  0  0
   40.8180   33.1870   41.6800 H   0  0  0  0  0  0  0  0  0  0  0  0
   36.9210   30.5280   42.1920 O   0  0  0  0  0  0  0  0  0  0  0  0
   37.2310   30.0760   43.0220 H   0  0  0  0  0  0  0  0  0  0  0  0
   36.3450   27.8190   42.1840 O   0  0  0  0  0  0  0  0  0  0  0  0
   37.3420   26.8500   42.3080 C   0  0  0  0  0  0  0  0  0  0  0  0
   36.9200   25.5380   42.1180 C   0  0  0  0  0  0  0  0  0  0  0  0
   37.8620   24.5220   42.2270 C   0  0  0  0  0  0  0  0  0  0  0  0
   39.1810   24.8150   42.5160 C   0  0  0  0  0  0  0  0  0  0  0  0
   39.5510   26.1480   42.6960 C   0  0  0  0  0  0  0  0  0  0  0  0
   38.6390   27.1610   42.5930 C   0  0  0  0  0  0  0  0  0  0  0  0
   35.8820   25.3150   41.8910 H   0  0  0  0  0  0  0  0  0  0  0  0
   37.4640   23.5240   42.0670 H   0  0  0  0  0  0  0  0  0  0  0  0
   39.7660   23.9170   42.5640 H   0  0  0  0  0  0  0  0  0  0  0  0
   40.9250   26.3450   42.9970 N   0  0  0  0  0  0  0  0  0  0  0  0
   42.0020   26.4870   42.0560 C   0  0  0  0  0  3  0  0  0  0  0  0
   41.7400   26.5660   41.0090 H   0  0  0  0  0  0  0  0  0  0  0  0
   42.8500   25.2130   42.1740 C   0  0  0  0  0  3  0  0  0  0  0  0
   43.6750   25.1810   41.4640 H   0  0  0  0  0  0  0  0  0  0  0  0
   43.2970   25.0240   43.5340 N   0  0  0  0  0  0  0  0  0  0  0  0
   42.8160   24.2280   44.0140 H   0  0  0  0  0  0  0  0  0  0  0  0
   42.9840   26.2160   44.2970 C   0  0  0  0  0  2  0  0  0  0  0  0
   41.4820   26.4320   44.3360 C   0  0  0  0  0  2  0  0  0  0  0  0
   39.0280   28.4930   42.7730 N   0  0  0  0  0  0  0  0  0  0  0  0
   39.5540   29.1980   42.2140 H   0  0  0  0  0  0  0  0  0  0  0  0
   38.6270   28.7010   43.7360 H   0  0  0  0  0  0  0  0  0  0  0  0
  1 22  1  0  0  0  0
  2  1  2  0  0  0  0
  3  2  1  0  0  0  0
  4  3  2  0  0  0  0
  4  5  1  0  0  0  0
  5  6  2  0  0  0  0
  6  1  1  0  0  0  0
  6 24  1  0  0  0  0
  7  3  1  0  0  0  0
  8  4  1  0  0  0  0
  9  5  1  0  0  0  0
 10  2  1  0  0  0  0
 10 12  1  0  0  0  0
 11 10  1  0  0  0  0
 13 18  2  0  0  0  0
 13 14  1  0  0  0  0
 14 15  2  0  0  0  0
 15 16  1  0  0  0  0
 15 21  1  0  0  0  0
 17 10  1  0  0  0  0
 17 16  2  0  0  0  0
 18 17  1  0  0  0  0
 19 13  1  0  0  0  0
 20 14  1  0  0  0  0
 22 23  1  0  0  0  0
 24 25  1  0  0  0  0
 25 30  1  0  0  0  0
 26 27  1  0  0  0  0
 26 25  2  0  0  0  0
 27 28  2  0  0  0  0
 28 33  1  0  0  0  0
 28 29  1  0  0  0  0
 29 34  1  0  0  0  0
 30 29  2  0  0  0  0
 30 43  1  0  0  0  0
 31 26  1  0  0  0  0
 32 27  1  0  0  0  0
 34 42  1  0  0  0  0
 35 37  1  0  0  0  0
 35 34  1  0  0  0  0
 36 35  1  0  0  0  0
 37 39  1  0  0  0  0
 38 37  1  0  0  0  0
 39 40  1  0  0  0  0
 39 41  1  0  0  0  0
 41 42  1  0  0  0  0
 43 45  1  0  0  0  0
 44 43  1  0  0  0  0
M  END
>  <minimizedAffinity>
-6.41467619

$$$$

 OpenBabel03242522383D

 45 48  0  0  0  0  0  0  0  0999 V2000
   37.7200   29.1060   42.3450 C   0  0  0  0  0  0  0  0  0  0  0  0
   37.6120   27.7480   42.5090 C   0  0  0  0  0  0  0  0  0  0  0  0
   36.9730   27.0250   41.5210 C   0  0  0  0  0  0  0  0  0  0  0  0
   36.4330   27.5840   40.3710 C   0  0  0  0  0  0  0  0  0  0  0  0
   36.5550   28.9630   40.2260 C   0  0  0  0  0  0  0  0  0  0  0  0
   37.1940   29.6920   41.2140 C   0  0  0  0  0  0  0  0  0  0  0  0
   36.8810   25.9510   41.6360 H   0  0  0  0  0  0  0  0  0  0  0  0
   35.9390   26.9670   39.6240 H   0  0  0  0  0  0  0  0  0  0  0  0
   36.1360   29.3800   39.3410 H   0  0  0  0  0  0  0  0  0  0  0  0
   38.1540   27.0550   43.6970 C   0  0  0  0  0  0  0  0  0  0  0  0
   38.1330   27.7730   44.5430 H   0  0  0  0  0  0  0  0  0  0  0  0
   37.5210   26.1780   43.9270 H   0  0  0  0  0  0  0  0  0  0  0  0
   41.8530   27.0650   43.4890 C   0  0  0  0  0  0  0  0  0  0  0  0
   42.1250   25.7520   43.1120 C   0  0  0  0  0  0  0  0  0  0  0  0
   41.0540   24.9050   42.9400 C   0  0  0  0  0  0  0  0  0  0  0  0
   39.8020   25.3650   43.1390 N   0  0  0  0  0  0  0  0  0  0  0  0
   39.5600   26.6420   43.5030 C   0  0  0  0  0  0  0  0  0  0  0  0
   40.5930   27.4670   43.6720 N   0  0  0  0  0  0  0  0  0  0  0  0
   42.5980   27.8380   43.6580 H   0  0  0  0  0  0  0  0  0  0  0  0
   43.1520   25.4810   42.9790 H   0  0  0  0  0  0  0  0  0  0  0  0
   41.2620   23.8840   42.6490 H   0  0  0  0  0  0  0  0  0  0  0  0
   38.3460   29.8680   43.2980 O   0  0  0  0  0  0  0  0  0  0  0  0
   38.2560   30.8520   43.4000 H   0  0  0  0  0  0  0  0  0  0  0  0
   37.2930   31.0610   41.0310 O   0  0  0  0  0  0  0  0  0  0  0  0
   38.3340   31.5390   40.2320 C   0  0  0  0  0  0  0  0  0  0  0  0
   38.1290   31.4210   38.8610 C   0  0  0  0  0  0  0  0  0  0  0  0
   39.1260   31.8770   38.0070 C   0  0  0  0  0  0  0  0  0  0  0  0
   40.2850   32.4320   38.5130 C   0  0  0  0  0  0  0  0  0  0  0  0
   40.4390   32.5270   39.8960 C   0  0  0  0  0  0  0  0  0  0  0  0
   39.4700   32.0840   40.7530 C   0  0  0  0  0  0  0  0  0  0  0  0
   37.2150   30.9840   38.4700 H   0  0  0  0  0  0  0  0  0  0  0  0
   38.9010   31.7550   36.9510 H   0  0  0  0  0  0  0  0  0  0  0  0
   40.9420   32.7280   37.7170 H   0  0  0  0  0  0  0  0  0  0  0  0
   41.6670   33.1040   40.3170 N   0  0  0  0  0  0  0  0  0  0  0  0
   42.9050   32.4170   40.5580 C   0  0  0  0  0  3  0  0  0  0  0  0
   42.9530   31.3700   40.2880 H   0  0  0  0  0  0  0  0  0  0  0  0
   43.1360   32.4620   42.0750 C   0  0  0  0  0  3  0  0  0  0  0  0
   44.0290   31.9210   42.3880 H   0  0  0  0  0  0  0  0  0  0  0  0
   43.1360   33.8250   42.5490 N   0  0  0  0  0  0  0  0  0  0  0  0
   42.2830   34.0610   43.1090 H   0  0  0  0  0  0  0  0  0  0  0  0
   43.1370   34.7160   41.4060 C   0  0  0  0  0  2  0  0  0  0  0  0
   41.8750   34.5160   40.5860 C   0  0  0  0  0  2  0  0  0  0  0  0
   39.6390   32.1910   42.1370 N   0  0  0  0  0  0  0  0  0  0  0  0
   39.6010   32.9630   42.8350 H   0  0  0  0  0  0  0  0  0  0  0  0
   39.8420   31.1800   42.4030 H   0  0  0  0  0  0  0  0  0  0  0  0
  1  2  1  0  0  0  0
  1 22  1  0  0  0  0
  2 10  1  0  0  0  0
  3  7  1  0  0  0  0
  3  2  2  0  0  0  0
  4  3  1  0  0  0  0
  5  4  2  0  0  0  0
  5  6  1  0  0  0  0
  6  1  2  0  0  0  0
  8  4  1  0  0  0  0
  9  5  1  0  0  0  0
 10 12  1  0  0  0  0
 10 11  1  0  0  0  0
 13 19  1  0  0  0  0
 13 18  1  0  0  0  0
 14 13  2  0  0  0  0
 15 14  1  0  0  0  0
 15 16  2  0  0  0  0
 16 17  1  0  0  0  0
 17 18  2  0  0  0  0
 17 10  1  0  0  0  0
 20 14  1  0  0  0  0
 21 15  1  0  0  0  0
 22 23  1  0  0  0  0
 24  6  1  0  0  0  0
 25 30  1  0  0  0  0
 25 24  1  0  0  0  0
 26 25  2  0  0  0  0
 27 28  2  0  0  0  0
 27 26  1  0  0  0  0
 28 29  1  0  0  0  0
 29 34  1  0  0  0  0
 29 30  2  0  0  0  0
 30 43  1  0  0  0  0
 31 26  1  0  0  0  0
 32 27  1  0  0  0  0
 33 28  1  0  0  0  0
 34 35  1  0  0  0  0
 34 42  1  0  0  0  0
 35 37  1  0  0  0  0
 36 35  1  0  0  0  0
 37 38  1  0  0  0  0
 37 39  1  0  0  0  0
 39 40  1  0  0  0  0
 41 39  1  0  0  0  0
 42 41  1  0  0  0  0
 43 45  1  0  0  0  0
 43 44  1  0  0  0  0
M  END
>  <minimizedAffinity>
-6.39315748

$$$$

 OpenBabel03242522383D

 45 48  0  0  0  0  0  0  0  0999 V2000
   37.7350   26.9650   42.5550 C   0  0  0  0  0  0  0  0  0  0  0  0
   38.1770   25.7240   42.1690 C   0  0  0  0  0  0  0  0  0  0  0  0
   39.4850   25.6060   41.7420 C   0  0  0  0  0  0  0  0  0  0  0  0
   40.3830   26.6620   41.6800 C   0  0  0  0  0  0  0  0  0  0  0  0
   39.9140   27.9110   42.0770 C   0  0  0  0  0  0  0  0  0  0  0  0
   38.6030   28.0350   42.5040 C   0  0  0  0  0  0  0  0  0  0  0  0
   39.8480   24.6330   41.4340 H   0  0  0  0  0  0  0  0  0  0  0  0
   41.4030   26.5120   41.3350 H   0  0  0  0  0  0  0  0  0  0  0  0
   40.6120   28.7130   42.0230 H   0  0  0  0  0  0  0  0  0  0  0  0
   37.2990   24.5340   42.1980 C   0  0  0  0  0  0  0  0  0  0  0  0
   37.8590   23.7180   42.7010 H   0  0  0  0  0  0  0  0  0  0  0  0
   36.3820   24.7730   42.7660 H   0  0  0  0  0  0  0  0  0  0  0  0
   36.0110   24.3580   38.7290 C   0  0  0  0  0  0  0  0  0  0  0  0
   36.3920   23.0740   38.3450 C   0  0  0  0  0  0  0  0  0  0  0  0
   37.0710   22.3090   39.2660 C   0  0  0  0  0  0  0  0  0  0  0  0
   37.3390   22.8180   40.4850 N   0  0  0  0  0  0  0  0  0  0  0  0
   36.9600   24.0650   40.8380 C   0  0  0  0  0  0  0  0  0  0  0  0
   36.3030   24.8100   39.9510 N   0  0  0  0  0  0  0  0  0  0  0  0
   35.4720   25.0670   38.1060 H   0  0  0  0  0  0  0  0  0  0  0  0
   36.1330   22.7600   37.3540 H   0  0  0  0  0  0  0  0  0  0  0  0
   37.3690   21.3120   38.9690 H   0  0  0  0  0  0  0  0  0  0  0  0
   36.4450   27.1340   42.9870 O   0  0  0  0  0  0  0  0  0  0  0  0
   35.9640   28.0030   43.0430 H   0  0  0  0  0  0  0  0  0  0  0  0
   38.1760   29.2940   42.8900 O   0  0  0  0  0  0  0  0  0  0  0  0
   37.9240   30.2330   41.8880 C   0  0  0  0  0  0  0  0  0  0  0  0
   36.7580   30.0230   41.1590 C   0  0  0  0  0  0  0  0  0  0  0  0
   36.4460   30.9200   40.1450 C   0  0  0  0  0  0  0  0  0  0  0  0
   37.2760   31.9910   39.8750 C   0  0  0  0  0  0  0  0  0  0  0  0
   38.4330   32.1560   40.6370 C   0  0  0  0  0  0  0  0  0  0  0  0
   38.7570   31.2840   41.6390 C   0  0  0  0  0  0  0  0  0  0  0  0
   36.1110   29.1780   41.3760 H   0  0  0  0  0  0  0  0  0  0  0  0
   35.5240   30.6960   39.6170 H   0  0  0  0  0  0  0  0  0  0  0  0
   36.8860   32.5780   39.0650 H   0  0  0  0  0  0  0  0  0  0  0  0
   39.2230   33.2810   40.2790 N   0  0  0  0  0  0  0  0  0  0  0  0
   40.3320   33.3000   39.3650 C   0  0  0  0  0  3  0  0  0  0  0  0
   40.5260   32.3980   38.8000 H   0  0  0  0  0  0  0  0  0  0  0  0
   41.5890   33.5310   40.2160 C   0  0  0  0  0  3  0  0  0  0  0  0
   42.5090   33.5120   39.6320 H   0  0  0  0  0  0  0  0  0  0  0  0
   41.4630   34.7440   40.9890 N   0  0  0  0  0  0  0  0  0  0  0  0
   41.3320   34.5620   42.0110 H   0  0  0  0  0  0  0  0  0  0  0  0
   40.2840   35.4600   40.5440 C   0  0  0  0  0  2  0  0  0  0  0  0
   39.0400   34.6270   40.7930 C   0  0  0  0  0  2  0  0  0  0  0  0
   39.9190   31.4670   42.3960 N   0  0  0  0  0  0  0  0  0  0  0  0
   40.2190   32.1150   43.1550 H   0  0  0  0  0  0  0  0  0  0  0  0
   40.5480   30.7030   42.0050 H   0  0  0  0  0  0  0  0  0  0  0  0
  1 22  1  0  0  0  0
  2 10  1  0  0  0  0
  2  1  2  0  0  0  0
  3  2  1  0  0  0  0
  4  3  2  0  0  0  0
  4  5  1  0  0  0  0
  5  6  2  0  0  0  0
  6  1  1  0  0  0  0
  6 24  1  0  0  0  0
  7  3  1  0  0  0  0
  8  4  1  0  0  0  0
  9  5  1  0  0  0  0
 10 11  1  0  0  0  0
 10 12  1  0  0  0  0
 13 18  1  0  0  0  0
 14 13  2  0  0  0  0
 14 15  1  0  0  0  0
 15 16  2  0  0  0  0
 16 17  1  0  0  0  0
 17 10  1  0  0  0  0
 18 17  2  0  0  0  0
 19 13  1  0  0  0  0
 20 14  1  0  0  0  0
 21 15  1  0  0  0  0
 22 23  1  0  0  0  0
 25 24  1  0  0  0  0
 26 31  1  0  0  0  0
 26 25  2  0  0  0  0
 27 26  1  0  0  0  0
 28 27  2  0  0  0  0
 28 29  1  0  0  0  0
 29 30  2  0  0  0  0
 30 25  1  0  0  0  0
 30 43  1  0  0  0  0
 32 27  1  0  0  0  0
 33 28  1  0  0  0  0
 34 29  1  0  0  0  0
 34 42  1  0  0  0  0
 35 37  1  0  0  0  0
 35 34  1  0  0  0  0
 36 35  1  0  0  0  0
 37 39  1  0  0  0  0
 38 37  1  0  0  0  0
 39 40  1  0  0  0  0
 41 42  1  0  0  0  0
 41 39  1  0  0  0  0
 43 44  1  0  0  0  0
 45 43  1  0  0  0  0
M  END
>  <minimizedAffinity>
-6.39216852

$$$$

 OpenBabel03242522383D

 45 48  0  0  0  0  0  0  0  0999 V2000
   37.7320   26.1170   42.5980 C   0  0  0  0  0  0  0  0  0  0  0  0
   37.7490   24.8310   42.1170 C   0  0  0  0  0  0  0  0  0  0  0  0
   38.8950   24.0850   42.3050 C   0  0  0  0  0  0  0  0  0  0  0  0
   40.0320   24.5500   42.9510 C   0  0  0  0  0  0  0  0  0  0  0  0
   39.9920   25.8560   43.4300 C   0  0  0  0  0  0  0  0  0  0  0  0
   38.8460   26.6090   43.2440 C   0  0  0  0  0  0  0  0  0  0  0  0
   38.9230   23.0680   41.9310 H   0  0  0  0  0  0  0  0  0  0  0  0
   40.9090   23.9180   43.0710 H   0  0  0  0  0  0  0  0  0  0  0  0
   40.8700   26.2020   43.9230 H   0  0  0  0  0  0  0  0  0  0  0  0
   36.5900   24.2410   41.4150 C   0  0  0  0  0  0  0  0  0  0  0  0
   36.3530   23.2770   41.9110 H   0  0  0  0  0  0  0  0  0  0  0  0
   35.7290   24.9290   41.4910 H   0  0  0  0  0  0  0  0  0  0  0  0
   37.4510   24.5890   37.8280 C   0  0  0  0  0  0  0  0  0  0  0  0
   37.4400   23.2630   37.3990 C   0  0  0  0  0  0  0  0  0  0  0  0
   37.1440   22.2950   38.3310 C   0  0  0  0  0  0  0  0  0  0  0  0
   36.8790   22.6540   39.6030 N   0  0  0  0  0  0  0  0  0  0  0  0
   36.8940   23.9450   39.9980 C   0  0  0  0  0  0  0  0  0  0  0  0
   37.1800   24.8870   39.1010 N   0  0  0  0  0  0  0  0  0  0  0  0
   37.6660   25.4510   37.2030 H   0  0  0  0  0  0  0  0  0  0  0  0
   37.6640   23.0790   36.3680 H   0  0  0  0  0  0  0  0  0  0  0  0
   37.1360   21.2650   38.0010 H   0  0  0  0  0  0  0  0  0  0  0  0
   36.6170   26.8990   42.4360 O   0  0  0  0  0  0  0  0  0  0  0  0
   36.5910   27.8890   42.5150 H   0  0  0  0  0  0  0  0  0  0  0  0
   38.8470   27.9030   43.7360 O   0  0  0  0  0  0  0  0  0  0  0  0
   39.2580   28.9270   42.8800 C   0  0  0  0  0  0  0  0  0  0  0  0
   40.6290   28.9940   42.6520 C   0  0  0  0  0  0  0  0  0  0  0  0
   41.1070   29.9900   41.8100 C   0  0  0  0  0  0  0  0  0  0  0  0
   40.2380   30.8860   41.2180 C   0  0  0  0  0  0  0  0  0  0  0  0
   38.8730   30.7740   41.4800 C   0  0  0  0  0  0  0  0  0  0  0  0
   38.3830   29.8010   42.3050 C   0  0  0  0  0  0  0  0  0  0  0  0
   41.3060   28.2860   43.1210 H   0  0  0  0  0  0  0  0  0  0  0  0
   42.1850   29.9840   41.6770 H   0  0  0  0  0  0  0  0  0  0  0  0
   40.7740   31.5840   40.6040 H   0  0  0  0  0  0  0  0  0  0  0  0
   38.0640   31.7450   40.8310 N   0  0  0  0  0  0  0  0  0  0  0  0
   36.8090   31.5180   40.1670 C   0  0  0  0  0  3  0  0  0  0  0  0
   36.3690   30.5340   40.2590 H   0  0  0  0  0  0  0  0  0  0  0  0
   37.0730   31.7130   38.6670 C   0  0  0  0  0  3  0  0  0  0  0  0
   36.1970   31.5130   38.0500 H   0  0  0  0  0  0  0  0  0  0  0  0
   37.6270   33.0220   38.4140 N   0  0  0  0  0  0  0  0  0  0  0  0
   38.6380   32.9900   38.1460 H   0  0  0  0  0  0  0  0  0  0  0  0
   37.5480   33.8040   39.6320 C   0  0  0  0  0  2  0  0  0  0  0  0
   38.3810   33.1580   40.7240 C   0  0  0  0  0  2  0  0  0  0  0  0
   37.0100   29.7000   42.5540 N   0  0  0  0  0  0  0  0  0  0  0  0
   36.1780   29.3660   42.0210 H   0  0  0  0  0  0  0  0  0  0  0  0
   36.9470   30.0820   43.5450 H   0  0  0  0  0  0  0  0  0  0  0  0
  1  6  1  0  0  0  0
  2  3  1  0  0  0  0
  2  1  2  0  0  0  0
  3  4  2  0  0  0  0
  4  8  1  0  0  0  0
  4  5  1  0  0  0  0
  5  9  1  0  0  0  0
  6  5  2  0  0  0  0
  6 24  1  0  0  0  0
  7  3  1  0  0  0  0
 10 12  1  0  0  0  0
 10 11  1  0  0  0  0
 10  2  1  0  0  0  0
 13 18  1  0  0  0  0
 14 13  2  0  0  0  0
 14 15  1  0  0  0  0
 15 16  2  0  0  0  0
 16 17  1  0  0  0  0
 17 10  1  0  0  0  0
 18 17  2  0  0  0  0
 19 13  1  0  0  0  0
 20 14  1  0  0  0  0
 21 15  1  0  0  0  0
 22 23  1  0  0  0  0
 22  1  1  0  0  0  0
 25 24  1  0  0  0  0
 26 25  1  0  0  0  0
 26 31  1  0  0  0  0
 27 26  2  0  0  0  0
 28 29  2  0  0  0  0
 28 27  1  0  0  0  0
 29 30  1  0  0  0  0
 30 43  1  0  0  0  0
 30 25  2  0  0  0  0
 32 27  1  0  0  0  0
 33 28  1  0  0  0  0
 34 29  1  0  0  0  0
 35 36  1  0  0  0  0
 35 34  1  0  0  0  0
 37 35  1  0  0  0  0
 38 37  1  0  0  0  0
 39 37  1  0  0  0  0
 39 41  1  0  0  0  0
 40 39  1  0  0  0  0
 41 42  1  0  0  0  0
 42 34  1  0  0  0  0
 43 45  1  0  0  0  0
 44 43  1  0  0  0  0
M  END
>  <minimizedAffinity>
-6.32958603

$$$$

 OpenBabel03242522383D

 45 48  0  0  0  0  0  0  0  0999 V2000
   38.1220   29.3750   41.1720 C   0  0  0  0  0  0  0  0  0  0  0  0
   37.3650   28.6840   42.0860 C   0  0  0  0  0  0  0  0  0  0  0  0
   36.0440   28.4340   41.7760 C   0  0  0  0  0  0  0  0  0  0  0  0
   35.4290   28.8340   40.5970 C   0  0  0  0  0  0  0  0  0  0  0  0
   36.2150   29.5320   39.6850 C   0  0  0  0  0  0  0  0  0  0  0  0
   37.5410   29.7870   39.9920 C   0  0  0  0  0  0  0  0  0  0  0  0
   35.4340   27.8890   42.4870 H   0  0  0  0  0  0  0  0  0  0  0  0
   34.3830   28.6100   40.4040 H   0  0  0  0  0  0  0  0  0  0  0  0
   35.7330   29.8350   38.7860 H   0  0  0  0  0  0  0  0  0  0  0  0
   37.9240   28.2130   43.3710 C   0  0  0  0  0  0  0  0  0  0  0  0
   38.6760   28.9590   43.7030 H   0  0  0  0  0  0  0  0  0  0  0  0
   37.1100   28.1370   44.1150 H   0  0  0  0  0  0  0  0  0  0  0  0
   40.4130   25.4810   43.6280 C   0  0  0  0  0  0  0  0  0  0  0  0
   39.8060   24.4670   42.8910 C   0  0  0  0  0  0  0  0  0  0  0  0
   38.5780   24.7360   42.3300 C   0  0  0  0  0  0  0  0  0  0  0  0
   38.0150   25.9470   42.5110 N   0  0  0  0  0  0  0  0  0  0  0  0
   38.6200   26.9170   43.2290 C   0  0  0  0  0  0  0  0  0  0  0  0
   39.8090   26.6620   43.7740 N   0  0  0  0  0  0  0  0  0  0  0  0
   41.3780   25.4080   44.1230 H   0  0  0  0  0  0  0  0  0  0  0  0
   40.3330   23.5390   42.8050 H   0  0  0  0  0  0  0  0  0  0  0  0
   38.1040   23.9500   41.7580 H   0  0  0  0  0  0  0  0  0  0  0  0
   39.4390   29.6480   41.4340 O   0  0  0  0  0  0  0  0  0  0  0  0
   39.9880   30.3380   40.9730 H   0  0  0  0  0  0  0  0  0  0  0  0
   38.2880   30.4840   39.0580 O   0  0  0  0  0  0  0  0  0  0  0  0
   38.6420   31.8020   39.3560 C   0  0  0  0  0  0  0  0  0  0  0  0
   37.5740   32.6640   39.5880 C   0  0  0  0  0  0  0  0  0  0  0  0
   37.8550   33.9910   39.8900 C   0  0  0  0  0  0  0  0  0  0  0  0
   39.1620   34.4340   39.9580 C   0  0  0  0  0  0  0  0  0  0  0  0
   40.1940   33.5280   39.7180 C   0  0  0  0  0  0  0  0  0  0  0  0
   39.9390   32.2190   39.4190 C   0  0  0  0  0  0  0  0  0  0  0  0
   36.5500   32.3080   39.5320 H   0  0  0  0  0  0  0  0  0  0  0  0
   36.9770   34.6060   40.0580 H   0  0  0  0  0  0  0  0  0  0  0  0
   39.1940   35.4800   40.2000 H   0  0  0  0  0  0  0  0  0  0  0  0
   41.5000   34.0810   39.8030 N   0  0  0  0  0  0  0  0  0  0  0  0
   42.2140   34.7720   38.7650 C   0  0  0  0  0  3  0  0  0  0  0  0
   41.6720   35.0000   37.8560 H   0  0  0  0  0  0  0  0  0  0  0  0
   43.3610   33.8450   38.3390 C   0  0  0  0  0  3  0  0  0  0  0  0
   43.9470   34.2440   37.5120 H   0  0  0  0  0  0  0  0  0  0  0  0
   44.1870   33.5050   39.4730 N   0  0  0  0  0  0  0  0  0  0  0  0
   44.0720   32.5090   39.7750 H   0  0  0  0  0  0  0  0  0  0  0  0
   43.7910   34.3250   40.6010 C   0  0  0  0  0  2  0  0  0  0  0  0
   42.3500   34.0330   40.9800 C   0  0  0  0  0  2  0  0  0  0  0  0
   40.9870   31.3220   39.1850 N   0  0  0  0  0  0  0  0  0  0  0  0
   41.6900   30.8270   39.7740 H   0  0  0  0  0  0  0  0  0  0  0  0
   40.9350   31.2090   38.1280 H   0  0  0  0  0  0  0  0  0  0  0  0
  1 22  1  0  0  0  0
  1  2  1  0  0  0  0
  2 10  1  0  0  0  0
  3  2  2  0  0  0  0
  3  7  1  0  0  0  0
  4  3  1  0  0  0  0
  5  6  1  0  0  0  0
  5  4  2  0  0  0  0
  6  1  2  0  0  0  0
  8  4  1  0  0  0  0
  9  5  1  0  0  0  0
 10 11  1  0  0  0  0
 10 12  1  0  0  0  0
 13 18  1  0  0  0  0
 13 19  1  0  0  0  0
 14 13  2  0  0  0  0
 15 16  2  0  0  0  0
 15 14  1  0  0  0  0
 16 17  1  0  0  0  0
 17 10  1  0  0  0  0
 17 18  2  0  0  0  0
 20 14  1  0  0  0  0
 21 15  1  0  0  0  0
 23 22  1  0  0  0  0
 24 25  1  0  0  0  0
 24  6  1  0  0  0  0
 25 30  2  0  0  0  0
 25 26  1  0  0  0  0
 26 27  2  0  0  0  0
 27 28  1  0  0  0  0
 27 32  1  0  0  0  0
 28 33  1  0  0  0  0
 29 34  1  0  0  0  0
 29 28  2  0  0  0  0
 30 29  1  0  0  0  0
 31 26  1  0  0  0  0
 34 42  1  0  0  0  0
 35 34  1  0  0  0  0
 36 35  1  0  0  0  0
 37 35  1  0  0  0  0
 37 39  1  0  0  0  0
 38 37  1  0  0  0  0
 39 40  1  0  0  0  0
 39 41  1  0  0  0  0
 41 42  1  0  0  0  0
 43 30  1  0  0  0  0
 43 44  1  0  0  0  0
 45 43  1  0  0  0  0
M  END
>  <minimizedAffinity>
-6.29584742

$$$$
