
 OpenBabel03252509253D

 30 32  0  0  1  0  0  0  0  0999 V2000
   47.0000   35.1260   41.7650 C   0  0  1  0  0  0  0  0  0  0  0  0
   48.4790   35.5840   41.8350 C   0  0  0  0  0  0  0  0  0  0  0  0
   47.9550   34.3260   41.1120 C   0  0  2  0  0  0  0  0  0  0  0  0
   46.3970   35.8830   41.2570 H   0  0  0  0  0  0  0  0  0  0  0  0
   49.0250   35.4860   42.7740 H   0  0  0  0  0  0  0  0  0  0  0  0
   48.8210   36.3590   41.1390 H   0  0  0  0  0  0  0  0  0  0  0  0
   48.4250   33.4050   41.5560 H   0  0  0  0  0  0  0  0  0  0  0  0
   44.9760   34.8990   44.9100 C   0  0  0  0  0  0  0  0  0  0  0  0
   45.4300   35.3760   43.6520 C   0  0  0  0  0  0  0  0  0  0  0  0
   46.4960   34.7160   43.1210 C   0  0  0  0  0  0  0  0  0  0  0  0
   47.0820   33.6630   43.7740 N   0  0  0  0  0  0  0  0  0  0  0  0
   46.6200   33.2410   44.9690 C   0  0  0  0  0  0  0  0  0  0  0  0
   45.5590   33.8680   45.5340 N   0  0  0  0  0  0  0  0  0  0  0  0
   44.1260   35.3860   45.3830 H   0  0  0  0  0  0  0  0  0  0  0  0
   47.2000   32.4030   45.3320 H   0  0  0  0  0  0  0  0  0  0  0  0
   44.8250   36.4890   43.0120 N   0  0  0  0  0  0  0  0  0  0  0  0
   44.1880   36.5380   42.1920 H   0  0  0  0  0  0  0  0  0  0  0  0
   45.2010   37.2790   43.6030 H   0  0  0  0  0  0  0  0  0  0  0  0
   48.0280   34.2800   39.6000 C   0  0  0  0  0  0  0  0  0  0  0  0
   48.7790   34.9600   39.1880 H   0  0  0  0  0  0  0  0  0  0  0  0
   47.0380   34.6890   39.2390 H   0  0  0  0  0  0  0  0  0  0  0  0
   48.0650   32.9310   39.1450 N   0  0  0  0  0  0  0  0  0  0  0  0
   49.0950   32.6300   38.1940 C   0  0  0  0  0  3  0  0  0  0  0  0
   48.9860   31.5240   37.9840 H   0  0  0  0  0  0  0  0  0  0  0  0
   48.9320   33.3080   36.8680 C   0  0  0  0  0  3  0  0  0  0  0  0
   49.0560   32.6030   36.0040 H   0  0  0  0  0  0  0  0  0  0  0  0
   47.7100   34.0260   36.7010 N   0  0  0  0  0  0  0  0  0  0  0  0
   47.5400   34.1270   35.6630 H   0  0  0  0  0  0  0  0  0  0  0  0
   46.5520   33.4300   37.2930 C   0  0  0  0  0  2  0  0  0  0  0  0
   46.8040   32.5900   38.4990 C   0  0  0  0  0  2  0  0  0  0  0  0
  1  4  1  6  0  0  0
  1  2  1  0  0  0  0
  1 10  1  0  0  0  0
  2  5  1  0  0  0  0
  3  7  1  1  0  0  0
  3  1  1  0  0  0  0
  3  2  1  0  0  0  0
  6  2  1  0  0  0  0
  8 14  1  0  0  0  0
  8 13  1  0  0  0  0
  9  8  2  0  0  0  0
 10  9  1  0  0  0  0
 10 11  2  0  0  0  0
 11 12  1  0  0  0  0
 12 15  1  0  0  0  0
 12 13  2  0  0  0  0
 16 18  1  0  0  0  0
 16  9  1  0  0  0  0
 17 16  1  0  0  0  0
 19  3  1  0  0  0  0
 20 19  1  0  0  0  0
 21 19  1  0  0  0  0
 22 19  1  0  0  0  0
 23 22  1  0  0  0  0
 24 23  1  0  0  0  0
 25 23  1  0  0  0  0
 26 25  1  0  0  0  0
 27 25  1  0  0  0  0
 27 29  1  0  0  0  0
 28 27  1  0  0  0  0
 29 30  1  0  0  0  0
 30 22  1  0  0  0  0
M  END
>  <minimizedAffinity>
-5.08331537

>  <minimizedRMSD>
1.4682157

$$$$
