
 OpenBabel03252509033D

 48 50  0  0  1  0  0  0  0  0999 V2000
   46.6260   34.5080   43.6280 N   0  0  0  0  0  0  0  0  0  0  0  0
   46.1340   35.4820   42.7260 C   0  0  0  0  0  0  0  0  0  0  0  0
   44.6290   35.6390   42.7090 C   0  0  0  0  0  0  0  0  0  0  0  0
   43.9790   35.4140   44.0470 C   0  0  0  0  0  0  0  0  0  0  0  0
   45.0030   35.1640   45.1350 C   0  0  0  0  0  0  0  0  0  0  0  0
   45.8120   33.9400   44.5900 C   0  0  2  0  0  0  0  0  0  0  0  0
   46.5420   36.4760   43.0670 H   0  0  0  0  0  0  0  0  0  0  0  0
   46.4550   35.3930   41.6840 H   0  0  0  0  0  0  0  0  0  0  0  0
   44.2260   34.9200   41.9570 H   0  0  0  0  0  0  0  0  0  0  0  0
   44.4170   36.6490   42.2900 H   0  0  0  0  0  0  0  0  0  0  0  0
   43.3320   34.5080   44.0060 H   0  0  0  0  0  0  0  0  0  0  0  0
   43.3670   36.3160   44.3340 H   0  0  0  0  0  0  0  0  0  0  0  0
   44.4960   34.8960   46.0620 H   0  0  0  0  0  0  0  0  0  0  0  0
   45.6510   36.0600   45.1820 H   0  0  0  0  0  0  0  0  0  0  0  0
   45.0240   33.2380   44.2600 H   0  0  0  0  0  0  0  0  0  0  0  0
   47.7320   33.7320   43.1150 C   0  0  0  0  0  0  0  0  0  0  0  0
   48.2970   33.3350   43.9750 H   0  0  0  0  0  0  0  0  0  0  0  0
   48.3970   34.4200   42.5610 H   0  0  0  0  0  0  0  0  0  0  0  0
   47.2030   32.6410   42.2510 C   0  0  0  0  0  0  0  0  0  0  0  0
   47.3980   31.6240   42.6250 H   0  0  0  0  0  0  0  0  0  0  0  0
   46.0840   32.7200   42.1250 H   0  0  0  0  0  0  0  0  0  0  0  0
   49.3180   32.1210   39.1890 C   0  0  0  0  0  0  0  0  0  0  0  0
   48.7840   31.9990   40.4840 C   0  0  0  0  0  0  0  0  0  0  0  0
   47.7460   32.7910   40.8770 C   0  0  0  0  0  0  0  0  0  0  0  0
   47.2740   33.6680   39.9880 N   0  0  0  0  0  0  0  0  0  0  0  0
   47.7680   33.7990   38.7520 C   0  0  0  0  0  0  0  0  0  0  0  0
   48.7950   33.0290   38.3330 N   0  0  0  0  0  0  0  0  0  0  0  0
   50.1440   31.4400   38.9820 H   0  0  0  0  0  0  0  0  0  0  0  0
   49.1840   31.2850   41.1790 H   0  0  0  0  0  0  0  0  0  0  0  0
   47.3500   34.5280   38.0600 H   0  0  0  0  0  0  0  0  0  0  0  0
   46.5190   33.5420   45.7070 O   0  0  0  0  0  0  0  0  0  0  0  0
   45.5880   31.1530   45.0020 O   0  0  0  0  0  0  0  0  0  0  0  0
   46.1900   31.9470   46.1570 P   0  0  2  0  0  0  0  0  0  0  0  0
   44.9840   32.0340   47.3530 O   0  0  0  0  0  0  0  0  0  0  0  0
   45.2670   32.6470   48.0570 H   0  0  0  0  0  0  0  0  0  0  0  0
   47.5130   31.1680   46.8120 O   0  0  0  0  0  0  0  0  0  0  0  0
   47.9640   30.2060   45.9480 C   0  0  0  0  0  0  0  0  0  0  0  0
   48.7990   30.6850   45.3580 H   0  0  0  0  0  0  0  0  0  0  0  0
   47.1720   29.9600   45.2360 H   0  0  0  0  0  0  0  0  0  0  0  0
   48.4910   29.0130   46.5310 N   0  0  0  0  0  0  0  0  0  0  0  0
   47.5560   28.2800   47.3240 C   0  0  0  0  0  3  0  0  0  0  0  0
   47.1190   28.8830   48.1530 H   0  0  0  0  0  0  0  0  0  0  0  0
   48.3060   27.1090   47.9540 C   0  0  0  0  0  3  0  0  0  0  0  0
   48.7210   26.4450   47.1860 H   0  0  0  0  0  0  0  0  0  0  0  0
   49.3330   27.5340   48.8560 N   0  0  0  0  0  0  0  0  0  0  0  0
   50.2620   27.1360   48.5950 H   0  0  0  0  0  0  0  0  0  0  0  0
   49.4350   28.9650   48.8070 C   0  0  0  0  0  2  0  0  0  0  0  0
   49.6010   29.4000   47.3800 C   0  0  0  0  0  2  0  0  0  0  0  0
  1  6  1  0  0  0  0
  2  7  1  0  0  0  0
  2  1  1  0  0  0  0
  3  2  1  0  0  0  0
  3  4  1  0  0  0  0
  4 12  1  0  0  0  0
  4  5  1  0  0  0  0
  5 14  1  0  0  0  0
  5 13  1  0  0  0  0
  6 15  1  6  0  0  0
  6  5  1  0  0  0  0
  6 31  1  0  0  0  0
  8  2  1  0  0  0  0
  9  3  1  0  0  0  0
 10  3  1  0  0  0  0
 11  4  1  0  0  0  0
 16  1  1  0  0  0  0
 16 17  1  0  0  0  0
 18 16  1  0  0  0  0
 19 20  1  0  0  0  0
 19 16  1  0  0  0  0
 21 19  1  0  0  0  0
 22 23  1  0  0  0  0
 23 24  2  0  0  0  0
 23 29  1  0  0  0  0
 24 19  1  0  0  0  0
 25 24  1  0  0  0  0
 26 25  2  0  0  0  0
 27 26  1  0  0  0  0
 27 22  2  0  0  0  0
 28 22  1  0  0  0  0
 30 26  1  0  0  0  0
 31 33  1  0  0  0  0
 33 32  2  6  0  0  0
 33 36  1  0  0  0  0
 33 34  1  0  0  0  0
 34 35  1  0  0  0  0
 37 40  1  0  0  0  0
 37 36  1  0  0  0  0
 38 37  1  0  0  0  0
 39 37  1  0  0  0  0
 40 41  1  0  0  0  0
 40 48  1  0  0  0  0
 41 43  1  0  0  0  0
 41 42  1  0  0  0  0
 43 45  1  0  0  0  0
 44 43  1  0  0  0  0
 46 45  1  0  0  0  0
 47 45  1  0  0  0  0
 48 47  1  0  0  0  0
M  END
>  <minimizedAffinity>
-4.3596859

>  <minimizedRMSD>
2.60930634

$$$$
