
 OpenBabel03252506543D

 38 42  0  0  0  0  0  0  0  0999 V2000
   47.2030   31.2230   45.2250 C   0  0  0  0  0  0  0  0  0  0  0  0
   46.9230   32.5800   45.1440 C   0  0  0  0  0  0  0  0  0  0  0  0
   46.3520   33.2960   46.1700 C   0  0  0  0  0  0  0  0  0  0  0  0
   46.0290   32.6520   47.3610 C   0  0  0  0  0  0  0  0  0  0  0  0
   45.4740   33.0170   48.5500 N   0  0  0  0  0  0  0  0  0  0  0  0
   45.4100   31.9240   49.3490 C   0  0  0  0  0  0  0  0  0  0  0  0
   45.9280   30.8840   48.6450 N   0  0  0  0  0  0  0  0  0  0  0  0
   46.3100   31.3110   47.4310 C   0  0  0  0  0  0  0  0  0  0  0  0
   46.8760   30.5760   46.4290 C   0  0  0  0  0  0  0  0  0  0  0  0
   47.6560   30.6690   44.4040 H   0  0  0  0  0  0  0  0  0  0  0  0
   46.1400   34.3520   46.0880 H   0  0  0  0  0  0  0  0  0  0  0  0
   45.1780   33.9950   48.7280 H   0  0  0  0  0  0  0  0  0  0  0  0
   45.0080   31.9290   50.3600 H   0  0  0  0  0  0  0  0  0  0  0  0
   46.8010   34.9980   42.3750 C   0  0  0  0  0  0  0  0  0  0  0  0
   47.8750   34.6080   41.5830 C   0  0  0  0  0  0  0  0  0  0  0  0
   48.6410   33.5200   41.9950 C   0  0  0  0  0  0  0  0  0  0  0  0
   48.3030   32.8820   43.1590 N   0  0  0  0  0  0  0  0  0  0  0  0
   47.2500   33.2910   43.9040 C   0  0  0  0  0  0  0  0  0  0  0  0
   46.5090   34.3370   43.5130 N   0  0  0  0  0  0  0  0  0  0  0  0
   46.2320   35.8490   42.0190 H   0  0  0  0  0  0  0  0  0  0  0  0
   48.1760   35.0840   40.6560 H   0  0  0  0  0  0  0  0  0  0  0  0
   49.5060   33.1360   41.4410 H   0  0  0  0  0  0  0  0  0  0  0  0
   47.1420   29.1390   46.5940 C   0  0  0  0  0  0  0  0  0  0  0  0
   48.1200   28.4360   45.9330 C   0  0  0  0  0  0  0  0  0  0  0  0
   47.9990   27.1290   46.3990 C   0  0  0  0  0  0  0  0  0  0  0  0
   46.9630   27.1190   47.3070 C   0  0  0  0  0  0  0  0  0  0  0  0
   46.4750   28.3380   47.3970 O   0  0  0  0  0  0  0  0  0  0  0  0
   48.8390   28.7930   45.2060 H   0  0  0  0  0  0  0  0  0  0  0  0
   48.5830   26.2620   46.1270 H   0  0  0  0  0  0  0  0  0  0  0  0
   46.4470   26.0310   48.0580 N   0  0  0  0  0  0  0  0  0  0  0  0
   47.2610   25.1540   48.8440 C   0  0  0  0  0  0  0  0  0  0  0  0
   47.9060   25.7830   49.5070 H   0  0  0  0  0  0  0  0  0  0  0  0
   46.4920   24.1770   49.6580 C   0  0  0  0  0  0  0  0  0  0  0  0
   47.1710   23.8700   50.5060 H   0  0  0  0  0  0  0  0  0  0  0  0
   45.2810   24.6550   50.2440 N   0  0  0  0  0  0  0  0  0  0  0  0
   45.4100   24.9990   51.2420 H   0  0  0  0  0  0  0  0  0  0  0  0
   44.6280   25.7210   49.5500 C   0  0  0  0  0  0  0  0  0  0  0  0
   45.0380   25.6920   48.1100 C   0  0  0  0  0  0  0  0  0  0  0  0
  1  9  1  0  0  0  0
  2  1  2  0  0  0  0
  2  3  1  0  0  0  0
  3  4  2  0  0  0  0
  4  8  1  0  0  0  0
  4  5  1  0  0  0  0
  5 12  1  0  0  0  0
  5  6  1  0  0  0  0
  6 13  1  0  0  0  0
  7  6  2  0  0  0  0
  8  7  1  0  0  0  0
  9 23  1  0  0  0  0
  9  8  2  0  0  0  0
 10  1  1  0  0  0  0
 11  3  1  0  0  0  0
 14 19  1  0  0  0  0
 15 16  1  0  0  0  0
 15 14  2  0  0  0  0
 16 17  2  0  0  0  0
 17 18  1  0  0  0  0
 18  2  1  0  0  0  0
 19 18  2  0  0  0  0
 20 14  1  0  0  0  0
 21 15  1  0  0  0  0
 22 16  1  0  0  0  0
 23 27  1  0  0  0  0
 24 25  1  0  0  0  0
 24 23  2  0  0  0  0
 25 26  2  0  0  0  0
 26 27  1  0  0  0  0
 26 30  1  0  0  0  0
 28 24  1  0  0  0  0
 29 25  1  0  0  0  0
 30 38  1  0  0  0  0
 30 31  1  0  0  0  0
 31 32  1  0  0  0  0
 31 33  1  0  0  0  0
 33 35  1  0  0  0  0
 33 34  1  0  0  0  0
 35 36  1  0  0  0  0
 37 35  1  0  0  0  0
 38 37  1  0  0  0  0
M  END
>  <minimizedAffinity>
-6.22877073

>  <minimizedRMSD>
1.36510229

$$$$
