
 OpenBabel03252505403D

 28 30  0  0  1  0  0  0  0  0999 V2000
   39.0560   29.0450   42.6940 C   0  0  1  0  0  0  0  0  0  0  0  0
   40.3930   29.7140   42.2960 C   0  0  0  0  0  0  0  0  0  0  0  0
   39.1860   29.7380   41.4120 C   0  0  2  0  0  0  0  0  0  0  0  0
   38.5960   29.5820   43.5710 H   0  0  0  0  0  0  0  0  0  0  0  0
   40.7200   30.6050   42.8650 H   0  0  0  0  0  0  0  0  0  0  0  0
   41.2390   29.0380   42.0590 H   0  0  0  0  0  0  0  0  0  0  0  0
   39.2980   29.0550   40.5180 H   0  0  0  0  0  0  0  0  0  0  0  0
   38.4840   30.9300   41.0810 N   0  0  1  0  0  0  0  0  0  0  0  0
   39.2770   32.1400   41.1400 C   0  0  0  0  0  3  0  0  0  0  0  0
   40.2280   32.0710   40.5740 H   0  0  0  0  0  0  0  0  0  0  0  0
   38.5420   33.3320   40.6090 C   0  0  0  0  0  3  0  0  0  0  0  0
   38.5780   34.1500   41.3550 H   0  0  0  0  0  0  0  0  0  0  0  0
   37.1590   33.0680   40.3180 N   0  0  0  0  0  0  0  0  0  0  0  0
   36.8110   33.9010   39.7720 H   0  0  0  0  0  0  0  0  0  0  0  0
   36.9080   31.8830   39.5600 C   0  0  0  0  0  2  0  0  0  0  0  0
   37.9600   30.8270   39.7310 C   0  0  0  0  0  2  0  0  0  0  0  0
   39.1360   27.5550   42.7770 C   0  0  0  0  0  0  0  0  0  0  0  0
   40.1150   26.9590   43.6150 C   0  0  0  0  0  0  0  0  0  0  0  0
   40.1500   25.5750   43.6800 C   0  0  0  0  0  0  0  0  0  0  0  0
   39.2550   24.8670   42.9440 N   0  0  0  0  0  0  0  0  0  0  0  0
   38.3380   25.4750   42.1570 C   0  0  0  0  0  0  0  0  0  0  0  0
   38.2840   26.8290   42.0780 N   0  0  0  0  0  0  0  0  0  0  0  0
   40.7950   27.5600   44.1740 H   0  0  0  0  0  0  0  0  0  0  0  0
   40.8660   25.0500   44.2950 H   0  0  0  0  0  0  0  0  0  0  0  0
   37.4370   24.5140   41.4370 C   0  0  0  0  0  0  0  0  0  0  0  0
   38.0600   23.3140   41.1890 F   0  0  0  0  0  0  0  0  0  0  0  0
   37.0490   25.0680   40.2130 F   0  0  0  0  0  0  0  0  0  0  0  0
   36.2650   24.3610   42.1690 F   0  0  0  0  0  0  0  0  0  0  0  0
  1 17  1  0  0  0  0
  1  4  1  1  0  0  0
  2  1  1  0  0  0  0
  2  5  1  0  0  0  0
  3  7  1  6  0  0  0
  3  2  1  0  0  0  0
  3  1  1  0  0  0  0
  6  2  1  0  0  0  0
  8 16  1  6  0  0  0
  8  9  1  0  0  0  0
  8  3  1  0  0  0  0
 10  9  1  0  0  0  0
 11  9  1  0  0  0  0
 11 12  1  0  0  0  0
 13 11  1  0  0  0  0
 14 13  1  0  0  0  0
 15 16  1  0  0  0  0
 15 13  1  0  0  0  0
 17 18  1  0  0  0  0
 18 19  2  0  0  0  0
 18 23  1  0  0  0  0
 19 24  1  0  0  0  0
 20 19  1  0  0  0  0
 21 20  2  0  0  0  0
 22 21  1  0  0  0  0
 22 17  2  0  0  0  0
 25 21  1  0  0  0  0
 25 28  1  0  0  0  0
 26 25  1  0  0  0  0
 27 25  1  0  0  0  0
M  END
>  <minimizedAffinity>
-5.31120205

$$$$

 OpenBabel03252505403D

 28 30  0  0  1  0  0  0  0  0999 V2000
   38.2180   28.6420   42.3850 C   0  0  1  0  0  0  0  0  0  0  0  0
   37.4080   28.3990   43.6800 C   0  0  0  0  0  0  0  0  0  0  0  0
   37.5580   27.3570   42.6160 C   0  0  2  0  0  0  0  0  0  0  0  0
   39.3130   28.7550   42.6230 H   0  0  0  0  0  0  0  0  0  0  0  0
   37.9600   28.3430   44.6370 H   0  0  0  0  0  0  0  0  0  0  0  0
   36.4520   28.9510   43.7820 H   0  0  0  0  0  0  0  0  0  0  0  0
   36.6040   27.2050   42.0290 H   0  0  0  0  0  0  0  0  0  0  0  0
   38.2550   26.1330   42.8150 N   0  0  1  0  0  0  0  0  0  0  0  0
   37.9910   25.1130   41.8230 C   0  0  0  0  0  3  0  0  0  0  0  0
   38.1110   25.4720   40.7800 H   0  0  0  0  0  0  0  0  0  0  0  0
   38.8820   23.9200   41.9760 C   0  0  0  0  0  3  0  0  0  0  0  0
   38.2650   23.0000   42.0140 H   0  0  0  0  0  0  0  0  0  0  0  0
   39.6850   23.9560   43.1680 N   0  0  0  0  0  0  0  0  0  0  0  0
   40.4010   23.1870   43.0620 H   0  0  0  0  0  0  0  0  0  0  0  0
   40.3670   25.1890   43.4100 C   0  0  0  0  0  2  0  0  0  0  0  0
   39.6850   26.3800   42.8050 C   0  0  0  0  0  2  0  0  0  0  0  0
   37.6100   29.6700   41.4840 C   0  0  0  0  0  0  0  0  0  0  0  0
   36.3850   29.3790   40.8300 C   0  0  0  0  0  0  0  0  0  0  0  0
   35.8420   30.3590   40.0150 C   0  0  0  0  0  0  0  0  0  0  0  0
   36.5050   31.5360   39.8840 N   0  0  0  0  0  0  0  0  0  0  0  0
   37.6730   31.7730   40.5260 C   0  0  0  0  0  0  0  0  0  0  0  0
   38.2230   30.8280   41.3300 N   0  0  0  0  0  0  0  0  0  0  0  0
   35.9020   28.4370   40.9670 H   0  0  0  0  0  0  0  0  0  0  0  0
   34.9120   30.2110   39.4850 H   0  0  0  0  0  0  0  0  0  0  0  0
   38.2380   33.1380   40.2560 C   0  0  0  0  0  0  0  0  0  0  0  0
   38.7150   33.7300   41.4000 F   0  0  0  0  0  0  0  0  0  0  0  0
   37.2390   33.9570   39.7220 F   0  0  0  0  0  0  0  0  0  0  0  0
   39.2090   33.0350   39.2670 F   0  0  0  0  0  0  0  0  0  0  0  0
  1  3  1  0  0  0  0
  1  4  1  1  0  0  0
  1  2  1  0  0  0  0
  2  6  1  0  0  0  0
  2  5  1  0  0  0  0
  3  7  1  6  0  0  0
  3  8  1  0  0  0  0
  3  2  1  0  0  0  0
  8 16  1  6  0  0  0
  9 11  1  0  0  0  0
  9  8  1  0  0  0  0
 10  9  1  0  0  0  0
 11 12  1  0  0  0  0
 11 13  1  0  0  0  0
 13 15  1  0  0  0  0
 14 13  1  0  0  0  0
 16 15  1  0  0  0  0
 17  1  1  0  0  0  0
 18 23  1  0  0  0  0
 18 17  2  0  0  0  0
 19 18  1  0  0  0  0
 20 19  2  0  0  0  0
 20 21  1  0  0  0  0
 21 22  2  0  0  0  0
 22 17  1  0  0  0  0
 24 19  1  0  0  0  0
 25 21  1  0  0  0  0
 25 26  1  0  0  0  0
 27 25  1  0  0  0  0
 28 25  1  0  0  0  0
M  END
>  <minimizedAffinity>
-5.28264427

$$$$

 OpenBabel03252505403D

 28 30  0  0  1  0  0  0  0  0999 V2000
   38.7810   28.6590   42.6410 C   0  0  1  0  0  0  0  0  0  0  0  0
   37.5850   28.5650   43.6170 C   0  0  0  0  0  0  0  0  0  0  0  0
   37.7080   27.6910   42.4080 C   0  0  2  0  0  0  0  0  0  0  0  0
   39.7290   28.3250   43.1500 H   0  0  0  0  0  0  0  0  0  0  0  0
   37.7750   28.1820   44.6380 H   0  0  0  0  0  0  0  0  0  0  0  0
   36.8710   29.4130   43.6160 H   0  0  0  0  0  0  0  0  0  0  0  0
   36.9800   27.9830   41.5940 H   0  0  0  0  0  0  0  0  0  0  0  0
   37.8840   26.2810   42.4780 N   0  0  1  0  0  0  0  0  0  0  0  0
   37.2120   25.5310   41.4380 C   0  0  0  0  0  3  0  0  0  0  0  0
   37.4260   25.9070   40.4160 H   0  0  0  0  0  0  0  0  0  0  0  0
   37.5780   24.0800   41.4520 C   0  0  0  0  0  3  0  0  0  0  0  0
   36.6550   23.4660   41.4680 H   0  0  0  0  0  0  0  0  0  0  0  0
   38.3730   23.7010   42.5880 N   0  0  0  0  0  0  0  0  0  0  0  0
   38.7310   22.7300   42.3840 H   0  0  0  0  0  0  0  0  0  0  0  0
   39.4860   24.5530   42.8680 C   0  0  0  0  0  2  0  0  0  0  0  0
   39.2970   25.9630   42.3900 C   0  0  0  0  0  2  0  0  0  0  0  0
   38.8340   29.9480   41.8850 C   0  0  0  0  0  0  0  0  0  0  0  0
   39.7720   30.9390   42.2720 C   0  0  0  0  0  0  0  0  0  0  0  0
   39.8050   32.1160   41.5400 C   0  0  0  0  0  0  0  0  0  0  0  0
   38.9440   32.2580   40.5000 N   0  0  0  0  0  0  0  0  0  0  0  0
   38.0640   31.2870   40.1640 C   0  0  0  0  0  0  0  0  0  0  0  0
   38.0140   30.1260   40.8660 N   0  0  0  0  0  0  0  0  0  0  0  0
   40.4280   30.7790   43.0980 H   0  0  0  0  0  0  0  0  0  0  0  0
   40.4920   32.9160   41.7750 H   0  0  0  0  0  0  0  0  0  0  0  0
   37.2110   31.6360   38.9780 C   0  0  0  0  0  0  0  0  0  0  0  0
   36.1980   30.7270   38.7900 F   0  0  0  0  0  0  0  0  0  0  0  0
   38.0020   31.6570   37.8260 F   0  0  0  0  0  0  0  0  0  0  0  0
   36.7360   32.9340   39.1330 F   0  0  0  0  0  0  0  0  0  0  0  0
  1  4  1  1  0  0  0
  1  2  1  0  0  0  0
  2  5  1  0  0  0  0
  3  7  1  6  0  0  0
  3  8  1  0  0  0  0
  3  1  1  0  0  0  0
  3  2  1  0  0  0  0
  6  2  1  0  0  0  0
  8 16  1  6  0  0  0
  9 11  1  0  0  0  0
  9  8  1  0  0  0  0
 10  9  1  0  0  0  0
 11 12  1  0  0  0  0
 11 13  1  0  0  0  0
 13 15  1  0  0  0  0
 14 13  1  0  0  0  0
 16 15  1  0  0  0  0
 17 18  1  0  0  0  0
 17  1  1  0  0  0  0
 18 23  1  0  0  0  0
 19 24  1  0  0  0  0
 19 18  2  0  0  0  0
 20 19  1  0  0  0  0
 21 20  2  0  0  0  0
 21 22  1  0  0  0  0
 22 17  2  0  0  0  0
 25 28  1  0  0  0  0
 25 21  1  0  0  0  0
 26 25  1  0  0  0  0
 27 25  1  0  0  0  0
M  END
>  <minimizedAffinity>
-5.09854126

$$$$

 OpenBabel03252505403D

 28 30  0  0  1  0  0  0  0  0999 V2000
   38.9440   28.7250   42.5640 C   0  0  1  0  0  0  0  0  0  0  0  0
   37.8250   28.6400   43.6280 C   0  0  0  0  0  0  0  0  0  0  0  0
   37.9030   27.7010   42.4660 C   0  0  2  0  0  0  0  0  0  0  0  0
   39.9390   28.4630   43.0210 H   0  0  0  0  0  0  0  0  0  0  0  0
   38.1020   28.3290   44.6530 H   0  0  0  0  0  0  0  0  0  0  0  0
   37.0740   29.4560   43.6300 H   0  0  0  0  0  0  0  0  0  0  0  0
   37.1070   27.9120   41.6910 H   0  0  0  0  0  0  0  0  0  0  0  0
   38.1480   26.3070   42.6040 N   0  0  1  0  0  0  0  0  0  0  0  0
   37.5380   25.4770   41.5860 C   0  0  0  0  0  3  0  0  0  0  0  0
   37.7570   25.8170   40.5520 H   0  0  0  0  0  0  0  0  0  0  0  0
   37.9770   24.0490   41.6740 C   0  0  0  0  0  3  0  0  0  0  0  0
   37.0860   23.3900   41.6990 H   0  0  0  0  0  0  0  0  0  0  0  0
   38.7640   23.7630   42.8420 N   0  0  0  0  0  0  0  0  0  0  0  0
   39.1750   22.8020   42.6900 H   0  0  0  0  0  0  0  0  0  0  0  0
   39.8250   24.6820   43.1050 C   0  0  0  0  0  2  0  0  0  0  0  0
   39.5770   26.0570   42.5600 C   0  0  0  0  0  2  0  0  0  0  0  0
   38.8840   29.9670   41.7330 C   0  0  0  0  0  0  0  0  0  0  0  0
   39.6260   31.1070   42.1380 C   0  0  0  0  0  0  0  0  0  0  0  0
   39.5610   32.2360   41.3370 C   0  0  0  0  0  0  0  0  0  0  0  0
   38.7960   32.1930   40.2150 N   0  0  0  0  0  0  0  0  0  0  0  0
   38.1040   31.0840   39.8650 C   0  0  0  0  0  0  0  0  0  0  0  0
   38.1530   29.9670   40.6340 N   0  0  0  0  0  0  0  0  0  0  0  0
   40.2120   31.0900   43.0290 H   0  0  0  0  0  0  0  0  0  0  0  0
   40.0970   33.1410   41.5800 H   0  0  0  0  0  0  0  0  0  0  0  0
   37.3310   31.2400   38.5870 C   0  0  0  0  0  0  0  0  0  0  0  0
   37.0340   32.5560   38.3250 F   0  0  0  0  0  0  0  0  0  0  0  0
   36.1320   30.5290   38.6790 F   0  0  0  0  0  0  0  0  0  0  0  0
   38.0450   30.6430   37.5540 F   0  0  0  0  0  0  0  0  0  0  0  0
  1  4  1  1  0  0  0
  1  2  1  0  0  0  0
  2  6  1  0  0  0  0
  2  5  1  0  0  0  0
  3  7  1  6  0  0  0
  3  1  1  0  0  0  0
  3  8  1  0  0  0  0
  3  2  1  0  0  0  0
  8 16  1  6  0  0  0
  9 11  1  0  0  0  0
  9  8  1  0  0  0  0
 10  9  1  0  0  0  0
 11 12  1  0  0  0  0
 11 13  1  0  0  0  0
 13 15  1  0  0  0  0
 14 13  1  0  0  0  0
 16 15  1  0  0  0  0
 17 18  1  0  0  0  0
 17  1  1  0  0  0  0
 18 23  1  0  0  0  0
 19 24  1  0  0  0  0
 19 18  2  0  0  0  0
 20 19  1  0  0  0  0
 21 20  2  0  0  0  0
 21 22  1  0  0  0  0
 22 17  2  0  0  0  0
 25 27  1  0  0  0  0
 25 21  1  0  0  0  0
 26 25  1  0  0  0  0
 28 25  1  0  0  0  0
M  END
>  <minimizedAffinity>
-4.99890423

$$$$

 OpenBabel03252505403D

 28 30  0  0  1  0  0  0  0  0999 V2000
   37.0220   29.9160   38.4550 C   0  0  1  0  0  0  0  0  0  0  0  0
   36.9030   31.3750   38.9530 C   0  0  0  0  0  0  0  0  0  0  0  0
   36.2260   30.2320   39.6410 C   0  0  2  0  0  0  0  0  0  0  0  0
   38.0780   29.5450   38.5780 H   0  0  0  0  0  0  0  0  0  0  0  0
   37.8060   31.8580   39.3700 H   0  0  0  0  0  0  0  0  0  0  0  0
   36.3110   32.0710   38.3240 H   0  0  0  0  0  0  0  0  0  0  0  0
   35.1080   30.2320   39.4710 H   0  0  0  0  0  0  0  0  0  0  0  0
   36.5590   29.8040   40.9560 N   0  0  1  0  0  0  0  0  0  0  0  0
   36.1100   28.4700   41.2950 C   0  0  0  0  0  3  0  0  0  0  0  0
   36.3990   27.7050   40.5450 H   0  0  0  0  0  0  0  0  0  0  0  0
   36.6430   28.0050   42.6150 C   0  0  0  0  0  3  0  0  0  0  0  0
   35.8040   27.6510   43.2470 H   0  0  0  0  0  0  0  0  0  0  0  0
   37.3350   29.0320   43.3460 N   0  0  0  0  0  0  0  0  0  0  0  0
   37.8290   28.5430   44.1400 H   0  0  0  0  0  0  0  0  0  0  0  0
   38.2970   29.7750   42.5940 C   0  0  0  0  0  2  0  0  0  0  0  0
   38.0000   29.8270   41.1240 C   0  0  0  0  0  2  0  0  0  0  0  0
   36.3710   29.6820   37.1290 C   0  0  0  0  0  0  0  0  0  0  0  0
   35.3760   28.6760   37.0150 C   0  0  0  0  0  0  0  0  0  0  0  0
   34.7820   28.4960   35.7760 C   0  0  0  0  0  0  0  0  0  0  0  0
   35.1810   29.2840   34.7440 N   0  0  0  0  0  0  0  0  0  0  0  0
   36.1340   30.2320   34.8960 C   0  0  0  0  0  0  0  0  0  0  0  0
   36.7280   30.4260   36.1000 N   0  0  0  0  0  0  0  0  0  0  0  0
   35.0980   28.0830   37.8570 H   0  0  0  0  0  0  0  0  0  0  0  0
   34.0180   27.7500   35.6110 H   0  0  0  0  0  0  0  0  0  0  0  0
   36.4200   31.0000   33.6380 C   0  0  0  0  0  0  0  0  0  0  0  0
   36.9930   30.2070   32.6730 F   0  0  0  0  0  0  0  0  0  0  0  0
   37.3000   32.0480   33.9230 F   0  0  0  0  0  0  0  0  0  0  0  0
   35.2460   31.6020   33.2010 F   0  0  0  0  0  0  0  0  0  0  0  0
  1  4  1  1  0  0  0
  1  2  1  0  0  0  0
  1  3  1  0  0  0  0
  2  5  1  0  0  0  0
  2  3  1  0  0  0  0
  3  7  1  6  0  0  0
  3  8  1  0  0  0  0
  6  2  1  0  0  0  0
  8 16  1  6  0  0  0
  8  9  1  0  0  0  0
  9 11  1  0  0  0  0
 10  9  1  0  0  0  0
 11 12  1  0  0  0  0
 11 13  1  0  0  0  0
 13 14  1  0  0  0  0
 15 13  1  0  0  0  0
 16 15  1  0  0  0  0
 17  1  1  0  0  0  0
 18 17  1  0  0  0  0
 18 23  1  0  0  0  0
 19 18  2  0  0  0  0
 20 21  2  0  0  0  0
 20 19  1  0  0  0  0
 21 22  1  0  0  0  0
 22 17  2  0  0  0  0
 24 19  1  0  0  0  0
 25 27  1  0  0  0  0
 25 21  1  0  0  0  0
 26 25  1  0  0  0  0
 28 25  1  0  0  0  0
M  END
>  <minimizedAffinity>
-4.88143587

$$$$

 OpenBabel03252505403D

 28 30  0  0  1  0  0  0  0  0999 V2000
   37.3670   29.9210   39.6690 C   0  0  1  0  0  0  0  0  0  0  0  0
   36.2170   30.8170   40.1850 C   0  0  0  0  0  0  0  0  0  0  0  0
   37.5470   30.7430   40.8670 C   0  0  2  0  0  0  0  0  0  0  0  0
   37.7410   30.2980   38.6760 H   0  0  0  0  0  0  0  0  0  0  0  0
   35.9210   31.6890   39.5720 H   0  0  0  0  0  0  0  0  0  0  0  0
   35.3400   30.3010   40.6260 H   0  0  0  0  0  0  0  0  0  0  0  0
   37.4960   30.1710   41.8410 H   0  0  0  0  0  0  0  0  0  0  0  0
   38.4470   31.8420   40.9460 N   0  0  1  0  0  0  0  0  0  0  0  0
   39.8190   31.5320   40.6020 C   0  0  0  0  0  3  0  0  0  0  0  0
   39.9200   31.0050   39.6300 H   0  0  0  0  0  0  0  0  0  0  0  0
   40.6790   32.7540   40.5250 C   0  0  0  0  0  3  0  0  0  0  0  0
   41.5800   32.6110   41.1550 H   0  0  0  0  0  0  0  0  0  0  0  0
   40.0180   33.9480   40.9750 N   0  0  0  0  0  0  0  0  0  0  0  0
   40.6370   34.7530   40.6870 H   0  0  0  0  0  0  0  0  0  0  0  0
   38.7090   34.1610   40.4420 C   0  0  0  0  0  2  0  0  0  0  0  0
   38.0080   32.8950   40.0490 C   0  0  0  0  0  2  0  0  0  0  0  0
   37.0770   28.4580   39.7750 C   0  0  0  0  0  0  0  0  0  0  0  0
   36.6540   27.7510   38.6190 C   0  0  0  0  0  0  0  0  0  0  0  0
   36.4090   26.3930   38.7490 C   0  0  0  0  0  0  0  0  0  0  0  0
   36.5840   25.8150   39.9650 N   0  0  0  0  0  0  0  0  0  0  0  0
   36.9880   26.5260   41.0420 C   0  0  0  0  0  0  0  0  0  0  0  0
   37.2350   27.8560   40.9390 N   0  0  0  0  0  0  0  0  0  0  0  0
   36.5320   28.2520   37.6850 H   0  0  0  0  0  0  0  0  0  0  0  0
   36.0850   25.7890   37.9140 H   0  0  0  0  0  0  0  0  0  0  0  0
   37.1300   25.6970   42.2870 C   0  0  0  0  0  0  0  0  0  0  0  0
   38.4470   25.5100   42.6300 F   0  0  0  0  0  0  0  0  0  0  0  0
   36.5480   24.4440   42.0800 F   0  0  0  0  0  0  0  0  0  0  0  0
   36.3960   26.2900   43.3080 F   0  0  0  0  0  0  0  0  0  0  0  0
  1  4  1  6  0  0  0
  1 17  1  0  0  0  0
  1  2  1  0  0  0  0
  1  3  1  0  0  0  0
  2  6  1  0  0  0  0
  2  3  1  0  0  0  0
  3  8  1  0  0  0  0
  3  7  1  1  0  0  0
  5  2  1  0  0  0  0
  8 16  1  6  0  0  0
  9  8  1  0  0  0  0
 10  9  1  0  0  0  0
 11  9  1  0  0  0  0
 11 13  1  0  0  0  0
 11 12  1  0  0  0  0
 14 13  1  0  0  0  0
 15 13  1  0  0  0  0
 16 15  1  0  0  0  0
 17 22  1  0  0  0  0
 18 19  1  0  0  0  0
 18 17  2  0  0  0  0
 19 20  2  0  0  0  0
 20 21  1  0  0  0  0
 21 25  1  0  0  0  0
 22 21  2  0  0  0  0
 23 18  1  0  0  0  0
 24 19  1  0  0  0  0
 25 26  1  0  0  0  0
 25 28  1  0  0  0  0
 27 25  1  0  0  0  0
M  END
>  <minimizedAffinity>
-4.85789204

$$$$

 OpenBabel03252505403D

 28 30  0  0  1  0  0  0  0  0999 V2000
   38.7300   29.4910   39.7150 C   0  0  1  0  0  0  0  0  0  0  0  0
   37.5060   30.0590   38.9600 C   0  0  0  0  0  0  0  0  0  0  0  0
   38.5340   30.9370   39.6030 C   0  0  2  0  0  0  0  0  0  0  0  0
   39.4240   28.9680   38.9970 H   0  0  0  0  0  0  0  0  0  0  0  0
   37.4590   29.9190   37.8640 H   0  0  0  0  0  0  0  0  0  0  0  0
   36.5160   29.9240   39.4400 H   0  0  0  0  0  0  0  0  0  0  0  0
   38.1450   31.4330   40.5420 H   0  0  0  0  0  0  0  0  0  0  0  0
   39.3940   31.7990   38.8690 N   0  0  1  0  0  0  0  0  0  0  0  0
   39.9620   32.8890   39.6340 C   0  0  0  0  0  3  0  0  0  0  0  0
   40.4440   32.5590   40.5780 H   0  0  0  0  0  0  0  0  0  0  0  0
   40.9950   33.6510   38.8640 C   0  0  0  0  0  3  0  0  0  0  0  0
   40.7540   34.7330   38.8930 H   0  0  0  0  0  0  0  0  0  0  0  0
   41.0820   33.2610   37.4830 N   0  0  0  0  0  0  0  0  0  0  0  0
   41.9600   33.7100   37.1070 H   0  0  0  0  0  0  0  0  0  0  0  0
   41.1460   31.8540   37.2470 C   0  0  0  0  0  2  0  0  0  0  0  0
   40.5010   31.0340   38.3260 C   0  0  0  0  0  2  0  0  0  0  0  0
   38.3720   28.7590   40.9680 C   0  0  0  0  0  0  0  0  0  0  0  0
   38.2290   29.4870   42.1780 C   0  0  0  0  0  0  0  0  0  0  0  0
   37.8810   28.7790   43.3170 C   0  0  0  0  0  0  0  0  0  0  0  0
   37.6990   27.4370   43.2190 N   0  0  0  0  0  0  0  0  0  0  0  0
   37.8470   26.7810   42.0450 C   0  0  0  0  0  0  0  0  0  0  0  0
   38.1860   27.4530   40.9160 N   0  0  0  0  0  0  0  0  0  0  0  0
   38.3820   30.5420   42.2030 H   0  0  0  0  0  0  0  0  0  0  0  0
   37.7540   29.2630   44.2750 H   0  0  0  0  0  0  0  0  0  0  0  0
   37.5900   25.3050   42.1480 C   0  0  0  0  0  0  0  0  0  0  0  0
   38.6050   24.6540   42.8070 F   0  0  0  0  0  0  0  0  0  0  0  0
   37.4820   24.7610   40.8640 F   0  0  0  0  0  0  0  0  0  0  0  0
   36.3530   25.1040   42.7480 F   0  0  0  0  0  0  0  0  0  0  0  0
  1  4  1  6  0  0  0
  1 17  1  0  0  0  0
  2  6  1  0  0  0  0
  2  3  1  0  0  0  0
  2  1  1  0  0  0  0
  3  1  1  0  0  0  0
  3  7  1  1  0  0  0
  5  2  1  0  0  0  0
  8 16  1  1  0  0  0
  8  3  1  0  0  0  0
  8  9  1  0  0  0  0
  9 10  1  0  0  0  0
 11 12  1  0  0  0  0
 11  9  1  0  0  0  0
 13 11  1  0  0  0  0
 14 13  1  0  0  0  0
 15 13  1  0  0  0  0
 15 16  1  0  0  0  0
 17 18  1  0  0  0  0
 18 23  1  0  0  0  0
 18 19  2  0  0  0  0
 19 24  1  0  0  0  0
 20 19  1  0  0  0  0
 21 25  1  0  0  0  0
 21 20  2  0  0  0  0
 22 17  2  0  0  0  0
 22 21  1  0  0  0  0
 25 28  1  0  0  0  0
 25 26  1  0  0  0  0
 27 25  1  0  0  0  0
M  END
>  <minimizedAffinity>
-4.77280569

$$$$

 OpenBabel03252505403D

 28 30  0  0  1  0  0  0  0  0999 V2000
   38.5420   29.4930   40.1110 C   0  0  1  0  0  0  0  0  0  0  0  0
   37.4120   29.9350   39.1530 C   0  0  0  0  0  0  0  0  0  0  0  0
   38.1190   30.8930   40.0590 C   0  0  2  0  0  0  0  0  0  0  0  0
   39.4460   29.1640   39.5250 H   0  0  0  0  0  0  0  0  0  0  0  0
   37.6090   29.9040   38.0650 H   0  0  0  0  0  0  0  0  0  0  0  0
   36.3860   29.5950   39.3990 H   0  0  0  0  0  0  0  0  0  0  0  0
   37.4690   31.2200   40.9250 H   0  0  0  0  0  0  0  0  0  0  0  0
   38.9420   31.9520   39.5870 N   0  0  1  0  0  0  0  0  0  0  0  0
   38.9150   33.1520   40.3960 C   0  0  0  0  0  3  0  0  0  0  0  0
   39.0960   32.9600   41.4740 H   0  0  0  0  0  0  0  0  0  0  0  0
   39.9310   34.1610   39.9590 C   0  0  0  0  0  3  0  0  0  0  0  0
   39.4360   35.1400   39.8040 H   0  0  0  0  0  0  0  0  0  0  0  0
   40.5940   33.8090   38.7330 N   0  0  0  0  0  0  0  0  0  0  0  0
   41.4090   34.4740   38.6400 H   0  0  0  0  0  0  0  0  0  0  0  0
   41.0830   32.4690   38.6640 C   0  0  0  0  0  2  0  0  0  0  0  0
   40.3220   31.5070   39.5280 C   0  0  0  0  0  2  0  0  0  0  0  0
   38.0760   28.5870   41.2060 C   0  0  0  0  0  0  0  0  0  0  0  0
   37.8020   29.1330   42.4860 C   0  0  0  0  0  0  0  0  0  0  0  0
   37.3570   28.2680   43.4740 C   0  0  0  0  0  0  0  0  0  0  0  0
   37.2110   26.9530   43.1670 N   0  0  0  0  0  0  0  0  0  0  0  0
   37.4850   26.4730   41.9330 C   0  0  0  0  0  0  0  0  0  0  0  0
   37.9200   27.3020   40.9500 N   0  0  0  0  0  0  0  0  0  0  0  0
   37.9320   30.1740   42.6770 H   0  0  0  0  0  0  0  0  0  0  0  0
   37.1280   28.6100   44.4730 H   0  0  0  0  0  0  0  0  0  0  0  0
   37.2470   24.9960   41.7990 C   0  0  0  0  0  0  0  0  0  0  0  0
   36.2640   24.5560   42.6520 F   0  0  0  0  0  0  0  0  0  0  0  0
   38.4270   24.3070   42.0950 F   0  0  0  0  0  0  0  0  0  0  0  0
   36.9640   24.7050   40.4690 F   0  0  0  0  0  0  0  0  0  0  0  0
  1  4  1  6  0  0  0
  1 17  1  0  0  0  0
  2  6  1  0  0  0  0
  2  3  1  0  0  0  0
  2  1  1  0  0  0  0
  3  1  1  0  0  0  0
  3  7  1  1  0  0  0
  5  2  1  0  0  0  0
  8 16  1  1  0  0  0
  8  3  1  0  0  0  0
  8  9  1  0  0  0  0
  9 10  1  0  0  0  0
 11  9  1  0  0  0  0
 12 11  1  0  0  0  0
 13 11  1  0  0  0  0
 14 13  1  0  0  0  0
 15 13  1  0  0  0  0
 15 16  1  0  0  0  0
 17 18  1  0  0  0  0
 18 23  1  0  0  0  0
 18 19  2  0  0  0  0
 19 24  1  0  0  0  0
 20 19  1  0  0  0  0
 21 20  2  0  0  0  0
 22 17  2  0  0  0  0
 22 21  1  0  0  0  0
 25 21  1  0  0  0  0
 25 27  1  0  0  0  0
 25 26  1  0  0  0  0
 28 25  1  0  0  0  0
M  END
>  <minimizedAffinity>
-4.7530303

$$$$

 OpenBabel03252505403D

 28 30  0  0  1  0  0  0  0  0999 V2000
   35.9070   28.1270   38.3360 C   0  0  1  0  0  0  0  0  0  0  0  0
   34.5480   28.7700   38.6970 C   0  0  0  0  0  0  0  0  0  0  0  0
   35.8430   29.2500   39.2720 C   0  0  2  0  0  0  0  0  0  0  0  0
   36.1570   28.3200   37.2550 H   0  0  0  0  0  0  0  0  0  0  0  0
   34.0120   29.3320   37.9090 H   0  0  0  0  0  0  0  0  0  0  0  0
   33.8580   28.1640   39.3180 H   0  0  0  0  0  0  0  0  0  0  0  0
   35.9590   28.9640   40.3600 H   0  0  0  0  0  0  0  0  0  0  0  0
   36.3860   30.5370   39.0040 N   0  0  1  0  0  0  0  0  0  0  0  0
   36.6070   31.3610   40.1740 C   0  0  0  0  0  3  0  0  0  0  0  0
   37.1820   30.8460   40.9720 H   0  0  0  0  0  0  0  0  0  0  0  0
   37.3450   32.6240   39.8540 C   0  0  0  0  0  3  0  0  0  0  0  0
   36.7860   33.4910   40.2590 H   0  0  0  0  0  0  0  0  0  0  0  0
   37.5240   32.8400   38.4440 N   0  0  0  0  0  0  0  0  0  0  0  0
   38.2170   33.6310   38.3550 H   0  0  0  0  0  0  0  0  0  0  0  0
   38.0110   31.7150   37.7100 C   0  0  0  0  0  2  0  0  0  0  0  0
   37.6650   30.3950   38.3330 C   0  0  0  0  0  2  0  0  0  0  0  0
   36.0530   26.7220   38.8270 C   0  0  0  0  0  0  0  0  0  0  0  0
   35.5960   25.6540   38.0120 C   0  0  0  0  0  0  0  0  0  0  0  0
   35.7600   24.3640   38.4910 C   0  0  0  0  0  0  0  0  0  0  0  0
   36.3440   24.1910   39.7050 N   0  0  0  0  0  0  0  0  0  0  0  0
   36.7660   25.2380   40.4500 C   0  0  0  0  0  0  0  0  0  0  0  0
   36.6160   26.5100   40.0020 N   0  0  0  0  0  0  0  0  0  0  0  0
   35.1440   25.8430   37.0650 H   0  0  0  0  0  0  0  0  0  0  0  0
   35.4380   23.5000   37.9280 H   0  0  0  0  0  0  0  0  0  0  0  0
   37.3920   24.8310   41.7530 C   0  0  0  0  0  0  0  0  0  0  0  0
   38.2820   25.7730   42.2100 F   0  0  0  0  0  0  0  0  0  0  0  0
   38.0790   23.6260   41.5820 F   0  0  0  0  0  0  0  0  0  0  0  0
   36.3850   24.5630   42.6730 F   0  0  0  0  0  0  0  0  0  0  0  0
  1  4  1  6  0  0  0
  1  2  1  0  0  0  0
  1 17  1  0  0  0  0
  1  3  1  0  0  0  0
  2  3  1  0  0  0  0
  2  6  1  0  0  0  0
  3  7  1  1  0  0  0
  5  2  1  0  0  0  0
  8 16  1  1  0  0  0
  8  3  1  0  0  0  0
  8  9  1  0  0  0  0
  9 10  1  0  0  0  0
 11  9  1  0  0  0  0
 11 12  1  0  0  0  0
 13 11  1  0  0  0  0
 14 13  1  0  0  0  0
 15 16  1  0  0  0  0
 15 13  1  0  0  0  0
 17 22  1  0  0  0  0
 18 19  1  0  0  0  0
 18 17  2  0  0  0  0
 19 20  2  0  0  0  0
 20 21  1  0  0  0  0
 21 25  1  0  0  0  0
 22 21  2  0  0  0  0
 23 18  1  0  0  0  0
 24 19  1  0  0  0  0
 25 26  1  0  0  0  0
 25 28  1  0  0  0  0
 27 25  1  0  0  0  0
M  END
>  <minimizedAffinity>
-4.61301947

$$$$
