
 OpenBabel03252509253D

 30 32  0  0  1  0  0  0  0  0999 V2000
   47.0000   35.1260   41.7650 C   0  0  1  0  0  0  0  0  0  0  0  0
   48.4790   35.5840   41.8350 C   0  0  0  0  0  0  0  0  0  0  0  0
   47.9560   34.3260   41.1120 C   0  0  2  0  0  0  0  0  0  0  0  0
   46.3970   35.8840   41.2570 H   0  0  0  0  0  0  0  0  0  0  0  0
   49.0260   35.4860   42.7740 H   0  0  0  0  0  0  0  0  0  0  0  0
   48.8210   36.3590   41.1390 H   0  0  0  0  0  0  0  0  0  0  0  0
   48.4250   33.4060   41.5560 H   0  0  0  0  0  0  0  0  0  0  0  0
   44.9760   34.8990   44.9100 C   0  0  0  0  0  0  0  0  0  0  0  0
   45.4300   35.3760   43.6520 C   0  0  0  0  0  0  0  0  0  0  0  0
   46.4960   34.7170   43.1210 C   0  0  0  0  0  0  0  0  0  0  0  0
   47.0820   33.6640   43.7740 N   0  0  0  0  0  0  0  0  0  0  0  0
   46.6200   33.2410   44.9690 C   0  0  0  0  0  0  0  0  0  0  0  0
   45.5590   33.8680   45.5340 N   0  0  0  0  0  0  0  0  0  0  0  0
   44.1260   35.3860   45.3830 H   0  0  0  0  0  0  0  0  0  0  0  0
   47.2010   32.4040   45.3320 H   0  0  0  0  0  0  0  0  0  0  0  0
   44.8250   36.4890   43.0120 N   0  0  0  0  0  0  0  0  0  0  0  0
   44.1890   36.5380   42.1910 H   0  0  0  0  0  0  0  0  0  0  0  0
   45.2010   37.2790   43.6030 H   0  0  0  0  0  0  0  0  0  0  0  0
   48.0280   34.2800   39.5990 C   0  0  0  0  0  0  0  0  0  0  0  0
   48.7800   34.9600   39.1880 H   0  0  0  0  0  0  0  0  0  0  0  0
   47.0380   34.6900   39.2390 H   0  0  0  0  0  0  0  0  0  0  0  0
   48.0660   32.9310   39.1440 N   0  0  0  0  0  0  0  0  0  0  0  0
   49.0940   32.6290   38.1930 C   0  0  0  0  0  3  0  0  0  0  0  0
   48.9850   31.5230   37.9840 H   0  0  0  0  0  0  0  0  0  0  0  0
   48.9310   33.3070   36.8680 C   0  0  0  0  0  3  0  0  0  0  0  0
   49.0550   32.6010   36.0030 H   0  0  0  0  0  0  0  0  0  0  0  0
   47.7090   34.0250   36.6990 N   0  0  0  0  0  0  0  0  0  0  0  0
   47.5390   34.1250   35.6630 H   0  0  0  0  0  0  0  0  0  0  0  0
   46.5510   33.4300   37.2930 C   0  0  0  0  0  2  0  0  0  0  0  0
   46.8030   32.5900   38.5000 C   0  0  0  0  0  2  0  0  0  0  0  0
  1  4  1  6  0  0  0
  1  2  1  0  0  0  0
  1 10  1  0  0  0  0
  2  5  1  0  0  0  0
  3  7  1  1  0  0  0
  3  1  1  0  0  0  0
  3  2  1  0  0  0  0
  6  2  1  0  0  0  0
  8 14  1  0  0  0  0
  8 13  1  0  0  0  0
  9  8  2  0  0  0  0
 10  9  1  0  0  0  0
 10 11  2  0  0  0  0
 11 12  1  0  0  0  0
 12 15  1  0  0  0  0
 12 13  2  0  0  0  0
 16 18  1  0  0  0  0
 16  9  1  0  0  0  0
 17 16  1  0  0  0  0
 19  3  1  0  0  0  0
 20 19  1  0  0  0  0
 21 19  1  0  0  0  0
 22 19  1  0  0  0  0
 23 22  1  0  0  0  0
 24 23  1  0  0  0  0
 25 23  1  0  0  0  0
 26 25  1  0  0  0  0
 27 25  1  0  0  0  0
 27 29  1  0  0  0  0
 28 27  1  0  0  0  0
 29 30  1  0  0  0  0
 30 22  1  0  0  0  0
M  END
>  <minimizedAffinity>
-5.08335543

>  <minimizedRMSD>
2.69747043

$$$$
