
 OpenBabel03252507143D

 42 44  0  0  1  0  0  0  0  0999 V2000
   37.5350   30.4440   39.1240 C   0  0  2  0  0  0  0  0  0  0  0  0
   37.6040   30.7150   37.6760 C   0  0  0  0  0  0  0  0  0  0  0  0
   38.6740   31.7550   37.4310 C   0  0  0  0  0  0  0  0  0  0  0  0
   39.9450   31.2120   37.6090 O   0  0  0  0  0  0  0  0  0  0  0  0
   39.9210   30.2290   38.5850 C   0  0  0  0  0  0  0  0  0  0  0  0
   38.9340   30.6140   39.7130 C   0  0  1  0  0  0  0  0  0  0  0  0
   36.9440   31.2610   39.6150 H   0  0  0  0  0  0  0  0  0  0  0  0
   36.6450   31.1880   37.3110 H   0  0  0  0  0  0  0  0  0  0  0  0
   37.8590   29.8310   37.0800 H   0  0  0  0  0  0  0  0  0  0  0  0
   38.6100   31.9780   36.3360 H   0  0  0  0  0  0  0  0  0  0  0  0
   38.5040   32.7070   37.9330 H   0  0  0  0  0  0  0  0  0  0  0  0
   39.5640   29.2870   38.1110 H   0  0  0  0  0  0  0  0  0  0  0  0
   40.9400   30.0780   38.9460 H   0  0  0  0  0  0  0  0  0  0  0  0
   39.0410   29.8050   40.4640 H   0  0  0  0  0  0  0  0  0  0  0  0
   39.2990   31.8290   40.2010 N   0  0  2  0  0  0  0  0  0  0  0  0
   40.5060   31.7670   40.9990 C   0  0  0  0  0  3  0  0  0  0  0  0
   41.0360   30.8270   40.9980 H   0  0  0  0  0  0  0  0  0  0  0  0
   41.3400   32.9640   40.5210 C   0  0  0  0  0  3  0  0  0  0  0  0
   42.3470   32.9760   40.9290 H   0  0  0  0  0  0  0  0  0  0  0  0
   40.6010   34.1110   41.0110 N   0  0  0  0  0  0  0  0  0  0  0  0
   40.6930   34.1730   42.0410 H   0  0  0  0  0  0  0  0  0  0  0  0
   39.2540   34.1570   40.5780 C   0  0  0  0  0  2  0  0  0  0  0  0
   38.4940   32.8250   40.7240 C   0  0  0  0  0  2  0  0  0  0  0  0
   36.9510   29.3060   39.5190 O   0  0  0  0  0  0  0  0  0  0  0  0
   34.3670   29.1190   39.9320 O   0  0  0  0  0  0  0  0  0  0  0  0
   35.6810   29.3610   40.5700 P   0  0  2  0  0  0  0  0  0  0  0  0
   35.6230   30.9190   41.2540 O   0  0  0  0  0  0  0  0  0  0  0  0
   35.3260   31.5510   40.5440 H   0  0  0  0  0  0  0  0  0  0  0  0
   35.9340   28.2550   41.8700 O   0  0  0  0  0  0  0  0  0  0  0  0
   37.5890   26.6210   42.2650 C   0  0  0  0  0  0  0  0  0  0  0  0
   37.2030   27.9400   42.3100 C   0  0  0  0  0  0  0  0  0  0  0  0
   38.1260   28.8960   42.8040 C   0  0  0  0  0  0  0  0  0  0  0  0
   39.3360   28.4480   43.2020 N   0  0  0  0  0  0  0  0  0  0  0  0
   39.6700   27.1730   43.1430 C   0  0  0  0  0  0  0  0  0  0  0  0
   38.7830   26.2640   42.6690 N   0  0  0  0  0  0  0  0  0  0  0  0
   36.8410   25.0680   40.4690 C   0  0  0  0  0  0  0  0  0  0  0  0
   37.0470   25.9210   39.5270 O   0  0  0  0  0  0  0  0  0  0  0  0
   37.0810   25.3510   41.8860 N   0  0  0  0  0  0  0  0  0  0  0  0
   37.7250   29.8920   42.7970 H   0  0  0  0  0  0  0  0  0  0  0  0
   40.6650   26.8880   43.4820 H   0  0  0  0  0  0  0  0  0  0  0  0
   36.4720   24.1380   40.0620 H   0  0  0  0  0  0  0  0  0  0  0  0
   36.8390   24.5540   42.5040 H   0  0  0  0  0  0  0  0  0  0  0  0
  1 24  1  0  0  0  0
  1  7  1  1  0  0  0
  1  6  1  0  0  0  0
  2  1  1  0  0  0  0
  3  4  1  0  0  0  0
  3  2  1  0  0  0  0
  3 11  1  0  0  0  0
  4  5  1  0  0  0  0
  5 13  1  0  0  0  0
  5  6  1  0  0  0  0
  6 15  1  0  0  0  0
  6 14  1  1  0  0  0
  8  2  1  0  0  0  0
  9  2  1  0  0  0  0
 10  3  1  0  0  0  0
 12  5  1  0  0  0  0
 15 23  1  1  0  0  0
 15 16  1  0  0  0  0
 17 16  1  0  0  0  0
 18 19  1  0  0  0  0
 18 16  1  0  0  0  0
 18 20  1  0  0  0  0
 20 21  1  0  0  0  0
 22 23  1  0  0  0  0
 22 20  1  0  0  0  0
 24 26  1  0  0  0  0
 26 25  2  6  0  0  0
 26 27  1  0  0  0  0
 26 29  1  0  0  0  0
 28 27  1  0  0  0  0
 29 31  1  0  0  0  0
 30 31  2  0  0  0  0
 30 35  1  0  0  0  0
 31 32  1  0  0  0  0
 32 33  2  0  0  0  0
 34 33  1  0  0  0  0
 34 40  1  0  0  0  0
 35 34  2  0  0  0  0
 36 38  1  0  0  0  0
 37 36  2  0  0  0  0
 38 30  1  0  0  0  0
 38 42  1  0  0  0  0
 39 32  1  0  0  0  0
 41 36  1  0  0  0  0
M  END
>  <minimizedAffinity>
-6.1102314

$$$$

 OpenBabel03252507143D

 42 44  0  0  1  0  0  0  0  0999 V2000
   38.2140   31.0420   39.4330 C   0  0  2  0  0  0  0  0  0  0  0  0
   37.0340   30.8050   38.5800 C   0  0  0  0  0  0  0  0  0  0  0  0
   36.2450   29.6510   39.1580 C   0  0  0  0  0  0  0  0  0  0  0  0
   35.5920   30.0320   40.3280 O   0  0  0  0  0  0  0  0  0  0  0  0
   36.3340   30.9820   41.0100 C   0  0  0  0  0  0  0  0  0  0  0  0
   37.8460   30.6880   40.8730 C   0  0  1  0  0  0  0  0  0  0  0  0
   39.0020   30.2870   39.1710 H   0  0  0  0  0  0  0  0  0  0  0  0
   37.3460   30.4620   37.5500 H   0  0  0  0  0  0  0  0  0  0  0  0
   36.3600   31.6680   38.5200 H   0  0  0  0  0  0  0  0  0  0  0  0
   35.4230   29.4690   38.4190 H   0  0  0  0  0  0  0  0  0  0  0  0
   36.7950   28.7130   39.2200 H   0  0  0  0  0  0  0  0  0  0  0  0
   36.1240   31.9740   40.5490 H   0  0  0  0  0  0  0  0  0  0  0  0
   35.9980   30.9990   42.0500 H   0  0  0  0  0  0  0  0  0  0  0  0
   38.3380   31.4560   41.5030 H   0  0  0  0  0  0  0  0  0  0  0  0
   38.0750   29.4240   41.3170 N   0  0  2  0  0  0  0  0  0  0  0  0
   37.8750   29.2940   42.7460 C   0  0  0  0  0  3  0  0  0  0  0  0
   37.4460   30.1450   43.2520 H   0  0  0  0  0  0  0  0  0  0  0  0
   37.0710   27.9950   42.9010 C   0  0  0  0  0  3  0  0  0  0  0  0
   36.7160   27.8290   43.9140 H   0  0  0  0  0  0  0  0  0  0  0  0
   38.0210   26.9620   42.5400 N   0  0  0  0  0  0  0  0  0  0  0  0
   38.7380   26.8700   43.2830 H   0  0  0  0  0  0  0  0  0  0  0  0
   38.5850   27.1220   41.2520 C   0  0  0  0  0  2  0  0  0  0  0  0
   39.0800   28.5480   40.9480 C   0  0  0  0  0  2  0  0  0  0  0  0
   38.8230   32.2300   39.3390 O   0  0  0  0  0  0  0  0  0  0  0  0
   40.8860   33.6660   38.5870 O   0  0  0  0  0  0  0  0  0  0  0  0
   40.1610   32.3900   38.3890 P   0  0  2  0  0  0  0  0  0  0  0  0
   39.6650   32.3480   36.7600 O   0  0  0  0  0  0  0  0  0  0  0  0
   39.1770   33.1950   36.5690 H   0  0  0  0  0  0  0  0  0  0  0  0
   41.2220   31.0500   38.6210 O   0  0  0  0  0  0  0  0  0  0  0  0
   42.8480   31.2300   36.9200 C   0  0  0  0  0  0  0  0  0  0  0  0
   41.8960   30.4740   37.5630 C   0  0  0  0  0  0  0  0  0  0  0  0
   41.6600   29.1540   37.1050 C   0  0  0  0  0  0  0  0  0  0  0  0
   42.3920   28.7170   36.0570 N   0  0  0  0  0  0  0  0  0  0  0  0
   43.2970   29.4720   35.4650 C   0  0  0  0  0  0  0  0  0  0  0  0
   43.5180   30.7350   35.9100 N   0  0  0  0  0  0  0  0  0  0  0  0
   44.2790   32.8780   38.1150 C   0  0  0  0  0  0  0  0  0  0  0  0
   44.5200   32.0840   39.0990 O   0  0  0  0  0  0  0  0  0  0  0  0
   43.4300   32.5230   36.9760 N   0  0  0  0  0  0  0  0  0  0  0  0
   40.8990   28.6530   37.6730 H   0  0  0  0  0  0  0  0  0  0  0  0
   43.8490   29.0500   34.6270 H   0  0  0  0  0  0  0  0  0  0  0  0
   44.7850   33.8220   38.2580 H   0  0  0  0  0  0  0  0  0  0  0  0
   43.3310   33.2930   36.2890 H   0  0  0  0  0  0  0  0  0  0  0  0
  1  7  1  6  0  0  0
  1  6  1  0  0  0  0
  2  3  1  0  0  0  0
  2  1  1  0  0  0  0
  3 11  1  0  0  0  0
  3  4  1  0  0  0  0
  4  5  1  0  0  0  0
  5 13  1  0  0  0  0
  6  5  1  0  0  0  0
  6 15  1  0  0  0  0
  6 14  1  1  0  0  0
  8  2  1  0  0  0  0
  9  2  1  0  0  0  0
 10  3  1  0  0  0  0
 12  5  1  0  0  0  0
 15 23  1  1  0  0  0
 15 16  1  0  0  0  0
 16 18  1  0  0  0  0
 16 17  1  0  0  0  0
 18 19  1  0  0  0  0
 20 18  1  0  0  0  0
 20 21  1  0  0  0  0
 22 20  1  0  0  0  0
 23 22  1  0  0  0  0
 24  1  1  0  0  0  0
 26 25  2  1  0  0  0
 26 29  1  0  0  0  0
 26 24  1  0  0  0  0
 27 26  1  0  0  0  0
 28 27  1  0  0  0  0
 30 38  1  0  0  0  0
 30 31  1  0  0  0  0
 31 29  1  0  0  0  0
 32 31  2  0  0  0  0
 32 39  1  0  0  0  0
 33 32  1  0  0  0  0
 34 35  1  0  0  0  0
 34 33  2  0  0  0  0
 35 30  2  0  0  0  0
 36 41  1  0  0  0  0
 36 37  2  0  0  0  0
 38 36  1  0  0  0  0
 40 34  1  0  0  0  0
 42 38  1  0  0  0  0
M  END
>  <minimizedAffinity>
-5.73114443

$$$$

 OpenBabel03252507143D

 42 44  0  0  1  0  0  0  0  0999 V2000
   37.1390   27.1630   40.7250 C   0  0  2  0  0  0  0  0  0  0  0  0
   36.6160   26.1100   39.8350 C   0  0  0  0  0  0  0  0  0  0  0  0
   37.5130   24.8970   39.9440 C   0  0  0  0  0  0  0  0  0  0  0  0
   37.3330   24.2550   41.1670 O   0  0  0  0  0  0  0  0  0  0  0  0
   37.0180   25.1720   42.1560 C   0  0  0  0  0  0  0  0  0  0  0  0
   37.7910   26.4930   41.9330 C   0  0  1  0  0  0  0  0  0  0  0  0
   37.9980   27.6720   40.2130 H   0  0  0  0  0  0  0  0  0  0  0  0
   36.6830   26.4290   38.7530 H   0  0  0  0  0  0  0  0  0  0  0  0
   35.5980   25.7910   40.0890 H   0  0  0  0  0  0  0  0  0  0  0  0
   37.1160   24.1790   39.1820 H   0  0  0  0  0  0  0  0  0  0  0  0
   38.5510   25.0750   39.6640 H   0  0  0  0  0  0  0  0  0  0  0  0
   35.9270   25.3860   42.0860 H   0  0  0  0  0  0  0  0  0  0  0  0
   37.2270   24.7160   43.1260 H   0  0  0  0  0  0  0  0  0  0  0  0
   37.5220   27.1240   42.8040 H   0  0  0  0  0  0  0  0  0  0  0  0
   39.1190   26.2060   41.8870 N   0  0  2  0  0  0  0  0  0  0  0  0
   39.6670   25.9030   43.1940 C   0  0  0  0  0  3  0  0  0  0  0  0
   38.9580   25.8060   44.0020 H   0  0  0  0  0  0  0  0  0  0  0  0
   40.5390   24.6620   42.9630 C   0  0  0  0  0  3  0  0  0  0  0  0
   40.9130   24.2230   43.8840 H   0  0  0  0  0  0  0  0  0  0  0  0
   41.6480   25.1670   42.1770 N   0  0  0  0  0  0  0  0  0  0  0  0
   42.2560   25.7590   42.7710 H   0  0  0  0  0  0  0  0  0  0  0  0
   41.2590   25.8090   40.9780 C   0  0  0  0  0  2  0  0  0  0  0  0
   40.1100   26.8210   41.1430 C   0  0  0  0  0  2  0  0  0  0  0  0
   36.3080   28.1510   41.0780 O   0  0  0  0  0  0  0  0  0  0  0  0
   37.3430   29.4720   43.0940 O   0  0  0  0  0  0  0  0  0  0  0  0
   36.9200   29.5600   41.6770 P   0  0  2  0  0  0  0  0  0  0  0  0
   35.7030   30.7480   41.5940 O   0  0  0  0  0  0  0  0  0  0  0  0
   35.0120   30.5220   42.2740 H   0  0  0  0  0  0  0  0  0  0  0  0
   38.2230   30.1120   40.6900 O   0  0  0  0  0  0  0  0  0  0  0  0
   37.6110   31.8820   39.2550 C   0  0  0  0  0  0  0  0  0  0  0  0
   38.0090   30.5740   39.4080 C   0  0  0  0  0  0  0  0  0  0  0  0
   38.1750   29.7800   38.2460 C   0  0  0  0  0  0  0  0  0  0  0  0
   37.9300   30.3610   37.0520 N   0  0  0  0  0  0  0  0  0  0  0  0
   37.5500   31.6190   36.9450 C   0  0  0  0  0  0  0  0  0  0  0  0
   37.3940   32.3750   38.0610 N   0  0  0  0  0  0  0  0  0  0  0  0
   38.4000   33.7050   40.7550 C   0  0  0  0  0  0  0  0  0  0  0  0
   39.6240   33.3080   40.7360 O   0  0  0  0  0  0  0  0  0  0  0  0
   37.3160   33.0280   40.0390 N   0  0  0  0  0  0  0  0  0  0  0  0
   38.4850   28.7780   38.4770 H   0  0  0  0  0  0  0  0  0  0  0  0
   37.3720   32.0190   35.9480 H   0  0  0  0  0  0  0  0  0  0  0  0
   38.2980   34.5900   41.3670 H   0  0  0  0  0  0  0  0  0  0  0  0
   36.3920   33.4760   40.1850 H   0  0  0  0  0  0  0  0  0  0  0  0
  1  7  1  6  0  0  0
  1 24  1  0  0  0  0
  1  6  1  0  0  0  0
  2  3  1  0  0  0  0
  2  9  1  0  0  0  0
  2  1  1  0  0  0  0
  3  4  1  0  0  0  0
  4  5  1  0  0  0  0
  5 13  1  0  0  0  0
  6  5  1  0  0  0  0
  6 14  1  1  0  0  0
  8  2  1  0  0  0  0
 10  3  1  0  0  0  0
 11  3  1  0  0  0  0
 12  5  1  0  0  0  0
 15 23  1  1  0  0  0
 15  6  1  0  0  0  0
 15 16  1  0  0  0  0
 16 17  1  0  0  0  0
 18 16  1  0  0  0  0
 18 19  1  0  0  0  0
 20 21  1  0  0  0  0
 20 18  1  0  0  0  0
 22 23  1  0  0  0  0
 22 20  1  0  0  0  0
 24 26  1  0  0  0  0
 26 25  2  1  0  0  0
 27 26  1  0  0  0  0
 27 28  1  0  0  0  0
 29 26  1  0  0  0  0
 30 31  1  0  0  0  0
 30 38  1  0  0  0  0
 31 29  1  0  0  0  0
 32 39  1  0  0  0  0
 32 31  2  0  0  0  0
 33 32  1  0  0  0  0
 34 33  2  0  0  0  0
 34 35  1  0  0  0  0
 35 30  2  0  0  0  0
 36 41  1  0  0  0  0
 37 36  2  0  0  0  0
 38 42  1  0  0  0  0
 38 36  1  0  0  0  0
 40 34  1  0  0  0  0
M  END
>  <minimizedAffinity>
-5.63188553

$$$$

 OpenBabel03252507143D

 42 44  0  0  1  0  0  0  0  0999 V2000
   38.0220   29.2270   41.7270 C   0  0  2  0  0  0  0  0  0  0  0  0
   36.6880   28.6970   41.3900 C   0  0  0  0  0  0  0  0  0  0  0  0
   36.6930   27.2020   41.6160 C   0  0  0  0  0  0  0  0  0  0  0  0
   36.7040   26.9060   42.9780 O   0  0  0  0  0  0  0  0  0  0  0  0
   37.4020   27.8750   43.6790 C   0  0  0  0  0  0  0  0  0  0  0  0
   38.6090   28.3760   42.8510 C   0  0  1  0  0  0  0  0  0  0  0  0
   38.7140   29.0330   40.8640 H   0  0  0  0  0  0  0  0  0  0  0  0
   36.4710   28.8270   40.2890 H   0  0  0  0  0  0  0  0  0  0  0  0
   35.8840   29.1220   42.0020 H   0  0  0  0  0  0  0  0  0  0  0  0
   35.6890   26.8560   41.2580 H   0  0  0  0  0  0  0  0  0  0  0  0
   37.4210   26.6550   41.0180 H   0  0  0  0  0  0  0  0  0  0  0  0
   36.7130   28.7320   43.8530 H   0  0  0  0  0  0  0  0  0  0  0  0
   37.6950   27.4560   44.6450 H   0  0  0  0  0  0  0  0  0  0  0  0
   39.1310   29.0890   43.5220 H   0  0  0  0  0  0  0  0  0  0  0  0
   39.3800   27.3030   42.5300 N   0  0  2  0  0  0  0  0  0  0  0  0
   40.0660   26.7500   43.6790 C   0  0  0  0  0  3  0  0  0  0  0  0
   39.7890   27.1470   44.6430 H   0  0  0  0  0  0  0  0  0  0  0  0
   39.8770   25.2330   43.5420 C   0  0  0  0  0  3  0  0  0  0  0  0
   40.2180   24.6770   44.4110 H   0  0  0  0  0  0  0  0  0  0  0  0
   40.6920   24.8910   42.3920 N   0  0  0  0  0  0  0  0  0  0  0  0
   41.6950   24.9690   42.6390 H   0  0  0  0  0  0  0  0  0  0  0  0
   40.3590   25.6070   41.2170 C   0  0  0  0  0  2  0  0  0  0  0  0
   40.1900   27.1230   41.4230 C   0  0  0  0  0  2  0  0  0  0  0  0
   38.1290   30.5390   41.9710 O   0  0  0  0  0  0  0  0  0  0  0  0
   40.5150   31.2860   42.7670 O   0  0  0  0  0  0  0  0  0  0  0  0
   39.5460   31.3180   41.6470 P   0  0  2  0  0  0  0  0  0  0  0  0
   39.1950   32.9560   41.3400 O   0  0  0  0  0  0  0  0  0  0  0  0
   38.9250   33.3750   42.2010 H   0  0  0  0  0  0  0  0  0  0  0  0
   40.2610   30.6840   40.2110 O   0  0  0  0  0  0  0  0  0  0  0  0
   40.3180   31.6790   38.0720 C   0  0  0  0  0  0  0  0  0  0  0  0
   40.9030   31.5040   39.3040 C   0  0  0  0  0  0  0  0  0  0  0  0
   42.1250   32.1700   39.5720 C   0  0  0  0  0  0  0  0  0  0  0  0
   42.6420   32.9420   38.5920 N   0  0  0  0  0  0  0  0  0  0  0  0
   42.0510   33.0860   37.4220 C   0  0  0  0  0  0  0  0  0  0  0  0
   40.8810   32.4460   37.1730 N   0  0  0  0  0  0  0  0  0  0  0  0
   37.8490   31.7380   37.7590 C   0  0  0  0  0  0  0  0  0  0  0  0
   37.6520   32.5030   38.7750 O   0  0  0  0  0  0  0  0  0  0  0  0
   39.1720   31.2660   37.3430 N   0  0  0  0  0  0  0  0  0  0  0  0
   42.4940   31.9640   40.5580 H   0  0  0  0  0  0  0  0  0  0  0  0
   42.5290   33.7260   36.6820 H   0  0  0  0  0  0  0  0  0  0  0  0
   36.9120   31.5040   37.2750 H   0  0  0  0  0  0  0  0  0  0  0  0
   39.1380   30.6420   36.5150 H   0  0  0  0  0  0  0  0  0  0  0  0
  1  7  1  6  0  0  0
  1 24  1  0  0  0  0
  1  6  1  0  0  0  0
  2  3  1  0  0  0  0
  2  1  1  0  0  0  0
  2  9  1  0  0  0  0
  3  4  1  0  0  0  0
  4  5  1  0  0  0  0
  5 12  1  0  0  0  0
  5 13  1  0  0  0  0
  6 14  1  1  0  0  0
  6  5  1  0  0  0  0
  8  2  1  0  0  0  0
 10  3  1  0  0  0  0
 11  3  1  0  0  0  0
 15 23  1  6  0  0  0
 15  6  1  0  0  0  0
 15 16  1  0  0  0  0
 16 17  1  0  0  0  0
 18 16  1  0  0  0  0
 18 19  1  0  0  0  0
 20 21  1  0  0  0  0
 20 18  1  0  0  0  0
 22 23  1  0  0  0  0
 22 20  1  0  0  0  0
 26 24  1  0  0  0  0
 26 25  2  1  0  0  0
 27 26  1  0  0  0  0
 27 28  1  0  0  0  0
 29 26  1  0  0  0  0
 30 31  1  0  0  0  0
 31 32  2  0  0  0  0
 31 29  1  0  0  0  0
 32 39  1  0  0  0  0
 33 32  1  0  0  0  0
 34 33  2  0  0  0  0
 35 34  1  0  0  0  0
 35 30  2  0  0  0  0
 36 37  2  0  0  0  0
 38 36  1  0  0  0  0
 38 30  1  0  0  0  0
 40 34  1  0  0  0  0
 41 36  1  0  0  0  0
 42 38  1  0  0  0  0
M  END
>  <minimizedAffinity>
-5.48245525

$$$$

 OpenBabel03252507143D

 42 44  0  0  1  0  0  0  0  0999 V2000
   37.5730   30.3010   40.4340 C   0  0  2  0  0  0  0  0  0  0  0  0
   37.0990   29.8960   39.0980 C   0  0  0  0  0  0  0  0  0  0  0  0
   36.9050   28.3970   39.0880 C   0  0  0  0  0  0  0  0  0  0  0  0
   35.7840   28.0360   39.8320 O   0  0  0  0  0  0  0  0  0  0  0  0
   35.6010   28.9110   40.8900 C   0  0  0  0  0  0  0  0  0  0  0  0
   36.9670   29.3520   41.4670 C   0  0  1  0  0  0  0  0  0  0  0  0
   38.6740   30.0930   40.5020 H   0  0  0  0  0  0  0  0  0  0  0  0
   37.8880   30.0960   38.3150 H   0  0  0  0  0  0  0  0  0  0  0  0
   36.1430   30.3550   38.8180 H   0  0  0  0  0  0  0  0  0  0  0  0
   36.6360   28.1510   38.0290 H   0  0  0  0  0  0  0  0  0  0  0  0
   37.8060   27.8220   39.3010 H   0  0  0  0  0  0  0  0  0  0  0  0
   35.0760   29.8120   40.5000 H   0  0  0  0  0  0  0  0  0  0  0  0
   34.9650   28.4240   41.6330 H   0  0  0  0  0  0  0  0  0  0  0  0
   36.7090   29.9870   42.3390 H   0  0  0  0  0  0  0  0  0  0  0  0
   37.6600   28.2370   41.8210 N   0  0  2  0  0  0  0  0  0  0  0  0
   37.0430   27.5280   42.9230 C   0  0  0  0  0  3  0  0  0  0  0  0
   36.0680   27.8720   43.2320 H   0  0  0  0  0  0  0  0  0  0  0  0
   37.0880   26.0530   42.5000 C   0  0  0  0  0  3  0  0  0  0  0  0
   36.5320   25.3980   43.1640 H   0  0  0  0  0  0  0  0  0  0  0  0
   38.4990   25.7250   42.5590 N   0  0  0  0  0  0  0  0  0  0  0  0
   38.8070   25.6830   43.5480 H   0  0  0  0  0  0  0  0  0  0  0  0
   39.3200   26.5620   41.7660 C   0  0  0  0  0  2  0  0  0  0  0  0
   39.0290   28.0670   41.9200 C   0  0  0  0  0  2  0  0  0  0  0  0
   37.4390   31.5860   40.7820 O   0  0  0  0  0  0  0  0  0  0  0  0
   38.7890   33.8110   41.1100 O   0  0  0  0  0  0  0  0  0  0  0  0
   38.4760   32.7120   40.1690 P   0  0  2  0  0  0  0  0  0  0  0  0
   37.7480   33.4200   38.8020 O   0  0  0  0  0  0  0  0  0  0  0  0
   36.9960   33.9890   39.1190 H   0  0  0  0  0  0  0  0  0  0  0  0
   39.9270   31.9520   39.6240 O   0  0  0  0  0  0  0  0  0  0  0  0
   41.8370   33.2960   39.9550 C   0  0  0  0  0  0  0  0  0  0  0  0
   40.9640   32.6860   39.0850 C   0  0  0  0  0  0  0  0  0  0  0  0
   41.1770   32.8430   37.6930 C   0  0  0  0  0  0  0  0  0  0  0  0
   42.2340   33.5890   37.3050 N   0  0  0  0  0  0  0  0  0  0  0  0
   43.0500   34.1610   38.1690 C   0  0  0  0  0  0  0  0  0  0  0  0
   42.8410   34.0050   39.5000 N   0  0  0  0  0  0  0  0  0  0  0  0
   42.4790   32.2870   42.1370 C   0  0  0  0  0  0  0  0  0  0  0  0
   42.6470   31.1110   41.6410 O   0  0  0  0  0  0  0  0  0  0  0  0
   42.0580   33.4470   41.3490 N   0  0  0  0  0  0  0  0  0  0  0  0
   40.4410   32.3280   37.1060 H   0  0  0  0  0  0  0  0  0  0  0  0
   43.8810   34.7470   37.7790 H   0  0  0  0  0  0  0  0  0  0  0  0
   42.6900   32.2840   43.1970 H   0  0  0  0  0  0  0  0  0  0  0  0
   41.9540   34.3080   41.9180 H   0  0  0  0  0  0  0  0  0  0  0  0
  1  7  1  1  0  0  0
  1 24  1  0  0  0  0
  1  6  1  0  0  0  0
  2  1  1  0  0  0  0
  3  2  1  0  0  0  0
  3 11  1  0  0  0  0
  3  4  1  0  0  0  0
  4  5  1  0  0  0  0
  5  6  1  0  0  0  0
  5 13  1  0  0  0  0
  6 15  1  0  0  0  0
  6 14  1  1  0  0  0
  8  2  1  0  0  0  0
  9  2  1  0  0  0  0
 10  3  1  0  0  0  0
 12  5  1  0  0  0  0
 15 23  1  1  0  0  0
 15 16  1  0  0  0  0
 16 17  1  0  0  0  0
 18 20  1  0  0  0  0
 18 16  1  0  0  0  0
 18 19  1  0  0  0  0
 20 21  1  0  0  0  0
 22 23  1  0  0  0  0
 22 20  1  0  0  0  0
 26 24  1  0  0  0  0
 26 25  2  1  0  0  0
 27 28  1  0  0  0  0
 27 26  1  0  0  0  0
 29 26  1  0  0  0  0
 30 38  1  0  0  0  0
 31 29  1  0  0  0  0
 31 30  2  0  0  0  0
 32 31  1  0  0  0  0
 33 32  2  0  0  0  0
 33 34  1  0  0  0  0
 34 35  2  0  0  0  0
 35 30  1  0  0  0  0
 36 41  1  0  0  0  0
 37 36  2  0  0  0  0
 38 42  1  0  0  0  0
 38 36  1  0  0  0  0
 39 32  1  0  0  0  0
 40 34  1  0  0  0  0
M  END
>  <minimizedAffinity>
-5.45198011

$$$$

 OpenBabel03252507143D

 42 44  0  0  1  0  0  0  0  0999 V2000
   38.7160   30.3320   41.3490 C   0  0  2  0  0  0  0  0  0  0  0  0
   39.7250   30.7240   42.3510 C   0  0  0  0  0  0  0  0  0  0  0  0
   40.9140   31.3190   41.6310 C   0  0  0  0  0  0  0  0  0  0  0  0
   40.6090   32.5820   41.1280 O   0  0  0  0  0  0  0  0  0  0  0  0
   39.2730   32.6510   40.7670 C   0  0  0  0  0  0  0  0  0  0  0  0
   38.8040   31.3020   40.1720 C   0  0  1  0  0  0  0  0  0  0  0  0
   39.0190   29.3490   40.9000 H   0  0  0  0  0  0  0  0  0  0  0  0
   40.1300   29.8160   42.8870 H   0  0  0  0  0  0  0  0  0  0  0  0
   39.3610   31.4720   43.0640 H   0  0  0  0  0  0  0  0  0  0  0  0
   41.6700   31.5070   42.4360 H   0  0  0  0  0  0  0  0  0  0  0  0
   41.4000   30.6460   40.9260 H   0  0  0  0  0  0  0  0  0  0  0  0
   38.6820   32.8540   41.6890 H   0  0  0  0  0  0  0  0  0  0  0  0
   39.1470   33.4870   40.0750 H   0  0  0  0  0  0  0  0  0  0  0  0
   37.7570   31.4850   39.8580 H   0  0  0  0  0  0  0  0  0  0  0  0
   39.6160   30.9940   39.1260 N   0  0  2  0  0  0  0  0  0  0  0  0
   39.3690   31.8290   37.9680 C   0  0  0  0  0  3  0  0  0  0  0  0
   38.6960   32.6600   38.1090 H   0  0  0  0  0  0  0  0  0  0  0  0
   40.7690   32.2250   37.4790 C   0  0  0  0  0  3  0  0  0  0  0  0
   40.7540   32.9740   36.6920 H   0  0  0  0  0  0  0  0  0  0  0  0
   41.3130   30.9840   36.9630 N   0  0  0  0  0  0  0  0  0  0  0  0
   40.8320   30.7320   36.0800 H   0  0  0  0  0  0  0  0  0  0  0  0
   41.3260   29.9250   37.9020 C   0  0  0  0  0  2  0  0  0  0  0  0
   40.0050   29.7460   38.6740 C   0  0  0  0  0  2  0  0  0  0  0  0
   37.4580   30.1510   41.7670 O   0  0  0  0  0  0  0  0  0  0  0  0
   35.4610   28.6350   40.9960 O   0  0  0  0  0  0  0  0  0  0  0  0
   36.7740   28.6530   41.6800 P   0  0  2  0  0  0  0  0  0  0  0  0
   36.5170   28.0910   43.2670 O   0  0  0  0  0  0  0  0  0  0  0  0
   35.7780   28.6290   43.6630 H   0  0  0  0  0  0  0  0  0  0  0  0
   37.8620   27.5430   40.9290 O   0  0  0  0  0  0  0  0  0  0  0  0
   37.9320   25.3580   41.8160 C   0  0  0  0  0  0  0  0  0  0  0  0
   38.5320   26.5860   41.6620 C   0  0  0  0  0  0  0  0  0  0  0  0
   39.7980   26.7980   42.2630 C   0  0  0  0  0  0  0  0  0  0  0  0
   40.3400   25.7710   42.9530 N   0  0  0  0  0  0  0  0  0  0  0  0
   39.7340   24.6070   43.0790 C   0  0  0  0  0  0  0  0  0  0  0  0
   38.5220   24.4110   42.5020 N   0  0  0  0  0  0  0  0  0  0  0  0
   36.5300   24.3220   40.0400 C   0  0  0  0  0  0  0  0  0  0  0  0
   37.3550   24.6180   39.0970 O   0  0  0  0  0  0  0  0  0  0  0  0
   36.7450   24.6730   41.4450 N   0  0  0  0  0  0  0  0  0  0  0  0
   40.1750   27.7860   42.0830 H   0  0  0  0  0  0  0  0  0  0  0  0
   40.2340   23.8270   43.6510 H   0  0  0  0  0  0  0  0  0  0  0  0
   35.6770   23.7910   39.6430 H   0  0  0  0  0  0  0  0  0  0  0  0
   35.9670   24.3730   42.0610 H   0  0  0  0  0  0  0  0  0  0  0  0
  1  7  1  6  0  0  0
  1 24  1  0  0  0  0
  1  2  1  0  0  0  0
  2  8  1  0  0  0  0
  2  9  1  0  0  0  0
  3  2  1  0  0  0  0
  3 10  1  0  0  0  0
  4  3  1  0  0  0  0
  5  4  1  0  0  0  0
  5 12  1  0  0  0  0
  6 14  1  6  0  0  0
  6  5  1  0  0  0  0
  6  1  1  0  0  0  0
 11  3  1  0  0  0  0
 13  5  1  0  0  0  0
 15 23  1  6  0  0  0
 15  6  1  0  0  0  0
 16 17  1  0  0  0  0
 16 15  1  0  0  0  0
 18 16  1  0  0  0  0
 19 18  1  0  0  0  0
 20 18  1  0  0  0  0
 20 22  1  0  0  0  0
 21 20  1  0  0  0  0
 22 23  1  0  0  0  0
 26 25  2  6  0  0  0
 26 24  1  0  0  0  0
 26 27  1  0  0  0  0
 27 28  1  0  0  0  0
 29 31  1  0  0  0  0
 29 26  1  0  0  0  0
 30 35  1  0  0  0  0
 31 30  2  0  0  0  0
 31 32  1  0  0  0  0
 32 33  2  0  0  0  0
 33 34  1  0  0  0  0
 34 40  1  0  0  0  0
 35 34  2  0  0  0  0
 36 38  1  0  0  0  0
 37 36  2  0  0  0  0
 38 30  1  0  0  0  0
 38 42  1  0  0  0  0
 39 32  1  0  0  0  0
 41 36  1  0  0  0  0
M  END
>  <minimizedAffinity>
-5.41828394

$$$$

 OpenBabel03252507143D

 42 44  0  0  1  0  0  0  0  0999 V2000
   37.8390   30.6990   39.3080 C   0  0  2  0  0  0  0  0  0  0  0  0
   36.5890   30.2110   38.6970 C   0  0  0  0  0  0  0  0  0  0  0  0
   36.0490   29.0780   39.5420 C   0  0  0  0  0  0  0  0  0  0  0  0
   35.5300   29.5580   40.7420 O   0  0  0  0  0  0  0  0  0  0  0  0
   36.2330   30.6740   41.1640 C   0  0  0  0  0  0  0  0  0  0  0  0
   37.7340   30.5270   40.8220 C   0  0  1  0  0  0  0  0  0  0  0  0
   38.6730   30.0030   39.0230 H   0  0  0  0  0  0  0  0  0  0  0  0
   36.7900   29.7530   37.6840 H   0  0  0  0  0  0  0  0  0  0  0  0
   35.8080   30.9780   38.6350 H   0  0  0  0  0  0  0  0  0  0  0  0
   35.1600   28.7000   38.9760 H   0  0  0  0  0  0  0  0  0  0  0  0
   36.7200   28.2250   39.6360 H   0  0  0  0  0  0  0  0  0  0  0  0
   35.8310   31.5570   40.6170 H   0  0  0  0  0  0  0  0  0  0  0  0
   36.0520   30.8100   42.2330 H   0  0  0  0  0  0  0  0  0  0  0  0
   38.2090   31.4300   41.2580 H   0  0  0  0  0  0  0  0  0  0  0  0
   38.1880   29.3760   41.3860 N   0  0  2  0  0  0  0  0  0  0  0  0
   38.3430   29.4860   42.8220 C   0  0  0  0  0  3  0  0  0  0  0  0
   37.9620   30.3850   43.2810 H   0  0  0  0  0  0  0  0  0  0  0  0
   37.7340   28.1880   43.3710 C   0  0  0  0  0  3  0  0  0  0  0  0
   37.6450   28.1800   44.4540 H   0  0  0  0  0  0  0  0  0  0  0  0
   38.6720   27.1670   42.9490 N   0  0  0  0  0  0  0  0  0  0  0  0
   39.5480   27.2490   43.4950 H   0  0  0  0  0  0  0  0  0  0  0  0
   38.8970   27.1330   41.5530 C   0  0  0  0  0  2  0  0  0  0  0  0
   39.1610   28.5110   40.9180 C   0  0  0  0  0  2  0  0  0  0  0  0
   38.2690   31.9180   38.9620 O   0  0  0  0  0  0  0  0  0  0  0  0
   40.5110   33.2680   38.7770 O   0  0  0  0  0  0  0  0  0  0  0  0
   39.7570   32.0960   38.2750 P   0  0  2  0  0  0  0  0  0  0  0  0
   39.5480   32.3190   36.6000 O   0  0  0  0  0  0  0  0  0  0  0  0
   39.1510   33.2220   36.4610 H   0  0  0  0  0  0  0  0  0  0  0  0
   40.6830   30.6530   38.4740 O   0  0  0  0  0  0  0  0  0  0  0  0
   41.5330   28.8960   37.1490 C   0  0  0  0  0  0  0  0  0  0  0  0
   41.5640   30.2250   37.5020 C   0  0  0  0  0  0  0  0  0  0  0  0
   42.4940   31.0740   36.8530 C   0  0  0  0  0  0  0  0  0  0  0  0
   43.2990   30.5200   35.9200 N   0  0  0  0  0  0  0  0  0  0  0  0
   43.2400   29.2400   35.6070 C   0  0  0  0  0  0  0  0  0  0  0  0
   42.3470   28.4330   36.2320 N   0  0  0  0  0  0  0  0  0  0  0  0
   39.4280   27.5700   37.1110 C   0  0  0  0  0  0  0  0  0  0  0  0
   38.7530   28.4960   36.5240 O   0  0  0  0  0  0  0  0  0  0  0  0
   40.8410   27.6990   37.4720 N   0  0  0  0  0  0  0  0  0  0  0  0
   42.4360   32.0870   37.2020 H   0  0  0  0  0  0  0  0  0  0  0  0
   43.9200   28.8670   34.8440 H   0  0  0  0  0  0  0  0  0  0  0  0
   38.8050   26.7050   37.2920 H   0  0  0  0  0  0  0  0  0  0  0  0
   41.2140   26.8620   37.9570 H   0  0  0  0  0  0  0  0  0  0  0  0
  1  7  1  6  0  0  0
  1  6  1  0  0  0  0
  2  1  1  0  0  0  0
  2  3  1  0  0  0  0
  3 11  1  0  0  0  0
  3  4  1  0  0  0  0
  4  5  1  0  0  0  0
  5 13  1  0  0  0  0
  6  5  1  0  0  0  0
  6 14  1  1  0  0  0
  6 15  1  0  0  0  0
  8  2  1  0  0  0  0
  9  2  1  0  0  0  0
 10  3  1  0  0  0  0
 12  5  1  0  0  0  0
 15 23  1  6  0  0  0
 15 16  1  0  0  0  0
 16 17  1  0  0  0  0
 16 18  1  0  0  0  0
 18 19  1  0  0  0  0
 20 18  1  0  0  0  0
 20 21  1  0  0  0  0
 22 20  1  0  0  0  0
 23 22  1  0  0  0  0
 24  1  1  0  0  0  0
 26 29  1  0  0  0  0
 26 25  2  1  0  0  0
 26 24  1  0  0  0  0
 27 26  1  0  0  0  0
 28 27  1  0  0  0  0
 30 38  1  0  0  0  0
 30 31  1  0  0  0  0
 31 29  1  0  0  0  0
 32 39  1  0  0  0  0
 32 31  2  0  0  0  0
 33 32  1  0  0  0  0
 34 33  2  0  0  0  0
 34 35  1  0  0  0  0
 35 30  2  0  0  0  0
 36 41  1  0  0  0  0
 36 38  1  0  0  0  0
 37 36  2  0  0  0  0
 38 42  1  0  0  0  0
 40 34  1  0  0  0  0
M  END
>  <minimizedAffinity>
-5.41295815

$$$$

 OpenBabel03252507143D

 42 44  0  0  1  0  0  0  0  0999 V2000
   38.6610   30.2970   41.4250 C   0  0  2  0  0  0  0  0  0  0  0  0
   39.6960   30.7780   42.3580 C   0  0  0  0  0  0  0  0  0  0  0  0
   40.8030   31.4260   41.5580 C   0  0  0  0  0  0  0  0  0  0  0  0
   40.3910   32.6530   41.0430 O   0  0  0  0  0  0  0  0  0  0  0  0
   39.0360   32.6290   40.7570 C   0  0  0  0  0  0  0  0  0  0  0  0
   38.6220   31.2380   40.2220 C   0  0  1  0  0  0  0  0  0  0  0  0
   39.0000   29.3220   40.9840 H   0  0  0  0  0  0  0  0  0  0  0  0
   40.1870   29.9120   42.8930 H   0  0  0  0  0  0  0  0  0  0  0  0
   39.3260   31.5220   43.0730 H   0  0  0  0  0  0  0  0  0  0  0  0
   41.5890   31.6830   42.3140 H   0  0  0  0  0  0  0  0  0  0  0  0
   41.2920   30.7650   40.8430 H   0  0  0  0  0  0  0  0  0  0  0  0
   38.4850   32.8210   41.7060 H   0  0  0  0  0  0  0  0  0  0  0  0
   38.8190   33.4360   40.0530 H   0  0  0  0  0  0  0  0  0  0  0  0
   37.5490   31.3470   39.9640 H   0  0  0  0  0  0  0  0  0  0  0  0
   39.3930   30.9520   39.1390 N   0  0  2  0  0  0  0  0  0  0  0  0
   39.1270   31.8350   38.0220 C   0  0  0  0  0  3  0  0  0  0  0  0
   38.4770   32.6740   38.2150 H   0  0  0  0  0  0  0  0  0  0  0  0
   40.5190   32.2190   37.5020 C   0  0  0  0  0  3  0  0  0  0  0  0
   40.4950   32.9960   36.7430 H   0  0  0  0  0  0  0  0  0  0  0  0
   41.0180   30.9870   36.9220 N   0  0  0  0  0  0  0  0  0  0  0  0
   40.5040   30.7780   36.0480 H   0  0  0  0  0  0  0  0  0  0  0  0
   41.0380   29.8940   37.8210 C   0  0  0  0  0  2  0  0  0  0  0  0
   39.7400   29.7140   38.6300 C   0  0  0  0  0  2  0  0  0  0  0  0
   37.4410   30.0500   41.9190 O   0  0  0  0  0  0  0  0  0  0  0  0
   35.3610   29.0170   40.6980 O   0  0  0  0  0  0  0  0  0  0  0  0
   36.6150   28.7110   41.4250 P   0  0  2  0  0  0  0  0  0  0  0  0
   36.1820   27.8120   42.8050 O   0  0  0  0  0  0  0  0  0  0  0  0
   35.4760   28.3200   43.2880 H   0  0  0  0  0  0  0  0  0  0  0  0
   37.6350   27.6980   40.4700 O   0  0  0  0  0  0  0  0  0  0  0  0
   38.8260   25.8360   41.2950 C   0  0  0  0  0  0  0  0  0  0  0  0
   37.7000   26.3360   40.6840 C   0  0  0  0  0  0  0  0  0  0  0  0
   36.6760   25.4310   40.3110 C   0  0  0  0  0  0  0  0  0  0  0  0
   36.8720   24.1220   40.5820 N   0  0  0  0  0  0  0  0  0  0  0  0
   37.9670   23.6790   41.1690 C   0  0  0  0  0  0  0  0  0  0  0  0
   38.9430   24.5520   41.5240 N   0  0  0  0  0  0  0  0  0  0  0  0
   40.0660   27.0900   43.0520 C   0  0  0  0  0  0  0  0  0  0  0  0
   38.9960   27.4460   43.6730 O   0  0  0  0  0  0  0  0  0  0  0  0
   40.0630   26.2820   41.8300 N   0  0  0  0  0  0  0  0  0  0  0  0
   35.8460   25.9230   39.8430 H   0  0  0  0  0  0  0  0  0  0  0  0
   38.0530   22.6100   41.3550 H   0  0  0  0  0  0  0  0  0  0  0  0
   40.9410   27.4720   43.5570 H   0  0  0  0  0  0  0  0  0  0  0  0
   41.0150   26.1100   41.4570 H   0  0  0  0  0  0  0  0  0  0  0  0
  1  7  1  6  0  0  0
  1 24  1  0  0  0  0
  1  2  1  0  0  0  0
  2  8  1  0  0  0  0
  2  9  1  0  0  0  0
  3 10  1  0  0  0  0
  3  2  1  0  0  0  0
  4  3  1  0  0  0  0
  5  4  1  0  0  0  0
  5 12  1  0  0  0  0
  6 14  1  6  0  0  0
  6  5  1  0  0  0  0
  6  1  1  0  0  0  0
 11  3  1  0  0  0  0
 13  5  1  0  0  0  0
 15 23  1  6  0  0  0
 15  6  1  0  0  0  0
 16 17  1  0  0  0  0
 16 15  1  0  0  0  0
 18 16  1  0  0  0  0
 19 18  1  0  0  0  0
 20 18  1  0  0  0  0
 20 22  1  0  0  0  0
 21 20  1  0  0  0  0
 22 23  1  0  0  0  0
 26 25  2  6  0  0  0
 26 24  1  0  0  0  0
 26 27  1  0  0  0  0
 27 28  1  0  0  0  0
 29 31  1  0  0  0  0
 29 26  1  0  0  0  0
 30 35  1  0  0  0  0
 30 38  1  0  0  0  0
 31 30  2  0  0  0  0
 32 33  2  0  0  0  0
 32 31  1  0  0  0  0
 33 34  1  0  0  0  0
 34 40  1  0  0  0  0
 34 35  2  0  0  0  0
 36 41  1  0  0  0  0
 36 37  2  0  0  0  0
 38 36  1  0  0  0  0
 39 32  1  0  0  0  0
 42 38  1  0  0  0  0
M  END
>  <minimizedAffinity>
-5.39068174

$$$$

 OpenBabel03252507143D

 42 44  0  0  1  0  0  0  0  0999 V2000
   37.6070   28.9760   38.0010 C   0  0  2  0  0  0  0  0  0  0  0  0
   37.3850   27.6570   37.3790 C   0  0  0  0  0  0  0  0  0  0  0  0
   37.2460   26.6250   38.4760 C   0  0  0  0  0  0  0  0  0  0  0  0
   36.0250   26.7610   39.1330 O   0  0  0  0  0  0  0  0  0  0  0  0
   35.6330   28.0890   39.1600 C   0  0  0  0  0  0  0  0  0  0  0  0
   36.8630   29.0110   39.3340 C   0  0  1  0  0  0  0  0  0  0  0  0
   38.6860   29.0550   38.3010 H   0  0  0  0  0  0  0  0  0  0  0  0
   38.2920   27.3360   36.7860 H   0  0  0  0  0  0  0  0  0  0  0  0
   36.4780   27.6130   36.7660 H   0  0  0  0  0  0  0  0  0  0  0  0
   37.1730   25.6460   37.9380 H   0  0  0  0  0  0  0  0  0  0  0  0
   38.1150   26.5360   39.1270 H   0  0  0  0  0  0  0  0  0  0  0  0
   35.1540   28.3220   38.1830 H   0  0  0  0  0  0  0  0  0  0  0  0
   34.8940   28.2140   39.9550 H   0  0  0  0  0  0  0  0  0  0  0  0
   36.4380   30.0320   39.4110 H   0  0  0  0  0  0  0  0  0  0  0  0
   37.5210   28.6350   40.4640 N   0  0  2  0  0  0  0  0  0  0  0  0
   36.8160   29.0200   41.6690 C   0  0  0  0  0  3  0  0  0  0  0  0
   35.8220   29.4190   41.5400 H   0  0  0  0  0  0  0  0  0  0  0  0
   36.8870   27.7750   42.5650 C   0  0  0  0  0  3  0  0  0  0  0  0
   36.2770   27.8560   43.4600 H   0  0  0  0  0  0  0  0  0  0  0  0
   38.2870   27.6990   42.9320 N   0  0  0  0  0  0  0  0  0  0  0  0
   38.5170   28.4630   43.5940 H   0  0  0  0  0  0  0  0  0  0  0  0
   39.1710   27.6460   41.8280 C   0  0  0  0  0  2  0  0  0  0  0  0
   38.8770   28.6840   40.7290 C   0  0  0  0  0  2  0  0  0  0  0  0
   37.3720   30.0640   37.2570 O   0  0  0  0  0  0  0  0  0  0  0  0
   37.2270   32.4000   38.4430 O   0  0  0  0  0  0  0  0  0  0  0  0
   38.0920   31.4940   37.6510 P   0  0  2  0  0  0  0  0  0  0  0  0
   38.4770   32.3120   36.2070 O   0  0  0  0  0  0  0  0  0  0  0  0
   37.6250   32.6200   35.7960 H   0  0  0  0  0  0  0  0  0  0  0  0
   39.5810   31.2080   38.4740 O   0  0  0  0  0  0  0  0  0  0  0  0
   41.4700   31.9550   37.2740 C   0  0  0  0  0  0  0  0  0  0  0  0
   40.7380   30.9080   37.7840 C   0  0  0  0  0  0  0  0  0  0  0  0
   41.2110   29.5890   37.5740 C   0  0  0  0  0  0  0  0  0  0  0  0
   42.3600   29.4410   36.8800 N   0  0  0  0  0  0  0  0  0  0  0  0
   43.0340   30.4700   36.4050 C   0  0  0  0  0  0  0  0  0  0  0  0
   42.5760   31.7310   36.6110 N   0  0  0  0  0  0  0  0  0  0  0  0
   41.6440   34.1540   38.4260 C   0  0  0  0  0  0  0  0  0  0  0  0
   41.8350   33.6280   39.5850 O   0  0  0  0  0  0  0  0  0  0  0  0
   41.4390   33.3730   37.2050 N   0  0  0  0  0  0  0  0  0  0  0  0
   40.5670   28.8500   38.0110 H   0  0  0  0  0  0  0  0  0  0  0  0
   43.9530   30.2720   35.8560 H   0  0  0  0  0  0  0  0  0  0  0  0
   41.6570   35.2320   38.4930 H   0  0  0  0  0  0  0  0  0  0  0  0
   41.2800   33.9640   36.3670 H   0  0  0  0  0  0  0  0  0  0  0  0
  1  7  1  1  0  0  0
  1  6  1  0  0  0  0
  2  1  1  0  0  0  0
  2  3  1  0  0  0  0
  3 11  1  0  0  0  0
  3  4  1  0  0  0  0
  4  5  1  0  0  0  0
  5  6  1  0  0  0  0
  5 13  1  0  0  0  0
  6 14  1  1  0  0  0
  6 15  1  0  0  0  0
  8  2  1  0  0  0  0
  9  2  1  0  0  0  0
 10  3  1  0  0  0  0
 12  5  1  0  0  0  0
 15 23  1  1  0  0  0
 15 16  1  0  0  0  0
 16 18  1  0  0  0  0
 17 16  1  0  0  0  0
 18 20  1  0  0  0  0
 18 19  1  0  0  0  0
 20 21  1  0  0  0  0
 22 20  1  0  0  0  0
 23 22  1  0  0  0  0
 24 26  1  0  0  0  0
 24  1  1  0  0  0  0
 26 25  2  1  0  0  0
 26 29  1  0  0  0  0
 27 26  1  0  0  0  0
 28 27  1  0  0  0  0
 30 31  1  0  0  0  0
 31 29  1  0  0  0  0
 32 31  2  0  0  0  0
 32 39  1  0  0  0  0
 33 32  1  0  0  0  0
 34 35  1  0  0  0  0
 34 33  2  0  0  0  0
 35 30  2  0  0  0  0
 36 41  1  0  0  0  0
 36 37  2  0  0  0  0
 38 30  1  0  0  0  0
 38 36  1  0  0  0  0
 40 34  1  0  0  0  0
 42 38  1  0  0  0  0
M  END
>  <minimizedAffinity>
-5.36019516

$$$$
