
 OpenBabel03252507183D

 44 47  0  0  1  0  0  0  0  0999 V2000
   47.1710   33.6630   42.9070 C   0  0  0  0  0  0  0  0  0  0  0  0
   48.3060   33.4920   43.4240 O   0  0  0  0  0  0  0  0  0  0  0  0
   46.7720   33.1240   41.6460 N   0  0  0  0  0  0  0  0  0  0  0  0
   45.5490   32.4520   41.2350 C   0  0  0  0  0  0  0  0  0  0  0  0
   44.9890   33.1300   39.9660 C   0  0  0  0  0  0  0  0  0  0  0  0
   45.9670   32.9390   38.8350 C   0  0  0  0  0  0  0  0  0  0  0  0
   47.2910   32.4650   39.3790 C   0  0  0  0  0  0  0  0  0  0  0  0
   47.7050   33.2590   40.5630 C   0  0  2  0  0  0  0  0  0  0  0  0
   44.8010   32.6930   42.0480 H   0  0  0  0  0  0  0  0  0  0  0  0
   45.6280   31.3770   41.1320 H   0  0  0  0  0  0  0  0  0  0  0  0
   43.9810   32.7770   39.7720 H   0  0  0  0  0  0  0  0  0  0  0  0
   45.0270   34.2220   40.2320 H   0  0  0  0  0  0  0  0  0  0  0  0
   46.1070   33.8760   38.2580 H   0  0  0  0  0  0  0  0  0  0  0  0
   45.5190   32.1660   38.1470 H   0  0  0  0  0  0  0  0  0  0  0  0
   48.0450   32.4310   38.5880 H   0  0  0  0  0  0  0  0  0  0  0  0
   47.1170   31.3800   39.6470 H   0  0  0  0  0  0  0  0  0  0  0  0
   47.5930   34.3350   40.2450 H   0  0  0  0  0  0  0  0  0  0  0  0
   49.0930   33.1290   40.9130 N   0  0  2  0  0  0  0  0  0  0  0  0
   49.2300   31.9140   41.7620 C   0  0  0  0  0  0  0  0  0  0  0  0
   48.8930   32.1400   42.7730 H   0  0  0  0  0  0  0  0  0  0  0  0
   50.6670   31.4550   41.6970 C   0  0  0  0  0  0  0  0  0  0  0  0
   50.8550   30.8680   40.7810 H   0  0  0  0  0  0  0  0  0  0  0  0
   51.4650   32.6870   41.7300 N   0  0  0  0  0  0  0  0  0  0  0  0
   52.4070   32.5370   42.1000 H   0  0  0  0  0  0  0  0  0  0  0  0
   50.7840   33.7300   42.4750 C   0  0  0  0  0  0  0  0  0  0  0  0
   49.5770   34.2610   41.6880 C   0  0  0  0  0  0  0  0  0  0  0  0
   45.8020   35.6890   43.0700 C   0  0  0  0  0  0  0  0  0  0  0  0
   46.2120   34.4560   43.6370 C   0  0  0  0  0  0  0  0  0  0  0  0
   45.6900   34.0600   44.8520 C   0  0  0  0  0  0  0  0  0  0  0  0
   44.7970   34.8710   45.4630 N   0  0  0  0  0  0  0  0  0  0  0  0
   44.3970   36.0530   44.9320 C   0  0  0  0  0  0  0  0  0  0  0  0
   44.9080   36.4390   43.7450 N   0  0  0  0  0  0  0  0  0  0  0  0
   46.2290   35.9740   42.1160 H   0  0  0  0  0  0  0  0  0  0  0  0
   43.6840   36.6860   45.4330 H   0  0  0  0  0  0  0  0  0  0  0  0
   46.1270   32.8000   45.4150 C   0  0  0  0  0  0  0  0  0  0  0  0
   45.7340   31.6270   44.8430 C   0  0  0  0  0  0  0  0  0  0  0  0
   46.1540   30.4320   45.3880 C   0  0  0  0  0  0  0  0  0  0  0  0
   46.9700   30.3670   46.5090 C   0  0  0  0  0  0  0  0  0  0  0  0
   47.3380   31.5960   47.0500 C   0  0  0  0  0  0  0  0  0  0  0  0
   46.9100   32.7360   46.4910 N   0  0  0  0  0  0  0  0  0  0  0  0
   45.1050   31.4860   43.9850 H   0  0  0  0  0  0  0  0  0  0  0  0
   45.8850   29.4530   44.9930 H   0  0  0  0  0  0  0  0  0  0  0  0
   47.2980   29.4470   46.9370 H   0  0  0  0  0  0  0  0  0  0  0  0
   47.9790   31.6320   47.9320 H   0  0  0  0  0  0  0  0  0  0  0  0
  1  2  2  0  0  0  0
  1 28  1  0  0  0  0
  3  1  1  0  0  0  0
  4  3  1  0  0  0  0
  4  9  1  0  0  0  0
  5 12  1  0  0  0  0
  5  4  1  0  0  0  0
  6  7  1  0  0  0  0
  6  5  1  0  0  0  0
  7 16  1  0  0  0  0
  7  8  1  0  0  0  0
  8 17  1  6  0  0  0
  8 18  1  0  0  0  0
  8  3  1  0  0  0  0
 10  4  1  0  0  0  0
 11  5  1  0  0  0  0
 13  6  1  0  0  0  0
 14  6  1  0  0  0  0
 15  7  1  0  0  0  0
 18 26  1  1  0  0  0
 18 19  1  0  0  0  0
 19 20  1  0  0  0  0
 21 23  1  0  0  0  0
 21 19  1  0  0  0  0
 22 21  1  0  0  0  0
 23 24  1  0  0  0  0
 23 25  1  0  0  0  0
 26 25  1  0  0  0  0
 27 28  2  0  0  0  0
 27 32  1  0  0  0  0
 28 29  1  0  0  0  0
 29 35  1  0  0  0  0
 29 30  2  0  0  0  0
 31 34  1  0  0  0  0
 31 30  1  0  0  0  0
 32 31  2  0  0  0  0
 33 27  1  0  0  0  0
 35 40  1  0  0  0  0
 36 37  1  0  0  0  0
 36 35  2  0  0  0  0
 37 38  2  0  0  0  0
 38 43  1  0  0  0  0
 38 39  1  0  0  0  0
 39 44  1  0  0  0  0
 40 39  2  0  0  0  0
 41 36  1  0  0  0  0
 42 37  1  0  0  0  0
M  END
>  <minimizedAffinity>
-5.87622976

>  <minimizedRMSD>
0.419662327

$$$$
