
 OpenBabel03252509033D

 48 50  0  0  1  0  0  0  0  0999 V2000
   46.5980   34.5390   43.5700 N   0  0  0  0  0  0  0  0  0  0  0  0
   46.1140   35.3270   42.4980 C   0  0  0  0  0  0  0  0  0  0  0  0
   44.6070   35.4070   42.3890 C   0  0  0  0  0  0  0  0  0  0  0  0
   43.8990   35.3730   43.7170 C   0  0  0  0  0  0  0  0  0  0  0  0
   44.8760   35.3560   44.8750 C   0  0  0  0  0  0  0  0  0  0  0  0
   45.7600   34.0980   44.5770 C   0  0  2  0  0  0  0  0  0  0  0  0
   46.4640   36.3820   42.6860 H   0  0  0  0  0  0  0  0  0  0  0  0
   46.4920   35.0830   41.5000 H   0  0  0  0  0  0  0  0  0  0  0  0
   44.2720   34.5550   41.7520 H   0  0  0  0  0  0  0  0  0  0  0  0
   44.3760   36.3230   41.7990 H   0  0  0  0  0  0  0  0  0  0  0  0
   43.2920   34.4430   43.7990 H   0  0  0  0  0  0  0  0  0  0  0  0
   43.2380   36.2800   43.8230 H   0  0  0  0  0  0  0  0  0  0  0  0
   44.3330   35.2190   45.8110 H   0  0  0  0  0  0  0  0  0  0  0  0
   45.4840   36.2770   44.8010 H   0  0  0  0  0  0  0  0  0  0  0  0
   45.0190   33.3140   44.3340 H   0  0  0  0  0  0  0  0  0  0  0  0
   47.7600   33.7440   43.2420 C   0  0  0  0  0  0  0  0  0  0  0  0
   48.2690   33.4800   44.1850 H   0  0  0  0  0  0  0  0  0  0  0  0
   48.4460   34.3780   42.6510 H   0  0  0  0  0  0  0  0  0  0  0  0
   47.3250   32.5330   42.4930 C   0  0  0  0  0  0  0  0  0  0  0  0
   47.4820   31.5820   43.0270 H   0  0  0  0  0  0  0  0  0  0  0  0
   46.2240   32.5740   42.2440 H   0  0  0  0  0  0  0  0  0  0  0  0
   49.8430   31.7540   39.8150 C   0  0  0  0  0  0  0  0  0  0  0  0
   49.1760   31.8050   41.0520 C   0  0  0  0  0  0  0  0  0  0  0  0
   48.0070   32.4950   41.1750 C   0  0  0  0  0  0  0  0  0  0  0  0
   47.5390   33.1060   40.0830 N   0  0  0  0  0  0  0  0  0  0  0  0
   48.1580   33.0690   38.8990 C   0  0  0  0  0  0  0  0  0  0  0  0
   49.3180   32.3940   38.7450 N   0  0  0  0  0  0  0  0  0  0  0  0
   50.7670   31.1750   39.8310 H   0  0  0  0  0  0  0  0  0  0  0  0
   49.5760   31.3040   41.9140 H   0  0  0  0  0  0  0  0  0  0  0  0
   47.7380   33.5830   38.0360 H   0  0  0  0  0  0  0  0  0  0  0  0
   46.4250   33.9240   45.7740 O   0  0  0  0  0  0  0  0  0  0  0  0
   45.7870   31.3750   45.3670 O   0  0  0  0  0  0  0  0  0  0  0  0
   46.1920   32.3860   46.4350 P   0  0  2  0  0  0  0  0  0  0  0  0
   44.8640   32.5220   47.4890 O   0  0  0  0  0  0  0  0  0  0  0  0
   45.0170   33.2570   48.1120 H   0  0  0  0  0  0  0  0  0  0  0  0
   47.5030   31.8520   47.3200 O   0  0  0  0  0  0  0  0  0  0  0  0
   47.4230   30.4970   47.5010 C   0  0  0  0  0  0  0  0  0  0  0  0
   47.7460   30.0330   46.5240 H   0  0  0  0  0  0  0  0  0  0  0  0
   46.3790   30.2140   47.6580 H   0  0  0  0  0  0  0  0  0  0  0  0
   48.2450   29.9350   48.5250 N   0  0  0  0  0  0  0  0  0  0  0  0
   48.8000   30.8920   49.4310 C   0  0  0  0  0  3  0  0  0  0  0  0
   49.4040   31.6750   48.9190 H   0  0  0  0  0  0  0  0  0  0  0  0
   49.7290   30.1420   50.3810 C   0  0  0  0  0  3  0  0  0  0  0  0
   49.1810   29.3830   50.9540 H   0  0  0  0  0  0  0  0  0  0  0  0
   50.8440   29.5490   49.7070 N   0  0  0  0  0  0  0  0  0  0  0  0
   50.9040   28.5230   49.8900 H   0  0  0  0  0  0  0  0  0  0  0  0
   50.6920   29.7390   48.2930 C   0  0  0  0  0  2  0  0  0  0  0  0
   49.3380   29.2430   47.8710 C   0  0  0  0  0  2  0  0  0  0  0  0
  1  6  1  0  0  0  0
  2  7  1  0  0  0  0
  2  1  1  0  0  0  0
  3  2  1  0  0  0  0
  3  4  1  0  0  0  0
  4 11  1  0  0  0  0
  4 12  1  0  0  0  0
  4  5  1  0  0  0  0
  5 13  1  0  0  0  0
  6 15  1  6  0  0  0
  6  5  1  0  0  0  0
  6 31  1  0  0  0  0
  8  2  1  0  0  0  0
  9  3  1  0  0  0  0
 10  3  1  0  0  0  0
 14  5  1  0  0  0  0
 16  1  1  0  0  0  0
 16 17  1  0  0  0  0
 18 16  1  0  0  0  0
 19 20  1  0  0  0  0
 19 16  1  0  0  0  0
 21 19  1  0  0  0  0
 22 28  1  0  0  0  0
 22 23  1  0  0  0  0
 23 24  2  0  0  0  0
 23 29  1  0  0  0  0
 24 19  1  0  0  0  0
 25 24  1  0  0  0  0
 26 25  2  0  0  0  0
 27 26  1  0  0  0  0
 27 22  2  0  0  0  0
 30 26  1  0  0  0  0
 31 33  1  0  0  0  0
 33 32  2  6  0  0  0
 33 36  1  0  0  0  0
 33 34  1  0  0  0  0
 34 35  1  0  0  0  0
 36 37  1  0  0  0  0
 37 39  1  0  0  0  0
 37 40  1  0  0  0  0
 38 37  1  0  0  0  0
 40 41  1  0  0  0  0
 41 43  1  0  0  0  0
 42 41  1  0  0  0  0
 43 44  1  0  0  0  0
 45 46  1  0  0  0  0
 45 43  1  0  0  0  0
 47 45  1  0  0  0  0
 48 47  1  0  0  0  0
 48 40  1  0  0  0  0
M  END
>  <minimizedAffinity>
-4.64586306

>  <minimizedRMSD>
3.38345075

$$$$
