
 OpenBabel03242513063D

 41 45  0  0  0  0  0  0  0  0999 V2000
   45.9540   33.3190   41.6190 C   0  0  0  0  0  0  0  0  0  0  0  0
   47.1400   33.9820   41.3220 C   0  0  0  0  0  0  0  0  0  0  0  0
   48.1160   33.9990   42.3140 C   0  0  0  0  0  0  0  0  0  0  0  0
   47.8240   33.3650   43.4910 N   0  0  0  0  0  0  0  0  0  0  0  0
   46.6820   32.7380   43.7470 C   0  0  0  0  0  0  0  0  0  0  0  0
   45.7220   32.7070   42.8040 N   0  0  0  0  0  0  0  0  0  0  0  0
   45.1730   33.2950   40.8490 H   0  0  0  0  0  0  0  0  0  0  0  0
   46.6710   30.7410   45.1770 C   0  0  0  0  0  0  0  0  0  0  0  0
   46.4840   32.1010   45.0310 C   0  0  0  0  0  0  0  0  0  0  0  0
   46.1000   32.9200   46.1010 C   0  0  0  0  0  0  0  0  0  0  0  0
   45.8900   32.3950   47.3590 C   0  0  0  0  0  0  0  0  0  0  0  0
   45.5260   32.8650   48.5840 N   0  0  0  0  0  0  0  0  0  0  0  0
   45.5000   31.7860   49.4420 C   0  0  0  0  0  0  0  0  0  0  0  0
   45.8410   30.6970   48.7440 N   0  0  0  0  0  0  0  0  0  0  0  0
   46.0880   31.0220   47.4690 C   0  0  0  0  0  0  0  0  0  0  0  0
   46.4660   30.1840   46.4410 C   0  0  0  0  0  0  0  0  0  0  0  0
   46.9650   30.1410   44.3420 H   0  0  0  0  0  0  0  0  0  0  0  0
   45.9550   33.9860   45.9820 H   0  0  0  0  0  0  0  0  0  0  0  0
   45.3200   33.8780   48.7570 H   0  0  0  0  0  0  0  0  0  0  0  0
   45.2420   31.8690   50.4830 H   0  0  0  0  0  0  0  0  0  0  0  0
   46.5990   29.1280   46.6070 H   0  0  0  0  0  0  0  0  0  0  0  0
   49.4010   34.6860   42.0640 C   0  0  0  0  0  0  0  0  0  0  0  0
   49.1950   35.8190   41.2490 F   0  0  0  0  0  0  0  0  0  0  0  0
   49.9320   35.1500   43.2440 F   0  0  0  0  0  0  0  0  0  0  0  0
   50.2440   33.8150   41.4360 F   0  0  0  0  0  0  0  0  0  0  0  0
   47.2840   34.5610   40.1210 O   0  0  0  0  0  0  0  0  0  0  0  0
   47.3150   33.8600   38.9300 C   0  0  0  0  0  0  0  0  0  0  0  0
   48.4470   34.3580   38.2840 C   0  0  0  0  0  0  0  0  0  0  0  0
   48.4590   33.4110   36.7100 S   0  0  0  0  0  0  0  0  0  0  0  0
   46.8840   32.4790   37.2160 C   0  0  0  0  0  0  0  0  0  0  0  0
   46.7260   32.9540   38.2020 N   0  0  0  0  0  0  0  0  0  0  0  0
   49.3100   35.0490   38.3020 H   0  0  0  0  0  0  0  0  0  0  0  0
   46.2930   31.4940   36.3640 N   0  0  0  0  0  0  0  0  0  0  0  0
   45.2450   31.9310   35.4770 C   0  0  0  0  0  0  0  0  0  0  0  0
   44.3010   31.8920   36.0710 H   0  0  0  0  0  0  0  0  0  0  0  0
   45.1630   31.1930   34.1840 C   0  0  0  0  0  0  0  0  0  0  0  0
   44.0700   31.1840   33.8980 H   0  0  0  0  0  0  0  0  0  0  0  0
   45.5660   29.8110   34.2540 N   0  0  0  0  0  0  0  0  0  0  0  0
   45.7890   29.5120   33.2580 H   0  0  0  0  0  0  0  0  0  0  0  0
   46.7820   29.6090   34.9900 C   0  0  0  0  0  0  0  0  0  0  0  0
   46.7420   30.1020   36.3980 C   0  0  0  0  0  0  0  0  0  0  0  0
  1  6  1  0  0  0  0
  2  1  2  0  0  0  0
  2  3  1  0  0  0  0
  3  4  2  0  0  0  0
  4  5  1  0  0  0  0
  5  9  1  0  0  0  0
  6  5  2  0  0  0  0
  7  1  1  0  0  0  0
  8 16  1  0  0  0  0
  9  8  2  0  0  0  0
  9 10  1  0  0  0  0
 10 11  2  0  0  0  0
 11 15  1  0  0  0  0
 11 12  1  0  0  0  0
 12 19  1  0  0  0  0
 12 13  1  0  0  0  0
 13 20  1  0  0  0  0
 14 13  2  0  0  0  0
 15 14  1  0  0  0  0
 16 21  1  0  0  0  0
 16 15  2  0  0  0  0
 17  8  1  0  0  0  0
 18 10  1  0  0  0  0
 22  3  1  0  0  0  0
 22 24  1  0  0  0  0
 23 22  1  0  0  0  0
 25 22  1  0  0  0  0
 26  2  1  0  0  0  0
 27 26  1  0  0  0  0
 28 32  1  0  0  0  0
 28 27  2  0  0  0  0
 29 30  1  0  0  0  0
 29 28  1  0  0  0  0
 30 31  2  0  0  0  0
 31 27  1  0  0  0  0
 33 41  1  0  0  0  0
 33 30  1  0  0  0  0
 34 35  1  0  0  0  0
 34 33  1  0  0  0  0
 36 38  1  0  0  0  0
 36 34  1  0  0  0  0
 37 36  1  0  0  0  0
 38 40  1  0  0  0  0
 39 38  1  0  0  0  0
 40 41  1  0  0  0  0
M  END
>  <minimizedAffinity>
-6.6707015

>  <minimizedRMSD>
0.457206011

$$$$
