
 OpenBabel03252508453D

 45 47  0  0  0  0  0  0  0  0999 V2000
   42.7830   31.5520   42.6370 N   0  0  0  0  0  0  0  0  0  0  0  0
   43.0240   31.8300   43.6060 H   0  0  0  0  0  0  0  0  0  0  0  0
   43.1520   32.5410   41.6570 C   0  0  0  0  0  0  0  0  0  0  0  0
   43.6930   32.1280   40.7830 H   0  0  0  0  0  0  0  0  0  0  0  0
   42.2050   32.9840   41.2480 H   0  0  0  0  0  0  0  0  0  0  0  0
   43.6620   34.9840   41.8840 C   0  0  0  0  0  0  0  0  0  0  0  0
   43.9800   33.6620   42.1990 C   0  0  0  0  0  0  0  0  0  0  0  0
   45.0540   33.4240   43.0060 C   0  0  0  0  0  0  0  0  0  0  0  0
   45.8050   34.4540   43.4970 C   0  0  0  0  0  0  0  0  0  0  0  0
   45.5160   35.7620   43.2060 C   0  0  0  0  0  0  0  0  0  0  0  0
   44.4190   35.9770   42.3830 C   0  0  0  0  0  0  0  0  0  0  0  0
   45.3480   32.4110   43.2810 H   0  0  0  0  0  0  0  0  0  0  0  0
   46.6660   34.3080   44.1420 H   0  0  0  0  0  0  0  0  0  0  0  0
   46.0870   36.6090   43.5770 H   0  0  0  0  0  0  0  0  0  0  0  0
   44.1270   36.9840   42.1080 H   0  0  0  0  0  0  0  0  0  0  0  0
   40.1890   35.6680   40.5520 C   0  0  0  0  0  0  0  0  0  0  0  0
   41.2360   35.4980   41.4850 C   0  0  0  0  0  0  0  0  0  0  0  0
   42.5060   35.1830   41.0160 C   0  0  0  0  0  0  0  0  0  0  0  0
   42.6660   35.0580   39.6800 N   0  0  0  0  0  0  0  0  0  0  0  0
   41.6550   35.2240   38.7990 C   0  0  0  0  0  0  0  0  0  0  0  0
   40.4310   35.5270   39.2480 N   0  0  0  0  0  0  0  0  0  0  0  0
   39.2400   35.9100   41.0120 H   0  0  0  0  0  0  0  0  0  0  0  0
   41.1540   35.5880   42.5580 H   0  0  0  0  0  0  0  0  0  0  0  0
   41.7700   35.1270   37.7290 H   0  0  0  0  0  0  0  0  0  0  0  0
   41.1370   31.0940   42.5150 S   0  0  0  0  0  0  0  0  0  0  0  0
   40.2440   32.3030   42.4260 O   0  0  0  0  0  0  0  0  0  0  0  0
   39.7220   32.5430   41.6270 H   0  0  0  0  0  0  0  0  0  0  0  0
   40.7380   30.2410   43.6680 O   0  0  0  0  0  0  0  0  0  0  0  0
   40.2110   30.6360   44.4270 H   0  0  0  0  0  0  0  0  0  0  0  0
   40.9810   30.1920   41.1150 O   0  0  0  0  0  0  0  0  0  0  0  0
   40.9790   28.8470   41.4420 C   0  0  0  0  0  0  0  0  0  0  0  0
   40.5360   28.7360   42.4550 H   0  0  0  0  0  0  0  0  0  0  0  0
   41.9590   28.3700   41.4500 H   0  0  0  0  0  0  0  0  0  0  0  0
   40.0110   28.1250   40.4930 C   0  0  0  0  0  0  0  0  0  0  0  0
   40.1190   27.0460   40.7750 H   0  0  0  0  0  0  0  0  0  0  0  0
   40.3750   28.1940   39.4620 H   0  0  0  0  0  0  0  0  0  0  0  0
   38.6820   28.5150   40.5780 N   0  0  0  0  0  0  0  0  0  0  0  0
   37.9370   28.8740   39.4540 C   0  0  0  0  0  0  0  0  0  0  0  0
   38.0830   28.1640   38.6220 H   0  0  0  0  0  0  0  0  0  0  0  0
   36.4560   28.8210   39.8250 C   0  0  0  0  0  0  0  0  0  0  0  0
   36.1790   27.8000   40.1750 H   0  0  0  0  0  0  0  0  0  0  0  0
   36.1300   29.7660   40.8740 N   0  0  0  0  0  0  0  0  0  0  0  0
   35.3200   29.3680   41.4030 H   0  0  0  0  0  0  0  0  0  0  0  0
   37.2090   29.9180   41.8270 C   0  0  0  0  0  0  0  0  0  0  0  0
   38.0860   28.6590   41.8530 C   0  0  0  0  0  0  0  0  0  0  0  0
  1  2  1  0  0  0  0
  3  7  1  0  0  0  0
  3  1  1  0  0  0  0
  4  3  1  0  0  0  0
  5  3  1  0  0  0  0
  6  7  2  0  0  0  0
  6 11  1  0  0  0  0
  7  8  1  0  0  0  0
  8 12  1  0  0  0  0
  8  9  2  0  0  0  0
  9 13  1  0  0  0  0
 10  9  1  0  0  0  0
 10 14  1  0  0  0  0
 11 10  2  0  0  0  0
 15 11  1  0  0  0  0
 16 22  1  0  0  0  0
 16 17  1  0  0  0  0
 17 23  1  0  0  0  0
 18 17  2  0  0  0  0
 18  6  1  0  0  0  0
 19 18  1  0  0  0  0
 20 21  1  0  0  0  0
 20 19  2  0  0  0  0
 21 16  2  0  0  0  0
 24 20  1  0  0  0  0
 25  1  1  0  0  0  0
 25 28  1  0  0  0  0
 26 25  1  0  0  0  0
 27 26  1  0  0  0  0
 28 29  1  0  0  0  0
 30 31  1  0  0  0  0
 30 25  1  0  0  0  0
 31 33  1  0  0  0  0
 31 32  1  0  0  0  0
 34 37  1  0  0  0  0
 34 35  1  0  0  0  0
 34 31  1  0  0  0  0
 36 34  1  0  0  0  0
 37 45  1  0  0  0  0
 38 40  1  0  0  0  0
 38 37  1  0  0  0  0
 39 38  1  0  0  0  0
 40 41  1  0  0  0  0
 40 42  1  0  0  0  0
 42 43  1  0  0  0  0
 42 44  1  0  0  0  0
 44 45  1  0  0  0  0
M  END
>  <minimizedAffinity>
-5.4501195

>  <minimizedRMSD>
2.30871701

$$$$
