
 OpenBabel03252509343D

 43 45  0  0  1  0  0  0  0  0999 V2000
   46.8290   33.9420   42.2500 C   0  0  1  0  0  0  0  0  0  0  0  0
   46.0800   34.0290   40.9290 C   0  0  0  0  0  0  0  0  0  0  0  0
   47.1170   33.5080   39.9640 C   0  0  0  0  0  0  0  0  0  0  0  0
   48.4590   33.8480   40.5760 C   0  0  0  0  0  0  0  0  0  0  0  0
   48.1280   34.6010   41.8500 C   0  0  1  0  0  0  0  0  0  0  0  0
   46.9970   32.8800   42.4550 H   0  0  0  0  0  0  0  0  0  0  0  0
   45.2000   33.3420   41.0290 H   0  0  0  0  0  0  0  0  0  0  0  0
   45.7220   35.0300   40.7070 H   0  0  0  0  0  0  0  0  0  0  0  0
   46.9990   33.8740   38.9480 H   0  0  0  0  0  0  0  0  0  0  0  0
   47.0370   32.3900   39.9950 H   0  0  0  0  0  0  0  0  0  0  0  0
   48.9790   34.5660   39.8950 H   0  0  0  0  0  0  0  0  0  0  0  0
   49.1060   32.9780   40.7550 H   0  0  0  0  0  0  0  0  0  0  0  0
   48.9330   34.4410   42.5930 H   0  0  0  0  0  0  0  0  0  0  0  0
   47.9850   36.0830   41.6350 C   0  0  0  0  0  0  0  0  0  0  0  0
   47.2970   36.3370   40.8000 H   0  0  0  0  0  0  0  0  0  0  0  0
   48.9830   36.4580   41.3950 H   0  0  0  0  0  0  0  0  0  0  0  0
   47.5750   36.6630   42.8990 N   0  0  0  0  0  0  0  0  0  0  0  0
   48.2970   37.8760   43.1550 C   0  0  0  0  0  3  0  0  0  0  0  0
   49.2630   37.7200   43.6790 H   0  0  0  0  0  0  0  0  0  0  0  0
   47.5230   38.9180   43.9020 C   0  0  0  0  0  3  0  0  0  0  0  0
   47.5320   38.6780   45.0040 H   0  0  0  0  0  0  0  0  0  0  0  0
   46.1950   39.1080   43.4060 N   0  0  0  0  0  0  0  0  0  0  0  0
   46.0520   40.0070   42.9130 H   0  0  0  0  0  0  0  0  0  0  0  0
   45.6750   38.0490   42.5980 C   0  0  0  0  0  2  0  0  0  0  0  0
   46.1680   36.7210   43.1190 C   0  0  0  0  0  2  0  0  0  0  0  0
   46.1700   34.6100   43.2660 O   0  0  0  0  0  0  0  0  0  0  0  0
   44.6940   34.1680   45.3580 O   0  0  0  0  0  0  0  0  0  0  0  0
   45.6920   33.5070   44.4350 P   0  0  1  0  0  0  0  0  0  0  0  0
   45.0500   32.1220   43.7320 O   0  0  0  0  0  0  0  0  0  0  0  0
   44.0730   32.2220   43.6170 H   0  0  0  0  0  0  0  0  0  0  0  0
   47.0420   33.0040   45.3100 O   0  0  0  0  0  0  0  0  0  0  0  0
   47.1480   31.6500   45.2090 C   0  0  0  0  0  0  0  0  0  0  0  0
   48.1560   31.4320   44.7450 H   0  0  0  0  0  0  0  0  0  0  0  0
   46.4310   31.1170   44.5960 H   0  0  0  0  0  0  0  0  0  0  0  0
   47.2620   31.1730   48.9060 C   0  0  0  0  0  0  0  0  0  0  0  0
   47.2250   31.8160   47.6590 C   0  0  0  0  0  0  0  0  0  0  0  0
   47.1880   31.0010   46.5350 C   0  0  0  0  0  0  0  0  0  0  0  0
   47.1900   29.6500   46.7020 N   0  0  0  0  0  0  0  0  0  0  0  0
   47.2250   29.0560   47.9000 C   0  0  0  0  0  0  0  0  0  0  0  0
   47.2610   29.8280   48.9990 N   0  0  0  0  0  0  0  0  0  0  0  0
   47.2940   31.7690   49.8290 H   0  0  0  0  0  0  0  0  0  0  0  0
   47.2260   32.8950   47.6110 H   0  0  0  0  0  0  0  0  0  0  0  0
   47.2290   27.9830   48.0110 H   0  0  0  0  0  0  0  0  0  0  0  0
  1  6  1  1  0  0  0
  1 26  1  0  0  0  0
  2  7  1  0  0  0  0
  2  1  1  0  0  0  0
  3 10  1  0  0  0  0
  3  4  1  0  0  0  0
  3  2  1  0  0  0  0
  4 12  1  0  0  0  0
  4  5  1  0  0  0  0
  5  1  1  0  0  0  0
  5 13  1  1  0  0  0
  8  2  1  0  0  0  0
  9  3  1  0  0  0  0
 11  4  1  0  0  0  0
 14  5  1  0  0  0  0
 14 17  1  0  0  0  0
 15 14  1  0  0  0  0
 16 14  1  0  0  0  0
 17 25  1  0  0  0  0
 17 18  1  0  0  0  0
 18 19  1  0  0  0  0
 18 20  1  0  0  0  0
 20 21  1  0  0  0  0
 22 20  1  0  0  0  0
 23 22  1  0  0  0  0
 24 25  1  0  0  0  0
 24 22  1  0  0  0  0
 26 28  1  0  0  0  0
 28 31  1  0  0  0  0
 28 27  2  1  0  0  0
 29 28  1  0  0  0  0
 30 29  1  0  0  0  0
 32 31  1  0  0  0  0
 32 37  1  0  0  0  0
 33 32  1  0  0  0  0
 34 32  1  0  0  0  0
 35 40  1  0  0  0  0
 35 41  1  0  0  0  0
 36 35  2  0  0  0  0
 37 38  2  0  0  0  0
 37 36  1  0  0  0  0
 38 39  1  0  0  0  0
 39 43  1  0  0  0  0
 39 40  2  0  0  0  0
 42 36  1  0  0  0  0
M  END
>  <minimizedAffinity>
5.3952651

>  <minimizedRMSD>
1.28685915

$$$$
