
 OpenBabel03252509253D

 30 32  0  0  1  0  0  0  0  0999 V2000
   46.6200   35.0890   41.9650 C   0  0  1  0  0  0  0  0  0  0  0  0
   48.1280   35.4460   41.9930 C   0  0  0  0  0  0  0  0  0  0  0  0
   47.5150   34.1560   41.4090 C   0  0  2  0  0  0  0  0  0  0  0  0
   46.0720   35.8280   41.3730 H   0  0  0  0  0  0  0  0  0  0  0  0
   48.6680   35.4130   42.9400 H   0  0  0  0  0  0  0  0  0  0  0  0
   48.5230   36.1130   41.2180 H   0  0  0  0  0  0  0  0  0  0  0  0
   47.9180   33.2590   41.9550 H   0  0  0  0  0  0  0  0  0  0  0  0
   44.6470   35.4110   45.1340 C   0  0  0  0  0  0  0  0  0  0  0  0
   45.1390   35.7140   43.8360 C   0  0  0  0  0  0  0  0  0  0  0  0
   46.0900   34.8690   43.3540 C   0  0  0  0  0  0  0  0  0  0  0  0
   46.5350   33.8000   44.0890 N   0  0  0  0  0  0  0  0  0  0  0  0
   46.0420   33.5480   45.3190 C   0  0  0  0  0  0  0  0  0  0  0  0
   45.0910   34.3630   45.8380 N   0  0  0  0  0  0  0  0  0  0  0  0
   43.8840   36.0520   45.5700 H   0  0  0  0  0  0  0  0  0  0  0  0
   46.5060   32.6690   45.7470 H   0  0  0  0  0  0  0  0  0  0  0  0
   44.6840   36.8450   43.1090 N   0  0  0  0  0  0  0  0  0  0  0  0
   44.0440   36.9170   42.2930 H   0  0  0  0  0  0  0  0  0  0  0  0
   45.1790   37.6200   43.6290 H   0  0  0  0  0  0  0  0  0  0  0  0
   47.5810   33.9390   39.9120 C   0  0  0  0  0  0  0  0  0  0  0  0
   48.5620   33.5900   39.5750 H   0  0  0  0  0  0  0  0  0  0  0  0
   47.4660   34.9660   39.4540 H   0  0  0  0  0  0  0  0  0  0  0  0
   46.4490   33.1990   39.4660 N   0  0  0  0  0  0  0  0  0  0  0  0
   46.3350   31.8690   39.9900 C   0  0  0  0  0  3  0  0  0  0  0  0
   45.3730   31.4640   39.5560 H   0  0  0  0  0  0  0  0  0  0  0  0
   47.4090   30.9300   39.5340 C   0  0  0  0  0  3  0  0  0  0  0  0
   47.0000   29.9480   39.1730 H   0  0  0  0  0  0  0  0  0  0  0  0
   48.2900   31.4520   38.5380 N   0  0  0  0  0  0  0  0  0  0  0  0
   48.7300   30.6320   38.0410 H   0  0  0  0  0  0  0  0  0  0  0  0
   47.6860   32.3040   37.5590 C   0  0  0  0  0  2  0  0  0  0  0  0
   46.4850   33.0630   38.0150 C   0  0  0  0  0  2  0  0  0  0  0  0
  1  4  1  6  0  0  0
  1  2  1  0  0  0  0
  1 10  1  0  0  0  0
  2  5  1  0  0  0  0
  3  7  1  1  0  0  0
  3  1  1  0  0  0  0
  3  2  1  0  0  0  0
  6  2  1  0  0  0  0
  8 14  1  0  0  0  0
  8 13  1  0  0  0  0
  9  8  2  0  0  0  0
 10  9  1  0  0  0  0
 10 11  2  0  0  0  0
 11 12  1  0  0  0  0
 12 15  1  0  0  0  0
 12 13  2  0  0  0  0
 16 18  1  0  0  0  0
 16  9  1  0  0  0  0
 17 16  1  0  0  0  0
 19  3  1  0  0  0  0
 20 19  1  0  0  0  0
 21 19  1  0  0  0  0
 22 19  1  0  0  0  0
 22 23  1  0  0  0  0
 24 23  1  0  0  0  0
 25 23  1  0  0  0  0
 26 25  1  0  0  0  0
 27 25  1  0  0  0  0
 28 27  1  0  0  0  0
 29 30  1  0  0  0  0
 29 27  1  0  0  0  0
 30 22  1  0  0  0  0
M  END
>  <minimizedAffinity>
-4.46798897

>  <minimizedRMSD>
0.998611152

$$$$
