
 OpenBabel03242520023D

 25 27  0  0  1  0  0  0  0  0999 V2000
   46.0400   33.0330   45.1150 C   0  0  0  0  0  0  0  0  0  0  0  0
   46.8710   31.9650   44.8390 C   0  0  0  0  0  0  0  0  0  0  0  0
   47.3650   31.5040   46.0180 C   0  0  0  0  0  0  0  0  0  0  0  0
   46.8420   32.2770   46.9960 N   0  0  0  0  0  0  0  0  0  0  0  0
   46.0460   33.1940   46.4360 N   0  0  0  0  0  0  0  0  0  0  0  0
   47.0490   31.6150   43.8180 H   0  0  0  0  0  0  0  0  0  0  0  0
   48.0440   30.6780   46.1560 H   0  0  0  0  0  0  0  0  0  0  0  0
   44.4520   35.8680   43.3840 C   0  0  0  0  0  0  0  0  0  0  0  0
   43.8950   35.2610   42.2410 C   0  0  0  0  0  0  0  0  0  0  0  0
   44.0790   33.8770   42.0870 C   0  0  0  0  0  0  0  0  0  0  0  0
   44.7770   33.2160   43.0440 N   0  0  0  0  0  0  0  0  0  0  0  0
   45.3010   33.8270   44.1320 C   0  0  0  0  0  0  0  0  0  0  0  0
   45.1390   35.1530   44.3050 N   0  0  0  0  0  0  0  0  0  0  0  0
   44.3240   36.9350   43.5240 H   0  0  0  0  0  0  0  0  0  0  0  0
   43.3510   35.8480   41.5200 H   0  0  0  0  0  0  0  0  0  0  0  0
   43.6670   33.3660   41.2210 H   0  0  0  0  0  0  0  0  0  0  0  0
   46.1090   33.0740   50.0170 H   0  0  0  0  0  0  0  0  0  0  0  0
   45.9040   32.5110   49.1850 N   0  0  0  0  0  0  0  0  0  0  0  0
   47.0470   32.2040   48.4170 C   0  0  1  0  0  0  0  0  0  0  0  0
   47.4800   30.7820   48.7140 C   0  0  0  0  0  0  0  0  0  0  0  0
   47.7590   30.6010   49.7550 H   0  0  0  0  0  0  0  0  0  0  0  0
   46.3910   29.9420   48.2310 N   0  0  0  0  0  0  0  0  0  0  0  0
   46.6920   28.9380   48.3520 H   0  0  0  0  0  0  0  0  0  0  0  0
   45.1880   30.1350   48.9990 C   0  0  0  0  0  0  0  0  0  0  0  0
   44.8820   31.5540   49.3220 C   0  0  0  0  0  0  0  0  0  0  0  0
  1  5  2  0  0  0  0
  2  1  1  0  0  0  0
  2  3  2  0  0  0  0
  3  7  1  0  0  0  0
  3  4  1  0  0  0  0
  5  4  1  0  0  0  0
  6  2  1  0  0  0  0
  8 14  1  0  0  0  0
  8 13  1  0  0  0  0
  9  8  2  0  0  0  0
 10  9  1  0  0  0  0
 10 11  2  0  0  0  0
 11 12  1  0  0  0  0
 12 13  2  0  0  0  0
 12  1  1  0  0  0  0
 15  9  1  0  0  0  0
 16 10  1  0  0  0  0
 18 25  1  0  0  0  0
 18 17  1  0  0  0  0
 19  4  1  6  0  0  0
 19 20  1  0  0  0  0
 19 18  1  0  0  0  0
 20 21  1  0  0  0  0
 22 23  1  0  0  0  0
 22 20  1  0  0  0  0
 22 24  1  0  0  0  0
 24 25  1  0  0  0  0
M  END
>  <minimizedAffinity>
-4.90712547

>  <minimizedRMSD>
2.08864594

$$$$
