
 OpenBabel03252509033D

 48 50  0  0  1  0  0  0  0  0999 V2000
   47.1380   33.9830   43.1100 N   0  0  0  0  0  0  0  0  0  0  0  0
   46.7820   35.2630   42.6210 C   0  0  0  0  0  0  0  0  0  0  0  0
   45.3310   35.6450   42.8150 C   0  0  0  0  0  0  0  0  0  0  0  0
   44.7200   35.0920   44.0740 C   0  0  0  0  0  0  0  0  0  0  0  0
   45.7380   34.3450   44.9120 C   0  0  0  0  0  0  0  0  0  0  0  0
   46.2860   33.2610   43.9240 C   0  0  2  0  0  0  0  0  0  0  0  0
   47.3790   36.0150   43.2130 H   0  0  0  0  0  0  0  0  0  0  0  0
   47.0290   35.4750   41.5760 H   0  0  0  0  0  0  0  0  0  0  0  0
   44.7680   35.2830   41.9220 H   0  0  0  0  0  0  0  0  0  0  0  0
   45.2810   36.7560   42.7620 H   0  0  0  0  0  0  0  0  0  0  0  0
   43.9210   34.3610   43.8180 H   0  0  0  0  0  0  0  0  0  0  0  0
   44.2950   35.9310   44.6950 H   0  0  0  0  0  0  0  0  0  0  0  0
   45.2390   33.8660   45.7550 H   0  0  0  0  0  0  0  0  0  0  0  0
   46.5370   35.0650   45.1710 H   0  0  0  0  0  0  0  0  0  0  0  0
   45.3690   32.8350   43.4750 H   0  0  0  0  0  0  0  0  0  0  0  0
   48.0610   33.2620   42.2630 C   0  0  0  0  0  0  0  0  0  0  0  0
   48.6130   32.5460   42.8950 H   0  0  0  0  0  0  0  0  0  0  0  0
   48.7870   33.9900   41.8600 H   0  0  0  0  0  0  0  0  0  0  0  0
   47.2960   32.5720   41.1880 C   0  0  0  0  0  0  0  0  0  0  0  0
   47.2120   31.4810   41.3120 H   0  0  0  0  0  0  0  0  0  0  0  0
   46.2390   32.9620   41.1170 H   0  0  0  0  0  0  0  0  0  0  0  0
   49.3280   32.2600   38.0420 C   0  0  0  0  0  0  0  0  0  0  0  0
   48.7400   31.9850   39.2900 C   0  0  0  0  0  0  0  0  0  0  0  0
   47.9020   32.8890   39.8700 C   0  0  0  0  0  0  0  0  0  0  0  0
   47.6730   34.0250   39.2060 N   0  0  0  0  0  0  0  0  0  0  0  0
   48.2220   34.3060   38.0200 C   0  0  0  0  0  0  0  0  0  0  0  0
   49.0560   33.4300   37.4190 N   0  0  0  0  0  0  0  0  0  0  0  0
   49.9800   31.4680   37.6730 H   0  0  0  0  0  0  0  0  0  0  0  0
   48.9420   31.0620   39.8010 H   0  0  0  0  0  0  0  0  0  0  0  0
   48.0060   35.2460   37.5150 H   0  0  0  0  0  0  0  0  0  0  0  0
   46.9670   32.4140   44.7760 O   0  0  0  0  0  0  0  0  0  0  0  0
   45.1640   30.6470   43.9420 O   0  0  0  0  0  0  0  0  0  0  0  0
   46.1330   30.9740   45.0730 P   0  0  2  0  0  0  0  0  0  0  0  0
   45.1780   31.2590   46.4510 O   0  0  0  0  0  0  0  0  0  0  0  0
   45.7390   31.6070   47.1700 H   0  0  0  0  0  0  0  0  0  0  0  0
   47.1480   29.6900   45.4030 O   0  0  0  0  0  0  0  0  0  0  0  0
   46.4630   28.5100   45.2780 C   0  0  0  0  0  0  0  0  0  0  0  0
   47.2420   27.6940   45.3070 H   0  0  0  0  0  0  0  0  0  0  0  0
   45.9940   28.4680   44.2920 H   0  0  0  0  0  0  0  0  0  0  0  0
   45.5040   28.2130   46.2940 N   0  0  0  0  0  0  0  0  0  0  0  0
   45.9810   27.3400   47.3200 C   0  0  0  0  0  3  0  0  0  0  0  0
   46.3530   26.3660   46.9260 H   0  0  0  0  0  0  0  0  0  0  0  0
   44.8090   27.0410   48.2510 C   0  0  0  0  0  3  0  0  0  0  0  0
   44.4260   27.9590   48.7110 H   0  0  0  0  0  0  0  0  0  0  0  0
   43.7520   26.3320   47.5960 N   0  0  0  0  0  0  0  0  0  0  0  0
   42.8400   26.8340   47.6820 H   0  0  0  0  0  0  0  0  0  0  0  0
   44.0610   26.2160   46.1990 C   0  0  0  0  0  2  0  0  0  0  0  0
   44.3720   27.5760   45.6480 C   0  0  0  0  0  2  0  0  0  0  0  0
  1  6  1  0  0  0  0
  2  3  1  0  0  0  0
  2  1  1  0  0  0  0
  2  7  1  0  0  0  0
  3  4  1  0  0  0  0
  4 12  1  0  0  0  0
  4  5  1  0  0  0  0
  5 14  1  0  0  0  0
  5 13  1  0  0  0  0
  6 15  1  6  0  0  0
  6 31  1  0  0  0  0
  6  5  1  0  0  0  0
  8  2  1  0  0  0  0
  9  3  1  0  0  0  0
 10  3  1  0  0  0  0
 11  4  1  0  0  0  0
 16 17  1  0  0  0  0
 16  1  1  0  0  0  0
 18 16  1  0  0  0  0
 19 20  1  0  0  0  0
 19 16  1  0  0  0  0
 21 19  1  0  0  0  0
 22 23  1  0  0  0  0
 23 29  1  0  0  0  0
 23 24  2  0  0  0  0
 24 19  1  0  0  0  0
 25 24  1  0  0  0  0
 26 25  2  0  0  0  0
 27 26  1  0  0  0  0
 27 22  2  0  0  0  0
 28 22  1  0  0  0  0
 30 26  1  0  0  0  0
 31 33  1  0  0  0  0
 33 32  2  6  0  0  0
 33 36  1  0  0  0  0
 33 34  1  0  0  0  0
 34 35  1  0  0  0  0
 37 38  1  0  0  0  0
 37 36  1  0  0  0  0
 37 40  1  0  0  0  0
 39 37  1  0  0  0  0
 40 41  1  0  0  0  0
 41 43  1  0  0  0  0
 42 41  1  0  0  0  0
 43 44  1  0  0  0  0
 45 46  1  0  0  0  0
 45 43  1  0  0  0  0
 47 45  1  0  0  0  0
 48 47  1  0  0  0  0
 48 40  1  0  0  0  0
M  END
>  <minimizedAffinity>
-4.00279427

>  <minimizedRMSD>
1.28363872

$$$$
