
 OpenBabel03252505243D

 43 46  0  0  1  0  0  0  0  0999 V2000
   46.8250   33.4710   44.5870 F   0  0  0  0  0  0  0  0  0  0  0  0
   47.4630   32.2900   44.3780 C   0  0  0  0  0  0  0  0  0  0  0  0
   48.2690   32.1810   43.2730 C   0  0  0  0  0  0  0  0  0  0  0  0
   48.9160   30.9850   43.0610 C   0  0  0  0  0  0  0  0  0  0  0  0
   48.7340   29.9470   43.9550 C   0  0  0  0  0  0  0  0  0  0  0  0
   47.9270   30.0580   45.0620 C   0  0  0  0  0  0  0  0  0  0  0  0
   47.2780   31.2770   45.2630 C   0  0  0  0  0  0  0  0  0  0  0  0
   49.5670   30.8410   42.2010 H   0  0  0  0  0  0  0  0  0  0  0  0
   49.2590   29.0170   43.7590 H   0  0  0  0  0  0  0  0  0  0  0  0
   47.8120   29.2210   45.7380 H   0  0  0  0  0  0  0  0  0  0  0  0
   46.4600   31.3380   46.4150 N   0  0  0  0  0  0  0  0  0  0  0  0
   45.4210   30.4640   46.8890 C   0  0  0  0  0  0  0  0  0  0  0  0
   45.8130   30.2370   48.3600 C   0  0  0  0  0  0  0  0  0  0  0  0
   46.6520   31.4410   48.6950 C   0  0  0  0  0  0  0  0  0  0  0  0
   46.4260   32.3290   47.4950 C   0  0  2  0  0  0  0  0  0  0  0  0
   45.5990   29.4750   46.3850 H   0  0  0  0  0  0  0  0  0  0  0  0
   44.4010   30.8040   46.7620 H   0  0  0  0  0  0  0  0  0  0  0  0
   44.9170   30.1380   48.9850 H   0  0  0  0  0  0  0  0  0  0  0  0
   46.4700   29.3400   48.4620 H   0  0  0  0  0  0  0  0  0  0  0  0
   46.3270   31.9470   49.6230 H   0  0  0  0  0  0  0  0  0  0  0  0
   47.7290   31.2000   48.7700 H   0  0  0  0  0  0  0  0  0  0  0  0
   47.3470   32.9660   47.3770 H   0  0  0  0  0  0  0  0  0  0  0  0
   45.1830   33.1350   47.5500 C   0  0  0  0  0  0  0  0  0  0  0  0
   44.4120   32.8580   46.8160 H   0  0  0  0  0  0  0  0  0  0  0  0
   45.4430   34.2000   47.3570 H   0  0  0  0  0  0  0  0  0  0  0  0
   44.8060   33.1090   48.6100 H   0  0  0  0  0  0  0  0  0  0  0  0
   49.1320   35.4870   41.9470 C   0  0  0  0  0  0  0  0  0  0  0  0
   48.7180   35.4130   40.5940 C   0  0  0  0  0  0  0  0  0  0  0  0
   48.1570   34.2050   40.2140 C   0  0  0  0  0  0  0  0  0  0  0  0
   48.0380   33.2090   41.1080 N   0  0  0  0  0  0  0  0  0  0  0  0
   48.4300   33.3010   42.3580 C   0  0  0  0  0  0  0  0  0  0  0  0
   48.9780   34.4400   42.7860 N   0  0  0  0  0  0  0  0  0  0  0  0
   49.5760   36.4280   42.2670 H   0  0  0  0  0  0  0  0  0  0  0  0
   48.8180   36.2060   39.8980 H   0  0  0  0  0  0  0  0  0  0  0  0
   47.6860   33.9430   38.9060 N   0  0  0  0  0  0  0  0  0  0  0  0
   46.5460   33.1580   38.4920 C   0  0  0  0  0  0  0  0  0  0  0  0
   45.9790   32.8720   39.3990 H   0  0  0  0  0  0  0  0  0  0  0  0
   47.0780   31.9290   37.8320 C   0  0  0  0  0  0  0  0  0  0  0  0
   46.2210   31.4170   37.3340 H   0  0  0  0  0  0  0  0  0  0  0  0
   48.1120   32.1180   36.8920 N   0  0  0  0  0  0  0  0  0  0  0  0
   48.7960   31.3390   36.9100 H   0  0  0  0  0  0  0  0  0  0  0  0
   48.6890   33.3960   36.7350 C   0  0  0  0  0  0  0  0  0  0  0  0
   48.3220   34.4570   37.7200 C   0  0  0  0  0  0  0  0  0  0  0  0
  2  1  1  0  0  0  0
  2  7  1  0  0  0  0
  3  2  2  0  0  0  0
  4  3  1  0  0  0  0
  4  5  2  0  0  0  0
  5  6  1  0  0  0  0
  6  7  2  0  0  0  0
  6 10  1  0  0  0  0
  7 11  1  0  0  0  0
  8  4  1  0  0  0  0
  9  5  1  0  0  0  0
 11 12  1  0  0  0  0
 11 15  1  0  0  0  0
 12 13  1  0  0  0  0
 13 19  1  0  0  0  0
 13 14  1  0  0  0  0
 13 18  1  0  0  0  0
 14 21  1  0  0  0  0
 14 20  1  0  0  0  0
 15 22  1  6  0  0  0
 15 23  1  0  0  0  0
 15 14  1  0  0  0  0
 16 12  1  0  0  0  0
 17 12  1  0  0  0  0
 23 26  1  0  0  0  0
 24 23  1  0  0  0  0
 25 23  1  0  0  0  0
 27 33  1  0  0  0  0
 27 32  1  0  0  0  0
 28 27  2  0  0  0  0
 29 28  1  0  0  0  0
 29 30  2  0  0  0  0
 30 31  1  0  0  0  0
 31 32  2  0  0  0  0
 31  3  1  0  0  0  0
 34 28  1  0  0  0  0
 35 29  1  0  0  0  0
 36 35  1  0  0  0  0
 36 37  1  0  0  0  0
 38 36  1  0  0  0  0
 39 38  1  0  0  0  0
 40 41  1  0  0  0  0
 40 38  1  0  0  0  0
 42 40  1  0  0  0  0
 42 43  1  0  0  0  0
 43 35  1  0  0  0  0
M  END
>  <minimizedAffinity>
-5.77319002

>  <minimizedRMSD>
1.30809236

$$$$
