
 OpenBabel03242521293D

 35 37  0  0  1  0  0  0  0  0999 V2000
   37.5850   29.6540   41.8310 C   0  0  1  0  0  0  0  0  0  0  0  0
   37.9380   28.4300   41.0210 C   0  0  2  0  0  0  0  0  0  0  0  0
   36.8440   27.9320   40.3390 O   0  0  0  0  0  0  0  0  0  0  0  0
   36.5630   28.8380   39.3330 C   0  0  0  0  0  0  0  0  0  0  0  0
   35.9510   30.0670   39.9640 C   0  0  2  0  0  0  0  0  0  0  0  0
   36.7200   30.6310   41.1130 C   0  0  2  0  0  0  0  0  0  0  0  0
   38.5670   30.1600   42.0720 H   0  0  0  0  0  0  0  0  0  0  0  0
   38.7470   28.7750   40.3260 H   0  0  0  0  0  0  0  0  0  0  0  0
   37.4640   29.1500   38.7890 H   0  0  0  0  0  0  0  0  0  0  0  0
   35.8250   28.4540   38.6060 H   0  0  0  0  0  0  0  0  0  0  0  0
   35.7920   30.7700   39.1350 H   0  0  0  0  0  0  0  0  0  0  0  0
   35.9610   31.0010   41.8560 H   0  0  0  0  0  0  0  0  0  0  0  0
   38.6660   25.0440   42.5460 C   0  0  0  0  0  0  0  0  0  0  0  0
   38.1120   26.0080   41.6920 C   0  0  0  0  0  0  0  0  0  0  0  0
   38.4970   27.3660   41.8860 C   0  0  0  0  0  0  0  0  0  0  0  0
   39.3680   27.6710   42.8720 N   0  0  0  0  0  0  0  0  0  0  0  0
   39.8810   26.6890   43.6800 C   0  0  0  0  0  0  0  0  0  0  0  0
   39.5270   25.3920   43.5100 N   0  0  0  0  0  0  0  0  0  0  0  0
   38.3910   24.0060   42.4190 H   0  0  0  0  0  0  0  0  0  0  0  0
   37.4130   25.7620   40.9010 H   0  0  0  0  0  0  0  0  0  0  0  0
   40.5740   26.9230   44.4670 H   0  0  0  0  0  0  0  0  0  0  0  0
   37.0850   29.3080   43.0930 O   0  0  0  0  0  0  0  0  0  0  0  0
   37.4230   29.8730   43.8080 H   0  0  0  0  0  0  0  0  0  0  0  0
   34.6540   29.6900   40.3500 O   0  0  0  0  0  0  0  0  0  0  0  0
   33.9700   30.3570   40.1040 H   0  0  0  0  0  0  0  0  0  0  0  0
   37.4380   31.7870   40.7870 O   0  0  0  0  0  0  0  0  0  0  0  0
   38.7730   33.0380   42.4250 H   0  0  0  0  0  0  0  0  0  0  0  0
   39.2790   32.8770   41.5300 N   0  0  0  0  0  0  0  0  0  0  0  0
   38.7900   31.6960   40.8160 C   0  0  2  0  0  3  0  0  0  0  0  0
   39.2660   31.8740   39.3710 C   0  0  0  0  0  3  0  0  0  0  0  0
   38.4710   32.3280   38.7270 H   0  0  0  0  0  0  0  0  0  0  0  0
   40.3860   32.7930   39.3070 N   0  0  0  0  0  0  0  0  0  0  0  0
   41.1710   32.4950   39.9360 H   0  0  0  0  0  0  0  0  0  0  0  0
   39.9730   34.1450   39.6330 C   0  0  0  0  0  2  0  0  0  0  0  0
   38.8980   34.0180   40.6920 C   0  0  0  0  0  2  0  0  0  0  0  0
  1  7  1  1  0  0  0
  1 22  1  0  0  0  0
  2  8  1  6  0  0  0
  2  1  1  0  0  0  0
  2 15  1  0  0  0  0
  3  2  1  0  0  0  0
  4  5  1  0  0  0  0
  4  3  1  0  0  0  0
  5 11  1  6  0  0  0
  5 24  1  0  0  0  0
  5  6  1  0  0  0  0
  6  1  1  0  0  0  0
  6 12  1  1  0  0  0
  9  4  1  0  0  0  0
 10  4  1  0  0  0  0
 13 18  1  0  0  0  0
 14 15  1  0  0  0  0
 14 13  2  0  0  0  0
 15 16  2  0  0  0  0
 16 17  1  0  0  0  0
 17 21  1  0  0  0  0
 18 17  2  0  0  0  0
 19 13  1  0  0  0  0
 20 14  1  0  0  0  0
 22 23  1  0  0  0  0
 25 24  1  0  0  0  0
 26  6  1  0  0  0  0
 28 27  1  0  0  0  0
 29 26  1  6  0  0  0
 29 28  1  0  0  0  0
 30 29  1  0  0  0  0
 31 30  1  0  0  0  0
 32 30  1  0  0  0  0
 32 34  1  0  0  0  0
 32 33  1  0  0  0  0
 34 35  1  0  0  0  0
 35 28  1  0  0  0  0
M  END
>  <minimizedAffinity>
-5.75345659

$$$$

 OpenBabel03242521293D

 35 37  0  0  1  0  0  0  0  0999 V2000
   39.1530   31.8680   38.2780 C   0  0  1  0  0  0  0  0  0  0  0  0
   40.1310   32.5450   39.2070 C   0  0  2  0  0  0  0  0  0  0  0  0
   39.6560   33.7640   39.6530 O   0  0  0  0  0  0  0  0  0  0  0  0
   38.6190   33.4860   40.5230 C   0  0  0  0  0  0  0  0  0  0  0  0
   37.4350   33.0160   39.7100 C   0  0  2  0  0  0  0  0  0  0  0  0
   37.7380   31.9280   38.7350 C   0  0  2  0  0  0  0  0  0  0  0  0
   39.4670   30.7810   38.2360 H   0  0  0  0  0  0  0  0  0  0  0  0
   40.2750   31.8170   40.0460 H   0  0  0  0  0  0  0  0  0  0  0  0
   38.8750   32.6930   41.2380 H   0  0  0  0  0  0  0  0  0  0  0  0
   38.2830   34.3760   41.0860 H   0  0  0  0  0  0  0  0  0  0  0  0
   36.6590   32.7640   40.4460 H   0  0  0  0  0  0  0  0  0  0  0  0
   37.1100   32.1300   37.8230 H   0  0  0  0  0  0  0  0  0  0  0  0
   43.3000   34.1610   37.9140 C   0  0  0  0  0  0  0  0  0  0  0  0
   42.0660   34.0260   38.5670 C   0  0  0  0  0  0  0  0  0  0  0  0
   41.4400   32.7470   38.5430 C   0  0  0  0  0  0  0  0  0  0  0  0
   42.0480   31.7250   37.9030 N   0  0  0  0  0  0  0  0  0  0  0  0
   43.2560   31.9110   37.2800 C   0  0  0  0  0  0  0  0  0  0  0  0
   43.8660   33.1210   37.2920 N   0  0  0  0  0  0  0  0  0  0  0  0
   43.7960   35.1210   37.9170 H   0  0  0  0  0  0  0  0  0  0  0  0
   41.5790   34.8470   39.0800 H   0  0  0  0  0  0  0  0  0  0  0  0
   43.7460   31.1040   36.7680 H   0  0  0  0  0  0  0  0  0  0  0  0
   39.3180   32.2990   36.9550 O   0  0  0  0  0  0  0  0  0  0  0  0
   39.2570   31.5790   36.3060 H   0  0  0  0  0  0  0  0  0  0  0  0
   36.9390   34.1610   39.0650 O   0  0  0  0  0  0  0  0  0  0  0  0
   35.9560   34.2380   39.1180 H   0  0  0  0  0  0  0  0  0  0  0  0
   37.2950   30.6670   39.1530 O   0  0  0  0  0  0  0  0  0  0  0  0
   38.9240   30.1360   40.9120 H   0  0  0  0  0  0  0  0  0  0  0  0
   37.9690   29.7790   41.1240 N   0  0  0  0  0  0  0  0  0  0  0  0
   36.9220   30.5500   40.4510 C   0  0  2  0  0  3  0  0  0  0  0  0
   35.6860   29.6460   40.4650 C   0  0  0  0  0  3  0  0  0  0  0  0
   35.5820   29.0740   39.5090 H   0  0  0  0  0  0  0  0  0  0  0  0
   35.7930   28.6410   41.5060 N   0  0  0  0  0  0  0  0  0  0  0  0
   35.9650   29.0730   42.4460 H   0  0  0  0  0  0  0  0  0  0  0  0
   36.8370   27.6810   41.2000 C   0  0  0  0  0  2  0  0  0  0  0  0
   37.9340   28.4540   40.4970 C   0  0  0  0  0  2  0  0  0  0  0  0
  1  7  1  1  0  0  0
  1  6  1  0  0  0  0
  1  2  1  0  0  0  0
  2  3  1  0  0  0  0
  2  8  1  1  0  0  0
  3  4  1  0  0  0  0
  4 10  1  0  0  0  0
  4  9  1  0  0  0  0
  5 11  1  1  0  0  0
  5  4  1  0  0  0  0
  6 12  1  6  0  0  0
  6 26  1  0  0  0  0
  6  5  1  0  0  0  0
 13 19  1  0  0  0  0
 13 14  1  0  0  0  0
 14 20  1  0  0  0  0
 15 14  2  0  0  0  0
 15  2  1  0  0  0  0
 16 15  1  0  0  0  0
 17 18  1  0  0  0  0
 17 16  2  0  0  0  0
 18 13  2  0  0  0  0
 21 17  1  0  0  0  0
 22  1  1  0  0  0  0
 23 22  1  0  0  0  0
 24 25  1  0  0  0  0
 24  5  1  0  0  0  0
 27 28  1  0  0  0  0
 29 26  1  6  0  0  0
 29 30  1  0  0  0  0
 29 28  1  0  0  0  0
 30 32  1  0  0  0  0
 31 30  1  0  0  0  0
 32 33  1  0  0  0  0
 34 32  1  0  0  0  0
 35 28  1  0  0  0  0
 35 34  1  0  0  0  0
M  END
>  <minimizedAffinity>
-5.6141839

$$$$

 OpenBabel03242521293D

 35 37  0  0  1  0  0  0  0  0999 V2000
   38.3680   29.3420   40.8530 C   0  0  1  0  0  0  0  0  0  0  0  0
   37.5350   28.1750   40.3800 C   0  0  2  0  0  0  0  0  0  0  0  0
   36.1910   28.3620   40.6470 O   0  0  0  0  0  0  0  0  0  0  0  0
   35.7560   29.3580   39.7920 C   0  0  0  0  0  0  0  0  0  0  0  0
   36.3130   30.6750   40.2800 C   0  0  2  0  0  0  0  0  0  0  0  0
   37.7840   30.6750   40.5380 C   0  0  2  0  0  0  0  0  0  0  0  0
   39.3590   29.2530   40.3140 H   0  0  0  0  0  0  0  0  0  0  0  0
   37.7390   28.1090   39.2800 H   0  0  0  0  0  0  0  0  0  0  0  0
   36.1020   29.2040   38.7620 H   0  0  0  0  0  0  0  0  0  0  0  0
   34.6560   29.4630   39.7850 H   0  0  0  0  0  0  0  0  0  0  0  0
   35.9810   31.4200   39.5450 H   0  0  0  0  0  0  0  0  0  0  0  0
   37.9510   31.3240   41.4420 H   0  0  0  0  0  0  0  0  0  0  0  0
   37.5160   24.8280   42.1450 C   0  0  0  0  0  0  0  0  0  0  0  0
   37.0320   26.0040   41.5520 C   0  0  0  0  0  0  0  0  0  0  0  0
   37.9850   26.9130   41.0100 C   0  0  0  0  0  0  0  0  0  0  0  0
   39.2990   26.6150   41.0850 N   0  0  0  0  0  0  0  0  0  0  0  0
   39.7200   25.4510   41.6750 C   0  0  0  0  0  0  0  0  0  0  0  0
   38.8290   24.5740   42.1960 N   0  0  0  0  0  0  0  0  0  0  0  0
   36.8140   24.1210   42.5630 H   0  0  0  0  0  0  0  0  0  0  0  0
   35.9760   26.2410   41.4930 H   0  0  0  0  0  0  0  0  0  0  0  0
   40.7640   25.2070   41.7390 H   0  0  0  0  0  0  0  0  0  0  0  0
   38.7240   29.2060   42.2010 O   0  0  0  0  0  0  0  0  0  0  0  0
   39.6430   29.4620   42.3830 H   0  0  0  0  0  0  0  0  0  0  0  0
   35.5880   30.9870   41.4410 O   0  0  0  0  0  0  0  0  0  0  0  0
   35.2890   31.9280   41.4670 H   0  0  0  0  0  0  0  0  0  0  0  0
   38.5230   31.3210   39.5400 O   0  0  0  0  0  0  0  0  0  0  0  0
   39.6230   32.6280   37.7760 H   0  0  0  0  0  0  0  0  0  0  0  0
   39.6160   33.1160   38.6960 N   0  0  0  0  0  0  0  0  0  0  0  0
   38.5140   32.6760   39.5530 C   0  0  2  0  0  3  0  0  0  0  0  0
   38.9150   33.0970   40.9700 C   0  0  0  0  0  3  0  0  0  0  0  0
   39.4010   32.2570   41.5280 H   0  0  0  0  0  0  0  0  0  0  0  0
   39.9030   34.1580   40.9330 N   0  0  0  0  0  0  0  0  0  0  0  0
   39.5720   34.9770   40.3680 H   0  0  0  0  0  0  0  0  0  0  0  0
   41.1700   33.6760   40.4160 C   0  0  0  0  0  2  0  0  0  0  0  0
   40.8330   32.6420   39.3620 C   0  0  0  0  0  2  0  0  0  0  0  0
  1  7  1  6  0  0  0
  1 22  1  0  0  0  0
  2  8  1  6  0  0  0
  2  3  1  0  0  0  0
  2  1  1  0  0  0  0
  2 15  1  0  0  0  0
  4  5  1  0  0  0  0
  4  3  1  0  0  0  0
  5 11  1  6  0  0  0
  5  6  1  0  0  0  0
  5 24  1  0  0  0  0
  6  1  1  0  0  0  0
  6 12  1  1  0  0  0
  9  4  1  0  0  0  0
 10  4  1  0  0  0  0
 13 18  1  0  0  0  0
 13 19  1  0  0  0  0
 14 13  2  0  0  0  0
 15 16  2  0  0  0  0
 15 14  1  0  0  0  0
 16 17  1  0  0  0  0
 17 21  1  0  0  0  0
 17 18  2  0  0  0  0
 20 14  1  0  0  0  0
 22 23  1  0  0  0  0
 24 25  1  0  0  0  0
 26  6  1  0  0  0  0
 27 28  1  0  0  0  0
 28 35  1  0  0  0  0
 28 29  1  0  0  0  0
 29 26  1  1  0  0  0
 29 30  1  0  0  0  0
 30 31  1  0  0  0  0
 32 30  1  0  0  0  0
 33 32  1  0  0  0  0
 34 32  1  0  0  0  0
 35 34  1  0  0  0  0
M  END
>  <minimizedAffinity>
-5.61074495

$$$$

 OpenBabel03242521293D

 35 37  0  0  1  0  0  0  0  0999 V2000
   38.3230   29.2080   41.6970 C   0  0  1  0  0  0  0  0  0  0  0  0
   37.7640   28.1120   40.8210 C   0  0  2  0  0  0  0  0  0  0  0  0
   36.4090   28.2720   40.6010 O   0  0  0  0  0  0  0  0  0  0  0  0
   36.2730   29.3670   39.7680 C   0  0  0  0  0  0  0  0  0  0  0  0
   36.5640   30.6110   40.5750 C   0  0  2  0  0  0  0  0  0  0  0  0
   37.8390   30.5720   41.3490 C   0  0  2  0  0  0  0  0  0  0  0  0
   39.4440   29.1810   41.5490 H   0  0  0  0  0  0  0  0  0  0  0  0
   38.3560   28.1800   39.8720 H   0  0  0  0  0  0  0  0  0  0  0  0
   36.9750   29.3390   38.9240 H   0  0  0  0  0  0  0  0  0  0  0  0
   35.2470   29.4780   39.3730 H   0  0  0  0  0  0  0  0  0  0  0  0
   36.4900   31.4430   39.8610 H   0  0  0  0  0  0  0  0  0  0  0  0
   37.6420   31.1050   42.3200 H   0  0  0  0  0  0  0  0  0  0  0  0
   37.2380   24.5780   42.0670 C   0  0  0  0  0  0  0  0  0  0  0  0
   36.9550   25.8200   41.4800 C   0  0  0  0  0  0  0  0  0  0  0  0
   38.0050   26.7800   41.4210 C   0  0  0  0  0  0  0  0  0  0  0  0
   39.2180   26.4640   41.9240 N   0  0  0  0  0  0  0  0  0  0  0  0
   39.4420   25.2340   42.4870 C   0  0  0  0  0  0  0  0  0  0  0  0
   38.4550   24.3080   42.5520 N   0  0  0  0  0  0  0  0  0  0  0  0
   36.4580   23.8310   42.1240 H   0  0  0  0  0  0  0  0  0  0  0  0
   35.9810   26.0720   41.0760 H   0  0  0  0  0  0  0  0  0  0  0  0
   40.4040   24.9760   42.8900 H   0  0  0  0  0  0  0  0  0  0  0  0
   38.1710   28.9060   43.0570 O   0  0  0  0  0  0  0  0  0  0  0  0
   38.9510   29.1320   43.5890 H   0  0  0  0  0  0  0  0  0  0  0  0
   35.4550   30.7830   41.4200 O   0  0  0  0  0  0  0  0  0  0  0  0
   35.1300   31.7150   41.4440 H   0  0  0  0  0  0  0  0  0  0  0  0
   38.8640   31.3320   40.7710 O   0  0  0  0  0  0  0  0  0  0  0  0
   38.1260   33.6120   41.3040 H   0  0  0  0  0  0  0  0  0  0  0  0
   39.1620   33.5060   41.3280 N   0  0  0  0  0  0  0  0  0  0  0  0
   39.5760   32.1300   41.6020 C   0  0  2  0  0  3  0  0  0  0  0  0
   41.0330   32.0490   41.1360 C   0  0  0  0  0  3  0  0  0  0  0  0
   41.1120   31.6380   40.0970 H   0  0  0  0  0  0  0  0  0  0  0  0
   41.6300   33.3690   41.0750 N   0  0  0  0  0  0  0  0  0  0  0  0
   41.5470   33.8760   41.9890 H   0  0  0  0  0  0  0  0  0  0  0  0
   41.0400   34.1610   40.0120 C   0  0  0  0  0  2  0  0  0  0  0  0
   39.5800   33.7650   39.9460 C   0  0  0  0  0  2  0  0  0  0  0  0
  1  7  1  6  0  0  0
  1 22  1  0  0  0  0
  2  8  1  6  0  0  0
  2 15  1  0  0  0  0
  2  1  1  0  0  0  0
  3  2  1  0  0  0  0
  4  5  1  0  0  0  0
  4  3  1  0  0  0  0
  5 11  1  6  0  0  0
  5  6  1  0  0  0  0
  5 24  1  0  0  0  0
  6  1  1  0  0  0  0
  6 12  1  1  0  0  0
  9  4  1  0  0  0  0
 10  4  1  0  0  0  0
 13 19  1  0  0  0  0
 13 18  1  0  0  0  0
 14 13  2  0  0  0  0
 15 14  1  0  0  0  0
 15 16  2  0  0  0  0
 16 17  1  0  0  0  0
 17 18  2  0  0  0  0
 17 21  1  0  0  0  0
 20 14  1  0  0  0  0
 22 23  1  0  0  0  0
 24 25  1  0  0  0  0
 26  6  1  0  0  0  0
 27 28  1  0  0  0  0
 28 29  1  0  0  0  0
 29 26  1  6  0  0  0
 30 29  1  0  0  0  0
 31 30  1  0  0  0  0
 32 30  1  0  0  0  0
 32 33  1  0  0  0  0
 34 32  1  0  0  0  0
 35 34  1  0  0  0  0
 35 28  1  0  0  0  0
M  END
>  <minimizedAffinity>
-5.6061182

$$$$

 OpenBabel03242521293D

 35 37  0  0  1  0  0  0  0  0999 V2000
   39.4840   31.0600   40.7150 C   0  0  1  0  0  0  0  0  0  0  0  0
   38.1070   30.4760   40.5090 C   0  0  2  0  0  0  0  0  0  0  0  0
   37.1130   31.4070   40.7470 O   0  0  0  0  0  0  0  0  0  0  0  0
   37.1700   32.3160   39.7070 C   0  0  0  0  0  0  0  0  0  0  0  0
   38.3970   33.1760   39.8990 C   0  0  2  0  0  0  0  0  0  0  0  0
   39.6620   32.4190   40.1330 C   0  0  2  0  0  0  0  0  0  0  0  0
   40.2000   30.3550   40.1940 H   0  0  0  0  0  0  0  0  0  0  0  0
   38.1060   30.1220   39.4460 H   0  0  0  0  0  0  0  0  0  0  0  0
   37.2500   31.8250   38.7280 H   0  0  0  0  0  0  0  0  0  0  0  0
   36.3020   33.0000   39.6910 H   0  0  0  0  0  0  0  0  0  0  0  0
   38.4220   33.8440   39.0270 H   0  0  0  0  0  0  0  0  0  0  0  0
   40.2590   33.0150   40.8770 H   0  0  0  0  0  0  0  0  0  0  0  0
   37.7940   26.9090   41.7350 C   0  0  0  0  0  0  0  0  0  0  0  0
   38.0160   27.9830   40.8610 C   0  0  0  0  0  0  0  0  0  0  0  0
   37.8930   29.3020   41.3860 C   0  0  0  0  0  0  0  0  0  0  0  0
   37.5730   29.4670   42.6870 N   0  0  0  0  0  0  0  0  0  0  0  0
   37.3660   28.3830   43.4990 C   0  0  0  0  0  0  0  0  0  0  0  0
   37.4780   27.1210   43.0180 N   0  0  0  0  0  0  0  0  0  0  0  0
   37.8810   25.8990   41.3620 H   0  0  0  0  0  0  0  0  0  0  0  0
   38.2740   27.8490   39.8170 H   0  0  0  0  0  0  0  0  0  0  0  0
   37.1090   28.5060   44.5350 H   0  0  0  0  0  0  0  0  0  0  0  0
   39.8790   30.9850   42.0570 O   0  0  0  0  0  0  0  0  0  0  0  0
   40.8080   30.7250   42.1690 H   0  0  0  0  0  0  0  0  0  0  0  0
   38.1000   34.0260   40.9770 O   0  0  0  0  0  0  0  0  0  0  0  0
   38.3510   34.9650   40.8070 H   0  0  0  0  0  0  0  0  0  0  0  0
   40.5000   32.3760   39.0120 O   0  0  0  0  0  0  0  0  0  0  0  0
   40.7190   32.9270   36.6290 H   0  0  0  0  0  0  0  0  0  0  0  0
   41.4600   33.3660   37.2160 N   0  0  0  0  0  0  0  0  0  0  0  0
   41.0350   33.5520   38.6040 C   0  0  2  0  0  3  0  0  0  0  0  0
   42.3320   33.7350   39.3990 C   0  0  0  0  0  3  0  0  0  0  0  0
   42.6740   32.7740   39.8580 H   0  0  0  0  0  0  0  0  0  0  0  0
   43.4140   34.1550   38.5310 N   0  0  0  0  0  0  0  0  0  0  0  0
   43.1670   35.0220   37.9930 H   0  0  0  0  0  0  0  0  0  0  0  0
   43.7950   33.0940   37.6180 C   0  0  0  0  0  2  0  0  0  0  0  0
   42.5200   32.3540   37.2710 C   0  0  0  0  0  2  0  0  0  0  0  0
  1  7  1  6  0  0  0
  1 22  1  0  0  0  0
  2  8  1  6  0  0  0
  2  1  1  0  0  0  0
  2  3  1  0  0  0  0
  2 15  1  0  0  0  0
  4  5  1  0  0  0  0
  4  3  1  0  0  0  0
  5 11  1  6  0  0  0
  5  6  1  0  0  0  0
  5 24  1  0  0  0  0
  6  1  1  0  0  0  0
  6 12  1  1  0  0  0
  9  4  1  0  0  0  0
 10  4  1  0  0  0  0
 13 18  1  0  0  0  0
 14 15  1  0  0  0  0
 14 13  2  0  0  0  0
 15 16  2  0  0  0  0
 16 17  1  0  0  0  0
 17 21  1  0  0  0  0
 18 17  2  0  0  0  0
 19 13  1  0  0  0  0
 20 14  1  0  0  0  0
 22 23  1  0  0  0  0
 25 24  1  0  0  0  0
 26  6  1  0  0  0  0
 27 28  1  0  0  0  0
 28 35  1  0  0  0  0
 28 29  1  0  0  0  0
 29 26  1  1  0  0  0
 29 30  1  0  0  0  0
 30 31  1  0  0  0  0
 32 30  1  0  0  0  0
 33 32  1  0  0  0  0
 34 32  1  0  0  0  0
 35 34  1  0  0  0  0
M  END
>  <minimizedAffinity>
-5.37426472

$$$$

 OpenBabel03242521293D

 35 37  0  0  1  0  0  0  0  0999 V2000
   39.8380   31.5120   40.2220 C   0  0  1  0  0  0  0  0  0  0  0  0
   40.0200   33.0100   40.2240 C   0  0  2  0  0  0  0  0  0  0  0  0
   39.0300   33.6490   39.5000 O   0  0  0  0  0  0  0  0  0  0  0  0
   37.8660   33.5260   40.2350 C   0  0  0  0  0  0  0  0  0  0  0  0
   37.3930   32.0950   40.1340 C   0  0  2  0  0  0  0  0  0  0  0  0
   38.4340   31.0690   40.4400 C   0  0  2  0  0  0  0  0  0  0  0  0
   40.4700   31.1230   41.0760 H   0  0  0  0  0  0  0  0  0  0  0  0
   40.0000   33.2970   41.3070 H   0  0  0  0  0  0  0  0  0  0  0  0
   38.0170   33.7590   41.2980 H   0  0  0  0  0  0  0  0  0  0  0  0
   37.0470   34.1580   39.8470 H   0  0  0  0  0  0  0  0  0  0  0  0
   36.4990   32.0390   40.7700 H   0  0  0  0  0  0  0  0  0  0  0  0
   38.2520   30.2080   39.7380 H   0  0  0  0  0  0  0  0  0  0  0  0
   43.7110   33.7980   39.9450 C   0  0  0  0  0  0  0  0  0  0  0  0
   42.4860   33.4290   40.5200 C   0  0  0  0  0  0  0  0  0  0  0  0
   41.3420   33.3840   39.6720 C   0  0  0  0  0  0  0  0  0  0  0  0
   41.4780   33.6930   38.3650 N   0  0  0  0  0  0  0  0  0  0  0  0
   42.6990   34.0480   37.8530 C   0  0  0  0  0  0  0  0  0  0  0  0
   43.7980   34.0970   38.6440 N   0  0  0  0  0  0  0  0  0  0  0  0
   44.5940   33.8400   40.5670 H   0  0  0  0  0  0  0  0  0  0  0  0
   42.3800   33.1810   41.5700 H   0  0  0  0  0  0  0  0  0  0  0  0
   42.8140   34.2960   36.8140 H   0  0  0  0  0  0  0  0  0  0  0  0
   40.4270   30.9240   39.0950 O   0  0  0  0  0  0  0  0  0  0  0  0
   40.8990   30.0990   39.2940 H   0  0  0  0  0  0  0  0  0  0  0  0
   36.8980   31.9500   38.8280 O   0  0  0  0  0  0  0  0  0  0  0  0
   36.0290   31.4810   38.7950 H   0  0  0  0  0  0  0  0  0  0  0  0
   38.2850   30.4860   41.7050 O   0  0  0  0  0  0  0  0  0  0  0  0
   37.4720   29.9880   43.9670 H   0  0  0  0  0  0  0  0  0  0  0  0
   37.2410   29.2400   43.2800 N   0  0  0  0  0  0  0  0  0  0  0  0
   37.1700   29.7440   41.9080 C   0  0  2  0  0  3  0  0  0  0  0  0
   37.3080   28.5050   41.0180 C   0  0  0  0  0  3  0  0  0  0  0  0
   38.3640   28.3540   40.6800 H   0  0  0  0  0  0  0  0  0  0  0  0
   36.9610   27.3020   41.7510 N   0  0  0  0  0  0  0  0  0  0  0  0
   36.0040   27.3670   42.1740 H   0  0  0  0  0  0  0  0  0  0  0  0
   37.9430   27.0160   42.7800 C   0  0  0  0  0  2  0  0  0  0  0  0
   38.4110   28.3570   43.3050 C   0  0  0  0  0  2  0  0  0  0  0  0
  1  2  1  0  0  0  0
  1  6  1  0  0  0  0
  1  7  1  1  0  0  0
  2  8  1  1  0  0  0
  3  2  1  0  0  0  0
  3  4  1  0  0  0  0
  4  9  1  0  0  0  0
  5  4  1  0  0  0  0
  5  6  1  0  0  0  0
  5 11  1  1  0  0  0
  6 12  1  6  0  0  0
  6 26  1  0  0  0  0
 10  4  1  0  0  0  0
 13 14  1  0  0  0  0
 13 19  1  0  0  0  0
 14 20  1  0  0  0  0
 15  2  1  0  0  0  0
 15 14  2  0  0  0  0
 16 15  1  0  0  0  0
 17 16  2  0  0  0  0
 17 18  1  0  0  0  0
 18 13  2  0  0  0  0
 21 17  1  0  0  0  0
 22 23  1  0  0  0  0
 22  1  1  0  0  0  0
 24  5  1  0  0  0  0
 25 24  1  0  0  0  0
 28 35  1  0  0  0  0
 28 27  1  0  0  0  0
 29 26  1  6  0  0  0
 29 28  1  0  0  0  0
 30 32  1  0  0  0  0
 30 29  1  0  0  0  0
 31 30  1  0  0  0  0
 32 33  1  0  0  0  0
 32 34  1  0  0  0  0
 34 35  1  0  0  0  0
M  END
>  <minimizedAffinity>
-5.24114513

$$$$

 OpenBabel03242521293D

 35 37  0  0  1  0  0  0  0  0999 V2000
   36.6430   28.9560   39.7750 C   0  0  1  0  0  0  0  0  0  0  0  0
   37.3060   27.7100   39.2430 C   0  0  2  0  0  0  0  0  0  0  0  0
   36.8030   27.3470   38.0070 O   0  0  0  0  0  0  0  0  0  0  0  0
   37.2580   28.2910   37.1060 C   0  0  0  0  0  0  0  0  0  0  0  0
   36.4970   29.5750   37.3420 C   0  0  2  0  0  0  0  0  0  0  0  0
   36.4680   30.0330   38.7620 C   0  0  2  0  0  0  0  0  0  0  0  0
   37.3240   29.3450   40.5920 H   0  0  0  0  0  0  0  0  0  0  0  0
   38.3960   27.9680   39.1930 H   0  0  0  0  0  0  0  0  0  0  0  0
   38.3280   28.5050   37.2300 H   0  0  0  0  0  0  0  0  0  0  0  0
   37.0730   28.0020   36.0550 H   0  0  0  0  0  0  0  0  0  0  0  0
   36.9260   30.3000   36.6380 H   0  0  0  0  0  0  0  0  0  0  0  0
   35.4490   30.4790   38.9350 H   0  0  0  0  0  0  0  0  0  0  0  0
   36.5170   24.2890   40.6580 C   0  0  0  0  0  0  0  0  0  0  0  0
   36.6610   25.3220   39.7190 C   0  0  0  0  0  0  0  0  0  0  0  0
   37.1430   26.5790   40.1850 C   0  0  0  0  0  0  0  0  0  0  0  0
   37.4400   26.7280   41.4940 N   0  0  0  0  0  0  0  0  0  0  0  0
   37.2820   25.6860   42.3700 C   0  0  0  0  0  0  0  0  0  0  0  0
   36.8250   24.4830   41.9460 N   0  0  0  0  0  0  0  0  0  0  0  0
   36.1540   23.3250   40.3300 H   0  0  0  0  0  0  0  0  0  0  0  0
   36.4220   25.2000   38.6690 H   0  0  0  0  0  0  0  0  0  0  0  0
   37.5150   25.7970   43.4130 H   0  0  0  0  0  0  0  0  0  0  0  0
   35.4590   28.6550   40.4620 O   0  0  0  0  0  0  0  0  0  0  0  0
   35.3470   29.1700   41.2780 H   0  0  0  0  0  0  0  0  0  0  0  0
   35.2010   29.3430   36.8510 O   0  0  0  0  0  0  0  0  0  0  0  0
   34.8600   30.0870   36.2990 H   0  0  0  0  0  0  0  0  0  0  0  0
   37.3320   31.1050   39.0180 O   0  0  0  0  0  0  0  0  0  0  0  0
   35.8480   32.7340   40.1000 H   0  0  0  0  0  0  0  0  0  0  0  0
   36.8110   32.7410   40.4940 N   0  0  0  0  0  0  0  0  0  0  0  0
   37.4970   31.4600   40.3150 C   0  0  2  0  0  3  0  0  0  0  0  0
   38.9860   31.7750   40.4910 C   0  0  0  0  0  3  0  0  0  0  0  0
   39.4920   31.9390   39.5060 H   0  0  0  0  0  0  0  0  0  0  0  0
   39.1690   33.0090   41.2300 N   0  0  0  0  0  0  0  0  0  0  0  0
   38.6700   32.9870   42.1520 H   0  0  0  0  0  0  0  0  0  0  0  0
   38.7320   34.1540   40.4530 C   0  0  0  0  0  2  0  0  0  0  0  0
   37.5390   33.6880   39.6450 C   0  0  0  0  0  2  0  0  0  0  0  0
  1 22  1  0  0  0  0
  1  7  1  1  0  0  0
  2  8  1  6  0  0  0
  2  1  1  0  0  0  0
  2 15  1  0  0  0  0
  3  2  1  0  0  0  0
  4  9  1  0  0  0  0
  4  5  1  0  0  0  0
  4  3  1  0  0  0  0
  5 11  1  6  0  0  0
  5  6  1  0  0  0  0
  6 12  1  1  0  0  0
  6 26  1  0  0  0  0
  6  1  1  0  0  0  0
 10  4  1  0  0  0  0
 13 18  1  0  0  0  0
 14 15  1  0  0  0  0
 14 13  2  0  0  0  0
 15 16  2  0  0  0  0
 16 17  1  0  0  0  0
 17 21  1  0  0  0  0
 18 17  2  0  0  0  0
 19 13  1  0  0  0  0
 20 14  1  0  0  0  0
 22 23  1  0  0  0  0
 24  5  1  0  0  0  0
 25 24  1  0  0  0  0
 27 28  1  0  0  0  0
 29 26  1  6  0  0  0
 29 30  1  0  0  0  0
 29 28  1  0  0  0  0
 30 32  1  0  0  0  0
 31 30  1  0  0  0  0
 32 33  1  0  0  0  0
 34 32  1  0  0  0  0
 35 34  1  0  0  0  0
 35 28  1  0  0  0  0
M  END
>  <minimizedAffinity>
-5.23265696

$$$$

 OpenBabel03242521293D

 35 37  0  0  1  0  0  0  0  0999 V2000
   39.2020   27.6070   41.7780 C   0  0  1  0  0  0  0  0  0  0  0  0
   38.0930   27.1260   40.8740 C   0  0  2  0  0  0  0  0  0  0  0  0
   36.8460   27.3470   41.4290 O   0  0  0  0  0  0  0  0  0  0  0  0
   36.6380   28.7120   41.3950 C   0  0  0  0  0  0  0  0  0  0  0  0
   37.5170   29.3510   42.4440 C   0  0  2  0  0  0  0  0  0  0  0  0
   38.9510   28.9390   42.3950 C   0  0  2  0  0  0  0  0  0  0  0  0
   40.1220   27.6880   41.1230 H   0  0  0  0  0  0  0  0  0  0  0  0
   38.2360   27.6980   39.9210 H   0  0  0  0  0  0  0  0  0  0  0  0
   36.8990   29.1500   40.4220 H   0  0  0  0  0  0  0  0  0  0  0  0
   35.5970   28.9920   41.6410 H   0  0  0  0  0  0  0  0  0  0  0  0
   37.3510   30.4320   42.3440 H   0  0  0  0  0  0  0  0  0  0  0  0
   39.3030   28.8740   43.4620 H   0  0  0  0  0  0  0  0  0  0  0  0
   39.1720   23.8810   39.2540 C   0  0  0  0  0  0  0  0  0  0  0  0
   39.0750   25.2590   39.4980 C   0  0  0  0  0  0  0  0  0  0  0  0
   38.2430   25.6840   40.5740 C   0  0  0  0  0  0  0  0  0  0  0  0
   37.5880   24.7590   41.3080 N   0  0  0  0  0  0  0  0  0  0  0  0
   37.7180   23.4230   41.0270 C   0  0  0  0  0  0  0  0  0  0  0  0
   38.5050   23.0000   40.0080 N   0  0  0  0  0  0  0  0  0  0  0  0
   39.7970   23.5320   38.4440 H   0  0  0  0  0  0  0  0  0  0  0  0
   39.6010   25.9990   38.9080 H   0  0  0  0  0  0  0  0  0  0  0  0
   37.2000   22.6810   41.6050 H   0  0  0  0  0  0  0  0  0  0  0  0
   39.5620   26.6300   42.7160 O   0  0  0  0  0  0  0  0  0  0  0  0
   40.5210   26.5600   42.8480 H   0  0  0  0  0  0  0  0  0  0  0  0
   36.9310   29.0250   43.6790 O   0  0  0  0  0  0  0  0  0  0  0  0
   36.8720   29.7960   44.2930 H   0  0  0  0  0  0  0  0  0  0  0  0
   39.7900   29.9120   41.8400 O   0  0  0  0  0  0  0  0  0  0  0  0
   38.8700   32.1410   41.3730 H   0  0  0  0  0  0  0  0  0  0  0  0
   39.8060   32.1770   41.8280 N   0  0  0  0  0  0  0  0  0  0  0  0
   40.0880   30.9790   42.6200 C   0  0  2  0  0  3  0  0  0  0  0  0
   41.6090   30.9680   42.8040 C   0  0  0  0  0  3  0  0  0  0  0  0
   42.1120   30.3210   42.0420 H   0  0  0  0  0  0  0  0  0  0  0  0
   42.1620   32.2950   42.6090 N   0  0  0  0  0  0  0  0  0  0  0  0
   41.7040   33.0020   43.2350 H   0  0  0  0  0  0  0  0  0  0  0  0
   42.0510   32.7100   41.2240 C   0  0  0  0  0  2  0  0  0  0  0  0
   40.7510   32.1270   40.7080 C   0  0  0  0  0  2  0  0  0  0  0  0
  1  7  1  6  0  0  0
  1  6  1  0  0  0  0
  1 22  1  0  0  0  0
  2  8  1  6  0  0  0
  2  3  1  0  0  0  0
  2  1  1  0  0  0  0
  4  3  1  0  0  0  0
  4 10  1  0  0  0  0
  4  5  1  0  0  0  0
  5 11  1  6  0  0  0
  5 24  1  0  0  0  0
  6  5  1  0  0  0  0
  6 12  1  1  0  0  0
  9  4  1  0  0  0  0
 13 14  2  0  0  0  0
 13 18  1  0  0  0  0
 14 15  1  0  0  0  0
 15  2  1  0  0  0  0
 15 16  2  0  0  0  0
 17 16  1  0  0  0  0
 17 21  1  0  0  0  0
 18 17  2  0  0  0  0
 19 13  1  0  0  0  0
 20 14  1  0  0  0  0
 22 23  1  0  0  0  0
 24 25  1  0  0  0  0
 26  6  1  0  0  0  0
 27 28  1  0  0  0  0
 28 29  1  0  0  0  0
 29 26  1  6  0  0  0
 29 30  1  0  0  0  0
 31 30  1  0  0  0  0
 32 30  1  0  0  0  0
 32 33  1  0  0  0  0
 34 32  1  0  0  0  0
 35 34  1  0  0  0  0
 35 28  1  0  0  0  0
M  END
>  <minimizedAffinity>
-5.15590239

$$$$

 OpenBabel03242521293D

 35 37  0  0  1  0  0  0  0  0999 V2000
   38.3340   31.2110   39.7100 C   0  0  1  0  0  0  0  0  0  0  0  0
   38.9880   30.3160   40.7350 C   0  0  2  0  0  0  0  0  0  0  0  0
   38.1930   30.1500   41.8540 O   0  0  0  0  0  0  0  0  0  0  0  0
   37.1250   29.3640   41.4630 C   0  0  0  0  0  0  0  0  0  0  0  0
   36.2100   30.2040   40.6040 C   0  0  2  0  0  0  0  0  0  0  0  0
   36.8880   30.9300   39.4900 C   0  0  2  0  0  0  0  0  0  0  0  0
   38.8830   31.0220   38.7390 H   0  0  0  0  0  0  0  0  0  0  0  0
   39.1630   29.3490   40.1970 H   0  0  0  0  0  0  0  0  0  0  0  0
   37.4410   28.4950   40.8720 H   0  0  0  0  0  0  0  0  0  0  0  0
   36.5200   29.0100   42.3180 H   0  0  0  0  0  0  0  0  0  0  0  0
   35.4090   29.5250   40.2820 H   0  0  0  0  0  0  0  0  0  0  0  0
   36.3750   31.9270   39.3960 H   0  0  0  0  0  0  0  0  0  0  0  0
   41.9430   31.3630   42.8550 C   0  0  0  0  0  0  0  0  0  0  0  0
   40.6900   30.8280   42.5200 C   0  0  0  0  0  0  0  0  0  0  0  0
   40.3020   30.8570   41.1490 C   0  0  0  0  0  0  0  0  0  0  0  0
   41.1420   31.3910   40.2360 N   0  0  0  0  0  0  0  0  0  0  0  0
   42.3570   31.9000   40.6180 C   0  0  0  0  0  0  0  0  0  0  0  0
   42.7430   31.8820   41.9160 N   0  0  0  0  0  0  0  0  0  0  0  0
   42.2610   31.3520   43.8880 H   0  0  0  0  0  0  0  0  0  0  0  0
   40.0170   30.4000   43.2530 H   0  0  0  0  0  0  0  0  0  0  0  0
   43.0300   32.3280   39.8980 H   0  0  0  0  0  0  0  0  0  0  0  0
   38.5940   32.5630   39.9680 O   0  0  0  0  0  0  0  0  0  0  0  0
   38.7920   33.0750   39.1670 H   0  0  0  0  0  0  0  0  0  0  0  0
   35.5740   31.0950   41.4850 O   0  0  0  0  0  0  0  0  0  0  0  0
   34.6020   31.1650   41.3270 H   0  0  0  0  0  0  0  0  0  0  0  0
   36.6790   30.3440   38.2360 O   0  0  0  0  0  0  0  0  0  0  0  0
   36.8940   31.6330   36.1570 H   0  0  0  0  0  0  0  0  0  0  0  0
   37.3720   30.7090   36.1110 N   0  0  0  0  0  0  0  0  0  0  0  0
   37.7630   30.2160   37.4330 C   0  0  2  0  0  3  0  0  0  0  0  0
   37.9900   28.7120   37.2490 C   0  0  0  0  0  3  0  0  0  0  0  0
   37.0830   28.1200   37.5340 H   0  0  0  0  0  0  0  0  0  0  0  0
   38.2380   28.3940   35.8560 N   0  0  0  0  0  0  0  0  0  0  0  0
   39.0340   28.9530   35.4660 H   0  0  0  0  0  0  0  0  0  0  0  0
   37.0460   28.5960   35.0540 C   0  0  0  0  0  2  0  0  0  0  0  0
   36.3280   29.7880   35.6510 C   0  0  0  0  0  2  0  0  0  0  0  0
  1  7  1  6  0  0  0
  1 22  1  0  0  0  0
  1  2  1  0  0  0  0
  2  8  1  6  0  0  0
  2 15  1  0  0  0  0
  2  3  1  0  0  0  0
  4  3  1  0  0  0  0
  4 10  1  0  0  0  0
  5 11  1  6  0  0  0
  5  4  1  0  0  0  0
  5 24  1  0  0  0  0
  6 12  1  6  0  0  0
  6  1  1  0  0  0  0
  6  5  1  0  0  0  0
  9  4  1  0  0  0  0
 13 19  1  0  0  0  0
 14 13  1  0  0  0  0
 14 20  1  0  0  0  0
 15 14  2  0  0  0  0
 16 17  2  0  0  0  0
 16 15  1  0  0  0  0
 17 18  1  0  0  0  0
 18 13  2  0  0  0  0
 21 17  1  0  0  0  0
 23 22  1  0  0  0  0
 25 24  1  0  0  0  0
 26  6  1  0  0  0  0
 28 27  1  0  0  0  0
 28 29  1  0  0  0  0
 29 26  1  1  0  0  0
 30 29  1  0  0  0  0
 30 31  1  0  0  0  0
 32 30  1  0  0  0  0
 33 32  1  0  0  0  0
 34 35  1  0  0  0  0
 34 32  1  0  0  0  0
 35 28  1  0  0  0  0
M  END
>  <minimizedAffinity>
-5.15220881

$$$$
