
 OpenBabel03252504363D

 23 24  0  0  0  0  0  0  0  0999 V2000
   45.1760   39.7210   43.5950 C   0  0  0  0  0  0  0  0  0  0  0  0
   45.9420   39.9360   42.8050 H   0  0  0  0  0  0  0  0  0  0  0  0
   44.1590   39.7980   43.1490 H   0  0  0  0  0  0  0  0  0  0  0  0
   45.4020   40.6450   44.6560 N   0  0  0  0  0  0  0  0  0  0  0  0
   45.7980   40.0270   45.9030 C   0  0  0  0  0  0  0  0  0  0  0  0
   46.5880   40.5950   46.4520 H   0  0  0  0  0  0  0  0  0  0  0  0
   44.6030   40.0680   46.8710 C   0  0  0  0  0  0  0  0  0  0  0  0
   44.9070   39.5070   47.7750 H   0  0  0  0  0  0  0  0  0  0  0  0
   44.3340   41.4420   47.2630 N   0  0  0  0  0  0  0  0  0  0  0  0
   45.0660   41.6680   48.0060 H   0  0  0  0  0  0  0  0  0  0  0  0
   44.5630   42.3460   46.1480 C   0  0  0  0  0  0  0  0  0  0  0  0
   44.3470   41.5800   44.8790 C   0  0  0  0  0  0  0  0  0  0  0  0
   44.9630   37.2800   43.3780 C   0  0  0  0  0  0  0  0  0  0  0  0
   45.3610   38.3390   44.0420 C   0  0  0  0  0  0  0  0  0  0  0  0
   45.1970   35.9490   43.8880 C   0  0  0  0  0  0  0  0  0  0  0  0
   45.8470   35.0730   43.0010 C   0  0  0  0  0  0  0  0  0  0  0  0
   46.1020   33.7500   43.4210 C   0  0  0  0  0  0  0  0  0  0  0  0
   45.6930   33.4040   44.6810 N   0  0  0  0  0  0  0  0  0  0  0  0
   45.0710   34.2770   45.5070 C   0  0  0  0  0  0  0  0  0  0  0  0
   44.8310   35.5410   45.0940 N   0  0  0  0  0  0  0  0  0  0  0  0
   46.1690   35.3560   41.9950 H   0  0  0  0  0  0  0  0  0  0  0  0
   46.5950   33.0350   42.7910 H   0  0  0  0  0  0  0  0  0  0  0  0
   44.7320   34.0540   46.5040 H   0  0  0  0  0  0  0  0  0  0  0  0
  1 14  1  0  0  0  0
  1  4  1  0  0  0  0
  2  1  1  0  0  0  0
  3  1  1  0  0  0  0
  4 12  1  0  0  0  0
  4  5  1  0  0  0  0
  5  6  1  0  0  0  0
  5  7  1  0  0  0  0
  7  9  1  0  0  0  0
  7  8  1  0  0  0  0
  9 10  1  0  0  0  0
 11  9  1  0  0  0  0
 12 11  1  0  0  0  0
 13 15  1  0  0  0  0
 13 14  2  0  0  0  0
 15 20  1  0  0  0  0
 16 17  1  0  0  0  0
 16 15  2  0  0  0  0
 17 18  2  0  0  0  0
 18 19  1  0  0  0  0
 19 23  1  0  0  0  0
 20 19  2  0  0  0  0
 21 16  1  0  0  0  0
 22 17  1  0  0  0  0
M  END
>  <minimizedAffinity>
-2.51891255

>  <minimizedRMSD>
2.24916434

$$$$
