
 OpenBabel03252504373D

 23 24  0  0  0  0  0  0  0  0999 V2000
   39.3970   31.1100   42.0390 C   0  0  0  0  0  0  0  0  0  0  0  0
   38.6880   31.4600   42.8330 H   0  0  0  0  0  0  0  0  0  0  0  0
   40.4260   31.4490   42.2920 H   0  0  0  0  0  0  0  0  0  0  0  0
   38.9190   31.6230   40.7990 N   0  0  0  0  0  0  0  0  0  0  0  0
   39.5000   32.8940   40.4230 C   0  0  0  0  0  3  0  0  0  0  0  0
   39.7280   32.9770   39.3330 H   0  0  0  0  0  0  0  0  0  0  0  0
   38.4490   33.9970   40.6440 C   0  0  0  0  0  3  0  0  0  0  0  0
   38.9510   34.9610   40.4390 H   0  0  0  0  0  0  0  0  0  0  0  0
   37.3650   33.8410   39.6880 N   0  0  0  0  0  0  0  0  0  0  0  0
   37.7390   34.2480   38.7750 H   0  0  0  0  0  0  0  0  0  0  0  0
   37.0910   32.4340   39.4490 C   0  0  0  0  0  2  0  0  0  0  0  0
   37.4990   31.6690   40.6700 C   0  0  0  0  0  2  0  0  0  0  0  0
   38.8960   28.9040   43.0040 C   0  0  0  0  0  3  0  0  0  0  0  0
   39.3980   29.6460   42.0470 C   0  0  0  0  0  3  0  0  0  0  0  0
   38.9300   27.4610   42.9260 C   0  0  0  0  0  0  0  0  0  0  0  0
   40.0760   26.8580   43.4720 C   0  0  0  0  0  0  0  0  0  0  0  0
   40.1910   25.4530   43.4250 C   0  0  0  0  0  0  0  0  0  0  0  0
   39.1640   24.7610   42.8420 N   0  0  0  0  0  0  0  0  0  0  0  0
   38.0740   25.3780   42.3270 C   0  0  0  0  0  0  0  0  0  0  0  0
   37.9760   26.7240   42.3770 N   0  0  0  0  0  0  0  0  0  0  0  0
   40.8940   27.4180   43.9360 H   0  0  0  0  0  0  0  0  0  0  0  0
   41.0400   24.9340   43.8260 H   0  0  0  0  0  0  0  0  0  0  0  0
   37.2420   24.8800   41.8590 H   0  0  0  0  0  0  0  0  0  0  0  0
  1 14  1  0  0  0  0
  1  3  1  0  0  0  0
  1  2  1  0  0  0  0
  4  1  1  0  0  0  0
  5  7  1  0  0  0  0
  5  4  1  0  0  0  0
  6  5  1  0  0  0  0
  8  7  1  0  0  0  0
  9  7  1  0  0  0  0
 10  9  1  0  0  0  0
 11  9  1  0  0  0  0
 11 12  1  0  0  0  0
 12  4  1  0  0  0  0
 14 13  2  0  0  0  0
 15 13  1  0  0  0  0
 15 16  1  0  0  0  0
 16 21  1  0  0  0  0
 17 16  2  0  0  0  0
 17 22  1  0  0  0  0
 18 17  1  0  0  0  0
 19 20  1  0  0  0  0
 19 18  2  0  0  0  0
 20 15  2  0  0  0  0
 23 19  1  0  0  0  0
M  END
>  <minimizedAffinity>
-4.20930338

$$$$

 OpenBabel03252504373D

 23 24  0  0  0  0  0  0  0  0999 V2000
   36.5050   30.7860   41.0470 C   0  0  0  0  0  0  0  0  0  0  0  0
   35.9240   30.4370   40.1530 H   0  0  0  0  0  0  0  0  0  0  0  0
   35.7990   31.0150   41.8760 H   0  0  0  0  0  0  0  0  0  0  0  0
   37.2750   31.9090   40.6300 N   0  0  0  0  0  0  0  0  0  0  0  0
   37.0340   32.3160   39.2620 C   0  0  0  0  0  3  0  0  0  0  0  0
   37.0110   33.4240   39.1230 H   0  0  0  0  0  0  0  0  0  0  0  0
   38.2350   31.8810   38.4040 C   0  0  0  0  0  3  0  0  0  0  0  0
   37.9790   32.1200   37.3540 H   0  0  0  0  0  0  0  0  0  0  0  0
   39.4080   32.6580   38.7690 N   0  0  0  0  0  0  0  0  0  0  0  0
   39.2810   33.6000   38.2850 H   0  0  0  0  0  0  0  0  0  0  0  0
   39.4270   32.9120   40.2000 C   0  0  0  0  0  2  0  0  0  0  0  0
   38.6770   31.8070   40.8780 C   0  0  0  0  0  2  0  0  0  0  0  0
   36.9540   28.6570   42.1940 C   0  0  0  0  0  3  0  0  0  0  0  0
   37.3620   29.6830   41.4870 C   0  0  0  0  0  3  0  0  0  0  0  0
   37.8680   27.6050   42.5780 C   0  0  0  0  0  0  0  0  0  0  0  0
   37.5550   26.3280   42.0810 C   0  0  0  0  0  0  0  0  0  0  0  0
   38.3930   25.2440   42.4190 C   0  0  0  0  0  0  0  0  0  0  0  0
   39.4690   25.5140   43.2210 N   0  0  0  0  0  0  0  0  0  0  0  0
   39.7390   26.7580   43.6790 C   0  0  0  0  0  0  0  0  0  0  0  0
   38.9290   27.7880   43.3490 N   0  0  0  0  0  0  0  0  0  0  0  0
   36.6920   26.1210   41.4420 H   0  0  0  0  0  0  0  0  0  0  0  0
   38.2080   24.2470   42.0700 H   0  0  0  0  0  0  0  0  0  0  0  0
   40.5710   27.0210   44.3100 H   0  0  0  0  0  0  0  0  0  0  0  0
  1 14  1  0  0  0  0
  1  3  1  0  0  0  0
  2  1  1  0  0  0  0
  4 12  1  0  0  0  0
  4  1  1  0  0  0  0
  5  4  1  0  0  0  0
  6  5  1  0  0  0  0
  7  9  1  0  0  0  0
  7  5  1  0  0  0  0
  8  7  1  0  0  0  0
  9 11  1  0  0  0  0
 10  9  1  0  0  0  0
 11 12  1  0  0  0  0
 13 15  1  0  0  0  0
 14 13  2  0  0  0  0
 15 20  1  0  0  0  0
 16 17  1  0  0  0  0
 16 15  2  0  0  0  0
 17 18  2  0  0  0  0
 18 19  1  0  0  0  0
 19 23  1  0  0  0  0
 20 19  2  0  0  0  0
 21 16  1  0  0  0  0
 22 17  1  0  0  0  0
M  END
>  <minimizedAffinity>
-4.11343861

$$$$

 OpenBabel03252504373D

 23 24  0  0  0  0  0  0  0  0999 V2000
   35.4070   28.8850   40.6770 C   0  0  0  0  0  0  0  0  0  0  0  0
   35.2140   28.2530   39.7710 H   0  0  0  0  0  0  0  0  0  0  0  0
   34.4810   28.9350   41.2920 H   0  0  0  0  0  0  0  0  0  0  0  0
   35.8480   30.1570   40.2100 N   0  0  0  0  0  0  0  0  0  0  0  0
   36.3040   30.1560   38.8370 C   0  0  0  0  0  3  0  0  0  0  0  0
   35.9950   31.0640   38.2630 H   0  0  0  0  0  0  0  0  0  0  0  0
   37.8400   30.2460   38.8310 C   0  0  0  0  0  3  0  0  0  0  0  0
   38.1610   30.1490   37.7770 H   0  0  0  0  0  0  0  0  0  0  0  0
   38.2570   31.5540   39.3090 N   0  0  0  0  0  0  0  0  0  0  0  0
   38.1210   32.2110   38.4800 H   0  0  0  0  0  0  0  0  0  0  0  0
   37.3780   32.0160   40.3710 C   0  0  0  0  0  2  0  0  0  0  0  0
   36.7980   30.8120   41.0490 C   0  0  0  0  0  2  0  0  0  0  0  0
   36.9560   27.0500   41.2080 C   0  0  0  0  0  3  0  0  0  0  0  0
   36.4370   28.2230   41.4790 C   0  0  0  0  0  3  0  0  0  0  0  0
   37.9790   26.4740   42.0500 C   0  0  0  0  0  0  0  0  0  0  0  0
   38.6950   27.3920   42.8370 C   0  0  0  0  0  0  0  0  0  0  0  0
   39.7190   26.9100   43.6800 C   0  0  0  0  0  0  0  0  0  0  0  0
   39.9490   25.5600   43.6730 N   0  0  0  0  0  0  0  0  0  0  0  0
   39.2370   24.7060   42.9020 C   0  0  0  0  0  0  0  0  0  0  0  0
   38.2590   25.1800   42.0990 N   0  0  0  0  0  0  0  0  0  0  0  0
   38.5060   28.4690   42.8350 H   0  0  0  0  0  0  0  0  0  0  0  0
   40.2990   27.5600   44.3050 H   0  0  0  0  0  0  0  0  0  0  0  0
   39.3790   23.6400   42.8620 H   0  0  0  0  0  0  0  0  0  0  0  0
  1  3  1  0  0  0  0
  1 14  1  0  0  0  0
  2  1  1  0  0  0  0
  4  1  1  0  0  0  0
  4 12  1  0  0  0  0
  5  4  1  0  0  0  0
  6  5  1  0  0  0  0
  7  5  1  0  0  0  0
  7  9  1  0  0  0  0
  8  7  1  0  0  0  0
  9 11  1  0  0  0  0
 10  9  1  0  0  0  0
 11 12  1  0  0  0  0
 13 14  2  0  0  0  0
 13 15  1  0  0  0  0
 15 20  2  0  0  0  0
 15 16  1  0  0  0  0
 16 17  2  0  0  0  0
 17 22  1  0  0  0  0
 18 17  1  0  0  0  0
 19 18  2  0  0  0  0
 20 19  1  0  0  0  0
 21 16  1  0  0  0  0
 23 19  1  0  0  0  0
M  END
>  <minimizedAffinity>
-4.06761837

$$$$

 OpenBabel03252504373D

 23 24  0  0  0  0  0  0  0  0999 V2000
   37.5640   27.5790   43.1650 C   0  0  0  0  0  0  0  0  0  0  0  0
   37.7680   27.7550   44.2540 H   0  0  0  0  0  0  0  0  0  0  0  0
   36.5520   27.1310   43.0500 H   0  0  0  0  0  0  0  0  0  0  0  0
   38.6120   26.7480   42.6750 N   0  0  0  0  0  0  0  0  0  0  0  0
   38.1750   25.7410   41.7330 C   0  0  0  0  0  3  0  0  0  0  0  0
   38.8820   25.5880   40.8810 H   0  0  0  0  0  0  0  0  0  0  0  0
   38.1800   24.3740   42.4410 C   0  0  0  0  0  3  0  0  0  0  0  0
   37.7540   23.6440   41.7270 H   0  0  0  0  0  0  0  0  0  0  0  0
   39.5480   23.9750   42.7280 N   0  0  0  0  0  0  0  0  0  0  0  0
   39.9310   23.6050   41.8040 H   0  0  0  0  0  0  0  0  0  0  0  0
   40.3530   25.1300   43.0920 C   0  0  0  0  0  2  0  0  0  0  0  0
   39.4410   26.1630   43.6790 C   0  0  0  0  0  2  0  0  0  0  0  0
   38.6240   29.5640   42.1710 C   0  0  0  0  0  3  0  0  0  0  0  0
   37.5530   28.8790   42.4920 C   0  0  0  0  0  3  0  0  0  0  0  0
   38.5210   30.8370   41.4960 C   0  0  0  0  0  0  0  0  0  0  0  0
   37.3260   31.0460   40.7870 C   0  0  0  0  0  0  0  0  0  0  0  0
   37.1520   32.2610   40.0920 C   0  0  0  0  0  0  0  0  0  0  0  0
   38.1750   33.1680   40.1550 N   0  0  0  0  0  0  0  0  0  0  0  0
   39.3130   32.9320   40.8490 C   0  0  0  0  0  0  0  0  0  0  0  0
   39.4680   31.7640   41.5110 N   0  0  0  0  0  0  0  0  0  0  0  0
   36.5130   30.3150   40.7410 H   0  0  0  0  0  0  0  0  0  0  0  0
   36.2620   32.4800   39.5350 H   0  0  0  0  0  0  0  0  0  0  0  0
   40.1440   33.6120   40.9300 H   0  0  0  0  0  0  0  0  0  0  0  0
  1  2  1  0  0  0  0
  3  1  1  0  0  0  0
  4  1  1  0  0  0  0
  4 12  1  0  0  0  0
  5  7  1  0  0  0  0
  5  4  1  0  0  0  0
  6  5  1  0  0  0  0
  7  9  1  0  0  0  0
  8  7  1  0  0  0  0
  9 11  1  0  0  0  0
 10  9  1  0  0  0  0
 11 12  1  0  0  0  0
 13 14  2  0  0  0  0
 14  1  1  0  0  0  0
 15 20  1  0  0  0  0
 15 13  1  0  0  0  0
 16 15  2  0  0  0  0
 17 18  2  0  0  0  0
 17 16  1  0  0  0  0
 18 19  1  0  0  0  0
 19 23  1  0  0  0  0
 19 20  2  0  0  0  0
 21 16  1  0  0  0  0
 22 17  1  0  0  0  0
M  END
>  <minimizedAffinity>
-4.01753616

$$$$

 OpenBabel03252504373D

 23 24  0  0  0  0  0  0  0  0999 V2000
   39.5480   31.8780   41.5160 C   0  0  0  0  0  0  0  0  0  0  0  0
   39.0100   32.6320   42.1480 H   0  0  0  0  0  0  0  0  0  0  0  0
   40.5870   31.7570   41.8960 H   0  0  0  0  0  0  0  0  0  0  0  0
   39.4850   32.3430   40.1710 N   0  0  0  0  0  0  0  0  0  0  0  0
   38.5530   33.4300   39.9650 C   0  0  0  0  0  3  0  0  0  0  0  0
   38.9280   34.2140   39.2630 H   0  0  0  0  0  0  0  0  0  0  0  0
   37.3110   32.8790   39.2410 C   0  0  0  0  0  3  0  0  0  0  0  0
   36.5820   33.7090   39.1830 H   0  0  0  0  0  0  0  0  0  0  0  0
   37.6640   32.4950   37.8840 N   0  0  0  0  0  0  0  0  0  0  0  0
   37.6960   33.4080   37.3350 H   0  0  0  0  0  0  0  0  0  0  0  0
   39.0000   31.9240   37.8450 C   0  0  0  0  0  2  0  0  0  0  0  0
   39.2890   31.3270   39.1880 C   0  0  0  0  0  2  0  0  0  0  0  0
   39.2670   29.6230   42.4580 C   0  0  0  0  0  3  0  0  0  0  0  0
   38.8670   30.5910   41.6690 C   0  0  0  0  0  3  0  0  0  0  0  0
   38.5270   28.3860   42.5560 C   0  0  0  0  0  0  0  0  0  0  0  0
   37.2960   28.4750   43.2290 C   0  0  0  0  0  0  0  0  0  0  0  0
   36.5170   27.3080   43.3770 C   0  0  0  0  0  0  0  0  0  0  0  0
   37.0210   26.1500   42.8470 N   0  0  0  0  0  0  0  0  0  0  0  0
   38.2120   26.1040   42.2050 C   0  0  0  0  0  0  0  0  0  0  0  0
   38.9480   27.2280   42.0700 N   0  0  0  0  0  0  0  0  0  0  0  0
   36.9010   29.4040   43.6500 H   0  0  0  0  0  0  0  0  0  0  0  0
   35.5690   27.3120   43.8780 H   0  0  0  0  0  0  0  0  0  0  0  0
   38.6500   25.2210   41.7720 H   0  0  0  0  0  0  0  0  0  0  0  0
  1 14  1  0  0  0  0
  1  3  1  0  0  0  0
  1  2  1  0  0  0  0
  4  1  1  0  0  0  0
  5  4  1  0  0  0  0
  6  5  1  0  0  0  0
  7  5  1  0  0  0  0
  8  7  1  0  0  0  0
  9  7  1  0  0  0  0
 10  9  1  0  0  0  0
 11  9  1  0  0  0  0
 11 12  1  0  0  0  0
 12  4  1  0  0  0  0
 13 15  1  0  0  0  0
 14 13  2  0  0  0  0
 15 16  1  0  0  0  0
 16 17  2  0  0  0  0
 16 21  1  0  0  0  0
 17 22  1  0  0  0  0
 18 17  1  0  0  0  0
 19 18  2  0  0  0  0
 20 19  1  0  0  0  0
 20 15  2  0  0  0  0
 23 19  1  0  0  0  0
M  END
>  <minimizedAffinity>
-3.96890354

$$$$

 OpenBabel03252504373D

 23 24  0  0  0  0  0  0  0  0999 V2000
   39.3000   26.7950   43.6800 C   0  0  0  0  0  0  0  0  0  0  0  0
   40.3870   27.0690   43.6780 H   0  0  0  0  0  0  0  0  0  0  0  0
   38.9290   26.7750   44.7290 H   0  0  0  0  0  0  0  0  0  0  0  0
   39.1870   25.5400   43.0140 N   0  0  0  0  0  0  0  0  0  0  0  0
   40.3740   25.1500   42.2840 C   0  0  0  0  0  3  0  0  0  0  0  0
   40.6100   24.0610   42.3640 H   0  0  0  0  0  0  0  0  0  0  0  0
   40.1070   25.3390   40.7800 C   0  0  0  0  0  3  0  0  0  0  0  0
   41.0590   25.1240   40.2590 H   0  0  0  0  0  0  0  0  0  0  0  0
   39.1200   24.3720   40.3310 N   0  0  0  0  0  0  0  0  0  0  0  0
   39.6560   23.4570   40.2180 H   0  0  0  0  0  0  0  0  0  0  0  0
   38.1130   24.1540   41.3560 C   0  0  0  0  0  2  0  0  0  0  0  0
   38.0280   25.3930   42.1940 C   0  0  0  0  0  2  0  0  0  0  0  0
   39.0840   28.9850   42.5820 C   0  0  0  0  0  3  0  0  0  0  0  0
   38.5670   27.8450   42.9700 C   0  0  0  0  0  3  0  0  0  0  0  0
   38.2890   29.9630   41.8760 C   0  0  0  0  0  0  0  0  0  0  0  0
   39.0020   31.0650   41.3720 C   0  0  0  0  0  0  0  0  0  0  0  0
   38.2960   32.0710   40.6790 C   0  0  0  0  0  0  0  0  0  0  0  0
   36.9440   31.9040   40.5430 N   0  0  0  0  0  0  0  0  0  0  0  0
   36.2920   30.8280   41.0410 C   0  0  0  0  0  0  0  0  0  0  0  0
   36.9790   29.8710   41.7030 N   0  0  0  0  0  0  0  0  0  0  0  0
   40.0830   31.1920   41.4860 H   0  0  0  0  0  0  0  0  0  0  0  0
   38.7830   32.9340   40.2690 H   0  0  0  0  0  0  0  0  0  0  0  0
   35.2330   30.6510   40.9600 H   0  0  0  0  0  0  0  0  0  0  0  0
  1  3  1  0  0  0  0
  2  1  1  0  0  0  0
  4  1  1  0  0  0  0
  5  6  1  0  0  0  0
  5  4  1  0  0  0  0
  7  5  1  0  0  0  0
  8  7  1  0  0  0  0
  9  7  1  0  0  0  0
  9 11  1  0  0  0  0
 10  9  1  0  0  0  0
 11 12  1  0  0  0  0
 12  4  1  0  0  0  0
 13 14  2  0  0  0  0
 14  1  1  0  0  0  0
 15 13  1  0  0  0  0
 16 21  1  0  0  0  0
 16 15  2  0  0  0  0
 17 16  1  0  0  0  0
 18 17  2  0  0  0  0
 18 19  1  0  0  0  0
 19 20  2  0  0  0  0
 20 15  1  0  0  0  0
 22 17  1  0  0  0  0
 23 19  1  0  0  0  0
M  END
>  <minimizedAffinity>
-3.8292985

$$$$

 OpenBabel03252504373D

 23 24  0  0  0  0  0  0  0  0999 V2000
   37.4900   30.0730   41.4630 C   0  0  0  0  0  0  0  0  0  0  0  0
   36.4000   30.3040   41.5940 H   0  0  0  0  0  0  0  0  0  0  0  0
   38.0450   30.4010   42.3700 H   0  0  0  0  0  0  0  0  0  0  0  0
   37.9130   30.7270   40.2710 N   0  0  0  0  0  0  0  0  0  0  0  0
   38.6440   31.9550   40.4990 C   0  0  0  0  0  3  0  0  0  0  0  0
   39.5080   32.0960   39.8050 H   0  0  0  0  0  0  0  0  0  0  0  0
   37.7260   33.1420   40.1590 C   0  0  0  0  0  3  0  0  0  0  0  0
   38.2790   34.0610   40.4320 H   0  0  0  0  0  0  0  0  0  0  0  0
   37.4770   33.1760   38.7270 N   0  0  0  0  0  0  0  0  0  0  0  0
   38.3540   33.6090   38.3010 H   0  0  0  0  0  0  0  0  0  0  0  0
   37.3650   31.8280   38.1940 C   0  0  0  0  0  2  0  0  0  0  0  0
   36.8900   30.9320   39.2970 C   0  0  0  0  0  2  0  0  0  0  0  0
   36.6440   27.7830   41.1610 C   0  0  0  0  0  3  0  0  0  0  0  0
   37.6340   28.6200   41.3560 C   0  0  0  0  0  3  0  0  0  0  0  0
   36.8790   26.3610   41.0570 C   0  0  0  0  0  0  0  0  0  0  0  0
   37.3960   25.7520   42.2130 C   0  0  0  0  0  0  0  0  0  0  0  0
   37.6630   24.3670   42.1890 C   0  0  0  0  0  0  0  0  0  0  0  0
   37.3960   23.7000   41.0240 N   0  0  0  0  0  0  0  0  0  0  0  0
   36.8970   24.3210   39.9300 C   0  0  0  0  0  0  0  0  0  0  0  0
   36.6460   25.6480   39.9650 N   0  0  0  0  0  0  0  0  0  0  0  0
   37.6080   26.2920   43.1410 H   0  0  0  0  0  0  0  0  0  0  0  0
   38.0570   23.8440   43.0390 H   0  0  0  0  0  0  0  0  0  0  0  0
   36.6700   23.8410   38.9930 H   0  0  0  0  0  0  0  0  0  0  0  0
  1  2  1  0  0  0  0
  1  3  1  0  0  0  0
  4  5  1  0  0  0  0
  4  1  1  0  0  0  0
  6  5  1  0  0  0  0
  7  8  1  0  0  0  0
  7  5  1  0  0  0  0
  9  7  1  0  0  0  0
 10  9  1  0  0  0  0
 11  9  1  0  0  0  0
 11 12  1  0  0  0  0
 12  4  1  0  0  0  0
 13 14  2  0  0  0  0
 14  1  1  0  0  0  0
 15 13  1  0  0  0  0
 15 16  1  0  0  0  0
 16 21  1  0  0  0  0
 17 16  2  0  0  0  0
 17 22  1  0  0  0  0
 18 17  1  0  0  0  0
 19 20  1  0  0  0  0
 19 18  2  0  0  0  0
 20 15  2  0  0  0  0
 23 19  1  0  0  0  0
M  END
>  <minimizedAffinity>
-3.8269949

$$$$

 OpenBabel03252504373D

 23 24  0  0  0  0  0  0  0  0999 V2000
   39.5570   32.5270   39.8660 C   0  0  0  0  0  0  0  0  0  0  0  0
   38.6850   32.4950   39.1620 H   0  0  0  0  0  0  0  0  0  0  0  0
   39.5740   33.5130   40.3830 H   0  0  0  0  0  0  0  0  0  0  0  0
   40.7250   32.2720   39.0920 N   0  0  0  0  0  0  0  0  0  0  0  0
   41.7990   33.2160   39.3160 C   0  0  0  0  0  3  0  0  0  0  0  0
   42.8120   32.7440   39.3390 H   0  0  0  0  0  0  0  0  0  0  0  0
   41.8820   34.1610   38.1040 C   0  0  0  0  0  3  0  0  0  0  0  0
   42.6460   34.9240   38.3470 H   0  0  0  0  0  0  0  0  0  0  0  0
   42.3380   33.4230   36.9370 N   0  0  0  0  0  0  0  0  0  0  0  0
   43.3940   33.3330   37.0600 H   0  0  0  0  0  0  0  0  0  0  0  0
   41.7910   32.0770   36.9360 C   0  0  0  0  0  2  0  0  0  0  0  0
   40.4990   32.1010   37.6940 C   0  0  0  0  0  2  0  0  0  0  0  0
   38.6710   30.3910   40.7050 C   0  0  0  0  0  3  0  0  0  0  0  0
   39.3550   31.4960   40.8850 C   0  0  0  0  0  3  0  0  0  0  0  0
   38.5300   29.4190   41.7650 C   0  0  0  0  0  0  0  0  0  0  0  0
   39.5250   28.4270   41.8040 C   0  0  0  0  0  0  0  0  0  0  0  0
   39.4520   27.4330   42.8030 C   0  0  0  0  0  0  0  0  0  0  0  0
   38.4030   27.5040   43.6800 N   0  0  0  0  0  0  0  0  0  0  0  0
   37.4650   28.4770   43.6110 C   0  0  0  0  0  0  0  0  0  0  0  0
   37.5450   29.4230   42.6490 N   0  0  0  0  0  0  0  0  0  0  0  0
   40.3590   28.3760   41.0980 H   0  0  0  0  0  0  0  0  0  0  0  0
   40.1810   26.6510   42.8860 H   0  0  0  0  0  0  0  0  0  0  0  0
   36.6240   28.5760   44.2750 H   0  0  0  0  0  0  0  0  0  0  0  0
  1  3  1  0  0  0  0
  1 14  1  0  0  0  0
  2  1  1  0  0  0  0
  4  5  1  0  0  0  0
  4  1  1  0  0  0  0
  5  6  1  0  0  0  0
  7  8  1  0  0  0  0
  7  5  1  0  0  0  0
  9 10  1  0  0  0  0
  9  7  1  0  0  0  0
 11  9  1  0  0  0  0
 11 12  1  0  0  0  0
 12  4  1  0  0  0  0
 13 14  2  0  0  0  0
 13 15  1  0  0  0  0
 15 16  2  0  0  0  0
 15 20  1  0  0  0  0
 16 17  1  0  0  0  0
 17 22  1  0  0  0  0
 17 18  2  0  0  0  0
 19 18  1  0  0  0  0
 19 23  1  0  0  0  0
 20 19  2  0  0  0  0
 21 16  1  0  0  0  0
M  END
>  <minimizedAffinity>
-3.78277206

$$$$

 OpenBabel03252504373D

 23 24  0  0  0  0  0  0  0  0999 V2000
   38.7360   30.1140   39.5950 C   0  0  0  0  0  0  0  0  0  0  0  0
   39.5680   30.2860   38.8630 H   0  0  0  0  0  0  0  0  0  0  0  0
   37.8250   29.7910   39.0430 H   0  0  0  0  0  0  0  0  0  0  0  0
   38.5610   31.3280   40.3200 N   0  0  0  0  0  0  0  0  0  0  0  0
   37.2070   31.8360   40.3020 C   0  0  0  0  0  3  0  0  0  0  0  0
   36.8770   32.2630   41.2810 H   0  0  0  0  0  0  0  0  0  0  0  0
   37.1500   33.0470   39.3550 C   0  0  0  0  0  3  0  0  0  0  0  0
   36.0880   33.3520   39.2910 H   0  0  0  0  0  0  0  0  0  0  0  0
   37.9020   34.1530   39.9260 N   0  0  0  0  0  0  0  0  0  0  0  0
   37.2580   34.5780   40.6620 H   0  0  0  0  0  0  0  0  0  0  0  0
   39.0820   33.6640   40.6200 C   0  0  0  0  0  2  0  0  0  0  0  0
   39.4850   32.3650   39.9930 C   0  0  0  0  0  2  0  0  0  0  0  0
   38.3250   28.0710   40.9020 C   0  0  0  0  0  3  0  0  0  0  0  0
   39.1300   29.0150   40.4790 C   0  0  0  0  0  3  0  0  0  0  0  0
   38.8010   27.0150   41.7660 C   0  0  0  0  0  0  0  0  0  0  0  0
   39.6660   27.4270   42.7940 C   0  0  0  0  0  0  0  0  0  0  0  0
   40.1840   26.4540   43.6750 C   0  0  0  0  0  0  0  0  0  0  0  0
   39.8040   25.1560   43.4650 N   0  0  0  0  0  0  0  0  0  0  0  0
   38.9670   24.7980   42.4640 C   0  0  0  0  0  0  0  0  0  0  0  0
   38.4780   25.7380   41.6260 N   0  0  0  0  0  0  0  0  0  0  0  0
   39.9670   28.4670   42.9550 H   0  0  0  0  0  0  0  0  0  0  0  0
   40.8470   26.7060   44.4800 H   0  0  0  0  0  0  0  0  0  0  0  0
   38.6390   23.7930   42.2580 H   0  0  0  0  0  0  0  0  0  0  0  0
  1  4  1  0  0  0  0
  1 14  1  0  0  0  0
  2  1  1  0  0  0  0
  3  1  1  0  0  0  0
  5  4  1  0  0  0  0
  5  6  1  0  0  0  0
  7  9  1  0  0  0  0
  7  5  1  0  0  0  0
  8  7  1  0  0  0  0
  9 11  1  0  0  0  0
  9 10  1  0  0  0  0
 12  4  1  0  0  0  0
 12 11  1  0  0  0  0
 13 15  1  0  0  0  0
 14 13  2  0  0  0  0
 15 16  1  0  0  0  0
 16 21  1  0  0  0  0
 16 17  2  0  0  0  0
 17 22  1  0  0  0  0
 18 17  1  0  0  0  0
 19 18  2  0  0  0  0
 20 15  2  0  0  0  0
 20 19  1  0  0  0  0
 23 19  1  0  0  0  0
M  END
>  <minimizedAffinity>
-3.73845887

$$$$
