
 OpenBabel03252506233D

 31 33  0  0  0  0  0  0  0  0999 V2000
   45.5710   33.8490   45.8950 C   0  0  0  0  0  0  0  0  0  0  0  0
   44.6470   34.9030   46.0270 C   0  0  0  0  0  0  0  0  0  0  0  0
   44.5690   35.5620   44.8440 C   0  0  0  0  0  0  0  0  0  0  0  0
   45.4050   34.9500   44.0120 N   0  0  0  0  0  0  0  0  0  0  0  0
   46.0070   33.9220   44.6390 N   0  0  0  0  0  0  0  0  0  0  0  0
   44.1190   35.1130   46.9260 H   0  0  0  0  0  0  0  0  0  0  0  0
   43.9520   36.4090   44.6330 H   0  0  0  0  0  0  0  0  0  0  0  0
   47.5060   31.4810   47.9100 C   0  0  0  0  0  0  0  0  0  0  0  0
   46.6210   31.1200   48.9260 C   0  0  0  0  0  0  0  0  0  0  0  0
   45.3360   31.7170   48.8990 C   0  0  0  0  0  0  0  0  0  0  0  0
   45.0480   32.5900   47.8990 N   0  0  0  0  0  0  0  0  0  0  0  0
   45.9410   32.9060   46.9370 C   0  0  0  0  0  0  0  0  0  0  0  0
   47.1650   32.3550   46.9420 N   0  0  0  0  0  0  0  0  0  0  0  0
   48.5070   31.0370   47.9010 H   0  0  0  0  0  0  0  0  0  0  0  0
   46.9140   30.4180   49.6920 H   0  0  0  0  0  0  0  0  0  0  0  0
   44.6220   31.4670   49.6620 H   0  0  0  0  0  0  0  0  0  0  0  0
   45.6440   35.3300   42.6310 C   0  0  0  0  0  0  0  0  0  0  0  0
   45.8490   36.4170   42.6440 H   0  0  0  0  0  0  0  0  0  0  0  0
   44.7480   35.1650   42.0300 H   0  0  0  0  0  0  0  0  0  0  0  0
   46.8620   34.6180   42.1370 C   0  0  0  0  0  0  0  0  0  0  0  0
   47.6050   35.2990   41.6720 H   0  0  0  0  0  0  0  0  0  0  0  0
   47.4180   34.2040   43.0350 H   0  0  0  0  0  0  0  0  0  0  0  0
   46.6040   33.4860   41.3030 N   0  0  0  0  0  0  0  0  0  0  0  0
   46.7580   33.6900   39.8980 C   0  0  0  0  0  0  0  0  0  0  0  0
   45.8850   34.1650   39.4130 H   0  0  0  0  0  0  0  0  0  0  0  0
   48.0550   34.3600   39.6130 C   0  0  0  0  0  0  0  0  0  0  0  0
   48.2290   34.5070   38.5090 H   0  0  0  0  0  0  0  0  0  0  0  0
   49.1330   33.5270   40.0620 N   0  0  0  0  0  0  0  0  0  0  0  0
   49.6170   33.0380   39.3050 H   0  0  0  0  0  0  0  0  0  0  0  0
   48.9760   32.8690   41.3050 C   0  0  0  0  0  0  0  0  0  0  0  0
   47.5730   32.4580   41.6670 C   0  0  0  0  0  0  0  0  0  0  0  0
  1  2  1  0  0  0  0
  1 12  1  0  0  0  0
  2  6  1  0  0  0  0
  3  2  2  0  0  0  0
  4  5  1  0  0  0  0
  4  3  1  0  0  0  0
  5  1  2  0  0  0  0
  7  3  1  0  0  0  0
  8  9  1  0  0  0  0
  9 15  1  0  0  0  0
 10  9  2  0  0  0  0
 10 16  1  0  0  0  0
 11 10  1  0  0  0  0
 12 13  1  0  0  0  0
 12 11  2  0  0  0  0
 13  8  2  0  0  0  0
 14  8  1  0  0  0  0
 17 18  1  0  0  0  0
 17  4  1  0  0  0  0
 19 17  1  0  0  0  0
 20 17  1  0  0  0  0
 20 22  1  0  0  0  0
 21 20  1  0  0  0  0
 23 31  1  0  0  0  0
 23 20  1  0  0  0  0
 24 23  1  0  0  0  0
 25 24  1  0  0  0  0
 26 24  1  0  0  0  0
 26 28  1  0  0  0  0
 27 26  1  0  0  0  0
 28 30  1  0  0  0  0
 29 28  1  0  0  0  0
 30 31  1  0  0  0  0
M  END
>  <minimizedAffinity>
-5.11484861

>  <minimizedRMSD>
7.66888809

$$$$
