
 OpenBabel03252505103D

 44 47  0  0  1  0  0  0  0  0999 V2000
   44.5870   35.5620   44.5650 C   0  0  0  0  0  0  0  0  0  0  0  0
   45.2530   35.5530   43.3190 C   0  0  0  0  0  0  0  0  0  0  0  0
   46.3390   34.6480   43.1520 C   0  0  0  0  0  0  0  0  0  0  0  0
   46.6780   33.8460   44.1890 N   0  0  0  0  0  0  0  0  0  0  0  0
   46.0240   33.8800   45.3580 C   0  0  0  0  0  0  0  0  0  0  0  0
   44.9720   34.7390   45.5560 N   0  0  0  0  0  0  0  0  0  0  0  0
   43.7620   36.2240   44.7440 H   0  0  0  0  0  0  0  0  0  0  0  0
   44.9430   36.2150   42.5250 H   0  0  0  0  0  0  0  0  0  0  0  0
   46.4390   32.9770   46.4640 C   0  0  2  0  0  0  0  0  0  0  0  0
   46.9650   31.7340   45.7770 C   0  0  0  0  0  0  0  0  0  0  0  0
   46.0880   30.5560   45.8150 C   0  0  0  0  0  0  0  0  0  0  0  0
   45.8100   30.3100   47.3020 C   0  0  0  0  0  0  0  0  0  0  0  0
   45.0190   31.3920   47.8770 C   0  0  0  0  0  0  0  0  0  0  0  0
   45.3850   32.7480   47.4110 C   0  0  0  0  0  0  0  0  0  0  0  0
   47.2880   33.5070   46.9610 H   0  0  0  0  0  0  0  0  0  0  0  0
   47.9220   31.4660   46.2720 H   0  0  0  0  0  0  0  0  0  0  0  0
   47.2490   31.9130   44.7110 H   0  0  0  0  0  0  0  0  0  0  0  0
   46.6260   29.7000   45.4110 H   0  0  0  0  0  0  0  0  0  0  0  0
   45.1160   30.7680   45.3190 H   0  0  0  0  0  0  0  0  0  0  0  0
   45.1620   29.4180   47.3160 H   0  0  0  0  0  0  0  0  0  0  0  0
   46.7770   30.1910   47.8260 H   0  0  0  0  0  0  0  0  0  0  0  0
   44.2270   31.4620   48.5640 H   0  0  0  0  0  0  0  0  0  0  0  0
   44.6800   33.8840   47.9040 N   0  0  0  0  0  0  0  0  0  0  0  0
   45.3350   34.4640   48.4830 H   0  0  0  0  0  0  0  0  0  0  0  0
   43.6890   34.0610   47.6980 H   0  0  0  0  0  0  0  0  0  0  0  0
   47.0350   34.6190   41.8820 C   0  0  0  0  0  0  0  0  0  0  0  0
   48.1270   35.4330   41.7340 C   0  0  0  0  0  0  0  0  0  0  0  0
   48.7570   35.3540   40.4710 C   0  0  0  0  0  0  0  0  0  0  0  0
   48.2220   34.4890   39.5440 C   0  0  0  0  0  0  0  0  0  0  0  0
   47.1430   33.6850   39.6920 C   0  0  0  0  0  0  0  0  0  0  0  0
   46.5540   33.7830   40.9260 N   0  0  0  0  0  0  0  0  0  0  0  0
   48.4430   36.0610   42.5330 H   0  0  0  0  0  0  0  0  0  0  0  0
   49.6170   35.9940   40.3530 H   0  0  0  0  0  0  0  0  0  0  0  0
   48.8150   34.5480   38.6440 H   0  0  0  0  0  0  0  0  0  0  0  0
   46.6590   32.8440   38.7300 O   0  0  0  0  0  0  0  0  0  0  0  0
   44.7220   33.2350   37.0120 H   0  0  0  0  0  0  0  0  0  0  0  0
   45.5040   32.5810   36.7740 N   0  0  0  0  0  0  0  0  0  0  0  0
   46.7010   33.1380   37.3730 C   0  0  2  0  0  0  0  0  0  0  0  0
   47.9550   32.5220   36.7720 C   0  0  0  0  0  0  0  0  0  0  0  0
   48.8140   33.0240   37.2640 H   0  0  0  0  0  0  0  0  0  0  0  0
   47.9540   32.9100   35.3680 N   0  0  0  0  0  0  0  0  0  0  0  0
   47.6260   33.9190   35.3510 H   0  0  0  0  0  0  0  0  0  0  0  0
   46.8870   32.1410   34.7630 C   0  0  0  0  0  0  0  0  0  0  0  0
   45.5480   32.4270   35.3600 C   0  0  0  0  0  0  0  0  0  0  0  0
  1  7  1  0  0  0  0
  1  6  1  0  0  0  0
  2  1  2  0  0  0  0
  3  2  1  0  0  0  0
  3  4  2  0  0  0  0
  4  5  1  0  0  0  0
  5  6  2  0  0  0  0
  5  9  1  0  0  0  0
  8  2  1  0  0  0  0
  9 15  1  1  0  0  0
  9 14  1  0  0  0  0
 10 11  1  0  0  0  0
 10 16  1  0  0  0  0
 10  9  1  0  0  0  0
 11 12  1  0  0  0  0
 12 20  1  0  0  0  0
 12 21  1  0  0  0  0
 12 13  1  0  0  0  0
 13 22  1  0  0  0  0
 14 13  2  0  0  0  0
 14 23  1  0  0  0  0
 17 10  1  0  0  0  0
 18 11  1  0  0  0  0
 19 11  1  0  0  0  0
 23 24  1  0  0  0  0
 25 23  1  0  0  0  0
 26  3  1  0  0  0  0
 27 26  1  0  0  0  0
 27 32  1  0  0  0  0
 28 27  2  0  0  0  0
 29 30  2  0  0  0  0
 29 28  1  0  0  0  0
 30 31  1  0  0  0  0
 31 26  2  0  0  0  0
 33 28  1  0  0  0  0
 34 29  1  0  0  0  0
 35 30  1  0  0  0  0
 37 36  1  0  0  0  0
 37 38  1  0  0  0  0
 38 35  1  1  0  0  0
 39 40  1  0  0  0  0
 39 38  1  0  0  0  0
 41 39  1  0  0  0  0
 42 41  1  0  0  0  0
 43 44  1  0  0  0  0
 43 41  1  0  0  0  0
 44 37  1  0  0  0  0
M  END
>  <minimizedAffinity>
-7.46533966

>  <minimizedRMSD>
0.979532421

$$$$
