
 OpenBabel03252505203D

 28 30  0  0  0  0  0  0  0  0999 V2000
   48.1230   31.3130   44.0370 F   0  0  0  0  0  0  0  0  0  0  0  0
   47.6050   32.4990   43.6350 C   0  0  0  0  0  0  0  0  0  0  0  0
   46.6090   33.0720   44.4120 C   0  0  0  0  0  0  0  0  0  0  0  0
   46.0770   34.2640   44.0230 C   0  0  0  0  0  0  0  0  0  0  0  0
   46.5170   34.8940   42.8760 C   0  0  0  0  0  0  0  0  0  0  0  0
   47.4980   34.3530   42.0920 C   0  0  0  0  0  0  0  0  0  0  0  0
   48.0410   33.1370   42.4860 C   0  0  0  0  0  0  0  0  0  0  0  0
   45.2980   34.7770   44.5720 H   0  0  0  0  0  0  0  0  0  0  0  0
   46.1310   35.8390   42.5210 H   0  0  0  0  0  0  0  0  0  0  0  0
   47.9400   34.7170   41.1850 H   0  0  0  0  0  0  0  0  0  0  0  0
   45.5430   30.4280   46.7140 C   0  0  0  0  0  0  0  0  0  0  0  0
   45.2710   31.1320   47.9030 C   0  0  0  0  0  0  0  0  0  0  0  0
   45.4620   32.5110   47.8850 C   0  0  0  0  0  0  0  0  0  0  0  0
   45.8960   33.0960   46.7350 N   0  0  0  0  0  0  0  0  0  0  0  0
   46.1470   32.4050   45.6200 C   0  0  0  0  0  0  0  0  0  0  0  0
   45.9670   31.0680   45.6160 N   0  0  0  0  0  0  0  0  0  0  0  0
   45.3820   29.3590   46.7700 H   0  0  0  0  0  0  0  0  0  0  0  0
   44.9320   30.7400   48.8300 H   0  0  0  0  0  0  0  0  0  0  0  0
   45.3120   33.2260   48.6820 H   0  0  0  0  0  0  0  0  0  0  0  0
   49.0670   32.4610   41.7650 N   0  0  0  0  0  0  0  0  0  0  0  0
   50.4130   32.4850   42.2930 C   0  0  0  0  0  0  0  0  0  0  0  0
   50.5590   33.4950   42.7390 H   0  0  0  0  0  0  0  0  0  0  0  0
   51.4550   32.2540   41.2380 C   0  0  0  0  0  0  0  0  0  0  0  0
   52.1210   31.4080   41.5180 H   0  0  0  0  0  0  0  0  0  0  0  0
   50.9300   31.9420   39.9340 N   0  0  0  0  0  0  0  0  0  0  0  0
   51.6970   31.5260   39.3660 H   0  0  0  0  0  0  0  0  0  0  0  0
   49.8060   31.0520   39.9650 C   0  0  0  0  0  0  0  0  0  0  0  0
   48.6330   31.8040   40.5460 C   0  0  0  0  0  0  0  0  0  0  0  0
  2  1  1  0  0  0  0
  2  3  1  0  0  0  0
  3 15  1  0  0  0  0
  4  3  2  0  0  0  0
  4  8  1  0  0  0  0
  5  4  1  0  0  0  0
  6  7  1  0  0  0  0
  6  5  2  0  0  0  0
  7  2  2  0  0  0  0
  9  5  1  0  0  0  0
 10  6  1  0  0  0  0
 11 17  1  0  0  0  0
 11 12  1  0  0  0  0
 12 18  1  0  0  0  0
 13 12  2  0  0  0  0
 13 19  1  0  0  0  0
 14 13  1  0  0  0  0
 15 14  2  0  0  0  0
 16 15  1  0  0  0  0
 16 11  2  0  0  0  0
 20 21  1  0  0  0  0
 20  7  1  0  0  0  0
 21 22  1  0  0  0  0
 23 24  1  0  0  0  0
 23 21  1  0  0  0  0
 25 27  1  0  0  0  0
 25 23  1  0  0  0  0
 26 25  1  0  0  0  0
 27 28  1  0  0  0  0
 28 20  1  0  0  0  0
M  END
>  <minimizedAffinity>
-4.65292978

>  <minimizedRMSD>
7.81653357

$$$$
