
 OpenBabel03252507243D

 27 29  0  0  0  0  0  0  0  0999 V2000
   45.6320   34.0080   45.5400 C   0  0  0  0  0  0  0  0  0  0  0  0
   44.6890   35.0170   45.7600 C   0  0  0  0  0  0  0  0  0  0  0  0
   44.4450   35.9300   44.7070 C   0  0  0  0  0  0  0  0  0  0  0  0
   45.1470   35.7710   43.5360 N   0  0  0  0  0  0  0  0  0  0  0  0
   46.0480   34.7690   43.3910 C   0  0  0  0  0  0  0  0  0  0  0  0
   46.2960   33.8990   44.3630 N   0  0  0  0  0  0  0  0  0  0  0  0
   44.1720   35.0850   46.7050 H   0  0  0  0  0  0  0  0  0  0  0  0
   43.7320   36.7110   44.8400 H   0  0  0  0  0  0  0  0  0  0  0  0
   46.7630   34.6590   42.1120 C   0  0  0  0  0  0  0  0  0  0  0  0
   47.9610   35.3180   41.9350 C   0  0  0  0  0  0  0  0  0  0  0  0
   48.7130   35.2840   40.7800 C   0  0  0  0  0  0  0  0  0  0  0  0
   48.1620   34.5110   39.7660 C   0  0  0  0  0  0  0  0  0  0  0  0
   46.9400   33.8320   39.9300 C   0  0  0  0  0  0  0  0  0  0  0  0
   46.2630   33.9220   41.1080 N   0  0  0  0  0  0  0  0  0  0  0  0
   48.3180   35.8930   42.7680 H   0  0  0  0  0  0  0  0  0  0  0  0
   49.6490   35.8060   40.6580 H   0  0  0  0  0  0  0  0  0  0  0  0
   48.7040   34.4430   38.8310 H   0  0  0  0  0  0  0  0  0  0  0  0
   46.5730   33.2560   39.1120 H   0  0  0  0  0  0  0  0  0  0  0  0
   45.9380   33.0490   46.5420 N   0  0  0  0  0  0  0  0  0  0  0  0
   45.1560   32.8860   47.7510 C   0  0  0  0  0  3  0  0  0  0  0  0
   45.5500   33.5190   48.5560 H   0  0  0  0  0  0  0  0  0  0  0  0
   45.0600   31.4520   48.2000 C   0  0  0  0  0  3  0  0  0  0  0  0
   44.5940   31.4400   49.1930 H   0  0  0  0  0  0  0  0  0  0  0  0
   46.3540   30.8060   48.2620 N   0  0  0  0  0  0  0  0  0  0  0  0
   46.5060   30.4070   49.2130 H   0  0  0  0  0  0  0  0  0  0  0  0
   47.4200   31.7110   47.8680 C   0  0  0  0  0  2  0  0  0  0  0  0
   47.0660   32.1480   46.4410 C   0  0  0  0  0  2  0  0  0  0  0  0
  1  2  1  0  0  0  0
  1 19  1  0  0  0  0
  2  7  1  0  0  0  0
  3  8  1  0  0  0  0
  3  2  2  0  0  0  0
  4  3  1  0  0  0  0
  5  4  2  0  0  0  0
  5  6  1  0  0  0  0
  6  1  2  0  0  0  0
  9  5  1  0  0  0  0
 10  9  1  0  0  0  0
 10 15  1  0  0  0  0
 11 10  2  0  0  0  0
 12 13  2  0  0  0  0
 12 11  1  0  0  0  0
 13 14  1  0  0  0  0
 14  9  2  0  0  0  0
 16 11  1  0  0  0  0
 17 12  1  0  0  0  0
 18 13  1  0  0  0  0
 19 20  1  0  0  0  0
 20 22  1  0  0  0  0
 20 21  1  0  0  0  0
 22 24  1  0  0  0  0
 22 23  1  0  0  0  0
 24 25  1  0  0  0  0
 26 24  1  0  0  0  0
 27 19  1  0  0  0  0
 27 26  1  0  0  0  0
M  END
>  <minimizedAffinity>
-6.01088238

>  <minimizedRMSD>
0.569462419

$$$$
