
 OpenBabel03242518103D

 31 33  0  0  0  0  0  0  0  0999 V2000
   49.0040   32.7980   41.5510 C   0  0  0  0  0  0  0  0  0  0  0  0
   48.6900   32.2880   40.2490 C   0  0  0  0  0  0  0  0  0  0  0  0
   49.6560   31.7650   39.4820 C   0  0  0  0  0  0  0  0  0  0  0  0
   51.0190   31.7240   39.9960 C   0  0  0  0  0  0  0  0  0  0  0  0
   50.8610   32.4760   41.6420 S   0  0  0  0  0  0  0  0  0  0  0  0
   47.6650   32.3550   39.9330 H   0  0  0  0  0  0  0  0  0  0  0  0
   49.5350   31.3560   38.5000 H   0  0  0  0  0  0  0  0  0  0  0  0
   52.2110   31.3180   39.6080 N   0  0  0  0  0  0  0  0  0  0  0  0
   53.2590   30.7330   40.4210 C   0  0  0  0  0  0  0  0  0  0  0  0
   52.8560   30.3220   41.3670 H   0  0  0  0  0  0  0  0  0  0  0  0
   53.8810   29.6410   39.5580 C   0  0  0  0  0  0  0  0  0  0  0  0
   53.0380   29.1170   39.0480 H   0  0  0  0  0  0  0  0  0  0  0  0
   54.6470   30.3120   38.5370 N   0  0  0  0  0  0  0  0  0  0  0  0
   55.5910   30.5330   38.9570 H   0  0  0  0  0  0  0  0  0  0  0  0
   54.0060   31.4810   38.0100 C   0  0  0  0  0  0  0  0  0  0  0  0
   52.5040   31.4730   38.1810 C   0  0  0  0  0  0  0  0  0  0  0  0
   48.3040   33.4050   42.6350 C   0  0  0  0  0  0  0  0  0  0  0  0
   48.9860   33.3860   43.5410 H   0  0  0  0  0  0  0  0  0  0  0  0
   47.4610   32.7270   42.9250 H   0  0  0  0  0  0  0  0  0  0  0  0
   47.8980   34.8260   42.4590 C   0  0  0  0  0  0  0  0  0  0  0  0
   48.4200   35.2500   41.6010 H   0  0  0  0  0  0  0  0  0  0  0  0
   48.2030   35.4190   43.3460 H   0  0  0  0  0  0  0  0  0  0  0  0
   46.4420   34.9100   42.3200 C   0  0  0  0  0  0  0  0  0  0  0  0
   45.6340   35.4300   43.3230 C   0  0  0  0  0  0  0  0  0  0  0  0
   44.2660   35.4750   43.1020 C   0  0  0  0  0  0  0  0  0  0  0  0
   43.7830   35.0100   41.9170 N   0  0  0  0  0  0  0  0  0  0  0  0
   44.5920   34.5170   40.9730 C   0  0  0  0  0  0  0  0  0  0  0  0
   45.8980   34.4710   41.1790 N   0  0  0  0  0  0  0  0  0  0  0  0
   46.0570   35.7790   44.2360 H   0  0  0  0  0  0  0  0  0  0  0  0
   43.5960   35.8700   43.8580 H   0  0  0  0  0  0  0  0  0  0  0  0
   44.1050   34.1750   40.0670 H   0  0  0  0  0  0  0  0  0  0  0  0
  1  5  1  0  0  0  0
  1 17  1  0  0  0  0
  2  1  2  0  0  0  0
  3  4  2  0  0  0  0
  3  2  1  0  0  0  0
  4  5  1  0  0  0  0
  6  2  1  0  0  0  0
  7  3  1  0  0  0  0
  8  4  1  0  0  0  0
  8  9  1  0  0  0  0
  9 10  1  0  0  0  0
 11  9  1  0  0  0  0
 12 11  1  0  0  0  0
 13 14  1  0  0  0  0
 13 11  1  0  0  0  0
 15 16  1  0  0  0  0
 15 13  1  0  0  0  0
 16  8  1  0  0  0  0
 17 19  1  0  0  0  0
 17 18  1  0  0  0  0
 20 17  1  0  0  0  0
 20 22  1  0  0  0  0
 21 20  1  0  0  0  0
 23 20  1  0  0  0  0
 23 24  1  0  0  0  0
 24 29  1  0  0  0  0
 25 24  2  0  0  0  0
 25 30  1  0  0  0  0
 26 25  1  0  0  0  0
 27 28  1  0  0  0  0
 27 26  2  0  0  0  0
 28 23  2  0  0  0  0
 31 27  1  0  0  0  0
M  END
>  <minimizedAffinity>
-4.08738089

>  <minimizedRMSD>
1.35972977

$$$$
