
 OpenBabel03252507243D

 27 29  0  0  0  0  0  0  0  0999 V2000
   45.5930   34.0330   45.6260 C   0  0  0  0  0  0  0  0  0  0  0  0
   44.6510   35.0480   45.8160 C   0  0  0  0  0  0  0  0  0  0  0  0
   44.4140   35.9340   44.7390 C   0  0  0  0  0  0  0  0  0  0  0  0
   45.1220   35.7440   43.5760 N   0  0  0  0  0  0  0  0  0  0  0  0
   46.0220   34.7380   43.4610 C   0  0  0  0  0  0  0  0  0  0  0  0
   46.2630   33.8930   44.4560 N   0  0  0  0  0  0  0  0  0  0  0  0
   44.1290   35.1410   46.7560 H   0  0  0  0  0  0  0  0  0  0  0  0
   43.7010   36.7190   44.8470 H   0  0  0  0  0  0  0  0  0  0  0  0
   46.7440   34.5940   42.1890 C   0  0  0  0  0  0  0  0  0  0  0  0
   47.9170   35.2880   41.9820 C   0  0  0  0  0  0  0  0  0  0  0  0
   48.6720   35.2280   40.8310 C   0  0  0  0  0  0  0  0  0  0  0  0
   48.1520   34.3880   39.8540 C   0  0  0  0  0  0  0  0  0  0  0  0
   46.9560   33.6730   40.0490 C   0  0  0  0  0  0  0  0  0  0  0  0
   46.2730   33.7930   41.2200 N   0  0  0  0  0  0  0  0  0  0  0  0
   48.2500   35.9140   42.7870 H   0  0  0  0  0  0  0  0  0  0  0  0
   49.5880   35.7770   40.6840 H   0  0  0  0  0  0  0  0  0  0  0  0
   48.6980   34.2960   38.9230 H   0  0  0  0  0  0  0  0  0  0  0  0
   46.6120   33.0460   39.2590 H   0  0  0  0  0  0  0  0  0  0  0  0
   45.8930   33.0990   46.6540 N   0  0  0  0  0  0  0  0  0  0  0  0
   47.0860   32.2740   46.6540 C   0  0  0  0  0  0  0  0  0  0  0  0
   46.8930   31.3150   46.1540 H   0  0  0  0  0  0  0  0  0  0  0  0
   47.6470   32.0510   48.0330 C   0  0  0  0  0  0  0  0  0  0  0  0
   48.4380   31.2960   47.9560 H   0  0  0  0  0  0  0  0  0  0  0  0
   46.6390   31.6040   48.9720 N   0  0  0  0  0  0  0  0  0  0  0  0
   46.9410   30.7120   49.4190 H   0  0  0  0  0  0  0  0  0  0  0  0
   45.3350   31.4910   48.3410 C   0  0  0  0  0  0  0  0  0  0  0  0
   45.0320   32.8920   47.7960 C   0  0  0  0  0  0  0  0  0  0  0  0
  1  2  1  0  0  0  0
  1 19  1  0  0  0  0
  2  7  1  0  0  0  0
  3  8  1  0  0  0  0
  3  2  2  0  0  0  0
  4  3  1  0  0  0  0
  5  4  2  0  0  0  0
  5  6  1  0  0  0  0
  6  1  2  0  0  0  0
  9  5  1  0  0  0  0
 10  9  1  0  0  0  0
 10 15  1  0  0  0  0
 11 10  2  0  0  0  0
 12 13  2  0  0  0  0
 12 11  1  0  0  0  0
 13 14  1  0  0  0  0
 14  9  2  0  0  0  0
 16 11  1  0  0  0  0
 17 12  1  0  0  0  0
 18 13  1  0  0  0  0
 19 20  1  0  0  0  0
 19 27  1  0  0  0  0
 20 22  1  0  0  0  0
 21 20  1  0  0  0  0
 22 24  1  0  0  0  0
 23 22  1  0  0  0  0
 24 25  1  0  0  0  0
 26 24  1  0  0  0  0
 27 26  1  0  0  0  0
M  END
>  <minimizedAffinity>
-6.05242538

>  <minimizedRMSD>
0.812467277

$$$$
