
 OpenBabel03252509283D

 21 22  0  0  0  0  0  0  0  0999 V2000
   45.7030   33.3820   42.1320 C   0  0  0  0  0  0  0  0  0  0  0  0
   44.7850   33.2300   41.5300 H   0  0  0  0  0  0  0  0  0  0  0  0
   46.0260   32.3420   42.4090 H   0  0  0  0  0  0  0  0  0  0  0  0
   44.4640   35.9990   44.4640 C   0  0  0  0  0  0  0  0  0  0  0  0
   44.8070   35.3380   43.2580 C   0  0  0  0  0  0  0  0  0  0  0  0
   45.3520   34.0560   43.3850 C   0  0  0  0  0  0  0  0  0  0  0  0
   45.5300   33.5070   44.6140 N   0  0  0  0  0  0  0  0  0  0  0  0
   45.1790   34.1980   45.7390 C   0  0  0  0  0  0  0  0  0  0  0  0
   44.6550   35.4240   45.6580 N   0  0  0  0  0  0  0  0  0  0  0  0
   44.0360   36.9920   44.4610 H   0  0  0  0  0  0  0  0  0  0  0  0
   44.6350   35.8390   42.3160 H   0  0  0  0  0  0  0  0  0  0  0  0
   45.3220   33.7590   46.7250 H   0  0  0  0  0  0  0  0  0  0  0  0
   46.7850   33.9660   41.4090 N   0  0  0  0  0  0  0  0  0  0  0  0
   48.0230   33.4320   41.9500 C   0  0  0  0  0  3  0  0  0  0  0  0
   48.7160   34.2530   42.2460 H   0  0  0  0  0  0  0  0  0  0  0  0
   48.7650   32.5920   40.9370 C   0  0  0  0  0  3  0  0  0  0  0  0
   48.1850   31.7140   40.6010 H   0  0  0  0  0  0  0  0  0  0  0  0
   49.1600   33.4340   39.8460 N   0  0  0  0  0  0  0  0  0  0  0  0
   49.9150   34.0850   40.1380 H   0  0  0  0  0  0  0  0  0  0  0  0
   48.0390   34.2390   39.3810 C   0  0  0  0  0  2  0  0  0  0  0  0
   46.7300   33.7400   39.9940 C   0  0  0  0  0  2  0  0  0  0  0  0
  1  3  1  0  0  0  0
  1  6  1  0  0  0  0
  2  1  1  0  0  0  0
  4  9  1  0  0  0  0
  5  6  1  0  0  0  0
  5  4  2  0  0  0  0
  6  7  2  0  0  0  0
  7  8  1  0  0  0  0
  8 12  1  0  0  0  0
  9  8  2  0  0  0  0
 10  4  1  0  0  0  0
 11  5  1  0  0  0  0
 13 14  1  0  0  0  0
 13  1  1  0  0  0  0
 14 15  1  0  0  0  0
 16 14  1  0  0  0  0
 17 16  1  0  0  0  0
 18 19  1  0  0  0  0
 18 16  1  0  0  0  0
 20 18  1  0  0  0  0
 20 21  1  0  0  0  0
 21 13  1  0  0  0  0
M  END
>  <minimizedAffinity>
-3.75512838

>  <minimizedRMSD>
2.09877038

$$$$
