
 OpenBabel03252503553D

 20 21  0  0  0  0  0  0  0  0999 V2000
   46.0900   34.6350   43.4910 C   0  0  0  0  0  0  0  0  0  0  0  0
   45.1600   35.6610   43.6750 C   0  0  0  0  0  0  0  0  0  0  0  0
   44.5130   35.7250   44.9160 C   0  0  0  0  0  0  0  0  0  0  0  0
   44.8350   34.7850   45.8610 N   0  0  0  0  0  0  0  0  0  0  0  0
   45.7420   33.8120   45.6380 C   0  0  0  0  0  0  0  0  0  0  0  0
   46.3630   33.7480   44.4460 N   0  0  0  0  0  0  0  0  0  0  0  0
   44.8950   36.4110   42.9390 H   0  0  0  0  0  0  0  0  0  0  0  0
   43.7890   36.5000   45.1010 H   0  0  0  0  0  0  0  0  0  0  0  0
   46.0080   32.8820   46.6820 N   0  0  0  0  0  0  0  0  0  0  0  0
   47.2020   32.0700   46.5470 C   0  0  0  0  0  0  0  0  0  0  0  0
   48.0610   32.7740   46.3950 H   0  0  0  0  0  0  0  0  0  0  0  0
   47.5200   31.2640   47.7550 C   0  0  0  0  0  0  0  0  0  0  0  0
   47.1380   30.2160   47.6680 H   0  0  0  0  0  0  0  0  0  0  0  0
   46.9940   31.8800   48.9590 N   0  0  0  0  0  0  0  0  0  0  0  0
   47.4010   32.8160   49.0630 H   0  0  0  0  0  0  0  0  0  0  0  0
   45.5410   31.9320   48.8930 C   0  0  0  0  0  0  0  0  0  0  0  0
   45.0760   32.8170   47.7880 C   0  0  0  0  0  0  0  0  0  0  0  0
   46.7210   34.6180   42.1990 C   0  0  0  0  0  0  0  0  0  0  0  0
   47.7350   35.3090   41.8580 O   0  0  0  0  0  0  0  0  0  0  0  0
   46.1500   33.9070   41.6070 H   0  0  0  0  0  0  0  0  0  0  0  0
  1  2  2  0  0  0  0
  1  6  1  0  0  0  0
  2  3  1  0  0  0  0
  3  8  1  0  0  0  0
  3  4  2  0  0  0  0
  5  4  1  0  0  0  0
  5  9  1  0  0  0  0
  6  5  2  0  0  0  0
  7  2  1  0  0  0  0
  9 17  1  0  0  0  0
 10  9  1  0  0  0  0
 10 12  1  0  0  0  0
 11 10  1  0  0  0  0
 12 14  1  0  0  0  0
 13 12  1  0  0  0  0
 14 15  1  0  0  0  0
 16 14  1  0  0  0  0
 17 16  1  0  0  0  0
 18  1  1  0  0  0  0
 19 18  2  0  0  0  0
 20 18  1  0  0  0  0
M  END
>  <minimizedAffinity>
-4.890172

>  <minimizedRMSD>
0.500222743

$$$$
