
 OpenBabel03252506273D

 47 51  0  0  0  0  0  0  0  0999 V2000
   46.2650   32.9620   46.0570 C   0  0  0  0  0  0  0  0  0  0  0  0
   47.3250   32.0700   45.8550 C   0  0  0  0  0  0  0  0  0  0  0  0
   47.4350   31.2830   46.9520 C   0  0  0  0  0  0  0  0  0  0  0  0
   46.4810   31.6740   47.8000 N   0  0  0  0  0  0  0  0  0  0  0  0
   45.7830   32.6740   47.2710 N   0  0  0  0  0  0  0  0  0  0  0  0
   47.9750   31.9760   44.9990 H   0  0  0  0  0  0  0  0  0  0  0  0
   48.1400   30.4700   47.1700 H   0  0  0  0  0  0  0  0  0  0  0  0
   44.5210   35.8210   44.6000 C   0  0  0  0  0  0  0  0  0  0  0  0
   45.0170   35.8760   43.3100 C   0  0  0  0  0  0  0  0  0  0  0  0
   45.9610   34.9190   42.9410 C   0  0  0  0  0  0  0  0  0  0  0  0
   46.3220   34.0090   43.8660 N   0  0  0  0  0  0  0  0  0  0  0  0
   45.8390   33.9710   45.0940 C   0  0  0  0  0  0  0  0  0  0  0  0
   44.9340   34.8850   45.4550 N   0  0  0  0  0  0  0  0  0  0  0  0
   43.7890   36.5830   44.8500 H   0  0  0  0  0  0  0  0  0  0  0  0
   44.7740   36.5700   42.5290 H   0  0  0  0  0  0  0  0  0  0  0  0
   46.6130   34.7660   41.6850 N   0  0  0  0  0  0  0  0  0  0  0  0
   46.0300   34.1600   40.5040 C   0  0  0  0  0  0  0  0  0  0  0  0
   45.4540   34.9370   39.9440 H   0  0  0  0  0  0  0  0  0  0  0  0
   47.1240   33.6590   39.5850 C   0  0  0  0  0  0  0  0  0  0  0  0
   47.6550   34.4910   39.0810 H   0  0  0  0  0  0  0  0  0  0  0  0
   48.1190   32.9710   40.4000 N   0  0  0  0  0  0  0  0  0  0  0  0
   48.8050   32.4810   39.7590 H   0  0  0  0  0  0  0  0  0  0  0  0
   48.8760   33.9930   41.1010 C   0  0  0  0  0  0  0  0  0  0  0  0
   47.9620   35.1790   41.3480 C   0  0  0  0  0  0  0  0  0  0  0  0
   46.2340   31.1000   49.1080 C   0  0  0  0  0  0  0  0  0  0  0  0
   46.9940   30.3430   49.3490 H   0  0  0  0  0  0  0  0  0  0  0  0
   46.2710   31.8540   49.9290 H   0  0  0  0  0  0  0  0  0  0  0  0
   44.9050   30.4390   49.1420 C   0  0  0  0  0  0  0  0  0  0  0  0
   44.6450   30.2420   50.2080 H   0  0  0  0  0  0  0  0  0  0  0  0
   44.1250   31.1710   48.8060 H   0  0  0  0  0  0  0  0  0  0  0  0
   44.9070   27.8840   48.9010 C   0  0  0  0  0  0  0  0  0  0  0  0
   44.7730   29.1750   48.4280 C   0  0  0  0  0  0  0  0  0  0  0  0
   44.4700   29.3050   47.0770 C   0  0  0  0  0  0  0  0  0  0  0  0
   44.3100   28.2150   46.2600 C   0  0  0  0  0  0  0  0  0  0  0  0
   44.0230   28.0400   44.9530 N   0  0  0  0  0  0  0  0  0  0  0  0
   43.9790   26.7460   44.6310 C   0  0  0  0  0  0  0  0  0  0  0  0
   44.2490   25.9930   45.7690 C   0  0  0  0  0  0  0  0  0  0  0  0
   44.4440   26.9400   46.7380 C   0  0  0  0  0  0  0  0  0  0  0  0
   44.7470   26.8010   48.0840 C   0  0  0  0  0  0  0  0  0  0  0  0
   45.1440   27.8290   49.9620 H   0  0  0  0  0  0  0  0  0  0  0  0
   44.3390   30.2580   46.5840 H   0  0  0  0  0  0  0  0  0  0  0  0
   43.8530   28.8290   44.2640 H   0  0  0  0  0  0  0  0  0  0  0  0
   43.7690   26.3240   43.6510 H   0  0  0  0  0  0  0  0  0  0  0  0
   44.3000   24.9320   45.8950 H   0  0  0  0  0  0  0  0  0  0  0  0
   44.9030   25.4680   48.6530 C   0  0  0  0  0  0  0  0  0  0  0  0
   45.1930   25.2960   49.8620 O   0  0  0  0  0  0  0  0  0  0  0  0
   44.7790   24.5590   48.0690 H   0  0  0  0  0  0  0  0  0  0  0  0
  1  5  2  0  0  0  0
  2  1  1  0  0  0  0
  2  3  2  0  0  0  0
  3  7  1  0  0  0  0
  3  4  1  0  0  0  0
  4 25  1  0  0  0  0
  5  4  1  0  0  0  0
  6  2  1  0  0  0  0
  8 14  1  0  0  0  0
  8 13  1  0  0  0  0
  9  8  2  0  0  0  0
 10  9  1  0  0  0  0
 10 11  2  0  0  0  0
 11 12  1  0  0  0  0
 12 13  2  0  0  0  0
 12  1  1  0  0  0  0
 15  9  1  0  0  0  0
 16 10  1  0  0  0  0
 17 16  1  0  0  0  0
 18 17  1  0  0  0  0
 19 21  1  0  0  0  0
 19 17  1  0  0  0  0
 20 19  1  0  0  0  0
 21 23  1  0  0  0  0
 22 21  1  0  0  0  0
 23 24  1  0  0  0  0
 24 16  1  0  0  0  0
 25 28  1  0  0  0  0
 25 26  1  0  0  0  0
 25 27  1  0  0  0  0
 28 29  1  0  0  0  0
 30 28  1  0  0  0  0
 31 40  1  0  0  0  0
 32 31  1  0  0  0  0
 32 28  1  0  0  0  0
 33 32  2  0  0  0  0
 34 38  2  0  0  0  0
 34 33  1  0  0  0  0
 35 34  1  0  0  0  0
 36 35  1  0  0  0  0
 36 37  2  0  0  0  0
 37 44  1  0  0  0  0
 37 38  1  0  0  0  0
 38 39  1  0  0  0  0
 39 45  1  0  0  0  0
 39 31  2  0  0  0  0
 41 33  1  0  0  0  0
 42 35  1  0  0  0  0
 43 36  1  0  0  0  0
 45 46  2  0  0  0  0
 47 45  1  0  0  0  0
M  END
>  <minimizedAffinity>
-5.7769289

>  <minimizedRMSD>
1.16533053

$$$$
