
 OpenBabel03252509283D

 21 22  0  0  0  0  0  0  0  0999 V2000
   43.8980   34.9090   41.0850 C   0  0  0  0  0  0  0  0  0  0  0  0
   44.2050   34.6180   40.0600 H   0  0  0  0  0  0  0  0  0  0  0  0
   43.8000   36.0270   41.0360 H   0  0  0  0  0  0  0  0  0  0  0  0
   47.3500   34.4010   42.3670 C   0  0  0  0  0  0  0  0  0  0  0  0
   46.2830   34.6710   41.4750 C   0  0  0  0  0  0  0  0  0  0  0  0
   44.9940   34.6280   42.0160 C   0  0  0  0  0  0  0  0  0  0  0  0
   44.8130   34.3380   43.3290 N   0  0  0  0  0  0  0  0  0  0  0  0
   45.8850   34.0860   44.1370 C   0  0  0  0  0  0  0  0  0  0  0  0
   47.1310   34.1190   43.6580 N   0  0  0  0  0  0  0  0  0  0  0  0
   48.3800   34.4130   42.0360 H   0  0  0  0  0  0  0  0  0  0  0  0
   46.5050   34.8950   40.4410 H   0  0  0  0  0  0  0  0  0  0  0  0
   45.7410   33.8530   45.1910 H   0  0  0  0  0  0  0  0  0  0  0  0
   42.6220   34.4050   41.4770 N   0  0  0  0  0  0  0  0  0  0  0  0
   41.7020   35.5260   41.5470 C   0  0  0  0  0  3  0  0  0  0  0  0
   41.1940   35.5650   42.5400 H   0  0  0  0  0  0  0  0  0  0  0  0
   40.6050   35.4210   40.5130 C   0  0  0  0  0  3  0  0  0  0  0  0
   40.9910   35.4200   39.4780 H   0  0  0  0  0  0  0  0  0  0  0  0
   39.8130   34.2610   40.8010 N   0  0  0  0  0  0  0  0  0  0  0  0
   39.2470   34.4070   41.6590 H   0  0  0  0  0  0  0  0  0  0  0  0
   40.6610   33.0970   41.0240 C   0  0  0  0  0  2  0  0  0  0  0  0
   42.1000   33.3940   40.6020 C   0  0  0  0  0  2  0  0  0  0  0  0
  1 13  1  0  0  0  0
  1  6  1  0  0  0  0
  2  1  1  0  0  0  0
  3  1  1  0  0  0  0
  4  9  1  0  0  0  0
  5  6  1  0  0  0  0
  5  4  2  0  0  0  0
  6  7  2  0  0  0  0
  7  8  1  0  0  0  0
  8 12  1  0  0  0  0
  9  8  2  0  0  0  0
 10  4  1  0  0  0  0
 11  5  1  0  0  0  0
 13 14  1  0  0  0  0
 14 15  1  0  0  0  0
 16 18  1  0  0  0  0
 16 14  1  0  0  0  0
 17 16  1  0  0  0  0
 18 20  1  0  0  0  0
 18 19  1  0  0  0  0
 21 20  1  0  0  0  0
 21 13  1  0  0  0  0
M  END
>  <minimizedAffinity>
-3.49870014

>  <minimizedRMSD>
6.2842207

$$$$
