
 OpenBabel03252508313D

 32 34  0  0  1  0  0  0  0  0999 V2000
   44.5640   33.8390   42.0840 N   0  0  0  0  0  0  0  0  0  0  0  0
   45.1920   33.3100   40.9260 C   0  0  1  0  0  0  0  0  0  0  0  0
   44.4900   33.5920   39.6390 C   0  0  0  0  0  0  0  0  0  0  0  0
   43.0910   33.4840   39.6880 N   0  0  0  0  0  0  0  0  0  0  0  0
   42.4560   33.9780   40.8520 C   0  0  0  0  0  0  0  0  0  0  0  0
   43.4290   34.6680   41.7920 C   0  0  0  0  0  0  0  0  0  0  0  0
   45.1760   32.1900   41.0360 H   0  0  0  0  0  0  0  0  0  0  0  0
   44.7220   34.6610   39.3600 H   0  0  0  0  0  0  0  0  0  0  0  0
   44.9110   32.9750   38.8330 H   0  0  0  0  0  0  0  0  0  0  0  0
   42.8170   32.4700   39.5560 H   0  0  0  0  0  0  0  0  0  0  0  0
   41.8530   33.2330   41.4240 H   0  0  0  0  0  0  0  0  0  0  0  0
   41.7340   34.7590   40.5190 H   0  0  0  0  0  0  0  0  0  0  0  0
   43.7610   35.5970   41.2350 H   0  0  0  0  0  0  0  0  0  0  0  0
   42.8750   35.0540   42.6450 H   0  0  0  0  0  0  0  0  0  0  0  0
   45.1450   34.5590   44.2880 C   0  0  0  0  0  0  0  0  0  0  0  0
   45.0760   33.5290   43.3560 C   0  0  0  0  0  0  0  0  0  0  0  0
   45.5200   32.2860   43.7630 C   0  0  0  0  0  0  0  0  0  0  0  0
   45.9990   32.0960   45.0180 N   0  0  0  0  0  0  0  0  0  0  0  0
   46.0500   33.1320   45.9030 C   0  0  0  0  0  0  0  0  0  0  0  0
   45.6260   34.3470   45.5340 N   0  0  0  0  0  0  0  0  0  0  0  0
   44.8500   35.5910   44.1690 H   0  0  0  0  0  0  0  0  0  0  0  0
   45.4770   31.4680   43.0620 H   0  0  0  0  0  0  0  0  0  0  0  0
   46.4450   32.8920   46.8790 H   0  0  0  0  0  0  0  0  0  0  0  0
   46.5550   33.6570   40.7060 N   0  0  2  0  0  0  0  0  0  0  0  0
   47.5120   32.5960   40.7600 C   0  0  0  0  0  3  0  0  0  0  0  0
   47.1260   31.5870   40.7330 H   0  0  0  0  0  0  0  0  0  0  0  0
   48.4910   32.8610   41.8850 C   0  0  0  0  0  3  0  0  0  0  0  0
   49.1740   31.9770   41.9800 H   0  0  0  0  0  0  0  0  0  0  0  0
   49.2760   34.0440   41.5870 N   0  0  0  0  0  0  0  0  0  0  0  0
   49.6170   34.4390   42.4990 H   0  0  0  0  0  0  0  0  0  0  0  0
   48.4510   35.0710   40.9970 C   0  0  0  0  0  2  0  0  0  0  0  0
   46.9820   34.8520   41.3840 C   0  0  0  0  0  2  0  0  0  0  0  0
  1 16  1  0  0  0  0
  2  7  1  1  0  0  0
  2  1  1  0  0  0  0
  3  4  1  0  0  0  0
  3  2  1  0  0  0  0
  4  5  1  0  0  0  0
  5 11  1  0  0  0  0
  5  6  1  0  0  0  0
  6  1  1  0  0  0  0
  6 14  1  0  0  0  0
  8  3  1  0  0  0  0
  9  3  1  0  0  0  0
 10  4  1  0  0  0  0
 12  5  1  0  0  0  0
 13  6  1  0  0  0  0
 15 20  1  0  0  0  0
 16 17  1  0  0  0  0
 16 15  2  0  0  0  0
 17 18  2  0  0  0  0
 18 19  1  0  0  0  0
 19 23  1  0  0  0  0
 20 19  2  0  0  0  0
 21 15  1  0  0  0  0
 22 17  1  0  0  0  0
 24 25  1  0  0  0  0
 24  2  1  0  0  0  0
 24 32  1  1  0  0  0
 25 27  1  0  0  0  0
 26 25  1  0  0  0  0
 27 28  1  0  0  0  0
 29 27  1  0  0  0  0
 29 30  1  0  0  0  0
 31 32  1  0  0  0  0
 31 29  1  0  0  0  0
M  END
>  <minimizedAffinity>
-4.01412106

>  <minimizedRMSD>
1.2107302

$$$$
