
 OpenBabel03252501463D

 23 24  0  0  0  0  0  0  0  0999 V2000
   36.5110   29.4740   41.8040 C   0  0  0  0  0  0  0  0  0  0  0  0
   37.2960   30.1380   40.8640 C   0  0  0  0  0  0  0  0  0  0  0  0
   38.4880   29.5320   40.4800 C   0  0  0  0  0  0  0  0  0  0  0  0
   38.8230   28.3210   41.0450 N   0  0  0  0  0  0  0  0  0  0  0  0
   38.0280   27.7250   41.9480 C   0  0  0  0  0  0  0  0  0  0  0  0
   36.8830   28.3010   42.3210 N   0  0  0  0  0  0  0  0  0  0  0  0
   35.5730   29.9250   42.1230 H   0  0  0  0  0  0  0  0  0  0  0  0
   39.1150   30.0310   39.7500 H   0  0  0  0  0  0  0  0  0  0  0  0
   38.4330   26.4710   42.4950 N   0  0  0  0  0  0  0  0  0  0  0  0
   37.7650   25.2650   42.0360 C   0  0  0  0  0  3  0  0  0  0  0  0
   37.1890   25.4810   41.1100 H   0  0  0  0  0  0  0  0  0  0  0  0
   38.8050   24.2070   41.8380 C   0  0  0  0  0  3  0  0  0  0  0  0
   38.2970   23.2540   41.5750 H   0  0  0  0  0  0  0  0  0  0  0  0
   39.4270   23.9780   43.1440 N   0  0  0  0  0  0  0  0  0  0  0  0
   40.0820   23.1600   43.0160 H   0  0  0  0  0  0  0  0  0  0  0  0
   40.2690   25.1250   43.4180 C   0  0  0  0  0  2  0  0  0  0  0  0
   39.4840   26.4080   43.4810 C   0  0  0  0  0  2  0  0  0  0  0  0
   36.9280   31.4130   40.2800 C   0  0  0  0  0  3  0  0  0  0  0  0
   37.7400   32.4490   40.0990 C   0  0  0  0  0  3  0  0  0  0  0  0
   37.2470   33.7180   39.4820 C   0  0  0  0  0  0  0  0  0  0  0  0
   37.8380   34.5650   39.8890 H   0  0  0  0  0  0  0  0  0  0  0  0
   37.2780   33.6710   38.3760 H   0  0  0  0  0  0  0  0  0  0  0  0
   36.1800   33.8100   39.7690 H   0  0  0  0  0  0  0  0  0  0  0  0
  1  7  1  0  0  0  0
  1  6  1  0  0  0  0
  2  1  2  0  0  0  0
  3  2  1  0  0  0  0
  3  4  2  0  0  0  0
  4  5  1  0  0  0  0
  5  6  2  0  0  0  0
  5  9  1  0  0  0  0
  8  3  1  0  0  0  0
  9 17  1  0  0  0  0
 10  9  1  0  0  0  0
 11 10  1  0  0  0  0
 12 10  1  0  0  0  0
 12 14  1  0  0  0  0
 13 12  1  0  0  0  0
 14 16  1  0  0  0  0
 15 14  1  0  0  0  0
 16 17  1  0  0  0  0
 18  2  1  0  0  0  0
 19 18  2  0  0  0  0
 20 23  1  0  0  0  0
 20 21  1  0  0  0  0
 20 19  1  0  0  0  0
 22 20  1  0  0  0  0
M  END
>  <minimizedAffinity>
-4.54579306

$$$$

 OpenBabel03252501463D

 23 24  0  0  0  0  0  0  0  0999 V2000
   38.2500   28.8400   43.0890 C   0  0  0  0  0  0  0  0  0  0  0  0
   37.8460   28.0650   42.0040 C   0  0  0  0  0  0  0  0  0  0  0  0
   38.1020   28.5630   40.7300 C   0  0  0  0  0  0  0  0  0  0  0  0
   38.7330   29.7820   40.6130 N   0  0  0  0  0  0  0  0  0  0  0  0
   39.1000   30.4880   41.6960 C   0  0  0  0  0  0  0  0  0  0  0  0
   38.8570   30.0160   42.9210 N   0  0  0  0  0  0  0  0  0  0  0  0
   38.0620   28.4750   44.0980 H   0  0  0  0  0  0  0  0  0  0  0  0
   37.7960   27.9770   39.8700 H   0  0  0  0  0  0  0  0  0  0  0  0
   39.7500   31.7430   41.5060 N   0  0  0  0  0  0  0  0  0  0  0  0
   41.1820   31.8270   41.7380 C   0  0  0  0  0  3  0  0  0  0  0  0
   41.6170   30.8040   41.7890 H   0  0  0  0  0  0  0  0  0  0  0  0
   41.7800   32.6570   40.6470 C   0  0  0  0  0  3  0  0  0  0  0  0
   42.8600   32.8050   40.8640 H   0  0  0  0  0  0  0  0  0  0  0  0
   41.1710   33.9860   40.7470 N   0  0  0  0  0  0  0  0  0  0  0  0
   41.6750   34.5910   40.0440 H   0  0  0  0  0  0  0  0  0  0  0  0
   39.8100   33.8630   40.2660 C   0  0  0  0  0  2  0  0  0  0  0  0
   38.9970   32.9020   41.0920 C   0  0  0  0  0  2  0  0  0  0  0  0
   37.1830   26.7840   42.1450 C   0  0  0  0  0  3  0  0  0  0  0  0
   37.5150   25.6630   41.5130 C   0  0  0  0  0  3  0  0  0  0  0  0
   36.7550   24.3950   41.7390 C   0  0  0  0  0  0  0  0  0  0  0  0
   36.7990   23.7850   40.8130 H   0  0  0  0  0  0  0  0  0  0  0  0
   37.1300   23.8500   42.6270 H   0  0  0  0  0  0  0  0  0  0  0  0
   35.7110   24.6940   41.9640 H   0  0  0  0  0  0  0  0  0  0  0  0
  1  7  1  0  0  0  0
  2 18  1  0  0  0  0
  2  1  2  0  0  0  0
  3  2  1  0  0  0  0
  4  3  2  0  0  0  0
  4  5  1  0  0  0  0
  5  6  2  0  0  0  0
  6  1  1  0  0  0  0
  8  3  1  0  0  0  0
  9  5  1  0  0  0  0
  9 10  1  0  0  0  0
 10 11  1  0  0  0  0
 12 14  1  0  0  0  0
 12 13  1  0  0  0  0
 12 10  1  0  0  0  0
 15 14  1  0  0  0  0
 16 14  1  0  0  0  0
 16 17  1  0  0  0  0
 17  9  1  0  0  0  0
 19 20  1  0  0  0  0
 19 18  2  0  0  0  0
 20 23  1  0  0  0  0
 20 22  1  0  0  0  0
 21 20  1  0  0  0  0
M  END
>  <minimizedAffinity>
-4.35821486

$$$$

 OpenBabel03252501463D

 23 24  0  0  0  0  0  0  0  0999 V2000
   38.9520   29.6370   40.0880 C   0  0  0  0  0  0  0  0  0  0  0  0
   38.0860   30.3910   40.8760 C   0  0  0  0  0  0  0  0  0  0  0  0
   37.4420   29.7410   41.9240 C   0  0  0  0  0  0  0  0  0  0  0  0
   37.6920   28.4010   42.1220 N   0  0  0  0  0  0  0  0  0  0  0  0
   38.5380   27.7220   41.3300 C   0  0  0  0  0  0  0  0  0  0  0  0
   39.1590   28.3390   40.3220 N   0  0  0  0  0  0  0  0  0  0  0  0
   39.4700   30.1200   39.2610 H   0  0  0  0  0  0  0  0  0  0  0  0
   36.7630   30.3090   42.5510 H   0  0  0  0  0  0  0  0  0  0  0  0
   38.7530   26.3360   41.5890 N   0  0  0  0  0  0  0  0  0  0  0  0
   40.0020   25.9320   42.2120 C   0  0  0  0  0  3  0  0  0  0  0  0
   40.5170   26.8210   42.6390 H   0  0  0  0  0  0  0  0  0  0  0  0
   39.6890   24.8930   43.2430 C   0  0  0  0  0  3  0  0  0  0  0  0
   40.6450   24.5100   43.6630 H   0  0  0  0  0  0  0  0  0  0  0  0
   39.0870   23.7630   42.5320 N   0  0  0  0  0  0  0  0  0  0  0  0
   38.9680   22.9970   43.2500 H   0  0  0  0  0  0  0  0  0  0  0  0
   37.7480   24.1660   42.1540 C   0  0  0  0  0  2  0  0  0  0  0  0
   37.7500   25.3610   41.2370 C   0  0  0  0  0  2  0  0  0  0  0  0
   37.8340   31.8010   40.6540 C   0  0  0  0  0  3  0  0  0  0  0  0
   37.4200   32.3480   39.5160 C   0  0  0  0  0  3  0  0  0  0  0  0
   37.1910   33.8210   39.4050 C   0  0  0  0  0  0  0  0  0  0  0  0
   37.3840   34.1340   38.3570 H   0  0  0  0  0  0  0  0  0  0  0  0
   36.1780   34.1020   39.7530 H   0  0  0  0  0  0  0  0  0  0  0  0
   37.9130   34.3010   40.0970 H   0  0  0  0  0  0  0  0  0  0  0  0
  1  6  2  0  0  0  0
  1  2  1  0  0  0  0
  2  3  2  0  0  0  0
  3  4  1  0  0  0  0
  3  8  1  0  0  0  0
  5  9  1  0  0  0  0
  5  4  2  0  0  0  0
  6  5  1  0  0  0  0
  7  1  1  0  0  0  0
  9 10  1  0  0  0  0
 10 11  1  0  0  0  0
 10 12  1  0  0  0  0
 12 13  1  0  0  0  0
 14 12  1  0  0  0  0
 14 15  1  0  0  0  0
 16 14  1  0  0  0  0
 17  9  1  0  0  0  0
 17 16  1  0  0  0  0
 18  2  1  0  0  0  0
 19 18  2  0  0  0  0
 20 19  1  0  0  0  0
 20 22  1  0  0  0  0
 20 23  1  0  0  0  0
 21 20  1  0  0  0  0
M  END
>  <minimizedAffinity>
-4.26862431

$$$$

 OpenBabel03252501463D

 23 24  0  0  0  0  0  0  0  0999 V2000
   37.3990   27.0930   42.5440 C   0  0  0  0  0  0  0  0  0  0  0  0
   37.5940   26.3120   41.4070 C   0  0  0  0  0  0  0  0  0  0  0  0
   37.8790   26.9740   40.2170 C   0  0  0  0  0  0  0  0  0  0  0  0
   37.9520   28.3500   40.2280 N   0  0  0  0  0  0  0  0  0  0  0  0
   37.7550   29.0520   41.3560 C   0  0  0  0  0  0  0  0  0  0  0  0
   37.4800   28.4240   42.5010 N   0  0  0  0  0  0  0  0  0  0  0  0
   37.1740   26.6010   43.4900 H   0  0  0  0  0  0  0  0  0  0  0  0
   38.0350   26.3870   39.3180 H   0  0  0  0  0  0  0  0  0  0  0  0
   37.8440   30.4750   41.2990 N   0  0  0  0  0  0  0  0  0  0  0  0
   39.0260   31.1190   41.8480 C   0  0  0  0  0  3  0  0  0  0  0  0
   39.8270   30.3640   42.0090 H   0  0  0  0  0  0  0  0  0  0  0  0
   39.4370   32.2080   40.9070 C   0  0  0  0  0  3  0  0  0  0  0  0
   40.2840   32.7670   41.3600 H   0  0  0  0  0  0  0  0  0  0  0  0
   38.3220   33.1570   40.8500 N   0  0  0  0  0  0  0  0  0  0  0  0
   38.6620   33.9710   40.2700 H   0  0  0  0  0  0  0  0  0  0  0  0
   37.2710   32.5270   40.0760 C   0  0  0  0  0  2  0  0  0  0  0  0
   36.7820   31.2530   40.7110 C   0  0  0  0  0  2  0  0  0  0  0  0
   37.5140   24.8650   41.4120 C   0  0  0  0  0  3  0  0  0  0  0  0
   37.8100   24.0660   40.3930 C   0  0  0  0  0  3  0  0  0  0  0  0
   37.6900   22.5810   40.5150 C   0  0  0  0  0  0  0  0  0  0  0  0
   37.4510   22.1600   39.5160 H   0  0  0  0  0  0  0  0  0  0  0  0
   38.6020   22.1350   40.9580 H   0  0  0  0  0  0  0  0  0  0  0  0
   36.8630   22.3940   41.2290 H   0  0  0  0  0  0  0  0  0  0  0  0
  1  7  1  0  0  0  0
  2 18  1  0  0  0  0
  2  1  2  0  0  0  0
  3  4  2  0  0  0  0
  3  2  1  0  0  0  0
  4  5  1  0  0  0  0
  5  6  2  0  0  0  0
  6  1  1  0  0  0  0
  8  3  1  0  0  0  0
  9  5  1  0  0  0  0
  9 10  1  0  0  0  0
 10 11  1  0  0  0  0
 12 13  1  0  0  0  0
 12 10  1  0  0  0  0
 14 12  1  0  0  0  0
 15 14  1  0  0  0  0
 16 17  1  0  0  0  0
 16 14  1  0  0  0  0
 17  9  1  0  0  0  0
 19 20  1  0  0  0  0
 19 18  2  0  0  0  0
 20 22  1  0  0  0  0
 20 23  1  0  0  0  0
 21 20  1  0  0  0  0
M  END
>  <minimizedAffinity>
-4.23965693

$$$$

 OpenBabel03252501463D

 23 24  0  0  0  0  0  0  0  0999 V2000
   35.8030   30.2220   40.3330 C   0  0  0  0  0  0  0  0  0  0  0  0
   35.8650   29.7070   39.0400 C   0  0  0  0  0  0  0  0  0  0  0  0
   36.9560   30.0700   38.2570 C   0  0  0  0  0  0  0  0  0  0  0  0
   37.9050   30.9100   38.7960 N   0  0  0  0  0  0  0  0  0  0  0  0
   37.7940   31.3780   40.0500 C   0  0  0  0  0  0  0  0  0  0  0  0
   36.7500   31.0340   40.8080 N   0  0  0  0  0  0  0  0  0  0  0  0
   34.9600   29.9550   40.9690 H   0  0  0  0  0  0  0  0  0  0  0  0
   37.0250   29.6800   37.2470 H   0  0  0  0  0  0  0  0  0  0  0  0
   38.8110   32.2450   40.5490 N   0  0  0  0  0  0  0  0  0  0  0  0
   39.7730   31.7120   41.5000 C   0  0  0  0  0  3  0  0  0  0  0  0
   39.7230   30.6010   41.5060 H   0  0  0  0  0  0  0  0  0  0  0  0
   41.1270   32.2290   41.1270 C   0  0  0  0  0  3  0  0  0  0  0  0
   41.8570   31.9030   41.8990 H   0  0  0  0  0  0  0  0  0  0  0  0
   41.0640   33.6880   41.2320 N   0  0  0  0  0  0  0  0  0  0  0  0
   42.0480   34.0360   41.0710 H   0  0  0  0  0  0  0  0  0  0  0  0
   40.2850   34.1600   40.1050 C   0  0  0  0  0  2  0  0  0  0  0  0
   38.8800   33.6190   40.1170 C   0  0  0  0  0  2  0  0  0  0  0  0
   34.8580   28.8230   38.4870 C   0  0  0  0  0  3  0  0  0  0  0  0
   34.2620   28.9640   37.3080 C   0  0  0  0  0  3  0  0  0  0  0  0
   33.2330   27.9850   36.8400 C   0  0  0  0  0  0  0  0  0  0  0  0
   32.5160   28.5120   36.1770 H   0  0  0  0  0  0  0  0  0  0  0  0
   33.7010   27.1090   36.3510 H   0  0  0  0  0  0  0  0  0  0  0  0
   32.7240   27.6100   37.7510 H   0  0  0  0  0  0  0  0  0  0  0  0
  1  6  1  0  0  0  0
  1  7  1  0  0  0  0
  2  1  2  0  0  0  0
  3  4  2  0  0  0  0
  3  2  1  0  0  0  0
  4  5  1  0  0  0  0
  5  9  1  0  0  0  0
  5  6  2  0  0  0  0
  8  3  1  0  0  0  0
  9 10  1  0  0  0  0
 10 11  1  0  0  0  0
 12 14  1  0  0  0  0
 12 10  1  0  0  0  0
 12 13  1  0  0  0  0
 15 14  1  0  0  0  0
 16 17  1  0  0  0  0
 16 14  1  0  0  0  0
 17  9  1  0  0  0  0
 18  2  1  0  0  0  0
 19 18  2  0  0  0  0
 20 19  1  0  0  0  0
 20 23  1  0  0  0  0
 21 20  1  0  0  0  0
 22 20  1  0  0  0  0
M  END
>  <minimizedAffinity>
-4.1822691

$$$$

 OpenBabel03252501463D

 23 24  0  0  0  0  0  0  0  0999 V2000
   36.6430   29.2270   40.9220 C   0  0  0  0  0  0  0  0  0  0  0  0
   37.4840   28.2070   41.3590 C   0  0  0  0  0  0  0  0  0  0  0  0
   38.8560   28.4240   41.2690 C   0  0  0  0  0  0  0  0  0  0  0  0
   39.3010   29.6220   40.7560 N   0  0  0  0  0  0  0  0  0  0  0  0
   38.4430   30.5720   40.3490 C   0  0  0  0  0  0  0  0  0  0  0  0
   37.1260   30.3700   40.4330 N   0  0  0  0  0  0  0  0  0  0  0  0
   35.5650   29.0840   40.9820 H   0  0  0  0  0  0  0  0  0  0  0  0
   39.5300   27.6430   41.6030 H   0  0  0  0  0  0  0  0  0  0  0  0
   38.9700   31.7910   39.8280 N   0  0  0  0  0  0  0  0  0  0  0  0
   38.9170   32.9820   40.6600 C   0  0  0  0  0  3  0  0  0  0  0  0
   38.6950   32.6980   41.7120 H   0  0  0  0  0  0  0  0  0  0  0  0
   40.2210   33.7030   40.5180 C   0  0  0  0  0  3  0  0  0  0  0  0
   40.1600   34.6620   41.0760 H   0  0  0  0  0  0  0  0  0  0  0  0
   40.3450   34.0740   39.1060 N   0  0  0  0  0  0  0  0  0  0  0  0
   41.2130   34.6720   39.0360 H   0  0  0  0  0  0  0  0  0  0  0  0
   40.6370   32.8590   38.3740 C   0  0  0  0  0  2  0  0  0  0  0  0
   39.5400   31.8360   38.5040 C   0  0  0  0  0  2  0  0  0  0  0  0
   36.9990   26.9510   41.8960 C   0  0  0  0  0  3  0  0  0  0  0  0
   37.4190   25.7400   41.5440 C   0  0  0  0  0  3  0  0  0  0  0  0
   36.8430   24.5100   42.1700 C   0  0  0  0  0  0  0  0  0  0  0  0
   36.8920   23.6810   41.4340 H   0  0  0  0  0  0  0  0  0  0  0  0
   37.3510   24.2640   43.1230 H   0  0  0  0  0  0  0  0  0  0  0  0
   35.7910   24.7530   42.4200 H   0  0  0  0  0  0  0  0  0  0  0  0
  1  7  1  0  0  0  0
  1  2  1  0  0  0  0
  2 18  1  0  0  0  0
  3  2  2  0  0  0  0
  3  8  1  0  0  0  0
  4  3  1  0  0  0  0
  5  6  1  0  0  0  0
  5  4  2  0  0  0  0
  6  1  2  0  0  0  0
  9  5  1  0  0  0  0
  9 10  1  0  0  0  0
 10 11  1  0  0  0  0
 12 10  1  0  0  0  0
 12 13  1  0  0  0  0
 14 12  1  0  0  0  0
 15 14  1  0  0  0  0
 16 17  1  0  0  0  0
 16 14  1  0  0  0  0
 17  9  1  0  0  0  0
 19 18  2  0  0  0  0
 19 20  1  0  0  0  0
 20 23  1  0  0  0  0
 20 22  1  0  0  0  0
 21 20  1  0  0  0  0
M  END
>  <minimizedAffinity>
-4.15790701

$$$$

 OpenBabel03252501463D

 23 24  0  0  0  0  0  0  0  0999 V2000
   40.8530   32.3200   37.9400 C   0  0  0  0  0  0  0  0  0  0  0  0
   41.4350   31.1750   37.4020 C   0  0  0  0  0  0  0  0  0  0  0  0
   40.8830   29.9480   37.7580 C   0  0  0  0  0  0  0  0  0  0  0  0
   39.8040   29.9340   38.6140 N   0  0  0  0  0  0  0  0  0  0  0  0
   39.2830   31.0710   39.1030 C   0  0  0  0  0  0  0  0  0  0  0  0
   39.8070   32.2520   38.7660 N   0  0  0  0  0  0  0  0  0  0  0  0
   41.2640   33.2950   37.6780 H   0  0  0  0  0  0  0  0  0  0  0  0
   41.3200   29.0420   37.3510 H   0  0  0  0  0  0  0  0  0  0  0  0
   38.1650   30.9870   39.9860 N   0  0  0  0  0  0  0  0  0  0  0  0
   36.8500   31.3390   39.4760 C   0  0  0  0  0  3  0  0  0  0  0  0
   36.8740   31.3830   38.3650 H   0  0  0  0  0  0  0  0  0  0  0  0
   35.8690   30.3360   39.9950 C   0  0  0  0  0  3  0  0  0  0  0  0
   34.8470   30.6460   39.6880 H   0  0  0  0  0  0  0  0  0  0  0  0
   35.8930   30.4410   41.4560 N   0  0  0  0  0  0  0  0  0  0  0  0
   35.1240   29.8070   41.8070 H   0  0  0  0  0  0  0  0  0  0  0  0
   37.1360   29.8450   41.9020 C   0  0  0  0  0  2  0  0  0  0  0  0
   38.3410   30.5610   41.3520 C   0  0  0  0  0  2  0  0  0  0  0  0
   42.5700   31.2070   36.5020 C   0  0  0  0  0  3  0  0  0  0  0  0
   43.3640   30.1810   36.2130 C   0  0  0  0  0  3  0  0  0  0  0  0
   44.5100   30.3340   35.2660 C   0  0  0  0  0  0  0  0  0  0  0  0
   45.3080   29.6180   35.5550 H   0  0  0  0  0  0  0  0  0  0  0  0
   44.1860   30.2080   34.2140 H   0  0  0  0  0  0  0  0  0  0  0  0
   44.8630   31.3800   35.3700 H   0  0  0  0  0  0  0  0  0  0  0  0
  1  6  1  0  0  0  0
  2  3  1  0  0  0  0
  2  1  2  0  0  0  0
  3  4  2  0  0  0  0
  4  5  1  0  0  0  0
  5  9  1  0  0  0  0
  6  5  2  0  0  0  0
  7  1  1  0  0  0  0
  8  3  1  0  0  0  0
  9 17  1  0  0  0  0
 10  9  1  0  0  0  0
 10 12  1  0  0  0  0
 11 10  1  0  0  0  0
 12 14  1  0  0  0  0
 13 12  1  0  0  0  0
 14 15  1  0  0  0  0
 14 16  1  0  0  0  0
 17 16  1  0  0  0  0
 18  2  1  0  0  0  0
 19 18  2  0  0  0  0
 20 23  1  0  0  0  0
 20 21  1  0  0  0  0
 20 19  1  0  0  0  0
 22 20  1  0  0  0  0
M  END
>  <minimizedAffinity>
-4.1207943

$$$$

 OpenBabel03252501463D

 23 24  0  0  0  0  0  0  0  0999 V2000
   39.6170   28.5910   42.3490 C   0  0  0  0  0  0  0  0  0  0  0  0
   38.4860   27.9610   41.8370 C   0  0  0  0  0  0  0  0  0  0  0  0
   37.7470   28.6490   40.8790 C   0  0  0  0  0  0  0  0  0  0  0  0
   38.1700   29.9030   40.4960 N   0  0  0  0  0  0  0  0  0  0  0  0
   39.2710   30.4620   41.0240 C   0  0  0  0  0  0  0  0  0  0  0  0
   39.9850   29.8080   41.9430 N   0  0  0  0  0  0  0  0  0  0  0  0
   40.2150   28.0750   43.0990 H   0  0  0  0  0  0  0  0  0  0  0  0
   36.8610   28.1780   40.4660 H   0  0  0  0  0  0  0  0  0  0  0  0
   39.6550   31.7640   40.5830 N   0  0  0  0  0  0  0  0  0  0  0  0
   40.7870   31.8850   39.6800 C   0  0  0  0  0  3  0  0  0  0  0  0
   41.0390   30.8890   39.2530 H   0  0  0  0  0  0  0  0  0  0  0  0
   40.4360   32.8930   38.6310 C   0  0  0  0  0  3  0  0  0  0  0  0
   41.3270   33.0620   37.9880 H   0  0  0  0  0  0  0  0  0  0  0  0
   40.2040   34.1600   39.3270 N   0  0  0  0  0  0  0  0  0  0  0  0
   40.0620   34.8860   38.5730 H   0  0  0  0  0  0  0  0  0  0  0  0
   38.9320   34.0400   40.0100 C   0  0  0  0  0  2  0  0  0  0  0  0
   38.9330   32.9300   41.0270 C   0  0  0  0  0  2  0  0  0  0  0  0
   38.0540   26.6410   42.2510 C   0  0  0  0  0  3  0  0  0  0  0  0
   37.2100   25.8550   41.5910 C   0  0  0  0  0  3  0  0  0  0  0  0
   36.8370   24.5070   42.1180 C   0  0  0  0  0  0  0  0  0  0  0  0
   35.8090   24.2630   41.7760 H   0  0  0  0  0  0  0  0  0  0  0  0
   37.5760   23.7370   41.8240 H   0  0  0  0  0  0  0  0  0  0  0  0
   36.8760   24.5830   43.2230 H   0  0  0  0  0  0  0  0  0  0  0  0
  1  7  1  0  0  0  0
  2 18  1  0  0  0  0
  2  1  2  0  0  0  0
  3  2  1  0  0  0  0
  4  3  2  0  0  0  0
  4  5  1  0  0  0  0
  5  6  2  0  0  0  0
  6  1  1  0  0  0  0
  8  3  1  0  0  0  0
  9  5  1  0  0  0  0
  9 17  1  0  0  0  0
 10  9  1  0  0  0  0
 11 10  1  0  0  0  0
 12 14  1  0  0  0  0
 12 10  1  0  0  0  0
 13 12  1  0  0  0  0
 14 16  1  0  0  0  0
 15 14  1  0  0  0  0
 16 17  1  0  0  0  0
 19 20  1  0  0  0  0
 19 18  2  0  0  0  0
 20 23  1  0  0  0  0
 21 20  1  0  0  0  0
 22 20  1  0  0  0  0
M  END
>  <minimizedAffinity>
-4.10167646

$$$$

 OpenBabel03252501463D

 23 24  0  0  0  0  0  0  0  0999 V2000
   35.7250   27.7900   38.3760 C   0  0  0  0  0  0  0  0  0  0  0  0
   34.6840   28.6510   38.7120 C   0  0  0  0  0  0  0  0  0  0  0  0
   34.7130   29.2300   39.9770 C   0  0  0  0  0  0  0  0  0  0  0  0
   35.7580   28.9210   40.8190 N   0  0  0  0  0  0  0  0  0  0  0  0
   36.7370   28.0830   40.4420 C   0  0  0  0  0  0  0  0  0  0  0  0
   36.7160   27.5240   39.2290 N   0  0  0  0  0  0  0  0  0  0  0  0
   35.7280   27.3240   37.3920 H   0  0  0  0  0  0  0  0  0  0  0  0
   33.9120   29.9040   40.2610 H   0  0  0  0  0  0  0  0  0  0  0  0
   37.7920   27.8050   41.3620 N   0  0  0  0  0  0  0  0  0  0  0  0
   39.0890   28.4220   41.1380 C   0  0  0  0  0  3  0  0  0  0  0  0
   38.9930   29.2460   40.3980 H   0  0  0  0  0  0  0  0  0  0  0  0
   39.6130   28.8880   42.4600 C   0  0  0  0  0  3  0  0  0  0  0  0
   40.6440   29.2780   42.3160 H   0  0  0  0  0  0  0  0  0  0  0  0
   39.7550   27.6960   43.3000 N   0  0  0  0  0  0  0  0  0  0  0  0
   40.2230   28.0200   44.1900 H   0  0  0  0  0  0  0  0  0  0  0  0
   38.4190   27.2850   43.6790 C   0  0  0  0  0  2  0  0  0  0  0  0
   37.5710   26.9310   42.4870 C   0  0  0  0  0  2  0  0  0  0  0  0
   33.5900   28.9660   37.8140 C   0  0  0  0  0  3  0  0  0  0  0  0
   33.6450   28.9520   36.4860 C   0  0  0  0  0  3  0  0  0  0  0  0
   32.4470   29.2950   35.6600 C   0  0  0  0  0  0  0  0  0  0  0  0
   32.7900   29.7390   34.7020 H   0  0  0  0  0  0  0  0  0  0  0  0
   31.7920   28.4140   35.5100 H   0  0  0  0  0  0  0  0  0  0  0  0
   31.8640   30.0320   36.2490 H   0  0  0  0  0  0  0  0  0  0  0  0
  1  2  2  0  0  0  0
  1  6  1  0  0  0  0
  2  3  1  0  0  0  0
  3  8  1  0  0  0  0
  3  4  2  0  0  0  0
  5  4  1  0  0  0  0
  5  9  1  0  0  0  0
  6  5  2  0  0  0  0
  7  1  1  0  0  0  0
  9 17  1  0  0  0  0
 10  9  1  0  0  0  0
 10 12  1  0  0  0  0
 11 10  1  0  0  0  0
 12 14  1  0  0  0  0
 13 12  1  0  0  0  0
 14 16  1  0  0  0  0
 14 15  1  0  0  0  0
 17 16  1  0  0  0  0
 18  2  1  0  0  0  0
 19 18  2  0  0  0  0
 20 23  1  0  0  0  0
 20 19  1  0  0  0  0
 21 20  1  0  0  0  0
 22 20  1  0  0  0  0
M  END
>  <minimizedAffinity>
-3.95254612

$$$$
