
 OpenBabel03252508433D

 31 33  0  0  0  0  0  0  0  0999 V2000
   36.7220   30.2600   38.3670 C   0  0  0  0  0  0  0  0  0  0  0  0
   36.2160   29.3740   39.2860 C   0  0  0  0  0  0  0  0  0  0  0  0
   35.4060   28.3290   38.8870 C   0  0  0  0  0  0  0  0  0  0  0  0
   35.1300   28.2100   37.5500 C   0  0  0  0  0  0  0  0  0  0  0  0
   35.6150   29.0710   36.5930 C   0  0  0  0  0  0  0  0  0  0  0  0
   36.4250   30.1040   37.0610 C   0  0  0  0  0  0  0  0  0  0  0  0
   35.0150   27.6400   39.6250 H   0  0  0  0  0  0  0  0  0  0  0  0
   34.4980   27.4070   37.1710 H   0  0  0  0  0  0  0  0  0  0  0  0
   35.4560   29.0580   35.5440 H   0  0  0  0  0  0  0  0  0  0  0  0
   36.8570   30.8370   36.3910 H   0  0  0  0  0  0  0  0  0  0  0  0
   37.9770   33.4890   39.9060 C   0  0  0  0  0  0  0  0  0  0  0  0
   37.0880   32.5090   39.4240 C   0  0  0  0  0  0  0  0  0  0  0  0
   37.5660   31.3270   38.8890 C   0  0  0  0  0  0  0  0  0  0  0  0
   38.9040   31.1840   38.8610 N   0  0  0  0  0  0  0  0  0  0  0  0
   39.7730   32.1130   39.3190 C   0  0  0  0  0  0  0  0  0  0  0  0
   39.3060   33.2640   39.8410 N   0  0  0  0  0  0  0  0  0  0  0  0
   37.5810   34.4040   40.3190 H   0  0  0  0  0  0  0  0  0  0  0  0
   36.0350   32.6460   39.4560 H   0  0  0  0  0  0  0  0  0  0  0  0
   40.8510   31.9650   39.2830 H   0  0  0  0  0  0  0  0  0  0  0  0
   36.5300   29.5210   40.7520 C   0  0  0  0  0  0  0  0  0  0  0  0
   35.6440   29.2650   41.3750 H   0  0  0  0  0  0  0  0  0  0  0  0
   36.8720   30.5670   40.9440 H   0  0  0  0  0  0  0  0  0  0  0  0
   37.5560   28.5840   41.0680 N   0  0  0  0  0  0  0  0  0  0  0  0
   37.1410   27.3890   41.7320 C   0  0  0  0  0  3  0  0  0  0  0  0
   36.4600   26.7410   41.1710 H   0  0  0  0  0  0  0  0  0  0  0  0
   36.5690   27.7700   43.0800 C   0  0  0  0  0  3  0  0  0  0  0  0
   35.4830   27.9320   42.9290 H   0  0  0  0  0  0  0  0  0  0  0  0
   37.1190   28.9970   43.5910 N   0  0  0  0  0  0  0  0  0  0  0  0
   37.1760   28.8890   44.6450 H   0  0  0  0  0  0  0  0  0  0  0  0
   38.4640   29.2570   43.1670 C   0  0  0  0  0  2  0  0  0  0  0  0
   38.7200   29.1020   41.7040 C   0  0  0  0  0  2  0  0  0  0  0  0
  1 13  1  0  0  0  0
  1  2  1  0  0  0  0
  2 20  1  0  0  0  0
  3  2  2  0  0  0  0
  3  7  1  0  0  0  0
  4  3  1  0  0  0  0
  5  6  1  0  0  0  0
  5  4  2  0  0  0  0
  6  1  2  0  0  0  0
  8  4  1  0  0  0  0
  9  5  1  0  0  0  0
 10  6  1  0  0  0  0
 11 17  1  0  0  0  0
 12 18  1  0  0  0  0
 12 11  2  0  0  0  0
 13 12  1  0  0  0  0
 14 13  2  0  0  0  0
 14 15  1  0  0  0  0
 15 16  2  0  0  0  0
 16 11  1  0  0  0  0
 19 15  1  0  0  0  0
 20 22  1  0  0  0  0
 20 23  1  0  0  0  0
 20 21  1  0  0  0  0
 23 31  1  0  0  0  0
 23 24  1  0  0  0  0
 24 26  1  0  0  0  0
 25 24  1  0  0  0  0
 26 28  1  0  0  0  0
 27 26  1  0  0  0  0
 28 29  1  0  0  0  0
 30 28  1  0  0  0  0
 31 30  1  0  0  0  0
M  END
>  <minimizedAffinity>
-5.09813213

$$$$

 OpenBabel03252508433D

 31 33  0  0  0  0  0  0  0  0999 V2000
   36.6480   28.4510   41.0920 C   0  0  0  0  0  0  0  0  0  0  0  0
   37.2240   29.5800   41.6180 C   0  0  0  0  0  0  0  0  0  0  0  0
   37.9590   29.5180   42.7870 C   0  0  0  0  0  0  0  0  0  0  0  0
   38.0900   28.2970   43.3950 C   0  0  0  0  0  0  0  0  0  0  0  0
   37.5310   27.1390   42.9040 C   0  0  0  0  0  0  0  0  0  0  0  0
   36.8020   27.2700   41.7240 C   0  0  0  0  0  0  0  0  0  0  0  0
   38.4070   30.4180   43.1880 H   0  0  0  0  0  0  0  0  0  0  0  0
   38.6570   28.1810   44.3180 H   0  0  0  0  0  0  0  0  0  0  0  0
   37.5780   26.1570   43.3030 H   0  0  0  0  0  0  0  0  0  0  0  0
   36.3220   26.4200   41.2540 H   0  0  0  0  0  0  0  0  0  0  0  0
   33.8990   29.0880   38.5610 C   0  0  0  0  0  0  0  0  0  0  0  0
   34.5490   28.9420   39.8010 C   0  0  0  0  0  0  0  0  0  0  0  0
   35.8930   28.6220   39.8570 C   0  0  0  0  0  0  0  0  0  0  0  0
   36.5180   28.4630   38.6750 N   0  0  0  0  0  0  0  0  0  0  0  0
   35.9100   28.5980   37.4750 C   0  0  0  0  0  0  0  0  0  0  0  0
   34.6000   28.9110   37.4210 N   0  0  0  0  0  0  0  0  0  0  0  0
   32.8490   29.3380   38.5410 H   0  0  0  0  0  0  0  0  0  0  0  0
   34.0340   29.0720   40.7210 H   0  0  0  0  0  0  0  0  0  0  0  0
   36.4450   28.4640   36.5370 H   0  0  0  0  0  0  0  0  0  0  0  0
   37.0700   30.9150   40.9370 C   0  0  0  0  0  0  0  0  0  0  0  0
   36.5810   31.6520   41.6130 H   0  0  0  0  0  0  0  0  0  0  0  0
   36.4800   30.7730   39.9980 H   0  0  0  0  0  0  0  0  0  0  0  0
   38.3760   31.4040   40.6480 N   0  0  0  0  0  0  0  0  0  0  0  0
   38.5720   32.8120   40.7880 C   0  0  0  0  0  3  0  0  0  0  0  0
   38.4370   33.2180   41.7960 H   0  0  0  0  0  0  0  0  0  0  0  0
   37.6900   33.5160   39.7790 C   0  0  0  0  0  3  0  0  0  0  0  0
   36.7230   33.7100   40.2860 H   0  0  0  0  0  0  0  0  0  0  0  0
   37.4120   32.7060   38.6230 N   0  0  0  0  0  0  0  0  0  0  0  0
   37.3590   33.3680   37.7950 H   0  0  0  0  0  0  0  0  0  0  0  0
   38.4550   31.7780   38.2950 C   0  0  0  0  0  2  0  0  0  0  0  0
   38.9710   30.9600   39.4330 C   0  0  0  0  0  2  0  0  0  0  0  0
  1  2  2  0  0  0  0
  1  6  1  0  0  0  0
  2  3  1  0  0  0  0
  3  7  1  0  0  0  0
  3  4  2  0  0  0  0
  4  8  1  0  0  0  0
  5  9  1  0  0  0  0
  5  4  1  0  0  0  0
  6  5  2  0  0  0  0
 10  6  1  0  0  0  0
 11 12  1  0  0  0  0
 12 13  2  0  0  0  0
 12 18  1  0  0  0  0
 13  1  1  0  0  0  0
 14 13  1  0  0  0  0
 15 14  2  0  0  0  0
 16 15  1  0  0  0  0
 16 11  2  0  0  0  0
 17 11  1  0  0  0  0
 19 15  1  0  0  0  0
 20 21  1  0  0  0  0
 20  2  1  0  0  0  0
 22 20  1  0  0  0  0
 23 24  1  0  0  0  0
 23 20  1  0  0  0  0
 24 25  1  0  0  0  0
 26 27  1  0  0  0  0
 26 24  1  0  0  0  0
 28 26  1  0  0  0  0
 29 28  1  0  0  0  0
 30 28  1  0  0  0  0
 30 31  1  0  0  0  0
 31 23  1  0  0  0  0
M  END
>  <minimizedAffinity>
-5.07241631

$$$$

 OpenBabel03252508433D

 31 33  0  0  0  0  0  0  0  0999 V2000
   37.3690   29.4180   41.4310 C   0  0  0  0  0  0  0  0  0  0  0  0
   38.3510   29.5300   42.3840 C   0  0  0  0  0  0  0  0  0  0  0  0
   38.3900   28.6660   43.4610 C   0  0  0  0  0  0  0  0  0  0  0  0
   37.4190   27.7020   43.5430 C   0  0  0  0  0  0  0  0  0  0  0  0
   36.4170   27.5510   42.6120 C   0  0  0  0  0  0  0  0  0  0  0  0
   36.4340   28.4550   41.5510 C   0  0  0  0  0  0  0  0  0  0  0  0
   39.1720   28.7680   44.2040 H   0  0  0  0  0  0  0  0  0  0  0  0
   37.3940   26.9900   44.3670 H   0  0  0  0  0  0  0  0  0  0  0  0
   35.6290   26.8410   42.5920 H   0  0  0  0  0  0  0  0  0  0  0  0
   35.6890   28.4230   40.7650 H   0  0  0  0  0  0  0  0  0  0  0  0
   37.0900   32.5530   39.3180 C   0  0  0  0  0  0  0  0  0  0  0  0
   37.0100   31.6950   40.4320 C   0  0  0  0  0  0  0  0  0  0  0  0
   37.4150   30.3770   40.3340 C   0  0  0  0  0  0  0  0  0  0  0  0
   37.8780   29.9820   39.1330 N   0  0  0  0  0  0  0  0  0  0  0  0
   37.9620   30.7910   38.0540 C   0  0  0  0  0  0  0  0  0  0  0  0
   37.5680   32.0770   38.1490 N   0  0  0  0  0  0  0  0  0  0  0  0
   36.7680   33.5780   39.4170 H   0  0  0  0  0  0  0  0  0  0  0  0
   36.6410   32.0290   41.3690 H   0  0  0  0  0  0  0  0  0  0  0  0
   38.3430   30.4410   37.0950 H   0  0  0  0  0  0  0  0  0  0  0  0
   39.4100   30.5960   42.2790 C   0  0  0  0  0  0  0  0  0  0  0  0
   39.6350   31.0320   43.2780 H   0  0  0  0  0  0  0  0  0  0  0  0
   39.0610   31.3800   41.5640 H   0  0  0  0  0  0  0  0  0  0  0  0
   40.6020   29.9730   41.8100 N   0  0  0  0  0  0  0  0  0  0  0  0
   41.6690   29.8540   42.7520 C   0  0  0  0  0  3  0  0  0  0  0  0
   41.4650   29.2330   43.6320 H   0  0  0  0  0  0  0  0  0  0  0  0
   42.1160   31.2470   43.1420 C   0  0  0  0  0  3  0  0  0  0  0  0
   41.5130   31.5360   44.0260 H   0  0  0  0  0  0  0  0  0  0  0  0
   41.8630   32.2200   42.1130 N   0  0  0  0  0  0  0  0  0  0  0  0
   42.6590   32.9200   42.1560 H   0  0  0  0  0  0  0  0  0  0  0  0
   41.9020   31.6880   40.7820 C   0  0  0  0  0  2  0  0  0  0  0  0
   41.1170   30.4360   40.5650 C   0  0  0  0  0  2  0  0  0  0  0  0
  1  6  2  0  0  0  0
  1  2  1  0  0  0  0
  2  3  2  0  0  0  0
  3  4  1  0  0  0  0
  3  7  1  0  0  0  0
  4  8  1  0  0  0  0
  5  4  2  0  0  0  0
  6  5  1  0  0  0  0
  9  5  1  0  0  0  0
 10  6  1  0  0  0  0
 11 17  1  0  0  0  0
 11 12  1  0  0  0  0
 12 18  1  0  0  0  0
 13 12  2  0  0  0  0
 13  1  1  0  0  0  0
 14 13  1  0  0  0  0
 15 16  1  0  0  0  0
 15 14  2  0  0  0  0
 16 11  2  0  0  0  0
 19 15  1  0  0  0  0
 20  2  1  0  0  0  0
 20 21  1  0  0  0  0
 22 20  1  0  0  0  0
 23 20  1  0  0  0  0
 23 24  1  0  0  0  0
 24 26  1  0  0  0  0
 24 25  1  0  0  0  0
 26 27  1  0  0  0  0
 28 29  1  0  0  0  0
 28 26  1  0  0  0  0
 30 28  1  0  0  0  0
 31 30  1  0  0  0  0
 31 23  1  0  0  0  0
M  END
>  <minimizedAffinity>
-4.92197132

$$$$

 OpenBabel03252508433D

 31 33  0  0  0  0  0  0  0  0999 V2000
   37.4390   31.6610   39.8280 C   0  0  0  0  0  0  0  0  0  0  0  0
   38.5540   31.2370   40.5070 C   0  0  0  0  0  0  0  0  0  0  0  0
   39.4800   32.1470   40.9800 C   0  0  0  0  0  0  0  0  0  0  0  0
   39.2440   33.4770   40.7480 C   0  0  0  0  0  0  0  0  0  0  0  0
   38.1410   33.9480   40.0740 C   0  0  0  0  0  0  0  0  0  0  0  0
   37.2470   32.9790   39.6220 C   0  0  0  0  0  0  0  0  0  0  0  0
   40.3540   31.7960   41.5140 H   0  0  0  0  0  0  0  0  0  0  0  0
   39.9350   34.2450   41.0960 H   0  0  0  0  0  0  0  0  0  0  0  0
   37.8760   34.9510   39.8490 H   0  0  0  0  0  0  0  0  0  0  0  0
   36.3470   33.2430   39.0810 H   0  0  0  0  0  0  0  0  0  0  0  0
   35.5740   29.1160   37.7260 C   0  0  0  0  0  0  0  0  0  0  0  0
   36.4940   30.1200   38.0820 C   0  0  0  0  0  0  0  0  0  0  0  0
   36.5230   30.6230   39.3700 C   0  0  0  0  0  0  0  0  0  0  0  0
   35.6340   30.0990   40.2340 N   0  0  0  0  0  0  0  0  0  0  0  0
   34.7440   29.1350   39.9110 C   0  0  0  0  0  0  0  0  0  0  0  0
   34.7170   28.6450   38.6550 N   0  0  0  0  0  0  0  0  0  0  0  0
   35.5690   28.7390   36.7140 H   0  0  0  0  0  0  0  0  0  0  0  0
   37.1860   30.5180   37.3810 H   0  0  0  0  0  0  0  0  0  0  0  0
   34.0390   28.7310   40.6350 H   0  0  0  0  0  0  0  0  0  0  0  0
   38.7970   29.7710   40.7520 C   0  0  0  0  0  0  0  0  0  0  0  0
   39.7420   29.4380   40.2650 H   0  0  0  0  0  0  0  0  0  0  0  0
   37.9200   29.1920   40.3720 H   0  0  0  0  0  0  0  0  0  0  0  0
   38.9570   29.5900   42.1560 N   0  0  0  0  0  0  0  0  0  0  0  0
   40.0140   28.7220   42.5680 C   0  0  0  0  0  3  0  0  0  0  0  0
   41.0280   29.0410   42.3020 H   0  0  0  0  0  0  0  0  0  0  0  0
   39.7130   27.3310   42.0550 C   0  0  0  0  0  3  0  0  0  0  0  0
   40.1860   27.2530   41.0560 H   0  0  0  0  0  0  0  0  0  0  0  0
   38.3050   27.0950   41.8830 N   0  0  0  0  0  0  0  0  0  0  0  0
   38.1360   26.0750   42.1220 H   0  0  0  0  0  0  0  0  0  0  0  0
   37.4720   27.8350   42.7860 C   0  0  0  0  0  2  0  0  0  0  0  0
   37.7800   29.2920   42.9000 C   0  0  0  0  0  2  0  0  0  0  0  0
  1  2  1  0  0  0  0
  2 20  1  0  0  0  0
  2  3  2  0  0  0  0
  3  7  1  0  0  0  0
  4  3  1  0  0  0  0
  4  8  1  0  0  0  0
  5  4  2  0  0  0  0
  6  1  2  0  0  0  0
  6  5  1  0  0  0  0
  9  5  1  0  0  0  0
 10  6  1  0  0  0  0
 11 12  2  0  0  0  0
 11 16  1  0  0  0  0
 12 13  1  0  0  0  0
 13  1  1  0  0  0  0
 13 14  2  0  0  0  0
 15 14  1  0  0  0  0
 15 19  1  0  0  0  0
 16 15  2  0  0  0  0
 17 11  1  0  0  0  0
 18 12  1  0  0  0  0
 20 23  1  0  0  0  0
 21 20  1  0  0  0  0
 22 20  1  0  0  0  0
 23 24  1  0  0  0  0
 23 31  1  0  0  0  0
 25 24  1  0  0  0  0
 26 24  1  0  0  0  0
 27 26  1  0  0  0  0
 28 26  1  0  0  0  0
 28 29  1  0  0  0  0
 28 30  1  0  0  0  0
 30 31  1  0  0  0  0
M  END
>  <minimizedAffinity>
-4.86257029

$$$$

 OpenBabel03252508433D

 31 33  0  0  0  0  0  0  0  0999 V2000
   36.9290   25.5580   40.6800 C   0  0  0  0  0  0  0  0  0  0  0  0
   36.5760   26.2270   39.5330 C   0  0  0  0  0  0  0  0  0  0  0  0
   35.8910   25.5800   38.5230 C   0  0  0  0  0  0  0  0  0  0  0  0
   35.5790   24.2580   38.7070 C   0  0  0  0  0  0  0  0  0  0  0  0
   35.9100   23.5490   39.8380 C   0  0  0  0  0  0  0  0  0  0  0  0
   36.6010   24.2590   40.8190 C   0  0  0  0  0  0  0  0  0  0  0  0
   35.6210   26.1220   37.6250 H   0  0  0  0  0  0  0  0  0  0  0  0
   35.0390   23.6920   37.9480 H   0  0  0  0  0  0  0  0  0  0  0  0
   35.7120   22.5320   40.0680 H   0  0  0  0  0  0  0  0  0  0  0  0
   36.9090   23.7930   41.7470 H   0  0  0  0  0  0  0  0  0  0  0  0
   37.8260   27.6950   43.6800 C   0  0  0  0  0  0  0  0  0  0  0  0
   37.0500   26.9710   42.7540 C   0  0  0  0  0  0  0  0  0  0  0  0
   37.6490   26.3290   41.6850 C   0  0  0  0  0  0  0  0  0  0  0  0
   38.9880   26.4430   41.5960 N   0  0  0  0  0  0  0  0  0  0  0  0
   39.7480   27.1330   42.4740 C   0  0  0  0  0  0  0  0  0  0  0  0
   39.1640   27.7580   43.5160 N   0  0  0  0  0  0  0  0  0  0  0  0
   37.3370   28.1890   44.5060 H   0  0  0  0  0  0  0  0  0  0  0  0
   35.9950   26.8970   42.8460 H   0  0  0  0  0  0  0  0  0  0  0  0
   40.8300   27.2040   42.3740 H   0  0  0  0  0  0  0  0  0  0  0  0
   36.9280   27.6790   39.3470 C   0  0  0  0  0  0  0  0  0  0  0  0
   37.5070   27.8310   38.4090 H   0  0  0  0  0  0  0  0  0  0  0  0
   37.5050   28.0260   40.2390 H   0  0  0  0  0  0  0  0  0  0  0  0
   35.7090   28.4040   39.2160 N   0  0  0  0  0  0  0  0  0  0  0  0
   35.6210   29.3020   38.1080 C   0  0  0  0  0  3  0  0  0  0  0  0
   35.6780   28.8450   37.1140 H   0  0  0  0  0  0  0  0  0  0  0  0
   36.6670   30.3810   38.2880 C   0  0  0  0  0  3  0  0  0  0  0  0
   37.5850   30.0200   37.7810 H   0  0  0  0  0  0  0  0  0  0  0  0
   37.0000   30.6070   39.6690 N   0  0  0  0  0  0  0  0  0  0  0  0
   37.2020   31.6440   39.7670 H   0  0  0  0  0  0  0  0  0  0  0  0
   35.9250   30.3460   40.5810 C   0  0  0  0  0  2  0  0  0  0  0  0
   35.2170   29.0450   40.3880 C   0  0  0  0  0  2  0  0  0  0  0  0
  1  6  1  0  0  0  0
  1 13  1  0  0  0  0
  2  1  2  0  0  0  0
  3  4  2  0  0  0  0
  3  2  1  0  0  0  0
  4  5  1  0  0  0  0
  5  9  1  0  0  0  0
  5  6  2  0  0  0  0
  6 10  1  0  0  0  0
  7  3  1  0  0  0  0
  8  4  1  0  0  0  0
 11 17  1  0  0  0  0
 12 18  1  0  0  0  0
 12 11  2  0  0  0  0
 13 12  1  0  0  0  0
 14 13  2  0  0  0  0
 14 15  1  0  0  0  0
 15 16  2  0  0  0  0
 16 11  1  0  0  0  0
 19 15  1  0  0  0  0
 20  2  1  0  0  0  0
 20 22  1  0  0  0  0
 21 20  1  0  0  0  0
 23 20  1  0  0  0  0
 23 31  1  0  0  0  0
 24 26  1  0  0  0  0
 24 23  1  0  0  0  0
 25 24  1  0  0  0  0
 26 28  1  0  0  0  0
 27 26  1  0  0  0  0
 28 29  1  0  0  0  0
 28 30  1  0  0  0  0
 31 30  1  0  0  0  0
M  END
>  <minimizedAffinity>
-4.78598976

$$$$

 OpenBabel03252508433D

 31 33  0  0  0  0  0  0  0  0999 V2000
   37.2590   28.3260   41.0080 C   0  0  0  0  0  0  0  0  0  0  0  0
   38.0640   29.3350   41.4750 C   0  0  0  0  0  0  0  0  0  0  0  0
   38.3050   29.4770   42.8280 C   0  0  0  0  0  0  0  0  0  0  0  0
   37.7150   28.5790   43.6790 C   0  0  0  0  0  0  0  0  0  0  0  0
   36.9020   27.5520   43.2580 C   0  0  0  0  0  0  0  0  0  0  0  0
   36.6990   27.4650   41.8810 C   0  0  0  0  0  0  0  0  0  0  0  0
   38.9430   30.2780   43.1790 H   0  0  0  0  0  0  0  0  0  0  0  0
   37.8660   28.6360   44.7570 H   0  0  0  0  0  0  0  0  0  0  0  0
   36.4060   26.8140   43.8380 H   0  0  0  0  0  0  0  0  0  0  0  0
   36.0760   26.6930   41.4460 H   0  0  0  0  0  0  0  0  0  0  0  0
   37.6310   27.5610   37.3140 C   0  0  0  0  0  0  0  0  0  0  0  0
   37.8910   27.5680   38.6980 C   0  0  0  0  0  0  0  0  0  0  0  0
   37.0670   28.2620   39.5650 C   0  0  0  0  0  0  0  0  0  0  0  0
   36.0280   28.9120   39.0080 N   0  0  0  0  0  0  0  0  0  0  0  0
   35.7630   28.9160   37.6830 C   0  0  0  0  0  0  0  0  0  0  0  0
   36.5660   28.2400   36.8380 N   0  0  0  0  0  0  0  0  0  0  0  0
   38.2870   27.0130   36.6560 H   0  0  0  0  0  0  0  0  0  0  0  0
   38.7180   27.0480   39.1140 H   0  0  0  0  0  0  0  0  0  0  0  0
   34.9120   29.4520   37.2640 H   0  0  0  0  0  0  0  0  0  0  0  0
   38.7040   30.3130   40.5250 C   0  0  0  0  0  0  0  0  0  0  0  0
   38.3470   30.1460   39.4840 H   0  0  0  0  0  0  0  0  0  0  0  0
   39.8140   30.2080   40.5940 H   0  0  0  0  0  0  0  0  0  0  0  0
   38.2910   31.6210   40.9110 N   0  0  0  0  0  0  0  0  0  0  0  0
   37.1350   32.1410   40.2530 C   0  0  0  0  0  3  0  0  0  0  0  0
   36.2010   31.5920   40.4170 H   0  0  0  0  0  0  0  0  0  0  0  0
   37.4500   32.2800   38.7790 C   0  0  0  0  0  3  0  0  0  0  0  0
   37.1570   31.3240   38.3010 H   0  0  0  0  0  0  0  0  0  0  0  0
   38.8530   32.4730   38.5270 N   0  0  0  0  0  0  0  0  0  0  0  0
   38.9250   33.1200   37.6890 H   0  0  0  0  0  0  0  0  0  0  0  0
   39.5500   33.1480   39.5820 C   0  0  0  0  0  2  0  0  0  0  0  0
   39.3020   32.6230   40.9580 C   0  0  0  0  0  2  0  0  0  0  0  0
  1  2  2  0  0  0  0
  1  6  1  0  0  0  0
  2  3  1  0  0  0  0
  3  7  1  0  0  0  0
  3  4  2  0  0  0  0
  4  8  1  0  0  0  0
  5  4  1  0  0  0  0
  5  9  1  0  0  0  0
  6  5  2  0  0  0  0
 10  6  1  0  0  0  0
 11 12  1  0  0  0  0
 12 18  1  0  0  0  0
 12 13  2  0  0  0  0
 13  1  1  0  0  0  0
 14 13  1  0  0  0  0
 15 14  2  0  0  0  0
 16 11  2  0  0  0  0
 16 15  1  0  0  0  0
 17 11  1  0  0  0  0
 19 15  1  0  0  0  0
 20 22  1  0  0  0  0
 20 23  1  0  0  0  0
 20  2  1  0  0  0  0
 21 20  1  0  0  0  0
 23 31  1  0  0  0  0
 24 25  1  0  0  0  0
 24 23  1  0  0  0  0
 26 24  1  0  0  0  0
 27 26  1  0  0  0  0
 28 26  1  0  0  0  0
 28 30  1  0  0  0  0
 29 28  1  0  0  0  0
 30 31  1  0  0  0  0
M  END
>  <minimizedAffinity>
-4.76615477

$$$$

 OpenBabel03252508433D

 31 33  0  0  0  0  0  0  0  0999 V2000
   36.7030   28.3460   39.9970 C   0  0  0  0  0  0  0  0  0  0  0  0
   36.6730   29.6560   39.5880 C   0  0  0  0  0  0  0  0  0  0  0  0
   36.0640   30.0100   38.4000 C   0  0  0  0  0  0  0  0  0  0  0  0
   35.4960   29.0130   37.6510 C   0  0  0  0  0  0  0  0  0  0  0  0
   35.5010   27.6870   38.0200 C   0  0  0  0  0  0  0  0  0  0  0  0
   36.1310   27.3970   39.2290 C   0  0  0  0  0  0  0  0  0  0  0  0
   36.0490   31.0480   38.0920 H   0  0  0  0  0  0  0  0  0  0  0  0
   35.0010   29.2260   36.7040 H   0  0  0  0  0  0  0  0  0  0  0  0
   35.0900   26.8520   37.5100 H   0  0  0  0  0  0  0  0  0  0  0  0
   36.1910   26.3850   39.6110 H   0  0  0  0  0  0  0  0  0  0  0  0
   37.4430   27.7120   43.6610 C   0  0  0  0  0  0  0  0  0  0  0  0
   36.7190   27.9760   42.4830 C   0  0  0  0  0  0  0  0  0  0  0  0
   37.3680   28.0760   41.2660 C   0  0  0  0  0  0  0  0  0  0  0  0
   38.7040   27.9080   41.2870 N   0  0  0  0  0  0  0  0  0  0  0  0
   39.4150   27.6550   42.4080 C   0  0  0  0  0  0  0  0  0  0  0  0
   38.7820   27.5570   43.5930 N   0  0  0  0  0  0  0  0  0  0  0  0
   36.9150   27.6390   44.6000 H   0  0  0  0  0  0  0  0  0  0  0  0
   35.6650   28.1050   42.4910 H   0  0  0  0  0  0  0  0  0  0  0  0
   40.4960   27.5230   42.3910 H   0  0  0  0  0  0  0  0  0  0  0  0
   37.3020   30.7400   40.4240 C   0  0  0  0  0  0  0  0  0  0  0  0
   37.9400   30.3030   41.2250 H   0  0  0  0  0  0  0  0  0  0  0  0
   36.4930   31.3790   40.8540 H   0  0  0  0  0  0  0  0  0  0  0  0
   38.1530   31.5000   39.5720 N   0  0  0  0  0  0  0  0  0  0  0  0
   39.5210   31.0920   39.5120 C   0  0  0  0  0  3  0  0  0  0  0  0
   39.7050   30.0870   39.1150 H   0  0  0  0  0  0  0  0  0  0  0  0
   40.1300   31.2700   40.8860 C   0  0  0  0  0  3  0  0  0  0  0  0
   39.9810   30.3120   41.4250 H   0  0  0  0  0  0  0  0  0  0  0  0
   39.4790   32.2990   41.6530 N   0  0  0  0  0  0  0  0  0  0  0  0
   40.2320   32.7620   42.2400 H   0  0  0  0  0  0  0  0  0  0  0  0
   38.9190   33.3540   40.8600 C   0  0  0  0  0  2  0  0  0  0  0  0
   38.0860   32.9170   39.7010 C   0  0  0  0  0  2  0  0  0  0  0  0
  1 13  1  0  0  0  0
  2  1  1  0  0  0  0
  2 20  1  0  0  0  0
  3  2  2  0  0  0  0
  4  5  2  0  0  0  0
  4  3  1  0  0  0  0
  5  6  1  0  0  0  0
  6 10  1  0  0  0  0
  6  1  2  0  0  0  0
  7  3  1  0  0  0  0
  8  4  1  0  0  0  0
  9  5  1  0  0  0  0
 11 17  1  0  0  0  0
 12 18  1  0  0  0  0
 12 11  2  0  0  0  0
 13 14  2  0  0  0  0
 13 12  1  0  0  0  0
 14 15  1  0  0  0  0
 15 16  2  0  0  0  0
 16 11  1  0  0  0  0
 19 15  1  0  0  0  0
 20 22  1  0  0  0  0
 20 21  1  0  0  0  0
 23 31  1  0  0  0  0
 23 20  1  0  0  0  0
 24 23  1  0  0  0  0
 24 26  1  0  0  0  0
 25 24  1  0  0  0  0
 26 27  1  0  0  0  0
 26 28  1  0  0  0  0
 28 29  1  0  0  0  0
 30 28  1  0  0  0  0
 31 30  1  0  0  0  0
M  END
>  <minimizedAffinity>
-4.74102306

$$$$

 OpenBabel03252508433D

 31 33  0  0  0  0  0  0  0  0999 V2000
   35.9180   28.2400   40.0580 C   0  0  0  0  0  0  0  0  0  0  0  0
   36.3060   27.1810   39.2750 C   0  0  0  0  0  0  0  0  0  0  0  0
   35.6590   26.9080   38.0860 C   0  0  0  0  0  0  0  0  0  0  0  0
   34.6220   27.7270   37.7210 C   0  0  0  0  0  0  0  0  0  0  0  0
   34.1990   28.7990   38.4720 C   0  0  0  0  0  0  0  0  0  0  0  0
   34.8930   29.0200   39.6600 C   0  0  0  0  0  0  0  0  0  0  0  0
   35.9780   26.0690   37.4810 H   0  0  0  0  0  0  0  0  0  0  0  0
   34.0710   27.5650   36.7950 H   0  0  0  0  0  0  0  0  0  0  0  0
   33.4120   29.4830   38.2720 H   0  0  0  0  0  0  0  0  0  0  0  0
   34.6390   29.8370   40.3240 H   0  0  0  0  0  0  0  0  0  0  0  0
   37.2040   28.0160   43.6170 C   0  0  0  0  0  0  0  0  0  0  0  0
   36.4320   27.7540   42.4690 C   0  0  0  0  0  0  0  0  0  0  0  0
   36.6650   28.4440   41.2930 C   0  0  0  0  0  0  0  0  0  0  0  0
   37.6530   29.3580   41.3230 N   0  0  0  0  0  0  0  0  0  0  0  0
   38.4030   29.6220   42.4160 C   0  0  0  0  0  0  0  0  0  0  0  0
   38.1770   28.9500   43.5610 N   0  0  0  0  0  0  0  0  0  0  0  0
   37.0050   27.4660   44.5250 H   0  0  0  0  0  0  0  0  0  0  0  0
   35.6580   27.0280   42.4700 H   0  0  0  0  0  0  0  0  0  0  0  0
   39.1970   30.3680   42.4060 H   0  0  0  0  0  0  0  0  0  0  0  0
   37.4480   26.2910   39.6930 C   0  0  0  0  0  0  0  0  0  0  0  0
   37.7330   26.4820   40.7520 H   0  0  0  0  0  0  0  0  0  0  0  0
   38.3090   26.4640   39.0030 H   0  0  0  0  0  0  0  0  0  0  0  0
   36.9930   24.9430   39.6120 N   0  0  0  0  0  0  0  0  0  0  0  0
   36.5280   24.3560   40.8290 C   0  0  0  0  0  3  0  0  0  0  0  0
   35.6480   24.8260   41.2820 H   0  0  0  0  0  0  0  0  0  0  0  0
   37.6880   24.2910   41.7980 C   0  0  0  0  0  3  0  0  0  0  0  0
   37.6720   25.2370   42.3760 H   0  0  0  0  0  0  0  0  0  0  0  0
   38.9630   24.2160   41.1350 N   0  0  0  0  0  0  0  0  0  0  0  0
   39.5840   23.6050   41.7400 H   0  0  0  0  0  0  0  0  0  0  0  0
   38.9220   23.5630   39.8600 C   0  0  0  0  0  2  0  0  0  0  0  0
   37.8420   24.0220   38.9350 C   0  0  0  0  0  2  0  0  0  0  0  0
  1 13  1  0  0  0  0
  2 20  1  0  0  0  0
  2  1  2  0  0  0  0
  3  2  1  0  0  0  0
  4  3  2  0  0  0  0
  4  5  1  0  0  0  0
  5  6  2  0  0  0  0
  6  1  1  0  0  0  0
  6 10  1  0  0  0  0
  7  3  1  0  0  0  0
  8  4  1  0  0  0  0
  9  5  1  0  0  0  0
 11 17  1  0  0  0  0
 12 18  1  0  0  0  0
 12 11  2  0  0  0  0
 13 14  2  0  0  0  0
 13 12  1  0  0  0  0
 14 15  1  0  0  0  0
 15 16  2  0  0  0  0
 16 11  1  0  0  0  0
 19 15  1  0  0  0  0
 20 21  1  0  0  0  0
 22 20  1  0  0  0  0
 23 20  1  0  0  0  0
 23 24  1  0  0  0  0
 24 25  1  0  0  0  0
 24 26  1  0  0  0  0
 26 27  1  0  0  0  0
 28 29  1  0  0  0  0
 28 26  1  0  0  0  0
 30 28  1  0  0  0  0
 31 23  1  0  0  0  0
 31 30  1  0  0  0  0
M  END
>  <minimizedAffinity>
-4.7182579

$$$$

 OpenBabel03252508433D

 31 33  0  0  0  0  0  0  0  0999 V2000
   37.7340   29.0620   41.8660 C   0  0  0  0  0  0  0  0  0  0  0  0
   37.8170   28.0650   40.9260 C   0  0  0  0  0  0  0  0  0  0  0  0
   37.4660   26.7670   41.2420 C   0  0  0  0  0  0  0  0  0  0  0  0
   37.0350   26.5150   42.5190 C   0  0  0  0  0  0  0  0  0  0  0  0
   36.9350   27.4810   43.4930 C   0  0  0  0  0  0  0  0  0  0  0  0
   37.3050   28.7690   43.1090 C   0  0  0  0  0  0  0  0  0  0  0  0
   37.5370   25.9920   40.4890 H   0  0  0  0  0  0  0  0  0  0  0  0
   36.7440   25.5120   42.8320 H   0  0  0  0  0  0  0  0  0  0  0  0
   36.6160   27.3810   44.5000 H   0  0  0  0  0  0  0  0  0  0  0  0
   37.2640   29.6030   43.8000 H   0  0  0  0  0  0  0  0  0  0  0  0
   39.6810   32.2370   41.1570 C   0  0  0  0  0  0  0  0  0  0  0  0
   39.3890   30.9350   41.6070 C   0  0  0  0  0  0  0  0  0  0  0  0
   38.1270   30.3980   41.4320 C   0  0  0  0  0  0  0  0  0  0  0  0
   37.2230   31.1840   40.8190 N   0  0  0  0  0  0  0  0  0  0  0  0
   37.4860   32.4350   40.3800 C   0  0  0  0  0  0  0  0  0  0  0  0
   38.7160   32.9590   40.5500 N   0  0  0  0  0  0  0  0  0  0  0  0
   40.6730   32.6360   41.3040 H   0  0  0  0  0  0  0  0  0  0  0  0
   40.1190   30.3330   42.0890 H   0  0  0  0  0  0  0  0  0  0  0  0
   36.7320   33.0460   39.8860 H   0  0  0  0  0  0  0  0  0  0  0  0
   38.2920   28.3600   39.5270 C   0  0  0  0  0  0  0  0  0  0  0  0
   39.2110   27.7780   39.2890 H   0  0  0  0  0  0  0  0  0  0  0  0
   38.4730   29.4580   39.4330 H   0  0  0  0  0  0  0  0  0  0  0  0
   37.2740   27.9330   38.6270 N   0  0  0  0  0  0  0  0  0  0  0  0
   37.7070   27.1990   37.4810 C   0  0  0  0  0  3  0  0  0  0  0  0
   38.1950   26.2390   37.6830 H   0  0  0  0  0  0  0  0  0  0  0  0
   38.5790   28.1040   36.6390 C   0  0  0  0  0  3  0  0  0  0  0  0
   39.6200   27.9570   36.9910 H   0  0  0  0  0  0  0  0  0  0  0  0
   38.2610   29.4970   36.8090 N   0  0  0  0  0  0  0  0  0  0  0  0
   38.4150   29.9610   35.8680 H   0  0  0  0  0  0  0  0  0  0  0  0
   36.8870   29.7490   37.1320 C   0  0  0  0  0  2  0  0  0  0  0  0
   36.3190   28.9130   38.2310 C   0  0  0  0  0  2  0  0  0  0  0  0
  1  6  1  0  0  0  0
  2  3  1  0  0  0  0
  2  1  2  0  0  0  0
  3  4  2  0  0  0  0
  4  8  1  0  0  0  0
  4  5  1  0  0  0  0
  5  9  1  0  0  0  0
  6  5  2  0  0  0  0
  6 10  1  0  0  0  0
  7  3  1  0  0  0  0
 11 17  1  0  0  0  0
 11 12  1  0  0  0  0
 12 18  1  0  0  0  0
 13 12  2  0  0  0  0
 13  1  1  0  0  0  0
 14 13  1  0  0  0  0
 15 16  1  0  0  0  0
 15 14  2  0  0  0  0
 16 11  2  0  0  0  0
 19 15  1  0  0  0  0
 20  2  1  0  0  0  0
 21 20  1  0  0  0  0
 22 20  1  0  0  0  0
 23 20  1  0  0  0  0
 24 25  1  0  0  0  0
 24 23  1  0  0  0  0
 26 28  1  0  0  0  0
 26 27  1  0  0  0  0
 26 24  1  0  0  0  0
 28 30  1  0  0  0  0
 29 28  1  0  0  0  0
 30 31  1  0  0  0  0
 31 23  1  0  0  0  0
M  END
>  <minimizedAffinity>
-4.70416021

$$$$
