
 OpenBabel03252506193D

 23 24  0  0  0  0  0  0  0  0999 V2000
   38.7120   25.2980   42.3190 C   0  0  0  0  0  0  0  0  0  0  0  0
   39.6490   25.6310   43.3170 C   0  0  0  0  0  0  0  0  0  0  0  0
   39.7850   26.9830   43.6320 C   0  0  0  0  0  0  0  0  0  0  0  0
   39.0210   27.9050   42.9760 N   0  0  0  0  0  0  0  0  0  0  0  0
   38.1360   27.5370   42.0250 C   0  0  0  0  0  0  0  0  0  0  0  0
   37.9930   26.2310   41.7100 N   0  0  0  0  0  0  0  0  0  0  0  0
   40.2470   24.9020   43.8310 H   0  0  0  0  0  0  0  0  0  0  0  0
   40.4730   27.3490   44.3800 H   0  0  0  0  0  0  0  0  0  0  0  0
   37.3890   28.5610   41.3990 N   0  0  0  0  0  0  0  0  0  0  0  0
   35.9730   28.3650   41.2150 C   0  0  0  0  0  3  0  0  0  0  0  0
   35.4450   28.0980   42.1560 H   0  0  0  0  0  0  0  0  0  0  0  0
   35.3110   29.4970   40.4850 C   0  0  0  0  0  3  0  0  0  0  0  0
   34.2140   29.3730   40.6080 H   0  0  0  0  0  0  0  0  0  0  0  0
   35.6520   30.7980   40.9900 N   0  0  0  0  0  0  0  0  0  0  0  0
   35.5040   31.5220   40.2540 H   0  0  0  0  0  0  0  0  0  0  0  0
   36.9990   30.8970   41.4870 C   0  0  0  0  0  2  0  0  0  0  0  0
   37.9100   29.8030   40.9170 C   0  0  0  0  0  2  0  0  0  0  0  0
   38.5500   23.8790   41.9690 C   0  0  0  0  0  3  0  0  0  0  0  0
   38.1560   23.5750   40.7520 C   0  0  0  0  0  3  0  0  0  0  0  0
   37.9620   22.1760   40.2990 C   0  0  0  0  0  0  0  0  0  0  0  0
   36.8820   21.8780   40.2600 H   0  0  0  0  0  0  0  0  0  0  0  0
   38.4580   22.0810   39.3030 H   0  0  0  0  0  0  0  0  0  0  0  0
   38.5420   21.4700   40.9590 H   0  0  0  0  0  0  0  0  0  0  0  0
  1  2  1  0  0  0  0
  2  3  2  0  0  0  0
  2  7  1  0  0  0  0
  3  8  1  0  0  0  0
  4  3  1  0  0  0  0
  5  4  2  0  0  0  0
  6  5  1  0  0  0  0
  6  1  2  0  0  0  0
  9  5  1  0  0  0  0
 10  9  1  0  0  0  0
 10 11  1  0  0  0  0
 12 13  1  0  0  0  0
 12 14  1  0  0  0  0
 12 10  1  0  0  0  0
 14 16  1  0  0  0  0
 15 14  1  0  0  0  0
 17  9  1  0  0  0  0
 17 16  1  0  0  0  0
 18  1  1  0  0  0  0
 19 18  2  0  0  0  0
 20 19  1  0  0  0  0
 20 23  1  0  0  0  0
 21 20  1  0  0  0  0
 22 20  1  0  0  0  0
M  END
>  <minimizedAffinity>
-4.68138742

$$$$

 OpenBabel03252506193D

 23 24  0  0  0  0  0  0  0  0999 V2000
   37.4770   27.6990   41.4320 C   0  0  0  0  0  0  0  0  0  0  0  0
   37.8910   27.6920   42.7790 C   0  0  0  0  0  0  0  0  0  0  0  0
   38.3760   28.8930   43.2980 C   0  0  0  0  0  0  0  0  0  0  0  0
   38.4270   29.9980   42.4980 N   0  0  0  0  0  0  0  0  0  0  0  0
   38.0190   29.9550   41.2120 C   0  0  0  0  0  0  0  0  0  0  0  0
   37.5460   28.8000   40.6960 N   0  0  0  0  0  0  0  0  0  0  0  0
   37.8480   26.8210   43.4050 H   0  0  0  0  0  0  0  0  0  0  0  0
   38.7200   29.0010   44.3170 H   0  0  0  0  0  0  0  0  0  0  0  0
   38.1090   31.1490   40.4600 N   0  0  0  0  0  0  0  0  0  0  0  0
   36.9890   31.5280   39.6360 C   0  0  0  0  0  3  0  0  0  0  0  0
   36.0290   31.5610   40.1940 H   0  0  0  0  0  0  0  0  0  0  0  0
   37.2360   32.7790   38.8430 C   0  0  0  0  0  3  0  0  0  0  0  0
   36.2560   33.1160   38.4440 H   0  0  0  0  0  0  0  0  0  0  0  0
   37.7770   33.8620   39.6160 N   0  0  0  0  0  0  0  0  0  0  0  0
   38.2800   34.5340   38.9950 H   0  0  0  0  0  0  0  0  0  0  0  0
   38.6600   33.4440   40.6730 C   0  0  0  0  0  2  0  0  0  0  0  0
   39.2280   32.0400   40.4320 C   0  0  0  0  0  2  0  0  0  0  0  0
   36.9610   26.4460   40.8620 C   0  0  0  0  0  3  0  0  0  0  0  0
   37.1070   25.3360   41.5530 C   0  0  0  0  0  3  0  0  0  0  0  0
   36.6220   24.0210   41.0670 C   0  0  0  0  0  0  0  0  0  0  0  0
   37.4470   23.3740   40.6700 H   0  0  0  0  0  0  0  0  0  0  0  0
   36.0810   23.5360   41.9150 H   0  0  0  0  0  0  0  0  0  0  0  0
   35.8240   24.1660   40.2840 H   0  0  0  0  0  0  0  0  0  0  0  0
  1  2  1  0  0  0  0
  2  3  2  0  0  0  0
  2  7  1  0  0  0  0
  3  8  1  0  0  0  0
  4  3  1  0  0  0  0
  5  4  2  0  0  0  0
  6  5  1  0  0  0  0
  6  1  2  0  0  0  0
  9  5  1  0  0  0  0
 10 11  1  0  0  0  0
 10  9  1  0  0  0  0
 12 14  1  0  0  0  0
 12 10  1  0  0  0  0
 13 12  1  0  0  0  0
 14 16  1  0  0  0  0
 15 14  1  0  0  0  0
 17  9  1  0  0  0  0
 17 16  1  0  0  0  0
 18  1  1  0  0  0  0
 18 19  2  0  0  0  0
 20 19  1  0  0  0  0
 20 22  1  0  0  0  0
 21 20  1  0  0  0  0
 23 20  1  0  0  0  0
M  END
>  <minimizedAffinity>
-4.633008

$$$$

 OpenBabel03252506193D

 23 24  0  0  0  0  0  0  0  0999 V2000
   37.0360   28.4720   41.5420 C   0  0  0  0  0  0  0  0  0  0  0  0
   35.8030   28.7600   40.9210 C   0  0  0  0  0  0  0  0  0  0  0  0
   35.6950   29.9880   40.2680 C   0  0  0  0  0  0  0  0  0  0  0  0
   36.7620   30.8390   40.2580 N   0  0  0  0  0  0  0  0  0  0  0  0
   37.9240   30.5200   40.8670 C   0  0  0  0  0  0  0  0  0  0  0  0
   38.0440   29.3340   41.5030 N   0  0  0  0  0  0  0  0  0  0  0  0
   34.9670   28.0870   40.9320 H   0  0  0  0  0  0  0  0  0  0  0  0
   34.7970   30.3090   39.7610 H   0  0  0  0  0  0  0  0  0  0  0  0
   38.9740   31.4640   40.8040 N   0  0  0  0  0  0  0  0  0  0  0  0
   40.3010   30.9960   40.4920 C   0  0  0  0  0  3  0  0  0  0  0  0
   40.3420   30.3920   39.5600 H   0  0  0  0  0  0  0  0  0  0  0  0
   41.3320   32.0860   40.5170 C   0  0  0  0  0  3  0  0  0  0  0  0
   42.2490   31.6850   40.0350 H   0  0  0  0  0  0  0  0  0  0  0  0
   40.9520   33.2670   39.7930 N   0  0  0  0  0  0  0  0  0  0  0  0
   41.4790   34.0940   40.1460 H   0  0  0  0  0  0  0  0  0  0  0  0
   39.5410   33.5510   39.8370 C   0  0  0  0  0  2  0  0  0  0  0  0
   38.8490   32.8720   41.0250 C   0  0  0  0  0  2  0  0  0  0  0  0
   37.1760   27.1850   42.2370 C   0  0  0  0  0  3  0  0  0  0  0  0
   37.0810   26.0790   41.5310 C   0  0  0  0  0  3  0  0  0  0  0  0
   37.2070   24.7300   42.1360 C   0  0  0  0  0  0  0  0  0  0  0  0
   36.2180   24.2200   42.2710 H   0  0  0  0  0  0  0  0  0  0  0  0
   37.8960   24.1400   41.4850 H   0  0  0  0  0  0  0  0  0  0  0  0
   37.7540   24.7950   43.1200 H   0  0  0  0  0  0  0  0  0  0  0  0
  1 18  1  0  0  0  0
  2  7  1  0  0  0  0
  2  1  2  0  0  0  0
  3  2  1  0  0  0  0
  4  3  2  0  0  0  0
  4  5  1  0  0  0  0
  5  6  2  0  0  0  0
  6  1  1  0  0  0  0
  8  3  1  0  0  0  0
  9  5  1  0  0  0  0
  9 17  1  0  0  0  0
 10 12  1  0  0  0  0
 10  9  1  0  0  0  0
 11 10  1  0  0  0  0
 13 12  1  0  0  0  0
 14 16  1  0  0  0  0
 14 15  1  0  0  0  0
 14 12  1  0  0  0  0
 16 17  1  0  0  0  0
 19 20  1  0  0  0  0
 19 18  2  0  0  0  0
 20 21  1  0  0  0  0
 20 23  1  0  0  0  0
 22 20  1  0  0  0  0
M  END
>  <minimizedAffinity>
-4.37046051

$$$$

 OpenBabel03252506193D

 23 24  0  0  0  0  0  0  0  0999 V2000
   35.9720   29.2930   40.5610 C   0  0  0  0  0  0  0  0  0  0  0  0
   36.2300   28.3210   41.5480 C   0  0  0  0  0  0  0  0  0  0  0  0
   37.4520   28.4050   42.2150 C   0  0  0  0  0  0  0  0  0  0  0  0
   38.3270   29.4020   41.8910 N   0  0  0  0  0  0  0  0  0  0  0  0
   38.0360   30.3110   40.9360 C   0  0  0  0  0  0  0  0  0  0  0  0
   36.8550   30.2430   40.2820 N   0  0  0  0  0  0  0  0  0  0  0  0
   35.5390   27.5390   41.7990 H   0  0  0  0  0  0  0  0  0  0  0  0
   37.7520   27.7120   42.9880 H   0  0  0  0  0  0  0  0  0  0  0  0
   39.0020   31.3070   40.6690 N   0  0  0  0  0  0  0  0  0  0  0  0
   38.5620   32.6730   40.5320 C   0  0  0  0  0  3  0  0  0  0  0  0
   37.9560   33.0240   41.3950 H   0  0  0  0  0  0  0  0  0  0  0  0
   39.6750   33.6200   40.1880 C   0  0  0  0  0  3  0  0  0  0  0  0
   39.2920   34.6510   40.3460 H   0  0  0  0  0  0  0  0  0  0  0  0
   40.8440   33.4700   41.0100 N   0  0  0  0  0  0  0  0  0  0  0  0
   41.6840   33.8400   40.5150 H   0  0  0  0  0  0  0  0  0  0  0  0
   41.0970   32.1150   41.4250 C   0  0  0  0  0  2  0  0  0  0  0  0
   40.4080   31.0910   40.5160 C   0  0  0  0  0  2  0  0  0  0  0  0
   34.6910   29.2270   39.8430 C   0  0  0  0  0  3  0  0  0  0  0  0
   34.7030   28.9150   38.5660 C   0  0  0  0  0  3  0  0  0  0  0  0
   33.4660   28.8210   37.7530 C   0  0  0  0  0  0  0  0  0  0  0  0
   33.3120   29.7140   37.0920 H   0  0  0  0  0  0  0  0  0  0  0  0
   33.5280   27.8730   37.1670 H   0  0  0  0  0  0  0  0  0  0  0  0
   32.5710   28.6680   38.4220 H   0  0  0  0  0  0  0  0  0  0  0  0
  1  2  1  0  0  0  0
  2  7  1  0  0  0  0
  2  3  2  0  0  0  0
  3  8  1  0  0  0  0
  4  3  1  0  0  0  0
  5  4  2  0  0  0  0
  6  1  2  0  0  0  0
  6  5  1  0  0  0  0
  9  5  1  0  0  0  0
 10  9  1  0  0  0  0
 10 11  1  0  0  0  0
 12 13  1  0  0  0  0
 12 10  1  0  0  0  0
 12 14  1  0  0  0  0
 14 16  1  0  0  0  0
 15 14  1  0  0  0  0
 17  9  1  0  0  0  0
 17 16  1  0  0  0  0
 18  1  1  0  0  0  0
 19 18  2  0  0  0  0
 20 23  1  0  0  0  0
 20 19  1  0  0  0  0
 21 20  1  0  0  0  0
 22 20  1  0  0  0  0
M  END
>  <minimizedAffinity>
-4.34577227

$$$$

 OpenBabel03252506193D

 23 24  0  0  0  0  0  0  0  0999 V2000
   37.8650   31.7100   39.3620 C   0  0  0  0  0  0  0  0  0  0  0  0
   37.4410   32.8940   39.9970 C   0  0  0  0  0  0  0  0  0  0  0  0
   38.3800   33.9200   40.1150 C   0  0  0  0  0  0  0  0  0  0  0  0
   39.6400   33.7360   39.6210 N   0  0  0  0  0  0  0  0  0  0  0  0
   40.0000   32.5820   39.0210 C   0  0  0  0  0  0  0  0  0  0  0  0
   39.1010   31.5800   38.8990 N   0  0  0  0  0  0  0  0  0  0  0  0
   36.4490   33.0340   40.3820 H   0  0  0  0  0  0  0  0  0  0  0  0
   38.1620   34.8680   40.5830 H   0  0  0  0  0  0  0  0  0  0  0  0
   41.3260   32.4840   38.5410 N   0  0  0  0  0  0  0  0  0  0  0  0
   41.5410   31.9350   37.2260 C   0  0  0  0  0  3  0  0  0  0  0  0
   40.9420   32.4420   36.4390 H   0  0  0  0  0  0  0  0  0  0  0  0
   42.9940   31.8280   36.8620 C   0  0  0  0  0  3  0  0  0  0  0  0
   43.0480   31.6340   35.7700 H   0  0  0  0  0  0  0  0  0  0  0  0
   43.7500   33.0210   37.1210 N   0  0  0  0  0  0  0  0  0  0  0  0
   44.7620   32.7930   37.2280 H   0  0  0  0  0  0  0  0  0  0  0  0
   43.3060   33.7570   38.2760 C   0  0  0  0  0  2  0  0  0  0  0  0
   42.5040   32.8820   39.2470 C   0  0  0  0  0  2  0  0  0  0  0  0
   36.8940   30.6140   39.2240 C   0  0  0  0  0  3  0  0  0  0  0  0
   36.0610   30.3870   40.2160 C   0  0  0  0  0  3  0  0  0  0  0  0
   35.0450   29.3070   40.1760 C   0  0  0  0  0  0  0  0  0  0  0  0
   35.3370   28.4130   40.7860 H   0  0  0  0  0  0  0  0  0  0  0  0
   34.0800   29.7510   40.5220 H   0  0  0  0  0  0  0  0  0  0  0  0
   34.8380   29.0060   39.1090 H   0  0  0  0  0  0  0  0  0  0  0  0
  1  2  1  0  0  0  0
  2  3  2  0  0  0  0
  2  7  1  0  0  0  0
  3  8  1  0  0  0  0
  4  3  1  0  0  0  0
  5  4  2  0  0  0  0
  6  5  1  0  0  0  0
  6  1  2  0  0  0  0
  9  5  1  0  0  0  0
  9 17  1  0  0  0  0
 10  9  1  0  0  0  0
 11 10  1  0  0  0  0
 12 14  1  0  0  0  0
 12 10  1  0  0  0  0
 13 12  1  0  0  0  0
 14 15  1  0  0  0  0
 14 16  1  0  0  0  0
 16 17  1  0  0  0  0
 18  1  1  0  0  0  0
 18 19  2  0  0  0  0
 20 19  1  0  0  0  0
 20 22  1  0  0  0  0
 20 21  1  0  0  0  0
 23 20  1  0  0  0  0
M  END
>  <minimizedAffinity>
-4.33661222

$$$$

 OpenBabel03252506193D

 23 24  0  0  0  0  0  0  0  0999 V2000
   37.9060   30.0000   41.2870 C   0  0  0  0  0  0  0  0  0  0  0  0
   36.5220   30.0010   41.0220 C   0  0  0  0  0  0  0  0  0  0  0  0
   35.8710   28.7680   41.0490 C   0  0  0  0  0  0  0  0  0  0  0  0
   36.5860   27.6380   41.3240 N   0  0  0  0  0  0  0  0  0  0  0  0
   37.9130   27.6860   41.5710 C   0  0  0  0  0  0  0  0  0  0  0  0
   38.5560   28.8740   41.5490 N   0  0  0  0  0  0  0  0  0  0  0  0
   35.9640   30.8930   40.8070 H   0  0  0  0  0  0  0  0  0  0  0  0
   34.8130   28.6540   40.8610 H   0  0  0  0  0  0  0  0  0  0  0  0
   38.5690   26.4650   41.8460 N   0  0  0  0  0  0  0  0  0  0  0  0
   39.4970   26.4170   42.9470 C   0  0  0  0  0  3  0  0  0  0  0  0
   39.0590   26.7790   43.9020 H   0  0  0  0  0  0  0  0  0  0  0  0
   40.1710   25.0840   43.0930 C   0  0  0  0  0  3  0  0  0  0  0  0
   40.6650   25.0690   44.0880 H   0  0  0  0  0  0  0  0  0  0  0  0
   39.2700   23.9660   43.0480 N   0  0  0  0  0  0  0  0  0  0  0  0
   39.7800   23.1010   42.7650 H   0  0  0  0  0  0  0  0  0  0  0  0
   38.1420   24.1580   42.1750 C   0  0  0  0  0  2  0  0  0  0  0  0
   38.4020   25.2420   41.1220 C   0  0  0  0  0  2  0  0  0  0  0  0
   38.6150   31.2880   41.2650 C   0  0  0  0  0  3  0  0  0  0  0  0
   38.0870   32.2820   40.5850 C   0  0  0  0  0  3  0  0  0  0  0  0
   38.7230   33.6200   40.5000 C   0  0  0  0  0  0  0  0  0  0  0  0
   39.2410   33.7930   39.5210 H   0  0  0  0  0  0  0  0  0  0  0  0
   37.9230   34.3760   40.6880 H   0  0  0  0  0  0  0  0  0  0  0  0
   39.4400   33.7650   41.3570 H   0  0  0  0  0  0  0  0  0  0  0  0
  1  6  1  0  0  0  0
  2  3  1  0  0  0  0
  2  1  2  0  0  0  0
  3  4  2  0  0  0  0
  4  5  1  0  0  0  0
  5  9  1  0  0  0  0
  6  5  2  0  0  0  0
  7  2  1  0  0  0  0
  8  3  1  0  0  0  0
  9 10  1  0  0  0  0
 10 12  1  0  0  0  0
 10 11  1  0  0  0  0
 12 13  1  0  0  0  0
 14 12  1  0  0  0  0
 15 14  1  0  0  0  0
 16 14  1  0  0  0  0
 17  9  1  0  0  0  0
 17 16  1  0  0  0  0
 18  1  1  0  0  0  0
 19 18  2  0  0  0  0
 20 19  1  0  0  0  0
 20 22  1  0  0  0  0
 20 23  1  0  0  0  0
 21 20  1  0  0  0  0
M  END
>  <minimizedAffinity>
-4.33334255

$$$$

 OpenBabel03252506193D

 23 24  0  0  0  0  0  0  0  0999 V2000
   37.2960   27.1170   42.0590 C   0  0  0  0  0  0  0  0  0  0  0  0
   37.3880   27.6550   43.3590 C   0  0  0  0  0  0  0  0  0  0  0  0
   37.6670   29.0180   43.4610 C   0  0  0  0  0  0  0  0  0  0  0  0
   37.8350   29.7560   42.3240 N   0  0  0  0  0  0  0  0  0  0  0  0
   37.7390   29.1950   41.1000 C   0  0  0  0  0  0  0  0  0  0  0  0
   37.4680   27.8760   40.9860 N   0  0  0  0  0  0  0  0  0  0  0  0
   37.2540   27.0710   44.2490 H   0  0  0  0  0  0  0  0  0  0  0  0
   37.7590   29.5330   44.4060 H   0  0  0  0  0  0  0  0  0  0  0  0
   37.9280   30.0370   39.9810 N   0  0  0  0  0  0  0  0  0  0  0  0
   37.0080   29.9300   38.8770 C   0  0  0  0  0  3  0  0  0  0  0  0
   35.9440   30.0250   39.1860 H   0  0  0  0  0  0  0  0  0  0  0  0
   37.3560   30.8340   37.7290 C   0  0  0  0  0  3  0  0  0  0  0  0
   36.4760   30.8610   37.0520 H   0  0  0  0  0  0  0  0  0  0  0  0
   37.6380   32.1880   38.1170 N   0  0  0  0  0  0  0  0  0  0  0  0
   38.2290   32.6550   37.3950 H   0  0  0  0  0  0  0  0  0  0  0  0
   38.2760   32.3090   39.4010 C   0  0  0  0  0  2  0  0  0  0  0  0
   38.9680   31.0090   39.8300 C   0  0  0  0  0  2  0  0  0  0  0  0
   37.0030   25.6830   41.9240 C   0  0  0  0  0  3  0  0  0  0  0  0
   37.5700   25.0170   40.9420 C   0  0  0  0  0  3  0  0  0  0  0  0
   37.3400   23.5680   40.7200 C   0  0  0  0  0  0  0  0  0  0  0  0
   36.6320   23.3660   39.8740 H   0  0  0  0  0  0  0  0  0  0  0  0
   38.3390   23.0990   40.5500 H   0  0  0  0  0  0  0  0  0  0  0  0
   36.9700   23.0830   41.6680 H   0  0  0  0  0  0  0  0  0  0  0  0
  1  2  1  0  0  0  0
  2  3  2  0  0  0  0
  2  7  1  0  0  0  0
  3  8  1  0  0  0  0
  4  3  1  0  0  0  0
  5  4  2  0  0  0  0
  6  5  1  0  0  0  0
  6  1  2  0  0  0  0
  9  5  1  0  0  0  0
 10 11  1  0  0  0  0
 10  9  1  0  0  0  0
 12 14  1  0  0  0  0
 12 10  1  0  0  0  0
 13 12  1  0  0  0  0
 14 16  1  0  0  0  0
 15 14  1  0  0  0  0
 16 17  1  0  0  0  0
 17  9  1  0  0  0  0
 18  1  1  0  0  0  0
 19 18  2  0  0  0  0
 20 19  1  0  0  0  0
 20 23  1  0  0  0  0
 21 20  1  0  0  0  0
 22 20  1  0  0  0  0
M  END
>  <minimizedAffinity>
-4.33164454

$$$$

 OpenBabel03252506193D

 23 24  0  0  0  0  0  0  0  0999 V2000
   39.7200   28.5220   42.1640 C   0  0  0  0  0  0  0  0  0  0  0  0
   40.9960   28.6920   42.7370 C   0  0  0  0  0  0  0  0  0  0  0  0
   41.9190   29.4480   42.0130 C   0  0  0  0  0  0  0  0  0  0  0  0
   41.5550   29.9770   40.8080 N   0  0  0  0  0  0  0  0  0  0  0  0
   40.3190   29.7860   40.2990 C   0  0  0  0  0  0  0  0  0  0  0  0
   39.4150   29.0570   40.9900 N   0  0  0  0  0  0  0  0  0  0  0  0
   41.2770   28.2750   43.6850 H   0  0  0  0  0  0  0  0  0  0  0  0
   42.9240   29.6410   42.3580 H   0  0  0  0  0  0  0  0  0  0  0  0
   40.0330   30.3720   39.0460 N   0  0  0  0  0  0  0  0  0  0  0  0
   38.7790   31.0630   38.8810 C   0  0  0  0  0  3  0  0  0  0  0  0
   38.6050   31.8400   39.6560 H   0  0  0  0  0  0  0  0  0  0  0  0
   38.5720   31.5850   37.4880 C   0  0  0  0  0  3  0  0  0  0  0  0
   37.7190   32.2950   37.5250 H   0  0  0  0  0  0  0  0  0  0  0  0
   39.7000   32.3000   36.9580 N   0  0  0  0  0  0  0  0  0  0  0  0
   39.6730   32.2960   35.9150 H   0  0  0  0  0  0  0  0  0  0  0  0
   40.9730   31.7960   37.4010 C   0  0  0  0  0  2  0  0  0  0  0  0
   40.8830   30.3460   37.8950 C   0  0  0  0  0  2  0  0  0  0  0  0
   38.7290   27.7300   42.9080 C   0  0  0  0  0  3  0  0  0  0  0  0
   37.4890   28.1650   42.9560 C   0  0  0  0  0  3  0  0  0  0  0  0
   36.4140   27.4410   43.6790 C   0  0  0  0  0  0  0  0  0  0  0  0
   36.1630   27.9100   44.6660 H   0  0  0  0  0  0  0  0  0  0  0  0
   35.5300   27.4000   42.9990 H   0  0  0  0  0  0  0  0  0  0  0  0
   36.7000   26.3590   43.8180 H   0  0  0  0  0  0  0  0  0  0  0  0
  1  2  1  0  0  0  0
  1 18  1  0  0  0  0
  2  7  1  0  0  0  0
  3  8  1  0  0  0  0
  3  2  2  0  0  0  0
  4  3  1  0  0  0  0
  5  4  2  0  0  0  0
  5  6  1  0  0  0  0
  6  1  2  0  0  0  0
  9  5  1  0  0  0  0
 10  9  1  0  0  0  0
 10 11  1  0  0  0  0
 12 13  1  0  0  0  0
 12 10  1  0  0  0  0
 14 16  1  0  0  0  0
 14 12  1  0  0  0  0
 15 14  1  0  0  0  0
 16 17  1  0  0  0  0
 17  9  1  0  0  0  0
 18 19  2  0  0  0  0
 19 20  1  0  0  0  0
 20 23  1  0  0  0  0
 20 21  1  0  0  0  0
 22 20  1  0  0  0  0
M  END
>  <minimizedAffinity>
-4.30367136

$$$$

 OpenBabel03252506193D

 23 24  0  0  0  0  0  0  0  0999 V2000
   39.5040   28.2460   42.8820 C   0  0  0  0  0  0  0  0  0  0  0  0
   38.2690   27.9170   43.4770 C   0  0  0  0  0  0  0  0  0  0  0  0
   37.1500   28.6290   43.0460 C   0  0  0  0  0  0  0  0  0  0  0  0
   37.2940   29.5910   42.0890 N   0  0  0  0  0  0  0  0  0  0  0  0
   38.4980   29.8720   41.5480 C   0  0  0  0  0  0  0  0  0  0  0  0
   39.5920   29.1900   41.9550 N   0  0  0  0  0  0  0  0  0  0  0  0
   38.1610   27.1590   44.2300 H   0  0  0  0  0  0  0  0  0  0  0  0
   36.1560   28.4590   43.4350 H   0  0  0  0  0  0  0  0  0  0  0  0
   38.5510   30.8840   40.5620 N   0  0  0  0  0  0  0  0  0  0  0  0
   39.3160   30.6390   39.3660 C   0  0  0  0  0  3  0  0  0  0  0  0
   39.0330   29.6940   38.8540 H   0  0  0  0  0  0  0  0  0  0  0  0
   39.3410   31.8140   38.4310 C   0  0  0  0  0  3  0  0  0  0  0  0
   39.7330   31.4530   37.4570 H   0  0  0  0  0  0  0  0  0  0  0  0
   38.0490   32.3900   38.1820 N   0  0  0  0  0  0  0  0  0  0  0  0
   38.1480   33.3820   37.8740 H   0  0  0  0  0  0  0  0  0  0  0  0
   37.1550   32.3320   39.3100 C   0  0  0  0  0  2  0  0  0  0  0  0
   37.9050   32.1590   40.6360 C   0  0  0  0  0  2  0  0  0  0  0  0
   40.6990   27.5100   43.3190 C   0  0  0  0  0  3  0  0  0  0  0  0
   40.8660   26.2770   42.8920 C   0  0  0  0  0  3  0  0  0  0  0  0
   42.0370   25.4500   43.2730 C   0  0  0  0  0  0  0  0  0  0  0  0
   41.7930   24.6870   44.0580 H   0  0  0  0  0  0  0  0  0  0  0  0
   42.4250   24.9770   42.3380 H   0  0  0  0  0  0  0  0  0  0  0  0
   42.8850   26.1100   43.6150 H   0  0  0  0  0  0  0  0  0  0  0  0
  1 18  1  0  0  0  0
  1  2  1  0  0  0  0
  2  7  1  0  0  0  0
  3  8  1  0  0  0  0
  3  2  2  0  0  0  0
  4  3  1  0  0  0  0
  5  6  1  0  0  0  0
  5  4  2  0  0  0  0
  6  1  2  0  0  0  0
  9 17  1  0  0  0  0
  9  5  1  0  0  0  0
 10  9  1  0  0  0  0
 11 10  1  0  0  0  0
 12 10  1  0  0  0  0
 13 12  1  0  0  0  0
 14 12  1  0  0  0  0
 14 16  1  0  0  0  0
 15 14  1  0  0  0  0
 16 17  1  0  0  0  0
 19 20  1  0  0  0  0
 19 18  2  0  0  0  0
 20 23  1  0  0  0  0
 20 21  1  0  0  0  0
 22 20  1  0  0  0  0
M  END
>  <minimizedAffinity>
-4.27145004

$$$$
