
 OpenBabel03252508193D

 34 36  0  0  0  0  0  0  0  0999 V2000
   45.4060   34.1540   40.7540 C   0  0  0  0  0  0  0  0  0  0  0  0
   46.4910   34.5280   41.5410 C   0  0  0  0  0  0  0  0  0  0  0  0
   46.4000   35.3350   42.6410 C   0  0  0  0  0  0  0  0  0  0  0  0
   45.1270   35.7910   42.9620 C   0  0  0  0  0  0  0  0  0  0  0  0
   44.0220   35.4500   42.2190 C   0  0  0  0  0  0  0  0  0  0  0  0
   44.1450   34.6420   41.1260 C   0  0  0  0  0  0  0  0  0  0  0  0
   47.4150   34.1020   41.1750 H   0  0  0  0  0  0  0  0  0  0  0  0
   47.3010   35.5860   43.2100 H   0  0  0  0  0  0  0  0  0  0  0  0
   45.0420   36.4340   43.8370 H   0  0  0  0  0  0  0  0  0  0  0  0
   43.0840   35.8620   42.5630 H   0  0  0  0  0  0  0  0  0  0  0  0
   42.9530   34.3550   40.4350 N   0  0  0  0  0  0  0  0  0  0  0  0
   42.5180   35.0890   39.2590 C   0  0  0  0  0  3  0  0  0  0  0  0
   43.3620   35.2630   38.5580 H   0  0  0  0  0  0  0  0  0  0  0  0
   41.4880   34.2760   38.4840 C   0  0  0  0  0  3  0  0  0  0  0  0
   41.4390   34.6910   37.4730 H   0  0  0  0  0  0  0  0  0  0  0  0
   41.7640   32.8810   38.4250 N   0  0  0  0  0  0  0  0  0  0  0  0
   42.4560   32.6440   37.6950 H   0  0  0  0  0  0  0  0  0  0  0  0
   41.9590   32.2570   39.6950 C   0  0  0  0  0  2  0  0  0  0  0  0
   42.0000   33.3050   40.7870 C   0  0  0  0  0  2  0  0  0  0  0  0
   45.4810   33.2900   39.5550 C   0  0  0  0  0  0  0  0  0  0  0  0
   45.3820   32.2410   39.8400 H   0  0  0  0  0  0  0  0  0  0  0  0
   44.7940   33.6750   38.8020 H   0  0  0  0  0  0  0  0  0  0  0  0
   46.8800   33.3960   38.9380 C   0  0  0  0  0  0  0  0  0  0  0  0
   47.1770   34.4640   38.9760 H   0  0  0  0  0  0  0  0  0  0  0  0
   47.5660   32.7560   39.5090 H   0  0  0  0  0  0  0  0  0  0  0  0
   45.4540   32.4000   35.6010 C   0  0  0  0  0  0  0  0  0  0  0  0
   45.5360   32.8250   36.9510 C   0  0  0  0  0  0  0  0  0  0  0  0
   46.7900   32.9530   37.5320 C   0  0  0  0  0  0  0  0  0  0  0  0
   47.8920   32.6560   36.7520 N   0  0  0  0  0  0  0  0  0  0  0  0
   47.7690   32.2560   35.4790 C   0  0  0  0  0  0  0  0  0  0  0  0
   46.5660   32.1290   34.9060 N   0  0  0  0  0  0  0  0  0  0  0  0
   44.4980   32.2860   35.1100 H   0  0  0  0  0  0  0  0  0  0  0  0
   44.6050   33.0250   37.4480 H   0  0  0  0  0  0  0  0  0  0  0  0
   48.7380   32.0640   35.0150 H   0  0  0  0  0  0  0  0  0  0  0  0
  1  6  2  0  0  0  0
  1  2  1  0  0  0  0
  2  3  2  0  0  0  0
  3  4  1  0  0  0  0
  3  8  1  0  0  0  0
  4  9  1  0  0  0  0
  5 10  1  0  0  0  0
  5  4  2  0  0  0  0
  6  5  1  0  0  0  0
  7  2  1  0  0  0  0
 11 19  1  0  0  0  0
 11  6  1  0  0  0  0
 12 11  1  0  0  0  0
 13 12  1  0  0  0  0
 14 12  1  0  0  0  0
 15 14  1  0  0  0  0
 16 14  1  0  0  0  0
 16 18  1  0  0  0  0
 17 16  1  0  0  0  0
 18 19  1  0  0  0  0
 20 21  1  0  0  0  0
 20  1  1  0  0  0  0
 22 20  1  0  0  0  0
 23 24  1  0  0  0  0
 23 25  1  0  0  0  0
 23 20  1  0  0  0  0
 26 27  1  0  0  0  0
 27 33  1  0  0  0  0
 27 28  2  0  0  0  0
 28 23  1  0  0  0  0
 29 28  1  0  0  0  0
 30 29  2  0  0  0  0
 31 30  1  0  0  0  0
 31 26  2  0  0  0  0
 32 26  1  0  0  0  0
 34 30  1  0  0  0  0
M  END
>  <minimizedAffinity>
-4.54211378

>  <minimizedRMSD>
6.01716185

$$$$
