
 OpenBabel03252508203D

 34 36  0  0  0  0  0  0  0  0999 V2000
   46.2620   33.8600   40.5600 C   0  0  0  0  0  0  0  0  0  0  0  0
   46.8930   33.6900   39.3310 C   0  0  0  0  0  0  0  0  0  0  0  0
   48.0990   34.2450   39.0040 C   0  0  0  0  0  0  0  0  0  0  0  0
   48.7030   35.0200   39.9870 C   0  0  0  0  0  0  0  0  0  0  0  0
   48.1230   35.2180   41.2170 C   0  0  0  0  0  0  0  0  0  0  0  0
   46.9180   34.6510   41.5140 C   0  0  0  0  0  0  0  0  0  0  0  0
   46.3110   33.0670   38.6670 H   0  0  0  0  0  0  0  0  0  0  0  0
   48.5320   34.0650   38.0150 H   0  0  0  0  0  0  0  0  0  0  0  0
   49.6650   35.4660   39.7380 H   0  0  0  0  0  0  0  0  0  0  0  0
   48.6840   35.8380   41.9020 H   0  0  0  0  0  0  0  0  0  0  0  0
   46.4120   34.9180   42.8000 N   0  0  0  0  0  0  0  0  0  0  0  0
   45.4420   35.9640   43.0720 C   0  0  0  0  0  3  0  0  0  0  0  0
   44.6360   35.9760   42.3090 H   0  0  0  0  0  0  0  0  0  0  0  0
   44.7540   35.7070   44.4090 C   0  0  0  0  0  3  0  0  0  0  0  0
   43.8340   36.3000   44.4190 H   0  0  0  0  0  0  0  0  0  0  0  0
   44.4560   34.3380   44.6610 N   0  0  0  0  0  0  0  0  0  0  0  0
   43.5900   34.0280   44.1900 H   0  0  0  0  0  0  0  0  0  0  0  0
   45.5730   33.4550   44.5610 C   0  0  0  0  0  2  0  0  0  0  0  0
   46.7750   34.2010   44.0200 C   0  0  0  0  0  2  0  0  0  0  0  0
   44.9540   33.2780   40.9330 C   0  0  0  0  0  0  0  0  0  0  0  0
   45.0130   32.1890   40.9380 H   0  0  0  0  0  0  0  0  0  0  0  0
   44.5980   33.7680   41.8390 H   0  0  0  0  0  0  0  0  0  0  0  0
   43.9220   33.6080   39.8480 C   0  0  0  0  0  0  0  0  0  0  0  0
   44.2890   34.5030   39.3050 H   0  0  0  0  0  0  0  0  0  0  0  0
   43.8160   32.7380   39.1870 H   0  0  0  0  0  0  0  0  0  0  0  0
   41.2100   35.5050   41.6380 C   0  0  0  0  0  0  0  0  0  0  0  0
   42.4380   35.2090   40.9960 C   0  0  0  0  0  0  0  0  0  0  0  0
   42.6430   33.9220   40.5180 C   0  0  0  0  0  0  0  0  0  0  0  0
   41.6290   33.0000   40.7000 N   0  0  0  0  0  0  0  0  0  0  0  0
   40.4840   33.3230   41.3150 C   0  0  0  0  0  0  0  0  0  0  0  0
   40.2720   34.5600   41.7790 N   0  0  0  0  0  0  0  0  0  0  0  0
   41.0080   36.4940   42.0260 H   0  0  0  0  0  0  0  0  0  0  0  0
   43.1450   36.0140   40.9170 H   0  0  0  0  0  0  0  0  0  0  0  0
   39.7970   32.4770   41.3710 H   0  0  0  0  0  0  0  0  0  0  0  0
  1 20  1  0  0  0  0
  1  6  1  0  0  0  0
  2  1  2  0  0  0  0
  3  2  1  0  0  0  0
  3  4  2  0  0  0  0
  4  5  1  0  0  0  0
  5  6  2  0  0  0  0
  5 10  1  0  0  0  0
  6 11  1  0  0  0  0
  7  2  1  0  0  0  0
  8  3  1  0  0  0  0
  9  4  1  0  0  0  0
 11 12  1  0  0  0  0
 11 19  1  0  0  0  0
 12 14  1  0  0  0  0
 13 12  1  0  0  0  0
 14 15  1  0  0  0  0
 14 16  1  0  0  0  0
 17 16  1  0  0  0  0
 18 16  1  0  0  0  0
 19 18  1  0  0  0  0
 20 21  1  0  0  0  0
 20 22  1  0  0  0  0
 23 28  1  0  0  0  0
 23 20  1  0  0  0  0
 24 23  1  0  0  0  0
 25 23  1  0  0  0  0
 26 31  1  0  0  0  0
 26 32  1  0  0  0  0
 27 26  2  0  0  0  0
 28 29  2  0  0  0  0
 28 27  1  0  0  0  0
 29 30  1  0  0  0  0
 30 34  1  0  0  0  0
 30 31  2  0  0  0  0
 33 27  1  0  0  0  0
M  END
>  <minimizedAffinity>
-5.30444765

>  <minimizedRMSD>
1.02180648

$$$$
