
 OpenBabel03252500333D

 43 46  0  0  1  0  0  0  0  0999 V2000
   36.5940   30.0100   40.0040 N   0  0  0  0  0  0  0  0  0  0  0  0
   35.5110   29.0940   40.2140 C   0  0  0  0  0  0  0  0  0  0  0  0
   35.3630   28.1030   39.0660 C   0  0  0  0  0  0  0  0  0  0  0  0
   34.9840   28.9280   37.8540 C   0  0  0  0  0  0  0  0  0  0  0  0
   36.2220   29.7870   37.5640 C   0  0  0  0  0  0  0  0  0  0  0  0
   36.5090   30.6470   38.7730 C   0  0  2  0  0  0  0  0  0  0  0  0
   34.6030   29.7670   40.0860 H   0  0  0  0  0  0  0  0  0  0  0  0
   35.3610   28.6960   41.2000 H   0  0  0  0  0  0  0  0  0  0  0  0
   36.3260   27.5940   38.8390 H   0  0  0  0  0  0  0  0  0  0  0  0
   34.5510   27.4080   39.2980 H   0  0  0  0  0  0  0  0  0  0  0  0
   34.8420   28.2410   37.0030 H   0  0  0  0  0  0  0  0  0  0  0  0
   34.1130   29.5580   38.0810 H   0  0  0  0  0  0  0  0  0  0  0  0
   37.0180   29.0780   37.3050 H   0  0  0  0  0  0  0  0  0  0  0  0
   35.9490   30.4250   36.7150 H   0  0  0  0  0  0  0  0  0  0  0  0
   35.4300   31.1150   38.8640 H   0  0  0  0  0  0  0  0  0  0  0  0
   37.2630   31.8070   38.5830 N   0  0  2  0  0  0  0  0  0  0  0  0
   38.3490   31.6590   37.6410 C   0  0  0  0  0  3  0  0  0  0  0  0
   38.2150   30.6310   37.1890 H   0  0  0  0  0  0  0  0  0  0  0  0
   39.6600   31.7610   38.3480 C   0  0  0  0  0  3  0  0  0  0  0  0
   40.4970   31.6810   37.6120 H   0  0  0  0  0  0  0  0  0  0  0  0
   39.7300   33.1300   38.8510 N   0  0  0  0  0  0  0  0  0  0  0  0
   39.6740   33.7290   37.9940 H   0  0  0  0  0  0  0  0  0  0  0  0
   38.7300   33.3860   39.8320 C   0  0  0  0  0  2  0  0  0  0  0  0
   37.3620   32.8210   39.5230 C   0  0  0  0  0  2  0  0  0  0  0  0
   37.8190   29.6300   40.5880 C   0  0  0  0  0  0  0  0  0  0  0  0
   38.7040   30.0610   40.0610 H   0  0  0  0  0  0  0  0  0  0  0  0
   37.9110   28.5260   40.6190 H   0  0  0  0  0  0  0  0  0  0  0  0
   38.1360   29.0530   43.1110 C   0  0  1  0  0  0  0  0  0  0  0  0
   39.1190   30.0050   42.7490 C   0  0  0  0  0  0  0  0  0  0  0  0
   37.8270   30.0940   42.0160 C   0  0  1  0  0  0  0  0  0  0  0  0
   37.5800   29.1840   44.0850 H   0  0  0  0  0  0  0  0  0  0  0  0
   39.9980   29.6780   42.1560 H   0  0  0  0  0  0  0  0  0  0  0  0
   39.4160   30.8270   43.4520 H   0  0  0  0  0  0  0  0  0  0  0  0
   36.9760   30.6960   42.3140 H   0  0  0  0  0  0  0  0  0  0  0  0
   39.3680   27.0310   42.3560 C   0  0  0  0  0  0  0  0  0  0  0  0
   38.1260   27.6280   42.7180 C   0  0  0  0  0  0  0  0  0  0  0  0
   37.0000   26.8460   42.6750 C   0  0  0  0  0  0  0  0  0  0  0  0
   37.1300   25.5390   42.2880 N   0  0  0  0  0  0  0  0  0  0  0  0
   38.3170   24.9990   41.9510 C   0  0  0  0  0  0  0  0  0  0  0  0
   39.4690   25.7370   41.9780 N   0  0  0  0  0  0  0  0  0  0  0  0
   40.3170   27.5670   42.3570 H   0  0  0  0  0  0  0  0  0  0  0  0
   36.0720   27.2970   42.9450 H   0  0  0  0  0  0  0  0  0  0  0  0
   38.2520   23.9520   41.6690 H   0  0  0  0  0  0  0  0  0  0  0  0
  1  2  1  0  0  0  0
  1 25  1  0  0  0  0
  2  8  1  0  0  0  0
  3 10  1  0  0  0  0
  3  2  1  0  0  0  0
  4 12  1  0  0  0  0
  4  3  1  0  0  0  0
  5  4  1  0  0  0  0
  5  6  1  0  0  0  0
  6 15  1  1  0  0  0
  6  1  1  0  0  0  0
  7  2  1  0  0  0  0
  9  3  1  0  0  0  0
 11  4  1  0  0  0  0
 13  5  1  0  0  0  0
 14  5  1  0  0  0  0
 16  6  1  0  0  0  0
 16 24  1  1  0  0  0
 17 19  1  0  0  0  0
 17 16  1  0  0  0  0
 18 17  1  0  0  0  0
 19 21  1  0  0  0  0
 20 19  1  0  0  0  0
 21 23  1  0  0  0  0
 22 21  1  0  0  0  0
 24 23  1  0  0  0  0
 25 27  1  0  0  0  0
 25 30  1  0  0  0  0
 26 25  1  0  0  0  0
 28 31  1  1  0  0  0
 29 28  1  0  0  0  0
 29 33  1  0  0  0  0
 30 34  1  1  0  0  0
 30 29  1  0  0  0  0
 30 28  1  0  0  0  0
 32 29  1  0  0  0  0
 35 41  1  0  0  0  0
 35 36  1  0  0  0  0
 36 28  1  0  0  0  0
 37 36  2  0  0  0  0
 37 42  1  0  0  0  0
 38 37  1  0  0  0  0
 39 40  1  0  0  0  0
 39 38  2  0  0  0  0
 40 35  2  0  0  0  0
 43 39  1  0  0  0  0
M  END
>  <minimizedAffinity>
-5.481565

$$$$

 OpenBabel03252500333D

 43 46  0  0  1  0  0  0  0  0999 V2000
   36.6600   29.6640   40.5760 N   0  0  0  0  0  0  0  0  0  0  0  0
   35.3320   29.1940   40.3060 C   0  0  0  0  0  0  0  0  0  0  0  0
   35.2310   28.4940   38.9570 C   0  0  0  0  0  0  0  0  0  0  0  0
   35.5160   29.5580   37.9170 C   0  0  0  0  0  0  0  0  0  0  0  0
   36.9890   29.9300   38.1340 C   0  0  0  0  0  0  0  0  0  0  0  0
   37.1560   30.4490   39.5420 C   0  0  2  0  0  0  0  0  0  0  0  0
   34.7670   30.1650   40.1310 H   0  0  0  0  0  0  0  0  0  0  0  0
   34.7750   28.7490   41.1090 H   0  0  0  0  0  0  0  0  0  0  0  0
   36.0040   27.7010   38.8480 H   0  0  0  0  0  0  0  0  0  0  0  0
   34.2110   28.1230   38.8230 H   0  0  0  0  0  0  0  0  0  0  0  0
   35.4270   29.0940   36.9200 H   0  0  0  0  0  0  0  0  0  0  0  0
   34.8640   30.4270   38.0750 H   0  0  0  0  0  0  0  0  0  0  0  0
   37.5590   29.0190   37.9090 H   0  0  0  0  0  0  0  0  0  0  0  0
   37.2010   30.7320   37.4180 H   0  0  0  0  0  0  0  0  0  0  0  0
   36.3060   31.2650   39.4860 H   0  0  0  0  0  0  0  0  0  0  0  0
   38.2590   31.2630   39.8100 N   0  0  2  0  0  0  0  0  0  0  0  0
   37.9560   32.4200   40.6220 C   0  0  0  0  0  3  0  0  0  0  0  0
   36.8830   32.2840   40.9480 H   0  0  0  0  0  0  0  0  0  0  0  0
   38.1130   33.6680   39.8170 C   0  0  0  0  0  3  0  0  0  0  0  0
   37.9130   34.5610   40.4570 H   0  0  0  0  0  0  0  0  0  0  0  0
   39.5340   33.7490   39.4890 N   0  0  0  0  0  0  0  0  0  0  0  0
   40.0160   33.7920   40.4180 H   0  0  0  0  0  0  0  0  0  0  0  0
   39.9450   32.6780   38.6460 C   0  0  0  0  0  2  0  0  0  0  0  0
   39.3840   31.3210   39.0030 C   0  0  0  0  0  2  0  0  0  0  0  0
   37.4660   28.7830   41.3230 C   0  0  0  0  0  0  0  0  0  0  0  0
   38.3920   29.2670   41.7150 H   0  0  0  0  0  0  0  0  0  0  0  0
   37.7420   27.8970   40.7180 H   0  0  0  0  0  0  0  0  0  0  0  0
   36.8360   26.7910   42.8840 C   0  0  1  0  0  0  0  0  0  0  0  0
   37.4080   27.8120   43.6800 C   0  0  0  0  0  0  0  0  0  0  0  0
   36.6570   28.2680   42.4790 C   0  0  1  0  0  0  0  0  0  0  0  0
   35.9070   26.2660   43.2510 H   0  0  0  0  0  0  0  0  0  0  0  0
   38.5070   27.9640   43.6590 H   0  0  0  0  0  0  0  0  0  0  0  0
   37.0100   28.0390   44.7040 H   0  0  0  0  0  0  0  0  0  0  0  0
   35.6020   28.5150   42.4540 H   0  0  0  0  0  0  0  0  0  0  0  0
   38.9320   25.6220   42.2380 C   0  0  0  0  0  0  0  0  0  0  0  0
   37.5680   25.9120   41.9460 C   0  0  0  0  0  0  0  0  0  0  0  0
   37.0210   25.3640   40.8140 C   0  0  0  0  0  0  0  0  0  0  0  0
   37.8130   24.5690   40.0290 N   0  0  0  0  0  0  0  0  0  0  0  0
   39.1010   24.3110   40.3280 C   0  0  0  0  0  0  0  0  0  0  0  0
   39.6930   24.8340   41.4440 N   0  0  0  0  0  0  0  0  0  0  0  0
   39.4580   26.0100   43.1100 H   0  0  0  0  0  0  0  0  0  0  0  0
   36.0000   25.5840   40.5990 H   0  0  0  0  0  0  0  0  0  0  0  0
   39.5910   23.6640   39.6060 H   0  0  0  0  0  0  0  0  0  0  0  0
  1 25  1  0  0  0  0
  2  1  1  0  0  0  0
  2  8  1  0  0  0  0
  3  2  1  0  0  0  0
  4 12  1  0  0  0  0
  4  5  1  0  0  0  0
  4  3  1  0  0  0  0
  5  6  1  0  0  0  0
  6 15  1  6  0  0  0
  6 16  1  0  0  0  0
  6  1  1  0  0  0  0
  7  2  1  0  0  0  0
  9  3  1  0  0  0  0
 10  3  1  0  0  0  0
 11  4  1  0  0  0  0
 13  5  1  0  0  0  0
 14  5  1  0  0  0  0
 16 24  1  6  0  0  0
 16 17  1  0  0  0  0
 17 18  1  0  0  0  0
 19 20  1  0  0  0  0
 19 17  1  0  0  0  0
 21 19  1  0  0  0  0
 21 22  1  0  0  0  0
 23 24  1  0  0  0  0
 23 21  1  0  0  0  0
 25 26  1  0  0  0  0
 25 30  1  0  0  0  0
 27 25  1  0  0  0  0
 28 31  1  1  0  0  0
 28 29  1  0  0  0  0
 29 33  1  0  0  0  0
 30 34  1  1  0  0  0
 30 28  1  0  0  0  0
 30 29  1  0  0  0  0
 32 29  1  0  0  0  0
 35 41  1  0  0  0  0
 36 35  1  0  0  0  0
 36 28  1  0  0  0  0
 37 36  2  0  0  0  0
 38 39  2  0  0  0  0
 38 37  1  0  0  0  0
 39 40  1  0  0  0  0
 40 35  2  0  0  0  0
 42 37  1  0  0  0  0
 43 39  1  0  0  0  0
M  END
>  <minimizedAffinity>
-5.41211128

$$$$

 OpenBabel03252500333D

 43 46  0  0  1  0  0  0  0  0999 V2000
   38.1290   29.5810   41.3290 N   0  0  0  0  0  0  0  0  0  0  0  0
   36.8490   29.3790   41.9430 C   0  0  0  0  0  0  0  0  0  0  0  0
   35.8370   28.7700   40.9810 C   0  0  0  0  0  0  0  0  0  0  0  0
   35.6220   29.8070   39.8980 C   0  0  0  0  0  0  0  0  0  0  0  0
   36.9660   29.8870   39.1630 C   0  0  0  0  0  0  0  0  0  0  0  0
   38.0330   30.3040   40.1470 C   0  0  2  0  0  0  0  0  0  0  0  0
   36.4730   30.4450   42.0650 H   0  0  0  0  0  0  0  0  0  0  0  0
   36.8180   29.0110   42.9520 H   0  0  0  0  0  0  0  0  0  0  0  0
   36.2360   27.8530   40.4940 H   0  0  0  0  0  0  0  0  0  0  0  0
   34.8950   28.6030   41.5120 H   0  0  0  0  0  0  0  0  0  0  0  0
   34.8720   29.4120   39.1910 H   0  0  0  0  0  0  0  0  0  0  0  0
   35.3600   30.7750   40.3460 H   0  0  0  0  0  0  0  0  0  0  0  0
   37.1160   28.8970   38.7140 H   0  0  0  0  0  0  0  0  0  0  0  0
   36.8430   30.6660   38.4010 H   0  0  0  0  0  0  0  0  0  0  0  0
   37.4800   31.2660   40.5460 H   0  0  0  0  0  0  0  0  0  0  0  0
   39.1980   30.8850   39.6390 N   0  0  2  0  0  0  0  0  0  0  0  0
   39.6500   32.0430   40.3760 C   0  0  0  0  0  3  0  0  0  0  0  0
   38.9830   32.0970   41.2870 H   0  0  0  0  0  0  0  0  0  0  0  0
   39.5070   33.2720   39.5390 C   0  0  0  0  0  3  0  0  0  0  0  0
   39.8910   34.1590   40.0990 H   0  0  0  0  0  0  0  0  0  0  0  0
   40.4350   33.0980   38.4250 N   0  0  0  0  0  0  0  0  0  0  0  0
   41.3760   33.0120   38.8770 H   0  0  0  0  0  0  0  0  0  0  0  0
   40.0640   32.0060   37.5910 C   0  0  0  0  0  2  0  0  0  0  0  0
   39.6030   30.7640   38.3200 C   0  0  0  0  0  2  0  0  0  0  0  0
   39.0520   28.5320   41.5140 C   0  0  0  0  0  0  0  0  0  0  0  0
   40.0430   28.7380   41.0440 H   0  0  0  0  0  0  0  0  0  0  0  0
   38.6470   27.5810   41.1180 H   0  0  0  0  0  0  0  0  0  0  0  0
   39.1370   26.8890   43.5370 C   0  0  1  0  0  0  0  0  0  0  0  0
   40.4070   27.4990   43.4100 C   0  0  0  0  0  0  0  0  0  0  0  0
   39.2440   28.3260   42.9890 C   0  0  1  0  0  0  0  0  0  0  0  0
   38.6780   26.7870   44.5630 H   0  0  0  0  0  0  0  0  0  0  0  0
   41.0910   27.1650   42.6020 H   0  0  0  0  0  0  0  0  0  0  0  0
   41.0010   27.7940   44.3160 H   0  0  0  0  0  0  0  0  0  0  0  0
   38.6910   29.0040   43.6290 H   0  0  0  0  0  0  0  0  0  0  0  0
   39.4940   24.9970   41.9660 C   0  0  0  0  0  0  0  0  0  0  0  0
   38.5790   25.8570   42.6360 C   0  0  0  0  0  0  0  0  0  0  0  0
   37.2390   25.6790   42.4020 C   0  0  0  0  0  0  0  0  0  0  0  0
   36.8560   24.6870   41.5390 N   0  0  0  0  0  0  0  0  0  0  0  0
   37.7440   23.8860   40.9180 C   0  0  0  0  0  0  0  0  0  0  0  0
   39.0900   24.0240   41.1180 N   0  0  0  0  0  0  0  0  0  0  0  0
   40.5760   25.0580   42.0830 H   0  0  0  0  0  0  0  0  0  0  0  0
   36.5560   26.3250   42.9050 H   0  0  0  0  0  0  0  0  0  0  0  0
   37.2810   23.1500   40.2670 H   0  0  0  0  0  0  0  0  0  0  0  0
  1 25  1  0  0  0  0
  1  2  1  0  0  0  0
  2  7  1  0  0  0  0
  2  8  1  0  0  0  0
  3 10  1  0  0  0  0
  3  2  1  0  0  0  0
  4 12  1  0  0  0  0
  4  3  1  0  0  0  0
  5  4  1  0  0  0  0
  5  6  1  0  0  0  0
  6 15  1  1  0  0  0
  6  1  1  0  0  0  0
  9  3  1  0  0  0  0
 11  4  1  0  0  0  0
 13  5  1  0  0  0  0
 14  5  1  0  0  0  0
 16 24  1  6  0  0  0
 16  6  1  0  0  0  0
 16 17  1  0  0  0  0
 17 18  1  0  0  0  0
 19 20  1  0  0  0  0
 19 17  1  0  0  0  0
 21 22  1  0  0  0  0
 21 19  1  0  0  0  0
 23 24  1  0  0  0  0
 23 21  1  0  0  0  0
 25 30  1  0  0  0  0
 26 25  1  0  0  0  0
 27 25  1  0  0  0  0
 28 31  1  1  0  0  0
 29 28  1  0  0  0  0
 29 33  1  0  0  0  0
 30 29  1  0  0  0  0
 30 28  1  0  0  0  0
 30 34  1  1  0  0  0
 32 29  1  0  0  0  0
 35 41  1  0  0  0  0
 35 36  1  0  0  0  0
 36 28  1  0  0  0  0
 37 36  2  0  0  0  0
 37 42  1  0  0  0  0
 38 37  1  0  0  0  0
 39 40  1  0  0  0  0
 39 38  2  0  0  0  0
 40 35  2  0  0  0  0
 43 39  1  0  0  0  0
M  END
>  <minimizedAffinity>
-5.27894688

$$$$

 OpenBabel03252500333D

 43 46  0  0  1  0  0  0  0  0999 V2000
   38.2920   26.3410   40.1380 N   0  0  0  0  0  0  0  0  0  0  0  0
   38.2060   25.1730   39.3100 C   0  0  0  0  0  0  0  0  0  0  0  0
   36.9680   24.3400   39.6150 C   0  0  0  0  0  0  0  0  0  0  0  0
   37.1480   23.8350   41.0320 C   0  0  0  0  0  0  0  0  0  0  0  0
   37.0810   25.0950   41.9050 C   0  0  0  0  0  0  0  0  0  0  0  0
   38.1890   26.0330   41.4880 C   0  0  2  0  0  0  0  0  0  0  0  0
   39.0510   24.5300   39.7190 H   0  0  0  0  0  0  0  0  0  0  0  0
   38.4700   25.2600   38.2730 H   0  0  0  0  0  0  0  0  0  0  0  0
   36.0430   24.9580   39.5920 H   0  0  0  0  0  0  0  0  0  0  0  0
   36.9340   23.4870   38.9300 H   0  0  0  0  0  0  0  0  0  0  0  0
   36.2780   23.2030   41.2830 H   0  0  0  0  0  0  0  0  0  0  0  0
   38.1200   23.3350   41.1360 H   0  0  0  0  0  0  0  0  0  0  0  0
   36.0670   25.4940   41.7710 H   0  0  0  0  0  0  0  0  0  0  0  0
   37.2540   24.7540   42.9320 H   0  0  0  0  0  0  0  0  0  0  0  0
   39.0680   25.2520   41.5830 H   0  0  0  0  0  0  0  0  0  0  0  0
   38.6140   26.9910   42.4120 N   0  0  2  0  0  0  0  0  0  0  0  0
   37.5850   27.4260   43.3280 C   0  0  0  0  0  3  0  0  0  0  0  0
   36.7010   26.7490   43.1280 H   0  0  0  0  0  0  0  0  0  0  0  0
   37.2320   28.8530   43.0640 C   0  0  0  0  0  3  0  0  0  0  0  0
   36.4620   29.1960   43.7970 H   0  0  0  0  0  0  0  0  0  0  0  0
   38.4300   29.6210   43.3890 N   0  0  0  0  0  0  0  0  0  0  0  0
   38.6060   29.4190   44.4020 H   0  0  0  0  0  0  0  0  0  0  0  0
   39.5110   29.3120   42.5160 C   0  0  0  0  0  2  0  0  0  0  0  0
   39.6840   27.8450   42.1950 C   0  0  0  0  0  2  0  0  0  0  0  0
   37.7480   27.5130   39.5750 C   0  0  0  0  0  0  0  0  0  0  0  0
   38.0150   27.6430   38.4990 H   0  0  0  0  0  0  0  0  0  0  0  0
   38.0690   28.4060   40.1460 H   0  0  0  0  0  0  0  0  0  0  0  0
   35.4420   28.7100   39.3430 C   0  0  1  0  0  0  0  0  0  0  0  0
   35.4600   27.6090   38.4530 C   0  0  0  0  0  0  0  0  0  0  0  0
   36.2530   27.4470   39.7020 C   0  0  1  0  0  0  0  0  0  0  0  0
   34.5190   28.8950   39.9660 H   0  0  0  0  0  0  0  0  0  0  0  0
   36.0400   27.6840   37.5100 H   0  0  0  0  0  0  0  0  0  0  0  0
   34.5440   26.9810   38.2910 H   0  0  0  0  0  0  0  0  0  0  0  0
   35.8830   27.0280   40.6310 H   0  0  0  0  0  0  0  0  0  0  0  0
   36.3490   30.8100   40.3120 C   0  0  0  0  0  0  0  0  0  0  0  0
   36.1910   29.9730   39.1710 C   0  0  0  0  0  0  0  0  0  0  0  0
   36.7390   30.3910   37.9850 C   0  0  0  0  0  0  0  0  0  0  0  0
   37.4060   31.5870   37.9630 N   0  0  0  0  0  0  0  0  0  0  0  0
   37.5410   32.3600   39.0570 C   0  0  0  0  0  0  0  0  0  0  0  0
   37.0130   31.9880   40.2630 N   0  0  0  0  0  0  0  0  0  0  0  0
   35.9510   30.5690   41.2970 H   0  0  0  0  0  0  0  0  0  0  0  0
   36.6180   29.7620   37.1330 H   0  0  0  0  0  0  0  0  0  0  0  0
   38.0960   33.2760   38.8750 H   0  0  0  0  0  0  0  0  0  0  0  0
  1  6  1  0  0  0  0
  2  3  1  0  0  0  0
  2  7  1  0  0  0  0
  2  1  1  0  0  0  0
  3  4  1  0  0  0  0
  4 12  1  0  0  0  0
  4 11  1  0  0  0  0
  4  5  1  0  0  0  0
  5 14  1  0  0  0  0
  6 15  1  1  0  0  0
  6  5  1  0  0  0  0
  6 16  1  0  0  0  0
  8  2  1  0  0  0  0
  9  3  1  0  0  0  0
 10  3  1  0  0  0  0
 13  5  1  0  0  0  0
 16 24  1  6  0  0  0
 16 17  1  0  0  0  0
 18 17  1  0  0  0  0
 19 17  1  0  0  0  0
 19 21  1  0  0  0  0
 19 20  1  0  0  0  0
 21 22  1  0  0  0  0
 23 21  1  0  0  0  0
 24 23  1  0  0  0  0
 25 30  1  0  0  0  0
 25  1  1  0  0  0  0
 25 27  1  0  0  0  0
 26 25  1  0  0  0  0
 28 30  1  0  0  0  0
 28 31  1  1  0  0  0
 29 28  1  0  0  0  0
 29 30  1  0  0  0  0
 30 34  1  1  0  0  0
 32 29  1  0  0  0  0
 33 29  1  0  0  0  0
 35 41  1  0  0  0  0
 36 28  1  0  0  0  0
 36 35  2  0  0  0  0
 37 36  1  0  0  0  0
 38 37  2  0  0  0  0
 38 39  1  0  0  0  0
 39 40  2  0  0  0  0
 40 35  1  0  0  0  0
 42 37  1  0  0  0  0
 43 39  1  0  0  0  0
M  END
>  <minimizedAffinity>
-5.22612572

$$$$

 OpenBabel03252500333D

 43 46  0  0  1  0  0  0  0  0999 V2000
   37.5530   29.3770   38.9320 N   0  0  0  0  0  0  0  0  0  0  0  0
   36.8570   29.0210   37.7290 C   0  0  0  0  0  0  0  0  0  0  0  0
   35.3740   29.3570   37.8000 C   0  0  0  0  0  0  0  0  0  0  0  0
   34.8010   28.4750   38.8890 C   0  0  0  0  0  0  0  0  0  0  0  0
   35.4500   28.9830   40.1830 C   0  0  0  0  0  0  0  0  0  0  0  0
   36.9490   28.8410   40.0620 C   0  0  2  0  0  0  0  0  0  0  0  0
   36.8620   27.8850   37.7790 H   0  0  0  0  0  0  0  0  0  0  0  0
   37.3370   29.2080   36.7870 H   0  0  0  0  0  0  0  0  0  0  0  0
   35.2070   30.4160   38.1010 H   0  0  0  0  0  0  0  0  0  0  0  0
   34.9040   29.1020   36.8450 H   0  0  0  0  0  0  0  0  0  0  0  0
   33.7170   28.6720   38.9540 H   0  0  0  0  0  0  0  0  0  0  0  0
   35.0630   27.4250   38.7040 H   0  0  0  0  0  0  0  0  0  0  0  0
   35.0950   30.0140   40.3060 H   0  0  0  0  0  0  0  0  0  0  0  0
   35.0810   28.3260   40.9790 H   0  0  0  0  0  0  0  0  0  0  0  0
   36.9520   27.6990   39.7670 H   0  0  0  0  0  0  0  0  0  0  0  0
   37.6960   28.7900   41.2410 N   0  0  2  0  0  0  0  0  0  0  0  0
   38.7270   27.7770   41.2450 C   0  0  0  0  0  3  0  0  0  0  0  0
   38.7410   27.3610   40.1930 H   0  0  0  0  0  0  0  0  0  0  0  0
   38.3950   26.7090   42.2350 C   0  0  0  0  0  3  0  0  0  0  0  0
   39.2110   25.9470   42.2600 H   0  0  0  0  0  0  0  0  0  0  0  0
   38.4430   27.3570   43.5420 N   0  0  0  0  0  0  0  0  0  0  0  0
   39.4260   27.7070   43.6270 H   0  0  0  0  0  0  0  0  0  0  0  0
   37.4340   28.3520   43.6790 C   0  0  0  0  0  2  0  0  0  0  0  0
   37.2260   29.2320   42.4680 C   0  0  0  0  0  2  0  0  0  0  0  0
   38.1590   30.6480   38.9170 C   0  0  0  0  0  0  0  0  0  0  0  0
   38.3540   31.0250   37.8850 H   0  0  0  0  0  0  0  0  0  0  0  0
   39.1080   30.6350   39.4890 H   0  0  0  0  0  0  0  0  0  0  0  0
   37.9040   32.7340   40.4620 C   0  0  1  0  0  0  0  0  0  0  0  0
   37.3230   33.0390   39.2090 C   0  0  0  0  0  0  0  0  0  0  0  0
   37.2530   31.6130   39.6270 C   0  0  1  0  0  0  0  0  0  0  0  0
   37.3570   33.0250   41.4050 H   0  0  0  0  0  0  0  0  0  0  0  0
   37.9830   33.2660   38.3460 H   0  0  0  0  0  0  0  0  0  0  0  0
   36.3810   33.6450   39.1400 H   0  0  0  0  0  0  0  0  0  0  0  0
   36.4430   31.1620   40.1890 H   0  0  0  0  0  0  0  0  0  0  0  0
   39.7640   31.7120   41.7550 C   0  0  0  0  0  0  0  0  0  0  0  0
   39.3530   32.6220   40.7400 C   0  0  0  0  0  0  0  0  0  0  0  0
   40.3220   33.3390   40.0860 C   0  0  0  0  0  0  0  0  0  0  0  0
   41.6290   33.1410   40.4450 N   0  0  0  0  0  0  0  0  0  0  0  0
   41.9920   32.2740   41.4090 C   0  0  0  0  0  0  0  0  0  0  0  0
   41.0630   31.5360   42.0900 N   0  0  0  0  0  0  0  0  0  0  0  0
   39.0730   31.0980   42.3310 H   0  0  0  0  0  0  0  0  0  0  0  0
   40.0100   34.0190   39.3270 H   0  0  0  0  0  0  0  0  0  0  0  0
   43.0650   32.2330   41.5740 H   0  0  0  0  0  0  0  0  0  0  0  0
  1  6  1  0  0  0  0
  2  7  1  0  0  0  0
  2  3  1  0  0  0  0
  2  1  1  0  0  0  0
  3  9  1  0  0  0  0
  3  4  1  0  0  0  0
  4 11  1  0  0  0  0
  4  5  1  0  0  0  0
  5 13  1  0  0  0  0
  5 14  1  0  0  0  0
  6 15  1  6  0  0  0
  6  5  1  0  0  0  0
  6 16  1  0  0  0  0
  8  2  1  0  0  0  0
 10  3  1  0  0  0  0
 12  4  1  0  0  0  0
 16 17  1  0  0  0  0
 16 24  1  1  0  0  0
 17 19  1  0  0  0  0
 18 17  1  0  0  0  0
 19 20  1  0  0  0  0
 19 21  1  0  0  0  0
 21 22  1  0  0  0  0
 21 23  1  0  0  0  0
 24 23  1  0  0  0  0
 25  1  1  0  0  0  0
 25 27  1  0  0  0  0
 25 30  1  0  0  0  0
 26 25  1  0  0  0  0
 28 36  1  0  0  0  0
 28 31  1  1  0  0  0
 29 30  1  0  0  0  0
 29 28  1  0  0  0  0
 30 34  1  1  0  0  0
 30 28  1  0  0  0  0
 32 29  1  0  0  0  0
 33 29  1  0  0  0  0
 35 40  1  0  0  0  0
 35 41  1  0  0  0  0
 36 35  2  0  0  0  0
 37 38  2  0  0  0  0
 37 36  1  0  0  0  0
 38 39  1  0  0  0  0
 39 43  1  0  0  0  0
 39 40  2  0  0  0  0
 42 37  1  0  0  0  0
M  END
>  <minimizedAffinity>
-5.12996912

$$$$

 OpenBabel03252500333D

 43 46  0  0  1  0  0  0  0  0999 V2000
   37.4290   25.9620   41.3510 N   0  0  0  0  0  0  0  0  0  0  0  0
   37.1400   24.6420   41.8330 C   0  0  0  0  0  0  0  0  0  0  0  0
   37.9310   23.5720   41.0940 C   0  0  0  0  0  0  0  0  0  0  0  0
   37.4390   23.6090   39.6620 C   0  0  0  0  0  0  0  0  0  0  0  0
   37.8980   24.9730   39.1280 C   0  0  0  0  0  0  0  0  0  0  0  0
   37.2770   26.0590   39.9740 C   0  0  2  0  0  0  0  0  0  0  0  0
   36.0790   24.4790   41.4570 H   0  0  0  0  0  0  0  0  0  0  0  0
   37.0290   24.4980   42.8920 H   0  0  0  0  0  0  0  0  0  0  0  0
   39.0190   23.8020   41.0820 H   0  0  0  0  0  0  0  0  0  0  0  0
   37.7010   22.5940   41.5280 H   0  0  0  0  0  0  0  0  0  0  0  0
   37.9730   22.8270   39.0960 H   0  0  0  0  0  0  0  0  0  0  0  0
   36.3440   23.5250   39.6340 H   0  0  0  0  0  0  0  0  0  0  0  0
   38.9950   24.9440   39.1510 H   0  0  0  0  0  0  0  0  0  0  0  0
   37.5120   25.0370   38.1040 H   0  0  0  0  0  0  0  0  0  0  0  0
   36.1620   25.6900   39.8690 H   0  0  0  0  0  0  0  0  0  0  0  0
   37.1650   27.3350   39.4170 N   0  0  2  0  0  0  0  0  0  0  0  0
   35.8090   27.7260   39.1030 C   0  0  0  0  0  3  0  0  0  0  0  0
   35.1560   26.9080   39.5310 H   0  0  0  0  0  0  0  0  0  0  0  0
   35.6330   27.8270   37.6230 C   0  0  0  0  0  3  0  0  0  0  0  0
   34.5940   28.1630   37.3860 H   0  0  0  0  0  0  0  0  0  0  0  0
   36.4930   28.9280   37.1990 N   0  0  0  0  0  0  0  0  0  0  0  0
   36.1280   29.7620   37.7170 H   0  0  0  0  0  0  0  0  0  0  0  0
   37.8700   28.6390   37.4160 C   0  0  0  0  0  2  0  0  0  0  0  0
   38.1900   27.9660   38.7300 C   0  0  0  0  0  2  0  0  0  0  0  0
   38.4300   26.6520   42.0630 C   0  0  0  0  0  0  0  0  0  0  0  0
   38.7660   27.5840   41.5480 H   0  0  0  0  0  0  0  0  0  0  0  0
   39.3040   25.9960   42.2440 H   0  0  0  0  0  0  0  0  0  0  0  0
   37.5190   28.4860   43.6780 C   0  0  1  0  0  0  0  0  0  0  0  0
   36.4940   27.5330   43.4680 C   0  0  0  0  0  0  0  0  0  0  0  0
   37.8860   27.0110   43.4160 C   0  0  1  0  0  0  0  0  0  0  0  0
   37.7110   28.8610   44.7250 H   0  0  0  0  0  0  0  0  0  0  0  0
   35.9360   27.5400   42.5080 H   0  0  0  0  0  0  0  0  0  0  0  0
   35.8130   27.2210   44.3040 H   0  0  0  0  0  0  0  0  0  0  0  0
   38.4410   26.6170   44.2600 H   0  0  0  0  0  0  0  0  0  0  0  0
   37.0410   29.9670   41.7420 C   0  0  0  0  0  0  0  0  0  0  0  0
   37.9840   29.4880   42.6940 C   0  0  0  0  0  0  0  0  0  0  0  0
   39.2630   29.9800   42.6390 C   0  0  0  0  0  0  0  0  0  0  0  0
   39.5620   30.9030   41.6730 N   0  0  0  0  0  0  0  0  0  0  0  0
   38.6510   31.3410   40.7830 C   0  0  0  0  0  0  0  0  0  0  0  0
   37.3630   30.8810   40.7970 N   0  0  0  0  0  0  0  0  0  0  0  0
   36.0030   29.6390   41.7020 H   0  0  0  0  0  0  0  0  0  0  0  0
   39.9660   29.6180   43.3530 H   0  0  0  0  0  0  0  0  0  0  0  0
   39.0450   32.0720   40.0830 H   0  0  0  0  0  0  0  0  0  0  0  0
  1  2  1  0  0  0  0
  1 25  1  0  0  0  0
  2  8  1  0  0  0  0
  3 10  1  0  0  0  0
  3  2  1  0  0  0  0
  4  3  1  0  0  0  0
  5 13  1  0  0  0  0
  5  4  1  0  0  0  0
  5  6  1  0  0  0  0
  6 15  1  6  0  0  0
  6  1  1  0  0  0  0
  7  2  1  0  0  0  0
  9  3  1  0  0  0  0
 11  4  1  0  0  0  0
 12  4  1  0  0  0  0
 14  5  1  0  0  0  0
 16 24  1  6  0  0  0
 16  6  1  0  0  0  0
 17 16  1  0  0  0  0
 17 18  1  0  0  0  0
 19 17  1  0  0  0  0
 20 19  1  0  0  0  0
 21 23  1  0  0  0  0
 21 19  1  0  0  0  0
 21 22  1  0  0  0  0
 23 24  1  0  0  0  0
 25 27  1  0  0  0  0
 25 30  1  0  0  0  0
 26 25  1  0  0  0  0
 28 31  1  1  0  0  0
 29 28  1  0  0  0  0
 29 33  1  0  0  0  0
 30 29  1  0  0  0  0
 30 28  1  0  0  0  0
 30 34  1  1  0  0  0
 32 29  1  0  0  0  0
 35 36  1  0  0  0  0
 36 28  1  0  0  0  0
 37 36  2  0  0  0  0
 37 42  1  0  0  0  0
 38 37  1  0  0  0  0
 39 40  1  0  0  0  0
 39 38  2  0  0  0  0
 40 35  2  0  0  0  0
 41 35  1  0  0  0  0
 43 39  1  0  0  0  0
M  END
>  <minimizedAffinity>
-4.99449348

$$$$

 OpenBabel03252500333D

 43 46  0  0  1  0  0  0  0  0999 V2000
   37.4740   27.4230   41.9740 N   0  0  0  0  0  0  0  0  0  0  0  0
   37.7120   28.4610   42.9340 C   0  0  0  0  0  0  0  0  0  0  0  0
   39.1310   29.0090   42.8510 C   0  0  0  0  0  0  0  0  0  0  0  0
   40.0400   27.8620   43.2410 C   0  0  0  0  0  0  0  0  0  0  0  0
   39.8770   26.8340   42.1140 C   0  0  0  0  0  0  0  0  0  0  0  0
   38.4270   26.4160   42.0460 C   0  0  2  0  0  0  0  0  0  0  0  0
   37.7210   27.8820   43.9130 H   0  0  0  0  0  0  0  0  0  0  0  0
   36.9380   29.1850   43.1070 H   0  0  0  0  0  0  0  0  0  0  0  0
   39.3940   29.3080   41.8120 H   0  0  0  0  0  0  0  0  0  0  0  0
   39.2430   29.8210   43.5750 H   0  0  0  0  0  0  0  0  0  0  0  0
   41.0810   28.2280   43.2180 H   0  0  0  0  0  0  0  0  0  0  0  0
   39.7270   27.4410   44.2060 H   0  0  0  0  0  0  0  0  0  0  0  0
   40.2550   27.3260   41.2090 H   0  0  0  0  0  0  0  0  0  0  0  0
   40.4950   25.9760   42.4020 H   0  0  0  0  0  0  0  0  0  0  0  0
   38.3200   26.1200   43.1830 H   0  0  0  0  0  0  0  0  0  0  0  0
   38.1300   25.1890   41.4460 N   0  0  2  0  0  0  0  0  0  0  0  0
   38.9260   24.8960   40.2760 C   0  0  0  0  0  3  0  0  0  0  0  0
   39.7030   25.7160   40.2300 H   0  0  0  0  0  0  0  0  0  0  0  0
   38.0670   24.9080   39.0550 C   0  0  0  0  0  3  0  0  0  0  0  0
   38.6790   24.6450   38.1570 H   0  0  0  0  0  0  0  0  0  0  0  0
   37.1380   23.7930   39.2170 N   0  0  0  0  0  0  0  0  0  0  0  0
   37.7500   22.9470   39.2830 H   0  0  0  0  0  0  0  0  0  0  0  0
   36.2600   23.9910   40.3200 C   0  0  0  0  0  2  0  0  0  0  0  0
   36.9050   24.5530   41.5660 C   0  0  0  0  0  2  0  0  0  0  0  0
   36.9030   27.8520   40.7590 C   0  0  0  0  0  0  0  0  0  0  0  0
   36.5110   27.0100   40.1410 H   0  0  0  0  0  0  0  0  0  0  0  0
   37.6360   28.4340   40.1670 H   0  0  0  0  0  0  0  0  0  0  0  0
   35.7080   30.1240   40.2980 C   0  0  1  0  0  0  0  0  0  0  0  0
   34.8090   29.0790   39.9790 C   0  0  0  0  0  0  0  0  0  0  0  0
   35.7750   28.7930   41.0740 C   0  0  1  0  0  0  0  0  0  0  0  0
   35.3300   31.0140   40.8810 H   0  0  0  0  0  0  0  0  0  0  0  0
   34.9510   28.5100   39.0370 H   0  0  0  0  0  0  0  0  0  0  0  0
   33.7150   29.1660   40.2120 H   0  0  0  0  0  0  0  0  0  0  0  0
   35.6020   28.9750   42.1280 H   0  0  0  0  0  0  0  0  0  0  0  0
   36.8820   30.2460   38.1110 C   0  0  0  0  0  0  0  0  0  0  0  0
   36.8980   30.5130   39.5100 C   0  0  0  0  0  0  0  0  0  0  0  0
   38.0140   31.1090   40.0390 C   0  0  0  0  0  0  0  0  0  0  0  0
   39.0500   31.4140   39.1960 N   0  0  0  0  0  0  0  0  0  0  0  0
   39.0090   31.1500   37.8760 C   0  0  0  0  0  0  0  0  0  0  0  0
   37.9190   30.5570   37.3000 N   0  0  0  0  0  0  0  0  0  0  0  0
   36.0450   29.7750   37.5970 H   0  0  0  0  0  0  0  0  0  0  0  0
   38.0230   31.3070   41.0870 H   0  0  0  0  0  0  0  0  0  0  0  0
   39.9080   31.4530   37.3460 H   0  0  0  0  0  0  0  0  0  0  0  0
  1  6  1  0  0  0  0
  1  2  1  0  0  0  0
  2  8  1  0  0  0  0
  2  7  1  0  0  0  0
  3  2  1  0  0  0  0
  3  4  1  0  0  0  0
  3 10  1  0  0  0  0
  4 12  1  0  0  0  0
  5 14  1  0  0  0  0
  5  4  1  0  0  0  0
  6  5  1  0  0  0  0
  6 15  1  1  0  0  0
  9  3  1  0  0  0  0
 11  4  1  0  0  0  0
 13  5  1  0  0  0  0
 16 24  1  6  0  0  0
 16  6  1  0  0  0  0
 17 16  1  0  0  0  0
 18 17  1  0  0  0  0
 19 21  1  0  0  0  0
 19 17  1  0  0  0  0
 20 19  1  0  0  0  0
 21 22  1  0  0  0  0
 21 23  1  0  0  0  0
 23 24  1  0  0  0  0
 25 30  1  0  0  0  0
 25  1  1  0  0  0  0
 26 25  1  0  0  0  0
 27 25  1  0  0  0  0
 28 31  1  1  0  0  0
 28 30  1  0  0  0  0
 29 33  1  0  0  0  0
 29 28  1  0  0  0  0
 29 30  1  0  0  0  0
 30 34  1  1  0  0  0
 32 29  1  0  0  0  0
 35 36  1  0  0  0  0
 36 37  2  0  0  0  0
 36 28  1  0  0  0  0
 37 42  1  0  0  0  0
 38 37  1  0  0  0  0
 39 38  2  0  0  0  0
 40 39  1  0  0  0  0
 40 35  2  0  0  0  0
 41 35  1  0  0  0  0
 43 39  1  0  0  0  0
M  END
>  <minimizedAffinity>
-4.99117994

$$$$

 OpenBabel03252500333D

 43 46  0  0  1  0  0  0  0  0999 V2000
   37.2610   28.2090   40.7430 N   0  0  0  0  0  0  0  0  0  0  0  0
   36.8500   29.0910   41.7960 C   0  0  0  0  0  0  0  0  0  0  0  0
   37.9570   29.3280   42.8150 C   0  0  0  0  0  0  0  0  0  0  0  0
   38.2100   27.9870   43.4700 C   0  0  0  0  0  0  0  0  0  0  0  0
   38.7930   27.1110   42.3530 C   0  0  0  0  0  0  0  0  0  0  0  0
   37.7830   27.0190   41.2330 C   0  0  2  0  0  0  0  0  0  0  0  0
   36.1100   28.4470   42.3700 H   0  0  0  0  0  0  0  0  0  0  0  0
   36.2540   29.9480   41.5420 H   0  0  0  0  0  0  0  0  0  0  0  0
   38.9040   29.6480   42.3250 H   0  0  0  0  0  0  0  0  0  0  0  0
   37.6020   30.0370   43.5690 H   0  0  0  0  0  0  0  0  0  0  0  0
   38.9920   28.1220   44.2370 H   0  0  0  0  0  0  0  0  0  0  0  0
   37.2690   27.5660   43.8490 H   0  0  0  0  0  0  0  0  0  0  0  0
   39.7440   27.5820   42.0750 H   0  0  0  0  0  0  0  0  0  0  0  0
   38.9410   26.1210   42.7980 H   0  0  0  0  0  0  0  0  0  0  0  0
   36.8770   26.6620   41.8990 H   0  0  0  0  0  0  0  0  0  0  0  0
   37.8810   25.9360   40.3550 N   0  0  2  0  0  0  0  0  0  0  0  0
   36.6140   25.3200   40.0330 C   0  0  0  0  0  3  0  0  0  0  0  0
   35.8300   25.9890   40.4970 H   0  0  0  0  0  0  0  0  0  0  0  0
   36.5510   23.9450   40.6120 C   0  0  0  0  0  3  0  0  0  0  0  0
   35.5850   23.4590   40.3310 H   0  0  0  0  0  0  0  0  0  0  0  0
   37.5770   23.1770   39.9140 N   0  0  0  0  0  0  0  0  0  0  0  0
   37.2950   23.2140   38.9060 H   0  0  0  0  0  0  0  0  0  0  0  0
   38.8850   23.6640   40.1930 C   0  0  0  0  0  2  0  0  0  0  0  0
   39.0250   25.1680   40.2080 C   0  0  0  0  0  2  0  0  0  0  0  0
   37.7590   28.8470   39.5890 C   0  0  0  0  0  0  0  0  0  0  0  0
   38.2430   28.1380   38.8750 H   0  0  0  0  0  0  0  0  0  0  0  0
   38.4790   29.6430   39.8630 H   0  0  0  0  0  0  0  0  0  0  0  0
   36.7900   31.0160   38.5140 C   0  0  1  0  0  0  0  0  0  0  0  0
   36.8570   30.0180   37.5120 C   0  0  0  0  0  0  0  0  0  0  0  0
   36.6160   29.5320   38.8980 C   0  0  1  0  0  0  0  0  0  0  0  0
   35.8630   31.6560   38.5880 H   0  0  0  0  0  0  0  0  0  0  0  0
   37.8400   29.7620   37.0670 H   0  0  0  0  0  0  0  0  0  0  0  0
   36.0490   29.9180   36.7400 H   0  0  0  0  0  0  0  0  0  0  0  0
   35.6420   29.3850   39.3510 H   0  0  0  0  0  0  0  0  0  0  0  0
   37.7640   32.3670   40.3580 C   0  0  0  0  0  0  0  0  0  0  0  0
   37.9440   31.7380   39.0930 C   0  0  0  0  0  0  0  0  0  0  0  0
   39.1710   31.8440   38.4900 C   0  0  0  0  0  0  0  0  0  0  0  0
   40.1540   32.5460   39.1360 N   0  0  0  0  0  0  0  0  0  0  0  0
   39.9570   33.1320   40.3330 C   0  0  0  0  0  0  0  0  0  0  0  0
   38.7520   33.0550   40.9740 N   0  0  0  0  0  0  0  0  0  0  0  0
   36.8280   32.3420   40.9170 H   0  0  0  0  0  0  0  0  0  0  0  0
   39.3020   31.3720   37.5430 H   0  0  0  0  0  0  0  0  0  0  0  0
   40.8340   33.6500   40.7100 H   0  0  0  0  0  0  0  0  0  0  0  0
  1  6  1  0  0  0  0
  1  2  1  0  0  0  0
  2  7  1  0  0  0  0
  2  3  1  0  0  0  0
  3  4  1  0  0  0  0
  3 10  1  0  0  0  0
  4 12  1  0  0  0  0
  4 11  1  0  0  0  0
  5 14  1  0  0  0  0
  5  4  1  0  0  0  0
  6 15  1  1  0  0  0
  6  5  1  0  0  0  0
  8  2  1  0  0  0  0
  9  3  1  0  0  0  0
 13  5  1  0  0  0  0
 16 24  1  1  0  0  0
 16  6  1  0  0  0  0
 17 16  1  0  0  0  0
 17 18  1  0  0  0  0
 17 19  1  0  0  0  0
 20 19  1  0  0  0  0
 21 23  1  0  0  0  0
 21 19  1  0  0  0  0
 22 21  1  0  0  0  0
 23 24  1  0  0  0  0
 25 27  1  0  0  0  0
 25  1  1  0  0  0  0
 26 25  1  0  0  0  0
 28 31  1  6  0  0  0
 28 30  1  0  0  0  0
 28 36  1  0  0  0  0
 29 28  1  0  0  0  0
 29 30  1  0  0  0  0
 30 34  1  1  0  0  0
 30 25  1  0  0  0  0
 32 29  1  0  0  0  0
 33 29  1  0  0  0  0
 35 41  1  0  0  0  0
 35 40  1  0  0  0  0
 36 35  2  0  0  0  0
 37 36  1  0  0  0  0
 37 38  2  0  0  0  0
 38 39  1  0  0  0  0
 39 43  1  0  0  0  0
 39 40  2  0  0  0  0
 42 37  1  0  0  0  0
M  END
>  <minimizedAffinity>
-4.99113512

$$$$

 OpenBabel03252500333D

 43 46  0  0  1  0  0  0  0  0999 V2000
   38.3800   27.3330   41.0410 N   0  0  0  0  0  0  0  0  0  0  0  0
   37.4380   26.6100   41.8450 C   0  0  0  0  0  0  0  0  0  0  0  0
   36.5890   27.5330   42.7090 C   0  0  0  0  0  0  0  0  0  0  0  0
   37.5490   28.1890   43.6800 C   0  0  0  0  0  0  0  0  0  0  0  0
   38.4450   29.0740   42.8030 C   0  0  0  0  0  0  0  0  0  0  0  0
   39.1570   28.1990   41.7990 C   0  0  2  0  0  0  0  0  0  0  0  0
   38.1150   26.1020   42.6050 H   0  0  0  0  0  0  0  0  0  0  0  0
   36.9250   25.7750   41.4060 H   0  0  0  0  0  0  0  0  0  0  0  0
   36.1170   28.3400   42.1060 H   0  0  0  0  0  0  0  0  0  0  0  0
   35.8650   26.9330   43.2680 H   0  0  0  0  0  0  0  0  0  0  0  0
   36.9660   28.8510   44.3440 H   0  0  0  0  0  0  0  0  0  0  0  0
   38.1410   27.4260   44.2030 H   0  0  0  0  0  0  0  0  0  0  0  0
   37.7770   29.8270   42.3640 H   0  0  0  0  0  0  0  0  0  0  0  0
   39.1770   29.5240   43.4840 H   0  0  0  0  0  0  0  0  0  0  0  0
   39.6040   27.4360   42.5800 H   0  0  0  0  0  0  0  0  0  0  0  0
   40.3380   28.6850   41.2310 N   0  0  2  0  0  0  0  0  0  0  0  0
   40.3030   30.0950   40.9130 C   0  0  0  0  0  3  0  0  0  0  0  0
   39.3310   30.4750   41.3470 H   0  0  0  0  0  0  0  0  0  0  0  0
   40.3360   30.2870   39.4330 C   0  0  0  0  0  3  0  0  0  0  0  0
   40.3460   31.3790   39.1920 H   0  0  0  0  0  0  0  0  0  0  0  0
   41.6410   29.7950   39.0010 N   0  0  0  0  0  0  0  0  0  0  0  0
   42.3310   30.3950   39.5120 H   0  0  0  0  0  0  0  0  0  0  0  0
   41.7790   28.3950   39.2220 C   0  0  0  0  0  2  0  0  0  0  0  0
   41.2410   27.8930   40.5420 C   0  0  0  0  0  2  0  0  0  0  0  0
   37.9420   27.6380   39.7370 C   0  0  0  0  0  0  0  0  0  0  0  0
   38.4360   27.0130   38.9550 H   0  0  0  0  0  0  0  0  0  0  0  0
   38.1060   28.7100   39.5100 H   0  0  0  0  0  0  0  0  0  0  0  0
   35.5680   28.6100   39.2710 C   0  0  1  0  0  0  0  0  0  0  0  0
   35.8090   27.5690   38.3430 C   0  0  0  0  0  0  0  0  0  0  0  0
   36.4580   27.4170   39.6730 C   0  0  1  0  0  0  0  0  0  0  0  0
   34.5620   28.6670   39.7800 H   0  0  0  0  0  0  0  0  0  0  0  0
   36.4860   27.7540   37.4840 H   0  0  0  0  0  0  0  0  0  0  0  0
   34.9910   26.8630   38.0400 H   0  0  0  0  0  0  0  0  0  0  0  0
   36.0260   26.9110   40.5290 H   0  0  0  0  0  0  0  0  0  0  0  0
   36.2600   30.6700   40.4760 C   0  0  0  0  0  0  0  0  0  0  0  0
   36.1940   29.9500   39.2490 C   0  0  0  0  0  0  0  0  0  0  0  0
   36.7100   30.5430   38.1250 C   0  0  0  0  0  0  0  0  0  0  0  0
   37.2590   31.7930   38.2440 N   0  0  0  0  0  0  0  0  0  0  0  0
   37.3100   32.4520   39.4180 C   0  0  0  0  0  0  0  0  0  0  0  0
   36.8090   31.9030   40.5660 N   0  0  0  0  0  0  0  0  0  0  0  0
   35.8790   30.2860   41.4220 H   0  0  0  0  0  0  0  0  0  0  0  0
   36.6570   30.0020   37.2090 H   0  0  0  0  0  0  0  0  0  0  0  0
   37.7760   33.4300   39.3450 H   0  0  0  0  0  0  0  0  0  0  0  0
  1  6  1  0  0  0  0
  1  2  1  0  0  0  0
  2  7  1  0  0  0  0
  2  3  1  0  0  0  0
  3 10  1  0  0  0  0
  3  4  1  0  0  0  0
  4 12  1  0  0  0  0
  4 11  1  0  0  0  0
  5 14  1  0  0  0  0
  5  4  1  0  0  0  0
  6 15  1  1  0  0  0
  6  5  1  0  0  0  0
  8  2  1  0  0  0  0
  9  3  1  0  0  0  0
 13  5  1  0  0  0  0
 16 24  1  6  0  0  0
 16  6  1  0  0  0  0
 17 16  1  0  0  0  0
 17 18  1  0  0  0  0
 19 17  1  0  0  0  0
 20 19  1  0  0  0  0
 21 23  1  0  0  0  0
 21 19  1  0  0  0  0
 21 22  1  0  0  0  0
 23 24  1  0  0  0  0
 25  1  1  0  0  0  0
 26 25  1  0  0  0  0
 27 25  1  0  0  0  0
 28 30  1  0  0  0  0
 28 31  1  1  0  0  0
 29 28  1  0  0  0  0
 29 30  1  0  0  0  0
 30 25  1  0  0  0  0
 30 34  1  1  0  0  0
 32 29  1  0  0  0  0
 33 29  1  0  0  0  0
 35 40  1  0  0  0  0
 35 41  1  0  0  0  0
 36 28  1  0  0  0  0
 36 35  2  0  0  0  0
 37 38  2  0  0  0  0
 37 36  1  0  0  0  0
 38 39  1  0  0  0  0
 39 40  2  0  0  0  0
 42 37  1  0  0  0  0
 43 39  1  0  0  0  0
M  END
>  <minimizedAffinity>
-4.85806322

$$$$
