
 OpenBabel03242518583D

 25 27  0  0  1  0  0  0  0  0999 V2000
   38.0370   28.2830   42.8100 C   0  0  1  0  0  0  0  0  0  0  0  0
   36.7940   27.9870   43.6790 C   0  0  0  0  0  0  0  0  0  0  0  0
   37.1560   27.1700   42.5190 C   0  0  2  0  0  0  0  0  0  0  0  0
   38.9960   28.2300   43.4030 H   0  0  0  0  0  0  0  0  0  0  0  0
   35.9480   28.7020   43.6290 H   0  0  0  0  0  0  0  0  0  0  0  0
   36.9660   27.5970   44.6900 H   0  0  0  0  0  0  0  0  0  0  0  0
   36.5140   27.3180   41.6120 H   0  0  0  0  0  0  0  0  0  0  0  0
   37.9430   29.5630   42.0500 C   0  0  0  0  0  0  0  0  0  0  0  0
   39.0500   30.4610   42.0990 C   0  0  0  0  0  0  0  0  0  0  0  0
   38.9510   31.6430   41.3750 C   0  0  0  0  0  0  0  0  0  0  0  0
   37.8090   31.8630   40.6690 N   0  0  0  0  0  0  0  0  0  0  0  0
   36.7780   30.9850   40.6450 C   0  0  0  0  0  0  0  0  0  0  0  0
   36.8360   29.8290   41.3340 N   0  0  0  0  0  0  0  0  0  0  0  0
   39.8930   30.1470   42.7060 H   0  0  0  0  0  0  0  0  0  0  0  0
   39.7800   32.3090   41.4150 H   0  0  0  0  0  0  0  0  0  0  0  0
   35.9520   31.3240   40.0320 H   0  0  0  0  0  0  0  0  0  0  0  0
   37.6600   25.8400   42.5940 N   0  0  1  0  0  0  0  0  0  0  0  0
   36.8690   24.8400   41.9790 C   0  0  0  0  0  3  0  0  0  0  0  0
   36.0660   25.3310   41.3700 H   0  0  0  0  0  0  0  0  0  0  0  0
   37.6650   23.9380   41.0690 C   0  0  0  0  0  3  0  0  0  0  0  0
   38.0030   24.4760   40.1760 H   0  0  0  0  0  0  0  0  0  0  0  0
   38.7240   23.3600   41.8370 N   0  0  0  0  0  0  0  0  0  0  0  0
   38.4410   22.4910   42.3400 H   0  0  0  0  0  0  0  0  0  0  0  0
   39.4830   24.2820   42.6360 C   0  0  0  0  0  2  0  0  0  0  0  0
   39.0710   25.7040   42.5370 C   0  0  0  0  0  2  0  0  0  0  0  0
  1  4  1  1  0  0  0
  1  2  1  0  0  0  0
  2  6  1  0  0  0  0
  3  7  1  6  0  0  0
  3 17  1  0  0  0  0
  3  1  1  0  0  0  0
  3  2  1  0  0  0  0
  5  2  1  0  0  0  0
  8  9  1  0  0  0  0
  8  1  1  0  0  0  0
  9 14  1  0  0  0  0
 10 15  1  0  0  0  0
 10  9  2  0  0  0  0
 11 10  1  0  0  0  0
 12 11  2  0  0  0  0
 12 13  1  0  0  0  0
 13  8  2  0  0  0  0
 16 12  1  0  0  0  0
 17 25  1  6  0  0  0
 18 17  1  0  0  0  0
 19 18  1  0  0  0  0
 20 22  1  0  0  0  0
 20 18  1  0  0  0  0
 21 20  1  0  0  0  0
 22 23  1  0  0  0  0
 22 24  1  0  0  0  0
 25 24  1  0  0  0  0
M  END
>  <minimizedAffinity>
-4.51631069

$$$$

 OpenBabel03242518583D

 25 27  0  0  1  0  0  0  0  0999 V2000
   37.0680   29.9090   40.4840 C   0  0  1  0  0  0  0  0  0  0  0  0
   36.2690   31.1430   40.9600 C   0  0  0  0  0  0  0  0  0  0  0  0
   37.6200   31.2470   40.4040 C   0  0  2  0  0  0  0  0  0  0  0  0
   36.5450   29.3580   39.6470 H   0  0  0  0  0  0  0  0  0  0  0  0
   36.0920   31.2540   42.0490 H   0  0  0  0  0  0  0  0  0  0  0  0
   35.4090   31.4540   40.3530 H   0  0  0  0  0  0  0  0  0  0  0  0
   38.4290   31.4540   41.1520 H   0  0  0  0  0  0  0  0  0  0  0  0
   37.4460   28.9800   41.5880 C   0  0  0  0  0  0  0  0  0  0  0  0
   36.5560   27.9130   41.9080 C   0  0  0  0  0  0  0  0  0  0  0  0
   36.9300   27.0500   42.9310 C   0  0  0  0  0  0  0  0  0  0  0  0
   38.1180   27.2790   43.5550 N   0  0  0  0  0  0  0  0  0  0  0  0
   38.9380   28.3040   43.2220 C   0  0  0  0  0  0  0  0  0  0  0  0
   38.6100   29.1620   42.2360 N   0  0  0  0  0  0  0  0  0  0  0  0
   35.6450   27.8580   41.3220 H   0  0  0  0  0  0  0  0  0  0  0  0
   36.2620   26.2550   43.1660 H   0  0  0  0  0  0  0  0  0  0  0  0
   39.8380   28.3330   43.8230 H   0  0  0  0  0  0  0  0  0  0  0  0
   37.9280   31.8020   39.1300 N   0  0  1  0  0  0  0  0  0  0  0  0
   39.2240   32.3530   38.9890 C   0  0  0  0  0  3  0  0  0  0  0  0
   39.8420   32.0690   39.8800 H   0  0  0  0  0  0  0  0  0  0  0  0
   39.9360   31.8740   37.7490 C   0  0  0  0  0  3  0  0  0  0  0  0
   40.1980   30.8120   37.8300 H   0  0  0  0  0  0  0  0  0  0  0  0
   39.1150   32.1860   36.6200 N   0  0  0  0  0  0  0  0  0  0  0  0
   39.2690   33.1500   36.2530 H   0  0  0  0  0  0  0  0  0  0  0  0
   37.7320   31.8160   36.7390 C   0  0  0  0  0  2  0  0  0  0  0  0
   37.3560   31.1470   38.0090 C   0  0  0  0  0  2  0  0  0  0  0  0
  1  4  1  6  0  0  0
  1  2  1  0  0  0  0
  1  8  1  0  0  0  0
  2  5  1  0  0  0  0
  3  1  1  0  0  0  0
  3  2  1  0  0  0  0
  3  7  1  1  0  0  0
  6  2  1  0  0  0  0
  8  9  2  0  0  0  0
  8 13  1  0  0  0  0
  9 10  1  0  0  0  0
 10 15  1  0  0  0  0
 10 11  2  0  0  0  0
 12 11  1  0  0  0  0
 12 16  1  0  0  0  0
 13 12  2  0  0  0  0
 14  9  1  0  0  0  0
 17 25  1  6  0  0  0
 17  3  1  0  0  0  0
 18 17  1  0  0  0  0
 18 19  1  0  0  0  0
 20 21  1  0  0  0  0
 20 18  1  0  0  0  0
 22 24  1  0  0  0  0
 22 20  1  0  0  0  0
 23 22  1  0  0  0  0
 24 25  1  0  0  0  0
M  END
>  <minimizedAffinity>
-4.47460365

$$$$

 OpenBabel03242518583D

 25 27  0  0  1  0  0  0  0  0999 V2000
   39.0730   32.5820   40.3170 C   0  0  1  0  0  0  0  0  0  0  0  0
   37.6820   33.1770   40.0060 C   0  0  0  0  0  0  0  0  0  0  0  0
   37.9200   31.7350   40.0860 C   0  0  2  0  0  0  0  0  0  0  0  0
   39.4610   32.9080   41.3270 H   0  0  0  0  0  0  0  0  0  0  0  0
   37.5440   33.6780   39.0250 H   0  0  0  0  0  0  0  0  0  0  0  0
   37.1540   33.6850   40.8230 H   0  0  0  0  0  0  0  0  0  0  0  0
   37.9360   31.1990   39.1010 H   0  0  0  0  0  0  0  0  0  0  0  0
   40.0810   32.8260   39.2460 C   0  0  0  0  0  0  0  0  0  0  0  0
   40.9470   33.9520   39.3770 C   0  0  0  0  0  0  0  0  0  0  0  0
   41.8890   34.1580   38.3770 C   0  0  0  0  0  0  0  0  0  0  0  0
   41.9230   33.2740   37.3430 N   0  0  0  0  0  0  0  0  0  0  0  0
   41.0840   32.2150   37.2530 C   0  0  0  0  0  0  0  0  0  0  0  0
   40.1580   31.9820   38.2030 N   0  0  0  0  0  0  0  0  0  0  0  0
   40.8010   34.5680   40.2590 H   0  0  0  0  0  0  0  0  0  0  0  0
   42.5330   35.0000   38.4800 H   0  0  0  0  0  0  0  0  0  0  0  0
   41.2540   31.6200   36.3640 H   0  0  0  0  0  0  0  0  0  0  0  0
   37.4450   30.8950   41.1320 N   0  0  1  0  0  0  0  0  0  0  0  0
   36.1540   30.3460   40.9520 C   0  0  0  0  0  3  0  0  0  0  0  0
   35.8190   30.5360   39.8990 H   0  0  0  0  0  0  0  0  0  0  0  0
   36.1060   28.8590   41.2010 C   0  0  0  0  0  3  0  0  0  0  0  0
   36.6470   28.3100   40.4210 H   0  0  0  0  0  0  0  0  0  0  0  0
   36.5900   28.6180   42.5250 N   0  0  0  0  0  0  0  0  0  0  0  0
   35.8490   28.6960   43.2550 H   0  0  0  0  0  0  0  0  0  0  0  0
   37.8210   29.2770   42.8640 C   0  0  0  0  0  2  0  0  0  0  0  0
   38.4230   30.1010   41.7860 C   0  0  0  0  0  2  0  0  0  0  0  0
  1  4  1  1  0  0  0
  2  3  1  0  0  0  0
  2  1  1  0  0  0  0
  2  6  1  0  0  0  0
  3  7  1  6  0  0  0
  3  1  1  0  0  0  0
  3 17  1  0  0  0  0
  5  2  1  0  0  0  0
  8  9  1  0  0  0  0
  8  1  1  0  0  0  0
  9 14  1  0  0  0  0
 10 15  1  0  0  0  0
 10  9  2  0  0  0  0
 11 10  1  0  0  0  0
 12 11  2  0  0  0  0
 12 13  1  0  0  0  0
 13  8  2  0  0  0  0
 16 12  1  0  0  0  0
 17 25  1  6  0  0  0
 18 17  1  0  0  0  0
 18 20  1  0  0  0  0
 19 18  1  0  0  0  0
 20 22  1  0  0  0  0
 21 20  1  0  0  0  0
 22 24  1  0  0  0  0
 22 23  1  0  0  0  0
 25 24  1  0  0  0  0
M  END
>  <minimizedAffinity>
-4.38450289

$$$$

 OpenBabel03242518583D

 25 27  0  0  1  0  0  0  0  0999 V2000
   38.7450   28.8710   42.1990 C   0  0  1  0  0  0  0  0  0  0  0  0
   37.9300   28.5390   43.4690 C   0  0  0  0  0  0  0  0  0  0  0  0
   37.7690   27.8010   42.2150 C   0  0  2  0  0  0  0  0  0  0  0  0
   39.8570   28.7540   42.3630 H   0  0  0  0  0  0  0  0  0  0  0  0
   37.1670   29.2750   43.7980 H   0  0  0  0  0  0  0  0  0  0  0  0
   38.4640   28.0730   44.3060 H   0  0  0  0  0  0  0  0  0  0  0  0
   36.8300   28.0290   41.6450 H   0  0  0  0  0  0  0  0  0  0  0  0
   38.4230   30.2040   41.6140 C   0  0  0  0  0  0  0  0  0  0  0  0
   39.4080   31.2330   41.6930 C   0  0  0  0  0  0  0  0  0  0  0  0
   39.0970   32.4650   41.1320 C   0  0  0  0  0  0  0  0  0  0  0  0
   37.8770   32.6070   40.5450 N   0  0  0  0  0  0  0  0  0  0  0  0
   36.9670   31.6060   40.4870 C   0  0  0  0  0  0  0  0  0  0  0  0
   37.2330   30.3970   41.0200 N   0  0  0  0  0  0  0  0  0  0  0  0
   40.3350   30.9700   42.1930 H   0  0  0  0  0  0  0  0  0  0  0  0
   39.8350   33.2290   41.1940 H   0  0  0  0  0  0  0  0  0  0  0  0
   36.0540   31.8970   39.9830 H   0  0  0  0  0  0  0  0  0  0  0  0
   38.1960   26.4590   42.0070 N   0  0  1  0  0  0  0  0  0  0  0  0
   39.5340   26.1700   42.3640 C   0  0  0  0  0  3  0  0  0  0  0  0
   39.9570   27.0380   42.9340 H   0  0  0  0  0  0  0  0  0  0  0  0
   39.6620   24.9360   43.2220 C   0  0  0  0  0  3  0  0  0  0  0  0
   39.2410   25.1040   44.2210 H   0  0  0  0  0  0  0  0  0  0  0  0
   39.0680   23.8440   42.5150 N   0  0  0  0  0  0  0  0  0  0  0  0
   39.7260   23.3720   41.8580 H   0  0  0  0  0  0  0  0  0  0  0  0
   37.7660   24.0990   41.9630 C   0  0  0  0  0  2  0  0  0  0  0  0
   37.2170   25.4530   42.2180 C   0  0  0  0  0  2  0  0  0  0  0  0
  1  3  1  0  0  0  0
  1  4  1  1  0  0  0
  1  2  1  0  0  0  0
  2  5  1  0  0  0  0
  2  6  1  0  0  0  0
  3  7  1  6  0  0  0
  3  2  1  0  0  0  0
  8  9  1  0  0  0  0
  8  1  1  0  0  0  0
  9 14  1  0  0  0  0
 10 15  1  0  0  0  0
 10  9  2  0  0  0  0
 11 10  1  0  0  0  0
 12 11  2  0  0  0  0
 12 13  1  0  0  0  0
 13  8  2  0  0  0  0
 16 12  1  0  0  0  0
 17  3  1  0  0  0  0
 17 25  1  1  0  0  0
 17 18  1  0  0  0  0
 18 19  1  0  0  0  0
 18 20  1  0  0  0  0
 20 21  1  0  0  0  0
 22 20  1  0  0  0  0
 23 22  1  0  0  0  0
 24 25  1  0  0  0  0
 24 22  1  0  0  0  0
M  END
>  <minimizedAffinity>
-4.37548208

$$$$

 OpenBabel03242518583D

 25 27  0  0  1  0  0  0  0  0999 V2000
   36.9320   27.1120   41.8720 C   0  0  1  0  0  0  0  0  0  0  0  0
   36.6270   27.4080   43.3570 C   0  0  0  0  0  0  0  0  0  0  0  0
   37.6220   28.1630   42.5930 C   0  0  2  0  0  0  0  0  0  0  0  0
   36.0240   27.2480   41.2140 H   0  0  0  0  0  0  0  0  0  0  0  0
   36.9390   26.6530   44.1080 H   0  0  0  0  0  0  0  0  0  0  0  0
   35.6600   27.8710   43.5930 H   0  0  0  0  0  0  0  0  0  0  0  0
   38.6900   27.9260   42.8370 H   0  0  0  0  0  0  0  0  0  0  0  0
   37.5690   25.7820   41.6460 C   0  0  0  0  0  0  0  0  0  0  0  0
   36.7560   24.7190   41.1520 C   0  0  0  0  0  0  0  0  0  0  0  0
   37.3670   23.4910   40.9360 C   0  0  0  0  0  0  0  0  0  0  0  0
   38.6970   23.3850   41.2070 N   0  0  0  0  0  0  0  0  0  0  0  0
   39.4370   24.4180   41.6750 C   0  0  0  0  0  0  0  0  0  0  0  0
   38.8800   25.6240   41.8980 N   0  0  0  0  0  0  0  0  0  0  0  0
   35.7110   24.9560   40.9820 H   0  0  0  0  0  0  0  0  0  0  0  0
   36.7560   22.7010   40.5670 H   0  0  0  0  0  0  0  0  0  0  0  0
   40.4750   24.1520   41.8340 H   0  0  0  0  0  0  0  0  0  0  0  0
   37.4650   29.5160   42.1800 N   0  0  1  0  0  0  0  0  0  0  0  0
   38.6490   30.2900   42.1220 C   0  0  0  0  0  3  0  0  0  0  0  0
   39.5350   29.6130   42.2390 H   0  0  0  0  0  0  0  0  0  0  0  0
   38.7980   31.0430   40.8240 C   0  0  0  0  0  3  0  0  0  0  0  0
   38.9890   30.3570   39.9900 H   0  0  0  0  0  0  0  0  0  0  0  0
   37.6370   31.8600   40.6520 N   0  0  0  0  0  0  0  0  0  0  0  0
   37.7130   32.7880   41.1210 H   0  0  0  0  0  0  0  0  0  0  0  0
   36.3780   31.1990   40.8590 C   0  0  0  0  0  2  0  0  0  0  0  0
   36.4620   29.7580   41.2060 C   0  0  0  0  0  2  0  0  0  0  0  0
  1  4  1  6  0  0  0
  1  3  1  0  0  0  0
  1  2  1  0  0  0  0
  2  6  1  0  0  0  0
  2  5  1  0  0  0  0
  3  7  1  1  0  0  0
  3  2  1  0  0  0  0
  8  1  1  0  0  0  0
  8 13  1  0  0  0  0
  9  8  2  0  0  0  0
 10  9  1  0  0  0  0
 10 11  2  0  0  0  0
 11 12  1  0  0  0  0
 12 16  1  0  0  0  0
 12 13  2  0  0  0  0
 14  9  1  0  0  0  0
 15 10  1  0  0  0  0
 17 25  1  6  0  0  0
 17  3  1  0  0  0  0
 18 17  1  0  0  0  0
 18 19  1  0  0  0  0
 20 18  1  0  0  0  0
 21 20  1  0  0  0  0
 22 20  1  0  0  0  0
 22 24  1  0  0  0  0
 22 23  1  0  0  0  0
 24 25  1  0  0  0  0
M  END
>  <minimizedAffinity>
-4.35918856

$$$$

 OpenBabel03242518583D

 25 27  0  0  1  0  0  0  0  0999 V2000
   38.0010   27.8400   41.8080 C   0  0  1  0  0  0  0  0  0  0  0  0
   38.9840   28.5280   42.7820 C   0  0  0  0  0  0  0  0  0  0  0  0
   38.9470   28.8380   41.3520 C   0  0  2  0  0  0  0  0  0  0  0  0
   36.9220   28.0300   42.0850 H   0  0  0  0  0  0  0  0  0  0  0  0
   39.8010   27.9120   43.2100 H   0  0  0  0  0  0  0  0  0  0  0  0
   38.5650   29.2440   43.5020 H   0  0  0  0  0  0  0  0  0  0  0  0
   39.7980   28.4210   40.7520 H   0  0  0  0  0  0  0  0  0  0  0  0
   38.2630   26.3830   41.6250 C   0  0  0  0  0  0  0  0  0  0  0  0
   37.3180   25.4550   42.1530 C   0  0  0  0  0  0  0  0  0  0  0  0
   37.5710   24.1020   41.9620 C   0  0  0  0  0  0  0  0  0  0  0  0
   38.7000   23.7550   41.2860 N   0  0  0  0  0  0  0  0  0  0  0  0
   39.5750   24.6660   40.7980 C   0  0  0  0  0  0  0  0  0  0  0  0
   39.3640   25.9870   40.9630 N   0  0  0  0  0  0  0  0  0  0  0  0
   36.4640   25.8820   42.6680 H   0  0  0  0  0  0  0  0  0  0  0  0
   36.8620   23.4130   42.3580 H   0  0  0  0  0  0  0  0  0  0  0  0
   40.4140   24.2100   40.2880 H   0  0  0  0  0  0  0  0  0  0  0  0
   38.4670   30.0600   40.8020 N   0  0  1  0  0  0  0  0  0  0  0  0
   37.1310   30.0490   40.3350 C   0  0  0  0  0  3  0  0  0  0  0  0
   36.6330   29.1020   40.6690 H   0  0  0  0  0  0  0  0  0  0  0  0
   36.3190   31.2130   40.8460 C   0  0  0  0  0  3  0  0  0  0  0  0
   36.1350   31.1240   41.9230 H   0  0  0  0  0  0  0  0  0  0  0  0
   36.9900   32.4180   40.4670 N   0  0  0  0  0  0  0  0  0  0  0  0
   36.7360   32.7480   39.5110 H   0  0  0  0  0  0  0  0  0  0  0  0
   38.3980   32.4570   40.7480 C   0  0  0  0  0  2  0  0  0  0  0  0
   38.9530   31.2490   41.4060 C   0  0  0  0  0  2  0  0  0  0  0  0
  1  4  1  1  0  0  0
  1  2  1  0  0  0  0
  2  5  1  0  0  0  0
  2  6  1  0  0  0  0
  3  7  1  6  0  0  0
  3  1  1  0  0  0  0
  3  2  1  0  0  0  0
  8  1  1  0  0  0  0
  8  9  1  0  0  0  0
  9 14  1  0  0  0  0
 10  9  2  0  0  0  0
 10 15  1  0  0  0  0
 11 10  1  0  0  0  0
 12 13  1  0  0  0  0
 12 11  2  0  0  0  0
 13  8  2  0  0  0  0
 16 12  1  0  0  0  0
 17  3  1  0  0  0  0
 17 25  1  1  0  0  0
 18 19  1  0  0  0  0
 18 17  1  0  0  0  0
 18 20  1  0  0  0  0
 20 21  1  0  0  0  0
 22 24  1  0  0  0  0
 22 20  1  0  0  0  0
 23 22  1  0  0  0  0
 24 25  1  0  0  0  0
M  END
>  <minimizedAffinity>
-4.17834997

$$$$

 OpenBabel03242518583D

 25 27  0  0  1  0  0  0  0  0999 V2000
   37.9110   29.5980   42.1130 C   0  0  1  0  0  0  0  0  0  0  0  0
   39.2070   30.0450   42.8250 C   0  0  0  0  0  0  0  0  0  0  0  0
   38.8980   30.4210   41.4440 C   0  0  2  0  0  0  0  0  0  0  0  0
   36.9830   29.9740   42.6380 H   0  0  0  0  0  0  0  0  0  0  0  0
   39.9670   29.2680   43.0470 H   0  0  0  0  0  0  0  0  0  0  0  0
   39.1140   30.7940   43.6230 H   0  0  0  0  0  0  0  0  0  0  0  0
   39.4890   29.8800   40.6590 H   0  0  0  0  0  0  0  0  0  0  0  0
   37.8370   28.1280   41.8740 C   0  0  0  0  0  0  0  0  0  0  0  0
   37.0200   27.3420   42.7400 C   0  0  0  0  0  0  0  0  0  0  0  0
   36.9530   25.9770   42.4950 C   0  0  0  0  0  0  0  0  0  0  0  0
   37.6680   25.4810   41.4480 N   0  0  0  0  0  0  0  0  0  0  0  0
   38.4320   26.2600   40.6460 C   0  0  0  0  0  0  0  0  0  0  0  0
   38.5230   27.5880   40.8510 N   0  0  0  0  0  0  0  0  0  0  0  0
   36.5090   27.8790   43.5320 H   0  0  0  0  0  0  0  0  0  0  0  0
   36.3420   25.3950   43.1450 H   0  0  0  0  0  0  0  0  0  0  0  0
   38.9290   25.6970   39.8650 H   0  0  0  0  0  0  0  0  0  0  0  0
   38.5480   31.7350   41.0230 N   0  0  1  0  0  0  0  0  0  0  0  0
   39.6000   32.6800   40.9960 C   0  0  0  0  0  3  0  0  0  0  0  0
   40.5760   32.1470   41.1370 H   0  0  0  0  0  0  0  0  0  0  0  0
   39.6660   33.4500   39.7000 C   0  0  0  0  0  3  0  0  0  0  0  0
   39.9830   32.8030   38.8730 H   0  0  0  0  0  0  0  0  0  0  0  0
   38.3990   34.0800   39.4960 N   0  0  0  0  0  0  0  0  0  0  0  0
   38.3200   35.0080   39.9640 H   0  0  0  0  0  0  0  0  0  0  0  0
   37.2510   33.2330   39.6710 C   0  0  0  0  0  2  0  0  0  0  0  0
   37.5450   31.8220   40.0230 C   0  0  0  0  0  2  0  0  0  0  0  0
  1  4  1  1  0  0  0
  1  2  1  0  0  0  0
  2  5  1  0  0  0  0
  2  6  1  0  0  0  0
  3  7  1  6  0  0  0
  3  1  1  0  0  0  0
  3  2  1  0  0  0  0
  8  1  1  0  0  0  0
  8  9  1  0  0  0  0
  9 14  1  0  0  0  0
 10  9  2  0  0  0  0
 10 15  1  0  0  0  0
 11 10  1  0  0  0  0
 12 13  1  0  0  0  0
 12 11  2  0  0  0  0
 13  8  2  0  0  0  0
 16 12  1  0  0  0  0
 17 25  1  6  0  0  0
 17  3  1  0  0  0  0
 18 17  1  0  0  0  0
 18 19  1  0  0  0  0
 20 18  1  0  0  0  0
 21 20  1  0  0  0  0
 22 24  1  0  0  0  0
 22 20  1  0  0  0  0
 22 23  1  0  0  0  0
 24 25  1  0  0  0  0
M  END
>  <minimizedAffinity>
-4.16392088

$$$$

 OpenBabel03242518583D

 25 27  0  0  1  0  0  0  0  0999 V2000
   36.4400   28.4890   39.6910 C   0  0  1  0  0  0  0  0  0  0  0  0
   35.1360   29.2840   39.4610 C   0  0  0  0  0  0  0  0  0  0  0  0
   36.4210   29.6990   38.8950 C   0  0  2  0  0  0  0  0  0  0  0  0
   36.3730   27.4340   39.2920 H   0  0  0  0  0  0  0  0  0  0  0  0
   34.6980   29.8180   40.3290 H   0  0  0  0  0  0  0  0  0  0  0  0
   34.3770   28.8350   38.8080 H   0  0  0  0  0  0  0  0  0  0  0  0
   36.8980   30.5830   39.3930 H   0  0  0  0  0  0  0  0  0  0  0  0
   36.9050   28.5010   41.1080 C   0  0  0  0  0  0  0  0  0  0  0  0
   36.5250   27.4180   41.9540 C   0  0  0  0  0  0  0  0  0  0  0  0
   36.9770   27.4390   43.2670 C   0  0  0  0  0  0  0  0  0  0  0  0
   37.7520   28.4880   43.6570 N   0  0  0  0  0  0  0  0  0  0  0  0
   38.0940   29.4990   42.8240 C   0  0  0  0  0  0  0  0  0  0  0  0
   37.6740   29.5140   41.5430 N   0  0  0  0  0  0  0  0  0  0  0  0
   35.9030   26.6530   41.5010 H   0  0  0  0  0  0  0  0  0  0  0  0
   36.6900   26.6280   43.8950 H   0  0  0  0  0  0  0  0  0  0  0  0
   38.7140   30.2470   43.3030 H   0  0  0  0  0  0  0  0  0  0  0  0
   36.7530   29.6340   37.5120 N   0  0  1  0  0  0  0  0  0  0  0  0
   38.0960   29.3070   37.2090 C   0  0  0  0  0  3  0  0  0  0  0  0
   38.6110   28.9700   38.1460 H   0  0  0  0  0  0  0  0  0  0  0  0
   38.2180   28.2090   36.1830 C   0  0  0  0  0  3  0  0  0  0  0  0
   37.8860   27.2480   36.5910 H   0  0  0  0  0  0  0  0  0  0  0  0
   37.5100   28.6210   35.0110 N   0  0  0  0  0  0  0  0  0  0  0  0
   38.0860   29.1990   34.3620 H   0  0  0  0  0  0  0  0  0  0  0  0
   36.1860   29.1320   35.2350 C   0  0  0  0  0  2  0  0  0  0  0  0
   35.7370   29.1460   36.6490 C   0  0  0  0  0  2  0  0  0  0  0  0
  1  4  1  6  0  0  0
  1  8  1  0  0  0  0
  2  1  1  0  0  0  0
  2  5  1  0  0  0  0
  3  7  1  1  0  0  0
  3  2  1  0  0  0  0
  3  1  1  0  0  0  0
  6  2  1  0  0  0  0
  8 13  2  0  0  0  0
  8  9  1  0  0  0  0
  9 10  2  0  0  0  0
 10 11  1  0  0  0  0
 10 15  1  0  0  0  0
 12 16  1  0  0  0  0
 12 11  2  0  0  0  0
 13 12  1  0  0  0  0
 14  9  1  0  0  0  0
 17 25  1  6  0  0  0
 17  3  1  0  0  0  0
 18 17  1  0  0  0  0
 18 19  1  0  0  0  0
 20 21  1  0  0  0  0
 20 18  1  0  0  0  0
 22 24  1  0  0  0  0
 22 20  1  0  0  0  0
 23 22  1  0  0  0  0
 24 25  1  0  0  0  0
M  END
>  <minimizedAffinity>
-4.14539623

$$$$

 OpenBabel03242518583D

 25 27  0  0  1  0  0  0  0  0999 V2000
   41.9250   32.1080   38.2600 C   0  0  1  0  0  0  0  0  0  0  0  0
   41.5780   33.5650   37.8830 C   0  0  0  0  0  0  0  0  0  0  0  0
   40.5850   32.4900   37.8650 C   0  0  2  0  0  0  0  0  0  0  0  0
   42.3020   32.0190   39.3210 H   0  0  0  0  0  0  0  0  0  0  0  0
   41.9980   33.9670   36.9390 H   0  0  0  0  0  0  0  0  0  0  0  0
   41.5580   34.3060   38.6930 H   0  0  0  0  0  0  0  0  0  0  0  0
   40.2880   32.1320   36.8450 H   0  0  0  0  0  0  0  0  0  0  0  0
   42.8570   31.4480   37.3000 C   0  0  0  0  0  0  0  0  0  0  0  0
   42.3430   30.4160   36.4600 C   0  0  0  0  0  0  0  0  0  0  0  0
   43.2210   29.8210   35.5630 C   0  0  0  0  0  0  0  0  0  0  0  0
   44.5080   30.2620   35.5450 N   0  0  0  0  0  0  0  0  0  0  0  0
   44.9600   31.2460   36.3580 C   0  0  0  0  0  0  0  0  0  0  0  0
   44.1390   31.8470   37.2410 N   0  0  0  0  0  0  0  0  0  0  0  0
   41.2930   30.1730   36.5900 H   0  0  0  0  0  0  0  0  0  0  0  0
   42.8320   29.0510   34.9390 H   0  0  0  0  0  0  0  0  0  0  0  0
   46.0090   31.4670   36.2060 H   0  0  0  0  0  0  0  0  0  0  0  0
   39.5160   32.3620   38.7970 N   0  0  1  0  0  0  0  0  0  0  0  0
   39.5050   33.2930   39.8630 C   0  0  0  0  0  3  0  0  0  0  0  0
   40.2610   34.0940   39.6570 H   0  0  0  0  0  0  0  0  0  0  0  0
   38.1620   33.9500   40.0570 C   0  0  0  0  0  3  0  0  0  0  0  0
   37.9290   34.6250   39.2250 H   0  0  0  0  0  0  0  0  0  0  0  0
   37.1920   32.9200   40.2610 N   0  0  0  0  0  0  0  0  0  0  0  0
   37.1130   32.6190   41.2560 H   0  0  0  0  0  0  0  0  0  0  0  0
   37.2350   31.8340   39.3200 C   0  0  0  0  0  2  0  0  0  0  0  0
   38.2690   31.9450   38.2620 C   0  0  0  0  0  2  0  0  0  0  0  0
  1  4  1  1  0  0  0
  2  1  1  0  0  0  0
  2  6  1  0  0  0  0
  3  7  1  6  0  0  0
  3  2  1  0  0  0  0
  3  1  1  0  0  0  0
  3 17  1  0  0  0  0
  5  2  1  0  0  0  0
  8  1  1  0  0  0  0
  9 14  1  0  0  0  0
  9  8  2  0  0  0  0
 10  9  1  0  0  0  0
 11 10  2  0  0  0  0
 11 12  1  0  0  0  0
 12 13  2  0  0  0  0
 13  8  1  0  0  0  0
 15 10  1  0  0  0  0
 16 12  1  0  0  0  0
 17 25  1  6  0  0  0
 17 18  1  0  0  0  0
 18 20  1  0  0  0  0
 19 18  1  0  0  0  0
 20 22  1  0  0  0  0
 21 20  1  0  0  0  0
 22 23  1  0  0  0  0
 24 22  1  0  0  0  0
 25 24  1  0  0  0  0
M  END
>  <minimizedAffinity>
-4.09277582

$$$$
