
 OpenBabel03252503483D

 44 47  0  0  1  0  0  0  0  0999 V2000
   37.1480   27.0940   40.2500 C   0  0  0  0  0  0  0  0  0  0  0  0
   37.0890   26.8920   41.6270 C   0  0  0  0  0  0  0  0  0  0  0  0
   37.3840   27.9900   42.4320 C   0  0  0  0  0  0  0  0  0  0  0  0
   37.7080   29.1860   41.9060 N   0  0  0  0  0  0  0  0  0  0  0  0
   37.7560   29.3450   40.5590 C   0  0  0  0  0  0  0  0  0  0  0  0
   37.4790   28.3080   39.7310 N   0  0  0  0  0  0  0  0  0  0  0  0
   36.9260   26.2650   39.5950 H   0  0  0  0  0  0  0  0  0  0  0  0
   37.3900   27.9680   43.5070 H   0  0  0  0  0  0  0  0  0  0  0  0
   36.8280   31.5290   39.8170 C   0  0  2  0  0  0  0  0  0  0  0  0
   38.1030   30.6610   40.0380 C   0  0  1  0  0  0  0  0  0  0  0  0
   38.7730   31.4800   40.8830 O   0  0  0  0  0  0  0  0  0  0  0  0
   38.7190   32.7450   40.3810 C   0  0  0  0  0  0  0  0  0  0  0  0
   37.5470   32.8230   39.4170 C   0  0  2  0  0  0  0  0  0  0  0  0
   36.2240   31.1070   39.0070 H   0  0  0  0  0  0  0  0  0  0  0  0
   38.5750   30.5360   39.0310 H   0  0  0  0  0  0  0  0  0  0  0  0
   38.6220   33.5190   41.1510 H   0  0  0  0  0  0  0  0  0  0  0  0
   39.6690   32.9200   39.8240 H   0  0  0  0  0  0  0  0  0  0  0  0
   37.9330   32.6710   38.4010 H   0  0  0  0  0  0  0  0  0  0  0  0
   36.2080   31.7520   40.9890 O   0  0  0  0  0  0  0  0  0  0  0  0
   36.2130   30.9510   41.5420 H   0  0  0  0  0  0  0  0  0  0  0  0
   36.7640   33.9390   39.5760 O   0  0  0  0  0  0  0  0  0  0  0  0
   36.0520   33.7430   40.2310 H   0  0  0  0  0  0  0  0  0  0  0  0
   36.7300   25.6040   42.1820 C   0  0  0  0  0  0  0  0  0  0  0  0
   37.3880   25.3990   43.0770 H   0  0  0  0  0  0  0  0  0  0  0  0
   35.7090   25.6060   42.6080 H   0  0  0  0  0  0  0  0  0  0  0  0
   37.0030   24.5300   41.2180 C   0  0  0  0  0  0  0  0  0  0  0  0
   36.0480   23.9200   40.4240 C   0  0  0  0  0  0  0  0  0  0  0  0
   36.3640   22.9100   39.5430 C   0  0  0  0  0  0  0  0  0  0  0  0
   37.6830   22.4860   39.4500 C   0  0  0  0  0  0  0  0  0  0  0  0
   38.6510   23.0980   40.2500 C   0  0  0  0  0  0  0  0  0  0  0  0
   38.3150   24.1330   41.1470 C   0  0  0  0  0  0  0  0  0  0  0  0
   35.0470   24.2980   40.5490 H   0  0  0  0  0  0  0  0  0  0  0  0
   35.5480   22.4750   38.9450 H   0  0  0  0  0  0  0  0  0  0  0  0
   37.8420   21.6990   38.7450 H   0  0  0  0  0  0  0  0  0  0  0  0
   39.6140   22.6480   40.0480 H   0  0  0  0  0  0  0  0  0  0  0  0
   39.4900   24.5580   41.7680 N   0  0  0  0  0  0  0  0  0  0  0  0
   40.4540   25.3070   40.9430 C   0  0  0  0  0  3  0  0  0  0  0  0
   40.1280   25.3960   39.9020 H   0  0  0  0  0  0  0  0  0  0  0  0
   40.7180   26.6690   41.5250 C   0  0  0  0  0  3  0  0  0  0  0  0
   41.6990   27.0000   41.0730 H   0  0  0  0  0  0  0  0  0  0  0  0
   40.9180   26.6640   42.9350 N   0  0  0  0  0  0  0  0  0  0  0  0
   41.8890   26.5890   43.2580 H   0  0  0  0  0  0  0  0  0  0  0  0
   40.0040   25.8630   43.6790 C   0  0  0  0  0  2  0  0  0  0  0  0
   39.9940   24.4290   43.1450 C   0  0  0  0  0  2  0  0  0  0  0  0
  1  2  1  0  0  0  0
  2 23  1  0  0  0  0
  2  3  2  0  0  0  0
  3  8  1  0  0  0  0
  4  3  1  0  0  0  0
  5  4  2  0  0  0  0
  6  1  2  0  0  0  0
  6  5  1  0  0  0  0
  7  1  1  0  0  0  0
  9 14  1  6  0  0  0
  9 10  1  0  0  0  0
  9 19  1  0  0  0  0
 10 15  1  6  0  0  0
 10  5  1  0  0  0  0
 10 11  1  0  0  0  0
 12 11  1  0  0  0  0
 12 16  1  0  0  0  0
 13 18  1  6  0  0  0
 13 21  1  0  0  0  0
 13  9  1  0  0  0  0
 13 12  1  0  0  0  0
 17 12  1  0  0  0  0
 19 20  1  0  0  0  0
 21 22  1  0  0  0  0
 23 25  1  0  0  0  0
 23 24  1  0  0  0  0
 26 23  1  0  0  0  0
 27 32  1  0  0  0  0
 27 26  2  0  0  0  0
 28 27  1  0  0  0  0
 29 28  2  0  0  0  0
 29 30  1  0  0  0  0
 30 31  2  0  0  0  0
 31 26  1  0  0  0  0
 31 36  1  0  0  0  0
 33 28  1  0  0  0  0
 34 29  1  0  0  0  0
 35 30  1  0  0  0  0
 36 44  1  0  0  0  0
 37 39  1  0  0  0  0
 37 36  1  0  0  0  0
 38 37  1  0  0  0  0
 39 41  1  0  0  0  0
 40 39  1  0  0  0  0
 41 42  1  0  0  0  0
 41 43  1  0  0  0  0
 44 43  1  0  0  0  0
M  END
>  <minimizedAffinity>
-6.4394536

$$$$

 OpenBabel03252503483D

 44 47  0  0  1  0  0  0  0  0999 V2000
   37.9350   29.6590   38.9270 C   0  0  0  0  0  0  0  0  0  0  0  0
   37.0780   30.0280   39.9600 C   0  0  0  0  0  0  0  0  0  0  0  0
   37.4440   31.1470   40.7050 C   0  0  0  0  0  0  0  0  0  0  0  0
   38.5680   31.8380   40.4390 N   0  0  0  0  0  0  0  0  0  0  0  0
   39.3800   31.4480   39.4240 C   0  0  0  0  0  0  0  0  0  0  0  0
   39.0700   30.3650   38.6690 N   0  0  0  0  0  0  0  0  0  0  0  0
   37.6840   28.7970   38.3280 H   0  0  0  0  0  0  0  0  0  0  0  0
   36.8810   31.5300   41.5380 H   0  0  0  0  0  0  0  0  0  0  0  0
   40.9870   32.1620   37.6660 C   0  0  2  0  0  0  0  0  0  0  0  0
   40.5810   32.2330   39.1680 C   0  0  1  0  0  0  0  0  0  0  0  0
   40.4520   33.5760   39.2900 O   0  0  0  0  0  0  0  0  0  0  0  0
   41.5340   34.1610   38.7040 C   0  0  0  0  0  0  0  0  0  0  0  0
   42.1470   33.1630   37.7360 C   0  0  2  0  0  0  0  0  0  0  0  0
   41.3120   31.1470   37.4150 H   0  0  0  0  0  0  0  0  0  0  0  0
   41.4310   31.7880   39.7450 H   0  0  0  0  0  0  0  0  0  0  0  0
   41.2980   35.0940   38.1800 H   0  0  0  0  0  0  0  0  0  0  0  0
   42.2650   34.3880   39.5140 H   0  0  0  0  0  0  0  0  0  0  0  0
   42.9730   32.6560   38.2500 H   0  0  0  0  0  0  0  0  0  0  0  0
   40.0260   32.7030   36.8980 O   0  0  0  0  0  0  0  0  0  0  0  0
   39.1420   32.4520   37.2190 H   0  0  0  0  0  0  0  0  0  0  0  0
   42.4680   33.6940   36.5120 O   0  0  0  0  0  0  0  0  0  0  0  0
   41.6890   33.6110   35.9100 H   0  0  0  0  0  0  0  0  0  0  0  0
   35.8660   29.2840   40.2330 C   0  0  0  0  0  0  0  0  0  0  0  0
   35.8040   29.0860   41.3430 H   0  0  0  0  0  0  0  0  0  0  0  0
   34.9580   29.8810   40.0260 H   0  0  0  0  0  0  0  0  0  0  0  0
   35.9090   27.9680   39.5830 C   0  0  0  0  0  0  0  0  0  0  0  0
   35.3230   27.6680   38.3650 C   0  0  0  0  0  0  0  0  0  0  0  0
   35.3910   26.4100   37.8100 C   0  0  0  0  0  0  0  0  0  0  0  0
   36.0660   25.4080   38.4940 C   0  0  0  0  0  0  0  0  0  0  0  0
   36.6590   25.7050   39.7240 C   0  0  0  0  0  0  0  0  0  0  0  0
   36.5850   26.9980   40.2810 C   0  0  0  0  0  0  0  0  0  0  0  0
   34.8170   28.4930   37.8920 H   0  0  0  0  0  0  0  0  0  0  0  0
   34.9000   26.2490   36.8380 H   0  0  0  0  0  0  0  0  0  0  0  0
   36.0700   24.4620   37.9950 H   0  0  0  0  0  0  0  0  0  0  0  0
   37.1370   24.8140   40.1110 H   0  0  0  0  0  0  0  0  0  0  0  0
   37.2950   26.9860   41.4820 N   0  0  0  0  0  0  0  0  0  0  0  0
   38.7640   26.9120   41.3920 C   0  0  0  0  0  3  0  0  0  0  0  0
   39.1140   26.8290   40.3580 H   0  0  0  0  0  0  0  0  0  0  0  0
   39.4050   28.0960   42.0650 C   0  0  0  0  0  3  0  0  0  0  0  0
   40.4690   27.7770   42.2760 H   0  0  0  0  0  0  0  0  0  0  0  0
   38.8350   28.4180   43.3300 N   0  0  0  0  0  0  0  0  0  0  0  0
   39.2810   27.9980   44.1530 H   0  0  0  0  0  0  0  0  0  0  0  0
   37.4110   28.4010   43.3800 C   0  0  0  0  0  2  0  0  0  0  0  0
   36.8760   27.0540   42.8910 C   0  0  0  0  0  2  0  0  0  0  0  0
  1  2  1  0  0  0  0
  2 23  1  0  0  0  0
  2  3  2  0  0  0  0
  3  8  1  0  0  0  0
  4  3  1  0  0  0  0
  5  4  2  0  0  0  0
  6  1  2  0  0  0  0
  6  5  1  0  0  0  0
  7  1  1  0  0  0  0
  9 14  1  6  0  0  0
  9 13  1  0  0  0  0
  9 10  1  0  0  0  0
 10 11  1  0  0  0  0
 10  5  1  0  0  0  0
 10 15  1  1  0  0  0
 12 11  1  0  0  0  0
 12 17  1  0  0  0  0
 13 18  1  1  0  0  0
 13 12  1  0  0  0  0
 16 12  1  0  0  0  0
 19 20  1  0  0  0  0
 19  9  1  0  0  0  0
 21 13  1  0  0  0  0
 22 21  1  0  0  0  0
 23 24  1  0  0  0  0
 25 23  1  0  0  0  0
 26 23  1  0  0  0  0
 26 31  1  0  0  0  0
 27 26  2  0  0  0  0
 28 27  1  0  0  0  0
 28 29  2  0  0  0  0
 29 30  1  0  0  0  0
 30 35  1  0  0  0  0
 30 31  2  0  0  0  0
 31 36  1  0  0  0  0
 32 27  1  0  0  0  0
 33 28  1  0  0  0  0
 34 29  1  0  0  0  0
 36 44  1  0  0  0  0
 37 36  1  0  0  0  0
 37 39  1  0  0  0  0
 38 37  1  0  0  0  0
 39 40  1  0  0  0  0
 39 41  1  0  0  0  0
 41 43  1  0  0  0  0
 41 42  1  0  0  0  0
 44 43  1  0  0  0  0
M  END
>  <minimizedAffinity>
-6.36680889

$$$$

 OpenBabel03252503483D

 44 47  0  0  1  0  0  0  0  0999 V2000
   37.4080   30.3540   38.9840 C   0  0  0  0  0  0  0  0  0  0  0  0
   37.7480   29.0260   39.2290 C   0  0  0  0  0  0  0  0  0  0  0  0
   39.1050   28.7440   39.3680 C   0  0  0  0  0  0  0  0  0  0  0  0
   40.0420   29.7070   39.2710 N   0  0  0  0  0  0  0  0  0  0  0  0
   39.6730   30.9910   39.0310 C   0  0  0  0  0  0  0  0  0  0  0  0
   38.3650   31.3180   38.8870 N   0  0  0  0  0  0  0  0  0  0  0  0
   36.3660   30.6100   38.8700 H   0  0  0  0  0  0  0  0  0  0  0  0
   39.5050   27.7610   39.5430 H   0  0  0  0  0  0  0  0  0  0  0  0
   41.1930   32.1910   37.4720 C   0  0  2  0  0  0  0  0  0  0  0  0
   40.7220   31.9990   38.9450 C   0  0  1  0  0  0  0  0  0  0  0  0
   40.3490   33.2720   39.2170 O   0  0  0  0  0  0  0  0  0  0  0  0
   41.3300   34.1050   38.7730 C   0  0  0  0  0  0  0  0  0  0  0  0
   42.1500   33.3620   37.7320 C   0  0  2  0  0  0  0  0  0  0  0  0
   41.7050   31.2890   37.1230 H   0  0  0  0  0  0  0  0  0  0  0  0
   41.6150   31.6380   39.5160 H   0  0  0  0  0  0  0  0  0  0  0  0
   40.9510   35.0430   38.3490 H   0  0  0  0  0  0  0  0  0  0  0  0
   41.9760   34.3510   39.6470 H   0  0  0  0  0  0  0  0  0  0  0  0
   43.0330   32.9430   38.2320 H   0  0  0  0  0  0  0  0  0  0  0  0
   40.1820   32.6520   36.7160 O   0  0  0  0  0  0  0  0  0  0  0  0
   39.3450   32.2110   36.9510 H   0  0  0  0  0  0  0  0  0  0  0  0
   42.4180   34.0920   36.6020 O   0  0  0  0  0  0  0  0  0  0  0  0
   41.6910   33.9530   35.9480 H   0  0  0  0  0  0  0  0  0  0  0  0
   36.7330   27.9990   39.3400 C   0  0  0  0  0  0  0  0  0  0  0  0
   35.7170   28.4810   39.2310 H   0  0  0  0  0  0  0  0  0  0  0  0
   36.7710   27.2860   38.4950 H   0  0  0  0  0  0  0  0  0  0  0  0
   36.7570   27.3890   40.6750 C   0  0  0  0  0  0  0  0  0  0  0  0
   36.5200   28.0680   41.8580 C   0  0  0  0  0  0  0  0  0  0  0  0
   36.5660   27.4410   43.0830 C   0  0  0  0  0  0  0  0  0  0  0  0
   36.8610   26.0860   43.1360 C   0  0  0  0  0  0  0  0  0  0  0  0
   37.1000   25.3960   41.9440 C   0  0  0  0  0  0  0  0  0  0  0  0
   37.0490   26.0480   40.6960 C   0  0  0  0  0  0  0  0  0  0  0  0
   36.2990   29.1160   41.7420 H   0  0  0  0  0  0  0  0  0  0  0  0
   36.3650   28.0490   43.9800 H   0  0  0  0  0  0  0  0  0  0  0  0
   36.8770   25.6780   44.1240 H   0  0  0  0  0  0  0  0  0  0  0  0
   37.3120   24.3590   42.1720 H   0  0  0  0  0  0  0  0  0  0  0  0
   37.2950   25.0950   39.7060 N   0  0  0  0  0  0  0  0  0  0  0  0
   38.7050   24.8020   39.3920 C   0  0  0  0  0  3  0  0  0  0  0  0
   39.3960   25.4250   39.9670 H   0  0  0  0  0  0  0  0  0  0  0  0
   39.0120   23.3450   39.6080 C   0  0  0  0  0  3  0  0  0  0  0  0
   39.9490   23.1470   39.0080 H   0  0  0  0  0  0  0  0  0  0  0  0
   38.0210   22.4630   39.0890 N   0  0  0  0  0  0  0  0  0  0  0  0
   38.1710   22.1190   38.1340 H   0  0  0  0  0  0  0  0  0  0  0  0
   36.6720   22.8350   39.3570 C   0  0  0  0  0  2  0  0  0  0  0  0
   36.4070   24.2640   38.8780 C   0  0  0  0  0  2  0  0  0  0  0  0
  1  2  1  0  0  0  0
  2 23  1  0  0  0  0
  2  3  2  0  0  0  0
  3  8  1  0  0  0  0
  4  3  1  0  0  0  0
  5  4  2  0  0  0  0
  6  1  2  0  0  0  0
  6  5  1  0  0  0  0
  7  1  1  0  0  0  0
  9 14  1  6  0  0  0
  9 13  1  0  0  0  0
  9 10  1  0  0  0  0
 10  5  1  0  0  0  0
 10 11  1  0  0  0  0
 10 15  1  1  0  0  0
 12 11  1  0  0  0  0
 12 17  1  0  0  0  0
 13 18  1  1  0  0  0
 13 12  1  0  0  0  0
 16 12  1  0  0  0  0
 19 20  1  0  0  0  0
 19  9  1  0  0  0  0
 21 13  1  0  0  0  0
 22 21  1  0  0  0  0
 23 26  1  0  0  0  0
 24 23  1  0  0  0  0
 25 23  1  0  0  0  0
 26 31  2  0  0  0  0
 26 27  1  0  0  0  0
 27 28  2  0  0  0  0
 28 29  1  0  0  0  0
 28 33  1  0  0  0  0
 29 34  1  0  0  0  0
 30 35  1  0  0  0  0
 30 29  2  0  0  0  0
 31 30  1  0  0  0  0
 32 27  1  0  0  0  0
 36 31  1  0  0  0  0
 37 39  1  0  0  0  0
 37 36  1  0  0  0  0
 37 38  1  0  0  0  0
 40 39  1  0  0  0  0
 41 43  1  0  0  0  0
 41 39  1  0  0  0  0
 42 41  1  0  0  0  0
 44 43  1  0  0  0  0
 44 36  1  0  0  0  0
M  END
>  <minimizedAffinity>
-6.30493784

$$$$

 OpenBabel03252503483D

 44 47  0  0  1  0  0  0  0  0999 V2000
   37.3350   30.6290   40.1280 C   0  0  0  0  0  0  0  0  0  0  0  0
   37.3440   29.4120   39.4520 C   0  0  0  0  0  0  0  0  0  0  0  0
   38.4520   29.1520   38.6490 C   0  0  0  0  0  0  0  0  0  0  0  0
   39.4650   30.0320   38.5330 N   0  0  0  0  0  0  0  0  0  0  0  0
   39.4210   31.2090   39.2080 C   0  0  0  0  0  0  0  0  0  0  0  0
   38.3640   31.5110   40.0020 N   0  0  0  0  0  0  0  0  0  0  0  0
   36.4910   30.8650   40.7600 H   0  0  0  0  0  0  0  0  0  0  0  0
   38.5780   28.2600   38.0620 H   0  0  0  0  0  0  0  0  0  0  0  0
   41.0300   32.1780   37.5790 C   0  0  2  0  0  0  0  0  0  0  0  0
   40.5450   32.1250   39.0590 C   0  0  1  0  0  0  0  0  0  0  0  0
   40.2720   33.4380   39.2400 O   0  0  0  0  0  0  0  0  0  0  0  0
   41.3150   34.1610   38.7460 C   0  0  0  0  0  0  0  0  0  0  0  0
   42.0750   33.2860   37.7630 C   0  0  2  0  0  0  0  0  0  0  0  0
   41.4710   31.2170   37.2950 H   0  0  0  0  0  0  0  0  0  0  0  0
   41.4070   31.7360   39.6580 H   0  0  0  0  0  0  0  0  0  0  0  0
   41.0090   35.0930   38.2570 H   0  0  0  0  0  0  0  0  0  0  0  0
   41.9770   34.4150   39.6050 H   0  0  0  0  0  0  0  0  0  0  0  0
   42.9230   32.8360   38.2960 H   0  0  0  0  0  0  0  0  0  0  0  0
   40.0580   32.6620   36.7870 O   0  0  0  0  0  0  0  0  0  0  0  0
   39.1900   32.3050   37.0470 H   0  0  0  0  0  0  0  0  0  0  0  0
   42.3990   33.9140   36.5870 O   0  0  0  0  0  0  0  0  0  0  0  0
   41.6640   33.7870   35.9400 H   0  0  0  0  0  0  0  0  0  0  0  0
   36.2540   28.4680   39.5900 C   0  0  0  0  0  0  0  0  0  0  0  0
   35.3660   29.0020   40.0390 H   0  0  0  0  0  0  0  0  0  0  0  0
   35.8770   28.1240   38.6080 H   0  0  0  0  0  0  0  0  0  0  0  0
   36.6100   27.3990   40.5320 C   0  0  0  0  0  0  0  0  0  0  0  0
   36.7570   27.5670   41.8980 C   0  0  0  0  0  0  0  0  0  0  0  0
   37.1020   26.5260   42.7300 C   0  0  0  0  0  0  0  0  0  0  0  0
   37.3120   25.2670   42.1830 C   0  0  0  0  0  0  0  0  0  0  0  0
   37.1660   25.0930   40.8040 C   0  0  0  0  0  0  0  0  0  0  0  0
   36.8100   26.1660   39.9620 C   0  0  0  0  0  0  0  0  0  0  0  0
   36.5790   28.5690   42.2520 H   0  0  0  0  0  0  0  0  0  0  0  0
   37.1990   26.7380   43.8060 H   0  0  0  0  0  0  0  0  0  0  0  0
   37.5770   24.5170   42.8960 H   0  0  0  0  0  0  0  0  0  0  0  0
   37.3650   24.0590   40.5550 H   0  0  0  0  0  0  0  0  0  0  0  0
   36.7090   25.6730   38.6610 N   0  0  0  0  0  0  0  0  0  0  0  0
   35.4490   25.0010   38.2930 C   0  0  0  0  0  3  0  0  0  0  0  0
   34.7520   24.9370   39.1350 H   0  0  0  0  0  0  0  0  0  0  0  0
   34.7950   25.6860   37.1240 C   0  0  0  0  0  3  0  0  0  0  0  0
   34.0850   24.9200   36.6920 H   0  0  0  0  0  0  0  0  0  0  0  0
   35.6970   26.0210   36.0740 N   0  0  0  0  0  0  0  0  0  0  0  0
   35.7980   25.3310   35.3210 H   0  0  0  0  0  0  0  0  0  0  0  0
   36.9320   26.5980   36.4900 C   0  0  0  0  0  2  0  0  0  0  0  0
   37.6260   25.6950   37.5110 C   0  0  0  0  0  2  0  0  0  0  0  0
  1  7  1  0  0  0  0
  2 23  1  0  0  0  0
  2  1  2  0  0  0  0
  3  2  1  0  0  0  0
  4  3  2  0  0  0  0
  4  5  1  0  0  0  0
  5  6  2  0  0  0  0
  6  1  1  0  0  0  0
  8  3  1  0  0  0  0
  9 14  1  6  0  0  0
  9 13  1  0  0  0  0
  9 10  1  0  0  0  0
 10  5  1  0  0  0  0
 10 11  1  0  0  0  0
 10 15  1  1  0  0  0
 12 11  1  0  0  0  0
 12 17  1  0  0  0  0
 13 18  1  1  0  0  0
 13 12  1  0  0  0  0
 16 12  1  0  0  0  0
 19 20  1  0  0  0  0
 19  9  1  0  0  0  0
 21 13  1  0  0  0  0
 22 21  1  0  0  0  0
 23 24  1  0  0  0  0
 23 26  1  0  0  0  0
 25 23  1  0  0  0  0
 26 27  1  0  0  0  0
 27 32  1  0  0  0  0
 27 28  2  0  0  0  0
 28 33  1  0  0  0  0
 29 28  1  0  0  0  0
 29 34  1  0  0  0  0
 30 29  2  0  0  0  0
 31 26  2  0  0  0  0
 31 30  1  0  0  0  0
 35 30  1  0  0  0  0
 36 31  1  0  0  0  0
 37 36  1  0  0  0  0
 37 38  1  0  0  0  0
 39 37  1  0  0  0  0
 40 39  1  0  0  0  0
 41 43  1  0  0  0  0
 41 39  1  0  0  0  0
 42 41  1  0  0  0  0
 43 44  1  0  0  0  0
 44 36  1  0  0  0  0
M  END
>  <minimizedAffinity>
-6.14630318

$$$$

 OpenBabel03252503483D

 44 47  0  0  1  0  0  0  0  0999 V2000
   39.4200   28.3220   39.0160 C   0  0  0  0  0  0  0  0  0  0  0  0
   38.1100   28.6630   39.3470 C   0  0  0  0  0  0  0  0  0  0  0  0
   37.8430   30.0180   39.5240 C   0  0  0  0  0  0  0  0  0  0  0  0
   38.8010   30.9530   39.3830 N   0  0  0  0  0  0  0  0  0  0  0  0
   40.0680   30.5840   39.0610 C   0  0  0  0  0  0  0  0  0  0  0  0
   40.3800   29.2770   38.8780 N   0  0  0  0  0  0  0  0  0  0  0  0
   39.6640   27.2810   38.8720 H   0  0  0  0  0  0  0  0  0  0  0  0
   36.8810   30.4150   39.7950 H   0  0  0  0  0  0  0  0  0  0  0  0
   41.2720   31.9980   37.4090 C   0  0  2  0  0  0  0  0  0  0  0  0
   41.0680   31.6320   38.9100 C   0  0  1  0  0  0  0  0  0  0  0  0
   40.7270   32.8540   39.3810 O   0  0  0  0  0  0  0  0  0  0  0  0
   41.6010   33.7660   38.8720 C   0  0  0  0  0  0  0  0  0  0  0  0
   42.2400   33.1680   37.6300 C   0  0  2  0  0  0  0  0  0  0  0  0
   41.7310   31.1570   36.8780 H   0  0  0  0  0  0  0  0  0  0  0  0
   42.0530   31.2450   39.2750 H   0  0  0  0  0  0  0  0  0  0  0  0
   41.1380   34.7290   38.6270 H   0  0  0  0  0  0  0  0  0  0  0  0
   42.3850   33.9400   39.6440 H   0  0  0  0  0  0  0  0  0  0  0  0
   43.2040   32.7310   37.9220 H   0  0  0  0  0  0  0  0  0  0  0  0
   40.1370   32.5000   36.8930 O   0  0  0  0  0  0  0  0  0  0  0  0
   39.3620   32.0070   37.2170 H   0  0  0  0  0  0  0  0  0  0  0  0
   42.2950   34.0240   36.5590 O   0  0  0  0  0  0  0  0  0  0  0  0
   41.4670   33.9290   36.0280 H   0  0  0  0  0  0  0  0  0  0  0  0
   37.0840   27.6500   39.4870 C   0  0  0  0  0  0  0  0  0  0  0  0
   36.4650   27.8860   40.4020 H   0  0  0  0  0  0  0  0  0  0  0  0
   36.3490   27.6890   38.6620 H   0  0  0  0  0  0  0  0  0  0  0  0
   37.6860   26.3330   39.7280 C   0  0  0  0  0  0  0  0  0  0  0  0
   37.8680   25.3590   38.7610 C   0  0  0  0  0  0  0  0  0  0  0  0
   38.4310   24.1360   39.0510 C   0  0  0  0  0  0  0  0  0  0  0  0
   38.8280   23.8690   40.3540 C   0  0  0  0  0  0  0  0  0  0  0  0
   38.6460   24.8490   41.3340 C   0  0  0  0  0  0  0  0  0  0  0  0
   38.0700   26.0980   41.0250 C   0  0  0  0  0  0  0  0  0  0  0  0
   37.5370   25.6340   37.7740 H   0  0  0  0  0  0  0  0  0  0  0  0
   38.5430   23.4130   38.2270 H   0  0  0  0  0  0  0  0  0  0  0  0
   39.2540   22.8980   40.4930 H   0  0  0  0  0  0  0  0  0  0  0  0
   39.0080   24.4730   42.2820 H   0  0  0  0  0  0  0  0  0  0  0  0
   38.0560   26.8620   42.1920 N   0  0  0  0  0  0  0  0  0  0  0  0
   39.3540   27.3570   42.6860 C   0  0  0  0  0  3  0  0  0  0  0  0
   40.1910   27.0100   42.0720 H   0  0  0  0  0  0  0  0  0  0  0  0
   39.3590   28.8590   42.7730 C   0  0  0  0  0  3  0  0  0  0  0  0
   40.1990   29.1120   43.4840 H   0  0  0  0  0  0  0  0  0  0  0  0
   38.1780   29.4070   43.3510 N   0  0  0  0  0  0  0  0  0  0  0  0
   38.2010   29.5760   44.3630 H   0  0  0  0  0  0  0  0  0  0  0  0
   36.9540   28.8400   42.8940 C   0  0  0  0  0  2  0  0  0  0  0  0
   36.9700   27.3200   43.0730 C   0  0  0  0  0  2  0  0  0  0  0  0
  1  2  1  0  0  0  0
  2 23  1  0  0  0  0
  2  3  2  0  0  0  0
  3  8  1  0  0  0  0
  4  3  1  0  0  0  0
  5  4  2  0  0  0  0
  6  1  2  0  0  0  0
  6  5  1  0  0  0  0
  7  1  1  0  0  0  0
  9 14  1  6  0  0  0
  9 13  1  0  0  0  0
  9 10  1  0  0  0  0
 10  5  1  0  0  0  0
 10 15  1  1  0  0  0
 10 11  1  0  0  0  0
 12 11  1  0  0  0  0
 12 17  1  0  0  0  0
 13 18  1  1  0  0  0
 13 12  1  0  0  0  0
 16 12  1  0  0  0  0
 19 20  1  0  0  0  0
 19  9  1  0  0  0  0
 21 13  1  0  0  0  0
 22 21  1  0  0  0  0
 23 26  1  0  0  0  0
 23 24  1  0  0  0  0
 25 23  1  0  0  0  0
 26 31  1  0  0  0  0
 27 28  1  0  0  0  0
 27 26  2  0  0  0  0
 28 29  2  0  0  0  0
 29 34  1  0  0  0  0
 29 30  1  0  0  0  0
 30 35  1  0  0  0  0
 31 30  2  0  0  0  0
 31 36  1  0  0  0  0
 32 27  1  0  0  0  0
 33 28  1  0  0  0  0
 36 37  1  0  0  0  0
 36 44  1  0  0  0  0
 37 39  1  0  0  0  0
 38 37  1  0  0  0  0
 39 41  1  0  0  0  0
 39 40  1  0  0  0  0
 41 42  1  0  0  0  0
 43 44  1  0  0  0  0
 43 41  1  0  0  0  0
M  END
>  <minimizedAffinity>
-6.08610964

$$$$

 OpenBabel03252503483D

 44 47  0  0  1  0  0  0  0  0999 V2000
   35.1780   29.1490   39.7570 C   0  0  0  0  0  0  0  0  0  0  0  0
   36.2810   29.9340   40.0860 C   0  0  0  0  0  0  0  0  0  0  0  0
   37.0280   30.4360   39.0230 C   0  0  0  0  0  0  0  0  0  0  0  0
   36.7020   30.1760   37.7430 N   0  0  0  0  0  0  0  0  0  0  0  0
   35.6210   29.4050   37.4610 C   0  0  0  0  0  0  0  0  0  0  0  0
   34.8600   28.8920   38.4590 N   0  0  0  0  0  0  0  0  0  0  0  0
   34.5760   28.7430   40.5560 H   0  0  0  0  0  0  0  0  0  0  0  0
   37.9100   31.0420   39.1350 H   0  0  0  0  0  0  0  0  0  0  0  0
   36.4530   29.6490   35.1310 C   0  0  2  0  0  0  0  0  0  0  0  0
   35.3020   29.1600   36.0600 C   0  0  1  0  0  0  0  0  0  0  0  0
   35.2570   27.8620   35.6780 O   0  0  0  0  0  0  0  0  0  0  0  0
   35.2860   27.8200   34.3170 C   0  0  0  0  0  0  0  0  0  0  0  0
   35.8650   29.1310   33.8130 C   0  0  2  0  0  0  0  0  0  0  0  0
   36.5250   30.7410   35.1680 H   0  0  0  0  0  0  0  0  0  0  0  0
   34.4000   29.7630   35.7860 H   0  0  0  0  0  0  0  0  0  0  0  0
   35.8630   26.9780   33.9160 H   0  0  0  0  0  0  0  0  0  0  0  0
   34.2320   27.7210   33.9670 H   0  0  0  0  0  0  0  0  0  0  0  0
   35.0280   29.7940   33.5570 H   0  0  0  0  0  0  0  0  0  0  0  0
   37.5770   28.9540   35.3770 O   0  0  0  0  0  0  0  0  0  0  0  0
   37.6940   28.8110   36.3330 H   0  0  0  0  0  0  0  0  0  0  0  0
   36.8080   28.9860   32.8270 O   0  0  0  0  0  0  0  0  0  0  0  0
   37.6990   28.8960   33.2450 H   0  0  0  0  0  0  0  0  0  0  0  0
   36.6180   30.2160   41.4660 C   0  0  0  0  0  0  0  0  0  0  0  0
   37.3980   31.0320   41.4890 H   0  0  0  0  0  0  0  0  0  0  0  0
   35.7670   30.6570   42.0180 H   0  0  0  0  0  0  0  0  0  0  0  0
   37.2330   29.0420   42.0980 C   0  0  0  0  0  0  0  0  0  0  0  0
   36.5360   27.9430   42.5700 C   0  0  0  0  0  0  0  0  0  0  0  0
   37.1700   26.8750   43.1640 C   0  0  0  0  0  0  0  0  0  0  0  0
   38.5510   26.8990   43.2960 C   0  0  0  0  0  0  0  0  0  0  0  0
   39.2600   28.0070   42.8210 C   0  0  0  0  0  0  0  0  0  0  0  0
   38.6000   29.0940   42.2140 C   0  0  0  0  0  0  0  0  0  0  0  0
   35.4680   27.9920   42.4350 H   0  0  0  0  0  0  0  0  0  0  0  0
   36.5470   26.0360   43.5130 H   0  0  0  0  0  0  0  0  0  0  0  0
   38.9630   26.0330   43.7680 H   0  0  0  0  0  0  0  0  0  0  0  0
   40.3160   27.8570   43.0060 H   0  0  0  0  0  0  0  0  0  0  0  0
   39.5710   30.0160   41.8180 N   0  0  0  0  0  0  0  0  0  0  0  0
   40.4690   29.6160   40.7200 C   0  0  0  0  0  3  0  0  0  0  0  0
   40.2760   28.5950   40.3770 H   0  0  0  0  0  0  0  0  0  0  0  0
   40.3720   30.5790   39.5690 C   0  0  0  0  0  3  0  0  0  0  0  0
   41.3200   30.4250   38.9730 H   0  0  0  0  0  0  0  0  0  0  0  0
   40.3760   31.9490   39.9610 N   0  0  0  0  0  0  0  0  0  0  0  0
   41.2890   32.4160   39.9800 H   0  0  0  0  0  0  0  0  0  0  0  0
   39.5480   32.2670   41.0770 C   0  0  0  0  0  2  0  0  0  0  0  0
   39.8980   31.3770   42.2710 C   0  0  0  0  0  2  0  0  0  0  0  0
  1  2  1  0  0  0  0
  1  7  1  0  0  0  0
  2 23  1  0  0  0  0
  3  8  1  0  0  0  0
  3  2  2  0  0  0  0
  4  3  1  0  0  0  0
  5  4  2  0  0  0  0
  5  6  1  0  0  0  0
  6  1  2  0  0  0  0
  9 14  1  1  0  0  0
  9 19  1  0  0  0  0
  9 10  1  0  0  0  0
 10 15  1  6  0  0  0
 10  5  1  0  0  0  0
 11 10  1  0  0  0  0
 12 11  1  0  0  0  0
 13 18  1  6  0  0  0
 13 12  1  0  0  0  0
 13  9  1  0  0  0  0
 16 12  1  0  0  0  0
 17 12  1  0  0  0  0
 19 20  1  0  0  0  0
 21 22  1  0  0  0  0
 21 13  1  0  0  0  0
 23 24  1  0  0  0  0
 23 25  1  0  0  0  0
 23 26  1  0  0  0  0
 26 31  2  0  0  0  0
 26 27  1  0  0  0  0
 27 28  2  0  0  0  0
 28 29  1  0  0  0  0
 28 33  1  0  0  0  0
 29 34  1  0  0  0  0
 30 35  1  0  0  0  0
 30 29  2  0  0  0  0
 31 30  1  0  0  0  0
 32 27  1  0  0  0  0
 36 31  1  0  0  0  0
 36 44  1  0  0  0  0
 37 36  1  0  0  0  0
 38 37  1  0  0  0  0
 39 41  1  0  0  0  0
 39 37  1  0  0  0  0
 40 39  1  0  0  0  0
 41 42  1  0  0  0  0
 41 43  1  0  0  0  0
 43 44  1  0  0  0  0
M  END
>  <minimizedAffinity>
-5.84281111

$$$$

 OpenBabel03252503483D

 44 47  0  0  1  0  0  0  0  0999 V2000
   38.8130   28.9350   39.3840 C   0  0  0  0  0  0  0  0  0  0  0  0
   37.7890   29.2430   40.2770 C   0  0  0  0  0  0  0  0  0  0  0  0
   37.8070   30.5220   40.8300 C   0  0  0  0  0  0  0  0  0  0  0  0
   38.7640   31.4150   40.5170 N   0  0  0  0  0  0  0  0  0  0  0  0
   39.7470   31.0790   39.6430 C   0  0  0  0  0  0  0  0  0  0  0  0
   39.7750   29.8470   39.0770 N   0  0  0  0  0  0  0  0  0  0  0  0
   38.8310   27.9530   38.9360 H   0  0  0  0  0  0  0  0  0  0  0  0
   37.0870   30.8830   41.5420 H   0  0  0  0  0  0  0  0  0  0  0  0
   41.0790   32.0920   37.8040 C   0  0  2  0  0  0  0  0  0  0  0  0
   40.7550   32.0830   39.3280 C   0  0  1  0  0  0  0  0  0  0  0  0
   40.3760   33.3740   39.4730 O   0  0  0  0  0  0  0  0  0  0  0  0
   41.2870   34.1590   38.8330 C   0  0  0  0  0  0  0  0  0  0  0  0
   42.0240   33.3000   37.8190 C   0  0  2  0  0  0  0  0  0  0  0  0
   41.5790   31.1600   37.5220 H   0  0  0  0  0  0  0  0  0  0  0  0
   41.7080   31.8110   39.8500 H   0  0  0  0  0  0  0  0  0  0  0  0
   40.8440   35.0290   38.3340 H   0  0  0  0  0  0  0  0  0  0  0  0
   42.0070   34.5240   39.6020 H   0  0  0  0  0  0  0  0  0  0  0  0
   42.9620   32.9630   38.2790 H   0  0  0  0  0  0  0  0  0  0  0  0
   39.9880   32.4370   37.0990 O   0  0  0  0  0  0  0  0  0  0  0  0
   39.1900   32.0180   37.4680 H   0  0  0  0  0  0  0  0  0  0  0  0
   42.1630   33.8840   36.5850 O   0  0  0  0  0  0  0  0  0  0  0  0
   41.3810   33.6510   36.0280 H   0  0  0  0  0  0  0  0  0  0  0  0
   36.7590   28.2780   40.6000 C   0  0  0  0  0  0  0  0  0  0  0  0
   37.2450   27.3690   41.0600 H   0  0  0  0  0  0  0  0  0  0  0  0
   36.0860   28.6430   41.3990 H   0  0  0  0  0  0  0  0  0  0  0  0
   36.0860   27.8110   39.3810 C   0  0  0  0  0  0  0  0  0  0  0  0
   35.3220   28.6070   38.5450 C   0  0  0  0  0  0  0  0  0  0  0  0
   34.7080   28.1070   37.4190 C   0  0  0  0  0  0  0  0  0  0  0  0
   34.8560   26.7620   37.1120 C   0  0  0  0  0  0  0  0  0  0  0  0
   35.6250   25.9530   37.9530 C   0  0  0  0  0  0  0  0  0  0  0  0
   36.2520   26.4770   39.1020 C   0  0  0  0  0  0  0  0  0  0  0  0
   35.2510   29.6390   38.8450 H   0  0  0  0  0  0  0  0  0  0  0  0
   34.1170   28.8040   36.8030 H   0  0  0  0  0  0  0  0  0  0  0  0
   34.3460   26.4560   36.2230 H   0  0  0  0  0  0  0  0  0  0  0  0
   35.6320   24.9430   37.5640 H   0  0  0  0  0  0  0  0  0  0  0  0
   36.9680   25.4430   39.7070 N   0  0  0  0  0  0  0  0  0  0  0  0
   38.3750   25.2750   39.3040 C   0  0  0  0  0  3  0  0  0  0  0  0
   38.6710   25.9830   38.5230 H   0  0  0  0  0  0  0  0  0  0  0  0
   39.2920   25.3960   40.4910 C   0  0  0  0  0  3  0  0  0  0  0  0
   40.2550   24.8970   40.1730 H   0  0  0  0  0  0  0  0  0  0  0  0
   38.8440   24.6840   41.6400 N   0  0  0  0  0  0  0  0  0  0  0  0
   39.1970   23.7270   41.7520 H   0  0  0  0  0  0  0  0  0  0  0  0
   37.4580   24.8200   41.9410 C   0  0  0  0  0  2  0  0  0  0  0  0
   36.6090   24.4430   40.7250 C   0  0  0  0  0  2  0  0  0  0  0  0
  1  2  1  0  0  0  0
  2 23  1  0  0  0  0
  2  3  2  0  0  0  0
  3  8  1  0  0  0  0
  4  3  1  0  0  0  0
  5  4  2  0  0  0  0
  6  1  2  0  0  0  0
  6  5  1  0  0  0  0
  7  1  1  0  0  0  0
  9 14  1  6  0  0  0
  9 13  1  0  0  0  0
  9 10  1  0  0  0  0
 10 11  1  0  0  0  0
 10  5  1  0  0  0  0
 10 15  1  1  0  0  0
 12 11  1  0  0  0  0
 12 17  1  0  0  0  0
 13 18  1  1  0  0  0
 13 12  1  0  0  0  0
 16 12  1  0  0  0  0
 19 20  1  0  0  0  0
 19  9  1  0  0  0  0
 21 13  1  0  0  0  0
 22 21  1  0  0  0  0
 23 24  1  0  0  0  0
 23 25  1  0  0  0  0
 26 23  1  0  0  0  0
 27 32  1  0  0  0  0
 27 26  2  0  0  0  0
 28 27  1  0  0  0  0
 29 28  2  0  0  0  0
 29 30  1  0  0  0  0
 30 31  2  0  0  0  0
 31 26  1  0  0  0  0
 31 36  1  0  0  0  0
 33 28  1  0  0  0  0
 34 29  1  0  0  0  0
 35 30  1  0  0  0  0
 36 44  1  0  0  0  0
 37 36  1  0  0  0  0
 37 39  1  0  0  0  0
 38 37  1  0  0  0  0
 39 41  1  0  0  0  0
 40 39  1  0  0  0  0
 41 42  1  0  0  0  0
 41 43  1  0  0  0  0
 44 43  1  0  0  0  0
M  END
>  <minimizedAffinity>
-5.79674911

$$$$

 OpenBabel03252503483D

 44 47  0  0  1  0  0  0  0  0999 V2000
   36.6210   30.2020   38.5100 C   0  0  0  0  0  0  0  0  0  0  0  0
   35.8980   30.0240   39.6870 C   0  0  0  0  0  0  0  0  0  0  0  0
   34.7850   29.1890   39.6160 C   0  0  0  0  0  0  0  0  0  0  0  0
   34.4260   28.5830   38.4690 N   0  0  0  0  0  0  0  0  0  0  0  0
   35.1550   28.7810   37.3410 C   0  0  0  0  0  0  0  0  0  0  0  0
   36.2470   29.5850   37.3560 N   0  0  0  0  0  0  0  0  0  0  0  0
   37.4890   30.8430   38.5270 H   0  0  0  0  0  0  0  0  0  0  0  0
   34.1330   28.9780   40.4450 H   0  0  0  0  0  0  0  0  0  0  0  0
   35.7250   28.3690   34.9560 C   0  0  2  0  0  0  0  0  0  0  0  0
   34.7330   28.0960   36.1250 C   0  0  1  0  0  0  0  0  0  0  0  0
   34.8010   26.7440   36.1490 O   0  0  0  0  0  0  0  0  0  0  0  0
   34.7030   26.2910   34.8680 C   0  0  0  0  0  0  0  0  0  0  0  0
   35.0750   27.4290   33.9330 C   0  0  2  0  0  0  0  0  0  0  0  0
   35.6740   29.4230   34.6610 H   0  0  0  0  0  0  0  0  0  0  0  0
   33.7450   28.5120   35.8030 H   0  0  0  0  0  0  0  0  0  0  0  0
   35.3320   25.4170   34.6630 H   0  0  0  0  0  0  0  0  0  0  0  0
   33.6390   26.0060   34.7000 H   0  0  0  0  0  0  0  0  0  0  0  0
   34.1470   27.9130   33.6020 H   0  0  0  0  0  0  0  0  0  0  0  0
   36.9400   27.8760   35.2500 O   0  0  0  0  0  0  0  0  0  0  0  0
   37.1640   28.0400   36.1830 H   0  0  0  0  0  0  0  0  0  0  0  0
   35.9300   27.0680   32.9220 O   0  0  0  0  0  0  0  0  0  0  0  0
   36.8610   27.1820   33.2310 H   0  0  0  0  0  0  0  0  0  0  0  0
   36.2970   30.6730   40.9190 C   0  0  0  0  0  0  0  0  0  0  0  0
   36.8240   31.6390   40.6650 H   0  0  0  0  0  0  0  0  0  0  0  0
   35.4250   31.0040   41.5140 H   0  0  0  0  0  0  0  0  0  0  0  0
   37.2740   29.8510   41.6440 C   0  0  0  0  0  0  0  0  0  0  0  0
   36.9730   28.6890   42.3330 C   0  0  0  0  0  0  0  0  0  0  0  0
   37.9330   27.9650   43.0040 C   0  0  0  0  0  0  0  0  0  0  0  0
   39.2460   28.4150   42.9910 C   0  0  0  0  0  0  0  0  0  0  0  0
   39.5560   29.5880   42.2970 C   0  0  0  0  0  0  0  0  0  0  0  0
   38.5640   30.3190   41.6130 C   0  0  0  0  0  0  0  0  0  0  0  0
   35.9350   28.4000   42.3010 H   0  0  0  0  0  0  0  0  0  0  0  0
   37.6150   27.0500   43.5280 H   0  0  0  0  0  0  0  0  0  0  0  0
   39.9270   27.7970   43.5360 H   0  0  0  0  0  0  0  0  0  0  0  0
   40.6160   29.7860   42.3930 H   0  0  0  0  0  0  0  0  0  0  0  0
   39.1850   31.4070   40.9970 N   0  0  0  0  0  0  0  0  0  0  0  0
   40.2490   31.1090   40.0220 C   0  0  0  0  0  3  0  0  0  0  0  0
   40.4480   30.0360   39.9400 H   0  0  0  0  0  0  0  0  0  0  0  0
   39.9170   31.6830   38.6710 C   0  0  0  0  0  3  0  0  0  0  0  0
   40.9030   31.7400   38.1220 H   0  0  0  0  0  0  0  0  0  0  0  0
   39.4160   33.0150   38.7170 N   0  0  0  0  0  0  0  0  0  0  0  0
   40.1070   33.7670   38.6140 H   0  0  0  0  0  0  0  0  0  0  0  0
   38.4440   33.2680   39.7290 C   0  0  0  0  0  2  0  0  0  0  0  0
   38.9850   32.8610   41.1010 C   0  0  0  0  0  2  0  0  0  0  0  0
  1  7  1  0  0  0  0
  1  2  1  0  0  0  0
  2 23  1  0  0  0  0
  3  2  2  0  0  0  0
  3  8  1  0  0  0  0
  4  3  1  0  0  0  0
  5  6  1  0  0  0  0
  5  4  2  0  0  0  0
  6  1  2  0  0  0  0
  9 14  1  6  0  0  0
  9 19  1  0  0  0  0
  9 10  1  0  0  0  0
 10 15  1  6  0  0  0
 10 11  1  0  0  0  0
 10  5  1  0  0  0  0
 12 11  1  0  0  0  0
 13 18  1  6  0  0  0
 13 12  1  0  0  0  0
 13  9  1  0  0  0  0
 16 12  1  0  0  0  0
 17 12  1  0  0  0  0
 19 20  1  0  0  0  0
 21 22  1  0  0  0  0
 21 13  1  0  0  0  0
 23 25  1  0  0  0  0
 23 26  1  0  0  0  0
 24 23  1  0  0  0  0
 26 27  1  0  0  0  0
 27 28  2  0  0  0  0
 28 33  1  0  0  0  0
 29 28  1  0  0  0  0
 29 34  1  0  0  0  0
 30 35  1  0  0  0  0
 30 29  2  0  0  0  0
 31 26  2  0  0  0  0
 31 30  1  0  0  0  0
 32 27  1  0  0  0  0
 36 44  1  0  0  0  0
 36 31  1  0  0  0  0
 37 36  1  0  0  0  0
 38 37  1  0  0  0  0
 39 41  1  0  0  0  0
 39 37  1  0  0  0  0
 40 39  1  0  0  0  0
 41 43  1  0  0  0  0
 42 41  1  0  0  0  0
 43 44  1  0  0  0  0
M  END
>  <minimizedAffinity>
-5.67617941

$$$$

 OpenBabel03252503483D

 44 47  0  0  1  0  0  0  0  0999 V2000
   37.2230   30.6630   40.2980 C   0  0  0  0  0  0  0  0  0  0  0  0
   37.0140   29.6400   39.3760 C   0  0  0  0  0  0  0  0  0  0  0  0
   37.9640   29.5080   38.3650 C   0  0  0  0  0  0  0  0  0  0  0  0
   39.0300   30.3270   38.2840 N   0  0  0  0  0  0  0  0  0  0  0  0
   39.1990   31.3140   39.2010 C   0  0  0  0  0  0  0  0  0  0  0  0
   38.3030   31.4850   40.2040 N   0  0  0  0  0  0  0  0  0  0  0  0
   36.5070   30.7950   41.0950 H   0  0  0  0  0  0  0  0  0  0  0  0
   37.9160   28.7730   37.5820 H   0  0  0  0  0  0  0  0  0  0  0  0
   40.9080   32.1750   37.6130 C   0  0  2  0  0  0  0  0  0  0  0  0
   40.3730   32.1680   39.0770 C   0  0  1  0  0  0  0  0  0  0  0  0
   40.1630   33.4960   39.2330 O   0  0  0  0  0  0  0  0  0  0  0  0
   41.2570   34.1570   38.7630 C   0  0  0  0  0  0  0  0  0  0  0  0
   42.0020   33.2310   37.8170 C   0  0  2  0  0  0  0  0  0  0  0  0
   41.3070   31.1880   37.3560 H   0  0  0  0  0  0  0  0  0  0  0  0
   41.1940   31.7440   39.7090 H   0  0  0  0  0  0  0  0  0  0  0  0
   41.0160   35.0970   38.2530 H   0  0  0  0  0  0  0  0  0  0  0  0
   41.9050   34.3900   39.6400 H   0  0  0  0  0  0  0  0  0  0  0  0
   42.8080   32.7460   38.3830 H   0  0  0  0  0  0  0  0  0  0  0  0
   39.9870   32.6970   36.7840 O   0  0  0  0  0  0  0  0  0  0  0  0
   39.0940   32.3890   37.0200 H   0  0  0  0  0  0  0  0  0  0  0  0
   42.3960   33.8240   36.6440 O   0  0  0  0  0  0  0  0  0  0  0  0
   41.6760   33.7260   35.9750 H   0  0  0  0  0  0  0  0  0  0  0  0
   35.8700   28.7590   39.4770 C   0  0  0  0  0  0  0  0  0  0  0  0
   35.2050   29.1230   40.3150 H   0  0  0  0  0  0  0  0  0  0  0  0
   35.2180   28.8220   38.5850 H   0  0  0  0  0  0  0  0  0  0  0  0
   36.2910   27.4020   39.8490 C   0  0  0  0  0  0  0  0  0  0  0  0
   36.8310   27.0500   41.0730 C   0  0  0  0  0  0  0  0  0  0  0  0
   37.2170   25.7600   41.3600 C   0  0  0  0  0  0  0  0  0  0  0  0
   37.0620   24.7800   40.3890 C   0  0  0  0  0  0  0  0  0  0  0  0
   36.5180   25.1300   39.1500 C   0  0  0  0  0  0  0  0  0  0  0  0
   36.1250   26.4540   38.8700 C   0  0  0  0  0  0  0  0  0  0  0  0
   36.9230   27.8610   41.7770 H   0  0  0  0  0  0  0  0  0  0  0  0
   37.6380   25.5580   42.3570 H   0  0  0  0  0  0  0  0  0  0  0  0
   37.3870   23.8070   40.6910 H   0  0  0  0  0  0  0  0  0  0  0  0
   36.4710   24.2500   38.5230 H   0  0  0  0  0  0  0  0  0  0  0  0
   35.5930   26.4770   37.5800 N   0  0  0  0  0  0  0  0  0  0  0  0
   36.5490   26.5430   36.4600 C   0  0  0  0  0  3  0  0  0  0  0  0
   37.5860   26.6110   36.8030 H   0  0  0  0  0  0  0  0  0  0  0  0
   36.3810   25.3650   35.5400 C   0  0  0  0  0  3  0  0  0  0  0  0
   36.8560   25.6800   34.5640 H   0  0  0  0  0  0  0  0  0  0  0  0
   35.0230   25.0610   35.2330 N   0  0  0  0  0  0  0  0  0  0  0  0
   34.6390   25.4900   34.3840 H   0  0  0  0  0  0  0  0  0  0  0  0
   34.1270   25.0860   36.3410 C   0  0  0  0  0  2  0  0  0  0  0  0
   34.2140   26.4300   37.0670 C   0  0  0  0  0  2  0  0  0  0  0  0
  1  7  1  0  0  0  0
  2 23  1  0  0  0  0
  2  1  2  0  0  0  0
  3  2  1  0  0  0  0
  4  3  2  0  0  0  0
  4  5  1  0  0  0  0
  5  6  2  0  0  0  0
  6  1  1  0  0  0  0
  8  3  1  0  0  0  0
  9 14  1  6  0  0  0
  9 13  1  0  0  0  0
  9 10  1  0  0  0  0
 10  5  1  0  0  0  0
 10 11  1  0  0  0  0
 10 15  1  1  0  0  0
 12 11  1  0  0  0  0
 12 17  1  0  0  0  0
 13 18  1  1  0  0  0
 13 12  1  0  0  0  0
 16 12  1  0  0  0  0
 19 20  1  0  0  0  0
 19  9  1  0  0  0  0
 21 13  1  0  0  0  0
 22 21  1  0  0  0  0
 23 26  1  0  0  0  0
 23 24  1  0  0  0  0
 25 23  1  0  0  0  0
 26 27  1  0  0  0  0
 27 28  2  0  0  0  0
 27 32  1  0  0  0  0
 28 33  1  0  0  0  0
 29 34  1  0  0  0  0
 29 28  1  0  0  0  0
 30 29  2  0  0  0  0
 31 30  1  0  0  0  0
 31 26  2  0  0  0  0
 35 30  1  0  0  0  0
 36 31  1  0  0  0  0
 37 38  1  0  0  0  0
 37 36  1  0  0  0  0
 39 37  1  0  0  0  0
 40 39  1  0  0  0  0
 41 39  1  0  0  0  0
 41 43  1  0  0  0  0
 42 41  1  0  0  0  0
 43 44  1  0  0  0  0
 44 36  1  0  0  0  0
M  END
>  <minimizedAffinity>
-5.6632781

$$$$
