
 OpenBabel03252506163D

 23 24  0  0  0  0  0  0  0  0999 V2000
   45.0610   34.7760   44.4300 C   0  0  0  0  0  0  0  0  0  0  0  0
   45.0000   34.0420   43.2290 C   0  0  0  0  0  0  0  0  0  0  0  0
   45.3170   32.6850   43.2990 C   0  0  0  0  0  0  0  0  0  0  0  0
   45.6650   32.1390   44.5010 N   0  0  0  0  0  0  0  0  0  0  0  0
   45.7110   32.8830   45.6260 C   0  0  0  0  0  0  0  0  0  0  0  0
   45.4050   34.1980   45.5740 N   0  0  0  0  0  0  0  0  0  0  0  0
   44.7240   34.4760   42.2860 H   0  0  0  0  0  0  0  0  0  0  0  0
   45.3030   32.0300   42.4400 H   0  0  0  0  0  0  0  0  0  0  0  0
   46.0820   32.2310   46.8240 N   0  0  0  0  0  0  0  0  0  0  0  0
   45.3140   32.4920   48.0150 C   0  0  0  0  0  0  0  0  0  0  0  0
   44.2240   32.3300   47.8750 H   0  0  0  0  0  0  0  0  0  0  0  0
   45.8490   31.7880   49.2280 C   0  0  0  0  0  0  0  0  0  0  0  0
   45.0700   31.8500   50.0170 H   0  0  0  0  0  0  0  0  0  0  0  0
   46.1310   30.3950   49.0180 N   0  0  0  0  0  0  0  0  0  0  0  0
   46.8320   30.0590   49.7130 H   0  0  0  0  0  0  0  0  0  0  0  0
   46.5960   30.0860   47.6910 C   0  0  0  0  0  0  0  0  0  0  0  0
   47.1710   31.3150   46.9770 C   0  0  0  0  0  0  0  0  0  0  0  0
   44.7300   36.2070   44.3830 C   0  0  0  0  0  0  0  0  0  0  0  0
   45.3520   36.9650   43.5060 C   0  0  0  0  0  0  0  0  0  0  0  0
   45.0910   38.4200   43.3790 C   0  0  0  0  0  0  0  0  0  0  0  0
   45.8930   39.0480   43.8470 H   0  0  0  0  0  0  0  0  0  0  0  0
   44.9720   38.6380   42.2900 H   0  0  0  0  0  0  0  0  0  0  0  0
   44.0840   38.6750   43.8180 H   0  0  0  0  0  0  0  0  0  0  0  0
  1  6  1  0  0  0  0
  2  3  1  0  0  0  0
  2  1  2  0  0  0  0
  3  4  2  0  0  0  0
  4  5  1  0  0  0  0
  5  9  1  0  0  0  0
  6  5  2  0  0  0  0
  7  2  1  0  0  0  0
  8  3  1  0  0  0  0
  9 17  1  0  0  0  0
  9 10  1  0  0  0  0
 10 12  1  0  0  0  0
 11 10  1  0  0  0  0
 12 13  1  0  0  0  0
 14 12  1  0  0  0  0
 14 15  1  0  0  0  0
 16 14  1  0  0  0  0
 17 16  1  0  0  0  0
 18  1  1  0  0  0  0
 19 18  2  0  0  0  0
 20 19  1  0  0  0  0
 20 23  1  0  0  0  0
 20 21  1  0  0  0  0
 22 20  1  0  0  0  0
M  END
>  <minimizedAffinity>
-4.21697187

>  <minimizedRMSD>
2.55632019

$$$$
