
 OpenBabel03252502123D

 37 40  0  0  0  0  0  0  0  0999 V2000
   40.8330   33.0360   41.4350 Cl  0  0  0  0  0  0  0  0  0  0  0  0
   41.7760   32.6100   40.0290 C   0  0  0  0  0  0  0  0  0  0  0  0
   43.0670   32.9990   39.8830 C   0  0  0  0  0  0  0  0  0  0  0  0
   43.7020   32.6030   38.7400 C   0  0  0  0  0  0  0  0  0  0  0  0
   43.1140   31.8580   37.7690 C   0  0  0  0  0  0  0  0  0  0  0  0
   41.8100   31.4660   37.9190 C   0  0  0  0  0  0  0  0  0  0  0  0
   41.1460   31.8490   39.0580 C   0  0  0  0  0  0  0  0  0  0  0  0
   43.6900   31.5870   36.8930 H   0  0  0  0  0  0  0  0  0  0  0  0
   41.3700   30.8780   37.1380 H   0  0  0  0  0  0  0  0  0  0  0  0
   40.1130   31.5210   39.1450 H   0  0  0  0  0  0  0  0  0  0  0  0
   45.1140   33.0170   38.5570 C   0  0  0  0  0  0  0  0  0  0  0  0
   45.5840   33.1420   37.2550 C   0  0  0  0  0  0  0  0  0  0  0  0
   46.9040   33.5310   37.2200 C   0  0  0  0  0  0  0  0  0  0  0  0
   47.7300   33.7860   38.2670 C   0  0  0  0  0  0  0  0  0  0  0  0
   47.1640   33.6310   39.5210 C   0  0  0  0  0  0  0  0  0  0  0  0
   45.8820   33.2540   39.6210 N   0  0  0  0  0  0  0  0  0  0  0  0
   44.9890   32.9590   36.3810 H   0  0  0  0  0  0  0  0  0  0  0  0
   47.3620   33.6560   36.2070 H   0  0  0  0  0  0  0  0  0  0  0  0
   48.7540   34.0860   38.1390 H   0  0  0  0  0  0  0  0  0  0  0  0
   47.9470   33.8740   40.6830 N   0  0  0  0  0  0  0  0  0  0  0  0
   48.0220   35.1680   41.2920 C   0  0  0  0  0  0  0  0  0  0  0  0
   47.1290   35.3530   41.9180 H   0  0  0  0  0  0  0  0  0  0  0  0
   49.2170   35.1880   42.2150 C   0  0  0  0  0  0  0  0  0  0  0  0
   50.1440   35.1780   41.6040 H   0  0  0  0  0  0  0  0  0  0  0  0
   49.2360   34.1420   43.1890 N   0  0  0  0  0  0  0  0  0  0  0  0
   50.2230   33.9270   43.4640 H   0  0  0  0  0  0  0  0  0  0  0  0
   48.6090   32.9170   42.7910 C   0  0  0  0  0  0  0  0  0  0  0  0
   48.7010   32.7930   41.2870 C   0  0  0  0  0  0  0  0  0  0  0  0
   44.2810   35.9170   41.9620 C   0  0  0  0  0  0  0  0  0  0  0  0
   43.6920   35.1740   40.9400 C   0  0  0  0  0  0  0  0  0  0  0  0
   43.6740   33.7950   40.9340 C   0  0  0  0  0  0  0  0  0  0  0  0
   44.2790   33.1980   42.0040 N   0  0  0  0  0  0  0  0  0  0  0  0
   44.8480   33.9080   42.9900 C   0  0  0  0  0  0  0  0  0  0  0  0
   44.8580   35.2530   42.9850 N   0  0  0  0  0  0  0  0  0  0  0  0
   44.2290   36.9870   41.8510 H   0  0  0  0  0  0  0  0  0  0  0  0
   43.2130   35.6560   40.0920 H   0  0  0  0  0  0  0  0  0  0  0  0
   45.2980   33.3490   43.7890 H   0  0  0  0  0  0  0  0  0  0  0  0
  2  1  1  0  0  0  0
  3  2  1  0  0  0  0
  3 31  1  0  0  0  0
  4  3  2  0  0  0  0
  5  6  2  0  0  0  0
  5  4  1  0  0  0  0
  6  7  1  0  0  0  0
  7 10  1  0  0  0  0
  7  2  2  0  0  0  0
  8  5  1  0  0  0  0
  9  6  1  0  0  0  0
 11  4  1  0  0  0  0
 11 16  1  0  0  0  0
 12 11  2  0  0  0  0
 13 12  1  0  0  0  0
 13 14  2  0  0  0  0
 14 15  1  0  0  0  0
 15 16  2  0  0  0  0
 15 20  1  0  0  0  0
 17 12  1  0  0  0  0
 18 13  1  0  0  0  0
 19 14  1  0  0  0  0
 20 28  1  0  0  0  0
 20 21  1  0  0  0  0
 21 22  1  0  0  0  0
 21 23  1  0  0  0  0
 23 25  1  0  0  0  0
 24 23  1  0  0  0  0
 25 26  1  0  0  0  0
 27 25  1  0  0  0  0
 28 27  1  0  0  0  0
 29 34  1  0  0  0  0
 30 29  2  0  0  0  0
 31 30  1  0  0  0  0
 31 32  2  0  0  0  0
 32 33  1  0  0  0  0
 33 37  1  0  0  0  0
 34 33  2  0  0  0  0
 35 29  1  0  0  0  0
 36 30  1  0  0  0  0
M  END
>  <minimizedAffinity>
-5.60783577

>  <minimizedRMSD>
3.95093203

$$$$
