
 OpenBabel03252504403D

 45 48  0  0  0  0  0  0  0  0999 V2000
   46.3720   32.1760   47.8240 C   0  0  0  0  0  0  0  0  0  0  0  0
   45.9040   31.8280   49.0560 C   0  0  0  0  0  0  0  0  0  0  0  0
   46.8820   31.1290   49.6410 N   0  0  0  0  0  0  0  0  0  0  0  0
   47.9430   31.0200   48.8370 C   0  0  0  0  0  0  0  0  0  0  0  0
   47.6120   31.6820   47.6970 N   0  0  0  0  0  0  0  0  0  0  0  0
   49.2120   30.3780   49.0130 N   0  0  0  0  0  0  0  0  0  0  0  0
   50.2980   31.1780   49.6180 C   0  0  0  0  0  0  0  0  0  0  0  0
   50.4010   30.6500   51.0480 C   0  0  0  0  0  0  0  0  0  0  0  0
   50.4270   29.1360   51.0540 C   0  0  0  0  0  0  0  0  0  0  0  0
   50.7410   28.6250   49.6650 C   0  0  0  0  0  0  0  0  0  0  0  0
   49.6570   29.0560   48.7040 C   0  0  0  0  0  0  0  0  0  0  0  0
   44.9600   32.0460   49.5010 H   0  0  0  0  0  0  0  0  0  0  0  0
   46.9300   30.6810   50.5870 H   0  0  0  0  0  0  0  0  0  0  0  0
   51.2350   31.0680   49.0560 H   0  0  0  0  0  0  0  0  0  0  0  0
   50.0250   32.2470   49.6460 H   0  0  0  0  0  0  0  0  0  0  0  0
   49.5080   30.9810   51.5860 H   0  0  0  0  0  0  0  0  0  0  0  0
   51.3210   31.0380   51.5300 H   0  0  0  0  0  0  0  0  0  0  0  0
   49.4400   28.6960   51.3230 H   0  0  0  0  0  0  0  0  0  0  0  0
   51.2280   28.7620   51.7260 H   0  0  0  0  0  0  0  0  0  0  0  0
   50.8620   27.5270   49.6880 H   0  0  0  0  0  0  0  0  0  0  0  0
   51.6910   29.0540   49.2840 H   0  0  0  0  0  0  0  0  0  0  0  0
   48.7880   28.3550   48.8730 H   0  0  0  0  0  0  0  0  0  0  0  0
   49.9800   28.9050   47.6530 H   0  0  0  0  0  0  0  0  0  0  0  0
   45.6420   32.9670   46.7880 C   0  0  0  0  0  0  0  0  0  0  0  0
   44.6210   32.6160   46.6030 H   0  0  0  0  0  0  0  0  0  0  0  0
   45.5440   33.9950   47.2340 H   0  0  0  0  0  0  0  0  0  0  0  0
   46.1390   33.9440   44.5850 C   0  0  0  0  0  0  0  0  0  0  0  0
   46.4550   33.1290   45.5670 C   0  0  0  0  0  0  0  0  0  0  0  0
   47.0410   34.0070   43.4260 C   0  0  0  0  0  0  0  0  0  0  0  0
   46.8960   34.9830   42.4220 C   0  0  0  0  0  0  0  0  0  0  0  0
   47.7900   34.9650   41.3710 C   0  0  0  0  0  0  0  0  0  0  0  0
   48.7550   34.0320   41.3380 N   0  0  0  0  0  0  0  0  0  0  0  0
   48.8770   33.1060   42.3090 C   0  0  0  0  0  0  0  0  0  0  0  0
   48.0390   33.1040   43.3170 N   0  0  0  0  0  0  0  0  0  0  0  0
   46.0830   35.6850   42.5510 H   0  0  0  0  0  0  0  0  0  0  0  0
   47.6650   35.7220   40.6060 H   0  0  0  0  0  0  0  0  0  0  0  0
   49.9260   32.1530   42.2010 N   0  0  0  0  0  0  0  0  0  0  0  0
   51.2000   32.4010   41.5510 C   0  0  0  0  0  0  0  0  0  0  0  0
   52.0310   32.1110   42.2240 H   0  0  0  0  0  0  0  0  0  0  0  0
   51.2200   31.4760   40.3370 C   0  0  0  0  0  0  0  0  0  0  0  0
   50.2470   31.6920   39.8110 H   0  0  0  0  0  0  0  0  0  0  0  0
   51.1650   30.1210   40.7940 N   0  0  0  0  0  0  0  0  0  0  0  0
   50.3890   29.5870   40.3220 H   0  0  0  0  0  0  0  0  0  0  0  0
   50.9710   29.9910   42.2160 C   0  0  0  0  0  0  0  0  0  0  0  0
   49.8110   30.8120   42.7440 C   0  0  0  0  0  0  0  0  0  0  0  0
  1  2  2  0  0  0  0
  2 12  1  0  0  0  0
  2  3  1  0  0  0  0
  3 13  1  0  0  0  0
  4  6  1  0  0  0  0
  4  3  1  0  0  0  0
  5  1  1  0  0  0  0
  5  4  2  0  0  0  0
  6  7  1  0  0  0  0
  7 15  1  0  0  0  0
  7  8  1  0  0  0  0
  8  9  1  0  0  0  0
  8 17  1  0  0  0  0
  8 16  1  0  0  0  0
  9 18  1  0  0  0  0
  9 19  1  0  0  0  0
 10 20  1  0  0  0  0
 10  9  1  0  0  0  0
 11 22  1  0  0  0  0
 11  6  1  0  0  0  0
 11 10  1  0  0  0  0
 14  7  1  0  0  0  0
 21 10  1  0  0  0  0
 23 11  1  0  0  0  0
 24 26  1  0  0  0  0
 24  1  1  0  0  0  0
 25 24  1  0  0  0  0
 27 28  2  0  0  0  0
 28 24  1  0  0  0  0
 29 27  1  0  0  0  0
 30 35  1  0  0  0  0
 30 29  2  0  0  0  0
 31 30  1  0  0  0  0
 32 31  2  0  0  0  0
 32 33  1  0  0  0  0
 33 34  2  0  0  0  0
 34 29  1  0  0  0  0
 36 31  1  0  0  0  0
 37 33  1  0  0  0  0
 37 45  1  0  0  0  0
 38 37  1  0  0  0  0
 38 39  1  0  0  0  0
 40 42  1  0  0  0  0
 40 38  1  0  0  0  0
 41 40  1  0  0  0  0
 42 44  1  0  0  0  0
 43 42  1  0  0  0  0
 44 45  1  0  0  0  0
M  END
>  <minimizedAffinity>
-6.28871536

>  <minimizedRMSD>
0.366726369

$$$$
