
 OpenBabel03252508433D

 31 33  0  0  0  0  0  0  0  0999 V2000
   44.7560   34.0330   41.0310 C   0  0  0  0  0  0  0  0  0  0  0  0
   45.9570   33.7780   40.4170 C   0  0  0  0  0  0  0  0  0  0  0  0
   45.9990   33.2590   39.1370 C   0  0  0  0  0  0  0  0  0  0  0  0
   44.8060   33.0090   38.5100 C   0  0  0  0  0  0  0  0  0  0  0  0
   43.5790   33.2500   39.0840 C   0  0  0  0  0  0  0  0  0  0  0  0
   43.6070   33.7730   40.3760 C   0  0  0  0  0  0  0  0  0  0  0  0
   46.9550   33.0640   38.6680 H   0  0  0  0  0  0  0  0  0  0  0  0
   44.7710   32.6000   37.5000 H   0  0  0  0  0  0  0  0  0  0  0  0
   42.6120   33.0890   38.6800 H   0  0  0  0  0  0  0  0  0  0  0  0
   42.6960   33.9970   40.9180 H   0  0  0  0  0  0  0  0  0  0  0  0
   44.7830   36.3670   44.0180 C   0  0  0  0  0  0  0  0  0  0  0  0
   44.7100   35.9260   42.6830 C   0  0  0  0  0  0  0  0  0  0  0  0
   44.8190   34.5800   42.3800 C   0  0  0  0  0  0  0  0  0  0  0  0
   44.9950   33.7470   43.4230 N   0  0  0  0  0  0  0  0  0  0  0  0
   45.0670   34.1530   44.7100 C   0  0  0  0  0  0  0  0  0  0  0  0
   44.9600   35.4640   45.0040 N   0  0  0  0  0  0  0  0  0  0  0  0
   44.6960   37.4220   44.2310 H   0  0  0  0  0  0  0  0  0  0  0  0
   44.5720   36.6030   41.8770 H   0  0  0  0  0  0  0  0  0  0  0  0
   45.2080   33.4520   45.5310 H   0  0  0  0  0  0  0  0  0  0  0  0
   47.2590   34.0580   41.1220 C   0  0  0  0  0  0  0  0  0  0  0  0
   47.1220   34.8220   41.9190 H   0  0  0  0  0  0  0  0  0  0  0  0
   48.0120   34.3900   40.3670 H   0  0  0  0  0  0  0  0  0  0  0  0
   47.6720   32.8510   41.7560 N   0  0  0  0  0  0  0  0  0  0  0  0
   48.4120   32.9950   42.9700 C   0  0  0  0  0  3  0  0  0  0  0  0
   47.8840   33.4730   43.8020 H   0  0  0  0  0  0  0  0  0  0  0  0
   49.7120   33.7000   42.6520 C   0  0  0  0  0  3  0  0  0  0  0  0
   49.5200   34.7870   42.7700 H   0  0  0  0  0  0  0  0  0  0  0  0
   50.1440   33.4880   41.2960 N   0  0  0  0  0  0  0  0  0  0  0  0
   51.2050   33.4540   41.3170 H   0  0  0  0  0  0  0  0  0  0  0  0
   49.7380   32.2270   40.7450 C   0  0  0  0  0  2  0  0  0  0  0  0
   48.2990   31.8760   40.9300 C   0  0  0  0  0  2  0  0  0  0  0  0
  1 13  1  0  0  0  0
  2  1  1  0  0  0  0
  2 20  1  0  0  0  0
  3  2  2  0  0  0  0
  4  5  2  0  0  0  0
  4  3  1  0  0  0  0
  5  6  1  0  0  0  0
  6 10  1  0  0  0  0
  6  1  2  0  0  0  0
  7  3  1  0  0  0  0
  8  4  1  0  0  0  0
  9  5  1  0  0  0  0
 11 17  1  0  0  0  0
 11 16  1  0  0  0  0
 12 11  2  0  0  0  0
 13 12  1  0  0  0  0
 13 14  2  0  0  0  0
 14 15  1  0  0  0  0
 15 16  2  0  0  0  0
 15 19  1  0  0  0  0
 18 12  1  0  0  0  0
 20 23  1  0  0  0  0
 20 21  1  0  0  0  0
 22 20  1  0  0  0  0
 23 24  1  0  0  0  0
 24 25  1  0  0  0  0
 26 27  1  0  0  0  0
 26 24  1  0  0  0  0
 28 29  1  0  0  0  0
 28 26  1  0  0  0  0
 30 31  1  0  0  0  0
 30 28  1  0  0  0  0
 31 23  1  0  0  0  0
M  END
>  <minimizedAffinity>
-4.35656548

>  <minimizedRMSD>
2.16378903

$$$$
