
 OpenBabel03252508203D

 34 36  0  0  0  0  0  0  0  0999 V2000
   42.1970   34.4370   41.0190 C   0  0  0  0  0  0  0  0  0  0  0  0
   41.5380   35.5580   41.5180 C   0  0  0  0  0  0  0  0  0  0  0  0
   40.4470   36.1310   40.9280 C   0  0  0  0  0  0  0  0  0  0  0  0
   39.9950   35.5300   39.7600 C   0  0  0  0  0  0  0  0  0  0  0  0
   40.6080   34.4220   39.2260 C   0  0  0  0  0  0  0  0  0  0  0  0
   41.6970   33.8720   39.8380 C   0  0  0  0  0  0  0  0  0  0  0  0
   41.9970   35.9180   42.4280 H   0  0  0  0  0  0  0  0  0  0  0  0
   39.9830   37.0130   41.3810 H   0  0  0  0  0  0  0  0  0  0  0  0
   39.1240   35.9790   39.2820 H   0  0  0  0  0  0  0  0  0  0  0  0
   40.1700   34.0400   38.3150 H   0  0  0  0  0  0  0  0  0  0  0  0
   42.2500   32.7400   39.2090 N   0  0  0  0  0  0  0  0  0  0  0  0
   43.3290   32.8150   38.2410 C   0  0  0  0  0  3  0  0  0  0  0  0
   44.1200   33.5220   38.5720 H   0  0  0  0  0  0  0  0  0  0  0  0
   44.0080   31.4570   38.1040 C   0  0  0  0  0  3  0  0  0  0  0  0
   44.9860   31.6280   37.6440 H   0  0  0  0  0  0  0  0  0  0  0  0
   44.1640   30.7530   39.3310 N   0  0  0  0  0  0  0  0  0  0  0  0
   44.9820   31.0750   39.8730 H   0  0  0  0  0  0  0  0  0  0  0  0
   42.9560   30.5720   40.0740 C   0  0  0  0  0  2  0  0  0  0  0  0
   41.8310   31.3580   39.4300 C   0  0  0  0  0  2  0  0  0  0  0  0
   43.3850   33.8040   41.6340 C   0  0  0  0  0  0  0  0  0  0  0  0
   43.0810   33.1300   42.4360 H   0  0  0  0  0  0  0  0  0  0  0  0
   44.0130   33.3960   40.8430 H   0  0  0  0  0  0  0  0  0  0  0  0
   44.2320   34.8770   42.3280 C   0  0  0  0  0  0  0  0  0  0  0  0
   43.8100   35.8640   42.0460 H   0  0  0  0  0  0  0  0  0  0  0  0
   44.1970   34.7070   43.4120 H   0  0  0  0  0  0  0  0  0  0  0  0
   47.1610   33.9820   40.1420 C   0  0  0  0  0  0  0  0  0  0  0  0
   45.8340   34.0890   40.6260 C   0  0  0  0  0  0  0  0  0  0  0  0
   45.6140   34.7640   41.8190 C   0  0  0  0  0  0  0  0  0  0  0  0
   46.7140   35.2950   42.4680 N   0  0  0  0  0  0  0  0  0  0  0  0
   47.9520   35.1690   41.9740 C   0  0  0  0  0  0  0  0  0  0  0  0
   48.1780   34.5220   40.8250 N   0  0  0  0  0  0  0  0  0  0  0  0
   47.3770   33.4650   39.2180 H   0  0  0  0  0  0  0  0  0  0  0  0
   45.0660   33.6330   40.0280 H   0  0  0  0  0  0  0  0  0  0  0  0
   48.6970   35.6470   42.6130 H   0  0  0  0  0  0  0  0  0  0  0  0
  1  2  1  0  0  0  0
  1 20  1  0  0  0  0
  2  7  1  0  0  0  0
  3  8  1  0  0  0  0
  3  2  2  0  0  0  0
  4  3  1  0  0  0  0
  5  4  2  0  0  0  0
  5  6  1  0  0  0  0
  6  1  2  0  0  0  0
  9  4  1  0  0  0  0
 10  5  1  0  0  0  0
 11 19  1  0  0  0  0
 11  6  1  0  0  0  0
 12 13  1  0  0  0  0
 12 11  1  0  0  0  0
 14 12  1  0  0  0  0
 14 16  1  0  0  0  0
 15 14  1  0  0  0  0
 16 17  1  0  0  0  0
 16 18  1  0  0  0  0
 19 18  1  0  0  0  0
 20 23  1  0  0  0  0
 20 21  1  0  0  0  0
 22 20  1  0  0  0  0
 23 25  1  0  0  0  0
 24 23  1  0  0  0  0
 26 27  2  0  0  0  0
 26 31  1  0  0  0  0
 27 28  1  0  0  0  0
 28 23  1  0  0  0  0
 28 29  2  0  0  0  0
 30 29  1  0  0  0  0
 30 34  1  0  0  0  0
 31 30  2  0  0  0  0
 32 26  1  0  0  0  0
 33 27  1  0  0  0  0
M  END
>  <minimizedAffinity>
-4.57406807

>  <minimizedRMSD>
6.75211096

$$$$
