
 OpenBabel03252508203D

 34 36  0  0  0  0  0  0  0  0999 V2000
   45.5760   34.4780   41.3520 C   0  0  0  0  0  0  0  0  0  0  0  0
   46.2480   35.1790   42.3490 C   0  0  0  0  0  0  0  0  0  0  0  0
   45.6290   35.8510   43.3650 C   0  0  0  0  0  0  0  0  0  0  0  0
   44.2400   35.8100   43.3690 C   0  0  0  0  0  0  0  0  0  0  0  0
   43.5280   35.1320   42.4090 C   0  0  0  0  0  0  0  0  0  0  0  0
   44.1750   34.4700   41.4060 C   0  0  0  0  0  0  0  0  0  0  0  0
   47.3200   35.1260   42.2210 H   0  0  0  0  0  0  0  0  0  0  0  0
   46.2270   36.3800   44.1140 H   0  0  0  0  0  0  0  0  0  0  0  0
   43.7350   36.3420   44.1750 H   0  0  0  0  0  0  0  0  0  0  0  0
   42.4530   35.1680   42.5130 H   0  0  0  0  0  0  0  0  0  0  0  0
   43.3530   33.8080   40.4750 N   0  0  0  0  0  0  0  0  0  0  0  0
   42.8670   34.4340   39.2580 C   0  0  0  0  0  3  0  0  0  0  0  0
   43.6690   35.0120   38.7530 H   0  0  0  0  0  0  0  0  0  0  0  0
   42.4230   33.3700   38.2610 C   0  0  0  0  0  3  0  0  0  0  0  0
   42.3840   33.8440   37.2760 H   0  0  0  0  0  0  0  0  0  0  0  0
   43.2620   32.2220   38.2170 N   0  0  0  0  0  0  0  0  0  0  0  0
   44.1060   32.3690   37.6380 H   0  0  0  0  0  0  0  0  0  0  0  0
   43.4730   31.5860   39.4780 C   0  0  0  0  0  2  0  0  0  0  0  0
   42.8800   32.4310   40.5870 C   0  0  0  0  0  2  0  0  0  0  0  0
   46.2240   33.7510   40.2380 C   0  0  0  0  0  0  0  0  0  0  0  0
   46.3520   32.6990   40.4980 H   0  0  0  0  0  0  0  0  0  0  0  0
   45.6940   33.9810   39.3140 H   0  0  0  0  0  0  0  0  0  0  0  0
   47.6500   34.2810   40.0450 C   0  0  0  0  0  0  0  0  0  0  0  0
   47.5730   35.3700   39.8470 H   0  0  0  0  0  0  0  0  0  0  0  0
   48.2310   34.0650   40.9510 H   0  0  0  0  0  0  0  0  0  0  0  0
   48.5510   33.4720   36.4820 C   0  0  0  0  0  0  0  0  0  0  0  0
   47.9920   34.1280   37.6070 C   0  0  0  0  0  0  0  0  0  0  0  0
   48.2310   33.6010   38.8690 C   0  0  0  0  0  0  0  0  0  0  0  0
   49.0060   32.4590   38.9520 N   0  0  0  0  0  0  0  0  0  0  0  0
   49.5150   31.8710   37.8610 C   0  0  0  0  0  0  0  0  0  0  0  0
   49.2930   32.3690   36.6390 N   0  0  0  0  0  0  0  0  0  0  0  0
   48.3900   33.8480   35.4810 H   0  0  0  0  0  0  0  0  0  0  0  0
   47.4080   35.0070   37.4090 H   0  0  0  0  0  0  0  0  0  0  0  0
   50.0990   30.9840   38.1100 H   0  0  0  0  0  0  0  0  0  0  0  0
  1  6  2  0  0  0  0
  1  2  1  0  0  0  0
  2  3  2  0  0  0  0
  3  4  1  0  0  0  0
  3  8  1  0  0  0  0
  4  9  1  0  0  0  0
  5 10  1  0  0  0  0
  5  4  2  0  0  0  0
  6  5  1  0  0  0  0
  7  2  1  0  0  0  0
 11 19  1  0  0  0  0
 11  6  1  0  0  0  0
 12 11  1  0  0  0  0
 13 12  1  0  0  0  0
 14 12  1  0  0  0  0
 15 14  1  0  0  0  0
 16 14  1  0  0  0  0
 16 18  1  0  0  0  0
 17 16  1  0  0  0  0
 18 19  1  0  0  0  0
 20 21  1  0  0  0  0
 20  1  1  0  0  0  0
 22 20  1  0  0  0  0
 23 20  1  0  0  0  0
 23 25  1  0  0  0  0
 24 23  1  0  0  0  0
 26 31  2  0  0  0  0
 26 27  1  0  0  0  0
 27 28  2  0  0  0  0
 28 29  1  0  0  0  0
 28 23  1  0  0  0  0
 30 34  1  0  0  0  0
 30 29  2  0  0  0  0
 31 30  1  0  0  0  0
 32 26  1  0  0  0  0
 33 27  1  0  0  0  0
M  END
>  <minimizedAffinity>
-4.27757263

>  <minimizedRMSD>
6.43869495

$$$$
