
 OpenBabel03242523143D

 25 27  0  0  0  0  0  0  0  0999 V2000
   46.1670   34.4020   43.5970 C   0  0  0  0  0  0  0  0  0  0  0  0
   45.6550   34.0600   44.8550 C   0  0  0  0  0  0  0  0  0  0  0  0
   44.7840   34.9360   45.5030 C   0  0  0  0  0  0  0  0  0  0  0  0
   44.4680   36.1140   44.8620 N   0  0  0  0  0  0  0  0  0  0  0  0
   44.9800   36.4010   43.6660 C   0  0  0  0  0  0  0  0  0  0  0  0
   45.8340   35.5550   43.0120 N   0  0  0  0  0  0  0  0  0  0  0  0
   44.4340   34.6120   46.4500 H   0  0  0  0  0  0  0  0  0  0  0  0
   44.5730   37.3750   43.3970 H   0  0  0  0  0  0  0  0  0  0  0  0
   47.0230   33.8160   42.6310 N   0  0  0  0  0  0  0  0  0  0  0  0
   47.0000   33.2990   41.3020 C   0  0  0  0  0  0  0  0  0  0  0  0
   47.1470   32.1790   41.2920 H   0  0  0  0  0  0  0  0  0  0  0  0
   48.1200   33.8670   40.4870 C   0  0  0  0  0  0  0  0  0  0  0  0
   48.0680   34.9550   40.3150 H   0  0  0  0  0  0  0  0  0  0  0  0
   49.4430   33.6090   41.0600 N   0  0  0  0  0  0  0  0  0  0  0  0
   49.4860   32.5870   41.2670 H   0  0  0  0  0  0  0  0  0  0  0  0
   49.4440   34.2940   42.3470 C   0  0  0  0  0  0  0  0  0  0  0  0
   48.3850   33.6620   43.1810 C   0  0  0  0  0  0  0  0  0  0  0  0
   46.0850   32.8110   45.5540 C   0  0  0  0  0  0  0  0  0  0  0  0
   47.0110   32.8170   46.6350 C   0  0  0  0  0  0  0  0  0  0  0  0
   45.5710   32.5920   47.0020 C   0  0  0  0  0  0  0  0  0  0  0  0
   45.6960   31.8840   45.0300 H   0  0  0  0  0  0  0  0  0  0  0  0
   47.3980   33.6480   47.2520 H   0  0  0  0  0  0  0  0  0  0  0  0
   47.6530   31.8880   46.8390 H   0  0  0  0  0  0  0  0  0  0  0  0
   45.2190   31.6030   47.2900 H   0  0  0  0  0  0  0  0  0  0  0  0
   44.9400   33.4320   47.3500 H   0  0  0  0  0  0  0  0  0  0  0  0
  1  2  1  0  0  0  0
  2  3  2  0  0  0  0
  2 18  1  0  0  0  0
  3  7  1  0  0  0  0
  4  3  1  0  0  0  0
  5  4  2  0  0  0  0
  6  1  2  0  0  0  0
  6  5  1  0  0  0  0
  8  5  1  0  0  0  0
  9 17  1  0  0  0  0
  9  1  1  0  0  0  0
 10  9  1  0  0  0  0
 11 10  1  0  0  0  0
 12 14  1  0  0  0  0
 12 10  1  0  0  0  0
 13 12  1  0  0  0  0
 14 15  1  0  0  0  0
 14 16  1  0  0  0  0
 16 17  1  0  0  0  0
 18 19  1  0  0  0  0
 18 20  1  0  0  0  0
 19 23  1  0  0  0  0
 19 20  1  0  0  0  0
 19 22  1  0  0  0  0
 20 24  1  0  0  0  0
 20 25  1  0  0  0  0
 21 18  1  0  0  0  0
M  END
>  <minimizedAffinity>
-4.7840395

>  <minimizedRMSD>
4.40336752

$$$$
