
 OpenBabel03242520143D

 25 27  0  0  0  0  0  0  0  0999 V2000
   46.1160   33.7090   40.3490 C   0  0  0  0  0  0  0  0  0  0  0  0
   44.7810   34.0270   40.6700 C   0  0  0  0  0  0  0  0  0  0  0  0
   43.7610   33.7810   39.7470 C   0  0  0  0  0  0  0  0  0  0  0  0
   44.1280   33.2350   38.5560 N   0  0  0  0  0  0  0  0  0  0  0  0
   45.4250   32.9420   38.2820 C   0  0  0  0  0  0  0  0  0  0  0  0
   46.4050   33.1730   39.1590 N   0  0  0  0  0  0  0  0  0  0  0  0
   44.5020   34.4610   41.6200 H   0  0  0  0  0  0  0  0  0  0  0  0
   45.6170   32.5120   37.3150 H   0  0  0  0  0  0  0  0  0  0  0  0
   42.3890   34.0600   39.9590 N   0  0  0  0  0  0  0  0  0  0  0  0
   41.5070   34.3940   38.8590 C   0  0  0  0  0  0  0  0  0  0  0  0
   42.0860   34.3390   37.9230 H   0  0  0  0  0  0  0  0  0  0  0  0
   41.0340   35.8150   39.0860 C   0  0  0  0  0  0  0  0  0  0  0  0
   40.3850   36.1650   38.2760 H   0  0  0  0  0  0  0  0  0  0  0  0
   40.2290   35.7930   40.2910 N   0  0  0  0  0  0  0  0  0  0  0  0
   39.3720   35.2400   40.0740 H   0  0  0  0  0  0  0  0  0  0  0  0
   40.9430   35.3410   41.4390 C   0  0  0  0  0  0  0  0  0  0  0  0
   41.7100   34.0500   41.2330 C   0  0  0  0  0  0  0  0  0  0  0  0
   47.1590   33.9920   41.3570 C   0  0  0  0  0  0  0  0  0  0  0  0
   48.2020   35.0260   40.8530 C   0  0  0  0  0  0  0  0  0  0  0  0
   47.2990   35.2680   42.0240 C   0  0  0  0  0  0  0  0  0  0  0  0
   47.5910   33.0720   41.8050 H   0  0  0  0  0  0  0  0  0  0  0  0
   48.0180   35.5270   39.8970 H   0  0  0  0  0  0  0  0  0  0  0  0
   49.2450   34.7070   41.0280 H   0  0  0  0  0  0  0  0  0  0  0  0
   46.6060   36.1210   41.9010 H   0  0  0  0  0  0  0  0  0  0  0  0
   47.8480   35.2540   43.0100 H   0  0  0  0  0  0  0  0  0  0  0  0
  1  2  1  0  0  0  0
  1 18  1  0  0  0  0
  2  7  1  0  0  0  0
  3  9  1  0  0  0  0
  3  2  2  0  0  0  0
  4  3  1  0  0  0  0
  5  4  2  0  0  0  0
  5  6  1  0  0  0  0
  6  1  2  0  0  0  0
  8  5  1  0  0  0  0
  9 17  1  0  0  0  0
 10 12  1  0  0  0  0
 10  9  1  0  0  0  0
 11 10  1  0  0  0  0
 12 14  1  0  0  0  0
 13 12  1  0  0  0  0
 14 16  1  0  0  0  0
 15 14  1  0  0  0  0
 17 16  1  0  0  0  0
 18 21  1  0  0  0  0
 18 20  1  0  0  0  0
 19 23  1  0  0  0  0
 19 18  1  0  0  0  0
 19 20  1  0  0  0  0
 20 25  1  0  0  0  0
 22 19  1  0  0  0  0
 24 20  1  0  0  0  0
M  END
>  <minimizedAffinity>
-4.25291729

>  <minimizedRMSD>
7.66141558

$$$$
