
 OpenBabel03252507423D

 31 33  0  0  0  0  0  0  0  0999 V2000
   45.6040   34.5300   41.8770 C   0  0  0  0  0  0  0  0  0  0  0  0
   45.7290   33.7990   42.7040 H   0  0  0  0  0  0  0  0  0  0  0  0
   45.8420   35.5280   42.3000 H   0  0  0  0  0  0  0  0  0  0  0  0
   44.2120   34.5620   41.3430 C   0  0  0  0  0  0  0  0  0  0  0  0
   43.4400   35.7710   41.4310 C   0  0  0  0  0  0  0  0  0  0  0  0
   41.8490   35.2860   40.6500 S   0  0  0  0  0  0  0  0  0  0  0  0
   42.5020   33.5260   40.3390 C   0  0  0  0  0  0  0  0  0  0  0  0
   43.5590   33.5790   40.7700 N   0  0  0  0  0  0  0  0  0  0  0  0
   43.7610   36.6980   41.8560 H   0  0  0  0  0  0  0  0  0  0  0  0
   41.7250   32.5090   39.7070 N   0  0  0  0  0  0  0  0  0  0  0  0
   41.1510   31.4360   40.4650 C   0  0  0  0  0  3  0  0  0  0  0  0
   41.5990   30.4590   40.2000 H   0  0  0  0  0  0  0  0  0  0  0  0
   39.6750   31.3690   40.1420 C   0  0  0  0  0  3  0  0  0  0  0  0
   39.2240   30.4560   40.5930 H   0  0  0  0  0  0  0  0  0  0  0  0
   39.3660   31.5290   38.7570 N   0  0  0  0  0  0  0  0  0  0  0  0
   38.7840   30.7160   38.4350 H   0  0  0  0  0  0  0  0  0  0  0  0
   40.4900   31.6130   37.8760 C   0  0  0  0  0  2  0  0  0  0  0  0
   41.5380   32.5920   38.2910 C   0  0  0  0  0  2  0  0  0  0  0  0
   46.6460   34.2650   40.8260 C   0  0  0  0  0  0  0  0  0  0  0  0
   46.6030   35.1620   40.1400 H   0  0  0  0  0  0  0  0  0  0  0  0
   46.3580   33.4130   40.2280 H   0  0  0  0  0  0  0  0  0  0  0  0
   48.0150   34.1570   41.3680 C   0  0  0  0  0  0  0  0  0  0  0  0
   48.6910   32.9620   41.1370 C   0  0  0  0  0  0  0  0  0  0  0  0
   49.9820   32.8090   41.6260 C   0  0  0  0  0  0  0  0  0  0  0  0
   50.5360   33.8400   42.3150 N   0  0  0  0  0  0  0  0  0  0  0  0
   49.8600   34.9760   42.5200 C   0  0  0  0  0  0  0  0  0  0  0  0
   48.6250   35.1170   42.0500 N   0  0  0  0  0  0  0  0  0  0  0  0
   50.5490   31.8860   41.4660 H   0  0  0  0  0  0  0  0  0  0  0  0
   50.4190   35.7140   43.0830 H   0  0  0  0  0  0  0  0  0  0  0  0
   47.9060   31.6270   40.2140 S   0  0  0  0  0  0  0  0  0  0  0  0
   48.9490   30.8520   39.6730 H   0  0  0  0  0  0  0  0  0  0  0  0
  1  3  1  0  0  0  0
  1  2  1  0  0  0  0
  4  5  2  0  0  0  0
  4  1  1  0  0  0  0
  5  9  1  0  0  0  0
  6  5  1  0  0  0  0
  7  6  1  0  0  0  0
  7  8  2  0  0  0  0
  8  4  1  0  0  0  0
 10  7  1  0  0  0  0
 10 11  1  0  0  0  0
 12 11  1  0  0  0  0
 13 11  1  0  0  0  0
 13 14  1  0  0  0  0
 15 13  1  0  0  0  0
 16 15  1  0  0  0  0
 17 18  1  0  0  0  0
 17 15  1  0  0  0  0
 18 10  1  0  0  0  0
 19 22  1  0  0  0  0
 19  1  1  0  0  0  0
 20 19  1  0  0  0  0
 21 19  1  0  0  0  0
 22 27  1  0  0  0  0
 23 22  2  0  0  0  0
 23 24  1  0  0  0  0
 24 25  2  0  0  0  0
 25 26  1  0  0  0  0
 26 29  1  0  0  0  0
 27 26  2  0  0  0  0
 28 24  1  0  0  0  0
 30 23  1  0  0  0  0
 31 30  1  0  0  0  0
M  END
>  <minimizedAffinity>
-4.43704844

>  <minimizedRMSD>
1.39171875

$$$$
