
 OpenBabel03252507443D

 31 33  0  0  0  0  0  0  0  0999 V2000
   37.7910   28.9560   43.3050 C   0  0  0  0  0  0  0  0  0  0  0  0
   36.8360   28.4250   43.5070 H   0  0  0  0  0  0  0  0  0  0  0  0
   37.9720   29.6210   44.1750 H   0  0  0  0  0  0  0  0  0  0  0  0
   37.7320   29.7940   42.0730 C   0  0  0  0  0  0  0  0  0  0  0  0
   36.4690   30.0320   41.4300 C   0  0  0  0  0  0  0  0  0  0  0  0
   36.9410   31.0930   40.0050 S   0  0  0  0  0  0  0  0  0  0  0  0
   38.7700   31.0310   40.5240 C   0  0  0  0  0  0  0  0  0  0  0  0
   38.7350   30.3780   41.4630 N   0  0  0  0  0  0  0  0  0  0  0  0
   35.5170   29.6610   41.7450 H   0  0  0  0  0  0  0  0  0  0  0  0
   39.8070   31.6960   39.8030 N   0  0  0  0  0  0  0  0  0  0  0  0
   40.7160   30.9660   38.9690 C   0  0  0  0  0  3  0  0  0  0  0  0
   41.7520   31.0010   39.3610 H   0  0  0  0  0  0  0  0  0  0  0  0
   40.7190   31.6080   37.6000 C   0  0  0  0  0  3  0  0  0  0  0  0
   41.5230   31.1660   36.9700 H   0  0  0  0  0  0  0  0  0  0  0  0
   40.7340   33.0360   37.6180 N   0  0  0  0  0  0  0  0  0  0  0  0
   41.5390   33.3830   37.0400 H   0  0  0  0  0  0  0  0  0  0  0  0
   40.8580   33.6400   38.9090 C   0  0  0  0  0  2  0  0  0  0  0  0
   39.9110   33.1170   39.9380 C   0  0  0  0  0  2  0  0  0  0  0  0
   38.9160   27.9590   43.3030 C   0  0  0  0  0  0  0  0  0  0  0  0
   39.2720   27.9190   44.3750 H   0  0  0  0  0  0  0  0  0  0  0  0
   39.7450   28.3410   42.7240 H   0  0  0  0  0  0  0  0  0  0  0  0
   38.5010   26.6020   42.8960 C   0  0  0  0  0  0  0  0  0  0  0  0
   39.4700   25.6030   42.9530 C   0  0  0  0  0  0  0  0  0  0  0  0
   39.1300   24.3090   42.5810 C   0  0  0  0  0  0  0  0  0  0  0  0
   37.8570   24.0700   42.1720 N   0  0  0  0  0  0  0  0  0  0  0  0
   36.9490   25.0520   42.1300 C   0  0  0  0  0  0  0  0  0  0  0  0
   37.2790   26.2880   42.4870 N   0  0  0  0  0  0  0  0  0  0  0  0
   39.8610   23.4940   42.6110 H   0  0  0  0  0  0  0  0  0  0  0  0
   35.9750   24.7230   41.7870 H   0  0  0  0  0  0  0  0  0  0  0  0
   41.1450   25.9800   43.5040 S   0  0  0  0  0  0  0  0  0  0  0  0
   41.6840   24.7720   43.9850 H   0  0  0  0  0  0  0  0  0  0  0  0
  1  2  1  0  0  0  0
  1  3  1  0  0  0  0
  4  1  1  0  0  0  0
  5  9  1  0  0  0  0
  5  4  2  0  0  0  0
  6  7  1  0  0  0  0
  6  5  1  0  0  0  0
  7  8  2  0  0  0  0
  8  4  1  0  0  0  0
 10 18  1  0  0  0  0
 10  7  1  0  0  0  0
 11 12  1  0  0  0  0
 11 10  1  0  0  0  0
 13 15  1  0  0  0  0
 13 11  1  0  0  0  0
 14 13  1  0  0  0  0
 15 17  1  0  0  0  0
 16 15  1  0  0  0  0
 17 18  1  0  0  0  0
 19  1  1  0  0  0  0
 19 20  1  0  0  0  0
 21 19  1  0  0  0  0
 22 23  1  0  0  0  0
 22 19  1  0  0  0  0
 23 30  1  0  0  0  0
 24 28  1  0  0  0  0
 24 23  2  0  0  0  0
 25 24  1  0  0  0  0
 26 25  2  0  0  0  0
 26 27  1  0  0  0  0
 27 22  2  0  0  0  0
 29 26  1  0  0  0  0
 30 31  1  0  0  0  0
M  END
>  <minimizedAffinity>
-5.31449032

$$$$

 OpenBabel03252507443D

 31 33  0  0  0  0  0  0  0  0999 V2000
   36.9850   28.4490   43.1190 C   0  0  0  0  0  0  0  0  0  0  0  0
   36.0760   28.6420   43.7280 H   0  0  0  0  0  0  0  0  0  0  0  0
   37.8540   28.6170   43.7880 H   0  0  0  0  0  0  0  0  0  0  0  0
   37.1000   29.3710   41.9520 C   0  0  0  0  0  0  0  0  0  0  0  0
   36.0880   29.3640   40.9320 C   0  0  0  0  0  0  0  0  0  0  0  0
   36.6910   30.6480   39.7630 S   0  0  0  0  0  0  0  0  0  0  0  0
   38.2130   30.9740   40.8580 C   0  0  0  0  0  0  0  0  0  0  0  0
   38.0550   30.2390   41.7190 N   0  0  0  0  0  0  0  0  0  0  0  0
   35.2180   28.7440   40.9070 H   0  0  0  0  0  0  0  0  0  0  0  0
   39.2120   31.9400   40.5330 N   0  0  0  0  0  0  0  0  0  0  0  0
   40.4960   31.5400   40.0350 C   0  0  0  0  0  3  0  0  0  0  0  0
   41.3080   31.7820   40.7480 H   0  0  0  0  0  0  0  0  0  0  0  0
   40.7630   32.3020   38.7560 C   0  0  0  0  0  3  0  0  0  0  0  0
   41.8100   32.1330   38.4200 H   0  0  0  0  0  0  0  0  0  0  0  0
   40.3970   33.6820   38.8040 N   0  0  0  0  0  0  0  0  0  0  0  0
   41.2240   34.2700   38.5310 H   0  0  0  0  0  0  0  0  0  0  0  0
   39.9460   34.1610   40.0740 C   0  0  0  0  0  2  0  0  0  0  0  0
   38.8940   33.3220   40.7210 C   0  0  0  0  0  2  0  0  0  0  0  0
   37.0250   26.9940   42.7440 C   0  0  0  0  0  0  0  0  0  0  0  0
   36.6800   26.9600   41.6680 H   0  0  0  0  0  0  0  0  0  0  0  0
   36.2870   26.4470   43.3130 H   0  0  0  0  0  0  0  0  0  0  0  0
   38.3740   26.4020   42.8220 C   0  0  0  0  0  0  0  0  0  0  0  0
   38.6440   25.3320   41.9730 C   0  0  0  0  0  0  0  0  0  0  0  0
   39.8990   24.7390   42.0080 C   0  0  0  0  0  0  0  0  0  0  0  0
   40.8200   25.2310   42.8770 N   0  0  0  0  0  0  0  0  0  0  0  0
   40.5300   26.2620   43.6800 C   0  0  0  0  0  0  0  0  0  0  0  0
   39.3270   26.8250   43.6430 N   0  0  0  0  0  0  0  0  0  0  0  0
   40.1520   23.8960   41.3570 H   0  0  0  0  0  0  0  0  0  0  0  0
   41.3540   26.5530   44.3200 H   0  0  0  0  0  0  0  0  0  0  0  0
   37.3820   24.7210   40.8380 S   0  0  0  0  0  0  0  0  0  0  0  0
   38.0690   24.0880   39.7860 H   0  0  0  0  0  0  0  0  0  0  0  0
  1  2  1  0  0  0  0
  1  3  1  0  0  0  0
  4  1  1  0  0  0  0
  5  4  2  0  0  0  0
  6  7  1  0  0  0  0
  6  5  1  0  0  0  0
  7  8  2  0  0  0  0
  8  4  1  0  0  0  0
  9  5  1  0  0  0  0
 10 18  1  0  0  0  0
 10  7  1  0  0  0  0
 11 10  1  0  0  0  0
 11 12  1  0  0  0  0
 13 15  1  0  0  0  0
 13 11  1  0  0  0  0
 14 13  1  0  0  0  0
 15 17  1  0  0  0  0
 16 15  1  0  0  0  0
 17 18  1  0  0  0  0
 19 22  1  0  0  0  0
 19  1  1  0  0  0  0
 19 21  1  0  0  0  0
 20 19  1  0  0  0  0
 22 27  1  0  0  0  0
 23 24  1  0  0  0  0
 23 22  2  0  0  0  0
 24 25  2  0  0  0  0
 25 26  1  0  0  0  0
 26 29  1  0  0  0  0
 27 26  2  0  0  0  0
 28 24  1  0  0  0  0
 30 23  1  0  0  0  0
 31 30  1  0  0  0  0
M  END
>  <minimizedAffinity>
-5.09109497

$$$$

 OpenBabel03252507443D

 31 33  0  0  0  0  0  0  0  0999 V2000
   36.8700   27.0630   39.8760 C   0  0  0  0  0  0  0  0  0  0  0  0
   37.6400   26.3030   39.6210 H   0  0  0  0  0  0  0  0  0  0  0  0
   35.8990   26.6580   39.5230 H   0  0  0  0  0  0  0  0  0  0  0  0
   37.1100   28.3720   39.2020 C   0  0  0  0  0  0  0  0  0  0  0  0
   36.6910   28.5620   37.8400 C   0  0  0  0  0  0  0  0  0  0  0  0
   37.2050   30.2940   37.5030 S   0  0  0  0  0  0  0  0  0  0  0  0
   37.9000   30.4640   39.2660 C   0  0  0  0  0  0  0  0  0  0  0  0
   37.6830   29.4340   39.7140 N   0  0  0  0  0  0  0  0  0  0  0  0
   36.2040   27.8400   37.2200 H   0  0  0  0  0  0  0  0  0  0  0  0
   38.5120   31.6590   39.7490 N   0  0  0  0  0  0  0  0  0  0  0  0
   39.9340   31.7550   39.9030 C   0  0  0  0  0  3  0  0  0  0  0  0
   40.2270   31.8550   40.9670 H   0  0  0  0  0  0  0  0  0  0  0  0
   40.4050   32.9930   39.1750 C   0  0  0  0  0  3  0  0  0  0  0  0
   41.4790   33.1850   39.3980 H   0  0  0  0  0  0  0  0  0  0  0  0
   39.5740   34.1400   39.3630 N   0  0  0  0  0  0  0  0  0  0  0  0
   40.1600   34.9400   39.7080 H   0  0  0  0  0  0  0  0  0  0  0  0
   38.4970   33.9810   40.2910 C   0  0  0  0  0  2  0  0  0  0  0  0
   37.6610   32.7620   40.0760 C   0  0  0  0  0  2  0  0  0  0  0  0
   36.7580   27.1670   41.3710 C   0  0  0  0  0  0  0  0  0  0  0  0
   35.7730   26.6730   41.6240 H   0  0  0  0  0  0  0  0  0  0  0  0
   36.6600   28.2020   41.6620 H   0  0  0  0  0  0  0  0  0  0  0  0
   37.8340   26.4610   42.0940 C   0  0  0  0  0  0  0  0  0  0  0  0
   38.6030   27.2180   42.9750 C   0  0  0  0  0  0  0  0  0  0  0  0
   39.6280   26.6020   43.6800 C   0  0  0  0  0  0  0  0  0  0  0  0
   39.8420   25.2760   43.4780 N   0  0  0  0  0  0  0  0  0  0  0  0
   39.0850   24.5760   42.6240 C   0  0  0  0  0  0  0  0  0  0  0  0
   38.1050   25.1710   41.9520 N   0  0  0  0  0  0  0  0  0  0  0  0
   40.2560   27.1600   44.3830 H   0  0  0  0  0  0  0  0  0  0  0  0
   39.3630   23.5310   42.5600 H   0  0  0  0  0  0  0  0  0  0  0  0
   38.2720   28.9760   43.2030 S   0  0  0  0  0  0  0  0  0  0  0  0
   38.7680   29.3100   44.4770 H   0  0  0  0  0  0  0  0  0  0  0  0
  1 19  1  0  0  0  0
  2  1  1  0  0  0  0
  3  1  1  0  0  0  0
  4  8  1  0  0  0  0
  4  1  1  0  0  0  0
  5  4  2  0  0  0  0
  6  5  1  0  0  0  0
  6  7  1  0  0  0  0
  7  8  2  0  0  0  0
  7 10  1  0  0  0  0
  9  5  1  0  0  0  0
 10 11  1  0  0  0  0
 10 18  1  0  0  0  0
 11 12  1  0  0  0  0
 13 15  1  0  0  0  0
 13 14  1  0  0  0  0
 13 11  1  0  0  0  0
 15 16  1  0  0  0  0
 15 17  1  0  0  0  0
 18 17  1  0  0  0  0
 19 20  1  0  0  0  0
 19 21  1  0  0  0  0
 19 22  1  0  0  0  0
 22 23  1  0  0  0  0
 23 30  1  0  0  0  0
 23 24  2  0  0  0  0
 24 28  1  0  0  0  0
 25 24  1  0  0  0  0
 26 25  2  0  0  0  0
 27 22  2  0  0  0  0
 27 26  1  0  0  0  0
 29 26  1  0  0  0  0
 30 31  1  0  0  0  0
M  END
>  <minimizedAffinity>
-4.93302965

$$$$

 OpenBabel03252507443D

 31 33  0  0  0  0  0  0  0  0999 V2000
   36.7130   27.6230   41.9590 C   0  0  0  0  0  0  0  0  0  0  0  0
   36.3020   27.4460   40.9420 H   0  0  0  0  0  0  0  0  0  0  0  0
   35.8490   27.8810   42.6060 H   0  0  0  0  0  0  0  0  0  0  0  0
   37.6860   28.7520   41.9970 C   0  0  0  0  0  0  0  0  0  0  0  0
   38.5860   28.8830   43.1100 C   0  0  0  0  0  0  0  0  0  0  0  0
   39.5440   30.3900   42.6730 S   0  0  0  0  0  0  0  0  0  0  0  0
   38.5590   30.5850   41.0570 C   0  0  0  0  0  0  0  0  0  0  0  0
   37.8420   29.6950   41.1000 N   0  0  0  0  0  0  0  0  0  0  0  0
   38.6440   28.2350   43.9580 H   0  0  0  0  0  0  0  0  0  0  0  0
   38.7890   31.6440   40.1280 N   0  0  0  0  0  0  0  0  0  0  0  0
   37.8830   32.7500   40.0240 C   0  0  0  0  0  3  0  0  0  0  0  0
   37.3690   32.7700   39.0430 H   0  0  0  0  0  0  0  0  0  0  0  0
   38.6810   34.0270   40.1530 C   0  0  0  0  0  3  0  0  0  0  0  0
   38.0370   34.9070   39.9270 H   0  0  0  0  0  0  0  0  0  0  0  0
   39.9150   34.0280   39.4340 N   0  0  0  0  0  0  0  0  0  0  0  0
   39.9490   34.8660   38.8020 H   0  0  0  0  0  0  0  0  0  0  0  0
   40.1570   32.8790   38.6160 C   0  0  0  0  0  2  0  0  0  0  0  0
   39.9550   31.5690   39.3020 C   0  0  0  0  0  2  0  0  0  0  0  0
   37.2640   26.3330   42.4980 C   0  0  0  0  0  0  0  0  0  0  0  0
   36.5100   25.9930   43.2690 H   0  0  0  0  0  0  0  0  0  0  0  0
   38.1810   26.5210   43.0360 H   0  0  0  0  0  0  0  0  0  0  0  0
   37.3980   25.2760   41.4760 C   0  0  0  0  0  0  0  0  0  0  0  0
   38.4680   24.3970   41.6160 C   0  0  0  0  0  0  0  0  0  0  0  0
   38.6390   23.3840   40.6810 C   0  0  0  0  0  0  0  0  0  0  0  0
   37.7470   23.2940   39.6600 N   0  0  0  0  0  0  0  0  0  0  0  0
   36.7280   24.1540   39.5540 C   0  0  0  0  0  0  0  0  0  0  0  0
   36.5700   25.1210   40.4520 N   0  0  0  0  0  0  0  0  0  0  0  0
   39.4670   22.6710   40.7530 H   0  0  0  0  0  0  0  0  0  0  0  0
   36.0950   23.9680   38.6950 H   0  0  0  0  0  0  0  0  0  0  0  0
   39.6200   24.5650   42.9930 S   0  0  0  0  0  0  0  0  0  0  0  0
   40.1910   23.2930   43.1900 H   0  0  0  0  0  0  0  0  0  0  0  0
  1  4  1  0  0  0  0
  1 19  1  0  0  0  0
  1  3  1  0  0  0  0
  2  1  1  0  0  0  0
  4  5  2  0  0  0  0
  5  9  1  0  0  0  0
  6  5  1  0  0  0  0
  7  8  2  0  0  0  0
  7  6  1  0  0  0  0
  8  4  1  0  0  0  0
 10  7  1  0  0  0  0
 11 10  1  0  0  0  0
 11 13  1  0  0  0  0
 12 11  1  0  0  0  0
 14 13  1  0  0  0  0
 15 13  1  0  0  0  0
 16 15  1  0  0  0  0
 17 18  1  0  0  0  0
 17 15  1  0  0  0  0
 18 10  1  0  0  0  0
 19 21  1  0  0  0  0
 19 20  1  0  0  0  0
 22 23  1  0  0  0  0
 22 19  1  0  0  0  0
 23 30  1  0  0  0  0
 24 28  1  0  0  0  0
 24 23  2  0  0  0  0
 25 24  1  0  0  0  0
 26 25  2  0  0  0  0
 26 27  1  0  0  0  0
 27 22  2  0  0  0  0
 29 26  1  0  0  0  0
 30 31  1  0  0  0  0
M  END
>  <minimizedAffinity>
-4.87798834

$$$$

 OpenBabel03252507443D

 31 33  0  0  0  0  0  0  0  0999 V2000
   36.4950   30.5050   41.3180 C   0  0  0  0  0  0  0  0  0  0  0  0
   36.6450   31.3810   41.9850 H   0  0  0  0  0  0  0  0  0  0  0  0
   35.4010   30.3150   41.2910 H   0  0  0  0  0  0  0  0  0  0  0  0
   37.1760   29.2770   41.8200 C   0  0  0  0  0  0  0  0  0  0  0  0
   37.9390   29.3290   43.0370 C   0  0  0  0  0  0  0  0  0  0  0  0
   38.5470   27.6030   43.2010 S   0  0  0  0  0  0  0  0  0  0  0  0
   37.6640   27.1060   41.5900 C   0  0  0  0  0  0  0  0  0  0  0  0
   37.1720   28.0870   41.2700 N   0  0  0  0  0  0  0  0  0  0  0  0
   38.0840   30.1880   43.6580 H   0  0  0  0  0  0  0  0  0  0  0  0
   37.7090   25.7840   41.0550 N   0  0  0  0  0  0  0  0  0  0  0  0
   38.5190   25.4730   39.9140 C   0  0  0  0  0  3  0  0  0  0  0  0
   37.9040   25.1920   39.0360 H   0  0  0  0  0  0  0  0  0  0  0  0
   39.3920   24.2880   40.2640 C   0  0  0  0  0  3  0  0  0  0  0  0
   39.9240   23.9220   39.3580 H   0  0  0  0  0  0  0  0  0  0  0  0
   38.7200   23.2540   40.9840 N   0  0  0  0  0  0  0  0  0  0  0  0
   38.8480   22.3410   40.4800 H   0  0  0  0  0  0  0  0  0  0  0  0
   37.3130   23.4360   41.1650 C   0  0  0  0  0  2  0  0  0  0  0  0
   36.9190   24.7760   41.6920 C   0  0  0  0  0  2  0  0  0  0  0  0
   36.8860   30.8820   39.9170 C   0  0  0  0  0  0  0  0  0  0  0  0
   35.9310   31.2510   39.4370 H   0  0  0  0  0  0  0  0  0  0  0  0
   37.1780   30.0000   39.3670 H   0  0  0  0  0  0  0  0  0  0  0  0
   37.8890   31.9620   39.8550 C   0  0  0  0  0  0  0  0  0  0  0  0
   39.1560   31.6200   39.3880 C   0  0  0  0  0  0  0  0  0  0  0  0
   40.1360   32.6010   39.3100 C   0  0  0  0  0  0  0  0  0  0  0  0
   39.8170   33.8630   39.6960 N   0  0  0  0  0  0  0  0  0  0  0  0
   38.5900   34.1600   40.1400 C   0  0  0  0  0  0  0  0  0  0  0  0
   37.6550   33.2180   40.2130 N   0  0  0  0  0  0  0  0  0  0  0  0
   41.1450   32.3750   38.9480 H   0  0  0  0  0  0  0  0  0  0  0  0
   38.4720   35.2020   40.4140 H   0  0  0  0  0  0  0  0  0  0  0  0
   39.5220   29.9270   38.8870 S   0  0  0  0  0  0  0  0  0  0  0  0
   40.5960   30.0060   37.9810 H   0  0  0  0  0  0  0  0  0  0  0  0
  1  4  1  0  0  0  0
  1  2  1  0  0  0  0
  3  1  1  0  0  0  0
  4  5  2  0  0  0  0
  5  6  1  0  0  0  0
  5  9  1  0  0  0  0
  7  6  1  0  0  0  0
  8  7  2  0  0  0  0
  8  4  1  0  0  0  0
 10  7  1  0  0  0  0
 10 18  1  0  0  0  0
 11 13  1  0  0  0  0
 11 10  1  0  0  0  0
 12 11  1  0  0  0  0
 13 15  1  0  0  0  0
 14 13  1  0  0  0  0
 15 17  1  0  0  0  0
 16 15  1  0  0  0  0
 17 18  1  0  0  0  0
 19  1  1  0  0  0  0
 20 19  1  0  0  0  0
 21 19  1  0  0  0  0
 22 19  1  0  0  0  0
 22 27  1  0  0  0  0
 23 22  2  0  0  0  0
 24 23  1  0  0  0  0
 24 25  2  0  0  0  0
 25 26  1  0  0  0  0
 26 27  2  0  0  0  0
 26 29  1  0  0  0  0
 28 24  1  0  0  0  0
 30 23  1  0  0  0  0
 31 30  1  0  0  0  0
M  END
>  <minimizedAffinity>
-4.78571129

$$$$

 OpenBabel03252507443D

 31 33  0  0  0  0  0  0  0  0999 V2000
   37.6650   28.1210   43.6790 C   0  0  0  0  0  0  0  0  0  0  0  0
   37.1580   28.8140   44.3840 H   0  0  0  0  0  0  0  0  0  0  0  0
   38.1500   27.3390   44.3000 H   0  0  0  0  0  0  0  0  0  0  0  0
   38.7150   28.7970   42.8640 C   0  0  0  0  0  0  0  0  0  0  0  0
   40.0910   28.4080   43.0060 C   0  0  0  0  0  0  0  0  0  0  0  0
   40.9430   29.5150   41.8120 S   0  0  0  0  0  0  0  0  0  0  0  0
   39.2880   30.3170   41.3250 C   0  0  0  0  0  0  0  0  0  0  0  0
   38.5420   29.7540   41.9840 N   0  0  0  0  0  0  0  0  0  0  0  0
   40.4720   27.6530   43.6600 H   0  0  0  0  0  0  0  0  0  0  0  0
   39.1830   31.3570   40.3540 N   0  0  0  0  0  0  0  0  0  0  0  0
   38.9560   32.7170   40.7460 C   0  0  0  0  0  3  0  0  0  0  0  0
   37.9670   33.0830   40.4060 H   0  0  0  0  0  0  0  0  0  0  0  0
   40.0140   33.5790   40.0950 C   0  0  0  0  0  3  0  0  0  0  0  0
   39.7830   34.6560   40.2520 H   0  0  0  0  0  0  0  0  0  0  0  0
   40.2880   33.2500   38.7320 N   0  0  0  0  0  0  0  0  0  0  0  0
   40.1830   34.1110   38.1390 H   0  0  0  0  0  0  0  0  0  0  0  0
   39.4490   32.2430   38.1570 C   0  0  0  0  0  2  0  0  0  0  0  0
   39.3130   31.0010   38.9740 C   0  0  0  0  0  2  0  0  0  0  0  0
   36.6270   27.4110   42.8550 C   0  0  0  0  0  0  0  0  0  0  0  0
   36.1920   28.2090   42.1830 H   0  0  0  0  0  0  0  0  0  0  0  0
   35.8180   27.0780   43.4900 H   0  0  0  0  0  0  0  0  0  0  0  0
   37.1800   26.3350   42.0090 C   0  0  0  0  0  0  0  0  0  0  0  0
   37.0300   26.4770   40.6320 C   0  0  0  0  0  0  0  0  0  0  0  0
   37.5330   25.4930   39.7920 C   0  0  0  0  0  0  0  0  0  0  0  0
   38.1550   24.4230   40.3530 N   0  0  0  0  0  0  0  0  0  0  0  0
   38.2830   24.3170   41.6800 C   0  0  0  0  0  0  0  0  0  0  0  0
   37.8000   25.2620   42.4800 N   0  0  0  0  0  0  0  0  0  0  0  0
   37.4380   25.5650   38.7030 H   0  0  0  0  0  0  0  0  0  0  0  0
   38.7990   23.4160   41.9920 H   0  0  0  0  0  0  0  0  0  0  0  0
   36.1960   27.9200   39.9430 S   0  0  0  0  0  0  0  0  0  0  0  0
   36.6810   28.0690   38.6310 H   0  0  0  0  0  0  0  0  0  0  0  0
  1  3  1  0  0  0  0
  1  2  1  0  0  0  0
  4  5  2  0  0  0  0
  4  1  1  0  0  0  0
  5  9  1  0  0  0  0
  6  5  1  0  0  0  0
  7  6  1  0  0  0  0
  7  8  2  0  0  0  0
  8  4  1  0  0  0  0
 10 11  1  0  0  0  0
 10  7  1  0  0  0  0
 12 11  1  0  0  0  0
 13 14  1  0  0  0  0
 13 11  1  0  0  0  0
 15 13  1  0  0  0  0
 16 15  1  0  0  0  0
 17 15  1  0  0  0  0
 17 18  1  0  0  0  0
 18 10  1  0  0  0  0
 19 21  1  0  0  0  0
 19  1  1  0  0  0  0
 20 19  1  0  0  0  0
 22 27  1  0  0  0  0
 22 19  1  0  0  0  0
 23 22  2  0  0  0  0
 24 25  2  0  0  0  0
 24 23  1  0  0  0  0
 25 26  1  0  0  0  0
 26 29  1  0  0  0  0
 26 27  2  0  0  0  0
 28 24  1  0  0  0  0
 30 23  1  0  0  0  0
 31 30  1  0  0  0  0
M  END
>  <minimizedAffinity>
-4.73379087

$$$$

 OpenBabel03252507443D

 31 33  0  0  0  0  0  0  0  0999 V2000
   38.4340   30.6290   39.6840 C   0  0  0  0  0  0  0  0  0  0  0  0
   39.0100   30.2340   38.8190 H   0  0  0  0  0  0  0  0  0  0  0  0
   38.9490   31.5580   40.0060 H   0  0  0  0  0  0  0  0  0  0  0  0
   38.4040   29.6810   40.8350 C   0  0  0  0  0  0  0  0  0  0  0  0
   38.1050   30.1660   42.1540 C   0  0  0  0  0  0  0  0  0  0  0  0
   38.1920   28.6380   43.1710 S   0  0  0  0  0  0  0  0  0  0  0  0
   38.6200   27.6020   41.6340 C   0  0  0  0  0  0  0  0  0  0  0  0
   38.6260   28.3890   40.8040 N   0  0  0  0  0  0  0  0  0  0  0  0
   37.8910   31.1790   42.4230 H   0  0  0  0  0  0  0  0  0  0  0  0
   38.8480   26.1940   41.6830 N   0  0  0  0  0  0  0  0  0  0  0  0
   40.1720   25.6530   41.5860 C   0  0  0  0  0  3  0  0  0  0  0  0
   40.3090   25.0640   40.6580 H   0  0  0  0  0  0  0  0  0  0  0  0
   40.3880   24.7220   42.7580 C   0  0  0  0  0  3  0  0  0  0  0  0
   41.3460   24.1670   42.6370 H   0  0  0  0  0  0  0  0  0  0  0  0
   39.2760   23.8760   43.0530 N   0  0  0  0  0  0  0  0  0  0  0  0
   39.5950   22.8760   43.0670 H   0  0  0  0  0  0  0  0  0  0  0  0
   38.1790   23.9510   42.1370 C   0  0  0  0  0  2  0  0  0  0  0  0
   37.7130   25.3370   41.8330 C   0  0  0  0  0  2  0  0  0  0  0  0
   37.0700   31.0510   39.2150 C   0  0  0  0  0  0  0  0  0  0  0  0
   37.1860   32.1360   38.9210 H   0  0  0  0  0  0  0  0  0  0  0  0
   36.3760   31.0360   40.0430 H   0  0  0  0  0  0  0  0  0  0  0  0
   36.5900   30.2960   38.0420 C   0  0  0  0  0  0  0  0  0  0  0  0
   35.5580   29.3870   38.2570 C   0  0  0  0  0  0  0  0  0  0  0  0
   35.0690   28.6510   37.1850 C   0  0  0  0  0  0  0  0  0  0  0  0
   35.6240   28.8500   35.9610 N   0  0  0  0  0  0  0  0  0  0  0  0
   36.6150   29.7320   35.7870 C   0  0  0  0  0  0  0  0  0  0  0  0
   37.0790   30.4330   36.8160 N   0  0  0  0  0  0  0  0  0  0  0  0
   34.2580   27.9260   37.3110 H   0  0  0  0  0  0  0  0  0  0  0  0
   36.9630   29.7910   34.7630 H   0  0  0  0  0  0  0  0  0  0  0  0
   34.8590   29.1650   39.9050 S   0  0  0  0  0  0  0  0  0  0  0  0
   33.5550   28.6700   39.7180 H   0  0  0  0  0  0  0  0  0  0  0  0
  1  3  1  0  0  0  0
  1  4  1  0  0  0  0
  2  1  1  0  0  0  0
  4  5  2  0  0  0  0
  5  9  1  0  0  0  0
  5  6  1  0  0  0  0
  7 10  1  0  0  0  0
  7  6  1  0  0  0  0
  8  4  1  0  0  0  0
  8  7  2  0  0  0  0
 10 18  1  0  0  0  0
 11 10  1  0  0  0  0
 11 13  1  0  0  0  0
 12 11  1  0  0  0  0
 13 15  1  0  0  0  0
 14 13  1  0  0  0  0
 15 16  1  0  0  0  0
 17 15  1  0  0  0  0
 18 17  1  0  0  0  0
 19  1  1  0  0  0  0
 19 21  1  0  0  0  0
 20 19  1  0  0  0  0
 22 23  1  0  0  0  0
 22 19  1  0  0  0  0
 23 30  1  0  0  0  0
 24 28  1  0  0  0  0
 24 23  2  0  0  0  0
 25 24  1  0  0  0  0
 26 25  2  0  0  0  0
 26 27  1  0  0  0  0
 27 22  2  0  0  0  0
 29 26  1  0  0  0  0
 31 30  1  0  0  0  0
M  END
>  <minimizedAffinity>
-4.49907684

$$$$

 OpenBabel03252507443D

 31 33  0  0  0  0  0  0  0  0999 V2000
   36.6100   30.7700   39.3410 C   0  0  0  0  0  0  0  0  0  0  0  0
   35.6250   31.2470   39.1430 H   0  0  0  0  0  0  0  0  0  0  0  0
   37.3070   31.1550   38.5680 H   0  0  0  0  0  0  0  0  0  0  0  0
   36.5600   29.2840   39.2360 C   0  0  0  0  0  0  0  0  0  0  0  0
   35.8080   28.6670   38.1780 C   0  0  0  0  0  0  0  0  0  0  0  0
   36.0710   26.8760   38.4940 S   0  0  0  0  0  0  0  0  0  0  0  0
   37.1540   27.2700   40.0070 C   0  0  0  0  0  0  0  0  0  0  0  0
   37.1440   28.4130   40.0230 N   0  0  0  0  0  0  0  0  0  0  0  0
   35.2510   29.1720   37.4180 H   0  0  0  0  0  0  0  0  0  0  0  0
   37.7560   26.2600   40.8170 N   0  0  0  0  0  0  0  0  0  0  0  0
   37.2370   25.9420   42.1150 C   0  0  0  0  0  3  0  0  0  0  0  0
   37.9500   26.2070   42.9200 H   0  0  0  0  0  0  0  0  0  0  0  0
   37.0050   24.4500   42.1770 C   0  0  0  0  0  3  0  0  0  0  0  0
   36.7450   24.1440   43.2160 H   0  0  0  0  0  0  0  0  0  0  0  0
   38.0490   23.6650   41.5990 N   0  0  0  0  0  0  0  0  0  0  0  0
   38.3850   22.9620   42.3030 H   0  0  0  0  0  0  0  0  0  0  0  0
   39.1990   24.3930   41.1560 C   0  0  0  0  0  2  0  0  0  0  0  0
   38.8970   25.5740   40.2940 C   0  0  0  0  0  2  0  0  0  0  0  0
   37.1380   31.2640   40.6590 C   0  0  0  0  0  0  0  0  0  0  0  0
   37.2370   30.3380   41.2990 H   0  0  0  0  0  0  0  0  0  0  0  0
   36.3980   31.8860   41.1420 H   0  0  0  0  0  0  0  0  0  0  0  0
   38.4620   31.9090   40.5590 C   0  0  0  0  0  0  0  0  0  0  0  0
   39.4660   31.4200   41.3910 C   0  0  0  0  0  0  0  0  0  0  0  0
   40.7300   31.9920   41.3350 C   0  0  0  0  0  0  0  0  0  0  0  0
   40.9360   33.0140   40.4650 N   0  0  0  0  0  0  0  0  0  0  0  0
   39.9500   33.4620   39.6780 C   0  0  0  0  0  0  0  0  0  0  0  0
   38.7430   32.9110   39.7350 N   0  0  0  0  0  0  0  0  0  0  0  0
   41.5480   31.6370   41.9710 H   0  0  0  0  0  0  0  0  0  0  0  0
   40.2510   34.2790   39.0330 H   0  0  0  0  0  0  0  0  0  0  0  0
   39.1340   30.0590   42.5260 S   0  0  0  0  0  0  0  0  0  0  0  0
   40.3740   29.4430   42.7790 H   0  0  0  0  0  0  0  0  0  0  0  0
  1 19  1  0  0  0  0
  2  1  1  0  0  0  0
  3  1  1  0  0  0  0
  4  1  1  0  0  0  0
  4  8  1  0  0  0  0
  5  6  1  0  0  0  0
  5  4  2  0  0  0  0
  6  7  1  0  0  0  0
  7  8  2  0  0  0  0
  7 10  1  0  0  0  0
  9  5  1  0  0  0  0
 10 11  1  0  0  0  0
 11 13  1  0  0  0  0
 11 12  1  0  0  0  0
 13 14  1  0  0  0  0
 15 13  1  0  0  0  0
 15 16  1  0  0  0  0
 17 15  1  0  0  0  0
 18 10  1  0  0  0  0
 18 17  1  0  0  0  0
 19 21  1  0  0  0  0
 19 20  1  0  0  0  0
 22 19  1  0  0  0  0
 22 23  1  0  0  0  0
 23 30  1  0  0  0  0
 24 23  2  0  0  0  0
 24 28  1  0  0  0  0
 25 24  1  0  0  0  0
 26 27  1  0  0  0  0
 26 25  2  0  0  0  0
 27 22  2  0  0  0  0
 29 26  1  0  0  0  0
 30 31  1  0  0  0  0
M  END
>  <minimizedAffinity>
-4.4769311

$$$$

 OpenBabel03252507443D

 31 33  0  0  0  0  0  0  0  0999 V2000
   36.8190   28.0230   41.6040 C   0  0  0  0  0  0  0  0  0  0  0  0
   35.9020   27.5470   41.1950 H   0  0  0  0  0  0  0  0  0  0  0  0
   36.6450   28.1590   42.6920 H   0  0  0  0  0  0  0  0  0  0  0  0
   37.0910   29.3590   40.9980 C   0  0  0  0  0  0  0  0  0  0  0  0
   36.0360   30.3310   40.9070 C   0  0  0  0  0  0  0  0  0  0  0  0
   36.8760   31.7570   40.1090 S   0  0  0  0  0  0  0  0  0  0  0  0
   38.5130   30.7910   40.0330 C   0  0  0  0  0  0  0  0  0  0  0  0
   38.2280   29.7910   40.5090 N   0  0  0  0  0  0  0  0  0  0  0  0
   35.0280   30.2050   41.2390 H   0  0  0  0  0  0  0  0  0  0  0  0
   39.7130   31.3340   39.4830 N   0  0  0  0  0  0  0  0  0  0  0  0
   40.1910   30.9230   38.1950 C   0  0  0  0  0  3  0  0  0  0  0  0
   41.1500   30.3750   38.2680 H   0  0  0  0  0  0  0  0  0  0  0  0
   40.4290   32.1630   37.3630 C   0  0  0  0  0  3  0  0  0  0  0  0
   40.9420   31.8950   36.4120 H   0  0  0  0  0  0  0  0  0  0  0  0
   41.0610   33.2330   38.0670 N   0  0  0  0  0  0  0  0  0  0  0  0
   41.9190   33.5360   37.5410 H   0  0  0  0  0  0  0  0  0  0  0  0
   41.4740   32.9380   39.4040 C   0  0  0  0  0  2  0  0  0  0  0  0
   40.4260   32.3030   40.2560 C   0  0  0  0  0  2  0  0  0  0  0  0
   37.9670   27.0610   41.4840 C   0  0  0  0  0  0  0  0  0  0  0  0
   38.3630   26.9470   42.5370 H   0  0  0  0  0  0  0  0  0  0  0  0
   38.7640   27.5100   40.9100 H   0  0  0  0  0  0  0  0  0  0  0  0
   37.5720   25.7300   40.9850 C   0  0  0  0  0  0  0  0  0  0  0  0
   38.2360   24.6320   41.5250 C   0  0  0  0  0  0  0  0  0  0  0  0
   37.9010   23.3570   41.0890 C   0  0  0  0  0  0  0  0  0  0  0  0
   36.9310   23.2320   40.1460 N   0  0  0  0  0  0  0  0  0  0  0  0
   36.3110   24.3080   39.6470 C   0  0  0  0  0  0  0  0  0  0  0  0
   36.6350   25.5260   40.0680 N   0  0  0  0  0  0  0  0  0  0  0  0
   38.3980   22.4660   41.4880 H   0  0  0  0  0  0  0  0  0  0  0  0
   35.5600   24.0660   38.9050 H   0  0  0  0  0  0  0  0  0  0  0  0
   39.5150   24.8570   42.7760 S   0  0  0  0  0  0  0  0  0  0  0  0
   39.5780   23.6520   43.4990 H   0  0  0  0  0  0  0  0  0  0  0  0
  1  3  1  0  0  0  0
  2  1  1  0  0  0  0
  4  1  1  0  0  0  0
  5  4  2  0  0  0  0
  5  9  1  0  0  0  0
  6  5  1  0  0  0  0
  7  6  1  0  0  0  0
  7  8  2  0  0  0  0
  8  4  1  0  0  0  0
 10  7  1  0  0  0  0
 10 18  1  0  0  0  0
 11 12  1  0  0  0  0
 11 10  1  0  0  0  0
 13 15  1  0  0  0  0
 13 11  1  0  0  0  0
 14 13  1  0  0  0  0
 15 17  1  0  0  0  0
 16 15  1  0  0  0  0
 17 18  1  0  0  0  0
 19  1  1  0  0  0  0
 19 20  1  0  0  0  0
 21 19  1  0  0  0  0
 22 19  1  0  0  0  0
 22 23  1  0  0  0  0
 23 30  1  0  0  0  0
 24 28  1  0  0  0  0
 24 23  2  0  0  0  0
 25 24  1  0  0  0  0
 26 27  1  0  0  0  0
 26 25  2  0  0  0  0
 27 22  2  0  0  0  0
 29 26  1  0  0  0  0
 30 31  1  0  0  0  0
M  END
>  <minimizedAffinity>
-4.4258399

$$$$
