
 OpenBabel03252508203D

 34 36  0  0  0  0  0  0  0  0999 V2000
   45.6870   33.6940   40.6630 C   0  0  0  0  0  0  0  0  0  0  0  0
   46.1710   33.3550   39.4030 C   0  0  0  0  0  0  0  0  0  0  0  0
   47.4050   33.7110   38.9330 C   0  0  0  0  0  0  0  0  0  0  0  0
   48.1970   34.4580   39.7970 C   0  0  0  0  0  0  0  0  0  0  0  0
   47.7670   34.8180   41.0520 C   0  0  0  0  0  0  0  0  0  0  0  0
   46.5300   34.4470   41.4930 C   0  0  0  0  0  0  0  0  0  0  0  0
   45.4520   32.7760   38.8420 H   0  0  0  0  0  0  0  0  0  0  0  0
   47.7150   33.4060   37.9290 H   0  0  0  0  0  0  0  0  0  0  0  0
   49.1830   34.7470   39.4330 H   0  0  0  0  0  0  0  0  0  0  0  0
   48.4680   35.3980   41.6360 H   0  0  0  0  0  0  0  0  0  0  0  0
   46.1880   34.8680   42.7920 N   0  0  0  0  0  0  0  0  0  0  0  0
   45.3150   35.9990   43.0570 C   0  0  0  0  0  0  0  0  0  0  0  0
   44.4300   35.9930   42.3870 H   0  0  0  0  0  0  0  0  0  0  0  0
   44.7670   35.9170   44.4780 C   0  0  0  0  0  0  0  0  0  0  0  0
   43.8900   36.5690   44.5250 H   0  0  0  0  0  0  0  0  0  0  0  0
   44.4220   34.6030   44.8980 N   0  0  0  0  0  0  0  0  0  0  0  0
   43.4940   34.3070   44.5550 H   0  0  0  0  0  0  0  0  0  0  0  0
   45.4700   33.6400   44.7700 C   0  0  0  0  0  0  0  0  0  0  0  0
   46.6450   34.2490   44.0320 C   0  0  0  0  0  0  0  0  0  0  0  0
   44.3540   33.3280   41.1900 C   0  0  0  0  0  0  0  0  0  0  0  0
   44.4100   32.3860   41.7380 H   0  0  0  0  0  0  0  0  0  0  0  0
   43.9340   34.1890   41.7090 H   0  0  0  0  0  0  0  0  0  0  0  0
   43.4050   33.0430   40.0200 C   0  0  0  0  0  0  0  0  0  0  0  0
   43.9340   33.3320   39.0880 H   0  0  0  0  0  0  0  0  0  0  0  0
   43.1420   31.9770   40.0310 H   0  0  0  0  0  0  0  0  0  0  0  0
   40.7900   35.6830   39.4250 C   0  0  0  0  0  0  0  0  0  0  0  0
   41.9420   34.8760   39.2550 C   0  0  0  0  0  0  0  0  0  0  0  0
   42.2050   33.8860   40.1930 C   0  0  0  0  0  0  0  0  0  0  0  0
   41.3180   33.7470   41.2450 N   0  0  0  0  0  0  0  0  0  0  0  0
   40.2400   34.5340   41.3670 C   0  0  0  0  0  0  0  0  0  0  0  0
   39.9750   35.4910   40.4700 N   0  0  0  0  0  0  0  0  0  0  0  0
   40.5480   36.4650   38.7200 H   0  0  0  0  0  0  0  0  0  0  0  0
   42.5520   35.0850   38.3950 H   0  0  0  0  0  0  0  0  0  0  0  0
   39.6520   34.2860   42.2520 H   0  0  0  0  0  0  0  0  0  0  0  0
  1 20  1  0  0  0  0
  1  6  1  0  0  0  0
  2  1  2  0  0  0  0
  3  2  1  0  0  0  0
  3  4  2  0  0  0  0
  4  5  1  0  0  0  0
  5  6  2  0  0  0  0
  5 10  1  0  0  0  0
  6 11  1  0  0  0  0
  7  2  1  0  0  0  0
  8  3  1  0  0  0  0
  9  4  1  0  0  0  0
 11 12  1  0  0  0  0
 11 19  1  0  0  0  0
 12 14  1  0  0  0  0
 13 12  1  0  0  0  0
 14 15  1  0  0  0  0
 14 16  1  0  0  0  0
 17 16  1  0  0  0  0
 18 16  1  0  0  0  0
 19 18  1  0  0  0  0
 20 22  1  0  0  0  0
 20 21  1  0  0  0  0
 23 25  1  0  0  0  0
 23 28  1  0  0  0  0
 23 20  1  0  0  0  0
 24 23  1  0  0  0  0
 26 31  1  0  0  0  0
 27 26  2  0  0  0  0
 27 28  1  0  0  0  0
 28 29  2  0  0  0  0
 29 30  1  0  0  0  0
 30 34  1  0  0  0  0
 31 30  2  0  0  0  0
 32 26  1  0  0  0  0
 33 27  1  0  0  0  0
M  END
>  <minimizedAffinity>
-5.34838438

>  <minimizedRMSD>
1.55962551

$$$$
