
 OpenBabel03242521353D

 31 34  0  0  0  0  0  0  0  0999 V2000
   37.3050   32.3280   40.3540 C   0  0  0  0  0  0  0  0  0  0  0  0
   36.8690   31.0040   40.6640 C   0  0  0  0  0  0  0  0  0  0  0  0
   37.8310   30.1100   41.1010 C   0  0  0  0  0  0  0  0  0  0  0  0
   39.1100   30.5160   41.2140 N   0  0  0  0  0  0  0  0  0  0  0  0
   39.4940   31.7810   40.9110 C   0  0  0  0  0  0  0  0  0  0  0  0
   38.6000   32.6730   40.4870 N   0  0  0  0  0  0  0  0  0  0  0  0
   36.5010   32.9470   40.0260 H   0  0  0  0  0  0  0  0  0  0  0  0
   35.8550   30.6740   40.5760 H   0  0  0  0  0  0  0  0  0  0  0  0
   40.8620   32.1370   41.0550 N   0  0  0  0  0  0  0  0  0  0  0  0
   41.8510   31.1810   41.5150 C   0  0  0  0  0  3  0  0  0  0  0  0
   41.4370   30.2090   41.7790 H   0  0  0  0  0  0  0  0  0  0  0  0
   42.4900   31.8010   42.7450 C   0  0  0  0  0  3  0  0  0  0  0  0
   41.6920   31.8300   43.5450 H   0  0  0  0  0  0  0  0  0  0  0  0
   42.9700   33.1250   42.5330 N   0  0  0  0  0  0  0  0  0  0  0  0
   42.7870   33.8100   43.2910 H   0  0  0  0  0  0  0  0  0  0  0  0
   42.7440   33.6550   41.2150 C   0  0  0  0  0  2  0  0  0  0  0  0
   41.3210   33.4780   40.7450 C   0  0  0  0  0  2  0  0  0  0  0  0
   37.3520   28.4280   42.7910 C   0  0  0  0  0  0  0  0  0  0  0  0
   37.5430   28.7200   41.4570 C   0  0  0  0  0  0  0  0  0  0  0  0
   37.4550   27.7000   40.5410 C   0  0  0  0  0  0  0  0  0  0  0  0
   37.1820   26.3990   40.8910 C   0  0  0  0  0  0  0  0  0  0  0  0
   37.0500   25.2490   40.1780 N   0  0  0  0  0  0  0  0  0  0  0  0
   36.7760   24.2400   41.0580 C   0  0  0  0  0  0  0  0  0  0  0  0
   36.7430   24.7810   42.3210 N   0  0  0  0  0  0  0  0  0  0  0  0
   36.9910   26.1030   42.2370 C   0  0  0  0  0  0  0  0  0  0  0  0
   37.0770   27.1140   43.1650 C   0  0  0  0  0  0  0  0  0  0  0  0
   37.4080   29.1810   43.5770 H   0  0  0  0  0  0  0  0  0  0  0  0
   37.6120   27.9710   39.4920 H   0  0  0  0  0  0  0  0  0  0  0  0
   37.1410   25.1580   39.1290 H   0  0  0  0  0  0  0  0  0  0  0  0
   36.6140   23.1940   40.7960 H   0  0  0  0  0  0  0  0  0  0  0  0
   36.9210   26.8580   44.2180 H   0  0  0  0  0  0  0  0  0  0  0  0
  1  6  2  0  0  0  0
  1  2  1  0  0  0  0
  2  3  2  0  0  0  0
  3  4  1  0  0  0  0
  3 19  1  0  0  0  0
  5  9  1  0  0  0  0
  5  4  2  0  0  0  0
  6  5  1  0  0  0  0
  7  1  1  0  0  0  0
  8  2  1  0  0  0  0
  9 10  1  0  0  0  0
 10 11  1  0  0  0  0
 10 12  1  0  0  0  0
 12 13  1  0  0  0  0
 14 12  1  0  0  0  0
 14 15  1  0  0  0  0
 16 14  1  0  0  0  0
 17  9  1  0  0  0  0
 17 16  1  0  0  0  0
 18 26  1  0  0  0  0
 18 27  1  0  0  0  0
 19 18  2  0  0  0  0
 20 21  2  0  0  0  0
 20 19  1  0  0  0  0
 21 25  1  0  0  0  0
 22 21  1  0  0  0  0
 22 23  1  0  0  0  0
 23 24  2  0  0  0  0
 25 24  1  0  0  0  0
 25 26  2  0  0  0  0
 26 31  1  0  0  0  0
 28 20  1  0  0  0  0
 29 22  1  0  0  0  0
 30 23  1  0  0  0  0
M  END
>  <minimizedAffinity>
-5.85159206

$$$$

 OpenBabel03242521353D

 31 34  0  0  0  0  0  0  0  0999 V2000
   37.1310   27.5150   43.6790 C   0  0  0  0  0  0  0  0  0  0  0  0
   37.4730   28.8500   43.3040 C   0  0  0  0  0  0  0  0  0  0  0  0
   37.6450   29.1020   41.9540 C   0  0  0  0  0  0  0  0  0  0  0  0
   37.4860   28.1000   41.0690 N   0  0  0  0  0  0  0  0  0  0  0  0
   37.1610   26.8410   41.4560 C   0  0  0  0  0  0  0  0  0  0  0  0
   36.9870   26.5560   42.7450 N   0  0  0  0  0  0  0  0  0  0  0  0
   37.0190   27.4120   44.7350 H   0  0  0  0  0  0  0  0  0  0  0  0
   37.6010   29.6510   44.0030 H   0  0  0  0  0  0  0  0  0  0  0  0
   37.0110   25.8350   40.4630 N   0  0  0  0  0  0  0  0  0  0  0  0
   37.1960   26.1250   39.0540 C   0  0  0  0  0  3  0  0  0  0  0  0
   37.4060   27.1720   38.8410 H   0  0  0  0  0  0  0  0  0  0  0  0
   35.9000   25.7270   38.3720 C   0  0  0  0  0  3  0  0  0  0  0  0
   35.1090   26.4480   38.7340 H   0  0  0  0  0  0  0  0  0  0  0  0
   35.4780   24.4000   38.6750 N   0  0  0  0  0  0  0  0  0  0  0  0
   34.4650   24.2680   38.8600 H   0  0  0  0  0  0  0  0  0  0  0  0
   36.3260   23.6820   39.5870 C   0  0  0  0  0  2  0  0  0  0  0  0
   36.6630   24.4740   40.8260 C   0  0  0  0  0  2  0  0  0  0  0  0
   37.0310   31.0890   40.6940 C   0  0  0  0  0  0  0  0  0  0  0  0
   37.9950   30.4150   41.4130 C   0  0  0  0  0  0  0  0  0  0  0  0
   39.2240   31.0070   41.5820 C   0  0  0  0  0  0  0  0  0  0  0  0
   39.5380   32.2430   41.0680 C   0  0  0  0  0  0  0  0  0  0  0  0
   40.6590   33.0110   41.1040 N   0  0  0  0  0  0  0  0  0  0  0  0
   40.4010   34.1610   40.4120 C   0  0  0  0  0  0  0  0  0  0  0  0
   39.1090   34.0930   39.9490 N   0  0  0  0  0  0  0  0  0  0  0  0
   38.5660   32.9230   40.3410 C   0  0  0  0  0  0  0  0  0  0  0  0
   37.3320   32.3420   40.1640 C   0  0  0  0  0  0  0  0  0  0  0  0
   36.0340   30.6860   40.5150 H   0  0  0  0  0  0  0  0  0  0  0  0
   39.9630   30.4410   42.1590 H   0  0  0  0  0  0  0  0  0  0  0  0
   41.5660   32.7590   41.5850 H   0  0  0  0  0  0  0  0  0  0  0  0
   41.1020   34.9830   40.2600 H   0  0  0  0  0  0  0  0  0  0  0  0
   36.5830   32.8960   39.5890 H   0  0  0  0  0  0  0  0  0  0  0  0
  1  7  1  0  0  0  0
  2  1  1  0  0  0  0
  2  8  1  0  0  0  0
  3  2  2  0  0  0  0
  4  5  2  0  0  0  0
  4  3  1  0  0  0  0
  5  6  1  0  0  0  0
  6  1  2  0  0  0  0
  9 17  1  0  0  0  0
  9  5  1  0  0  0  0
 10  9  1  0  0  0  0
 11 10  1  0  0  0  0
 12 14  1  0  0  0  0
 12 13  1  0  0  0  0
 12 10  1  0  0  0  0
 14 15  1  0  0  0  0
 14 16  1  0  0  0  0
 16 17  1  0  0  0  0
 18 19  1  0  0  0  0
 19 20  2  0  0  0  0
 19  3  1  0  0  0  0
 20 28  1  0  0  0  0
 21 22  1  0  0  0  0
 21 20  1  0  0  0  0
 22 29  1  0  0  0  0
 23 22  1  0  0  0  0
 24 25  1  0  0  0  0
 24 23  2  0  0  0  0
 25 21  2  0  0  0  0
 26 25  1  0  0  0  0
 26 18  2  0  0  0  0
 27 18  1  0  0  0  0
 30 23  1  0  0  0  0
 31 26  1  0  0  0  0
M  END
>  <minimizedAffinity>
-5.82549191

$$$$

 OpenBabel03242521353D

 31 34  0  0  0  0  0  0  0  0999 V2000
   36.2850   31.3370   40.7560 C   0  0  0  0  0  0  0  0  0  0  0  0
   36.3390   29.9420   41.0610 C   0  0  0  0  0  0  0  0  0  0  0  0
   37.5920   29.3590   41.1280 C   0  0  0  0  0  0  0  0  0  0  0  0
   38.6850   30.1140   40.9080 N   0  0  0  0  0  0  0  0  0  0  0  0
   38.6020   31.4370   40.6200 C   0  0  0  0  0  0  0  0  0  0  0  0
   37.4160   32.0370   40.5460 N   0  0  0  0  0  0  0  0  0  0  0  0
   35.2830   31.7010   40.7240 H   0  0  0  0  0  0  0  0  0  0  0  0
   35.4740   29.3370   41.2360 H   0  0  0  0  0  0  0  0  0  0  0  0
   39.8010   32.1690   40.4000 N   0  0  0  0  0  0  0  0  0  0  0  0
   41.1030   31.5330   40.4770 C   0  0  0  0  0  3  0  0  0  0  0  0
   41.0670   30.4830   40.7620 H   0  0  0  0  0  0  0  0  0  0  0  0
   41.8840   32.3070   41.5230 C   0  0  0  0  0  3  0  0  0  0  0  0
   41.3830   32.1060   42.5160 H   0  0  0  0  0  0  0  0  0  0  0  0
   41.9000   33.7140   41.2990 N   0  0  0  0  0  0  0  0  0  0  0  0
   41.7710   34.3170   42.1350 H   0  0  0  0  0  0  0  0  0  0  0  0
   41.1580   34.1600   40.1510 C   0  0  0  0  0  2  0  0  0  0  0  0
   39.7650   33.5850   40.0900 C   0  0  0  0  0  2  0  0  0  0  0  0
   36.9680   27.0270   40.8400 C   0  0  0  0  0  0  0  0  0  0  0  0
   37.8120   27.9450   41.4290 C   0  0  0  0  0  0  0  0  0  0  0  0
   38.8050   27.4870   42.2610 C   0  0  0  0  0  0  0  0  0  0  0  0
   39.0000   26.1540   42.5340 C   0  0  0  0  0  0  0  0  0  0  0  0
   39.8930   25.4810   43.3060 N   0  0  0  0  0  0  0  0  0  0  0  0
   39.6150   24.1470   43.2030 C   0  0  0  0  0  0  0  0  0  0  0  0
   38.5380   24.0060   42.3590 N   0  0  0  0  0  0  0  0  0  0  0  0
   38.1490   25.2260   41.9410 C   0  0  0  0  0  0  0  0  0  0  0  0
   37.1500   25.6700   41.1060 C   0  0  0  0  0  0  0  0  0  0  0  0
   36.1570   27.3100   40.1700 H   0  0  0  0  0  0  0  0  0  0  0  0
   39.4540   28.2470   42.7100 H   0  0  0  0  0  0  0  0  0  0  0  0
   40.6660   25.9170   43.8810 H   0  0  0  0  0  0  0  0  0  0  0  0
   40.1550   23.3430   43.7040 H   0  0  0  0  0  0  0  0  0  0  0  0
   36.4940   24.9230   40.6510 H   0  0  0  0  0  0  0  0  0  0  0  0
  1  2  1  0  0  0  0
  2  3  2  0  0  0  0
  2  8  1  0  0  0  0
  3 19  1  0  0  0  0
  4  3  1  0  0  0  0
  5  4  2  0  0  0  0
  6  5  1  0  0  0  0
  6  1  2  0  0  0  0
  7  1  1  0  0  0  0
  9 10  1  0  0  0  0
  9  5  1  0  0  0  0
 10 11  1  0  0  0  0
 10 12  1  0  0  0  0
 12 13  1  0  0  0  0
 14 12  1  0  0  0  0
 14 15  1  0  0  0  0
 16 14  1  0  0  0  0
 17 16  1  0  0  0  0
 17  9  1  0  0  0  0
 18 26  2  0  0  0  0
 18 19  1  0  0  0  0
 19 20  2  0  0  0  0
 20 21  1  0  0  0  0
 20 28  1  0  0  0  0
 21 22  1  0  0  0  0
 22 29  1  0  0  0  0
 23 22  1  0  0  0  0
 23 30  1  0  0  0  0
 24 23  2  0  0  0  0
 25 24  1  0  0  0  0
 25 21  2  0  0  0  0
 26 25  1  0  0  0  0
 27 18  1  0  0  0  0
 31 26  1  0  0  0  0
M  END
>  <minimizedAffinity>
-5.59141111

$$$$

 OpenBabel03242521353D

 31 34  0  0  0  0  0  0  0  0999 V2000
   38.0240   28.9760   43.1480 C   0  0  0  0  0  0  0  0  0  0  0  0
   37.8390   27.6080   42.7830 C   0  0  0  0  0  0  0  0  0  0  0  0
   37.4060   27.3520   41.4930 C   0  0  0  0  0  0  0  0  0  0  0  0
   37.1820   28.3820   40.6540 N   0  0  0  0  0  0  0  0  0  0  0  0
   37.3670   29.6720   41.0300 C   0  0  0  0  0  0  0  0  0  0  0  0
   37.7830   29.9610   42.2620 N   0  0  0  0  0  0  0  0  0  0  0  0
   38.3570   29.0800   44.1560 H   0  0  0  0  0  0  0  0  0  0  0  0
   38.0140   26.7850   43.4440 H   0  0  0  0  0  0  0  0  0  0  0  0
   37.1100   30.7060   40.0890 N   0  0  0  0  0  0  0  0  0  0  0  0
   36.6570   30.4110   38.7430 C   0  0  0  0  0  3  0  0  0  0  0  0
   36.5860   29.3470   38.5220 H   0  0  0  0  0  0  0  0  0  0  0  0
   37.6740   31.0460   37.8130 C   0  0  0  0  0  3  0  0  0  0  0  0
   38.6390   30.4730   37.9460 H   0  0  0  0  0  0  0  0  0  0  0  0
   37.9200   32.4220   38.0890 N   0  0  0  0  0  0  0  0  0  0  0  0
   38.9100   32.7310   38.0500 H   0  0  0  0  0  0  0  0  0  0  0  0
   37.1960   32.9610   39.2080 C   0  0  0  0  0  2  0  0  0  0  0  0
   37.2940   32.1000   40.4440 C   0  0  0  0  0  2  0  0  0  0  0  0
   37.6170   24.9410   41.7210 C   0  0  0  0  0  0  0  0  0  0  0  0
   37.1700   26.0070   40.9690 C   0  0  0  0  0  0  0  0  0  0  0  0
   36.5340   25.7520   39.7790 C   0  0  0  0  0  0  0  0  0  0  0  0
   36.3190   24.4810   39.3000 C   0  0  0  0  0  0  0  0  0  0  0  0
   35.7280   23.9950   38.1770 N   0  0  0  0  0  0  0  0  0  0  0  0
   35.8010   22.6310   38.2220 C   0  0  0  0  0  0  0  0  0  0  0  0
   36.4450   22.2830   39.3850 N   0  0  0  0  0  0  0  0  0  0  0  0
   36.7700   23.4050   40.0570 C   0  0  0  0  0  0  0  0  0  0  0  0
   37.4080   23.6450   41.2510 C   0  0  0  0  0  0  0  0  0  0  0  0
   38.1310   25.0610   42.6750 H   0  0  0  0  0  0  0  0  0  0  0  0
   36.1940   26.6240   39.2110 H   0  0  0  0  0  0  0  0  0  0  0  0
   35.2890   24.5740   37.4090 H   0  0  0  0  0  0  0  0  0  0  0  0
   35.4140   21.9480   37.4650 H   0  0  0  0  0  0  0  0  0  0  0  0
   37.7540   22.7830   41.8300 H   0  0  0  0  0  0  0  0  0  0  0  0
  1  7  1  0  0  0  0
  2  1  1  0  0  0  0
  2  8  1  0  0  0  0
  3  2  2  0  0  0  0
  4  5  2  0  0  0  0
  4  3  1  0  0  0  0
  5  6  1  0  0  0  0
  6  1  2  0  0  0  0
  9 17  1  0  0  0  0
  9  5  1  0  0  0  0
 10  9  1  0  0  0  0
 11 10  1  0  0  0  0
 12 13  1  0  0  0  0
 12 14  1  0  0  0  0
 12 10  1  0  0  0  0
 14 16  1  0  0  0  0
 15 14  1  0  0  0  0
 16 17  1  0  0  0  0
 18 27  1  0  0  0  0
 19  3  1  0  0  0  0
 19 18  2  0  0  0  0
 20 19  1  0  0  0  0
 21 20  2  0  0  0  0
 21 25  1  0  0  0  0
 22 23  1  0  0  0  0
 22 21  1  0  0  0  0
 23 24  2  0  0  0  0
 24 25  1  0  0  0  0
 25 26  2  0  0  0  0
 26 18  1  0  0  0  0
 26 31  1  0  0  0  0
 28 20  1  0  0  0  0
 29 22  1  0  0  0  0
 30 23  1  0  0  0  0
M  END
>  <minimizedAffinity>
-5.57405281

$$$$

 OpenBabel03242521353D

 31 34  0  0  0  0  0  0  0  0999 V2000
   36.2080   31.1660   40.8730 C   0  0  0  0  0  0  0  0  0  0  0  0
   36.2910   29.7590   41.1030 C   0  0  0  0  0  0  0  0  0  0  0  0
   37.5540   29.1930   41.0990 C   0  0  0  0  0  0  0  0  0  0  0  0
   38.6290   29.9750   40.8830 N   0  0  0  0  0  0  0  0  0  0  0  0
   38.5170   31.3100   40.6670 C   0  0  0  0  0  0  0  0  0  0  0  0
   37.3210   31.8940   40.6630 N   0  0  0  0  0  0  0  0  0  0  0  0
   35.2000   31.5150   40.8930 H   0  0  0  0  0  0  0  0  0  0  0  0
   35.4420   29.1310   41.2750 H   0  0  0  0  0  0  0  0  0  0  0  0
   39.6970   32.0710   40.4460 N   0  0  0  0  0  0  0  0  0  0  0  0
   41.0100   31.4540   40.4460 C   0  0  0  0  0  3  0  0  0  0  0  0
   40.9990   30.3900   40.6770 H   0  0  0  0  0  0  0  0  0  0  0  0
   41.8140   32.1860   41.5050 C   0  0  0  0  0  3  0  0  0  0  0  0
   41.3500   31.9250   42.5020 H   0  0  0  0  0  0  0  0  0  0  0  0
   41.8030   33.6020   41.3540 N   0  0  0  0  0  0  0  0  0  0  0  0
   41.6930   34.1590   42.2240 H   0  0  0  0  0  0  0  0  0  0  0  0
   41.0160   34.0940   40.2560 C   0  0  0  0  0  2  0  0  0  0  0  0
   39.6300   33.5010   40.2110 C   0  0  0  0  0  2  0  0  0  0  0  0
   38.6960   27.4220   42.3130 C   0  0  0  0  0  0  0  0  0  0  0  0
   37.8050   27.7690   41.3190 C   0  0  0  0  0  0  0  0  0  0  0  0
   37.2060   26.7670   40.5940 C   0  0  0  0  0  0  0  0  0  0  0  0
   37.4520   25.4330   40.8130 C   0  0  0  0  0  0  0  0  0  0  0  0
   36.9890   24.2920   40.2370 N   0  0  0  0  0  0  0  0  0  0  0  0
   37.5840   23.2340   40.8640 C   0  0  0  0  0  0  0  0  0  0  0  0
   38.4200   23.7360   41.8340 N   0  0  0  0  0  0  0  0  0  0  0  0
   38.3510   25.0820   41.8150 C   0  0  0  0  0  0  0  0  0  0  0  0
   38.9580   26.0740   42.5490 C   0  0  0  0  0  0  0  0  0  0  0  0
   39.2120   28.1580   42.9300 H   0  0  0  0  0  0  0  0  0  0  0  0
   36.5050   27.0820   39.8140 H   0  0  0  0  0  0  0  0  0  0  0  0
   36.2910   24.2380   39.4440 H   0  0  0  0  0  0  0  0  0  0  0  0
   37.4200   22.1810   40.6310 H   0  0  0  0  0  0  0  0  0  0  0  0
   39.6610   25.7740   43.3320 H   0  0  0  0  0  0  0  0  0  0  0  0
  1  7  1  0  0  0  0
  1  2  1  0  0  0  0
  2  8  1  0  0  0  0
  3  2  2  0  0  0  0
  3 19  1  0  0  0  0
  4  3  1  0  0  0  0
  5  4  2  0  0  0  0
  6  5  1  0  0  0  0
  6  1  2  0  0  0  0
  9  5  1  0  0  0  0
 10  9  1  0  0  0  0
 10 11  1  0  0  0  0
 10 12  1  0  0  0  0
 12 13  1  0  0  0  0
 14 12  1  0  0  0  0
 14 15  1  0  0  0  0
 16 14  1  0  0  0  0
 17 16  1  0  0  0  0
 17  9  1  0  0  0  0
 18 26  1  0  0  0  0
 18 27  1  0  0  0  0
 19 18  2  0  0  0  0
 20 21  2  0  0  0  0
 20 19  1  0  0  0  0
 21 25  1  0  0  0  0
 22 21  1  0  0  0  0
 22 23  1  0  0  0  0
 23 24  2  0  0  0  0
 25 24  1  0  0  0  0
 25 26  2  0  0  0  0
 26 31  1  0  0  0  0
 28 20  1  0  0  0  0
 29 22  1  0  0  0  0
 30 23  1  0  0  0  0
M  END
>  <minimizedAffinity>
-5.40438986

$$$$

 OpenBabel03242521353D

 31 34  0  0  0  0  0  0  0  0999 V2000
   39.6160   26.2460   42.9380 C   0  0  0  0  0  0  0  0  0  0  0  0
   40.7940   26.9990   43.2300 C   0  0  0  0  0  0  0  0  0  0  0  0
   40.8460   28.2980   42.7560 C   0  0  0  0  0  0  0  0  0  0  0  0
   39.8070   28.7880   42.0550 N   0  0  0  0  0  0  0  0  0  0  0  0
   38.7000   28.0490   41.7930 C   0  0  0  0  0  0  0  0  0  0  0  0
   38.6100   26.7940   42.2310 N   0  0  0  0  0  0  0  0  0  0  0  0
   39.6620   25.2590   43.3390 H   0  0  0  0  0  0  0  0  0  0  0  0
   41.6240   26.6150   43.7860 H   0  0  0  0  0  0  0  0  0  0  0  0
   37.6420   28.6350   41.0460 N   0  0  0  0  0  0  0  0  0  0  0  0
   37.7220   29.9990   40.5610 C   0  0  0  0  0  3  0  0  0  0  0  0
   38.6260   30.5260   40.8640 H   0  0  0  0  0  0  0  0  0  0  0  0
   36.5120   30.7160   41.1340 C   0  0  0  0  0  3  0  0  0  0  0  0
   36.6690   30.7770   42.2510 H   0  0  0  0  0  0  0  0  0  0  0  0
   35.2800   30.0470   40.8830 N   0  0  0  0  0  0  0  0  0  0  0  0
   34.6060   30.0100   41.6720 H   0  0  0  0  0  0  0  0  0  0  0  0
   35.3920   28.8060   40.1660 C   0  0  0  0  0  2  0  0  0  0  0  0
   36.4390   27.8850   40.7410 C   0  0  0  0  0  2  0  0  0  0  0  0
   43.1960   28.6230   43.2930 C   0  0  0  0  0  0  0  0  0  0  0  0
   41.9820   29.1940   42.9720 C   0  0  0  0  0  0  0  0  0  0  0  0
   41.9040   30.5620   42.8740 C   0  0  0  0  0  0  0  0  0  0  0  0
   42.9810   31.3910   43.0790 C   0  0  0  0  0  0  0  0  0  0  0  0
   43.1410   32.7410   43.0380 N   0  0  0  0  0  0  0  0  0  0  0  0
   44.4470   33.0170   43.3310 C   0  0  0  0  0  0  0  0  0  0  0  0
   45.0900   31.8230   43.5530 N   0  0  0  0  0  0  0  0  0  0  0  0
   44.2060   30.8160   43.4040 C   0  0  0  0  0  0  0  0  0  0  0  0
   44.2990   29.4480   43.5060 C   0  0  0  0  0  0  0  0  0  0  0  0
   43.3380   27.5470   43.3910 H   0  0  0  0  0  0  0  0  0  0  0  0
   40.9240   30.9780   42.6180 H   0  0  0  0  0  0  0  0  0  0  0  0
   42.3850   33.4470   42.8170 H   0  0  0  0  0  0  0  0  0  0  0  0
   44.8920   34.0120   43.3770 H   0  0  0  0  0  0  0  0  0  0  0  0
   45.2720   29.0180   43.7610 H   0  0  0  0  0  0  0  0  0  0  0  0
  1  2  1  0  0  0  0
  1  7  1  0  0  0  0
  2  8  1  0  0  0  0
  3 19  1  0  0  0  0
  3  2  2  0  0  0  0
  4  3  1  0  0  0  0
  5  4  2  0  0  0  0
  5  6  1  0  0  0  0
  6  1  2  0  0  0  0
  9  5  1  0  0  0  0
 10 11  1  0  0  0  0
 10  9  1  0  0  0  0
 10 12  1  0  0  0  0
 12 13  1  0  0  0  0
 14 12  1  0  0  0  0
 14 15  1  0  0  0  0
 16 17  1  0  0  0  0
 16 14  1  0  0  0  0
 17  9  1  0  0  0  0
 18 27  1  0  0  0  0
 18 26  1  0  0  0  0
 19 18  2  0  0  0  0
 20 19  1  0  0  0  0
 20 21  2  0  0  0  0
 21 25  1  0  0  0  0
 22 21  1  0  0  0  0
 22 23  1  0  0  0  0
 23 30  1  0  0  0  0
 23 24  2  0  0  0  0
 25 26  2  0  0  0  0
 25 24  1  0  0  0  0
 26 31  1  0  0  0  0
 28 20  1  0  0  0  0
 29 22  1  0  0  0  0
M  END
>  <minimizedAffinity>
-5.23759508

$$$$

 OpenBabel03242521353D

 31 34  0  0  0  0  0  0  0  0999 V2000
   34.7910   26.4740   37.3460 C   0  0  0  0  0  0  0  0  0  0  0  0
   35.6200   27.3930   38.0590 C   0  0  0  0  0  0  0  0  0  0  0  0
   35.1660   28.6950   38.1750 C   0  0  0  0  0  0  0  0  0  0  0  0
   33.9850   29.0350   37.6230 N   0  0  0  0  0  0  0  0  0  0  0  0
   33.2190   28.1390   36.9510 C   0  0  0  0  0  0  0  0  0  0  0  0
   33.6200   26.8770   36.8170 N   0  0  0  0  0  0  0  0  0  0  0  0
   35.2170   25.4980   37.3060 H   0  0  0  0  0  0  0  0  0  0  0  0
   36.5590   27.1300   38.5000 H   0  0  0  0  0  0  0  0  0  0  0  0
   31.9840   28.5720   36.3960 N   0  0  0  0  0  0  0  0  0  0  0  0
   31.5300   29.9430   36.5310 C   0  0  0  0  0  3  0  0  0  0  0  0
   32.1890   30.5710   37.1280 H   0  0  0  0  0  0  0  0  0  0  0  0
   30.1710   29.8670   37.2030 C   0  0  0  0  0  3  0  0  0  0  0  0
   30.3490   29.4960   38.2550 H   0  0  0  0  0  0  0  0  0  0  0  0
   29.2620   28.9810   36.5560 N   0  0  0  0  0  0  0  0  0  0  0  0
   28.6890   28.3750   37.1740 H   0  0  0  0  0  0  0  0  0  0  0  0
   29.7890   28.2940   35.4080 C   0  0  0  0  0  2  0  0  0  0  0  0
   31.1290   27.6520   35.6700 C   0  0  0  0  0  2  0  0  0  0  0  0
   35.6850   29.8890   40.2280 C   0  0  0  0  0  0  0  0  0  0  0  0
   35.8990   29.7500   38.8730 C   0  0  0  0  0  0  0  0  0  0  0  0
   36.7820   30.6030   38.2560 C   0  0  0  0  0  0  0  0  0  0  0  0
   37.4640   31.5900   38.9260 C   0  0  0  0  0  0  0  0  0  0  0  0
   38.3650   32.5310   38.5370 N   0  0  0  0  0  0  0  0  0  0  0  0
   38.7170   33.2560   39.6410 C   0  0  0  0  0  0  0  0  0  0  0  0
   38.0210   32.7530   40.7140 N   0  0  0  0  0  0  0  0  0  0  0  0
   37.2480   31.7320   40.2940 C   0  0  0  0  0  0  0  0  0  0  0  0
   36.3680   30.8850   40.9250 C   0  0  0  0  0  0  0  0  0  0  0  0
   35.0000   29.2530   40.7890 H   0  0  0  0  0  0  0  0  0  0  0  0
   36.9250   30.4620   37.1790 H   0  0  0  0  0  0  0  0  0  0  0  0
   38.7280   32.6710   37.5540 H   0  0  0  0  0  0  0  0  0  0  0  0
   39.4250   34.0860   39.6580 H   0  0  0  0  0  0  0  0  0  0  0  0
   36.2140   31.0140   42.0000 H   0  0  0  0  0  0  0  0  0  0  0  0
  1  2  1  0  0  0  0
  2  3  2  0  0  0  0
  2  8  1  0  0  0  0
  3 19  1  0  0  0  0
  4  3  1  0  0  0  0
  5  4  2  0  0  0  0
  6  5  1  0  0  0  0
  6  1  2  0  0  0  0
  7  1  1  0  0  0  0
  9 10  1  0  0  0  0
  9  5  1  0  0  0  0
 10 11  1  0  0  0  0
 10 12  1  0  0  0  0
 12 13  1  0  0  0  0
 14 15  1  0  0  0  0
 14 12  1  0  0  0  0
 16 17  1  0  0  0  0
 16 14  1  0  0  0  0
 17  9  1  0  0  0  0
 18 27  1  0  0  0  0
 18 26  1  0  0  0  0
 19 18  2  0  0  0  0
 20 19  1  0  0  0  0
 20 21  2  0  0  0  0
 21 25  1  0  0  0  0
 22 21  1  0  0  0  0
 22 23  1  0  0  0  0
 23 30  1  0  0  0  0
 23 24  2  0  0  0  0
 25 24  1  0  0  0  0
 25 26  2  0  0  0  0
 26 31  1  0  0  0  0
 28 20  1  0  0  0  0
 29 22  1  0  0  0  0
M  END
>  <minimizedAffinity>
-5.0994916

$$$$

 OpenBabel03242521353D

 31 34  0  0  0  0  0  0  0  0999 V2000
   37.9090   28.9480   42.9800 C   0  0  0  0  0  0  0  0  0  0  0  0
   37.4430   27.7730   42.3160 C   0  0  0  0  0  0  0  0  0  0  0  0
   37.2290   27.8630   40.9520 C   0  0  0  0  0  0  0  0  0  0  0  0
   37.4620   29.0290   40.3210 N   0  0  0  0  0  0  0  0  0  0  0  0
   37.9040   30.1300   40.9800 C   0  0  0  0  0  0  0  0  0  0  0  0
   38.1230   30.0860   42.2920 N   0  0  0  0  0  0  0  0  0  0  0  0
   38.0460   28.7890   44.0260 H   0  0  0  0  0  0  0  0  0  0  0  0
   37.2560   26.8430   42.8110 H   0  0  0  0  0  0  0  0  0  0  0  0
   38.1280   31.3260   40.2460 N   0  0  0  0  0  0  0  0  0  0  0  0
   37.8950   31.3950   38.8160 C   0  0  0  0  0  3  0  0  0  0  0  0
   37.5890   30.4490   38.3710 H   0  0  0  0  0  0  0  0  0  0  0  0
   39.2110   31.8330   38.2000 C   0  0  0  0  0  3  0  0  0  0  0  0
   39.9400   30.9840   38.3530 H   0  0  0  0  0  0  0  0  0  0  0  0
   39.7540   33.0110   38.7900 N   0  0  0  0  0  0  0  0  0  0  0  0
   40.7770   33.0110   38.9630 H   0  0  0  0  0  0  0  0  0  0  0  0
   38.9880   33.5610   39.8750 C   0  0  0  0  0  2  0  0  0  0  0  0
   38.6010   32.5290   40.9050 C   0  0  0  0  0  2  0  0  0  0  0  0
   36.1640   27.0520   38.9220 C   0  0  0  0  0  0  0  0  0  0  0  0
   36.7540   26.7490   40.1310 C   0  0  0  0  0  0  0  0  0  0  0  0
   36.8630   25.4290   40.4980 C   0  0  0  0  0  0  0  0  0  0  0  0
   36.4130   24.3930   39.7150 C   0  0  0  0  0  0  0  0  0  0  0  0
   36.4110   23.0420   39.8650 N   0  0  0  0  0  0  0  0  0  0  0  0
   35.8250   22.4980   38.7580 C   0  0  0  0  0  0  0  0  0  0  0  0
   35.4640   23.5290   37.9230 N   0  0  0  0  0  0  0  0  0  0  0  0
   35.8160   24.6970   38.4950 C   0  0  0  0  0  0  0  0  0  0  0  0
   35.7000   26.0140   38.1150 C   0  0  0  0  0  0  0  0  0  0  0  0
   36.0390   28.0720   38.5610 H   0  0  0  0  0  0  0  0  0  0  0  0
   37.3370   25.2300   41.4650 H   0  0  0  0  0  0  0  0  0  0  0  0
   36.7990   22.5120   40.6940 H   0  0  0  0  0  0  0  0  0  0  0  0
   35.6740   21.4330   38.5760 H   0  0  0  0  0  0  0  0  0  0  0  0
   35.2280   26.2290   37.1510 H   0  0  0  0  0  0  0  0  0  0  0  0
  1  7  1  0  0  0  0
  2  8  1  0  0  0  0
  2  1  1  0  0  0  0
  3  2  2  0  0  0  0
  4  3  1  0  0  0  0
  4  5  2  0  0  0  0
  5  6  1  0  0  0  0
  6  1  2  0  0  0  0
  9 17  1  0  0  0  0
  9  5  1  0  0  0  0
 10  9  1  0  0  0  0
 11 10  1  0  0  0  0
 12 13  1  0  0  0  0
 12 14  1  0  0  0  0
 12 10  1  0  0  0  0
 14 15  1  0  0  0  0
 14 16  1  0  0  0  0
 16 17  1  0  0  0  0
 18 19  1  0  0  0  0
 19 20  2  0  0  0  0
 19  3  1  0  0  0  0
 20 28  1  0  0  0  0
 21 22  1  0  0  0  0
 21 20  1  0  0  0  0
 22 29  1  0  0  0  0
 23 22  1  0  0  0  0
 24 25  1  0  0  0  0
 24 23  2  0  0  0  0
 25 21  2  0  0  0  0
 26 25  1  0  0  0  0
 26 18  2  0  0  0  0
 27 18  1  0  0  0  0
 30 23  1  0  0  0  0
 31 26  1  0  0  0  0
M  END
>  <minimizedAffinity>
-5.06255007

$$$$

 OpenBabel03242521353D

 31 34  0  0  0  0  0  0  0  0999 V2000
   39.2070   30.1510   42.7240 C   0  0  0  0  0  0  0  0  0  0  0  0
   38.0620   29.6630   42.0240 C   0  0  0  0  0  0  0  0  0  0  0  0
   37.8210   30.1860   40.7660 C   0  0  0  0  0  0  0  0  0  0  0  0
   38.6590   31.1130   40.2640 N   0  0  0  0  0  0  0  0  0  0  0  0
   39.7400   31.5570   40.9530 C   0  0  0  0  0  0  0  0  0  0  0  0
   40.0070   31.0800   42.1670 N   0  0  0  0  0  0  0  0  0  0  0  0
   39.3150   29.6950   43.6820 H   0  0  0  0  0  0  0  0  0  0  0  0
   37.3920   28.9270   42.4180 H   0  0  0  0  0  0  0  0  0  0  0  0
   40.5790   32.5380   40.3570 N   0  0  0  0  0  0  0  0  0  0  0  0
   40.3040   33.0710   39.0370 C   0  0  0  0  0  3  0  0  0  0  0  0
   39.4450   32.6170   38.5460 H   0  0  0  0  0  0  0  0  0  0  0  0
   41.5490   32.8020   38.2120 C   0  0  0  0  0  3  0  0  0  0  0  0
   41.6180   31.6810   38.0840 H   0  0  0  0  0  0  0  0  0  0  0  0
   42.7510   33.2650   38.8220 N   0  0  0  0  0  0  0  0  0  0  0  0
   43.5720   32.6320   38.7650 H   0  0  0  0  0  0  0  0  0  0  0  0
   42.5850   33.8740   40.1140 C   0  0  0  0  0  2  0  0  0  0  0  0
   41.7460   33.0440   41.0540 C   0  0  0  0  0  2  0  0  0  0  0  0
   35.5140   29.4450   40.5580 C   0  0  0  0  0  0  0  0  0  0  0  0
   36.6910   29.7900   39.9260 C   0  0  0  0  0  0  0  0  0  0  0  0
   36.7390   29.7420   38.5540 C   0  0  0  0  0  0  0  0  0  0  0  0
   35.6680   29.3670   37.7780 C   0  0  0  0  0  0  0  0  0  0  0  0
   35.4850   29.2470   36.4370 N   0  0  0  0  0  0  0  0  0  0  0  0
   34.2000   28.8300   36.2250 C   0  0  0  0  0  0  0  0  0  0  0  0
   33.5950   28.6950   37.4520 N   0  0  0  0  0  0  0  0  0  0  0  0
   34.4810   29.0190   38.4140 C   0  0  0  0  0  0  0  0  0  0  0  0
   34.4180   29.0620   39.7870 C   0  0  0  0  0  0  0  0  0  0  0  0
   35.3970   29.4570   41.6420 H   0  0  0  0  0  0  0  0  0  0  0  0
   37.6910   30.0220   38.0890 H   0  0  0  0  0  0  0  0  0  0  0  0
   36.2100   29.4440   35.6930 H   0  0  0  0  0  0  0  0  0  0  0  0
   33.7440   28.6420   35.2530 H   0  0  0  0  0  0  0  0  0  0  0  0
   33.4730   28.7850   40.2660 H   0  0  0  0  0  0  0  0  0  0  0  0
  1  7  1  0  0  0  0
  2  8  1  0  0  0  0
  2  1  2  0  0  0  0
  3  2  1  0  0  0  0
  4  3  2  0  0  0  0
  4  5  1  0  0  0  0
  5  6  2  0  0  0  0
  6  1  1  0  0  0  0
  9  5  1  0  0  0  0
  9 17  1  0  0  0  0
 10  9  1  0  0  0  0
 11 10  1  0  0  0  0
 12 14  1  0  0  0  0
 12 10  1  0  0  0  0
 13 12  1  0  0  0  0
 14 16  1  0  0  0  0
 15 14  1  0  0  0  0
 16 17  1  0  0  0  0
 18 27  1  0  0  0  0
 19 18  1  0  0  0  0
 19  3  1  0  0  0  0
 20 19  2  0  0  0  0
 21 25  2  0  0  0  0
 21 20  1  0  0  0  0
 22 21  1  0  0  0  0
 23 22  1  0  0  0  0
 23 24  2  0  0  0  0
 24 25  1  0  0  0  0
 25 26  1  0  0  0  0
 26 31  1  0  0  0  0
 26 18  2  0  0  0  0
 28 20  1  0  0  0  0
 29 22  1  0  0  0  0
 30 23  1  0  0  0  0
M  END
>  <minimizedAffinity>
-5.0447464

$$$$
