
 OpenBabel03252507423D

 31 33  0  0  0  0  0  0  0  0999 V2000
   45.8510   34.5680   41.9400 C   0  0  0  0  0  0  0  0  0  0  0  0
   45.9610   33.8280   42.7620 H   0  0  0  0  0  0  0  0  0  0  0  0
   46.1320   35.5540   42.3650 H   0  0  0  0  0  0  0  0  0  0  0  0
   44.4520   34.6530   41.4290 C   0  0  0  0  0  0  0  0  0  0  0  0
   43.6350   35.7850   41.7700 C   0  0  0  0  0  0  0  0  0  0  0  0
   42.0550   35.4090   40.9100 S   0  0  0  0  0  0  0  0  0  0  0  0
   42.7730   33.7820   40.2360 C   0  0  0  0  0  0  0  0  0  0  0  0
   43.8330   33.7860   40.6660 N   0  0  0  0  0  0  0  0  0  0  0  0
   43.9230   36.6150   42.3790 H   0  0  0  0  0  0  0  0  0  0  0  0
   42.0300   32.8870   39.4070 N   0  0  0  0  0  0  0  0  0  0  0  0
   42.2810   31.4760   39.4270 C   0  0  0  0  0  3  0  0  0  0  0  0
   42.6930   31.1180   38.4630 H   0  0  0  0  0  0  0  0  0  0  0  0
   40.9670   30.7660   39.6600 C   0  0  0  0  0  3  0  0  0  0  0  0
   41.0950   29.6690   39.5320 H   0  0  0  0  0  0  0  0  0  0  0  0
   39.8690   31.3010   38.9200 N   0  0  0  0  0  0  0  0  0  0  0  0
   39.4130   30.5300   38.3690 H   0  0  0  0  0  0  0  0  0  0  0  0
   40.1920   32.3400   37.9910 C   0  0  0  0  0  2  0  0  0  0  0  0
   41.0260   33.4440   38.5540 C   0  0  0  0  0  2  0  0  0  0  0  0
   46.8660   34.2710   40.8730 C   0  0  0  0  0  0  0  0  0  0  0  0
   46.8660   35.1850   40.2080 H   0  0  0  0  0  0  0  0  0  0  0  0
   46.5240   33.4510   40.2580 H   0  0  0  0  0  0  0  0  0  0  0  0
   48.2320   34.0730   41.3960 C   0  0  0  0  0  0  0  0  0  0  0  0
   48.8600   32.8710   41.0800 C   0  0  0  0  0  0  0  0  0  0  0  0
   50.1460   32.6360   41.5480 C   0  0  0  0  0  0  0  0  0  0  0  0
   50.7430   33.5960   42.3020 N   0  0  0  0  0  0  0  0  0  0  0  0
   50.1120   34.7410   42.5870 C   0  0  0  0  0  0  0  0  0  0  0  0
   48.8820   34.9610   42.1370 N   0  0  0  0  0  0  0  0  0  0  0  0
   50.6760   31.7040   41.3230 H   0  0  0  0  0  0  0  0  0  0  0  0
   50.7020   35.4170   43.1950 H   0  0  0  0  0  0  0  0  0  0  0  0
   48.0180   31.6330   40.0740 S   0  0  0  0  0  0  0  0  0  0  0  0
   49.0280   30.8570   39.4760 H   0  0  0  0  0  0  0  0  0  0  0  0
  1  3  1  0  0  0  0
  1  2  1  0  0  0  0
  4  5  2  0  0  0  0
  4  1  1  0  0  0  0
  5  9  1  0  0  0  0
  6  5  1  0  0  0  0
  7  8  2  0  0  0  0
  7  6  1  0  0  0  0
  8  4  1  0  0  0  0
 10 11  1  0  0  0  0
 10  7  1  0  0  0  0
 11 13  1  0  0  0  0
 12 11  1  0  0  0  0
 14 13  1  0  0  0  0
 15 13  1  0  0  0  0
 16 15  1  0  0  0  0
 17 18  1  0  0  0  0
 17 15  1  0  0  0  0
 18 10  1  0  0  0  0
 19 22  1  0  0  0  0
 19  1  1  0  0  0  0
 20 19  1  0  0  0  0
 21 19  1  0  0  0  0
 22 27  1  0  0  0  0
 23 22  2  0  0  0  0
 23 24  1  0  0  0  0
 24 25  2  0  0  0  0
 25 26  1  0  0  0  0
 26 29  1  0  0  0  0
 27 26  2  0  0  0  0
 28 24  1  0  0  0  0
 30 23  1  0  0  0  0
 31 30  1  0  0  0  0
M  END
>  <minimizedAffinity>
-4.37058544

>  <minimizedRMSD>
1.06699109

$$$$
