
 OpenBabel03242523153D

 25 27  0  0  0  0  0  0  0  0999 V2000
   38.1270   30.8990   41.2770 C   0  0  0  0  0  0  0  0  0  0  0  0
   36.9980   30.0710   41.2730 C   0  0  0  0  0  0  0  0  0  0  0  0
   36.9480   28.9750   42.1350 C   0  0  0  0  0  0  0  0  0  0  0  0
   38.0310   28.7600   42.9590 N   0  0  0  0  0  0  0  0  0  0  0  0
   39.0860   29.5720   42.9290 C   0  0  0  0  0  0  0  0  0  0  0  0
   39.1550   30.6530   42.0920 N   0  0  0  0  0  0  0  0  0  0  0  0
   36.0620   28.3940   42.0800 H   0  0  0  0  0  0  0  0  0  0  0  0
   39.7830   29.1770   43.6660 H   0  0  0  0  0  0  0  0  0  0  0  0
   38.5550   32.0730   40.6070 N   0  0  0  0  0  0  0  0  0  0  0  0
   38.8640   33.4420   40.8630 C   0  0  0  0  0  3  0  0  0  0  0  0
   38.0980   34.1320   40.4010 H   0  0  0  0  0  0  0  0  0  0  0  0
   40.1780   33.8180   40.2520 C   0  0  0  0  0  3  0  0  0  0  0  0
   41.0550   33.2990   40.6720 H   0  0  0  0  0  0  0  0  0  0  0  0
   40.2290   33.5970   38.8050 N   0  0  0  0  0  0  0  0  0  0  0  0
   39.3780   34.0480   38.4030 H   0  0  0  0  0  0  0  0  0  0  0  0
   40.0580   32.1590   38.6310 C   0  0  0  0  0  2  0  0  0  0  0  0
   38.7110   31.8100   39.1620 C   0  0  0  0  0  2  0  0  0  0  0  0
   35.8780   30.2900   40.3070 C   0  0  0  0  0  0  0  0  0  0  0  0
   35.8310   29.6600   39.0320 C   0  0  0  0  0  0  0  0  0  0  0  0
   34.8970   29.1110   40.0750 C   0  0  0  0  0  0  0  0  0  0  0  0
   35.1750   31.1070   40.6610 H   0  0  0  0  0  0  0  0  0  0  0  0
   36.4170   28.8200   38.6180 H   0  0  0  0  0  0  0  0  0  0  0  0
   35.2610   30.1600   38.1710 H   0  0  0  0  0  0  0  0  0  0  0  0
   33.8290   29.3170   40.0280 H   0  0  0  0  0  0  0  0  0  0  0  0
   35.1750   28.2170   40.6650 H   0  0  0  0  0  0  0  0  0  0  0  0
  1  6  1  0  0  0  0
  2  1  2  0  0  0  0
  2  3  1  0  0  0  0
  3  4  2  0  0  0  0
  5  4  1  0  0  0  0
  5  8  1  0  0  0  0
  6  5  2  0  0  0  0
  7  3  1  0  0  0  0
  9 10  1  0  0  0  0
  9  1  1  0  0  0  0
 11 10  1  0  0  0  0
 12 13  1  0  0  0  0
 12 10  1  0  0  0  0
 14 12  1  0  0  0  0
 15 14  1  0  0  0  0
 16 14  1  0  0  0  0
 16 17  1  0  0  0  0
 17  9  1  0  0  0  0
 18 21  1  0  0  0  0
 18  2  1  0  0  0  0
 19 20  1  0  0  0  0
 19 18  1  0  0  0  0
 20 18  1  0  0  0  0
 20 25  1  0  0  0  0
 22 19  1  0  0  0  0
 23 19  1  0  0  0  0
 24 20  1  0  0  0  0
M  END
>  <minimizedAffinity>
-4.56894732

$$$$

 OpenBabel03242523153D

 25 27  0  0  0  0  0  0  0  0999 V2000
   38.5220   29.3930   40.6690 C   0  0  0  0  0  0  0  0  0  0  0  0
   38.0140   28.1840   41.1600 C   0  0  0  0  0  0  0  0  0  0  0  0
   38.4730   26.9800   40.6260 C   0  0  0  0  0  0  0  0  0  0  0  0
   39.4180   27.0420   39.6250 N   0  0  0  0  0  0  0  0  0  0  0  0
   39.8720   28.2150   39.1860 C   0  0  0  0  0  0  0  0  0  0  0  0
   39.4370   29.4080   39.6960 N   0  0  0  0  0  0  0  0  0  0  0  0
   38.0470   26.1040   41.0470 H   0  0  0  0  0  0  0  0  0  0  0  0
   40.5950   27.9770   38.4070 H   0  0  0  0  0  0  0  0  0  0  0  0
   38.3500   30.7750   40.9340 N   0  0  0  0  0  0  0  0  0  0  0  0
   39.0680   31.9020   41.4320 C   0  0  0  0  0  3  0  0  0  0  0  0
   38.6720   32.2330   42.4370 H   0  0  0  0  0  0  0  0  0  0  0  0
   38.9120   33.0810   40.5220 C   0  0  0  0  0  3  0  0  0  0  0  0
   39.3450   32.9550   39.5170 H   0  0  0  0  0  0  0  0  0  0  0  0
   37.5170   33.4760   40.3180 N   0  0  0  0  0  0  0  0  0  0  0  0
   37.0860   33.5550   41.2650 H   0  0  0  0  0  0  0  0  0  0  0  0
   36.8850   32.3330   39.6690 C   0  0  0  0  0  2  0  0  0  0  0  0
   36.9680   31.1880   40.6190 C   0  0  0  0  0  2  0  0  0  0  0  0
   36.9310   28.1590   42.1890 C   0  0  0  0  0  0  0  0  0  0  0  0
   36.6760   27.0210   43.0070 C   0  0  0  0  0  0  0  0  0  0  0  0
   37.3630   28.1770   43.6800 C   0  0  0  0  0  0  0  0  0  0  0  0
   36.2750   29.0830   42.1290 H   0  0  0  0  0  0  0  0  0  0  0  0
   37.2750   26.1110   43.1870 H   0  0  0  0  0  0  0  0  0  0  0  0
   35.6220   26.8480   43.4280 H   0  0  0  0  0  0  0  0  0  0  0  0
   36.8230   28.8160   44.3760 H   0  0  0  0  0  0  0  0  0  0  0  0
   38.4640   28.1890   43.7920 H   0  0  0  0  0  0  0  0  0  0  0  0
  1  9  1  0  0  0  0
  1  2  1  0  0  0  0
  2 18  1  0  0  0  0
  3  7  1  0  0  0  0
  3  2  2  0  0  0  0
  4  3  1  0  0  0  0
  5  4  2  0  0  0  0
  5  6  1  0  0  0  0
  6  1  2  0  0  0  0
  8  5  1  0  0  0  0
  9 10  1  0  0  0  0
 10 11  1  0  0  0  0
 12 10  1  0  0  0  0
 13 12  1  0  0  0  0
 14 12  1  0  0  0  0
 14 15  1  0  0  0  0
 16 14  1  0  0  0  0
 16 17  1  0  0  0  0
 17  9  1  0  0  0  0
 18 19  1  0  0  0  0
 18 20  1  0  0  0  0
 19 22  1  0  0  0  0
 19 23  1  0  0  0  0
 19 20  1  0  0  0  0
 20 25  1  0  0  0  0
 20 24  1  0  0  0  0
 21 18  1  0  0  0  0
M  END
>  <minimizedAffinity>
-4.49719

$$$$

 OpenBabel03242523153D

 25 27  0  0  0  0  0  0  0  0999 V2000
   39.9110   27.8850   42.4120 C   0  0  0  0  0  0  0  0  0  0  0  0
   38.6890   28.2970   42.9580 C   0  0  0  0  0  0  0  0  0  0  0  0
   38.3510   29.6500   42.9410 C   0  0  0  0  0  0  0  0  0  0  0  0
   39.2530   30.5270   42.3800 N   0  0  0  0  0  0  0  0  0  0  0  0
   40.4060   30.0920   41.8730 C   0  0  0  0  0  0  0  0  0  0  0  0
   40.7570   28.7700   41.8790 N   0  0  0  0  0  0  0  0  0  0  0  0
   37.4100   29.8890   43.3690 H   0  0  0  0  0  0  0  0  0  0  0  0
   40.9180   30.9790   41.5040 H   0  0  0  0  0  0  0  0  0  0  0  0
   40.6010   26.6610   42.2160 N   0  0  0  0  0  0  0  0  0  0  0  0
   41.0590   25.8060   41.1710 C   0  0  0  0  0  3  0  0  0  0  0  0
   40.4800   24.8370   41.1460 H   0  0  0  0  0  0  0  0  0  0  0  0
   42.4910   25.4240   41.3810 C   0  0  0  0  0  3  0  0  0  0  0  0
   43.2100   26.2580   41.3320 H   0  0  0  0  0  0  0  0  0  0  0  0
   42.7310   24.7550   42.6620 N   0  0  0  0  0  0  0  0  0  0  0  0
   42.0250   23.9910   42.7380 H   0  0  0  0  0  0  0  0  0  0  0  0
   42.3850   25.7410   43.6800 C   0  0  0  0  0  2  0  0  0  0  0  0
   40.9360   26.0490   43.5180 C   0  0  0  0  0  2  0  0  0  0  0  0
   37.7740   27.3260   43.6320 C   0  0  0  0  0  0  0  0  0  0  0  0
   36.3550   27.4330   43.5610 C   0  0  0  0  0  0  0  0  0  0  0  0
   36.9780   26.3490   42.7250 C   0  0  0  0  0  0  0  0  0  0  0  0
   38.3440   26.6070   44.2980 H   0  0  0  0  0  0  0  0  0  0  0  0
   35.7080   28.0430   42.9070 H   0  0  0  0  0  0  0  0  0  0  0  0
   35.7100   27.0000   44.4050 H   0  0  0  0  0  0  0  0  0  0  0  0
   36.8990   25.3050   43.0200 H   0  0  0  0  0  0  0  0  0  0  0  0
   37.1880   26.5170   41.6510 H   0  0  0  0  0  0  0  0  0  0  0  0
  1  2  1  0  0  0  0
  2 18  1  0  0  0  0
  3  2  2  0  0  0  0
  3  7  1  0  0  0  0
  4  3  1  0  0  0  0
  5  6  1  0  0  0  0
  5  4  2  0  0  0  0
  6  1  2  0  0  0  0
  8  5  1  0  0  0  0
  9  1  1  0  0  0  0
  9 17  1  0  0  0  0
 10 12  1  0  0  0  0
 10  9  1  0  0  0  0
 11 10  1  0  0  0  0
 12 14  1  0  0  0  0
 13 12  1  0  0  0  0
 14 15  1  0  0  0  0
 14 16  1  0  0  0  0
 17 16  1  0  0  0  0
 18 21  1  0  0  0  0
 19 18  1  0  0  0  0
 19 23  1  0  0  0  0
 20 24  1  0  0  0  0
 20 19  1  0  0  0  0
 20 18  1  0  0  0  0
 22 19  1  0  0  0  0
 25 20  1  0  0  0  0
M  END
>  <minimizedAffinity>
-4.37452459

$$$$

 OpenBabel03242523153D

 25 27  0  0  0  0  0  0  0  0999 V2000
   37.0860   29.8920   38.8420 C   0  0  0  0  0  0  0  0  0  0  0  0
   36.9690   31.0740   39.5810 C   0  0  0  0  0  0  0  0  0  0  0  0
   36.3690   31.0400   40.8400 C   0  0  0  0  0  0  0  0  0  0  0  0
   35.9130   29.8240   41.2980 N   0  0  0  0  0  0  0  0  0  0  0  0
   36.0420   28.7220   40.5600 C   0  0  0  0  0  0  0  0  0  0  0  0
   36.6290   28.7330   39.3230 N   0  0  0  0  0  0  0  0  0  0  0  0
   36.3170   31.9720   41.3440 H   0  0  0  0  0  0  0  0  0  0  0  0
   35.6040   27.9190   41.1500 H   0  0  0  0  0  0  0  0  0  0  0  0
   37.6220   29.5000   37.5890 N   0  0  0  0  0  0  0  0  0  0  0  0
   38.6610   28.6960   37.0340 C   0  0  0  0  0  3  0  0  0  0  0  0
   39.4580   29.3300   36.5450 H   0  0  0  0  0  0  0  0  0  0  0  0
   38.1300   27.8010   35.9580 C   0  0  0  0  0  3  0  0  0  0  0  0
   37.4040   27.0440   36.2950 H   0  0  0  0  0  0  0  0  0  0  0  0
   37.4790   28.5300   34.8670 N   0  0  0  0  0  0  0  0  0  0  0  0
   38.1420   29.2790   34.5690 H   0  0  0  0  0  0  0  0  0  0  0  0
   36.3410   29.2030   35.4810 C   0  0  0  0  0  2  0  0  0  0  0  0
   36.8860   30.1550   36.4890 C   0  0  0  0  0  2  0  0  0  0  0  0
   37.4030   32.3890   39.0170 C   0  0  0  0  0  0  0  0  0  0  0  0
   37.5940   33.5460   39.8250 C   0  0  0  0  0  0  0  0  0  0  0  0
   38.8440   32.8640   39.3410 C   0  0  0  0  0  0  0  0  0  0  0  0
   37.4160   32.3730   37.8830 H   0  0  0  0  0  0  0  0  0  0  0  0
   37.6650   33.6580   40.9210 H   0  0  0  0  0  0  0  0  0  0  0  0
   37.4720   34.5890   39.3630 H   0  0  0  0  0  0  0  0  0  0  0  0
   39.4440   33.3030   38.5460 H   0  0  0  0  0  0  0  0  0  0  0  0
   39.3810   32.1460   39.9900 H   0  0  0  0  0  0  0  0  0  0  0  0
  1  6  2  0  0  0  0
  1  2  1  0  0  0  0
  2  3  2  0  0  0  0
  3  4  1  0  0  0  0
  3  7  1  0  0  0  0
  5  8  1  0  0  0  0
  5  4  2  0  0  0  0
  6  5  1  0  0  0  0
  9  1  1  0  0  0  0
 10  9  1  0  0  0  0
 11 10  1  0  0  0  0
 12 13  1  0  0  0  0
 12 10  1  0  0  0  0
 14 16  1  0  0  0  0
 14 12  1  0  0  0  0
 15 14  1  0  0  0  0
 16 17  1  0  0  0  0
 17  9  1  0  0  0  0
 18 20  1  0  0  0  0
 18  2  1  0  0  0  0
 18 19  1  0  0  0  0
 19 22  1  0  0  0  0
 20 19  1  0  0  0  0
 20 25  1  0  0  0  0
 21 18  1  0  0  0  0
 23 19  1  0  0  0  0
 24 20  1  0  0  0  0
M  END
>  <minimizedAffinity>
-4.35565138

$$$$

 OpenBabel03242523153D

 25 27  0  0  0  0  0  0  0  0999 V2000
   38.6740   27.9120   40.6030 C   0  0  0  0  0  0  0  0  0  0  0  0
   39.1530   26.6980   41.1080 C   0  0  0  0  0  0  0  0  0  0  0  0
   39.9300   25.8740   40.2940 C   0  0  0  0  0  0  0  0  0  0  0  0
   40.1900   26.3050   39.0110 N   0  0  0  0  0  0  0  0  0  0  0  0
   39.7120   27.4680   38.5700 C   0  0  0  0  0  0  0  0  0  0  0  0
   38.9490   28.2910   39.3530 N   0  0  0  0  0  0  0  0  0  0  0  0
   40.2600   24.9710   40.7430 H   0  0  0  0  0  0  0  0  0  0  0  0
   40.0600   27.5580   37.5420 H   0  0  0  0  0  0  0  0  0  0  0  0
   37.9050   29.0040   41.0800 N   0  0  0  0  0  0  0  0  0  0  0  0
   38.0230   30.3940   41.3760 C   0  0  0  0  0  3  0  0  0  0  0  0
   37.9570   30.5870   42.4870 H   0  0  0  0  0  0  0  0  0  0  0  0
   36.9020   31.1710   40.7570 C   0  0  0  0  0  3  0  0  0  0  0  0
   36.8850   31.1670   39.6550 H   0  0  0  0  0  0  0  0  0  0  0  0
   35.5770   30.7180   41.1860 N   0  0  0  0  0  0  0  0  0  0  0  0
   35.5980   30.6760   42.2290 H   0  0  0  0  0  0  0  0  0  0  0  0
   35.4710   29.3420   40.7170 C   0  0  0  0  0  2  0  0  0  0  0  0
   36.5340   28.5600   41.4060 C   0  0  0  0  0  2  0  0  0  0  0  0
   38.7820   26.2270   42.4780 C   0  0  0  0  0  0  0  0  0  0  0  0
   39.6530   25.4330   43.2780 C   0  0  0  0  0  0  0  0  0  0  0  0
   39.5200   26.8760   43.6790 C   0  0  0  0  0  0  0  0  0  0  0  0
   37.6990   26.4590   42.7210 H   0  0  0  0  0  0  0  0  0  0  0  0
   40.7280   25.2040   43.1690 H   0  0  0  0  0  0  0  0  0  0  0  0
   39.2130   24.7290   44.0700 H   0  0  0  0  0  0  0  0  0  0  0  0
   38.9440   27.1580   44.5590 H   0  0  0  0  0  0  0  0  0  0  0  0
   40.2680   27.6230   43.3520 H   0  0  0  0  0  0  0  0  0  0  0  0
  1  9  1  0  0  0  0
  1  2  1  0  0  0  0
  2 18  1  0  0  0  0
  3  7  1  0  0  0  0
  3  2  2  0  0  0  0
  4  3  1  0  0  0  0
  5  4  2  0  0  0  0
  5  6  1  0  0  0  0
  6  1  2  0  0  0  0
  8  5  1  0  0  0  0
  9 10  1  0  0  0  0
  9 17  1  0  0  0  0
 10 11  1  0  0  0  0
 12 14  1  0  0  0  0
 12 10  1  0  0  0  0
 13 12  1  0  0  0  0
 14 15  1  0  0  0  0
 16 14  1  0  0  0  0
 16 17  1  0  0  0  0
 18 21  1  0  0  0  0
 18 19  1  0  0  0  0
 18 20  1  0  0  0  0
 19 20  1  0  0  0  0
 19 23  1  0  0  0  0
 20 24  1  0  0  0  0
 22 19  1  0  0  0  0
 25 20  1  0  0  0  0
M  END
>  <minimizedAffinity>
-4.34573317

$$$$

 OpenBabel03242523153D

 25 27  0  0  0  0  0  0  0  0999 V2000
   36.8300   26.5340   40.6880 C   0  0  0  0  0  0  0  0  0  0  0  0
   36.7330   27.6840   41.4800 C   0  0  0  0  0  0  0  0  0  0  0  0
   36.5900   28.9290   40.8670 C   0  0  0  0  0  0  0  0  0  0  0  0
   36.5510   28.9630   39.4900 N   0  0  0  0  0  0  0  0  0  0  0  0
   36.6500   27.8430   38.7750 C   0  0  0  0  0  0  0  0  0  0  0  0
   36.7890   26.6120   39.3560 N   0  0  0  0  0  0  0  0  0  0  0  0
   36.5190   29.7560   41.5280 H   0  0  0  0  0  0  0  0  0  0  0  0
   36.5930   28.1540   37.7330 H   0  0  0  0  0  0  0  0  0  0  0  0
   36.9580   25.1370   40.8980 N   0  0  0  0  0  0  0  0  0  0  0  0
   36.2400   23.9200   40.7060 C   0  0  0  0  0  3  0  0  0  0  0  0
   35.9160   23.4710   41.6900 H   0  0  0  0  0  0  0  0  0  0  0  0
   37.1020   22.8870   40.0480 C   0  0  0  0  0  3  0  0  0  0  0  0
   37.4240   23.1320   39.0230 H   0  0  0  0  0  0  0  0  0  0  0  0
   38.3240   22.5890   40.7980 N   0  0  0  0  0  0  0  0  0  0  0  0
   38.0330   22.3980   41.7820 H   0  0  0  0  0  0  0  0  0  0  0  0
   39.0750   23.8380   40.8220 C   0  0  0  0  0  2  0  0  0  0  0  0
   38.2450   24.8350   41.5560 C   0  0  0  0  0  2  0  0  0  0  0  0
   36.8600   27.6150   42.9680 C   0  0  0  0  0  0  0  0  0  0  0  0
   38.1040   27.3900   43.6220 C   0  0  0  0  0  0  0  0  0  0  0  0
   37.5750   28.7960   43.6770 C   0  0  0  0  0  0  0  0  0  0  0  0
   35.8450   27.6230   43.4740 H   0  0  0  0  0  0  0  0  0  0  0  0
   39.1400   27.4270   43.2390 H   0  0  0  0  0  0  0  0  0  0  0  0
   38.1200   26.9000   44.6590 H   0  0  0  0  0  0  0  0  0  0  0  0
   37.1470   29.1930   44.5960 H   0  0  0  0  0  0  0  0  0  0  0  0
   37.9280   29.5590   42.9580 H   0  0  0  0  0  0  0  0  0  0  0  0
  1  9  1  0  0  0  0
  1  2  1  0  0  0  0
  2 18  1  0  0  0  0
  3  2  2  0  0  0  0
  3  7  1  0  0  0  0
  4  3  1  0  0  0  0
  5  6  1  0  0  0  0
  5  4  2  0  0  0  0
  6  1  2  0  0  0  0
  8  5  1  0  0  0  0
  9 17  1  0  0  0  0
 10  9  1  0  0  0  0
 10 11  1  0  0  0  0
 12 10  1  0  0  0  0
 12 14  1  0  0  0  0
 13 12  1  0  0  0  0
 14 16  1  0  0  0  0
 14 15  1  0  0  0  0
 16 17  1  0  0  0  0
 18 21  1  0  0  0  0
 18 19  1  0  0  0  0
 18 20  1  0  0  0  0
 19 20  1  0  0  0  0
 19 23  1  0  0  0  0
 20 24  1  0  0  0  0
 22 19  1  0  0  0  0
 25 20  1  0  0  0  0
M  END
>  <minimizedAffinity>
-4.32634449

$$$$

 OpenBabel03242523153D

 25 27  0  0  0  0  0  0  0  0999 V2000
   37.6110   27.9310   40.7760 C   0  0  0  0  0  0  0  0  0  0  0  0
   37.9570   27.0030   41.7650 C   0  0  0  0  0  0  0  0  0  0  0  0
   37.6120   25.6620   41.5990 C   0  0  0  0  0  0  0  0  0  0  0  0
   36.9340   25.3130   40.4510 N   0  0  0  0  0  0  0  0  0  0  0  0
   36.6220   26.2300   39.5360 C   0  0  0  0  0  0  0  0  0  0  0  0
   36.9530   27.5510   39.6780 N   0  0  0  0  0  0  0  0  0  0  0  0
   37.9080   25.0150   42.3860 H   0  0  0  0  0  0  0  0  0  0  0  0
   36.0980   25.6920   38.7480 H   0  0  0  0  0  0  0  0  0  0  0  0
   37.7820   29.3210   40.5510 N   0  0  0  0  0  0  0  0  0  0  0  0
   38.4430   30.2250   39.6680 C   0  0  0  0  0  3  0  0  0  0  0  0
   39.2790   30.7760   40.1910 H   0  0  0  0  0  0  0  0  0  0  0  0
   37.5010   31.2780   39.1750 C   0  0  0  0  0  3  0  0  0  0  0  0
   36.6720   30.9080   38.5510 H   0  0  0  0  0  0  0  0  0  0  0  0
   36.8840   32.0550   40.2530 N   0  0  0  0  0  0  0  0  0  0  0  0
   37.6590   32.3730   40.8740 H   0  0  0  0  0  0  0  0  0  0  0  0
   36.1040   31.0920   41.0210 C   0  0  0  0  0  2  0  0  0  0  0  0
   37.0620   30.0980   41.5800 C   0  0  0  0  0  2  0  0  0  0  0  0
   38.6210   27.4320   43.0340 C   0  0  0  0  0  0  0  0  0  0  0  0
   39.6340   26.6590   43.6700 C   0  0  0  0  0  0  0  0  0  0  0  0
   40.1000   27.8910   42.9450 C   0  0  0  0  0  0  0  0  0  0  0  0
   38.1220   28.3500   43.4760 H   0  0  0  0  0  0  0  0  0  0  0  0
   40.2240   25.8010   43.3040 H   0  0  0  0  0  0  0  0  0  0  0  0
   39.7890   26.7480   44.8030 H   0  0  0  0  0  0  0  0  0  0  0  0
   40.4100   28.7770   43.4970 H   0  0  0  0  0  0  0  0  0  0  0  0
   40.4950   27.8220   41.9130 H   0  0  0  0  0  0  0  0  0  0  0  0
  1  2  1  0  0  0  0
  2 18  1  0  0  0  0
  3  2  2  0  0  0  0
  3  7  1  0  0  0  0
  4  3  1  0  0  0  0
  5  6  1  0  0  0  0
  5  4  2  0  0  0  0
  6  1  2  0  0  0  0
  8  5  1  0  0  0  0
  9  1  1  0  0  0  0
  9 17  1  0  0  0  0
 10 11  1  0  0  0  0
 10  9  1  0  0  0  0
 12 10  1  0  0  0  0
 12 14  1  0  0  0  0
 13 12  1  0  0  0  0
 14 15  1  0  0  0  0
 14 16  1  0  0  0  0
 16 17  1  0  0  0  0
 18 21  1  0  0  0  0
 18 19  1  0  0  0  0
 19 23  1  0  0  0  0
 20 18  1  0  0  0  0
 20 24  1  0  0  0  0
 20 19  1  0  0  0  0
 22 19  1  0  0  0  0
 25 20  1  0  0  0  0
M  END
>  <minimizedAffinity>
-4.30787563

$$$$

 OpenBabel03242523153D

 25 27  0  0  0  0  0  0  0  0999 V2000
   40.3520   32.0190   40.2670 C   0  0  0  0  0  0  0  0  0  0  0  0
   39.1780   31.3640   40.6570 C   0  0  0  0  0  0  0  0  0  0  0  0
   39.1540   30.6550   41.8580 C   0  0  0  0  0  0  0  0  0  0  0  0
   40.3070   30.6340   42.6110 N   0  0  0  0  0  0  0  0  0  0  0  0
   41.4040   31.2690   42.2010 C   0  0  0  0  0  0  0  0  0  0  0  0
   41.4480   31.9720   41.0270 N   0  0  0  0  0  0  0  0  0  0  0  0
   38.2310   30.1860   42.0910 H   0  0  0  0  0  0  0  0  0  0  0  0
   42.1530   31.0900   42.9710 H   0  0  0  0  0  0  0  0  0  0  0  0
   40.7780   32.8300   39.1840 N   0  0  0  0  0  0  0  0  0  0  0  0
   41.2040   34.1610   38.9010 C   0  0  0  0  0  3  0  0  0  0  0  0
   40.4380   34.7180   38.2860 H   0  0  0  0  0  0  0  0  0  0  0  0
   42.4610   34.1600   38.0880 C   0  0  0  0  0  3  0  0  0  0  0  0
   43.3440   33.7350   38.5930 H   0  0  0  0  0  0  0  0  0  0  0  0
   42.3310   33.4380   36.8210 N   0  0  0  0  0  0  0  0  0  0  0  0
   41.4720   33.8030   36.3550 H   0  0  0  0  0  0  0  0  0  0  0  0
   42.0460   32.0570   37.1930 C   0  0  0  0  0  2  0  0  0  0  0  0
   40.7490   32.0590   37.9250 C   0  0  0  0  0  2  0  0  0  0  0  0
   37.9710   31.3420   39.7740 C   0  0  0  0  0  0  0  0  0  0  0  0
   36.6440   31.3830   40.2880 C   0  0  0  0  0  0  0  0  0  0  0  0
   37.1480   32.6530   39.6590 C   0  0  0  0  0  0  0  0  0  0  0  0
   38.2500   31.1510   38.6910 H   0  0  0  0  0  0  0  0  0  0  0  0
   36.2660   31.6240   41.2970 H   0  0  0  0  0  0  0  0  0  0  0  0
   35.7860   30.9200   39.6820 H   0  0  0  0  0  0  0  0  0  0  0  0
   36.7940   32.9670   38.6790 H   0  0  0  0  0  0  0  0  0  0  0  0
   37.5680   33.4620   40.2860 H   0  0  0  0  0  0  0  0  0  0  0  0
  1  2  2  0  0  0  0
  1  6  1  0  0  0  0
  2  3  1  0  0  0  0
  3  7  1  0  0  0  0
  3  4  2  0  0  0  0
  5  4  1  0  0  0  0
  5  8  1  0  0  0  0
  6  5  2  0  0  0  0
  9  1  1  0  0  0  0
 10  9  1  0  0  0  0
 11 10  1  0  0  0  0
 12 13  1  0  0  0  0
 12 10  1  0  0  0  0
 14 16  1  0  0  0  0
 14 12  1  0  0  0  0
 15 14  1  0  0  0  0
 16 17  1  0  0  0  0
 17  9  1  0  0  0  0
 18 19  1  0  0  0  0
 18  2  1  0  0  0  0
 19 22  1  0  0  0  0
 20 18  1  0  0  0  0
 20 25  1  0  0  0  0
 20 19  1  0  0  0  0
 21 18  1  0  0  0  0
 23 19  1  0  0  0  0
 24 20  1  0  0  0  0
M  END
>  <minimizedAffinity>
-4.25612831

$$$$

 OpenBabel03242523153D

 25 27  0  0  0  0  0  0  0  0999 V2000
   37.6960   29.3990   40.0650 C   0  0  0  0  0  0  0  0  0  0  0  0
   37.1910   28.5610   41.0660 C   0  0  0  0  0  0  0  0  0  0  0  0
   36.5620   27.3680   40.7110 C   0  0  0  0  0  0  0  0  0  0  0  0
   36.4660   27.0710   39.3680 N   0  0  0  0  0  0  0  0  0  0  0  0
   36.9590   27.8990   38.4480 C   0  0  0  0  0  0  0  0  0  0  0  0
   37.5810   29.0730   38.7750 N   0  0  0  0  0  0  0  0  0  0  0  0
   36.2070   26.7820   41.5200 H   0  0  0  0  0  0  0  0  0  0  0  0
   36.7490   27.4290   37.4880 H   0  0  0  0  0  0  0  0  0  0  0  0
   38.3920   30.6330   39.9970 N   0  0  0  0  0  0  0  0  0  0  0  0
   39.6520   31.1700   39.6020 C   0  0  0  0  0  3  0  0  0  0  0  0
   40.2480   31.5250   40.4930 H   0  0  0  0  0  0  0  0  0  0  0  0
   39.4710   32.3710   38.7250 C   0  0  0  0  0  3  0  0  0  0  0  0
   38.9880   32.1720   37.7550 H   0  0  0  0  0  0  0  0  0  0  0  0
   38.6910   33.4380   39.3560 N   0  0  0  0  0  0  0  0  0  0  0  0
   39.1150   33.6030   40.2950 H   0  0  0  0  0  0  0  0  0  0  0  0
   37.3730   32.8620   39.5920 C   0  0  0  0  0  2  0  0  0  0  0  0
   37.5530   31.7230   40.5340 C   0  0  0  0  0  2  0  0  0  0  0  0
   37.2420   28.9560   42.5070 C   0  0  0  0  0  0  0  0  0  0  0  0
   37.1890   28.0040   43.5660 C   0  0  0  0  0  0  0  0  0  0  0  0
   38.5360   28.6170   43.2940 C   0  0  0  0  0  0  0  0  0  0  0  0
   37.1840   30.0810   42.6340 H   0  0  0  0  0  0  0  0  0  0  0  0
   37.3020   26.9060   43.5570 H   0  0  0  0  0  0  0  0  0  0  0  0
   36.7790   28.3170   44.5910 H   0  0  0  0  0  0  0  0  0  0  0  0
   38.9520   29.3640   43.9670 H   0  0  0  0  0  0  0  0  0  0  0  0
   39.2770   28.0890   42.6650 H   0  0  0  0  0  0  0  0  0  0  0  0
  1  2  1  0  0  0  0
  2 18  1  0  0  0  0
  3  2  2  0  0  0  0
  3  7  1  0  0  0  0
  4  3  1  0  0  0  0
  5  6  1  0  0  0  0
  5  4  2  0  0  0  0
  6  1  2  0  0  0  0
  8  5  1  0  0  0  0
  9  1  1  0  0  0  0
  9 17  1  0  0  0  0
 10  9  1  0  0  0  0
 10 11  1  0  0  0  0
 12 14  1  0  0  0  0
 12 10  1  0  0  0  0
 13 12  1  0  0  0  0
 14 16  1  0  0  0  0
 14 15  1  0  0  0  0
 16 17  1  0  0  0  0
 18 21  1  0  0  0  0
 18 20  1  0  0  0  0
 18 19  1  0  0  0  0
 19 23  1  0  0  0  0
 20 19  1  0  0  0  0
 20 24  1  0  0  0  0
 22 19  1  0  0  0  0
 25 20  1  0  0  0  0
M  END
>  <minimizedAffinity>
-4.23478508

$$$$
