
 OpenBabel03242513213D

 34 36  0  0  1  0  0  0  0  0999 V2000
   46.6310   31.6330   48.0870 C   0  0  2  0  0  0  0  0  0  0  0  0
   45.7470   31.9990   49.2900 C   0  0  0  0  0  0  0  0  0  0  0  0
   44.4720   31.3240   48.7540 C   0  0  0  0  0  0  0  0  0  0  0  0
   44.9100   30.1060   48.2560 O   0  0  0  0  0  0  0  0  0  0  0  0
   46.2420   30.2010   47.9620 C   0  0  1  0  0  0  0  0  0  0  0  0
   46.3180   32.2520   47.2220 H   0  0  0  0  0  0  0  0  0  0  0  0
   45.6330   33.0770   49.3960 H   0  0  0  0  0  0  0  0  0  0  0  0
   46.1430   31.4810   50.1750 H   0  0  0  0  0  0  0  0  0  0  0  0
   43.7260   31.2430   49.5480 H   0  0  0  0  0  0  0  0  0  0  0  0
   44.1470   31.9540   47.8840 H   0  0  0  0  0  0  0  0  0  0  0  0
   46.7780   29.6270   48.7750 H   0  0  0  0  0  0  0  0  0  0  0  0
   46.6050   29.5670   46.7370 N   0  0  2  0  0  0  0  0  0  0  0  0
   45.5580   29.3570   45.7960 C   0  0  0  0  0  0  0  0  0  0  0  0
   44.8910   30.2020   45.6550 H   0  0  0  0  0  0  0  0  0  0  0  0
   44.7320   28.1240   46.0770 C   0  0  0  0  0  0  0  0  0  0  0  0
   44.0370   28.2470   46.9300 H   0  0  0  0  0  0  0  0  0  0  0  0
   45.5800   26.9460   46.2310 N   0  0  0  0  0  0  0  0  0  0  0  0
   46.0720   26.8170   45.3070 H   0  0  0  0  0  0  0  0  0  0  0  0
   46.5910   27.1640   47.2220 C   0  0  0  0  0  0  0  0  0  0  0  0
   47.3990   28.3970   46.9280 C   0  0  0  0  0  0  0  0  0  0  0  0
   48.0740   31.8820   48.3560 C   0  0  0  0  0  0  0  0  0  0  0  0
   48.1540   32.9200   48.7890 H   0  0  0  0  0  0  0  0  0  0  0  0
   48.7120   31.9050   47.4490 H   0  0  0  0  0  0  0  0  0  0  0  0
   49.7210   30.2370   49.1530 C   0  0  0  0  0  0  0  0  0  0  0  0
   48.6470   30.9680   49.3760 C   0  0  0  0  0  0  0  0  0  0  0  0
   50.9580   28.9170   52.3480 C   0  0  0  0  0  0  0  0  0  0  0  0
   51.2640   27.5720   52.0060 C   0  0  0  0  0  0  0  0  0  0  0  0
   51.0290   27.1820   50.6850 C   0  0  0  0  0  0  0  0  0  0  0  0
   50.5270   28.0870   49.7950 N   0  0  0  0  0  0  0  0  0  0  0  0
   50.2510   29.3600   50.1750 C   0  0  0  0  0  0  0  0  0  0  0  0
   50.4570   29.7850   51.4260 N   0  0  0  0  0  0  0  0  0  0  0  0
   51.1100   29.3030   53.3520 H   0  0  0  0  0  0  0  0  0  0  0  0
   51.6550   26.9270   52.7590 H   0  0  0  0  0  0  0  0  0  0  0  0
   51.2530   26.1630   50.3930 H   0  0  0  0  0  0  0  0  0  0  0  0
  1  6  1  6  0  0  0
  1 21  1  0  0  0  0
  1  2  1  0  0  0  0
  2  7  1  0  0  0  0
  2  8  1  0  0  0  0
  3  2  1  0  0  0  0
  3  9  1  0  0  0  0
  4  3  1  0  0  0  0
  5  1  1  0  0  0  0
  5  4  1  0  0  0  0
  5 11  1  1  0  0  0
 10  3  1  0  0  0  0
 12 20  1  1  0  0  0
 12  5  1  0  0  0  0
 13 15  1  0  0  0  0
 13 12  1  0  0  0  0
 14 13  1  0  0  0  0
 15 17  1  0  0  0  0
 15 16  1  0  0  0  0
 17 19  1  0  0  0  0
 18 17  1  0  0  0  0
 20 19  1  0  0  0  0
 21 22  1  0  0  0  0
 21 25  1  0  0  0  0
 23 21  1  0  0  0  0
 24 25  2  0  0  0  0
 24 30  1  0  0  0  0
 26 32  1  0  0  0  0
 27 26  1  0  0  0  0
 27 33  1  0  0  0  0
 28 27  2  0  0  0  0
 29 30  2  0  0  0  0
 29 28  1  0  0  0  0
 30 31  1  0  0  0  0
 31 26  2  0  0  0  0
 34 28  1  0  0  0  0
M  END
>  <minimizedAffinity>
-4.27741003

>  <minimizedRMSD>
7.12925816

$$$$
