
 OpenBabel03252505333D

 30 32  0  0  0  0  0  0  0  0999 V2000
   46.5620   34.7830   42.0700 C   0  0  0  0  0  0  0  0  0  0  0  0
   47.8840   35.1830   42.0140 C   0  0  0  0  0  0  0  0  0  0  0  0
   48.6840   34.9950   40.8870 C   0  0  0  0  0  0  0  0  0  0  0  0
   48.1250   34.3780   39.7740 C   0  0  0  0  0  0  0  0  0  0  0  0
   46.8160   33.9910   39.8490 C   0  0  0  0  0  0  0  0  0  0  0  0
   46.0270   34.1790   40.9670 C   0  0  0  0  0  0  0  0  0  0  0  0
   48.3400   35.6700   42.8830 H   0  0  0  0  0  0  0  0  0  0  0  0
   49.7040   35.3450   40.9430 H   0  0  0  0  0  0  0  0  0  0  0  0
   48.8170   34.2820   38.9660 H   0  0  0  0  0  0  0  0  0  0  0  0
   46.5390   33.5400   38.9080 H   0  0  0  0  0  0  0  0  0  0  0  0
   44.4070   36.2410   44.7830 C   0  0  0  0  0  0  0  0  0  0  0  0
   45.0550   36.1140   43.5350 C   0  0  0  0  0  0  0  0  0  0  0  0
   45.8560   35.0170   43.2990 C   0  0  0  0  0  0  0  0  0  0  0  0
   45.9850   34.0930   44.3000 N   0  0  0  0  0  0  0  0  0  0  0  0
   45.3440   34.2520   45.4910 C   0  0  0  0  0  0  0  0  0  0  0  0
   44.5630   35.3190   45.7240 N   0  0  0  0  0  0  0  0  0  0  0  0
   45.5150   33.2860   46.5290 N   0  0  0  0  0  0  0  0  0  0  0  0
   43.7690   37.1080   44.9780 H   0  0  0  0  0  0  0  0  0  0  0  0
   44.9400   36.8470   42.7710 H   0  0  0  0  0  0  0  0  0  0  0  0
   45.5950   33.5040   47.5490 H   0  0  0  0  0  0  0  0  0  0  0  0
   45.5750   32.2490   46.3210 H   0  0  0  0  0  0  0  0  0  0  0  0
   44.6870   33.7540   40.8860 N   0  0  0  0  0  0  0  0  0  0  0  0
   43.6870   34.5340   40.1790 C   0  0  0  0  0  3  0  0  0  0  0  0
   43.2270   33.8460   39.4020 H   0  0  0  0  0  0  0  0  0  0  0  0
   42.5640   34.9700   41.0710 C   0  0  0  0  0  3  0  0  0  0  0  0
   41.6950   35.1930   40.3950 H   0  0  0  0  0  0  0  0  0  0  0  0
   42.1040   33.9080   41.9400 N   0  0  0  0  0  0  0  0  0  0  0  0
   42.4390   34.0240   42.9150 H   0  0  0  0  0  0  0  0  0  0  0  0
   42.5360   32.6640   41.3730 C   0  0  0  0  0  2  0  0  0  0  0  0
   44.0540   32.5800   41.4650 C   0  0  0  0  0  2  0  0  0  0  0  0
  1 13  1  0  0  0  0
  2  1  1  0  0  0  0
  2  7  1  0  0  0  0
  3  8  1  0  0  0  0
  3  2  2  0  0  0  0
  4  5  2  0  0  0  0
  4  3  1  0  0  0  0
  5  6  1  0  0  0  0
  6  1  2  0  0  0  0
  9  4  1  0  0  0  0
 10  5  1  0  0  0  0
 11 18  1  0  0  0  0
 11 16  1  0  0  0  0
 12 11  2  0  0  0  0
 13 12  1  0  0  0  0
 13 14  2  0  0  0  0
 14 15  1  0  0  0  0
 15 16  2  0  0  0  0
 15 17  1  0  0  0  0
 17 20  1  0  0  0  0
 19 12  1  0  0  0  0
 21 17  1  0  0  0  0
 22  6  1  0  0  0  0
 22 30  1  0  0  0  0
 23 22  1  0  0  0  0
 23 25  1  0  0  0  0
 24 23  1  0  0  0  0
 25 27  1  0  0  0  0
 26 25  1  0  0  0  0
 27 28  1  0  0  0  0
 29 30  1  0  0  0  0
 29 27  1  0  0  0  0
M  END
>  <minimizedAffinity>
-6.34158182

>  <minimizedRMSD>
0.675884187

$$$$
