
 OpenBabel03252505143D

 25 27  0  0  0  0  0  0  0  0999 V2000
   44.7690   35.2380   44.9120 C   0  0  0  0  0  0  0  0  0  0  0  0
   45.5660   35.1000   43.7630 C   0  0  0  0  0  0  0  0  0  0  0  0
   46.5380   34.1110   43.8250 C   0  0  0  0  0  0  0  0  0  0  0  0
   46.6740   33.3470   44.9520 N   0  0  0  0  0  0  0  0  0  0  0  0
   45.8740   33.5180   46.0430 C   0  0  0  0  0  0  0  0  0  0  0  0
   44.9250   34.4770   45.9950 N   0  0  0  0  0  0  0  0  0  0  0  0
   44.0210   36.0200   44.8270 H   0  0  0  0  0  0  0  0  0  0  0  0
   45.4540   35.6990   42.8900 H   0  0  0  0  0  0  0  0  0  0  0  0
   46.0600   32.6930   47.1860 N   0  0  0  0  0  0  0  0  0  0  0  0
   44.8840   32.1340   47.8110 C   0  0  0  0  0  0  0  0  0  0  0  0
   44.2120   31.6430   47.0700 H   0  0  0  0  0  0  0  0  0  0  0  0
   45.1710   31.1910   48.9260 C   0  0  0  0  0  0  0  0  0  0  0  0
   44.3580   31.1920   49.6930 H   0  0  0  0  0  0  0  0  0  0  0  0
   46.4040   31.4770   49.6320 N   0  0  0  0  0  0  0  0  0  0  0  0
   46.3920   32.5160   49.8330 H   0  0  0  0  0  0  0  0  0  0  0  0
   47.4610   31.2840   48.6280 C   0  0  0  0  0  0  0  0  0  0  0  0
   47.3730   32.4380   47.6850 C   0  0  0  0  0  0  0  0  0  0  0  0
   47.4420   33.8430   42.6550 C   0  0  0  0  0  0  0  0  0  0  0  0
   47.7500   35.0940   41.8590 C   0  0  0  0  0  0  0  0  0  0  0  0
   48.8100   34.3410   42.7040 C   0  0  0  0  0  0  0  0  0  0  0  0
   47.1790   32.9390   42.0970 H   0  0  0  0  0  0  0  0  0  0  0  0
   47.3950   36.0660   42.1990 H   0  0  0  0  0  0  0  0  0  0  0  0
   47.7910   34.9230   40.7650 H   0  0  0  0  0  0  0  0  0  0  0  0
   49.1840   34.9830   43.5450 H   0  0  0  0  0  0  0  0  0  0  0  0
   49.6340   33.8910   42.1060 H   0  0  0  0  0  0  0  0  0  0  0  0
  1  6  1  0  0  0  0
  2  3  1  0  0  0  0
  2  1  2  0  0  0  0
  3  4  2  0  0  0  0
  4  5  1  0  0  0  0
  5  9  1  0  0  0  0
  6  5  2  0  0  0  0
  7  1  1  0  0  0  0
  8  2  1  0  0  0  0
  9 17  1  0  0  0  0
  9 10  1  0  0  0  0
 10 12  1  0  0  0  0
 11 10  1  0  0  0  0
 12 14  1  0  0  0  0
 12 13  1  0  0  0  0
 14 15  1  0  0  0  0
 16 14  1  0  0  0  0
 17 16  1  0  0  0  0
 18 20  1  0  0  0  0
 18  3  1  0  0  0  0
 19 22  1  0  0  0  0
 19 18  1  0  0  0  0
 19 20  1  0  0  0  0
 20 24  1  0  0  0  0
 21 18  1  0  0  0  0
 23 19  1  0  0  0  0
 25 20  1  0  0  0  0
M  END
>  <minimizedAffinity>
-5.36671495

>  <minimizedRMSD>
1.10865843

$$$$
