
 OpenBabel03252503003D

 22 23  0  0  0  0  0  0  0  0999 V2000
   39.9730   31.0040   40.8030 C   0  0  0  0  0  0  0  0  0  0  0  0
   40.9740   31.5040   40.6820 H   0  0  0  0  0  0  0  0  0  0  0  0
   40.0220   30.1350   40.1170 H   0  0  0  0  0  0  0  0  0  0  0  0
   39.0000   31.9450   40.3560 N   0  0  0  0  0  0  0  0  0  0  0  0
   38.5960   31.8040   38.9980 C   0  0  0  0  0  3  0  0  0  0  0  0
   38.6170   30.7480   38.7010 H   0  0  0  0  0  0  0  0  0  0  0  0
   37.2060   32.3950   38.8730 C   0  0  0  0  0  3  0  0  0  0  0  0
   36.4150   31.6090   38.8930 H   0  0  0  0  0  0  0  0  0  0  0  0
   36.9630   33.3780   39.9320 N   0  0  0  0  0  0  0  0  0  0  0  0
   36.1900   33.9970   39.6660 H   0  0  0  0  0  0  0  0  0  0  0  0
   38.1780   34.1610   40.0890 C   0  0  0  0  0  2  0  0  0  0  0  0
   39.2820   33.3090   40.6830 C   0  0  0  0  0  2  0  0  0  0  0  0
   39.8510   30.5170   42.5210 S   0  0  0  0  0  0  0  0  0  0  0  0
   37.3930   29.2300   42.2350 C   0  0  0  0  0  0  0  0  0  0  0  0
   38.7340   29.0990   42.6510 C   0  0  0  0  0  0  0  0  0  0  0  0
   39.2120   27.8880   43.1650 C   0  0  0  0  0  0  0  0  0  0  0  0
   38.3100   26.8640   43.2320 N   0  0  0  0  0  0  0  0  0  0  0  0
   37.0500   27.0250   42.8280 C   0  0  0  0  0  0  0  0  0  0  0  0
   36.5750   28.1630   42.3390 N   0  0  0  0  0  0  0  0  0  0  0  0
   37.1170   30.1970   41.8540 H   0  0  0  0  0  0  0  0  0  0  0  0
   40.2500   27.8330   43.4720 H   0  0  0  0  0  0  0  0  0  0  0  0
   36.3770   26.1830   42.9030 H   0  0  0  0  0  0  0  0  0  0  0  0
  1 13  1  0  0  0  0
  2  1  1  0  0  0  0
  3  1  1  0  0  0  0
  4 12  1  0  0  0  0
  4  1  1  0  0  0  0
  5  4  1  0  0  0  0
  6  5  1  0  0  0  0
  7  8  1  0  0  0  0
  7  5  1  0  0  0  0
  7  9  1  0  0  0  0
  9 11  1  0  0  0  0
 10  9  1  0  0  0  0
 11 12  1  0  0  0  0
 13 15  1  0  0  0  0
 14 19  2  0  0  0  0
 14 15  1  0  0  0  0
 15 16  2  0  0  0  0
 16 17  1  0  0  0  0
 16 21  1  0  0  0  0
 18 22  1  0  0  0  0
 18 17  2  0  0  0  0
 19 18  1  0  0  0  0
 20 14  1  0  0  0  0
M  END
>  <minimizedAffinity>
-4.11568451

$$$$

 OpenBabel03252503003D

 22 23  0  0  0  0  0  0  0  0999 V2000
   37.7040   31.9890   40.5410 C   0  0  0  0  0  0  0  0  0  0  0  0
   37.2410   33.0120   40.6180 H   0  0  0  0  0  0  0  0  0  0  0  0
   38.5050   31.9980   41.3060 H   0  0  0  0  0  0  0  0  0  0  0  0
   38.2580   31.9000   39.2310 N   0  0  0  0  0  0  0  0  0  0  0  0
   37.5080   31.1220   38.3040 C   0  0  0  0  0  3  0  0  0  0  0  0
   36.4350   31.2060   38.5160 H   0  0  0  0  0  0  0  0  0  0  0  0
   37.8450   31.6210   36.9140 C   0  0  0  0  0  3  0  0  0  0  0  0
   37.0680   32.3200   36.5210 H   0  0  0  0  0  0  0  0  0  0  0  0
   39.1580   32.2710   36.8990 N   0  0  0  0  0  0  0  0  0  0  0  0
   39.5210   32.3090   35.9410 H   0  0  0  0  0  0  0  0  0  0  0  0
   40.0490   31.4740   37.7250 C   0  0  0  0  0  2  0  0  0  0  0  0
   39.6510   31.5760   39.1830 C   0  0  0  0  0  2  0  0  0  0  0  0
   36.4070   30.8150   40.9170 S   0  0  0  0  0  0  0  0  0  0  0  0
   38.3240   29.6080   42.5440 C   0  0  0  0  0  0  0  0  0  0  0  0
   37.1190   29.4270   41.8340 C   0  0  0  0  0  0  0  0  0  0  0  0
   36.4670   28.1880   41.8300 C   0  0  0  0  0  0  0  0  0  0  0  0
   37.0650   27.1900   42.5460 N   0  0  0  0  0  0  0  0  0  0  0  0
   38.2050   27.3990   43.2050 C   0  0  0  0  0  0  0  0  0  0  0  0
   38.8400   28.5630   43.2220 N   0  0  0  0  0  0  0  0  0  0  0  0
   38.7520   30.5930   42.4900 H   0  0  0  0  0  0  0  0  0  0  0  0
   35.5430   28.0960   41.2720 H   0  0  0  0  0  0  0  0  0  0  0  0
   38.6360   26.5750   43.7540 H   0  0  0  0  0  0  0  0  0  0  0  0
  1  2  1  0  0  0  0
  1 13  1  0  0  0  0
  1  3  1  0  0  0  0
  4  1  1  0  0  0  0
  5  6  1  0  0  0  0
  5  4  1  0  0  0  0
  7  5  1  0  0  0  0
  8  7  1  0  0  0  0
  9  7  1  0  0  0  0
  9 11  1  0  0  0  0
 10  9  1  0  0  0  0
 11 12  1  0  0  0  0
 12  4  1  0  0  0  0
 13 15  1  0  0  0  0
 14 19  1  0  0  0  0
 15 14  2  0  0  0  0
 16 15  1  0  0  0  0
 16 17  2  0  0  0  0
 17 18  1  0  0  0  0
 18 19  2  0  0  0  0
 18 22  1  0  0  0  0
 20 14  1  0  0  0  0
 21 16  1  0  0  0  0
M  END
>  <minimizedAffinity>
-4.10869646

$$$$

 OpenBabel03252503003D

 22 23  0  0  0  0  0  0  0  0999 V2000
   39.0870   29.8900   41.9230 C   0  0  0  0  0  0  0  0  0  0  0  0
   39.8350   30.3660   42.6150 H   0  0  0  0  0  0  0  0  0  0  0  0
   39.7050   29.2760   41.2400 H   0  0  0  0  0  0  0  0  0  0  0  0
   38.4610   30.9580   41.2160 N   0  0  0  0  0  0  0  0  0  0  0  0
   38.0230   30.6400   39.8990 C   0  0  0  0  0  3  0  0  0  0  0  0
   37.7030   29.5920   39.8450 H   0  0  0  0  0  0  0  0  0  0  0  0
   36.8930   31.5900   39.5550 C   0  0  0  0  0  3  0  0  0  0  0  0
   35.8920   31.1160   39.6950 H   0  0  0  0  0  0  0  0  0  0  0  0
   36.9840   32.8160   40.3500 N   0  0  0  0  0  0  0  0  0  0  0  0
   36.4460   33.5660   39.9040 H   0  0  0  0  0  0  0  0  0  0  0  0
   38.3860   33.1950   40.4110 C   0  0  0  0  0  2  0  0  0  0  0  0
   39.1650   32.2030   41.2500 C   0  0  0  0  0  2  0  0  0  0  0  0
   38.0050   28.8990   42.9490 S   0  0  0  0  0  0  0  0  0  0  0  0
   37.9000   26.2080   42.2210 C   0  0  0  0  0  0  0  0  0  0  0  0
   38.6010   27.1900   42.9500 C   0  0  0  0  0  0  0  0  0  0  0  0
   39.7520   26.8600   43.6760 C   0  0  0  0  0  0  0  0  0  0  0  0
   40.1400   25.5510   43.6280 N   0  0  0  0  0  0  0  0  0  0  0  0
   39.4510   24.6510   42.9260 C   0  0  0  0  0  0  0  0  0  0  0  0
   38.3590   24.9410   42.2330 N   0  0  0  0  0  0  0  0  0  0  0  0
   37.0280   26.5550   41.6940 H   0  0  0  0  0  0  0  0  0  0  0  0
   40.2600   27.6470   44.2220 H   0  0  0  0  0  0  0  0  0  0  0  0
   39.8010   23.6290   42.9230 H   0  0  0  0  0  0  0  0  0  0  0  0
  1  2  1  0  0  0  0
  1 13  1  0  0  0  0
  3  1  1  0  0  0  0
  4 12  1  0  0  0  0
  4  1  1  0  0  0  0
  5  4  1  0  0  0  0
  6  5  1  0  0  0  0
  7  8  1  0  0  0  0
  7  5  1  0  0  0  0
  7  9  1  0  0  0  0
  9 11  1  0  0  0  0
 10  9  1  0  0  0  0
 11 12  1  0  0  0  0
 13 15  1  0  0  0  0
 14 19  2  0  0  0  0
 14 15  1  0  0  0  0
 15 16  2  0  0  0  0
 16 21  1  0  0  0  0
 17 16  1  0  0  0  0
 18 17  2  0  0  0  0
 19 18  1  0  0  0  0
 20 14  1  0  0  0  0
 22 18  1  0  0  0  0
M  END
>  <minimizedAffinity>
-4.06797075

$$$$

 OpenBabel03252503003D

 22 23  0  0  0  0  0  0  0  0999 V2000
   36.7830   27.4940   43.0160 C   0  0  0  0  0  0  0  0  0  0  0  0
   35.7840   27.1380   43.3920 H   0  0  0  0  0  0  0  0  0  0  0  0
   37.3240   27.7950   43.9350 H   0  0  0  0  0  0  0  0  0  0  0  0
   36.5190   28.6270   42.1930 N   0  0  0  0  0  0  0  0  0  0  0  0
   36.1430   28.3300   40.8520 C   0  0  0  0  0  3  0  0  0  0  0  0
   35.5750   27.3930   40.8130 H   0  0  0  0  0  0  0  0  0  0  0  0
   35.3290   29.5010   40.3380 C   0  0  0  0  0  3  0  0  0  0  0  0
   34.2320   29.3020   40.3890 H   0  0  0  0  0  0  0  0  0  0  0  0
   35.6520   30.7230   41.0790 N   0  0  0  0  0  0  0  0  0  0  0  0
   35.3670   31.5470   40.5390 H   0  0  0  0  0  0  0  0  0  0  0  0
   37.0910   30.7470   41.2770 C   0  0  0  0  0  2  0  0  0  0  0  0
   37.5100   29.6590   42.2450 C   0  0  0  0  0  2  0  0  0  0  0  0
   37.5440   26.0980   42.1950 S   0  0  0  0  0  0  0  0  0  0  0  0
   39.8730   27.1140   43.3460 C   0  0  0  0  0  0  0  0  0  0  0  0
   39.2940   26.0320   42.6510 C   0  0  0  0  0  0  0  0  0  0  0  0
   40.0560   24.9080   42.3080 C   0  0  0  0  0  0  0  0  0  0  0  0
   41.3680   24.9320   42.6870 N   0  0  0  0  0  0  0  0  0  0  0  0
   41.8800   25.9730   43.3430 C   0  0  0  0  0  0  0  0  0  0  0  0
   41.1790   27.0470   43.6770 N   0  0  0  0  0  0  0  0  0  0  0  0
   39.2110   27.9330   43.5660 H   0  0  0  0  0  0  0  0  0  0  0  0
   39.5690   24.1000   41.7750 H   0  0  0  0  0  0  0  0  0  0  0  0
   42.9240   25.9400   43.6180 H   0  0  0  0  0  0  0  0  0  0  0  0
  1  2  1  0  0  0  0
  1  3  1  0  0  0  0
  4 12  1  0  0  0  0
  4  1  1  0  0  0  0
  5  4  1  0  0  0  0
  6  5  1  0  0  0  0
  7  8  1  0  0  0  0
  7  5  1  0  0  0  0
  7  9  1  0  0  0  0
  9 11  1  0  0  0  0
 10  9  1  0  0  0  0
 11 12  1  0  0  0  0
 13 15  1  0  0  0  0
 13  1  1  0  0  0  0
 14 20  1  0  0  0  0
 14 19  1  0  0  0  0
 15 14  2  0  0  0  0
 16 15  1  0  0  0  0
 16 17  2  0  0  0  0
 17 18  1  0  0  0  0
 18 22  1  0  0  0  0
 18 19  2  0  0  0  0
 21 16  1  0  0  0  0
M  END
>  <minimizedAffinity>
-4.05418825

$$$$

 OpenBabel03252503003D

 22 23  0  0  0  0  0  0  0  0999 V2000
   37.3200   27.8440   43.1980 C   0  0  0  0  0  0  0  0  0  0  0  0
   36.5790   26.9980   43.1660 H   0  0  0  0  0  0  0  0  0  0  0  0
   37.2640   28.2120   44.2410 H   0  0  0  0  0  0  0  0  0  0  0  0
   36.8390   28.8310   42.2880 N   0  0  0  0  0  0  0  0  0  0  0  0
   36.2700   28.3230   41.0850 C   0  0  0  0  0  3  0  0  0  0  0  0
   35.7770   27.3620   41.2720 H   0  0  0  0  0  0  0  0  0  0  0  0
   35.2960   29.3630   40.5690 C   0  0  0  0  0  3  0  0  0  0  0  0
   34.2410   29.1160   40.8360 H   0  0  0  0  0  0  0  0  0  0  0  0
   35.6430   30.6940   41.0710 N   0  0  0  0  0  0  0  0  0  0  0  0
   35.2110   31.4150   40.4840 H   0  0  0  0  0  0  0  0  0  0  0  0
   37.0890   30.8220   41.0110 C   0  0  0  0  0  2  0  0  0  0  0  0
   37.7430   29.9090   42.0280 C   0  0  0  0  0  2  0  0  0  0  0  0
   38.9170   27.1380   42.8030 S   0  0  0  0  0  0  0  0  0  0  0  0
   37.5240   24.8260   42.0990 C   0  0  0  0  0  0  0  0  0  0  0  0
   38.6670   25.6150   41.8570 C   0  0  0  0  0  0  0  0  0  0  0  0
   39.6110   25.2370   40.8950 C   0  0  0  0  0  0  0  0  0  0  0  0
   39.3530   24.0770   40.2210 N   0  0  0  0  0  0  0  0  0  0  0  0
   38.2610   23.3570   40.4780 C   0  0  0  0  0  0  0  0  0  0  0  0
   37.3540   23.6950   41.3840 N   0  0  0  0  0  0  0  0  0  0  0  0
   36.8550   25.1950   42.8560 H   0  0  0  0  0  0  0  0  0  0  0  0
   40.4740   25.8750   40.7420 H   0  0  0  0  0  0  0  0  0  0  0  0
   38.1060   22.4470   39.9170 H   0  0  0  0  0  0  0  0  0  0  0  0
  1  3  1  0  0  0  0
  2  1  1  0  0  0  0
  4  1  1  0  0  0  0
  5  6  1  0  0  0  0
  5  4  1  0  0  0  0
  7  8  1  0  0  0  0
  7  9  1  0  0  0  0
  7  5  1  0  0  0  0
 10  9  1  0  0  0  0
 11  9  1  0  0  0  0
 11 12  1  0  0  0  0
 12  4  1  0  0  0  0
 13  1  1  0  0  0  0
 14 20  1  0  0  0  0
 15 14  1  0  0  0  0
 15 13  1  0  0  0  0
 16 15  2  0  0  0  0
 17 18  2  0  0  0  0
 17 16  1  0  0  0  0
 18 19  1  0  0  0  0
 19 14  2  0  0  0  0
 21 16  1  0  0  0  0
 22 18  1  0  0  0  0
M  END
>  <minimizedAffinity>
-3.98778272

$$$$

 OpenBabel03252503003D

 22 23  0  0  0  0  0  0  0  0999 V2000
   37.3060   31.0160   39.3910 C   0  0  0  0  0  0  0  0  0  0  0  0
   37.8100   30.0340   39.1730 H   0  0  0  0  0  0  0  0  0  0  0  0
   36.6630   31.1910   38.5060 H   0  0  0  0  0  0  0  0  0  0  0  0
   38.3430   31.9910   39.4620 N   0  0  0  0  0  0  0  0  0  0  0  0
   39.6650   31.4670   39.5380 C   0  0  0  0  0  3  0  0  0  0  0  0
   39.7370   30.5280   38.9750 H   0  0  0  0  0  0  0  0  0  0  0  0
   40.6040   32.5230   38.9890 C   0  0  0  0  0  3  0  0  0  0  0  0
   40.8890   32.3190   37.9300 H   0  0  0  0  0  0  0  0  0  0  0  0
   40.0080   33.8560   39.1010 N   0  0  0  0  0  0  0  0  0  0  0  0
   40.7390   34.5740   39.0450 H   0  0  0  0  0  0  0  0  0  0  0  0
   39.3490   33.9340   40.3940 C   0  0  0  0  0  2  0  0  0  0  0  0
   38.1340   33.0300   40.4230 C   0  0  0  0  0  2  0  0  0  0  0  0
   36.3590   30.7780   40.8920 S   0  0  0  0  0  0  0  0  0  0  0  0
   36.4660   28.1630   41.8540 C   0  0  0  0  0  0  0  0  0  0  0  0
   37.0950   29.4250   41.8410 C   0  0  0  0  0  0  0  0  0  0  0  0
   38.2800   29.6450   42.5540 C   0  0  0  0  0  0  0  0  0  0  0  0
   38.7740   28.5750   43.2450 N   0  0  0  0  0  0  0  0  0  0  0  0
   38.1520   27.3970   43.2330 C   0  0  0  0  0  0  0  0  0  0  0  0
   37.0290   27.1660   42.5670 N   0  0  0  0  0  0  0  0  0  0  0  0
   35.5610   28.0880   41.2780 H   0  0  0  0  0  0  0  0  0  0  0  0
   38.7280   30.6310   42.5150 H   0  0  0  0  0  0  0  0  0  0  0  0
   38.5850   26.5840   43.7980 H   0  0  0  0  0  0  0  0  0  0  0  0
  1  4  1  0  0  0  0
  1 13  1  0  0  0  0
  2  1  1  0  0  0  0
  3  1  1  0  0  0  0
  4  5  1  0  0  0  0
  4 12  1  0  0  0  0
  6  5  1  0  0  0  0
  7  9  1  0  0  0  0
  7  5  1  0  0  0  0
  8  7  1  0  0  0  0
  9 11  1  0  0  0  0
 10  9  1  0  0  0  0
 11 12  1  0  0  0  0
 13 15  1  0  0  0  0
 14 19  1  0  0  0  0
 15 14  2  0  0  0  0
 15 16  1  0  0  0  0
 16 17  2  0  0  0  0
 18 17  1  0  0  0  0
 18 22  1  0  0  0  0
 19 18  2  0  0  0  0
 20 14  1  0  0  0  0
 21 16  1  0  0  0  0
M  END
>  <minimizedAffinity>
-3.89590621

$$$$

 OpenBabel03252503003D

 22 23  0  0  0  0  0  0  0  0999 V2000
   37.5400   27.4570   43.1230 C   0  0  0  0  0  0  0  0  0  0  0  0
   37.2900   27.3810   44.2170 H   0  0  0  0  0  0  0  0  0  0  0  0
   36.5830   27.7510   42.6480 H   0  0  0  0  0  0  0  0  0  0  0  0
   37.9280   26.1490   42.7100 N   0  0  0  0  0  0  0  0  0  0  0  0
   39.3300   25.9010   42.7160 C   0  0  0  0  0  3  0  0  0  0  0  0
   39.8140   26.4620   43.5240 H   0  0  0  0  0  0  0  0  0  0  0  0
   39.5260   24.4060   42.8760 C   0  0  0  0  0  3  0  0  0  0  0  0
   39.7600   24.1260   43.9300 H   0  0  0  0  0  0  0  0  0  0  0  0
   38.3440   23.6750   42.4130 N   0  0  0  0  0  0  0  0  0  0  0  0
   38.5900   22.6990   42.2140 H   0  0  0  0  0  0  0  0  0  0  0  0
   37.8820   24.3170   41.1930 C   0  0  0  0  0  2  0  0  0  0  0  0
   37.3170   25.6890   41.5000 C   0  0  0  0  0  2  0  0  0  0  0  0
   38.7970   28.7230   42.9760 S   0  0  0  0  0  0  0  0  0  0  0  0
   36.8160   30.0420   41.5220 C   0  0  0  0  0  0  0  0  0  0  0  0
   38.1640   30.0590   41.9330 C   0  0  0  0  0  0  0  0  0  0  0  0
   39.0200   31.0970   41.5440 C   0  0  0  0  0  0  0  0  0  0  0  0
   38.4700   32.0690   40.7580 N   0  0  0  0  0  0  0  0  0  0  0  0
   37.1900   32.0190   40.3900 C   0  0  0  0  0  0  0  0  0  0  0  0
   36.3620   31.0470   40.7450 N   0  0  0  0  0  0  0  0  0  0  0  0
   36.2340   29.2070   41.8690 H   0  0  0  0  0  0  0  0  0  0  0  0
   40.0490   31.0700   41.8840 H   0  0  0  0  0  0  0  0  0  0  0  0
   36.8060   32.8140   39.7670 H   0  0  0  0  0  0  0  0  0  0  0  0
  1  2  1  0  0  0  0
  3  1  1  0  0  0  0
  4  5  1  0  0  0  0
  4  1  1  0  0  0  0
  5  7  1  0  0  0  0
  5  6  1  0  0  0  0
  7  8  1  0  0  0  0
  9  7  1  0  0  0  0
 10  9  1  0  0  0  0
 11 12  1  0  0  0  0
 11  9  1  0  0  0  0
 12  4  1  0  0  0  0
 13  1  1  0  0  0  0
 14 20  1  0  0  0  0
 14 15  1  0  0  0  0
 15 13  1  0  0  0  0
 16 21  1  0  0  0  0
 16 15  2  0  0  0  0
 17 16  1  0  0  0  0
 18 19  1  0  0  0  0
 18 17  2  0  0  0  0
 19 14  2  0  0  0  0
 22 18  1  0  0  0  0
M  END
>  <minimizedAffinity>
-3.88905787

$$$$

 OpenBabel03252503003D

 22 23  0  0  0  0  0  0  0  0999 V2000
   37.6200   28.9820   39.6460 C   0  0  0  0  0  0  0  0  0  0  0  0
   37.0450   28.1290   39.1900 H   0  0  0  0  0  0  0  0  0  0  0  0
   38.6620   28.8130   39.3110 H   0  0  0  0  0  0  0  0  0  0  0  0
   37.5130   28.8240   41.0590 N   0  0  0  0  0  0  0  0  0  0  0  0
   38.7510   28.7990   41.7630 C   0  0  0  0  0  3  0  0  0  0  0  0
   39.4860   29.4450   41.2680 H   0  0  0  0  0  0  0  0  0  0  0  0
   38.4740   29.2510   43.1830 C   0  0  0  0  0  3  0  0  0  0  0  0
   38.7350   30.3260   43.3380 H   0  0  0  0  0  0  0  0  0  0  0  0
   37.0730   29.0190   43.5400 N   0  0  0  0  0  0  0  0  0  0  0  0
   36.9650   29.0100   44.5590 H   0  0  0  0  0  0  0  0  0  0  0  0
   36.6940   27.7220   43.0010 C   0  0  0  0  0  2  0  0  0  0  0  0
   36.6420   27.7730   41.4880 C   0  0  0  0  0  2  0  0  0  0  0  0
   36.9160   30.4850   38.9770 S   0  0  0  0  0  0  0  0  0  0  0  0
   37.4160   33.1340   39.6920 C   0  0  0  0  0  0  0  0  0  0  0  0
   37.9880   31.8780   39.4090 C   0  0  0  0  0  0  0  0  0  0  0  0
   39.3750   31.6930   39.4570 C   0  0  0  0  0  0  0  0  0  0  0  0
   40.1180   32.7900   39.7910 N   0  0  0  0  0  0  0  0  0  0  0  0
   39.5400   33.9620   40.0530 C   0  0  0  0  0  0  0  0  0  0  0  0
   38.2300   34.1600   40.0130 N   0  0  0  0  0  0  0  0  0  0  0  0
   36.3430   33.1810   39.6310 H   0  0  0  0  0  0  0  0  0  0  0  0
   39.7710   30.7100   39.2320 H   0  0  0  0  0  0  0  0  0  0  0  0
   40.1740   34.7980   40.3110 H   0  0  0  0  0  0  0  0  0  0  0  0
  1  4  1  0  0  0  0
  2  1  1  0  0  0  0
  3  1  1  0  0  0  0
  4 12  1  0  0  0  0
  4  5  1  0  0  0  0
  5  7  1  0  0  0  0
  6  5  1  0  0  0  0
  7  8  1  0  0  0  0
  7  9  1  0  0  0  0
  9 10  1  0  0  0  0
 11  9  1  0  0  0  0
 12 11  1  0  0  0  0
 13 15  1  0  0  0  0
 13  1  1  0  0  0  0
 14 19  1  0  0  0  0
 15 16  1  0  0  0  0
 15 14  2  0  0  0  0
 16 17  2  0  0  0  0
 17 18  1  0  0  0  0
 18 22  1  0  0  0  0
 19 18  2  0  0  0  0
 20 14  1  0  0  0  0
 21 16  1  0  0  0  0
M  END
>  <minimizedAffinity>
-3.87069392

$$$$

 OpenBabel03252503003D

 22 23  0  0  0  0  0  0  0  0999 V2000
   38.7690   27.7000   42.5960 C   0  0  0  0  0  0  0  0  0  0  0  0
   39.3980   28.0700   41.7400 H   0  0  0  0  0  0  0  0  0  0  0  0
   39.4290   27.8050   43.4800 H   0  0  0  0  0  0  0  0  0  0  0  0
   38.4980   26.3270   42.3280 N   0  0  0  0  0  0  0  0  0  0  0  0
   39.2010   25.7720   41.2220 C   0  0  0  0  0  3  0  0  0  0  0  0
   40.1900   26.2360   41.1270 H   0  0  0  0  0  0  0  0  0  0  0  0
   39.3030   24.2780   41.4510 C   0  0  0  0  0  3  0  0  0  0  0  0
   40.2970   23.9850   41.8650 H   0  0  0  0  0  0  0  0  0  0  0  0
   38.2340   23.8140   42.3380 N   0  0  0  0  0  0  0  0  0  0  0  0
   38.1020   22.8030   42.2320 H   0  0  0  0  0  0  0  0  0  0  0  0
   37.0150   24.5050   41.9520 C   0  0  0  0  0  2  0  0  0  0  0  0
   37.1100   25.9770   42.2980 C   0  0  0  0  0  2  0  0  0  0  0  0
   37.3380   28.7730   42.6750 S   0  0  0  0  0  0  0  0  0  0  0  0
   38.9750   30.8040   41.6860 C   0  0  0  0  0  0  0  0  0  0  0  0
   37.6710   30.2670   41.7110 C   0  0  0  0  0  0  0  0  0  0  0  0
   36.6310   30.8760   40.9980 C   0  0  0  0  0  0  0  0  0  0  0  0
   36.9600   31.9990   40.2940 N   0  0  0  0  0  0  0  0  0  0  0  0
   38.2040   32.4770   40.2950 C   0  0  0  0  0  0  0  0  0  0  0  0
   39.2040   31.9180   40.9620 N   0  0  0  0  0  0  0  0  0  0  0  0
   39.7080   30.2690   42.2630 H   0  0  0  0  0  0  0  0  0  0  0  0
   35.6450   30.4290   41.0450 H   0  0  0  0  0  0  0  0  0  0  0  0
   38.4100   33.3690   39.7210 H   0  0  0  0  0  0  0  0  0  0  0  0
  1 13  1  0  0  0  0
  1  3  1  0  0  0  0
  2  1  1  0  0  0  0
  4  1  1  0  0  0  0
  5  7  1  0  0  0  0
  5  4  1  0  0  0  0
  6  5  1  0  0  0  0
  7  8  1  0  0  0  0
  7  9  1  0  0  0  0
 10  9  1  0  0  0  0
 11 12  1  0  0  0  0
 11  9  1  0  0  0  0
 12  4  1  0  0  0  0
 14 15  1  0  0  0  0
 14 20  1  0  0  0  0
 15 13  1  0  0  0  0
 16 21  1  0  0  0  0
 16 15  2  0  0  0  0
 17 18  2  0  0  0  0
 17 16  1  0  0  0  0
 18 19  1  0  0  0  0
 19 14  2  0  0  0  0
 22 18  1  0  0  0  0
M  END
>  <minimizedAffinity>
-3.70142937

$$$$
