
 OpenBabel03252505323D

 30 32  0  0  0  0  0  0  0  0999 V2000
   46.7040   34.7960   42.0050 C   0  0  0  0  0  0  0  0  0  0  0  0
   47.9460   35.3970   41.9270 C   0  0  0  0  0  0  0  0  0  0  0  0
   48.7670   35.2960   40.8040 C   0  0  0  0  0  0  0  0  0  0  0  0
   48.3130   34.5570   39.7170 C   0  0  0  0  0  0  0  0  0  0  0  0
   47.0820   33.9710   39.8140 C   0  0  0  0  0  0  0  0  0  0  0  0
   46.2720   34.0740   40.9280 C   0  0  0  0  0  0  0  0  0  0  0  0
   48.3180   35.9830   42.7750 H   0  0  0  0  0  0  0  0  0  0  0  0
   49.7190   35.8050   40.8420 H   0  0  0  0  0  0  0  0  0  0  0  0
   49.0130   34.5410   38.9100 H   0  0  0  0  0  0  0  0  0  0  0  0
   46.8810   33.4460   38.8920 H   0  0  0  0  0  0  0  0  0  0  0  0
   44.4830   36.1000   44.7420 C   0  0  0  0  0  0  0  0  0  0  0  0
   45.1600   36.0430   43.5050 C   0  0  0  0  0  0  0  0  0  0  0  0
   45.9690   34.9610   43.2280 C   0  0  0  0  0  0  0  0  0  0  0  0
   46.0770   33.9850   44.1800 N   0  0  0  0  0  0  0  0  0  0  0  0
   45.4080   34.0770   45.3630 C   0  0  0  0  0  0  0  0  0  0  0  0
   44.6190   35.1290   45.6340 N   0  0  0  0  0  0  0  0  0  0  0  0
   45.5570   33.0570   46.3500 N   0  0  0  0  0  0  0  0  0  0  0  0
   43.8380   36.9550   44.9690 H   0  0  0  0  0  0  0  0  0  0  0  0
   45.0610   36.8160   42.7790 H   0  0  0  0  0  0  0  0  0  0  0  0
   45.6120   33.2190   47.3820 H   0  0  0  0  0  0  0  0  0  0  0  0
   45.6250   32.0320   46.0860 H   0  0  0  0  0  0  0  0  0  0  0  0
   45.0160   33.4390   40.8700 N   0  0  0  0  0  0  0  0  0  0  0  0
   43.8590   34.1050   40.3000 C   0  0  0  0  0  3  0  0  0  0  0  0
   43.4660   33.4290   39.4770 H   0  0  0  0  0  0  0  0  0  0  0  0
   42.7420   34.2590   41.2860 C   0  0  0  0  0  3  0  0  0  0  0  0
   41.8050   34.3980   40.6820 H   0  0  0  0  0  0  0  0  0  0  0  0
   42.5180   33.0570   42.0600 N   0  0  0  0  0  0  0  0  0  0  0  0
   42.8920   33.1330   43.0240 H   0  0  0  0  0  0  0  0  0  0  0  0
   43.1070   31.9640   41.3450 C   0  0  0  0  0  2  0  0  0  0  0  0
   44.6220   32.1260   41.3510 C   0  0  0  0  0  2  0  0  0  0  0  0
  1 13  1  0  0  0  0
  2  1  1  0  0  0  0
  2  7  1  0  0  0  0
  3  8  1  0  0  0  0
  3  2  2  0  0  0  0
  4  5  2  0  0  0  0
  4  3  1  0  0  0  0
  5  6  1  0  0  0  0
  6  1  2  0  0  0  0
  9  4  1  0  0  0  0
 10  5  1  0  0  0  0
 11 18  1  0  0  0  0
 11 16  1  0  0  0  0
 12 11  2  0  0  0  0
 13 12  1  0  0  0  0
 13 14  2  0  0  0  0
 14 15  1  0  0  0  0
 15 16  2  0  0  0  0
 15 17  1  0  0  0  0
 17 20  1  0  0  0  0
 19 12  1  0  0  0  0
 21 17  1  0  0  0  0
 22  6  1  0  0  0  0
 22 30  1  0  0  0  0
 23 22  1  0  0  0  0
 23 25  1  0  0  0  0
 24 23  1  0  0  0  0
 25 27  1  0  0  0  0
 26 25  1  0  0  0  0
 27 28  1  0  0  0  0
 29 30  1  0  0  0  0
 29 27  1  0  0  0  0
M  END
>  <minimizedAffinity>
-6.25092554

>  <minimizedRMSD>
0.387065411

$$$$
