
 OpenBabel03252505323D

 30 32  0  0  0  0  0  0  0  0999 V2000
   46.5650   34.7730   42.0710 C   0  0  0  0  0  0  0  0  0  0  0  0
   47.8790   35.1980   42.0050 C   0  0  0  0  0  0  0  0  0  0  0  0
   48.6790   35.0130   40.8780 C   0  0  0  0  0  0  0  0  0  0  0  0
   48.1280   34.3710   39.7740 C   0  0  0  0  0  0  0  0  0  0  0  0
   46.8270   33.9590   39.8590 C   0  0  0  0  0  0  0  0  0  0  0  0
   46.0380   34.1450   40.9770 C   0  0  0  0  0  0  0  0  0  0  0  0
   48.3270   35.7050   42.8670 H   0  0  0  0  0  0  0  0  0  0  0  0
   49.6920   35.3830   40.9260 H   0  0  0  0  0  0  0  0  0  0  0  0
   48.8200   34.2790   38.9650 H   0  0  0  0  0  0  0  0  0  0  0  0
   46.5560   33.4910   38.9240 H   0  0  0  0  0  0  0  0  0  0  0  0
   44.4060   36.2300   44.7800 C   0  0  0  0  0  0  0  0  0  0  0  0
   45.0530   36.1020   43.5320 C   0  0  0  0  0  0  0  0  0  0  0  0
   45.8580   35.0070   43.2990 C   0  0  0  0  0  0  0  0  0  0  0  0
   45.9920   34.0870   44.3030 N   0  0  0  0  0  0  0  0  0  0  0  0
   45.3500   34.2470   45.4940 C   0  0  0  0  0  0  0  0  0  0  0  0
   44.5650   35.3120   45.7240 N   0  0  0  0  0  0  0  0  0  0  0  0
   45.5260   33.2850   46.5350 N   0  0  0  0  0  0  0  0  0  0  0  0
   43.7640   37.0950   44.9730 H   0  0  0  0  0  0  0  0  0  0  0  0
   44.9350   36.8330   42.7660 H   0  0  0  0  0  0  0  0  0  0  0  0
   45.6050   33.5070   47.5540 H   0  0  0  0  0  0  0  0  0  0  0  0
   45.5890   32.2470   46.3290 H   0  0  0  0  0  0  0  0  0  0  0  0
   44.7070   33.6930   40.9050 N   0  0  0  0  0  0  0  0  0  0  0  0
   43.6980   34.4250   40.1620 C   0  0  0  0  0  3  0  0  0  0  0  0
   43.2550   33.6990   39.4100 H   0  0  0  0  0  0  0  0  0  0  0  0
   42.5610   34.8770   41.0280 C   0  0  0  0  0  3  0  0  0  0  0  0
   41.6930   35.0570   40.3390 H   0  0  0  0  0  0  0  0  0  0  0  0
   42.1140   33.8430   41.9380 N   0  0  0  0  0  0  0  0  0  0  0  0
   42.4410   34.0050   42.9090 H   0  0  0  0  0  0  0  0  0  0  0  0
   42.5720   32.5850   41.4250 C   0  0  0  0  0  2  0  0  0  0  0  0
   44.0920   32.5320   41.5270 C   0  0  0  0  0  2  0  0  0  0  0  0
  1 13  1  0  0  0  0
  2  1  1  0  0  0  0
  2  7  1  0  0  0  0
  3  8  1  0  0  0  0
  3  2  2  0  0  0  0
  4  5  2  0  0  0  0
  4  3  1  0  0  0  0
  5  6  1  0  0  0  0
  6  1  2  0  0  0  0
  9  4  1  0  0  0  0
 10  5  1  0  0  0  0
 11 18  1  0  0  0  0
 11 16  1  0  0  0  0
 12 11  2  0  0  0  0
 13 12  1  0  0  0  0
 13 14  2  0  0  0  0
 14 15  1  0  0  0  0
 15 16  2  0  0  0  0
 15 17  1  0  0  0  0
 17 20  1  0  0  0  0
 19 12  1  0  0  0  0
 21 17  1  0  0  0  0
 22  6  1  0  0  0  0
 22 30  1  0  0  0  0
 23 22  1  0  0  0  0
 23 25  1  0  0  0  0
 24 23  1  0  0  0  0
 25 27  1  0  0  0  0
 26 25  1  0  0  0  0
 27 28  1  0  0  0  0
 29 30  1  0  0  0  0
 29 27  1  0  0  0  0
M  END
>  <minimizedAffinity>
-6.34788322

>  <minimizedRMSD>
0.37503919

$$$$
