
 OpenBabel03252505323D

 30 32  0  0  0  0  0  0  0  0999 V2000
   46.5590   34.7860   42.0910 C   0  0  0  0  0  0  0  0  0  0  0  0
   47.8810   35.1870   42.0310 C   0  0  0  0  0  0  0  0  0  0  0  0
   48.6760   35.0040   40.9000 C   0  0  0  0  0  0  0  0  0  0  0  0
   48.1130   34.3910   39.7870 C   0  0  0  0  0  0  0  0  0  0  0  0
   46.8040   34.0030   39.8660 C   0  0  0  0  0  0  0  0  0  0  0  0
   46.0190   34.1870   40.9880 C   0  0  0  0  0  0  0  0  0  0  0  0
   48.3400   35.6710   42.9000 H   0  0  0  0  0  0  0  0  0  0  0  0
   49.6970   35.3540   40.9540 H   0  0  0  0  0  0  0  0  0  0  0  0
   48.8020   34.2980   38.9760 H   0  0  0  0  0  0  0  0  0  0  0  0
   46.5230   33.5550   38.9250 H   0  0  0  0  0  0  0  0  0  0  0  0
   44.4180   36.2350   44.8200 C   0  0  0  0  0  0  0  0  0  0  0  0
   45.0610   36.1130   43.5690 C   0  0  0  0  0  0  0  0  0  0  0  0
   45.8570   35.0150   43.3240 C   0  0  0  0  0  0  0  0  0  0  0  0
   45.9880   34.0860   44.3190 N   0  0  0  0  0  0  0  0  0  0  0  0
   45.3520   34.2390   45.5140 C   0  0  0  0  0  0  0  0  0  0  0  0
   44.5740   35.3070   45.7550 N   0  0  0  0  0  0  0  0  0  0  0  0
   45.5230   33.2680   46.5450 N   0  0  0  0  0  0  0  0  0  0  0  0
   43.7830   37.1030   45.0230 H   0  0  0  0  0  0  0  0  0  0  0  0
   44.9450   36.8510   42.8090 H   0  0  0  0  0  0  0  0  0  0  0  0
   45.6070   33.4800   47.5660 H   0  0  0  0  0  0  0  0  0  0  0  0
   45.5790   32.2310   46.3310 H   0  0  0  0  0  0  0  0  0  0  0  0
   44.6790   33.7610   40.9110 N   0  0  0  0  0  0  0  0  0  0  0  0
   44.3040   32.3870   41.1810 C   0  0  0  0  0  3  0  0  0  0  0  0
   43.5210   32.4170   42.0030 H   0  0  0  0  0  0  0  0  0  0  0  0
   43.6500   31.7280   40.0050 C   0  0  0  0  0  3  0  0  0  0  0  0
   43.0610   30.8630   40.4150 H   0  0  0  0  0  0  0  0  0  0  0  0
   42.6720   32.5820   39.3650 N   0  0  0  0  0  0  0  0  0  0  0  0
   43.0260   32.9900   38.4790 H   0  0  0  0  0  0  0  0  0  0  0  0
   42.3000   33.5970   40.3070 C   0  0  0  0  0  2  0  0  0  0  0  0
   43.4930   34.5160   40.5420 C   0  0  0  0  0  2  0  0  0  0  0  0
  1 13  1  0  0  0  0
  2  1  1  0  0  0  0
  2  7  1  0  0  0  0
  3  8  1  0  0  0  0
  3  2  2  0  0  0  0
  4  5  2  0  0  0  0
  4  3  1  0  0  0  0
  5  6  1  0  0  0  0
  6  1  2  0  0  0  0
  9  4  1  0  0  0  0
 10  5  1  0  0  0  0
 11 18  1  0  0  0  0
 11 16  1  0  0  0  0
 12 11  2  0  0  0  0
 13 12  1  0  0  0  0
 13 14  2  0  0  0  0
 14 15  1  0  0  0  0
 15 16  2  0  0  0  0
 15 17  1  0  0  0  0
 17 20  1  0  0  0  0
 19 12  1  0  0  0  0
 21 17  1  0  0  0  0
 22  6  1  0  0  0  0
 22 23  1  0  0  0  0
 23 24  1  0  0  0  0
 25 26  1  0  0  0  0
 25 23  1  0  0  0  0
 27 25  1  0  0  0  0
 27 29  1  0  0  0  0
 28 27  1  0  0  0  0
 29 30  1  0  0  0  0
 30 22  1  0  0  0  0
M  END
>  <minimizedAffinity>
-5.93353271

>  <minimizedRMSD>
0.622988045

$$$$
