
 OpenBabel03242511433D

 34 36  0  0  0  0  0  0  0  0999 V2000
   36.0890   30.0370   38.9660 C   0  0  0  0  0  0  0  0  0  0  0  0
   35.5900   29.3180   37.8870 C   0  0  0  0  0  0  0  0  0  0  0  0
   36.0380   29.4480   36.5990 C   0  0  0  0  0  0  0  0  0  0  0  0
   37.0430   30.3520   36.3710 C   0  0  0  0  0  0  0  0  0  0  0  0
   37.5490   31.0790   37.4550 C   0  0  0  0  0  0  0  0  0  0  0  0
   37.0810   30.9250   38.7530 C   0  0  0  0  0  0  0  0  0  0  0  0
   34.7930   28.6310   38.1950 H   0  0  0  0  0  0  0  0  0  0  0  0
   35.5260   28.8060   35.9220 H   0  0  0  0  0  0  0  0  0  0  0  0
   37.3070   30.3630   35.3020 H   0  0  0  0  0  0  0  0  0  0  0  0
   38.3260   31.7130   36.9870 H   0  0  0  0  0  0  0  0  0  0  0  0
   37.9650   31.7900   39.4470 N   0  0  0  0  0  0  0  0  0  0  0  0
   37.4300   33.1220   39.7770 C   0  0  0  0  0  3  0  0  0  0  0  0
   36.7740   33.5200   38.9780 H   0  0  0  0  0  0  0  0  0  0  0  0
   38.5020   34.1260   40.0480 C   0  0  0  0  0  3  0  0  0  0  0  0
   39.1600   34.2080   39.1750 H   0  0  0  0  0  0  0  0  0  0  0  0
   39.3280   33.7620   41.1850 N   0  0  0  0  0  0  0  0  0  0  0  0
   40.2500   34.2260   41.0520 H   0  0  0  0  0  0  0  0  0  0  0  0
   39.4510   32.3200   41.3040 C   0  0  0  0  0  2  0  0  0  0  0  0
   39.3120   31.6390   39.9610 C   0  0  0  0  0  2  0  0  0  0  0  0
   35.6480   30.0060   40.3730 C   0  0  0  0  0  0  0  0  0  0  0  0
   34.6790   30.5650   40.4820 H   0  0  0  0  0  0  0  0  0  0  0  0
   36.3960   30.6130   40.9230 H   0  0  0  0  0  0  0  0  0  0  0  0
   35.5350   28.6010   40.8990 C   0  0  0  0  0  0  0  0  0  0  0  0
   34.6090   28.4480   41.4230 H   0  0  0  0  0  0  0  0  0  0  0  0
   35.7840   27.8510   40.0890 H   0  0  0  0  0  0  0  0  0  0  0  0
   38.4450   29.1530   43.0980 C   0  0  0  0  0  0  0  0  0  0  0  0
   38.8580   27.8330   43.3870 C   0  0  0  0  0  0  0  0  0  0  0  0
   38.1120   26.8110   42.8260 C   0  0  0  0  0  0  0  0  0  0  0  0
   37.0600   27.1050   42.0540 N   0  0  0  0  0  0  0  0  0  0  0  0
   36.7090   28.3940   41.8080 C   0  0  0  0  0  0  0  0  0  0  0  0
   37.3780   29.4030   42.3140 N   0  0  0  0  0  0  0  0  0  0  0  0
   38.9860   29.9990   43.5050 H   0  0  0  0  0  0  0  0  0  0  0  0
   39.7340   27.7260   44.0320 H   0  0  0  0  0  0  0  0  0  0  0  0
   38.4330   25.8030   43.0520 H   0  0  0  0  0  0  0  0  0  0  0  0
  1 20  1  0  0  0  0
  2  7  1  0  0  0  0
  2  1  2  0  0  0  0
  3  2  1  0  0  0  0
  4  3  2  0  0  0  0
  4  5  1  0  0  0  0
  5  6  2  0  0  0  0
  6  1  1  0  0  0  0
  6 11  1  0  0  0  0
  8  3  1  0  0  0  0
  9  4  1  0  0  0  0
 10  5  1  0  0  0  0
 11 12  1  0  0  0  0
 11 19  1  0  0  0  0
 12 14  1  0  0  0  0
 13 12  1  0  0  0  0
 14 16  1  0  0  0  0
 15 14  1  0  0  0  0
 16 18  1  0  0  0  0
 17 16  1  0  0  0  0
 19 18  1  0  0  0  0
 20 21  1  0  0  0  0
 20 23  1  0  0  0  0
 20 22  1  0  0  0  0
 23 24  1  0  0  0  0
 23 30  1  0  0  0  0
 25 23  1  0  0  0  0
 26 27  1  0  0  0  0
 26 32  1  0  0  0  0
 27 33  1  0  0  0  0
 28 34  1  0  0  0  0
 28 27  2  0  0  0  0
 29 28  1  0  0  0  0
 30 29  2  0  0  0  0
 30 31  1  0  0  0  0
 31 26  2  0  0  0  0
M  END
>  <minimizedAffinity>
-5.51720953

$$$$

 OpenBabel03242511433D

 34 36  0  0  0  0  0  0  0  0999 V2000
   37.0850   29.4490   41.4770 C   0  0  0  0  0  0  0  0  0  0  0  0
   35.9350   28.8430   40.9860 C   0  0  0  0  0  0  0  0  0  0  0  0
   35.3450   29.1620   39.7930 C   0  0  0  0  0  0  0  0  0  0  0  0
   35.9330   30.1480   39.0430 C   0  0  0  0  0  0  0  0  0  0  0  0
   37.0910   30.7620   39.5330 C   0  0  0  0  0  0  0  0  0  0  0  0
   37.6740   30.4170   40.7460 C   0  0  0  0  0  0  0  0  0  0  0  0
   35.5610   28.0750   41.6730 H   0  0  0  0  0  0  0  0  0  0  0  0
   34.4750   28.5810   39.5990 H   0  0  0  0  0  0  0  0  0  0  0  0
   35.3610   30.3100   38.1150 H   0  0  0  0  0  0  0  0  0  0  0  0
   37.3360   31.4960   38.7430 H   0  0  0  0  0  0  0  0  0  0  0  0
   38.8280   31.2400   40.7170 N   0  0  0  0  0  0  0  0  0  0  0  0
   38.5920   32.6810   40.9090 C   0  0  0  0  0  3  0  0  0  0  0  0
   37.6550   33.0200   40.4270 H   0  0  0  0  0  0  0  0  0  0  0  0
   39.7140   33.5250   40.3980 C   0  0  0  0  0  3  0  0  0  0  0  0
   39.8710   33.3240   39.3320 H   0  0  0  0  0  0  0  0  0  0  0  0
   40.9670   33.2560   41.0820 N   0  0  0  0  0  0  0  0  0  0  0  0
   41.7320   33.5240   40.4310 H   0  0  0  0  0  0  0  0  0  0  0  0
   41.0540   31.8650   41.4890 C   0  0  0  0  0  2  0  0  0  0  0  0
   40.2460   30.9680   40.5780 C   0  0  0  0  0  2  0  0  0  0  0  0
   37.7700   29.2140   42.7620 C   0  0  0  0  0  0  0  0  0  0  0  0
   37.7550   30.1530   43.3800 H   0  0  0  0  0  0  0  0  0  0  0  0
   38.8360   29.0590   42.4970 H   0  0  0  0  0  0  0  0  0  0  0  0
   37.1810   28.0520   43.5120 C   0  0  0  0  0  0  0  0  0  0  0  0
   37.1730   28.2280   44.5720 H   0  0  0  0  0  0  0  0  0  0  0  0
   36.1990   27.7340   43.0480 H   0  0  0  0  0  0  0  0  0  0  0  0
   38.3440   24.8020   42.2090 C   0  0  0  0  0  0  0  0  0  0  0  0
   39.6660   24.7350   42.7050 C   0  0  0  0  0  0  0  0  0  0  0  0
   40.1040   25.8130   43.4530 C   0  0  0  0  0  0  0  0  0  0  0  0
   39.2840   26.8470   43.6720 N   0  0  0  0  0  0  0  0  0  0  0  0
   38.0210   26.8570   43.1710 C   0  0  0  0  0  0  0  0  0  0  0  0
   37.5510   25.8630   42.4540 N   0  0  0  0  0  0  0  0  0  0  0  0
   37.9380   23.9910   41.6160 H   0  0  0  0  0  0  0  0  0  0  0  0
   40.2340   23.8360   42.4560 H   0  0  0  0  0  0  0  0  0  0  0  0
   41.1170   25.7560   43.8290 H   0  0  0  0  0  0  0  0  0  0  0  0
  1 20  1  0  0  0  0
  2  1  1  0  0  0  0
  2  7  1  0  0  0  0
  3  2  2  0  0  0  0
  4  5  2  0  0  0  0
  4  3  1  0  0  0  0
  5  6  1  0  0  0  0
  6  1  2  0  0  0  0
  8  3  1  0  0  0  0
  9  4  1  0  0  0  0
 10  5  1  0  0  0  0
 11  6  1  0  0  0  0
 11 12  1  0  0  0  0
 13 12  1  0  0  0  0
 14 12  1  0  0  0  0
 14 16  1  0  0  0  0
 15 14  1  0  0  0  0
 16 18  1  0  0  0  0
 17 16  1  0  0  0  0
 19 11  1  0  0  0  0
 19 18  1  0  0  0  0
 20 21  1  0  0  0  0
 20 23  1  0  0  0  0
 22 20  1  0  0  0  0
 23 24  1  0  0  0  0
 25 23  1  0  0  0  0
 26 31  2  0  0  0  0
 26 27  1  0  0  0  0
 27 28  2  0  0  0  0
 28 29  1  0  0  0  0
 28 34  1  0  0  0  0
 30 23  1  0  0  0  0
 30 29  2  0  0  0  0
 31 30  1  0  0  0  0
 32 26  1  0  0  0  0
 33 27  1  0  0  0  0
M  END
>  <minimizedAffinity>
-5.29639721

$$$$

 OpenBabel03242511433D

 34 36  0  0  0  0  0  0  0  0999 V2000
   38.9970   31.7510   40.7620 C   0  0  0  0  0  0  0  0  0  0  0  0
   39.4420   33.0560   40.9370 C   0  0  0  0  0  0  0  0  0  0  0  0
   38.8120   34.1610   40.4310 C   0  0  0  0  0  0  0  0  0  0  0  0
   37.6690   33.9550   39.7020 C   0  0  0  0  0  0  0  0  0  0  0  0
   37.2160   32.6430   39.5230 C   0  0  0  0  0  0  0  0  0  0  0  0
   37.8710   31.5380   40.0510 C   0  0  0  0  0  0  0  0  0  0  0  0
   40.3620   33.0900   41.5330 H   0  0  0  0  0  0  0  0  0  0  0  0
   39.3130   35.0660   40.6790 H   0  0  0  0  0  0  0  0  0  0  0  0
   37.2650   34.9180   39.3520 H   0  0  0  0  0  0  0  0  0  0  0  0
   36.3020   32.7770   38.9140 H   0  0  0  0  0  0  0  0  0  0  0  0
   36.9760   30.5060   39.6720 N   0  0  0  0  0  0  0  0  0  0  0  0
   35.7900   30.3400   40.5280 C   0  0  0  0  0  3  0  0  0  0  0  0
   36.0180   30.5140   41.5980 H   0  0  0  0  0  0  0  0  0  0  0  0
   35.1630   28.9900   40.3960 C   0  0  0  0  0  3  0  0  0  0  0  0
   35.8990   28.2160   40.6440 H   0  0  0  0  0  0  0  0  0  0  0  0
   34.6910   28.7280   39.0480 N   0  0  0  0  0  0  0  0  0  0  0  0
   34.6790   27.6950   38.9260 H   0  0  0  0  0  0  0  0  0  0  0  0
   35.5270   29.3880   38.0610 C   0  0  0  0  0  2  0  0  0  0  0  0
   36.9420   29.5690   38.5640 C   0  0  0  0  0  2  0  0  0  0  0  0
   39.6220   30.4980   41.2220 C   0  0  0  0  0  0  0  0  0  0  0  0
   40.7310   30.5330   41.0350 H   0  0  0  0  0  0  0  0  0  0  0  0
   39.2380   29.7150   40.5370 H   0  0  0  0  0  0  0  0  0  0  0  0
   39.3170   30.2110   42.6670 C   0  0  0  0  0  0  0  0  0  0  0  0
   40.2150   30.0690   43.2400 H   0  0  0  0  0  0  0  0  0  0  0  0
   38.5740   30.9610   43.0730 H   0  0  0  0  0  0  0  0  0  0  0  0
   36.8580   27.6230   43.5980 C   0  0  0  0  0  0  0  0  0  0  0  0
   37.0570   26.6460   42.5970 C   0  0  0  0  0  0  0  0  0  0  0  0
   38.0170   26.9220   41.6400 C   0  0  0  0  0  0  0  0  0  0  0  0
   38.6990   28.0720   41.6970 N   0  0  0  0  0  0  0  0  0  0  0  0
   38.4670   28.9760   42.6830 C   0  0  0  0  0  0  0  0  0  0  0  0
   37.5680   28.7680   43.6170 N   0  0  0  0  0  0  0  0  0  0  0  0
   36.1230   27.4690   44.3780 H   0  0  0  0  0  0  0  0  0  0  0  0
   36.4360   25.7490   42.6610 H   0  0  0  0  0  0  0  0  0  0  0  0
   38.1640   26.1700   40.8760 H   0  0  0  0  0  0  0  0  0  0  0  0
  1  2  1  0  0  0  0
  1 20  1  0  0  0  0
  2  7  1  0  0  0  0
  3  8  1  0  0  0  0
  3  2  2  0  0  0  0
  4  3  1  0  0  0  0
  5  4  2  0  0  0  0
  5  6  1  0  0  0  0
  6  1  2  0  0  0  0
  9  4  1  0  0  0  0
 10  5  1  0  0  0  0
 11  6  1  0  0  0  0
 11 12  1  0  0  0  0
 12 13  1  0  0  0  0
 14 12  1  0  0  0  0
 14 15  1  0  0  0  0
 16 14  1  0  0  0  0
 17 16  1  0  0  0  0
 18 19  1  0  0  0  0
 18 16  1  0  0  0  0
 19 11  1  0  0  0  0
 20 23  1  0  0  0  0
 21 20  1  0  0  0  0
 22 20  1  0  0  0  0
 23 30  1  0  0  0  0
 23 25  1  0  0  0  0
 23 24  1  0  0  0  0
 26 31  1  0  0  0  0
 26 32  1  0  0  0  0
 27 33  1  0  0  0  0
 27 26  2  0  0  0  0
 28 29  2  0  0  0  0
 28 27  1  0  0  0  0
 29 30  1  0  0  0  0
 30 31  2  0  0  0  0
 34 28  1  0  0  0  0
M  END
>  <minimizedAffinity>
-5.19623327

$$$$

 OpenBabel03242511433D

 34 36  0  0  0  0  0  0  0  0999 V2000
   36.6000   28.3590   41.2100 C   0  0  0  0  0  0  0  0  0  0  0  0
   36.5140   27.5970   42.3690 C   0  0  0  0  0  0  0  0  0  0  0  0
   37.1900   27.8750   43.5260 C   0  0  0  0  0  0  0  0  0  0  0  0
   38.0050   28.9790   43.5300 C   0  0  0  0  0  0  0  0  0  0  0  0
   38.0940   29.7490   42.3660 C   0  0  0  0  0  0  0  0  0  0  0  0
   37.3950   29.4490   41.2050 C   0  0  0  0  0  0  0  0  0  0  0  0
   35.8360   26.7460   42.2410 H   0  0  0  0  0  0  0  0  0  0  0  0
   36.9860   27.1710   44.2980 H   0  0  0  0  0  0  0  0  0  0  0  0
   38.4900   29.0870   44.5140 H   0  0  0  0  0  0  0  0  0  0  0  0
   38.8030   30.5500   42.6520 H   0  0  0  0  0  0  0  0  0  0  0  0
   37.7550   30.5570   40.3960 N   0  0  0  0  0  0  0  0  0  0  0  0
   39.0120   30.4180   39.6430 C   0  0  0  0  0  3  0  0  0  0  0  0
   39.7860   29.8730   40.2170 H   0  0  0  0  0  0  0  0  0  0  0  0
   39.5820   31.7320   39.2190 C   0  0  0  0  0  3  0  0  0  0  0  0
   39.7560   32.3610   40.1000 H   0  0  0  0  0  0  0  0  0  0  0  0
   38.6930   32.4610   38.3310 N   0  0  0  0  0  0  0  0  0  0  0  0
   38.9260   33.4700   38.4290 H   0  0  0  0  0  0  0  0  0  0  0  0
   37.3010   32.1880   38.6430 C   0  0  0  0  0  2  0  0  0  0  0  0
   37.1190   31.8260   40.0990 C   0  0  0  0  0  2  0  0  0  0  0  0
   35.9550   28.1220   39.9050 C   0  0  0  0  0  0  0  0  0  0  0  0
   35.6930   27.0340   39.8010 H   0  0  0  0  0  0  0  0  0  0  0  0
   36.7490   28.3020   39.1530 H   0  0  0  0  0  0  0  0  0  0  0  0
   34.7490   28.9990   39.7040 C   0  0  0  0  0  0  0  0  0  0  0  0
   33.8910   28.6170   40.2240 H   0  0  0  0  0  0  0  0  0  0  0  0
   35.0100   30.0840   39.8910 H   0  0  0  0  0  0  0  0  0  0  0  0
   33.1400   28.9810   36.3830 C   0  0  0  0  0  0  0  0  0  0  0  0
   34.2480   29.0840   35.5120 C   0  0  0  0  0  0  0  0  0  0  0  0
   35.4970   29.1690   36.1010 C   0  0  0  0  0  0  0  0  0  0  0  0
   35.6040   29.1500   37.4350 N   0  0  0  0  0  0  0  0  0  0  0  0
   34.5040   29.0470   38.2250 C   0  0  0  0  0  0  0  0  0  0  0  0
   33.2940   28.9650   37.7220 N   0  0  0  0  0  0  0  0  0  0  0  0
   32.1340   28.9100   35.9880 H   0  0  0  0  0  0  0  0  0  0  0  0
   34.0270   29.0890   34.4420 H   0  0  0  0  0  0  0  0  0  0  0  0
   36.3410   29.2480   35.4290 H   0  0  0  0  0  0  0  0  0  0  0  0
  1  2  1  0  0  0  0
  2  3  2  0  0  0  0
  3  4  1  0  0  0  0
  3  8  1  0  0  0  0
  4  9  1  0  0  0  0
  5 10  1  0  0  0  0
  5  4  2  0  0  0  0
  6  1  2  0  0  0  0
  6  5  1  0  0  0  0
  7  2  1  0  0  0  0
 11  6  1  0  0  0  0
 12 13  1  0  0  0  0
 12 11  1  0  0  0  0
 14 12  1  0  0  0  0
 14 15  1  0  0  0  0
 16 17  1  0  0  0  0
 16 18  1  0  0  0  0
 16 14  1  0  0  0  0
 18 19  1  0  0  0  0
 19 11  1  0  0  0  0
 20  1  1  0  0  0  0
 21 20  1  0  0  0  0
 22 20  1  0  0  0  0
 23 25  1  0  0  0  0
 23 20  1  0  0  0  0
 23 24  1  0  0  0  0
 26 31  1  0  0  0  0
 27 28  1  0  0  0  0
 27 26  2  0  0  0  0
 28 29  2  0  0  0  0
 29 30  1  0  0  0  0
 30 23  1  0  0  0  0
 31 30  2  0  0  0  0
 32 26  1  0  0  0  0
 33 27  1  0  0  0  0
 34 28  1  0  0  0  0
M  END
>  <minimizedAffinity>
-5.13395882

$$$$

 OpenBabel03242511433D

 34 36  0  0  0  0  0  0  0  0999 V2000
   38.4080   26.5550   42.4790 C   0  0  0  0  0  0  0  0  0  0  0  0
   37.1280   26.0130   42.4840 C   0  0  0  0  0  0  0  0  0  0  0  0
   36.8270   24.7410   42.0750 C   0  0  0  0  0  0  0  0  0  0  0  0
   37.8650   23.9610   41.6330 C   0  0  0  0  0  0  0  0  0  0  0  0
   39.1550   24.5020   41.6270 C   0  0  0  0  0  0  0  0  0  0  0  0
   39.4350   25.7940   42.0500 C   0  0  0  0  0  0  0  0  0  0  0  0
   36.3880   26.7310   42.8570 H   0  0  0  0  0  0  0  0  0  0  0  0
   35.7900   24.5200   42.1590 H   0  0  0  0  0  0  0  0  0  0  0  0
   37.4900   22.9690   41.3320 H   0  0  0  0  0  0  0  0  0  0  0  0
   39.7700   23.6720   41.2310 H   0  0  0  0  0  0  0  0  0  0  0  0
   40.8480   25.8000   41.9340 N   0  0  0  0  0  0  0  0  0  0  0  0
   41.5810   25.0980   43.0010 C   0  0  0  0  0  3  0  0  0  0  0  0
   41.1030   25.2260   43.9920 H   0  0  0  0  0  0  0  0  0  0  0  0
   43.0060   25.5330   43.1080 C   0  0  0  0  0  3  0  0  0  0  0  0
   43.0500   26.6130   43.2900 H   0  0  0  0  0  0  0  0  0  0  0  0
   43.7610   25.2640   41.8960 N   0  0  0  0  0  0  0  0  0  0  0  0
   44.5500   25.9400   41.8740 H   0  0  0  0  0  0  0  0  0  0  0  0
   42.9170   25.3670   40.7190 C   0  0  0  0  0  2  0  0  0  0  0  0
   41.7670   26.3240   40.9420 C   0  0  0  0  0  2  0  0  0  0  0  0
   38.8290   27.9180   42.8520 C   0  0  0  0  0  0  0  0  0  0  0  0
   39.4430   28.3670   42.0240 H   0  0  0  0  0  0  0  0  0  0  0  0
   39.5360   27.7820   43.6950 H   0  0  0  0  0  0  0  0  0  0  0  0
   37.6590   28.7950   43.2060 C   0  0  0  0  0  0  0  0  0  0  0  0
   36.7780   28.2150   43.4120 H   0  0  0  0  0  0  0  0  0  0  0  0
   37.9540   29.5560   43.9880 H   0  0  0  0  0  0  0  0  0  0  0  0
   38.0630   31.4220   40.6470 C   0  0  0  0  0  0  0  0  0  0  0  0
   36.8560   31.3200   39.9190 C   0  0  0  0  0  0  0  0  0  0  0  0
   35.9620   30.3470   40.3290 C   0  0  0  0  0  0  0  0  0  0  0  0
   36.2670   29.5620   41.3690 N   0  0  0  0  0  0  0  0  0  0  0  0
   37.4430   29.7050   42.0340 C   0  0  0  0  0  0  0  0  0  0  0  0
   38.3290   30.6100   41.6890 N   0  0  0  0  0  0  0  0  0  0  0  0
   38.8060   32.1630   40.3780 H   0  0  0  0  0  0  0  0  0  0  0  0
   36.7270   32.0200   39.0900 H   0  0  0  0  0  0  0  0  0  0  0  0
   35.0400   30.2740   39.7680 H   0  0  0  0  0  0  0  0  0  0  0  0
  1  2  1  0  0  0  0
  1 20  1  0  0  0  0
  2  7  1  0  0  0  0
  3  8  1  0  0  0  0
  3  2  2  0  0  0  0
  4  3  1  0  0  0  0
  5  4  2  0  0  0  0
  5  6  1  0  0  0  0
  6  1  2  0  0  0  0
  9  4  1  0  0  0  0
 10  5  1  0  0  0  0
 11  6  1  0  0  0  0
 11 12  1  0  0  0  0
 12 14  1  0  0  0  0
 12 13  1  0  0  0  0
 14 15  1  0  0  0  0
 16 14  1  0  0  0  0
 17 16  1  0  0  0  0
 18 19  1  0  0  0  0
 18 16  1  0  0  0  0
 19 11  1  0  0  0  0
 20 23  1  0  0  0  0
 20 22  1  0  0  0  0
 21 20  1  0  0  0  0
 23 24  1  0  0  0  0
 23 25  1  0  0  0  0
 26 31  1  0  0  0  0
 27 28  1  0  0  0  0
 27 26  2  0  0  0  0
 28 29  2  0  0  0  0
 29 30  1  0  0  0  0
 30 23  1  0  0  0  0
 31 30  2  0  0  0  0
 32 26  1  0  0  0  0
 33 27  1  0  0  0  0
 34 28  1  0  0  0  0
M  END
>  <minimizedAffinity>
-5.10766315

$$$$

 OpenBabel03242511433D

 34 36  0  0  0  0  0  0  0  0999 V2000
   36.1200   30.1550   39.8740 C   0  0  0  0  0  0  0  0  0  0  0  0
   36.5570   31.2180   40.6550 C   0  0  0  0  0  0  0  0  0  0  0  0
   37.2590   32.2910   40.1750 C   0  0  0  0  0  0  0  0  0  0  0  0
   37.5470   32.3060   38.8350 C   0  0  0  0  0  0  0  0  0  0  0  0
   37.1090   31.2370   38.0430 C   0  0  0  0  0  0  0  0  0  0  0  0
   36.3950   30.1620   38.5540 C   0  0  0  0  0  0  0  0  0  0  0  0
   36.2670   31.0910   41.7050 H   0  0  0  0  0  0  0  0  0  0  0  0
   37.4970   32.9970   40.9350 H   0  0  0  0  0  0  0  0  0  0  0  0
   38.1150   33.2150   38.5800 H   0  0  0  0  0  0  0  0  0  0  0  0
   37.4750   31.5100   37.0350 H   0  0  0  0  0  0  0  0  0  0  0  0
   36.1280   29.4450   37.3600 N   0  0  0  0  0  0  0  0  0  0  0  0
   37.3080   28.9450   36.6360 C   0  0  0  0  0  3  0  0  0  0  0  0
   38.1580   29.6530   36.6820 H   0  0  0  0  0  0  0  0  0  0  0  0
   37.0240   28.6450   35.2000 C   0  0  0  0  0  3  0  0  0  0  0  0
   36.6500   29.5470   34.7020 H   0  0  0  0  0  0  0  0  0  0  0  0
   36.0190   27.6090   35.0390 N   0  0  0  0  0  0  0  0  0  0  0  0
   35.5790   27.7550   34.1080 H   0  0  0  0  0  0  0  0  0  0  0  0
   35.0480   27.6470   36.1180 C   0  0  0  0  0  2  0  0  0  0  0  0
   34.9070   29.0400   36.6890 C   0  0  0  0  0  2  0  0  0  0  0  0
   35.4030   28.9390   40.2970 C   0  0  0  0  0  0  0  0  0  0  0  0
   34.4400   28.8440   39.7230 H   0  0  0  0  0  0  0  0  0  0  0  0
   35.0960   29.1330   41.3450 H   0  0  0  0  0  0  0  0  0  0  0  0
   36.2500   27.7040   40.1550 C   0  0  0  0  0  0  0  0  0  0  0  0
   35.6480   26.8240   40.0220 H   0  0  0  0  0  0  0  0  0  0  0  0
   37.0730   27.8710   39.3970 H   0  0  0  0  0  0  0  0  0  0  0  0
   37.3420   27.7240   43.6800 C   0  0  0  0  0  0  0  0  0  0  0  0
   38.7270   27.4690   43.5660 C   0  0  0  0  0  0  0  0  0  0  0  0
   39.2240   27.2890   42.2880 C   0  0  0  0  0  0  0  0  0  0  0  0
   38.3970   27.3600   41.2380 N   0  0  0  0  0  0  0  0  0  0  0  0
   37.0720   27.6100   41.4060 C   0  0  0  0  0  0  0  0  0  0  0  0
   36.5450   27.7880   42.5950 N   0  0  0  0  0  0  0  0  0  0  0  0
   36.8880   27.8750   44.6520 H   0  0  0  0  0  0  0  0  0  0  0  0
   39.2940   27.4350   44.5000 H   0  0  0  0  0  0  0  0  0  0  0  0
   40.2850   27.0930   42.2080 H   0  0  0  0  0  0  0  0  0  0  0  0
  1 20  1  0  0  0  0
  1  2  1  0  0  0  0
  2  7  1  0  0  0  0
  3  2  2  0  0  0  0
  3  8  1  0  0  0  0
  4  3  1  0  0  0  0
  5  6  1  0  0  0  0
  5  4  2  0  0  0  0
  6  1  2  0  0  0  0
  9  4  1  0  0  0  0
 10  5  1  0  0  0  0
 11  6  1  0  0  0  0
 12 13  1  0  0  0  0
 12 11  1  0  0  0  0
 14 12  1  0  0  0  0
 15 14  1  0  0  0  0
 16 14  1  0  0  0  0
 16 18  1  0  0  0  0
 17 16  1  0  0  0  0
 18 19  1  0  0  0  0
 19 11  1  0  0  0  0
 20 22  1  0  0  0  0
 21 20  1  0  0  0  0
 23 20  1  0  0  0  0
 23 30  1  0  0  0  0
 24 23  1  0  0  0  0
 25 23  1  0  0  0  0
 26 32  1  0  0  0  0
 27 26  1  0  0  0  0
 27 33  1  0  0  0  0
 28 27  2  0  0  0  0
 29 30  2  0  0  0  0
 29 28  1  0  0  0  0
 30 31  1  0  0  0  0
 31 26  2  0  0  0  0
 34 28  1  0  0  0  0
M  END
>  <minimizedAffinity>
-5.06433487

$$$$

 OpenBabel03242511433D

 34 36  0  0  0  0  0  0  0  0999 V2000
   37.5230   28.1570   41.4270 C   0  0  0  0  0  0  0  0  0  0  0  0
   37.0450   26.9210   41.0100 C   0  0  0  0  0  0  0  0  0  0  0  0
   36.5150   26.6760   39.7720 C   0  0  0  0  0  0  0  0  0  0  0  0
   36.4530   27.7290   38.8950 C   0  0  0  0  0  0  0  0  0  0  0  0
   36.9330   28.9760   39.3100 C   0  0  0  0  0  0  0  0  0  0  0  0
   37.4710   29.1980   40.5700 C   0  0  0  0  0  0  0  0  0  0  0  0
   37.1480   26.1640   41.7970 H   0  0  0  0  0  0  0  0  0  0  0  0
   36.2090   25.6640   39.6510 H   0  0  0  0  0  0  0  0  0  0  0  0
   36.0060   27.4010   37.9420 H   0  0  0  0  0  0  0  0  0  0  0  0
   36.7610   29.6150   38.4240 H   0  0  0  0  0  0  0  0  0  0  0  0
   37.8750   30.5500   40.4410 N   0  0  0  0  0  0  0  0  0  0  0  0
   36.7890   31.5450   40.4230 C   0  0  0  0  0  3  0  0  0  0  0  0
   35.8940   31.1770   39.8850 H   0  0  0  0  0  0  0  0  0  0  0  0
   37.2020   32.8440   39.8120 C   0  0  0  0  0  3  0  0  0  0  0  0
   37.5540   32.6750   38.7880 H   0  0  0  0  0  0  0  0  0  0  0  0
   38.2820   33.4820   40.5450 N   0  0  0  0  0  0  0  0  0  0  0  0
   38.7830   34.0980   39.8730 H   0  0  0  0  0  0  0  0  0  0  0  0
   39.1620   32.4960   41.1470 C   0  0  0  0  0  2  0  0  0  0  0  0
   39.1680   31.2040   40.3620 C   0  0  0  0  0  2  0  0  0  0  0  0
   38.0660   28.5350   42.7450 C   0  0  0  0  0  0  0  0  0  0  0  0
   37.4530   29.3680   43.1870 H   0  0  0  0  0  0  0  0  0  0  0  0
   39.0560   28.9880   42.5300 H   0  0  0  0  0  0  0  0  0  0  0  0
   38.1510   27.3600   43.6790 C   0  0  0  0  0  0  0  0  0  0  0  0
   37.9860   27.6530   44.7000 H   0  0  0  0  0  0  0  0  0  0  0  0
   37.5260   26.4990   43.2950 H   0  0  0  0  0  0  0  0  0  0  0  0
   41.8080   26.9340   43.4260 C   0  0  0  0  0  0  0  0  0  0  0  0
   41.9280   25.5690   43.0800 C   0  0  0  0  0  0  0  0  0  0  0  0
   40.7510   24.8520   42.9610 C   0  0  0  0  0  0  0  0  0  0  0  0
   39.5780   25.4610   43.1730 N   0  0  0  0  0  0  0  0  0  0  0  0
   39.5220   26.7770   43.5030 C   0  0  0  0  0  0  0  0  0  0  0  0
   40.6050   27.5070   43.6300 N   0  0  0  0  0  0  0  0  0  0  0  0
   42.6900   27.5530   43.5340 H   0  0  0  0  0  0  0  0  0  0  0  0
   42.9430   25.1910   42.9340 H   0  0  0  0  0  0  0  0  0  0  0  0
   40.8500   23.8070   42.6970 H   0  0  0  0  0  0  0  0  0  0  0  0
  1 20  1  0  0  0  0
  2  1  1  0  0  0  0
  2  7  1  0  0  0  0
  3  2  2  0  0  0  0
  4  5  2  0  0  0  0
  4  3  1  0  0  0  0
  5  6  1  0  0  0  0
  6  1  2  0  0  0  0
  8  3  1  0  0  0  0
  9  4  1  0  0  0  0
 10  5  1  0  0  0  0
 11  6  1  0  0  0  0
 12 11  1  0  0  0  0
 13 12  1  0  0  0  0
 14 12  1  0  0  0  0
 14 16  1  0  0  0  0
 15 14  1  0  0  0  0
 16 18  1  0  0  0  0
 17 16  1  0  0  0  0
 19 11  1  0  0  0  0
 19 18  1  0  0  0  0
 20 21  1  0  0  0  0
 20 23  1  0  0  0  0
 22 20  1  0  0  0  0
 23 24  1  0  0  0  0
 25 23  1  0  0  0  0
 26 32  1  0  0  0  0
 26 31  1  0  0  0  0
 27 26  2  0  0  0  0
 28 27  1  0  0  0  0
 28 29  2  0  0  0  0
 29 30  1  0  0  0  0
 30 31  2  0  0  0  0
 30 23  1  0  0  0  0
 33 27  1  0  0  0  0
 34 28  1  0  0  0  0
M  END
>  <minimizedAffinity>
-4.89772701

$$$$

 OpenBabel03242511433D

 34 36  0  0  0  0  0  0  0  0999 V2000
   36.2670   26.1020   38.9550 C   0  0  0  0  0  0  0  0  0  0  0  0
   35.6450   24.9390   38.5180 C   0  0  0  0  0  0  0  0  0  0  0  0
   35.6370   23.7600   39.2130 C   0  0  0  0  0  0  0  0  0  0  0  0
   36.2920   23.7350   40.4180 C   0  0  0  0  0  0  0  0  0  0  0  0
   36.9200   24.9040   40.8630 C   0  0  0  0  0  0  0  0  0  0  0  0
   36.9090   26.0900   40.1410 C   0  0  0  0  0  0  0  0  0  0  0  0
   35.1590   25.0840   37.5460 H   0  0  0  0  0  0  0  0  0  0  0  0
   35.1040   22.9900   38.7070 H   0  0  0  0  0  0  0  0  0  0  0  0
   36.2140   22.7340   40.8700 H   0  0  0  0  0  0  0  0  0  0  0  0
   37.3540   24.5980   41.8330 H   0  0  0  0  0  0  0  0  0  0  0  0
   37.5780   26.9480   41.0500 N   0  0  0  0  0  0  0  0  0  0  0  0
   37.0680   26.9400   42.4310 C   0  0  0  0  0  3  0  0  0  0  0  0
   35.9660   26.8380   42.4700 H   0  0  0  0  0  0  0  0  0  0  0  0
   37.4520   28.1630   43.1980 C   0  0  0  0  0  3  0  0  0  0  0  0
   37.0810   29.0550   42.6810 H   0  0  0  0  0  0  0  0  0  0  0  0
   38.8920   28.3040   43.3320 N   0  0  0  0  0  0  0  0  0  0  0  0
   39.0870   29.3160   43.4680 H   0  0  0  0  0  0  0  0  0  0  0  0
   39.5810   27.7630   42.1740 C   0  0  0  0  0  2  0  0  0  0  0  0
   38.7210   27.8330   40.9330 C   0  0  0  0  0  2  0  0  0  0  0  0
   36.3730   27.4020   38.2670 C   0  0  0  0  0  0  0  0  0  0  0  0
   36.4470   27.2400   37.1560 H   0  0  0  0  0  0  0  0  0  0  0  0
   37.3600   27.8080   38.5660 H   0  0  0  0  0  0  0  0  0  0  0  0
   35.2330   28.3200   38.6140 C   0  0  0  0  0  0  0  0  0  0  0  0
   34.6010   28.5040   37.7650 H   0  0  0  0  0  0  0  0  0  0  0  0
   34.7170   27.9740   39.5590 H   0  0  0  0  0  0  0  0  0  0  0  0
   37.0660   31.5150   38.8220 C   0  0  0  0  0  0  0  0  0  0  0  0
   36.9680   31.8280   40.1970 C   0  0  0  0  0  0  0  0  0  0  0  0
   36.2670   30.9360   40.9900 C   0  0  0  0  0  0  0  0  0  0  0  0
   35.7240   29.8440   40.4390 N   0  0  0  0  0  0  0  0  0  0  0  0
   35.8510   29.5920   39.1110 C   0  0  0  0  0  0  0  0  0  0  0  0
   36.5040   30.4020   38.3110 N   0  0  0  0  0  0  0  0  0  0  0  0
   37.6020   32.1700   38.1470 H   0  0  0  0  0  0  0  0  0  0  0  0
   37.4560   32.7500   40.5230 H   0  0  0  0  0  0  0  0  0  0  0  0
   36.1950   31.1820   42.0410 H   0  0  0  0  0  0  0  0  0  0  0  0
  1  6  1  0  0  0  0
  2  1  2  0  0  0  0
  2  3  1  0  0  0  0
  3  4  2  0  0  0  0
  4  5  1  0  0  0  0
  4  9  1  0  0  0  0
  5 10  1  0  0  0  0
  6  5  2  0  0  0  0
  6 11  1  0  0  0  0
  7  2  1  0  0  0  0
  8  3  1  0  0  0  0
 11 12  1  0  0  0  0
 12 13  1  0  0  0  0
 12 14  1  0  0  0  0
 14 16  1  0  0  0  0
 15 14  1  0  0  0  0
 16 17  1  0  0  0  0
 18 16  1  0  0  0  0
 19 11  1  0  0  0  0
 19 18  1  0  0  0  0
 20 22  1  0  0  0  0
 20 23  1  0  0  0  0
 20  1  1  0  0  0  0
 21 20  1  0  0  0  0
 23 30  1  0  0  0  0
 23 25  1  0  0  0  0
 24 23  1  0  0  0  0
 26 27  1  0  0  0  0
 27 33  1  0  0  0  0
 27 28  2  0  0  0  0
 28 34  1  0  0  0  0
 29 28  1  0  0  0  0
 30 29  2  0  0  0  0
 31 26  2  0  0  0  0
 31 30  1  0  0  0  0
 32 26  1  0  0  0  0
M  END
>  <minimizedAffinity>
-4.85428762

$$$$

 OpenBabel03242511433D

 34 36  0  0  0  0  0  0  0  0999 V2000
   37.0800   26.2420   42.0470 C   0  0  0  0  0  0  0  0  0  0  0  0
   36.9180   24.8640   42.1230 C   0  0  0  0  0  0  0  0  0  0  0  0
   36.6200   24.0620   41.0540 C   0  0  0  0  0  0  0  0  0  0  0  0
   36.4740   24.6690   39.8340 C   0  0  0  0  0  0  0  0  0  0  0  0
   36.6370   26.0560   39.7510 C   0  0  0  0  0  0  0  0  0  0  0  0
   36.9420   26.8480   40.8500 C   0  0  0  0  0  0  0  0  0  0  0  0
   37.0580   24.4990   43.1470 H   0  0  0  0  0  0  0  0  0  0  0  0
   36.5400   23.0360   41.3240 H   0  0  0  0  0  0  0  0  0  0  0  0
   36.2340   23.9170   39.0640 H   0  0  0  0  0  0  0  0  0  0  0  0
   36.4650   26.2630   38.6780 H   0  0  0  0  0  0  0  0  0  0  0  0
   37.0860   28.1110   40.2210 N   0  0  0  0  0  0  0  0  0  0  0  0
   38.2530   28.2560   39.3360 C   0  0  0  0  0  3  0  0  0  0  0  0
   39.1420   27.7230   39.7240 H   0  0  0  0  0  0  0  0  0  0  0  0
   38.6280   29.6830   39.1000 C   0  0  0  0  0  3  0  0  0  0  0  0
   38.8380   30.1730   40.0580 H   0  0  0  0  0  0  0  0  0  0  0  0
   37.5680   30.4340   38.4490 N   0  0  0  0  0  0  0  0  0  0  0  0
   37.7050   31.4330   38.7020 H   0  0  0  0  0  0  0  0  0  0  0  0
   36.2600   29.9420   38.8420 C   0  0  0  0  0  2  0  0  0  0  0  0
   36.2900   29.3230   40.2210 C   0  0  0  0  0  2  0  0  0  0  0  0
   37.3530   27.1970   43.1370 C   0  0  0  0  0  0  0  0  0  0  0  0
   36.6500   27.0080   43.9940 H   0  0  0  0  0  0  0  0  0  0  0  0
   37.0590   28.1870   42.7340 H   0  0  0  0  0  0  0  0  0  0  0  0
   38.7880   27.1500   43.5830 C   0  0  0  0  0  0  0  0  0  0  0  0
   38.8680   27.0820   44.6520 H   0  0  0  0  0  0  0  0  0  0  0  0
   39.3660   26.3820   42.9860 H   0  0  0  0  0  0  0  0  0  0  0  0
   39.4010   30.6310   42.5270 C   0  0  0  0  0  0  0  0  0  0  0  0
   40.7320   30.5720   42.0550 C   0  0  0  0  0  0  0  0  0  0  0  0
   41.3650   29.3440   42.1320 C   0  0  0  0  0  0  0  0  0  0  0  0
   40.7120   28.2910   42.6350 N   0  0  0  0  0  0  0  0  0  0  0  0
   39.4310   28.4050   43.0740 C   0  0  0  0  0  0  0  0  0  0  0  0
   38.7810   29.5450   43.0270 N   0  0  0  0  0  0  0  0  0  0  0  0
   38.8480   31.5620   42.4950 H   0  0  0  0  0  0  0  0  0  0  0  0
   41.1540   31.5030   41.6680 H   0  0  0  0  0  0  0  0  0  0  0  0
   42.3840   29.3060   41.7700 H   0  0  0  0  0  0  0  0  0  0  0  0
  1  2  1  0  0  0  0
  1 20  1  0  0  0  0
  2  7  1  0  0  0  0
  3  8  1  0  0  0  0
  3  2  2  0  0  0  0
  4  3  1  0  0  0  0
  5  4  2  0  0  0  0
  5  6  1  0  0  0  0
  6  1  2  0  0  0  0
  9  4  1  0  0  0  0
 10  5  1  0  0  0  0
 11  6  1  0  0  0  0
 12 13  1  0  0  0  0
 12 11  1  0  0  0  0
 14 12  1  0  0  0  0
 14 15  1  0  0  0  0
 16 17  1  0  0  0  0
 16 18  1  0  0  0  0
 16 14  1  0  0  0  0
 18 19  1  0  0  0  0
 19 11  1  0  0  0  0
 20 23  1  0  0  0  0
 20 21  1  0  0  0  0
 22 20  1  0  0  0  0
 23 24  1  0  0  0  0
 25 23  1  0  0  0  0
 26 31  1  0  0  0  0
 27 28  1  0  0  0  0
 27 26  2  0  0  0  0
 28 29  2  0  0  0  0
 29 30  1  0  0  0  0
 30 23  1  0  0  0  0
 31 30  2  0  0  0  0
 32 26  1  0  0  0  0
 33 27  1  0  0  0  0
 34 28  1  0  0  0  0
M  END
>  <minimizedAffinity>
-4.84094048

$$$$
