
 OpenBabel03242510223D

 32 35  0  0  1  0  0  0  0  0999 V2000
   46.3130   32.1200   44.5260 C   0  0  1  0  0  0  0  0  0  0  0  0
   46.4540   31.3680   43.3520 C   0  0  0  0  0  0  0  0  0  0  0  0
   47.6800   32.1190   43.9620 C   0  0  1  0  0  0  0  0  0  0  0  0
   46.1390   31.6640   45.5250 H   0  0  0  0  0  0  0  0  0  0  0  0
   46.1960   31.6230   42.3070 H   0  0  0  0  0  0  0  0  0  0  0  0
   46.5300   30.2410   43.4490 H   0  0  0  0  0  0  0  0  0  0  0  0
   48.4370   31.4190   44.3440 H   0  0  0  0  0  0  0  0  0  0  0  0
   45.0650   33.9790   43.1870 C   0  0  0  0  0  0  0  0  0  0  0  0
   45.5520   33.4550   44.4290 C   0  0  0  0  0  0  0  0  0  0  0  0
   45.3390   34.2090   45.5640 C   0  0  0  0  0  0  0  0  0  0  0  0
   44.6920   35.3880   45.4580 N   0  0  0  0  0  0  0  0  0  0  0  0
   44.2360   35.8730   44.2700 C   0  0  0  0  0  0  0  0  0  0  0  0
   44.4360   35.1340   43.1020 N   0  0  0  0  0  0  0  0  0  0  0  0
   45.2210   33.3700   42.3170 H   0  0  0  0  0  0  0  0  0  0  0  0
   45.6780   33.8750   46.5370 H   0  0  0  0  0  0  0  0  0  0  0  0
   43.7200   36.8180   44.1920 H   0  0  0  0  0  0  0  0  0  0  0  0
   48.0560   33.2530   43.1970 N   0  0  0  0  0  0  0  0  0  0  0  0
   49.2260   33.3100   42.4470 C   0  0  0  0  0  0  0  0  0  0  0  0
   50.3910   32.9190   42.7060 O   0  0  0  0  0  0  0  0  0  0  0  0
   47.5080   34.1390   43.1230 H   0  0  0  0  0  0  0  0  0  0  0  0
   49.1800   33.9330   41.0590 C   0  0  2  0  0  0  0  0  0  0  0  0
   48.6890   35.4240   40.9840 C   0  0  0  0  0  0  0  0  0  0  0  0
   47.9120   34.2710   40.4160 C   0  0  1  0  0  0  0  0  0  0  0  0
   50.0870   33.8260   40.4300 H   0  0  0  0  0  0  0  0  0  0  0  0
   48.3400   35.8260   41.9610 H   0  0  0  0  0  0  0  0  0  0  0  0
   49.1510   36.0820   40.2560 H   0  0  0  0  0  0  0  0  0  0  0  0
   47.0350   33.8100   40.9290 H   0  0  0  0  0  0  0  0  0  0  0  0
   47.8390   34.1740   38.9120 C   0  0  0  0  0  0  0  0  0  0  0  0
   48.5830   34.8390   38.2040 O   0  0  0  0  0  0  0  0  0  0  0  0
   46.8470   33.2580   38.2620 C   0  0  0  0  0  3  0  0  0  0  0  0
   46.9060   32.9820   36.8130 C   0  0  0  0  0  2  0  0  0  0  0  0
   47.4460   31.9540   37.7760 C   0  0  0  0  0  2  0  0  0  0  0  0
  1  4  1  1  0  0  0
  2  6  1  0  0  0  0
  2  3  1  0  0  0  0
  2  1  1  0  0  0  0
  3  7  1  1  0  0  0
  3  1  1  0  0  0  0
  5  2  1  0  0  0  0
  8  9  1  0  0  0  0
  9  1  1  0  0  0  0
  9 10  2  0  0  0  0
 10 15  1  0  0  0  0
 11 10  1  0  0  0  0
 12 11  2  0  0  0  0
 13  8  2  0  0  0  0
 13 12  1  0  0  0  0
 14  8  1  0  0  0  0
 16 12  1  0  0  0  0
 17  3  1  0  0  0  0
 18 19  2  0  0  0  0
 18 17  1  0  0  0  0
 20 17  1  0  0  0  0
 21 24  1  6  0  0  0
 21 18  1  0  0  0  0
 22 21  1  0  0  0  0
 22 25  1  0  0  0  0
 23 27  1  1  0  0  0
 23 22  1  0  0  0  0
 23 21  1  0  0  0  0
 26 22  1  0  0  0  0
 28 23  1  0  0  0  0
 29 28  2  0  0  0  0
 30 28  1  0  0  0  0
 31 32  1  0  0  0  0
 31 30  1  0  0  0  0
 32 30  1  0  0  0  0
M  END
>  <minimizedAffinity>
-4.52078915

>  <minimizedRMSD>
0.427204758

$$$$
