
 OpenBabel03252509323D

 21 22  0  0  0  0  0  0  0  0999 V2000
   45.8900   32.8660   42.5000 C   0  0  0  0  0  0  0  0  0  0  0  0
   46.2360   33.4960   41.6490 H   0  0  0  0  0  0  0  0  0  0  0  0
   44.9980   32.2950   42.1350 H   0  0  0  0  0  0  0  0  0  0  0  0
   45.2060   34.2390   45.9100 C   0  0  0  0  0  0  0  0  0  0  0  0
   45.6380   33.3730   44.8980 C   0  0  0  0  0  0  0  0  0  0  0  0
   45.4480   33.7520   43.5730 C   0  0  0  0  0  0  0  0  0  0  0  0
   44.8420   34.9620   43.3110 N   0  0  0  0  0  0  0  0  0  0  0  0
   44.4380   35.7710   44.3170 C   0  0  0  0  0  0  0  0  0  0  0  0
   44.6150   35.4190   45.5950 N   0  0  0  0  0  0  0  0  0  0  0  0
   45.4010   33.8540   46.9020 H   0  0  0  0  0  0  0  0  0  0  0  0
   46.1110   32.4320   45.1020 H   0  0  0  0  0  0  0  0  0  0  0  0
   43.9610   36.7240   44.1310 H   0  0  0  0  0  0  0  0  0  0  0  0
   46.8850   31.9980   42.9510 O   0  0  0  0  0  0  0  0  0  0  0  0
   47.6290   30.9170   40.6850 O   0  0  0  0  0  0  0  0  0  0  0  0
   48.0610   31.9160   41.7350 P   0  0  2  0  0  0  0  0  0  0  0  0
   49.5180   31.5170   42.4630 O   0  0  0  0  0  0  0  0  0  0  0  0
   49.5140   30.5530   42.6690 H   0  0  0  0  0  0  0  0  0  0  0  0
   48.1510   33.4290   41.0000 O   0  0  0  0  0  0  0  0  0  0  0  0
   49.2220   34.1810   41.4090 C   0  0  0  0  0  3  0  0  0  0  0  0
   49.0100   34.9710   42.6790 C   0  0  0  0  0  2  0  0  0  0  0  0
   48.9420   35.6830   41.3750 C   0  0  0  0  0  2  0  0  0  0  0  0
  1 13  1  0  0  0  0
  1  6  1  0  0  0  0
  2  1  1  0  0  0  0
  3  1  1  0  0  0  0
  4 10  1  0  0  0  0
  5 11  1  0  0  0  0
  5  4  2  0  0  0  0
  6  5  1  0  0  0  0
  7  6  2  0  0  0  0
  7  8  1  0  0  0  0
  8  9  2  0  0  0  0
  9  4  1  0  0  0  0
 12  8  1  0  0  0  0
 15 14  2  6  0  0  0
 15 16  1  0  0  0  0
 15 13  1  0  0  0  0
 16 17  1  0  0  0  0
 18 19  1  0  0  0  0
 18 15  1  0  0  0  0
 19 20  1  0  0  0  0
 21 19  1  0  0  0  0
 21 20  1  0  0  0  0
M  END
>  <minimizedAffinity>
-3.50595856

>  <minimizedRMSD>
2.0479486

$$$$
