
 OpenBabel03252509003D

 39 41  0  0  1  0  0  0  0  0999 V2000
   46.5870   34.5800   43.6110 N   0  0  0  0  0  0  0  0  0  0  0  0
   46.0750   35.5560   42.7130 C   0  0  0  0  0  0  0  0  0  0  0  0
   44.5700   35.6940   42.7060 C   0  0  0  0  0  0  0  0  0  0  0  0
   43.9180   35.4520   44.0420 C   0  0  0  0  0  0  0  0  0  0  0  0
   44.9370   35.2050   45.1260 C   0  0  0  0  0  0  0  0  0  0  0  0
   45.7700   33.9970   44.5670 C   0  0  2  0  0  0  0  0  0  0  0  0
   46.4580   36.5490   43.0510 H   0  0  0  0  0  0  0  0  0  0  0  0
   46.3940   35.4630   41.6740 H   0  0  0  0  0  0  0  0  0  0  0  0
   44.1830   35.0130   41.9170 H   0  0  0  0  0  0  0  0  0  0  0  0
   44.3210   36.7180   42.3490 H   0  0  0  0  0  0  0  0  0  0  0  0
   43.2670   34.5690   43.9390 H   0  0  0  0  0  0  0  0  0  0  0  0
   43.3230   36.3480   44.3490 H   0  0  0  0  0  0  0  0  0  0  0  0
   45.6280   36.0400   45.2430 H   0  0  0  0  0  0  0  0  0  0  0  0
   44.4020   34.8960   46.0260 H   0  0  0  0  0  0  0  0  0  0  0  0
   45.0260   33.2450   44.2500 H   0  0  0  0  0  0  0  0  0  0  0  0
   47.6880   33.8250   43.0910 C   0  0  0  0  0  0  0  0  0  0  0  0
   48.3790   34.5190   42.5840 H   0  0  0  0  0  0  0  0  0  0  0  0
   48.2040   33.3480   43.9580 H   0  0  0  0  0  0  0  0  0  0  0  0
   47.1650   32.7410   42.2100 C   0  0  0  0  0  0  0  0  0  0  0  0
   47.3160   31.7190   42.5770 H   0  0  0  0  0  0  0  0  0  0  0  0
   46.0620   32.8510   42.0690 H   0  0  0  0  0  0  0  0  0  0  0  0
   49.1950   32.0680   39.1170 C   0  0  0  0  0  0  0  0  0  0  0  0
   48.6340   31.9360   40.4000 C   0  0  0  0  0  0  0  0  0  0  0  0
   47.7510   32.8940   40.8510 C   0  0  0  0  0  0  0  0  0  0  0  0
   47.4690   33.9140   40.0330 N   0  0  0  0  0  0  0  0  0  0  0  0
   48.0120   34.0300   38.8050 C   0  0  0  0  0  0  0  0  0  0  0  0
   48.8770   33.1130   38.3370 N   0  0  0  0  0  0  0  0  0  0  0  0
   49.8880   31.3180   38.7620 H   0  0  0  0  0  0  0  0  0  0  0  0
   48.9120   31.0800   41.0050 H   0  0  0  0  0  0  0  0  0  0  0  0
   47.7730   34.8600   38.1570 H   0  0  0  0  0  0  0  0  0  0  0  0
   46.4990   33.6180   45.6950 O   0  0  0  0  0  0  0  0  0  0  0  0
   45.6450   31.2040   44.9890 O   0  0  0  0  0  0  0  0  0  0  0  0
   46.2120   32.0260   46.1500 P   0  0  2  0  0  0  0  0  0  0  0  0
   44.9470   32.0840   47.3000 O   0  0  0  0  0  0  0  0  0  0  0  0
   45.1440   32.7610   47.9870 H   0  0  0  0  0  0  0  0  0  0  0  0
   47.5350   31.3160   46.8570 O   0  0  0  0  0  0  0  0  0  0  0  0
   47.2730   30.3370   47.7800 C   0  0  0  0  0  3  0  0  0  0  0  0
   46.9330   28.9500   47.3930 C   0  0  0  0  0  2  0  0  0  0  0  0
   48.3330   29.2290   47.8260 C   0  0  0  0  0  2  0  0  0  0  0  0
  1  6  1  0  0  0  0
  2  7  1  0  0  0  0
  2  1  1  0  0  0  0
  3  2  1  0  0  0  0
  3  4  1  0  0  0  0
  4 12  1  0  0  0  0
  4  5  1  0  0  0  0
  5 13  1  0  0  0  0
  5 14  1  0  0  0  0
  6 15  1  6  0  0  0
  6  5  1  0  0  0  0
  6 31  1  0  0  0  0
  8  2  1  0  0  0  0
  9  3  1  0  0  0  0
 10  3  1  0  0  0  0
 11  4  1  0  0  0  0
 16  1  1  0  0  0  0
 16 18  1  0  0  0  0
 17 16  1  0  0  0  0
 19 20  1  0  0  0  0
 19 16  1  0  0  0  0
 21 19  1  0  0  0  0
 22 23  1  0  0  0  0
 23 24  2  0  0  0  0
 23 29  1  0  0  0  0
 24 19  1  0  0  0  0
 25 24  1  0  0  0  0
 26 25  2  0  0  0  0
 27 26  1  0  0  0  0
 27 22  2  0  0  0  0
 28 22  1  0  0  0  0
 30 26  1  0  0  0  0
 31 33  1  0  0  0  0
 33 32  2  6  0  0  0
 33 36  1  0  0  0  0
 33 34  1  0  0  0  0
 34 35  1  0  0  0  0
 36 37  1  0  0  0  0
 37 39  1  0  0  0  0
 38 37  1  0  0  0  0
 38 39  1  0  0  0  0
M  END
>  <minimizedAffinity>
-4.14179897

>  <minimizedRMSD>
1.14300227

$$$$
