
 OpenBabel03252507153D

 23 25  0  0  0  0  0  0  0  0999 V2000
   44.7910   35.9260   43.4060 C   0  0  0  0  0  0  0  0  0  0  0  0
   45.4650   34.7350   43.0400 C   0  0  0  0  0  0  0  0  0  0  0  0
   45.7390   33.8250   44.0360 C   0  0  0  0  0  0  0  0  0  0  0  0
   45.3660   34.0840   45.3040 N   0  0  0  0  0  0  0  0  0  0  0  0
   44.7160   35.2410   45.6400 C   0  0  0  0  0  0  0  0  0  0  0  0
   44.4490   36.1260   44.6790 N   0  0  0  0  0  0  0  0  0  0  0  0
   44.5500   36.6810   42.6590 H   0  0  0  0  0  0  0  0  0  0  0  0
   44.4850   35.3000   46.7040 H   0  0  0  0  0  0  0  0  0  0  0  0
   46.4320   32.5950   43.6730 C   0  0  0  0  0  0  0  0  0  0  0  0
   45.7120   31.4420   43.4230 C   0  0  0  0  0  0  0  0  0  0  0  0
   46.3940   30.2980   43.0840 C   0  0  0  0  0  0  0  0  0  0  0  0
   47.7860   30.2400   42.9780 C   0  0  0  0  0  0  0  0  0  0  0  0
   48.4480   31.4190   43.2400 C   0  0  0  0  0  0  0  0  0  0  0  0
   47.7730   32.5410   43.5740 N   0  0  0  0  0  0  0  0  0  0  0  0
   44.6330   31.4450   43.4930 H   0  0  0  0  0  0  0  0  0  0  0  0
   45.8260   29.3970   42.8870 H   0  0  0  0  0  0  0  0  0  0  0  0
   48.3240   29.3390   42.7110 H   0  0  0  0  0  0  0  0  0  0  0  0
   49.5390   31.4030   43.1660 H   0  0  0  0  0  0  0  0  0  0  0  0
   45.8320   34.5210   41.6750 C   0  0  0  0  0  0  0  0  0  0  0  0
   46.9700   34.9280   41.3050 O   0  0  0  0  0  0  0  0  0  0  0  0
   44.9450   33.8530   40.6920 C   0  0  0  0  0  3  0  0  0  0  0  0
   43.5730   33.4360   41.1380 C   0  0  0  0  0  2  0  0  0  0  0  0
   43.6880   34.5740   40.2240 C   0  0  0  0  0  2  0  0  0  0  0  0
  1  6  1  0  0  0  0
  2  1  2  0  0  0  0
  2  3  1  0  0  0  0
  3  4  2  0  0  0  0
  4  5  1  0  0  0  0
  5  8  1  0  0  0  0
  6  5  2  0  0  0  0
  7  1  1  0  0  0  0
  9  3  1  0  0  0  0
 10 15  1  0  0  0  0
 10  9  2  0  0  0  0
 11 10  1  0  0  0  0
 12 11  2  0  0  0  0
 12 13  1  0  0  0  0
 13 14  2  0  0  0  0
 14  9  1  0  0  0  0
 16 11  1  0  0  0  0
 17 12  1  0  0  0  0
 18 13  1  0  0  0  0
 19  2  1  0  0  0  0
 20 19  2  0  0  0  0
 21 22  1  0  0  0  0
 21 19  1  0  0  0  0
 23 21  1  0  0  0  0
 23 22  1  0  0  0  0
M  END
>  <minimizedAffinity>
-3.89550424

>  <minimizedRMSD>
0.648654163

$$$$
