
 OpenBabel03242516293D

 40 44  0  0  0  0  0  0  0  0999 V2000
   48.9170   30.0270   48.2030 S   0  0  0  0  0  0  0  0  0  0  0  0
   49.8340   30.3000   49.6340 C   0  0  0  0  0  0  0  0  0  0  0  0
   50.0390   31.5610   50.1270 N   0  0  0  0  0  0  0  0  0  0  0  0
   50.7670   31.8270   51.2040 C   0  0  0  0  0  0  0  0  0  0  0  0
   51.3290   30.7920   51.8360 N   0  0  0  0  0  0  0  0  0  0  0  0
   51.1810   29.5210   51.4230 C   0  0  0  0  0  0  0  0  0  0  0  0
   51.7700   28.4610   52.0900 C   0  0  0  0  0  0  0  0  0  0  0  0
   51.6000   27.1720   51.6450 C   0  0  0  0  0  0  0  0  0  0  0  0
   50.8450   26.9270   50.5390 C   0  0  0  0  0  0  0  0  0  0  0  0
   50.2370   27.9680   49.8430 C   0  0  0  0  0  0  0  0  0  0  0  0
   50.4100   29.2440   50.2870 C   0  0  0  0  0  0  0  0  0  0  0  0
   50.9020   32.8310   51.5560 H   0  0  0  0  0  0  0  0  0  0  0  0
   52.3450   28.7380   52.9480 H   0  0  0  0  0  0  0  0  0  0  0  0
   52.1050   26.4410   52.2440 H   0  0  0  0  0  0  0  0  0  0  0  0
   50.8050   25.8690   50.3230 H   0  0  0  0  0  0  0  0  0  0  0  0
   49.4260   27.5880   48.6760 C   0  0  0  0  0  0  0  0  0  0  0  0
   49.9920   27.6300   47.7180 H   0  0  0  0  0  0  0  0  0  0  0  0
   48.3920   27.9130   48.6700 H   0  0  0  0  0  0  0  0  0  0  0  0
   49.2020   26.0550   48.6540 C   0  0  0  0  0  0  0  0  0  0  0  0
   48.4990   25.5690   47.3960 C   0  0  0  0  0  0  0  0  0  0  0  0
   47.8880   25.4430   48.7560 C   0  0  0  0  0  0  0  0  0  0  0  0
   46.1260   32.6170   46.9810 C   0  0  0  0  0  0  0  0  0  0  0  0
   47.2580   31.8220   47.0640 C   0  0  0  0  0  0  0  0  0  0  0  0
   47.4510   30.9850   48.1410 C   0  0  0  0  0  0  0  0  0  0  0  0
   46.5210   30.9200   49.1530 C   0  0  0  0  0  0  0  0  0  0  0  0
   45.3950   31.6840   49.1100 C   0  0  0  0  0  0  0  0  0  0  0  0
   45.2150   32.5160   48.0320 C   0  0  0  0  0  0  0  0  0  0  0  0
   47.9710   31.8940   46.2540 H   0  0  0  0  0  0  0  0  0  0  0  0
   46.7340   30.2360   49.9730 H   0  0  0  0  0  0  0  0  0  0  0  0
   44.6760   31.6180   49.9150 H   0  0  0  0  0  0  0  0  0  0  0  0
   44.3330   33.1380   47.9620 H   0  0  0  0  0  0  0  0  0  0  0  0
   44.7250   35.3120   44.9560 C   0  0  0  0  0  0  0  0  0  0  0  0
   45.4720   35.2290   43.7460 C   0  0  0  0  0  0  0  0  0  0  0  0
   46.4460   34.2470   43.6430 C   0  0  0  0  0  0  0  0  0  0  0  0
   46.6750   33.3870   44.6830 N   0  0  0  0  0  0  0  0  0  0  0  0
   45.9280   33.5060   45.8330 C   0  0  0  0  0  0  0  0  0  0  0  0
   44.9680   34.4560   45.9640 N   0  0  0  0  0  0  0  0  0  0  0  0
   43.9530   36.0580   45.0890 H   0  0  0  0  0  0  0  0  0  0  0  0
   45.2350   35.9320   42.9850 H   0  0  0  0  0  0  0  0  0  0  0  0
   47.0210   34.1720   42.7310 H   0  0  0  0  0  0  0  0  0  0  0  0
  1  2  1  0  0  0  0
  2  3  2  0  0  0  0
  2 11  1  0  0  0  0
  3  4  1  0  0  0  0
  4 12  1  0  0  0  0
  4  5  2  0  0  0  0
  6  5  1  0  0  0  0
  6  7  1  0  0  0  0
  7 13  1  0  0  0  0
  8  7  2  0  0  0  0
  8 14  1  0  0  0  0
  9  8  1  0  0  0  0
 10 11  1  0  0  0  0
 10  9  2  0  0  0  0
 11  6  2  0  0  0  0
 15  9  1  0  0  0  0
 16 10  1  0  0  0  0
 17 16  1  0  0  0  0
 18 16  1  0  0  0  0
 19 16  1  0  0  0  0
 19 21  1  0  0  0  0
 20 19  1  0  0  0  0
 20 21  1  0  0  0  0
 22 23  2  0  0  0  0
 22 27  1  0  0  0  0
 23 24  1  0  0  0  0
 24  1  1  0  0  0  0
 24 25  2  0  0  0  0
 25 29  1  0  0  0  0
 26 25  1  0  0  0  0
 26 30  1  0  0  0  0
 27 26  2  0  0  0  0
 28 23  1  0  0  0  0
 31 27  1  0  0  0  0
 32 38  1  0  0  0  0
 32 37  1  0  0  0  0
 33 32  2  0  0  0  0
 34 33  1  0  0  0  0
 34 35  2  0  0  0  0
 35 36  1  0  0  0  0
 36 37  2  0  0  0  0
 36 22  1  0  0  0  0
 39 33  1  0  0  0  0
 40 34  1  0  0  0  0
M  END
>  <minimizedAffinity>
-6.43004179

>  <minimizedRMSD>
0.551601231

$$$$
