
 OpenBabel03242519293D

 37 40  0  0  0  0  0  0  0  0999 V2000
   37.0970   28.5740   41.7330 C   0  0  0  0  0  0  0  0  0  0  0  0
   35.8260   28.5800   41.0980 C   0  0  0  0  0  0  0  0  0  0  0  0
   35.4390   29.6740   40.3080 C   0  0  0  0  0  0  0  0  0  0  0  0
   36.3570   30.6940   40.2060 N   0  0  0  0  0  0  0  0  0  0  0  0
   37.5820   30.6440   40.8420 C   0  0  0  0  0  0  0  0  0  0  0  0
   37.9130   29.6040   41.5760 N   0  0  0  0  0  0  0  0  0  0  0  0
   35.0600   27.8160   41.1340 H   0  0  0  0  0  0  0  0  0  0  0  0
   34.5040   29.7370   39.8080 H   0  0  0  0  0  0  0  0  0  0  0  0
   37.3740   27.3670   42.5350 C   0  0  0  0  0  0  0  0  0  0  0  0
   38.2460   27.5870   43.6740 C   0  0  0  0  0  0  0  0  0  0  0  0
   39.5690   26.9400   43.5820 C   0  0  0  0  0  0  0  0  0  0  0  0
   39.4460   25.4400   43.3000 C   0  0  0  0  0  0  0  0  0  0  0  0
   38.3850   25.0920   42.3060 C   0  0  0  0  0  0  0  0  0  0  0  0
   37.9210   26.3160   41.5330 C   0  0  0  0  0  0  0  0  0  0  0  0
   36.3780   26.9240   42.8240 H   0  0  0  0  0  0  0  0  0  0  0  0
   37.7580   27.2160   44.6090 H   0  0  0  0  0  0  0  0  0  0  0  0
   38.4090   28.6740   43.8350 H   0  0  0  0  0  0  0  0  0  0  0  0
   40.2830   27.3270   42.8600 H   0  0  0  0  0  0  0  0  0  0  0  0
   40.0510   27.0280   44.5980 H   0  0  0  0  0  0  0  0  0  0  0  0
   40.4360   25.0320   43.0730 H   0  0  0  0  0  0  0  0  0  0  0  0
   39.1270   24.9920   44.2790 H   0  0  0  0  0  0  0  0  0  0  0  0
   38.8500   24.4260   41.5340 H   0  0  0  0  0  0  0  0  0  0  0  0
   37.5240   24.5350   42.7160 H   0  0  0  0  0  0  0  0  0  0  0  0
   37.1300   26.0330   40.8300 H   0  0  0  0  0  0  0  0  0  0  0  0
   38.7900   26.7350   40.9860 H   0  0  0  0  0  0  0  0  0  0  0  0
   38.4090   31.8210   40.6160 C   0  0  0  0  0  0  0  0  0  0  0  0
   37.7940   33.0150   40.4300 N   0  0  0  0  0  0  0  0  0  0  0  0
   38.7440   33.9630   40.2420 C   0  0  0  0  0  0  0  0  0  0  0  0
   39.9450   33.3420   40.3150 N   0  0  0  0  0  0  0  0  0  0  0  0
   39.7540   32.0320   40.5430 N   0  0  0  0  0  0  0  0  0  0  0  0
   38.6220   35.0280   40.0630 H   0  0  0  0  0  0  0  0  0  0  0  0
   41.2770   33.9500   40.1750 C   0  0  0  0  0  0  0  0  0  0  0  0
   42.0790   33.2750   40.5140 H   0  0  0  0  0  0  0  0  0  0  0  0
   41.2770   34.8450   40.8150 H   0  0  0  0  0  0  0  0  0  0  0  0
   41.4500   34.3490   38.7250 C   0  0  0  0  0  3  0  0  0  0  0  0
   41.7380   33.2440   37.7490 C   0  0  0  0  0  2  0  0  0  0  0  0
   42.8350   34.2170   38.1640 C   0  0  0  0  0  2  0  0  0  0  0  0
  1  9  1  0  0  0  0
  2  7  1  0  0  0  0
  2  1  2  0  0  0  0
  3  2  1  0  0  0  0
  4  3  2  0  0  0  0
  4  5  1  0  0  0  0
  5  6  2  0  0  0  0
  6  1  1  0  0  0  0
  8  3  1  0  0  0  0
  9 15  1  0  0  0  0
  9 10  1  0  0  0  0
 10 17  1  0  0  0  0
 10 16  1  0  0  0  0
 11 10  1  0  0  0  0
 11 19  1  0  0  0  0
 12 11  1  0  0  0  0
 12 21  1  0  0  0  0
 13 23  1  0  0  0  0
 13 12  1  0  0  0  0
 14 13  1  0  0  0  0
 14  9  1  0  0  0  0
 18 11  1  0  0  0  0
 20 12  1  0  0  0  0
 22 13  1  0  0  0  0
 24 14  1  0  0  0  0
 25 14  1  0  0  0  0
 26  5  1  0  0  0  0
 27 26  1  0  0  0  0
 28 29  1  0  0  0  0
 28 27  2  0  0  0  0
 29 30  1  0  0  0  0
 30 26  2  0  0  0  0
 31 28  1  0  0  0  0
 32 29  1  0  0  0  0
 32 33  1  0  0  0  0
 32 34  1  0  0  0  0
 35 32  1  0  0  0  0
 36 37  1  0  0  0  0
 36 35  1  0  0  0  0
 37 35  1  0  0  0  0
M  END
>  <minimizedAffinity>
-5.49886465

$$$$

 OpenBabel03242519293D

 37 40  0  0  0  0  0  0  0  0999 V2000
   32.4920   29.4430   36.7450 C   0  0  0  0  0  0  0  0  0  0  0  0
   32.8850   29.3630   35.3820 C   0  0  0  0  0  0  0  0  0  0  0  0
   34.2200   29.0890   35.0490 C   0  0  0  0  0  0  0  0  0  0  0  0
   35.0790   28.9120   36.1110 N   0  0  0  0  0  0  0  0  0  0  0  0
   34.6500   29.0000   37.4210 C   0  0  0  0  0  0  0  0  0  0  0  0
   33.3910   29.2590   37.6990 N   0  0  0  0  0  0  0  0  0  0  0  0
   32.2660   29.4900   34.5030 H   0  0  0  0  0  0  0  0  0  0  0  0
   34.5740   29.0160   34.0510 H   0  0  0  0  0  0  0  0  0  0  0  0
   31.0620   29.7410   36.9530 C   0  0  0  0  0  0  0  0  0  0  0  0
   30.5730   30.8940   36.2200 C   0  0  0  0  0  0  0  0  0  0  0  0
   30.1840   32.0470   37.0550 C   0  0  0  0  0  0  0  0  0  0  0  0
   29.1750   31.6480   38.1350 C   0  0  0  0  0  0  0  0  0  0  0  0
   29.4650   30.3340   38.7840 C   0  0  0  0  0  0  0  0  0  0  0  0
   30.8820   29.8660   38.4890 C   0  0  0  0  0  0  0  0  0  0  0  0
   30.4890   28.7990   36.7230 H   0  0  0  0  0  0  0  0  0  0  0  0
   29.6810   30.6100   35.6080 H   0  0  0  0  0  0  0  0  0  0  0  0
   31.3350   31.2430   35.4910 H   0  0  0  0  0  0  0  0  0  0  0  0
   30.9680   32.6030   37.5620 H   0  0  0  0  0  0  0  0  0  0  0  0
   29.6490   32.7770   36.3810 H   0  0  0  0  0  0  0  0  0  0  0  0
   29.0420   32.4820   38.8310 H   0  0  0  0  0  0  0  0  0  0  0  0
   28.2030   31.5260   37.5850 H   0  0  0  0  0  0  0  0  0  0  0  0
   29.4410   30.4910   39.8930 H   0  0  0  0  0  0  0  0  0  0  0  0
   28.7340   29.5340   38.5690 H   0  0  0  0  0  0  0  0  0  0  0  0
   31.0560   28.8920   38.9600 H   0  0  0  0  0  0  0  0  0  0  0  0
   31.5900   30.6190   38.8920 H   0  0  0  0  0  0  0  0  0  0  0  0
   35.7080   28.7880   38.3990 C   0  0  0  0  0  0  0  0  0  0  0  0
   36.8890   29.4310   38.2220 N   0  0  0  0  0  0  0  0  0  0  0  0
   37.7190   29.0950   39.2390 C   0  0  0  0  0  0  0  0  0  0  0  0
   37.0400   28.2410   40.0410 N   0  0  0  0  0  0  0  0  0  0  0  0
   35.8090   28.0450   39.5380 N   0  0  0  0  0  0  0  0  0  0  0  0
   38.7400   29.4170   39.4230 H   0  0  0  0  0  0  0  0  0  0  0  0
   37.5170   27.6000   41.2750 C   0  0  0  0  0  0  0  0  0  0  0  0
   38.6060   27.7080   41.4050 H   0  0  0  0  0  0  0  0  0  0  0  0
   37.2790   26.5290   41.1790 H   0  0  0  0  0  0  0  0  0  0  0  0
   36.7480   28.2010   42.4320 C   0  0  0  0  0  3  0  0  0  0  0  0
   37.5280   28.5050   43.6780 C   0  0  0  0  0  2  0  0  0  0  0  0
   36.5680   27.3230   43.6350 C   0  0  0  0  0  2  0  0  0  0  0  0
  1  9  1  0  0  0  0
  1  6  1  0  0  0  0
  2  1  2  0  0  0  0
  3  2  1  0  0  0  0
  3  4  2  0  0  0  0
  4  5  1  0  0  0  0
  5  6  2  0  0  0  0
  5 26  1  0  0  0  0
  7  2  1  0  0  0  0
  8  3  1  0  0  0  0
  9 14  1  0  0  0  0
 10  9  1  0  0  0  0
 10 11  1  0  0  0  0
 11 18  1  0  0  0  0
 11 12  1  0  0  0  0
 12 13  1  0  0  0  0
 12 20  1  0  0  0  0
 13 22  1  0  0  0  0
 14 13  1  0  0  0  0
 14 25  1  0  0  0  0
 14 24  1  0  0  0  0
 15  9  1  0  0  0  0
 16 10  1  0  0  0  0
 17 10  1  0  0  0  0
 19 11  1  0  0  0  0
 21 12  1  0  0  0  0
 23 13  1  0  0  0  0
 26 30  2  0  0  0  0
 27 26  1  0  0  0  0
 27 28  2  0  0  0  0
 28 31  1  0  0  0  0
 28 29  1  0  0  0  0
 29 32  1  0  0  0  0
 30 29  1  0  0  0  0
 32 33  1  0  0  0  0
 32 35  1  0  0  0  0
 34 32  1  0  0  0  0
 35 37  1  0  0  0  0
 35 36  1  0  0  0  0
 37 36  1  0  0  0  0
M  END
>  <minimizedAffinity>
-5.30225849

$$$$

 OpenBabel03242519293D

 37 40  0  0  0  0  0  0  0  0999 V2000
   36.7160   28.1310   41.5440 C   0  0  0  0  0  0  0  0  0  0  0  0
   36.9730   29.4190   42.0870 C   0  0  0  0  0  0  0  0  0  0  0  0
   36.6340   30.5700   41.3600 C   0  0  0  0  0  0  0  0  0  0  0  0
   36.0570   30.3530   40.1290 N   0  0  0  0  0  0  0  0  0  0  0  0
   35.8260   29.0810   39.6420 C   0  0  0  0  0  0  0  0  0  0  0  0
   36.1560   28.0230   40.3490 N   0  0  0  0  0  0  0  0  0  0  0  0
   37.4200   29.6600   43.0420 H   0  0  0  0  0  0  0  0  0  0  0  0
   36.8000   31.5580   41.7120 H   0  0  0  0  0  0  0  0  0  0  0  0
   37.1250   27.0080   42.4110 C   0  0  0  0  0  0  0  0  0  0  0  0
   38.1050   27.3540   43.4220 C   0  0  0  0  0  0  0  0  0  0  0  0
   39.4350   26.7400   43.2400 C   0  0  0  0  0  0  0  0  0  0  0  0
   39.3410   25.2180   43.1010 C   0  0  0  0  0  0  0  0  0  0  0  0
   38.1930   24.7530   42.2640 C   0  0  0  0  0  0  0  0  0  0  0  0
   37.6000   25.8900   41.4460 C   0  0  0  0  0  0  0  0  0  0  0  0
   36.1840   26.5640   42.8440 H   0  0  0  0  0  0  0  0  0  0  0  0
   37.7360   27.0520   44.4340 H   0  0  0  0  0  0  0  0  0  0  0  0
   38.2420   28.4550   43.4720 H   0  0  0  0  0  0  0  0  0  0  0  0
   40.0510   27.0830   42.4130 H   0  0  0  0  0  0  0  0  0  0  0  0
   40.0200   26.9320   44.1850 H   0  0  0  0  0  0  0  0  0  0  0  0
   40.3150   24.8210   42.8010 H   0  0  0  0  0  0  0  0  0  0  0  0
   39.1470   24.8490   44.1440 H   0  0  0  0  0  0  0  0  0  0  0  0
   38.5970   24.0350   41.5040 H   0  0  0  0  0  0  0  0  0  0  0  0
   37.4040   24.2100   42.8120 H   0  0  0  0  0  0  0  0  0  0  0  0
   36.7500   25.5230   40.8610 H   0  0  0  0  0  0  0  0  0  0  0  0
   38.3890   26.2840   40.7730 H   0  0  0  0  0  0  0  0  0  0  0  0
   35.2140   29.0610   38.3210 C   0  0  0  0  0  0  0  0  0  0  0  0
   33.9080   28.7080   38.2220 N   0  0  0  0  0  0  0  0  0  0  0  0
   33.5470   28.7590   36.9160 C   0  0  0  0  0  0  0  0  0  0  0  0
   34.6400   29.1450   36.2170 N   0  0  0  0  0  0  0  0  0  0  0  0
   35.6660   29.3330   37.0640 N   0  0  0  0  0  0  0  0  0  0  0  0
   32.5840   28.5410   36.4640 H   0  0  0  0  0  0  0  0  0  0  0  0
   34.7490   29.3460   34.7640 C   0  0  0  0  0  0  0  0  0  0  0  0
   33.9550   30.0020   34.3740 H   0  0  0  0  0  0  0  0  0  0  0  0
   34.6390   28.3510   34.3050 H   0  0  0  0  0  0  0  0  0  0  0  0
   36.1300   29.8980   34.4780 C   0  0  0  0  0  3  0  0  0  0  0  0
   36.2000   31.1460   33.6460 C   0  0  0  0  0  2  0  0  0  0  0  0
   36.6010   29.7980   33.0580 C   0  0  0  0  0  2  0  0  0  0  0  0
  1  2  1  0  0  0  0
  1  9  1  0  0  0  0
  2  7  1  0  0  0  0
  3  8  1  0  0  0  0
  3  2  2  0  0  0  0
  4  3  1  0  0  0  0
  5  4  2  0  0  0  0
  5  6  1  0  0  0  0
  6  1  2  0  0  0  0
  9 15  1  0  0  0  0
  9 10  1  0  0  0  0
 10 17  1  0  0  0  0
 10 16  1  0  0  0  0
 11 10  1  0  0  0  0
 11 19  1  0  0  0  0
 12 11  1  0  0  0  0
 12 21  1  0  0  0  0
 13 23  1  0  0  0  0
 13 12  1  0  0  0  0
 14 13  1  0  0  0  0
 14  9  1  0  0  0  0
 18 11  1  0  0  0  0
 20 12  1  0  0  0  0
 22 13  1  0  0  0  0
 24 14  1  0  0  0  0
 25 14  1  0  0  0  0
 26  5  1  0  0  0  0
 27 26  1  0  0  0  0
 28 27  2  0  0  0  0
 29 28  1  0  0  0  0
 29 30  1  0  0  0  0
 30 26  2  0  0  0  0
 31 28  1  0  0  0  0
 32 29  1  0  0  0  0
 33 32  1  0  0  0  0
 34 32  1  0  0  0  0
 35 32  1  0  0  0  0
 36 35  1  0  0  0  0
 37 36  1  0  0  0  0
 37 35  1  0  0  0  0
M  END
>  <minimizedAffinity>
-5.28182936

$$$$

 OpenBabel03242519293D

 37 40  0  0  0  0  0  0  0  0999 V2000
   36.8130   28.1510   41.7030 C   0  0  0  0  0  0  0  0  0  0  0  0
   37.1450   29.4510   42.1710 C   0  0  0  0  0  0  0  0  0  0  0  0
   36.7400   30.5840   41.4490 C   0  0  0  0  0  0  0  0  0  0  0  0
   36.0240   30.3390   40.2990 N   0  0  0  0  0  0  0  0  0  0  0  0
   35.7250   29.0560   39.8830 C   0  0  0  0  0  0  0  0  0  0  0  0
   36.1200   28.0150   40.5830 N   0  0  0  0  0  0  0  0  0  0  0  0
   37.7010   29.7150   43.0610 H   0  0  0  0  0  0  0  0  0  0  0  0
   36.9570   31.5800   41.7480 H   0  0  0  0  0  0  0  0  0  0  0  0
   37.3040   27.0500   42.5530 C   0  0  0  0  0  0  0  0  0  0  0  0
   38.1170   27.4740   43.6770 C   0  0  0  0  0  0  0  0  0  0  0  0
   39.5370   27.0760   43.6070 C   0  0  0  0  0  0  0  0  0  0  0  0
   39.6920   25.5680   43.3870 C   0  0  0  0  0  0  0  0  0  0  0  0
   38.7150   24.9910   42.4130 C   0  0  0  0  0  0  0  0  0  0  0  0
   38.0370   26.0770   41.5930 C   0  0  0  0  0  0  0  0  0  0  0  0
   36.4050   26.4450   42.8650 H   0  0  0  0  0  0  0  0  0  0  0  0
   37.7030   27.0580   44.6300 H   0  0  0  0  0  0  0  0  0  0  0  0
   38.0780   28.5780   43.7930 H   0  0  0  0  0  0  0  0  0  0  0  0
   40.1700   27.5570   42.8660 H   0  0  0  0  0  0  0  0  0  0  0  0
   39.9910   27.2930   44.6160 H   0  0  0  0  0  0  0  0  0  0  0  0
   40.7400   25.3400   43.1730 H   0  0  0  0  0  0  0  0  0  0  0  0
   39.4570   25.1100   44.3850 H   0  0  0  0  0  0  0  0  0  0  0  0
   39.2960   24.3900   41.6680 H   0  0  0  0  0  0  0  0  0  0  0  0
   37.9690   24.3040   42.8500 H   0  0  0  0  0  0  0  0  0  0  0  0
   37.3130   25.6250   40.9050 H   0  0  0  0  0  0  0  0  0  0  0  0
   38.8160   26.6250   41.0250 H   0  0  0  0  0  0  0  0  0  0  0  0
   34.9650   29.0050   38.6410 C   0  0  0  0  0  0  0  0  0  0  0  0
   35.6440   29.0570   37.4680 N   0  0  0  0  0  0  0  0  0  0  0  0
   34.7500   28.9930   36.4510 C   0  0  0  0  0  0  0  0  0  0  0  0
   33.5200   28.9020   37.0090 N   0  0  0  0  0  0  0  0  0  0  0  0
   33.6380   28.9080   38.3470 N   0  0  0  0  0  0  0  0  0  0  0  0
   34.9310   29.0090   35.3800 H   0  0  0  0  0  0  0  0  0  0  0  0
   32.2270   28.8070   36.3150 C   0  0  0  0  0  0  0  0  0  0  0  0
   31.7060   27.8620   36.5350 H   0  0  0  0  0  0  0  0  0  0  0  0
   32.4510   28.8420   35.2380 H   0  0  0  0  0  0  0  0  0  0  0  0
   31.4020   30.0120   36.7130 C   0  0  0  0  0  3  0  0  0  0  0  0
   30.0040   30.0850   36.1700 C   0  0  0  0  0  2  0  0  0  0  0  0
   31.0970   30.9950   35.6210 C   0  0  0  0  0  2  0  0  0  0  0  0
  1  2  1  0  0  0  0
  1  9  1  0  0  0  0
  2  7  1  0  0  0  0
  3  8  1  0  0  0  0
  3  2  2  0  0  0  0
  4  3  1  0  0  0  0
  5  4  2  0  0  0  0
  5  6  1  0  0  0  0
  6  1  2  0  0  0  0
  9 15  1  0  0  0  0
  9 10  1  0  0  0  0
 10 17  1  0  0  0  0
 10 16  1  0  0  0  0
 11 10  1  0  0  0  0
 11 19  1  0  0  0  0
 12 11  1  0  0  0  0
 12 21  1  0  0  0  0
 13 23  1  0  0  0  0
 13 12  1  0  0  0  0
 14 13  1  0  0  0  0
 14  9  1  0  0  0  0
 18 11  1  0  0  0  0
 20 12  1  0  0  0  0
 22 13  1  0  0  0  0
 24 14  1  0  0  0  0
 25 14  1  0  0  0  0
 26  5  1  0  0  0  0
 27 26  1  0  0  0  0
 28 29  1  0  0  0  0
 28 27  2  0  0  0  0
 29 30  1  0  0  0  0
 30 26  2  0  0  0  0
 31 28  1  0  0  0  0
 32 33  1  0  0  0  0
 32 35  1  0  0  0  0
 32 29  1  0  0  0  0
 34 32  1  0  0  0  0
 36 35  1  0  0  0  0
 37 36  1  0  0  0  0
 37 35  1  0  0  0  0
M  END
>  <minimizedAffinity>
-5.21433878

$$$$

 OpenBabel03242519293D

 37 40  0  0  0  0  0  0  0  0999 V2000
   35.7710   28.3210   40.0650 C   0  0  0  0  0  0  0  0  0  0  0  0
   36.5080   27.1750   39.6620 C   0  0  0  0  0  0  0  0  0  0  0  0
   36.2750   26.5940   38.4060 C   0  0  0  0  0  0  0  0  0  0  0  0
   35.3140   27.2030   37.6320 N   0  0  0  0  0  0  0  0  0  0  0  0
   34.6220   28.3180   38.0670 C   0  0  0  0  0  0  0  0  0  0  0  0
   34.8640   28.8370   39.2500 N   0  0  0  0  0  0  0  0  0  0  0  0
   37.2730   26.6480   40.2170 H   0  0  0  0  0  0  0  0  0  0  0  0
   36.7930   25.7380   38.0490 H   0  0  0  0  0  0  0  0  0  0  0  0
   36.1110   28.8270   41.4090 C   0  0  0  0  0  0  0  0  0  0  0  0
   36.9830   29.9870   41.4130 C   0  0  0  0  0  0  0  0  0  0  0  0
   38.3340   29.7520   41.9590 C   0  0  0  0  0  0  0  0  0  0  0  0
   38.2780   29.1340   43.3590 C   0  0  0  0  0  0  0  0  0  0  0  0
   37.2260   28.0840   43.5200 C   0  0  0  0  0  0  0  0  0  0  0  0
   36.6970   27.6120   42.1750 C   0  0  0  0  0  0  0  0  0  0  0  0
   35.1400   29.0040   41.9530 H   0  0  0  0  0  0  0  0  0  0  0  0
   36.5220   30.8110   42.0120 H   0  0  0  0  0  0  0  0  0  0  0  0
   37.0960   30.3930   40.3860 H   0  0  0  0  0  0  0  0  0  0  0  0
   39.0220   29.1390   41.3840 H   0  0  0  0  0  0  0  0  0  0  0  0
   38.8200   30.7620   42.0830 H   0  0  0  0  0  0  0  0  0  0  0  0
   39.2840   28.8210   43.6560 H   0  0  0  0  0  0  0  0  0  0  0  0
   37.9890   29.9830   44.0340 H   0  0  0  0  0  0  0  0  0  0  0  0
   37.7140   27.1810   43.9690 H   0  0  0  0  0  0  0  0  0  0  0  0
   36.3960   28.3550   44.1960 H   0  0  0  0  0  0  0  0  0  0  0  0
   35.9150   26.8600   42.3270 H   0  0  0  0  0  0  0  0  0  0  0  0
   37.5410   27.1760   41.6010 H   0  0  0  0  0  0  0  0  0  0  0  0
   33.6440   28.8110   37.1070 C   0  0  0  0  0  0  0  0  0  0  0  0
   33.9740   28.8090   35.7910 N   0  0  0  0  0  0  0  0  0  0  0  0
   32.9270   29.3030   35.0850 C   0  0  0  0  0  0  0  0  0  0  0  0
   31.9550   29.6080   35.9770 N   0  0  0  0  0  0  0  0  0  0  0  0
   32.3810   29.3120   37.2170 N   0  0  0  0  0  0  0  0  0  0  0  0
   32.8340   29.4480   34.0130 H   0  0  0  0  0  0  0  0  0  0  0  0
   30.6270   30.1730   35.6950 C   0  0  0  0  0  0  0  0  0  0  0  0
   29.8470   29.7440   36.3430 H   0  0  0  0  0  0  0  0  0  0  0  0
   30.3970   29.9150   34.6500 H   0  0  0  0  0  0  0  0  0  0  0  0
   30.7250   31.6760   35.8500 C   0  0  0  0  0  3  0  0  0  0  0  0
   29.6190   32.4920   35.2440 C   0  0  0  0  0  2  0  0  0  0  0  0
   30.9980   32.4530   34.5960 C   0  0  0  0  0  2  0  0  0  0  0  0
  1  9  1  0  0  0  0
  2  1  1  0  0  0  0
  2  7  1  0  0  0  0
  3  2  2  0  0  0  0
  4  5  2  0  0  0  0
  4  3  1  0  0  0  0
  5  6  1  0  0  0  0
  6  1  2  0  0  0  0
  8  3  1  0  0  0  0
  9 10  1  0  0  0  0
  9 15  1  0  0  0  0
  9 14  1  0  0  0  0
 10 11  1  0  0  0  0
 10 16  1  0  0  0  0
 11 19  1  0  0  0  0
 11 12  1  0  0  0  0
 12 13  1  0  0  0  0
 12 20  1  0  0  0  0
 12 21  1  0  0  0  0
 13 22  1  0  0  0  0
 13 23  1  0  0  0  0
 14 24  1  0  0  0  0
 14 13  1  0  0  0  0
 17 10  1  0  0  0  0
 18 11  1  0  0  0  0
 25 14  1  0  0  0  0
 26 30  2  0  0  0  0
 26  5  1  0  0  0  0
 27 26  1  0  0  0  0
 28 27  2  0  0  0  0
 28 29  1  0  0  0  0
 29 30  1  0  0  0  0
 31 28  1  0  0  0  0
 32 35  1  0  0  0  0
 32 29  1  0  0  0  0
 32 33  1  0  0  0  0
 34 32  1  0  0  0  0
 36 35  1  0  0  0  0
 37 36  1  0  0  0  0
 37 35  1  0  0  0  0
M  END
>  <minimizedAffinity>
-5.18353271

$$$$

 OpenBabel03242519293D

 37 40  0  0  0  0  0  0  0  0999 V2000
   37.4050   27.2180   41.4950 C   0  0  0  0  0  0  0  0  0  0  0  0
   37.3960   27.1470   42.9140 C   0  0  0  0  0  0  0  0  0  0  0  0
   37.5550   28.3130   43.6780 C   0  0  0  0  0  0  0  0  0  0  0  0
   37.7140   29.4800   42.9660 N   0  0  0  0  0  0  0  0  0  0  0  0
   37.7170   29.5000   41.5850 C   0  0  0  0  0  0  0  0  0  0  0  0
   37.5650   28.3890   40.8980 N   0  0  0  0  0  0  0  0  0  0  0  0
   37.2750   26.2690   43.5350 H   0  0  0  0  0  0  0  0  0  0  0  0
   37.5560   28.3240   44.7400 H   0  0  0  0  0  0  0  0  0  0  0  0
   37.2320   25.9190   40.8160 C   0  0  0  0  0  0  0  0  0  0  0  0
   36.9540   24.8070   41.7040 C   0  0  0  0  0  0  0  0  0  0  0  0
   38.0230   23.7920   41.7890 C   0  0  0  0  0  0  0  0  0  0  0  0
   38.4190   23.2700   40.4050 C   0  0  0  0  0  0  0  0  0  0  0  0
   38.4890   24.3290   39.3520 C   0  0  0  0  0  0  0  0  0  0  0  0
   38.5120   25.7230   39.9620 C   0  0  0  0  0  0  0  0  0  0  0  0
   36.4390   26.0600   40.0270 H   0  0  0  0  0  0  0  0  0  0  0  0
   36.0220   24.2800   41.3810 H   0  0  0  0  0  0  0  0  0  0  0  0
   36.7490   25.1720   42.7330 H   0  0  0  0  0  0  0  0  0  0  0  0
   38.9500   24.0620   42.2880 H   0  0  0  0  0  0  0  0  0  0  0  0
   37.5970   22.9090   42.3460 H   0  0  0  0  0  0  0  0  0  0  0  0
   39.3190   22.6550   40.4940 H   0  0  0  0  0  0  0  0  0  0  0  0
   37.5810   22.5820   40.1110 H   0  0  0  0  0  0  0  0  0  0  0  0
   39.4780   24.2270   38.8350 H   0  0  0  0  0  0  0  0  0  0  0  0
   37.7200   24.2570   38.5640 H   0  0  0  0  0  0  0  0  0  0  0  0
   38.5420   26.4750   39.1660 H   0  0  0  0  0  0  0  0  0  0  0  0
   39.4110   25.8080   40.6050 H   0  0  0  0  0  0  0  0  0  0  0  0
   37.9040   30.8290   41.0180 C   0  0  0  0  0  0  0  0  0  0  0  0
   36.8450   31.4280   40.4160 N   0  0  0  0  0  0  0  0  0  0  0  0
   37.2390   32.6450   39.9670 C   0  0  0  0  0  0  0  0  0  0  0  0
   38.5450   32.7870   40.2970 N   0  0  0  0  0  0  0  0  0  0  0  0
   38.9620   31.6830   40.9390 N   0  0  0  0  0  0  0  0  0  0  0  0
   36.6610   33.3970   39.4390 H   0  0  0  0  0  0  0  0  0  0  0  0
   39.4160   33.9390   40.0230 C   0  0  0  0  0  0  0  0  0  0  0  0
   39.3990   34.6760   40.8420 H   0  0  0  0  0  0  0  0  0  0  0  0
   39.0230   34.4150   39.1130 H   0  0  0  0  0  0  0  0  0  0  0  0
   40.8120   33.4090   39.7700 C   0  0  0  0  0  3  0  0  0  0  0  0
   41.7840   34.3490   39.1170 C   0  0  0  0  0  2  0  0  0  0  0  0
   41.1840   33.1870   38.3340 C   0  0  0  0  0  2  0  0  0  0  0  0
  1  2  1  0  0  0  0
  2  7  1  0  0  0  0
  2  3  2  0  0  0  0
  3  8  1  0  0  0  0
  4  3  1  0  0  0  0
  5  4  2  0  0  0  0
  6  1  2  0  0  0  0
  6  5  1  0  0  0  0
  9  1  1  0  0  0  0
  9 10  1  0  0  0  0
 10 11  1  0  0  0  0
 10 17  1  0  0  0  0
 11 18  1  0  0  0  0
 11 19  1  0  0  0  0
 12 20  1  0  0  0  0
 12 11  1  0  0  0  0
 13 14  1  0  0  0  0
 13 12  1  0  0  0  0
 14 25  1  0  0  0  0
 14  9  1  0  0  0  0
 15  9  1  0  0  0  0
 16 10  1  0  0  0  0
 21 12  1  0  0  0  0
 22 13  1  0  0  0  0
 23 13  1  0  0  0  0
 24 14  1  0  0  0  0
 26  5  1  0  0  0  0
 27 26  1  0  0  0  0
 28 29  1  0  0  0  0
 28 27  2  0  0  0  0
 29 30  1  0  0  0  0
 30 26  2  0  0  0  0
 31 28  1  0  0  0  0
 32 29  1  0  0  0  0
 32 33  1  0  0  0  0
 34 32  1  0  0  0  0
 35 32  1  0  0  0  0
 36 35  1  0  0  0  0
 37 36  1  0  0  0  0
 37 35  1  0  0  0  0
M  END
>  <minimizedAffinity>
-5.15422678

$$$$

 OpenBabel03242519293D

 37 40  0  0  0  0  0  0  0  0999 V2000
   37.0640   28.9930   41.6640 C   0  0  0  0  0  0  0  0  0  0  0  0
   37.6740   29.0710   42.9450 C   0  0  0  0  0  0  0  0  0  0  0  0
   38.1050   27.9020   43.5920 C   0  0  0  0  0  0  0  0  0  0  0  0
   37.8930   26.7260   42.9080 N   0  0  0  0  0  0  0  0  0  0  0  0
   37.2950   26.7000   41.6640 C   0  0  0  0  0  0  0  0  0  0  0  0
   36.9020   27.8140   41.0850 N   0  0  0  0  0  0  0  0  0  0  0  0
   37.8710   29.9560   43.5350 H   0  0  0  0  0  0  0  0  0  0  0  0
   38.5670   27.8960   44.5480 H   0  0  0  0  0  0  0  0  0  0  0  0
   36.6560   30.2950   41.1010 C   0  0  0  0  0  0  0  0  0  0  0  0
   35.9660   30.2100   39.8270 C   0  0  0  0  0  0  0  0  0  0  0  0
   36.7040   30.7700   38.6780 C   0  0  0  0  0  0  0  0  0  0  0  0
   37.1460   32.2130   38.9390 C   0  0  0  0  0  0  0  0  0  0  0  0
   37.6490   32.4540   40.3260 C   0  0  0  0  0  0  0  0  0  0  0  0
   37.9490   31.1490   41.0470 C   0  0  0  0  0  0  0  0  0  0  0  0
   36.0530   30.8250   41.8920 H   0  0  0  0  0  0  0  0  0  0  0  0
   34.9860   30.7460   39.8850 H   0  0  0  0  0  0  0  0  0  0  0  0
   35.7150   29.1550   39.5890 H   0  0  0  0  0  0  0  0  0  0  0  0
   37.5850   30.2410   38.3260 H   0  0  0  0  0  0  0  0  0  0  0  0
   35.9820   30.8160   37.8130 H   0  0  0  0  0  0  0  0  0  0  0  0
   37.8280   32.5310   38.1440 H   0  0  0  0  0  0  0  0  0  0  0  0
   36.2100   32.8220   38.8270 H   0  0  0  0  0  0  0  0  0  0  0  0
   38.6400   32.9690   40.2420 H   0  0  0  0  0  0  0  0  0  0  0  0
   37.0120   33.1090   40.9470 H   0  0  0  0  0  0  0  0  0  0  0  0
   38.2940   31.3590   42.0650 H   0  0  0  0  0  0  0  0  0  0  0  0
   38.7340   30.6090   40.4790 H   0  0  0  0  0  0  0  0  0  0  0  0
   37.1550   25.3610   41.1080 C   0  0  0  0  0  0  0  0  0  0  0  0
   37.9520   24.3760   41.5930 N   0  0  0  0  0  0  0  0  0  0  0  0
   37.6550   23.2240   40.9420 C   0  0  0  0  0  0  0  0  0  0  0  0
   36.6720   23.5110   40.0560 N   0  0  0  0  0  0  0  0  0  0  0  0
   36.3580   24.8140   40.1480 N   0  0  0  0  0  0  0  0  0  0  0  0
   38.0900   22.2370   41.0670 H   0  0  0  0  0  0  0  0  0  0  0  0
   36.0140   22.5870   39.1190 C   0  0  0  0  0  0  0  0  0  0  0  0
   35.9660   21.5600   39.5140 H   0  0  0  0  0  0  0  0  0  0  0  0
   36.6280   22.5840   38.2060 H   0  0  0  0  0  0  0  0  0  0  0  0
   34.6380   23.1420   38.8180 C   0  0  0  0  0  3  0  0  0  0  0  0
   33.4910   22.5640   39.5960 C   0  0  0  0  0  2  0  0  0  0  0  0
   33.6870   22.2100   38.1260 C   0  0  0  0  0  2  0  0  0  0  0  0
  1  2  1  0  0  0  0
  2  7  1  0  0  0  0
  2  3  2  0  0  0  0
  3  8  1  0  0  0  0
  4  3  1  0  0  0  0
  5  4  2  0  0  0  0
  6  1  2  0  0  0  0
  6  5  1  0  0  0  0
  9  1  1  0  0  0  0
  9 15  1  0  0  0  0
 10 16  1  0  0  0  0
 10  9  1  0  0  0  0
 11 12  1  0  0  0  0
 11 10  1  0  0  0  0
 12 13  1  0  0  0  0
 13 23  1  0  0  0  0
 13 14  1  0  0  0  0
 14  9  1  0  0  0  0
 14 24  1  0  0  0  0
 17 10  1  0  0  0  0
 18 11  1  0  0  0  0
 19 11  1  0  0  0  0
 20 12  1  0  0  0  0
 21 12  1  0  0  0  0
 22 13  1  0  0  0  0
 25 14  1  0  0  0  0
 26 27  1  0  0  0  0
 26  5  1  0  0  0  0
 28 31  1  0  0  0  0
 28 27  2  0  0  0  0
 29 30  1  0  0  0  0
 29 28  1  0  0  0  0
 30 26  2  0  0  0  0
 32 33  1  0  0  0  0
 32 29  1  0  0  0  0
 34 32  1  0  0  0  0
 35 32  1  0  0  0  0
 35 36  1  0  0  0  0
 37 35  1  0  0  0  0
 37 36  1  0  0  0  0
M  END
>  <minimizedAffinity>
-5.10766935

$$$$

 OpenBabel03242519293D

 37 40  0  0  0  0  0  0  0  0999 V2000
   39.2380   32.5680   40.7370 C   0  0  0  0  0  0  0  0  0  0  0  0
   38.1330   33.0490   39.9830 C   0  0  0  0  0  0  0  0  0  0  0  0
   36.9500   32.2990   39.9110 C   0  0  0  0  0  0  0  0  0  0  0  0
   36.9510   31.1090   40.6030 N   0  0  0  0  0  0  0  0  0  0  0  0
   38.0500   30.6810   41.3230 C   0  0  0  0  0  0  0  0  0  0  0  0
   39.1440   31.4080   41.3690 N   0  0  0  0  0  0  0  0  0  0  0  0
   38.0640   33.9700   39.4200 H   0  0  0  0  0  0  0  0  0  0  0  0
   36.0910   32.6060   39.3660 H   0  0  0  0  0  0  0  0  0  0  0  0
   40.4190   33.4520   40.7250 C   0  0  0  0  0  0  0  0  0  0  0  0
   40.5270   34.2980   39.5510 C   0  0  0  0  0  0  0  0  0  0  0  0
   41.6600   33.9870   38.6580 C   0  0  0  0  0  0  0  0  0  0  0  0
   42.9900   33.9720   39.4160 C   0  0  0  0  0  0  0  0  0  0  0  0
   42.9160   33.3290   40.7640 C   0  0  0  0  0  0  0  0  0  0  0  0
   41.6410   32.5170   40.9260 C   0  0  0  0  0  0  0  0  0  0  0  0
   40.4060   34.0360   41.6880 H   0  0  0  0  0  0  0  0  0  0  0  0
   40.6300   35.3680   39.8570 H   0  0  0  0  0  0  0  0  0  0  0  0
   39.5950   34.2490   38.9490 H   0  0  0  0  0  0  0  0  0  0  0  0
   41.6260   33.0630   38.0870 H   0  0  0  0  0  0  0  0  0  0  0  0
   41.7350   34.8300   37.9130 H   0  0  0  0  0  0  0  0  0  0  0  0
   43.7740   33.5750   38.7640 H   0  0  0  0  0  0  0  0  0  0  0  0
   43.2300   35.0550   39.5910 H   0  0  0  0  0  0  0  0  0  0  0  0
   43.7440   32.5770   40.8260 H   0  0  0  0  0  0  0  0  0  0  0  0
   43.0570   34.0150   41.6180 H   0  0  0  0  0  0  0  0  0  0  0  0
   41.6060   32.0770   41.9290 H   0  0  0  0  0  0  0  0  0  0  0  0
   41.6350   31.7180   40.1560 H   0  0  0  0  0  0  0  0  0  0  0  0
   37.8560   29.3960   41.9790 C   0  0  0  0  0  0  0  0  0  0  0  0
   38.2460   29.2670   43.2720 N   0  0  0  0  0  0  0  0  0  0  0  0
   37.9740   28.0030   43.6800 C   0  0  0  0  0  0  0  0  0  0  0  0
   37.4160   27.3590   42.6280 N   0  0  0  0  0  0  0  0  0  0  0  0
   37.3380   28.1990   41.5830 N   0  0  0  0  0  0  0  0  0  0  0  0
   38.1510   27.5450   44.6480 H   0  0  0  0  0  0  0  0  0  0  0  0
   36.9480   25.9650   42.5780 C   0  0  0  0  0  0  0  0  0  0  0  0
   35.8490   25.8950   42.5960 H   0  0  0  0  0  0  0  0  0  0  0  0
   37.3470   25.4730   43.4780 H   0  0  0  0  0  0  0  0  0  0  0  0
   37.5350   25.3290   41.3350 C   0  0  0  0  0  3  0  0  0  0  0  0
   36.6350   24.4150   40.5540 C   0  0  0  0  0  2  0  0  0  0  0  0
   37.7690   23.8480   41.3990 C   0  0  0  0  0  2  0  0  0  0  0  0
  1  6  1  0  0  0  0
  2  1  2  0  0  0  0
  3  2  1  0  0  0  0
  3  4  2  0  0  0  0
  4  5  1  0  0  0  0
  5  6  2  0  0  0  0
  5 26  1  0  0  0  0
  7  2  1  0  0  0  0
  8  3  1  0  0  0  0
  9  1  1  0  0  0  0
  9 14  1  0  0  0  0
  9 15  1  0  0  0  0
 10 16  1  0  0  0  0
 10  9  1  0  0  0  0
 11 12  1  0  0  0  0
 11 10  1  0  0  0  0
 12 21  1  0  0  0  0
 12 13  1  0  0  0  0
 13 22  1  0  0  0  0
 13 14  1  0  0  0  0
 13 23  1  0  0  0  0
 14 24  1  0  0  0  0
 17 10  1  0  0  0  0
 18 11  1  0  0  0  0
 19 11  1  0  0  0  0
 20 12  1  0  0  0  0
 25 14  1  0  0  0  0
 26 27  1  0  0  0  0
 27 28  2  0  0  0  0
 28 31  1  0  0  0  0
 29 28  1  0  0  0  0
 30 26  2  0  0  0  0
 30 29  1  0  0  0  0
 32 33  1  0  0  0  0
 32 29  1  0  0  0  0
 32 34  1  0  0  0  0
 35 37  1  0  0  0  0
 35 32  1  0  0  0  0
 36 35  1  0  0  0  0
 36 37  1  0  0  0  0
M  END
>  <minimizedAffinity>
-5.02076292

$$$$

 OpenBabel03242519293D

 37 40  0  0  0  0  0  0  0  0999 V2000
   40.6840   33.0460   39.1070 C   0  0  0  0  0  0  0  0  0  0  0  0
   40.2130   34.2990   39.5840 C   0  0  0  0  0  0  0  0  0  0  0  0
   39.2550   34.3490   40.6070 C   0  0  0  0  0  0  0  0  0  0  0  0
   38.8290   33.1310   41.0890 N   0  0  0  0  0  0  0  0  0  0  0  0
   39.3160   31.9370   40.5940 C   0  0  0  0  0  0  0  0  0  0  0  0
   40.2140   31.9260   39.6330 N   0  0  0  0  0  0  0  0  0  0  0  0
   40.5030   35.2870   39.2520 H   0  0  0  0  0  0  0  0  0  0  0  0
   38.8650   35.2530   41.0050 H   0  0  0  0  0  0  0  0  0  0  0  0
   41.6850   33.1380   38.0280 C   0  0  0  0  0  0  0  0  0  0  0  0
   41.8390   31.9280   37.2430 C   0  0  0  0  0  0  0  0  0  0  0  0
   43.1390   31.2450   37.3940 C   0  0  0  0  0  0  0  0  0  0  0  0
   44.3110   32.1940   37.1280 C   0  0  0  0  0  0  0  0  0  0  0  0
   44.1270   33.5640   37.6970 C   0  0  0  0  0  0  0  0  0  0  0  0
   42.9980   33.5990   38.7150 C   0  0  0  0  0  0  0  0  0  0  0  0
   41.4170   34.0370   37.4020 H   0  0  0  0  0  0  0  0  0  0  0  0
   41.7090   32.1550   36.1560 H   0  0  0  0  0  0  0  0  0  0  0  0
   41.0400   31.1980   37.4920 H   0  0  0  0  0  0  0  0  0  0  0  0
   43.3550   30.7540   38.3400 H   0  0  0  0  0  0  0  0  0  0  0  0
   43.1910   30.4520   36.5950 H   0  0  0  0  0  0  0  0  0  0  0  0
   45.2460   31.7020   37.4130 H   0  0  0  0  0  0  0  0  0  0  0  0
   44.3320   32.3120   36.0110 H   0  0  0  0  0  0  0  0  0  0  0  0
   45.0480   33.8130   38.2840 H   0  0  0  0  0  0  0  0  0  0  0  0
   44.0090   34.3690   36.9510 H   0  0  0  0  0  0  0  0  0  0  0  0
   42.8740   34.6180   39.0970 H   0  0  0  0  0  0  0  0  0  0  0  0
   43.2520   32.9060   39.5430 H   0  0  0  0  0  0  0  0  0  0  0  0
   38.7390   30.7600   41.2290 C   0  0  0  0  0  0  0  0  0  0  0  0
   39.1350   30.4470   42.4880 N   0  0  0  0  0  0  0  0  0  0  0  0
   38.4760   29.3290   42.8810 C   0  0  0  0  0  0  0  0  0  0  0  0
   37.6750   28.9590   41.8530 N   0  0  0  0  0  0  0  0  0  0  0  0
   37.8260   29.8260   40.8380 N   0  0  0  0  0  0  0  0  0  0  0  0
   38.5420   28.7920   43.8230 H   0  0  0  0  0  0  0  0  0  0  0  0
   36.7640   27.8060   41.8000 C   0  0  0  0  0  0  0  0  0  0  0  0
   36.5430   27.4990   40.7650 H   0  0  0  0  0  0  0  0  0  0  0  0
   35.8280   28.1290   42.2790 H   0  0  0  0  0  0  0  0  0  0  0  0
   37.3950   26.6850   42.5980 C   0  0  0  0  0  3  0  0  0  0  0  0
   38.3760   25.8080   41.8740 C   0  0  0  0  0  2  0  0  0  0  0  0
   36.9850   25.2920   42.2210 C   0  0  0  0  0  2  0  0  0  0  0  0
  1  2  2  0  0  0  0
  1  6  1  0  0  0  0
  2  3  1  0  0  0  0
  3  8  1  0  0  0  0
  3  4  2  0  0  0  0
  5  4  1  0  0  0  0
  5 26  1  0  0  0  0
  6  5  2  0  0  0  0
  7  2  1  0  0  0  0
  9 14  1  0  0  0  0
  9  1  1  0  0  0  0
 10 11  1  0  0  0  0
 10 17  1  0  0  0  0
 10  9  1  0  0  0  0
 11 18  1  0  0  0  0
 12 11  1  0  0  0  0
 12 20  1  0  0  0  0
 12 13  1  0  0  0  0
 13 22  1  0  0  0  0
 13 14  1  0  0  0  0
 14 24  1  0  0  0  0
 14 25  1  0  0  0  0
 15  9  1  0  0  0  0
 16 10  1  0  0  0  0
 19 11  1  0  0  0  0
 21 12  1  0  0  0  0
 23 13  1  0  0  0  0
 26 27  1  0  0  0  0
 27 28  2  0  0  0  0
 28 31  1  0  0  0  0
 29 28  1  0  0  0  0
 30 26  2  0  0  0  0
 30 29  1  0  0  0  0
 32 29  1  0  0  0  0
 32 34  1  0  0  0  0
 32 35  1  0  0  0  0
 33 32  1  0  0  0  0
 36 37  1  0  0  0  0
 36 35  1  0  0  0  0
 37 35  1  0  0  0  0
M  END
>  <minimizedAffinity>
-4.88053322

$$$$
