
 OpenBabel03242515293D

 26 28  0  0  0  0  0  0  0  0999 V2000
   43.3680   35.5070   40.8300 C   0  0  0  0  0  0  0  0  0  0  0  0
   43.4850   36.5680   41.0320 H   0  0  0  0  0  0  0  0  0  0  0  0
   43.9720   35.3160   39.8940 H   0  0  0  0  0  0  0  0  0  0  0  0
   42.0080   35.0550   40.6350 N   0  0  0  0  0  0  0  0  0  0  0  0
   41.1250   35.1370   41.6200 C   0  0  0  0  0  0  0  0  0  0  0  0
   39.8340   34.6830   41.3670 C   0  0  0  0  0  0  0  0  0  0  0  0
   39.4750   34.1680   40.1490 C   0  0  0  0  0  0  0  0  0  0  0  0
   38.3040   33.7750   39.9770 O   0  0  0  0  0  0  0  0  0  0  0  0
   40.4000   34.1000   39.1720 N   0  0  0  0  0  0  0  0  0  0  0  0
   41.6600   34.5380   39.4030 C   0  0  0  0  0  0  0  0  0  0  0  0
   42.4730   34.4450   38.4430 O   0  0  0  0  0  0  0  0  0  0  0  0
   41.4560   35.5500   42.5590 H   0  0  0  0  0  0  0  0  0  0  0  0
   39.1520   34.7770   42.2180 H   0  0  0  0  0  0  0  0  0  0  0  0
   40.1080   33.7050   38.2520 H   0  0  0  0  0  0  0  0  0  0  0  0
   44.5770   35.3620   42.9550 C   0  0  0  0  0  0  0  0  0  0  0  0
   43.9870   34.6850   41.8760 C   0  0  0  0  0  0  0  0  0  0  0  0
   44.0500   33.3150   41.9050 C   0  0  0  0  0  0  0  0  0  0  0  0
   44.6560   32.6890   42.9310 N   0  0  0  0  0  0  0  0  0  0  0  0
   45.2090   33.3990   43.9470 C   0  0  0  0  0  0  0  0  0  0  0  0
   45.1860   34.7600   43.9880 N   0  0  0  0  0  0  0  0  0  0  0  0
   44.5510   36.4550   42.9770 H   0  0  0  0  0  0  0  0  0  0  0  0
   43.5960   32.7820   41.0740 H   0  0  0  0  0  0  0  0  0  0  0  0
   45.8370   32.7540   45.0070 O   0  0  0  0  0  0  0  0  0  0  0  0
   46.0990   33.3320   46.2450 C   0  0  0  0  0  0  0  0  0  0  0  0
   46.9800   32.4720   47.1640 C   0  0  0  0  0  0  0  0  0  0  0  0
   45.5380   32.6240   47.4800 C   0  0  0  0  0  0  0  0  0  0  0  0
  1  2  1  0  0  0  0
  1 16  1  0  0  0  0
  3  1  1  0  0  0  0
  4  1  1  0  0  0  0
  4  5  1  0  0  0  0
  5 12  1  0  0  0  0
  6  5  2  0  0  0  0
  6 13  1  0  0  0  0
  7  6  1  0  0  0  0
  8  7  2  0  0  0  0
  9 10  1  0  0  0  0
  9  7  1  0  0  0  0
 10  4  1  0  0  0  0
 11 10  2  0  0  0  0
 14  9  1  0  0  0  0
 15 21  1  0  0  0  0
 15 20  1  0  0  0  0
 16 17  1  0  0  0  0
 16 15  2  0  0  0  0
 17 18  2  0  0  0  0
 18 19  1  0  0  0  0
 19 20  2  0  0  0  0
 19 23  1  0  0  0  0
 22 17  1  0  0  0  0
 23 24  1  0  0  0  0
 24 25  1  0  0  0  0
 24 26  1  0  0  0  0
 25 26  1  0  0  0  0
M  END
>  <minimizedAffinity>
-4.82429552

>  <minimizedRMSD>
1.43299973

$$$$
