
 OpenBabel03252504193D

 32 34  0  0  0  0  0  0  0  0999 V2000
   36.9520   27.2640   40.6790 C   0  0  0  0  0  0  0  0  0  0  0  0
   37.0820   28.2680   41.6320 C   0  0  0  0  0  0  0  0  0  0  0  0
   36.4270   29.4940   41.3680 C   0  0  0  0  0  0  0  0  0  0  0  0
   35.7230   29.6360   40.2360 N   0  0  0  0  0  0  0  0  0  0  0  0
   35.6250   28.6330   39.3420 C   0  0  0  0  0  0  0  0  0  0  0  0
   36.2360   27.4520   39.5630 N   0  0  0  0  0  0  0  0  0  0  0  0
   36.5260   30.2790   42.1050 H   0  0  0  0  0  0  0  0  0  0  0  0
   32.8650   29.2950   39.3040 F   0  0  0  0  0  0  0  0  0  0  0  0
   33.5170   29.0910   38.1010 C   0  0  0  0  0  0  0  0  0  0  0  0
   34.8510   28.7720   38.0930 C   0  0  0  0  0  0  0  0  0  0  0  0
   35.4200   28.5860   36.8470 C   0  0  0  0  0  0  0  0  0  0  0  0
   34.6850   28.7120   35.6940 C   0  0  0  0  0  0  0  0  0  0  0  0
   33.3460   29.0340   35.7660 C   0  0  0  0  0  0  0  0  0  0  0  0
   32.7250   29.2330   36.9980 C   0  0  0  0  0  0  0  0  0  0  0  0
   36.4790   28.3300   36.7840 H   0  0  0  0  0  0  0  0  0  0  0  0
   35.0920   28.5730   34.7050 H   0  0  0  0  0  0  0  0  0  0  0  0
   32.7150   29.1480   34.8900 H   0  0  0  0  0  0  0  0  0  0  0  0
   31.2720   29.5870   37.0900 C   0  0  0  0  0  0  0  0  0  0  0  0
   30.6850   28.7340   36.7250 H   0  0  0  0  0  0  0  0  0  0  0  0
   31.0450   29.6660   38.1920 H   0  0  0  0  0  0  0  0  0  0  0  0
   30.9300   30.8800   36.4220 C   0  0  0  0  0  3  0  0  0  0  0  0
   29.3940   31.0540   36.2080 C   0  0  0  0  0  2  0  0  0  0  0  0
   30.2000   31.9650   37.0730 C   0  0  0  0  0  2  0  0  0  0  0  0
   37.8700   28.0320   42.8410 C   0  0  0  0  0  0  0  0  0  0  0  0
   38.0360   29.2060   43.5410 F   0  0  0  0  0  0  0  0  0  0  0  0
   37.1270   27.1850   43.6790 F   0  0  0  0  0  0  0  0  0  0  0  0
   39.0850   27.4870   42.6570 F   0  0  0  0  0  0  0  0  0  0  0  0
   37.5790   26.0880   40.9290 O   0  0  0  0  0  0  0  0  0  0  0  0
   36.9580   24.8470   41.2390 C   0  0  0  0  0  0  0  0  0  0  0  0
   36.2490   25.0070   42.4150 F   0  0  0  0  0  0  0  0  0  0  0  0
   36.1720   24.4500   40.1840 F   0  0  0  0  0  0  0  0  0  0  0  0
   37.9400   23.9150   41.5290 F   0  0  0  0  0  0  0  0  0  0  0  0
  1 28  1  0  0  0  0
  1  2  1  0  0  0  0
  2 24  1  0  0  0  0
  3  2  2  0  0  0  0
  3  7  1  0  0  0  0
  4  3  1  0  0  0  0
  5  6  1  0  0  0  0
  5  4  2  0  0  0  0
  6  1  2  0  0  0  0
  9  8  1  0  0  0  0
 10  9  1  0  0  0  0
 10  5  1  0  0  0  0
 11 10  2  0  0  0  0
 12 13  2  0  0  0  0
 12 11  1  0  0  0  0
 13 14  1  0  0  0  0
 14 18  1  0  0  0  0
 14  9  2  0  0  0  0
 15 11  1  0  0  0  0
 16 12  1  0  0  0  0
 17 13  1  0  0  0  0
 18 20  1  0  0  0  0
 19 18  1  0  0  0  0
 21 23  1  0  0  0  0
 21 18  1  0  0  0  0
 22 21  1  0  0  0  0
 22 23  1  0  0  0  0
 24 25  1  0  0  0  0
 24 26  1  0  0  0  0
 27 24  1  0  0  0  0
 28 29  1  0  0  0  0
 29 32  1  0  0  0  0
 29 30  1  0  0  0  0
 31 29  1  0  0  0  0
M  END
>  <minimizedAffinity>
-6.01453447

$$$$

 OpenBabel03252504193D

 32 34  0  0  0  0  0  0  0  0999 V2000
   36.9990   27.1810   40.6230 C   0  0  0  0  0  0  0  0  0  0  0  0
   37.0690   28.1370   41.6300 C   0  0  0  0  0  0  0  0  0  0  0  0
   36.3980   29.3620   41.4010 C   0  0  0  0  0  0  0  0  0  0  0  0
   35.7380   29.5470   40.2490 N   0  0  0  0  0  0  0  0  0  0  0  0
   35.6980   28.5900   39.3020 C   0  0  0  0  0  0  0  0  0  0  0  0
   36.3260   27.4110   39.4900 N   0  0  0  0  0  0  0  0  0  0  0  0
   36.4490   30.1090   42.1810 H   0  0  0  0  0  0  0  0  0  0  0  0
   37.0140   28.8130   36.7970 F   0  0  0  0  0  0  0  0  0  0  0  0
   35.6330   28.8850   36.8320 C   0  0  0  0  0  0  0  0  0  0  0  0
   34.9740   28.7770   38.0310 C   0  0  0  0  0  0  0  0  0  0  0  0
   33.5950   28.8600   37.9710 C   0  0  0  0  0  0  0  0  0  0  0  0
   32.9350   29.0420   36.7800 C   0  0  0  0  0  0  0  0  0  0  0  0
   33.6530   29.1440   35.6070 C   0  0  0  0  0  0  0  0  0  0  0  0
   35.0440   29.0650   35.6130 C   0  0  0  0  0  0  0  0  0  0  0  0
   33.0220   28.7820   38.8970 H   0  0  0  0  0  0  0  0  0  0  0  0
   31.8630   29.1130   36.6940 H   0  0  0  0  0  0  0  0  0  0  0  0
   33.1870   29.2860   34.6380 H   0  0  0  0  0  0  0  0  0  0  0  0
   35.8360   29.1700   34.3450 C   0  0  0  0  0  0  0  0  0  0  0  0
   36.6170   28.3990   34.3610 H   0  0  0  0  0  0  0  0  0  0  0  0
   35.1290   28.8740   33.5170 H   0  0  0  0  0  0  0  0  0  0  0  0
   36.3560   30.5460   34.0800 C   0  0  0  0  0  3  0  0  0  0  0  0
   36.6860   30.7800   32.5720 C   0  0  0  0  0  2  0  0  0  0  0  0
   35.6370   31.5530   33.3000 C   0  0  0  0  0  2  0  0  0  0  0  0
   37.8110   27.8560   42.8580 C   0  0  0  0  0  0  0  0  0  0  0  0
   38.0290   29.0180   43.5630 F   0  0  0  0  0  0  0  0  0  0  0  0
   36.9990   27.0540   43.6770 F   0  0  0  0  0  0  0  0  0  0  0  0
   38.9960   27.2390   42.7030 F   0  0  0  0  0  0  0  0  0  0  0  0
   37.6410   26.0060   40.8400 O   0  0  0  0  0  0  0  0  0  0  0  0
   37.0370   24.7520   41.1270 C   0  0  0  0  0  0  0  0  0  0  0  0
   36.1800   24.9270   42.1970 F   0  0  0  0  0  0  0  0  0  0  0  0
   36.4080   24.2760   40.0020 F   0  0  0  0  0  0  0  0  0  0  0  0
   38.0120   23.8790   41.5810 F   0  0  0  0  0  0  0  0  0  0  0  0
  1 28  1  0  0  0  0
  1  2  1  0  0  0  0
  2 24  1  0  0  0  0
  3  2  2  0  0  0  0
  3  7  1  0  0  0  0
  4  3  1  0  0  0  0
  5  6  1  0  0  0  0
  5  4  2  0  0  0  0
  6  1  2  0  0  0  0
  8  9  1  0  0  0  0
  9 10  1  0  0  0  0
 10  5  1  0  0  0  0
 11 10  2  0  0  0  0
 11 15  1  0  0  0  0
 12 11  1  0  0  0  0
 13 14  1  0  0  0  0
 13 12  2  0  0  0  0
 14  9  2  0  0  0  0
 16 12  1  0  0  0  0
 17 13  1  0  0  0  0
 18 19  1  0  0  0  0
 18 14  1  0  0  0  0
 20 18  1  0  0  0  0
 21 18  1  0  0  0  0
 22 23  1  0  0  0  0
 22 21  1  0  0  0  0
 23 21  1  0  0  0  0
 24 25  1  0  0  0  0
 24 26  1  0  0  0  0
 27 24  1  0  0  0  0
 28 29  1  0  0  0  0
 29 32  1  0  0  0  0
 29 30  1  0  0  0  0
 31 29  1  0  0  0  0
M  END
>  <minimizedAffinity>
-5.74497032

$$$$

 OpenBabel03252504193D

 32 34  0  0  0  0  0  0  0  0999 V2000
   39.4990   31.4050   39.6090 C   0  0  0  0  0  0  0  0  0  0  0  0
   40.4650   31.2410   38.6240 C   0  0  0  0  0  0  0  0  0  0  0  0
   41.2310   30.0520   38.6660 C   0  0  0  0  0  0  0  0  0  0  0  0
   41.0010   29.1520   39.6330 N   0  0  0  0  0  0  0  0  0  0  0  0
   40.0520   29.3550   40.5670 C   0  0  0  0  0  0  0  0  0  0  0  0
   39.3030   30.4770   40.5540 N   0  0  0  0  0  0  0  0  0  0  0  0
   41.9850   29.9200   37.9020 H   0  0  0  0  0  0  0  0  0  0  0  0
   37.7170   27.7420   40.6260 F   0  0  0  0  0  0  0  0  0  0  0  0
   38.6460   27.6060   41.6420 C   0  0  0  0  0  0  0  0  0  0  0  0
   39.7830   28.3730   41.6350 C   0  0  0  0  0  0  0  0  0  0  0  0
   40.6550   28.1720   42.6890 C   0  0  0  0  0  0  0  0  0  0  0  0
   40.3870   27.2580   43.6800 C   0  0  0  0  0  0  0  0  0  0  0  0
   39.2250   26.5170   43.6320 C   0  0  0  0  0  0  0  0  0  0  0  0
   38.3150   26.6810   42.5910 C   0  0  0  0  0  0  0  0  0  0  0  0
   41.5750   28.7570   42.7320 H   0  0  0  0  0  0  0  0  0  0  0  0
   41.0400   27.0740   44.5170 H   0  0  0  0  0  0  0  0  0  0  0  0
   38.9610   25.7800   44.3850 H   0  0  0  0  0  0  0  0  0  0  0  0
   37.0510   25.8790   42.5260 C   0  0  0  0  0  0  0  0  0  0  0  0
   36.5060   26.0160   43.4690 H   0  0  0  0  0  0  0  0  0  0  0  0
   36.4170   26.3690   41.7320 H   0  0  0  0  0  0  0  0  0  0  0  0
   37.2740   24.4450   42.1640 C   0  0  0  0  0  3  0  0  0  0  0  0
   36.5240   24.0350   40.8580 C   0  0  0  0  0  2  0  0  0  0  0  0
   38.0110   24.0090   40.9800 C   0  0  0  0  0  2  0  0  0  0  0  0
   40.6540   32.2720   37.6040 C   0  0  0  0  0  0  0  0  0  0  0  0
   41.6790   31.9230   36.7540 F   0  0  0  0  0  0  0  0  0  0  0  0
   39.4940   32.3120   36.8140 F   0  0  0  0  0  0  0  0  0  0  0  0
   40.9000   33.5130   38.0590 F   0  0  0  0  0  0  0  0  0  0  0  0
   38.7620   32.5430   39.5720 O   0  0  0  0  0  0  0  0  0  0  0  0
   37.3530   32.6340   39.4130 C   0  0  0  0  0  0  0  0  0  0  0  0
   37.0250   33.9700   39.2690 F   0  0  0  0  0  0  0  0  0  0  0  0
   36.9590   31.8630   38.3460 F   0  0  0  0  0  0  0  0  0  0  0  0
   36.7430   32.2340   40.5900 F   0  0  0  0  0  0  0  0  0  0  0  0
  1  6  1  0  0  0  0
  2  3  1  0  0  0  0
  2  1  2  0  0  0  0
  3  4  2  0  0  0  0
  4  5  1  0  0  0  0
  5 10  1  0  0  0  0
  6  5  2  0  0  0  0
  7  3  1  0  0  0  0
  8  9  1  0  0  0  0
  9 14  1  0  0  0  0
 10  9  2  0  0  0  0
 10 11  1  0  0  0  0
 11 15  1  0  0  0  0
 11 12  2  0  0  0  0
 12 16  1  0  0  0  0
 13 12  1  0  0  0  0
 13 17  1  0  0  0  0
 14 13  2  0  0  0  0
 18 14  1  0  0  0  0
 18 19  1  0  0  0  0
 20 18  1  0  0  0  0
 21 18  1  0  0  0  0
 22 23  1  0  0  0  0
 22 21  1  0  0  0  0
 23 21  1  0  0  0  0
 24 27  1  0  0  0  0
 24  2  1  0  0  0  0
 25 24  1  0  0  0  0
 26 24  1  0  0  0  0
 28  1  1  0  0  0  0
 29 28  1  0  0  0  0
 29 32  1  0  0  0  0
 30 29  1  0  0  0  0
 31 29  1  0  0  0  0
M  END
>  <minimizedAffinity>
-5.74004221

$$$$

 OpenBabel03252504193D

 32 34  0  0  0  0  0  0  0  0999 V2000
   37.9560   28.6400   40.8480 C   0  0  0  0  0  0  0  0  0  0  0  0
   38.3460   29.8650   41.3760 C   0  0  0  0  0  0  0  0  0  0  0  0
   37.9960   31.0220   40.6420 C   0  0  0  0  0  0  0  0  0  0  0  0
   37.3180   30.8950   39.4930 N   0  0  0  0  0  0  0  0  0  0  0  0
   36.9600   29.6850   39.0210 C   0  0  0  0  0  0  0  0  0  0  0  0
   37.2780   28.5620   39.6970 N   0  0  0  0  0  0  0  0  0  0  0  0
   38.2970   31.9780   41.0480 H   0  0  0  0  0  0  0  0  0  0  0  0
   34.2210   28.9470   38.9380 F   0  0  0  0  0  0  0  0  0  0  0  0
   34.8870   29.1680   37.7460 C   0  0  0  0  0  0  0  0  0  0  0  0
   36.2110   29.5270   37.7600 C   0  0  0  0  0  0  0  0  0  0  0  0
   36.7950   29.7270   36.5230 C   0  0  0  0  0  0  0  0  0  0  0  0
   36.0850   29.5700   35.3570 C   0  0  0  0  0  0  0  0  0  0  0  0
   34.7560   29.2060   35.4080 C   0  0  0  0  0  0  0  0  0  0  0  0
   34.1200   28.9940   36.6290 C   0  0  0  0  0  0  0  0  0  0  0  0
   37.8470   30.0140   36.4770 H   0  0  0  0  0  0  0  0  0  0  0  0
   36.5070   29.7150   34.3750 H   0  0  0  0  0  0  0  0  0  0  0  0
   34.1450   29.0680   34.5220 H   0  0  0  0  0  0  0  0  0  0  0  0
   32.6760   28.6020   36.6980 C   0  0  0  0  0  0  0  0  0  0  0  0
   32.4550   27.9460   35.8450 H   0  0  0  0  0  0  0  0  0  0  0  0
   32.5770   27.9540   37.6170 H   0  0  0  0  0  0  0  0  0  0  0  0
   31.7470   29.7680   36.8140 C   0  0  0  0  0  3  0  0  0  0  0  0
   30.2520   29.3320   36.9280 C   0  0  0  0  0  2  0  0  0  0  0  0
   30.9660   30.0700   38.0120 C   0  0  0  0  0  2  0  0  0  0  0  0
   39.0860   29.9170   42.6370 C   0  0  0  0  0  0  0  0  0  0  0  0
   39.5720   31.1870   42.8540 F   0  0  0  0  0  0  0  0  0  0  0  0
   38.1770   29.6680   43.6780 F   0  0  0  0  0  0  0  0  0  0  0  0
   40.1120   29.0560   42.7550 F   0  0  0  0  0  0  0  0  0  0  0  0
   38.2910   27.5280   41.5490 O   0  0  0  0  0  0  0  0  0  0  0  0
   37.4510   26.8020   42.4370 C   0  0  0  0  0  0  0  0  0  0  0  0
   36.2980   27.5400   42.6320 F   0  0  0  0  0  0  0  0  0  0  0  0
   37.2110   25.5510   41.9230 F   0  0  0  0  0  0  0  0  0  0  0  0
   38.0590   26.7410   43.6800 F   0  0  0  0  0  0  0  0  0  0  0  0
  1  2  1  0  0  0  0
  1 28  1  0  0  0  0
  2 24  1  0  0  0  0
  3  7  1  0  0  0  0
  3  2  2  0  0  0  0
  4  3  1  0  0  0  0
  5  4  2  0  0  0  0
  5  6  1  0  0  0  0
  6  1  2  0  0  0  0
  9 10  1  0  0  0  0
  9  8  1  0  0  0  0
 10  5  1  0  0  0  0
 11 10  2  0  0  0  0
 12 13  2  0  0  0  0
 12 11  1  0  0  0  0
 13 14  1  0  0  0  0
 14 18  1  0  0  0  0
 14  9  2  0  0  0  0
 15 11  1  0  0  0  0
 16 12  1  0  0  0  0
 17 13  1  0  0  0  0
 18 21  1  0  0  0  0
 18 20  1  0  0  0  0
 19 18  1  0  0  0  0
 21 22  1  0  0  0  0
 21 23  1  0  0  0  0
 22 23  1  0  0  0  0
 24 27  1  0  0  0  0
 24 25  1  0  0  0  0
 24 26  1  0  0  0  0
 28 29  1  0  0  0  0
 29 30  1  0  0  0  0
 29 32  1  0  0  0  0
 31 29  1  0  0  0  0
M  END
>  <minimizedAffinity>
-5.63447046

$$$$

 OpenBabel03252504193D

 32 34  0  0  0  0  0  0  0  0999 V2000
   36.8390   29.6780   40.7680 C   0  0  0  0  0  0  0  0  0  0  0  0
   37.2010   28.4420   41.2920 C   0  0  0  0  0  0  0  0  0  0  0  0
   36.7280   27.2930   40.6150 C   0  0  0  0  0  0  0  0  0  0  0  0
   35.9660   27.4390   39.5210 N   0  0  0  0  0  0  0  0  0  0  0  0
   35.6420   28.6590   39.0500 C   0  0  0  0  0  0  0  0  0  0  0  0
   36.0780   29.7740   39.6710 N   0  0  0  0  0  0  0  0  0  0  0  0
   37.0050   26.3290   41.0180 H   0  0  0  0  0  0  0  0  0  0  0  0
   32.8740   29.2770   39.1680 F   0  0  0  0  0  0  0  0  0  0  0  0
   33.4720   29.1320   37.9290 C   0  0  0  0  0  0  0  0  0  0  0  0
   34.8080   28.8360   37.8450 C   0  0  0  0  0  0  0  0  0  0  0  0
   35.3210   28.7090   36.5680 C   0  0  0  0  0  0  0  0  0  0  0  0
   34.5300   28.8700   35.4560 C   0  0  0  0  0  0  0  0  0  0  0  0
   33.1910   29.1670   35.6040 C   0  0  0  0  0  0  0  0  0  0  0  0
   32.6260   29.3060   36.8700 C   0  0  0  0  0  0  0  0  0  0  0  0
   36.3790   28.4730   36.4450 H   0  0  0  0  0  0  0  0  0  0  0  0
   34.8920   28.7780   34.4450 H   0  0  0  0  0  0  0  0  0  0  0  0
   32.5190   29.3070   34.7640 H   0  0  0  0  0  0  0  0  0  0  0  0
   31.1750   29.6320   37.0450 C   0  0  0  0  0  0  0  0  0  0  0  0
   30.5860   28.9130   36.4600 H   0  0  0  0  0  0  0  0  0  0  0  0
   30.9390   29.4130   38.1260 H   0  0  0  0  0  0  0  0  0  0  0  0
   30.8450   31.0600   36.7470 C   0  0  0  0  0  3  0  0  0  0  0  0
   29.3530   31.2550   36.3320 C   0  0  0  0  0  2  0  0  0  0  0  0
   29.9400   31.8730   37.5570 C   0  0  0  0  0  2  0  0  0  0  0  0
   38.0340   28.3700   42.4910 C   0  0  0  0  0  0  0  0  0  0  0  0
   39.3100   28.8060   42.2150 F   0  0  0  0  0  0  0  0  0  0  0  0
   37.5130   29.2730   43.4310 F   0  0  0  0  0  0  0  0  0  0  0  0
   38.1280   27.1610   43.0720 F   0  0  0  0  0  0  0  0  0  0  0  0
   37.2910   30.7810   41.4150 O   0  0  0  0  0  0  0  0  0  0  0  0
   38.3110   31.6640   40.9700 C   0  0  0  0  0  0  0  0  0  0  0  0
   37.7100   32.8450   40.5740 F   0  0  0  0  0  0  0  0  0  0  0  0
   39.2380   31.8380   41.9690 F   0  0  0  0  0  0  0  0  0  0  0  0
   38.8840   31.1440   39.8210 F   0  0  0  0  0  0  0  0  0  0  0  0
  1  2  1  0  0  0  0
  1 28  1  0  0  0  0
  2 24  1  0  0  0  0
  3  7  1  0  0  0  0
  3  2  2  0  0  0  0
  4  3  1  0  0  0  0
  5  4  2  0  0  0  0
  5  6  1  0  0  0  0
  6  1  2  0  0  0  0
  9  8  1  0  0  0  0
 10  9  1  0  0  0  0
 10  5  1  0  0  0  0
 11 10  2  0  0  0  0
 12 13  2  0  0  0  0
 12 11  1  0  0  0  0
 13 14  1  0  0  0  0
 14 18  1  0  0  0  0
 14  9  2  0  0  0  0
 15 11  1  0  0  0  0
 16 12  1  0  0  0  0
 17 13  1  0  0  0  0
 18 20  1  0  0  0  0
 19 18  1  0  0  0  0
 21 18  1  0  0  0  0
 21 23  1  0  0  0  0
 22 21  1  0  0  0  0
 22 23  1  0  0  0  0
 24 27  1  0  0  0  0
 24 26  1  0  0  0  0
 25 24  1  0  0  0  0
 29 28  1  0  0  0  0
 29 31  1  0  0  0  0
 30 29  1  0  0  0  0
 32 29  1  0  0  0  0
M  END
>  <minimizedAffinity>
-5.56829691

$$$$

 OpenBabel03252504193D

 32 34  0  0  0  0  0  0  0  0999 V2000
   36.7370   27.5370   40.9080 C   0  0  0  0  0  0  0  0  0  0  0  0
   37.3310   28.6200   41.5440 C   0  0  0  0  0  0  0  0  0  0  0  0
   37.2430   29.8750   40.8950 C   0  0  0  0  0  0  0  0  0  0  0  0
   36.6050   29.9660   39.7190 N   0  0  0  0  0  0  0  0  0  0  0  0
   36.0430   28.8860   39.1420 C   0  0  0  0  0  0  0  0  0  0  0  0
   36.1090   27.6760   39.7350 N   0  0  0  0  0  0  0  0  0  0  0  0
   37.7040   30.7210   41.3850 H   0  0  0  0  0  0  0  0  0  0  0  0
   33.2160   29.0470   38.9430 F   0  0  0  0  0  0  0  0  0  0  0  0
   33.9660   29.0450   37.7810 C   0  0  0  0  0  0  0  0  0  0  0  0
   35.3340   28.9700   37.8500 C   0  0  0  0  0  0  0  0  0  0  0  0
   36.0020   28.9740   36.6400 C   0  0  0  0  0  0  0  0  0  0  0  0
   35.3270   29.0460   35.4460 C   0  0  0  0  0  0  0  0  0  0  0  0
   33.9500   29.1180   35.4400 C   0  0  0  0  0  0  0  0  0  0  0  0
   33.2300   29.1190   36.6330 C   0  0  0  0  0  0  0  0  0  0  0  0
   37.0920   28.9150   36.6390 H   0  0  0  0  0  0  0  0  0  0  0  0
   35.8120   29.0490   34.4830 H   0  0  0  0  0  0  0  0  0  0  0  0
   33.3630   29.1780   34.5290 H   0  0  0  0  0  0  0  0  0  0  0  0
   31.7340   29.2010   36.6400 C   0  0  0  0  0  0  0  0  0  0  0  0
   31.3540   28.6590   35.7640 H   0  0  0  0  0  0  0  0  0  0  0  0
   31.3980   28.6070   37.5380 H   0  0  0  0  0  0  0  0  0  0  0  0
   31.2150   30.5990   36.7530 C   0  0  0  0  0  3  0  0  0  0  0  0
   30.6300   31.1300   35.4060 C   0  0  0  0  0  2  0  0  0  0  0  0
   29.8020   30.9550   36.6350 C   0  0  0  0  0  2  0  0  0  0  0  0
   38.0100   28.4360   42.8260 C   0  0  0  0  0  0  0  0  0  0  0  0
   37.2360   27.6750   43.6730 F   0  0  0  0  0  0  0  0  0  0  0  0
   39.1760   27.6890   42.5910 F   0  0  0  0  0  0  0  0  0  0  0  0
   38.3520   29.5610   43.4790 F   0  0  0  0  0  0  0  0  0  0  0  0
   36.8210   26.3330   41.5280 O   0  0  0  0  0  0  0  0  0  0  0  0
   37.5240   25.1890   41.0620 C   0  0  0  0  0  0  0  0  0  0  0  0
   36.6430   24.4170   40.3280 F   0  0  0  0  0  0  0  0  0  0  0  0
   38.6250   25.5860   40.3430 F   0  0  0  0  0  0  0  0  0  0  0  0
   37.8750   24.4060   42.1500 F   0  0  0  0  0  0  0  0  0  0  0  0
  1 28  1  0  0  0  0
  1  2  1  0  0  0  0
  2 24  1  0  0  0  0
  3  7  1  0  0  0  0
  3  2  2  0  0  0  0
  4  3  1  0  0  0  0
  5  4  2  0  0  0  0
  5  6  1  0  0  0  0
  6  1  2  0  0  0  0
  9 10  1  0  0  0  0
  9  8  1  0  0  0  0
 10  5  1  0  0  0  0
 11 10  2  0  0  0  0
 12 11  1  0  0  0  0
 13 12  2  0  0  0  0
 13 14  1  0  0  0  0
 14 18  1  0  0  0  0
 14  9  2  0  0  0  0
 15 11  1  0  0  0  0
 16 12  1  0  0  0  0
 17 13  1  0  0  0  0
 18 21  1  0  0  0  0
 18 20  1  0  0  0  0
 19 18  1  0  0  0  0
 22 23  1  0  0  0  0
 22 21  1  0  0  0  0
 23 21  1  0  0  0  0
 24 27  1  0  0  0  0
 24 25  1  0  0  0  0
 26 24  1  0  0  0  0
 29 28  1  0  0  0  0
 29 32  1  0  0  0  0
 30 29  1  0  0  0  0
 31 29  1  0  0  0  0
M  END
>  <minimizedAffinity>
-5.44299698

$$$$

 OpenBabel03252504193D

 32 34  0  0  0  0  0  0  0  0999 V2000
   38.7290   30.5140   39.8840 C   0  0  0  0  0  0  0  0  0  0  0  0
   38.7850   31.6130   40.7340 C   0  0  0  0  0  0  0  0  0  0  0  0
   38.9570   31.3500   42.1140 C   0  0  0  0  0  0  0  0  0  0  0  0
   39.0560   30.0820   42.5370 N   0  0  0  0  0  0  0  0  0  0  0  0
   38.9970   29.0490   41.6740 C   0  0  0  0  0  0  0  0  0  0  0  0
   38.8350   29.2650   40.3530 N   0  0  0  0  0  0  0  0  0  0  0  0
   39.0000   32.2010   42.7800 H   0  0  0  0  0  0  0  0  0  0  0  0
   36.9080   27.1550   41.3460 F   0  0  0  0  0  0  0  0  0  0  0  0
   38.0830   26.7520   41.9550 C   0  0  0  0  0  0  0  0  0  0  0  0
   39.1080   27.6480   42.1230 C   0  0  0  0  0  0  0  0  0  0  0  0
   40.2430   27.1580   42.7410 C   0  0  0  0  0  0  0  0  0  0  0  0
   40.3290   25.8530   43.1600 C   0  0  0  0  0  0  0  0  0  0  0  0
   39.2640   24.9990   42.9640 C   0  0  0  0  0  0  0  0  0  0  0  0
   38.0970   25.4430   42.3450 C   0  0  0  0  0  0  0  0  0  0  0  0
   41.0890   27.8300   42.9010 H   0  0  0  0  0  0  0  0  0  0  0  0
   41.1960   25.4350   43.6460 H   0  0  0  0  0  0  0  0  0  0  0  0
   39.2740   23.9580   43.2710 H   0  0  0  0  0  0  0  0  0  0  0  0
   36.9350   24.5240   42.1220 C   0  0  0  0  0  0  0  0  0  0  0  0
   36.7750   23.9420   43.0390 H   0  0  0  0  0  0  0  0  0  0  0  0
   36.0320   25.1920   42.0210 H   0  0  0  0  0  0  0  0  0  0  0  0
   37.0670   23.6840   40.8930 C   0  0  0  0  0  3  0  0  0  0  0  0
   35.7680   23.6820   40.0270 C   0  0  0  0  0  2  0  0  0  0  0  0
   37.0700   24.2220   39.5340 C   0  0  0  0  0  2  0  0  0  0  0  0
   38.6680   32.9660   40.1920 C   0  0  0  0  0  0  0  0  0  0  0  0
   37.3900   33.1880   39.7310 F   0  0  0  0  0  0  0  0  0  0  0  0
   38.8600   33.8700   41.2490 F   0  0  0  0  0  0  0  0  0  0  0  0
   39.5230   33.2810   39.2040 F   0  0  0  0  0  0  0  0  0  0  0  0
   38.5640   30.7630   38.5610 O   0  0  0  0  0  0  0  0  0  0  0  0
   37.3960   30.5080   37.7910 C   0  0  0  0  0  0  0  0  0  0  0  0
   37.3060   31.4840   36.8170 F   0  0  0  0  0  0  0  0  0  0  0  0
   37.4540   29.2350   37.2780 F   0  0  0  0  0  0  0  0  0  0  0  0
   36.2820   30.6890   38.5940 F   0  0  0  0  0  0  0  0  0  0  0  0
  1  6  2  0  0  0  0
  1  2  1  0  0  0  0
  2  3  2  0  0  0  0
  3  4  1  0  0  0  0
  3  7  1  0  0  0  0
  5 10  1  0  0  0  0
  5  4  2  0  0  0  0
  6  5  1  0  0  0  0
  8  9  1  0  0  0  0
  9 10  2  0  0  0  0
  9 14  1  0  0  0  0
 10 11  1  0  0  0  0
 11 15  1  0  0  0  0
 11 12  2  0  0  0  0
 12 16  1  0  0  0  0
 13 12  1  0  0  0  0
 13 17  1  0  0  0  0
 14 13  2  0  0  0  0
 18 14  1  0  0  0  0
 18 19  1  0  0  0  0
 20 18  1  0  0  0  0
 21 18  1  0  0  0  0
 22 21  1  0  0  0  0
 23 22  1  0  0  0  0
 23 21  1  0  0  0  0
 24  2  1  0  0  0  0
 24 26  1  0  0  0  0
 25 24  1  0  0  0  0
 27 24  1  0  0  0  0
 28  1  1  0  0  0  0
 29 28  1  0  0  0  0
 29 32  1  0  0  0  0
 30 29  1  0  0  0  0
 31 29  1  0  0  0  0
M  END
>  <minimizedAffinity>
-5.42839813

$$$$

 OpenBabel03252504193D

 32 34  0  0  0  0  0  0  0  0999 V2000
   39.1020   31.0390   39.5220 C   0  0  0  0  0  0  0  0  0  0  0  0
   40.0020   31.8420   40.2120 C   0  0  0  0  0  0  0  0  0  0  0  0
   40.3020   31.4740   41.5450 C   0  0  0  0  0  0  0  0  0  0  0  0
   39.7190   30.3910   42.0770 N   0  0  0  0  0  0  0  0  0  0  0  0
   38.8520   29.6420   41.3680 C   0  0  0  0  0  0  0  0  0  0  0  0
   38.5460   29.9650   40.0940 N   0  0  0  0  0  0  0  0  0  0  0  0
   41.0010   32.0960   42.0870 H   0  0  0  0  0  0  0  0  0  0  0  0
   39.6890   26.9990   40.7550 F   0  0  0  0  0  0  0  0  0  0  0  0
   38.6270   27.1770   41.6240 C   0  0  0  0  0  0  0  0  0  0  0  0
   38.2050   28.4440   41.9370 C   0  0  0  0  0  0  0  0  0  0  0  0
   37.1380   28.5270   42.8130 C   0  0  0  0  0  0  0  0  0  0  0  0
   36.5420   27.4020   43.3290 C   0  0  0  0  0  0  0  0  0  0  0  0
   37.0110   26.1540   42.9750 C   0  0  0  0  0  0  0  0  0  0  0  0
   38.0840   26.0170   42.0980 C   0  0  0  0  0  0  0  0  0  0  0  0
   36.7630   29.5120   43.0940 H   0  0  0  0  0  0  0  0  0  0  0  0
   35.7080   27.4260   44.0120 H   0  0  0  0  0  0  0  0  0  0  0  0
   36.5810   25.2310   43.3520 H   0  0  0  0  0  0  0  0  0  0  0  0
   38.6050   24.6670   41.7090 C   0  0  0  0  0  0  0  0  0  0  0  0
   39.7020   24.7040   41.7190 H   0  0  0  0  0  0  0  0  0  0  0  0
   38.3140   23.9730   42.5500 H   0  0  0  0  0  0  0  0  0  0  0  0
   38.0340   24.1540   40.4270 C   0  0  0  0  0  3  0  0  0  0  0  0
   37.7630   22.6170   40.4640 C   0  0  0  0  0  2  0  0  0  0  0  0
   36.6770   23.6270   40.2920 C   0  0  0  0  0  2  0  0  0  0  0  0
   40.5940   33.0100   39.5580 C   0  0  0  0  0  0  0  0  0  0  0  0
   40.9620   32.7010   38.2680 F   0  0  0  0  0  0  0  0  0  0  0  0
   39.5970   33.9920   39.4510 F   0  0  0  0  0  0  0  0  0  0  0  0
   41.6590   33.5520   40.1730 F   0  0  0  0  0  0  0  0  0  0  0  0
   38.8130   31.3900   38.2440 O   0  0  0  0  0  0  0  0  0  0  0  0
   37.5480   31.8060   37.7460 C   0  0  0  0  0  0  0  0  0  0  0  0
   36.7220   30.6990   37.7020 F   0  0  0  0  0  0  0  0  0  0  0  0
   37.0550   32.8180   38.5330 F   0  0  0  0  0  0  0  0  0  0  0  0
   37.6950   32.2050   36.4280 F   0  0  0  0  0  0  0  0  0  0  0  0
  1  6  2  0  0  0  0
  1  2  1  0  0  0  0
  2  3  2  0  0  0  0
  3  4  1  0  0  0  0
  3  7  1  0  0  0  0
  5 10  1  0  0  0  0
  5  4  2  0  0  0  0
  6  5  1  0  0  0  0
  8  9  1  0  0  0  0
  9 10  2  0  0  0  0
  9 14  1  0  0  0  0
 10 11  1  0  0  0  0
 11 15  1  0  0  0  0
 11 12  2  0  0  0  0
 12 16  1  0  0  0  0
 13 12  1  0  0  0  0
 13 17  1  0  0  0  0
 14 13  2  0  0  0  0
 18 19  1  0  0  0  0
 18 14  1  0  0  0  0
 18 20  1  0  0  0  0
 21 22  1  0  0  0  0
 21 18  1  0  0  0  0
 23 21  1  0  0  0  0
 23 22  1  0  0  0  0
 24 27  1  0  0  0  0
 24  2  1  0  0  0  0
 25 24  1  0  0  0  0
 26 24  1  0  0  0  0
 28  1  1  0  0  0  0
 29 28  1  0  0  0  0
 29 31  1  0  0  0  0
 30 29  1  0  0  0  0
 32 29  1  0  0  0  0
M  END
>  <minimizedAffinity>
-5.41718245

$$$$

 OpenBabel03252504193D

 32 34  0  0  0  0  0  0  0  0999 V2000
   36.5860   28.5920   40.5670 C   0  0  0  0  0  0  0  0  0  0  0  0
   36.9720   27.2730   40.7740 C   0  0  0  0  0  0  0  0  0  0  0  0
   36.5710   26.3250   39.8020 C   0  0  0  0  0  0  0  0  0  0  0  0
   35.8510   26.7280   38.7450 N   0  0  0  0  0  0  0  0  0  0  0  0
   35.5020   28.0190   38.5870 C   0  0  0  0  0  0  0  0  0  0  0  0
   35.8690   28.9470   39.4940 N   0  0  0  0  0  0  0  0  0  0  0  0
   36.8680   25.2970   39.9590 H   0  0  0  0  0  0  0  0  0  0  0  0
   32.8570   29.0220   38.8210 F   0  0  0  0  0  0  0  0  0  0  0  0
   33.4360   28.9580   37.5670 C   0  0  0  0  0  0  0  0  0  0  0  0
   34.7130   28.4790   37.4270 C   0  0  0  0  0  0  0  0  0  0  0  0
   35.2110   28.4510   36.1380 C   0  0  0  0  0  0  0  0  0  0  0  0
   34.4620   28.8760   35.0680 C   0  0  0  0  0  0  0  0  0  0  0  0
   33.1820   29.3470   35.2710 C   0  0  0  0  0  0  0  0  0  0  0  0
   32.6340   29.3970   36.5510 C   0  0  0  0  0  0  0  0  0  0  0  0
   36.2230   28.0770   35.9710 H   0  0  0  0  0  0  0  0  0  0  0  0
   34.8140   28.8670   34.0490 H   0  0  0  0  0  0  0  0  0  0  0  0
   32.5440   29.6970   34.4660 H   0  0  0  0  0  0  0  0  0  0  0  0
   31.2460   29.9100   36.7860 C   0  0  0  0  0  0  0  0  0  0  0  0
   30.5350   29.1180   36.5190 H   0  0  0  0  0  0  0  0  0  0  0  0
   31.1530   30.0430   37.9030 H   0  0  0  0  0  0  0  0  0  0  0  0
   30.9720   31.2150   36.1100 C   0  0  0  0  0  3  0  0  0  0  0  0
   29.4610   31.4040   35.7670 C   0  0  0  0  0  2  0  0  0  0  0  0
   30.1950   32.2970   36.7120 C   0  0  0  0  0  2  0  0  0  0  0  0
   37.7560   26.9150   41.9550 C   0  0  0  0  0  0  0  0  0  0  0  0
   37.0400   27.1740   43.1020 F   0  0  0  0  0  0  0  0  0  0  0  0
   37.9590   25.5260   41.9310 F   0  0  0  0  0  0  0  0  0  0  0  0
   38.9540   27.5160   42.0720 F   0  0  0  0  0  0  0  0  0  0  0  0
   36.9680   29.5020   41.4960 O   0  0  0  0  0  0  0  0  0  0  0  0
   37.9250   30.5390   41.3220 C   0  0  0  0  0  0  0  0  0  0  0  0
   38.8020   30.1470   40.3280 F   0  0  0  0  0  0  0  0  0  0  0  0
   37.2790   31.7180   41.0390 F   0  0  0  0  0  0  0  0  0  0  0  0
   38.6950   30.6360   42.4690 F   0  0  0  0  0  0  0  0  0  0  0  0
  1  2  1  0  0  0  0
  1 28  1  0  0  0  0
  2 24  1  0  0  0  0
  3  7  1  0  0  0  0
  3  2  2  0  0  0  0
  4  3  1  0  0  0  0
  5  4  2  0  0  0  0
  5  6  1  0  0  0  0
  6  1  2  0  0  0  0
  9  8  1  0  0  0  0
 10  9  1  0  0  0  0
 10  5  1  0  0  0  0
 11 10  2  0  0  0  0
 12 13  2  0  0  0  0
 12 11  1  0  0  0  0
 13 14  1  0  0  0  0
 14 18  1  0  0  0  0
 14  9  2  0  0  0  0
 15 11  1  0  0  0  0
 16 12  1  0  0  0  0
 17 13  1  0  0  0  0
 18 20  1  0  0  0  0
 19 18  1  0  0  0  0
 21 23  1  0  0  0  0
 21 18  1  0  0  0  0
 22 21  1  0  0  0  0
 22 23  1  0  0  0  0
 24 27  1  0  0  0  0
 24 25  1  0  0  0  0
 26 24  1  0  0  0  0
 29 28  1  0  0  0  0
 29 32  1  0  0  0  0
 30 29  1  0  0  0  0
 31 29  1  0  0  0  0
M  END
>  <minimizedAffinity>
-5.35674238

$$$$
