
 OpenBabel03252504223D

 26 29  0  0  0  0  0  0  0  0999 V2000
   48.1270   33.0510   40.2440 C   0  0  0  0  0  0  0  0  0  0  0  0
   49.4480   32.7630   40.5990 C   0  0  0  0  0  0  0  0  0  0  0  0
   49.8230   32.9100   41.9470 C   0  0  0  0  0  0  0  0  0  0  0  0
   48.8690   33.3250   42.8240 N   0  0  0  0  0  0  0  0  0  0  0  0
   47.5980   33.5920   42.4350 C   0  0  0  0  0  0  0  0  0  0  0  0
   47.2270   33.4580   41.1620 N   0  0  0  0  0  0  0  0  0  0  0  0
   46.6700   34.0190   43.4330 N   0  0  0  0  0  0  0  0  0  0  0  0
   45.7860   35.0390   43.3110 C   0  0  0  0  0  0  0  0  0  0  0  0
   45.0820   35.1310   44.4750 N   0  0  0  0  0  0  0  0  0  0  0  0
   45.5470   34.1720   45.2790 C   0  0  0  0  0  0  0  0  0  0  0  0
   45.2420   33.7650   46.5670 C   0  0  0  0  0  0  0  0  0  0  0  0
   45.8660   32.7520   47.1650 N   0  0  0  0  0  0  0  0  0  0  0  0
   46.8380   32.0600   46.5480 C   0  0  0  0  0  0  0  0  0  0  0  0
   47.1330   32.4550   45.2980 N   0  0  0  0  0  0  0  0  0  0  0  0
   46.5440   33.4600   44.6490 C   0  0  0  0  0  0  0  0  0  0  0  0
   50.1970   32.4300   39.8780 H   0  0  0  0  0  0  0  0  0  0  0  0
   50.8380   32.6910   42.2280 H   0  0  0  0  0  0  0  0  0  0  0  0
   45.6870   35.6600   42.4200 H   0  0  0  0  0  0  0  0  0  0  0  0
   47.3420   31.2400   47.0390 H   0  0  0  0  0  0  0  0  0  0  0  0
   44.2330   34.4250   47.3160 N   0  0  0  0  0  0  0  0  0  0  0  0
   43.3390   34.5300   46.7740 H   0  0  0  0  0  0  0  0  0  0  0  0
   44.3330   34.7820   48.3010 H   0  0  0  0  0  0  0  0  0  0  0  0
   47.7130   32.8400   38.4940 S   0  0  0  0  0  0  0  0  0  0  0  0
   45.9190   32.9850   38.3290 C   0  0  0  0  0  0  0  0  0  0  0  0
   45.3230   33.0980   36.9730 C   0  0  0  0  0  0  0  0  0  0  0  0
   45.1140   31.8540   37.8180 C   0  0  0  0  0  0  0  0  0  0  0  0
  1  2  2  0  0  0  0
  1  6  1  0  0  0  0
  2  3  1  0  0  0  0
  3 17  1  0  0  0  0
  3  4  2  0  0  0  0
  5  4  1  0  0  0  0
  5  7  1  0  0  0  0
  6  5  2  0  0  0  0
  7 15  1  0  0  0  0
  8  7  1  0  0  0  0
  8  9  2  0  0  0  0
  9 10  1  0  0  0  0
 10 11  1  0  0  0  0
 11 12  2  0  0  0  0
 11 20  1  0  0  0  0
 13 19  1  0  0  0  0
 13 12  1  0  0  0  0
 14 13  2  0  0  0  0
 15 10  2  0  0  0  0
 15 14  1  0  0  0  0
 16  2  1  0  0  0  0
 18  8  1  0  0  0  0
 20 22  1  0  0  0  0
 21 20  1  0  0  0  0
 23  1  1  0  0  0  0
 24 23  1  0  0  0  0
 25 26  1  0  0  0  0
 25 24  1  0  0  0  0
 26 24  1  0  0  0  0
M  END
>  <minimizedAffinity>
-5.19509315

>  <minimizedRMSD>
0.535050571

$$$$
