
 OpenBabel03252507553D

 38 41  0  0  1  0  0  0  0  0999 V2000
   47.0910   34.8520   42.0070 C   0  0  2  0  0  0  0  0  0  0  0  0
   46.3430   34.2470   40.8140 C   0  0  0  0  0  0  0  0  0  0  0  0
   47.5600   34.0870   39.8750 C   0  0  0  0  0  0  0  0  0  0  0  0
   48.6890   33.6920   40.7750 C   0  0  1  0  0  0  0  0  0  0  0  0
   48.1620   33.8070   42.1740 C   0  0  0  0  0  0  0  0  0  0  0  0
   47.4780   35.8200   41.6910 H   0  0  0  0  0  0  0  0  0  0  0  0
   45.6460   34.9960   40.4110 H   0  0  0  0  0  0  0  0  0  0  0  0
   45.9130   33.2810   41.0760 H   0  0  0  0  0  0  0  0  0  0  0  0
   47.7260   35.0670   39.3590 H   0  0  0  0  0  0  0  0  0  0  0  0
   47.3500   33.2620   39.1660 H   0  0  0  0  0  0  0  0  0  0  0  0
   49.5340   34.4240   40.6700 H   0  0  0  0  0  0  0  0  0  0  0  0
   48.9130   34.2430   42.8790 H   0  0  0  0  0  0  0  0  0  0  0  0
   47.7640   32.8870   42.5980 H   0  0  0  0  0  0  0  0  0  0  0  0
   44.5150   35.9550   44.5240 C   0  0  0  0  0  0  0  0  0  0  0  0
   45.2630   35.9550   43.3500 C   0  0  0  0  0  0  0  0  0  0  0  0
   46.2080   34.9480   43.2060 C   0  0  0  0  0  0  0  0  0  0  0  0
   46.3830   33.9930   44.2020 N   0  0  0  0  0  0  0  0  0  0  0  0
   45.6250   34.0400   45.3320 C   0  0  0  0  0  0  0  0  0  0  0  0
   44.6950   35.0230   45.4820 N   0  0  0  0  0  0  0  0  0  0  0  0
   43.7710   36.7350   44.6530 H   0  0  0  0  0  0  0  0  0  0  0  0
   45.1610   36.6740   42.5510 H   0  0  0  0  0  0  0  0  0  0  0  0
   45.8400   33.2540   46.0430 H   0  0  0  0  0  0  0  0  0  0  0  0
   49.1650   32.2680   40.5900 C   0  0  2  0  0  0  0  0  0  0  0  0
   49.9880   31.7220   41.6590 C   0  0  0  0  0  0  0  0  0  0  0  0
   50.5630   31.9580   40.2970 C   0  0  1  0  0  0  0  0  0  0  0  0
   48.3970   31.6100   40.1430 H   0  0  0  0  0  0  0  0  0  0  0  0
   50.3530   32.4220   42.4640 H   0  0  0  0  0  0  0  0  0  0  0  0
   49.9060   30.6820   42.0370 H   0  0  0  0  0  0  0  0  0  0  0  0
   51.1710   32.8250   40.0140 H   0  0  0  0  0  0  0  0  0  0  0  0
   50.8260   30.8140   39.5040 O   0  0  0  0  0  0  0  0  0  0  0  0
   51.1610   30.3120   36.9680 O   0  0  0  0  0  0  0  0  0  0  0  0
   51.4710   31.3300   38.0390 P   0  0  1  0  0  0  0  0  0  0  0  0
   50.7300   32.8050   37.5680 O   0  0  0  0  0  0  0  0  0  0  0  0
   49.9430   32.5790   37.0240 H   0  0  0  0  0  0  0  0  0  0  0  0
   53.1050   31.6020   38.0550 O   0  0  0  0  0  0  0  0  0  0  0  0
   53.8670   30.5330   37.6120 C   0  0  0  0  0  0  0  0  0  0  0  0
   55.0140   29.9850   38.3580 C   0  0  0  0  0  0  0  0  0  0  0  0
   55.2270   30.7810   37.0570 C   0  0  0  0  0  0  0  0  0  0  0  0
  1  6  1  6  0  0  0
  1  5  1  0  0  0  0
  1 16  1  0  0  0  0
  2  8  1  0  0  0  0
  2  1  1  0  0  0  0
  3  4  1  0  0  0  0
  3  2  1  0  0  0  0
  4 11  1  6  0  0  0
  4  5  1  0  0  0  0
  5 13  1  0  0  0  0
  5 12  1  0  0  0  0
  7  2  1  0  0  0  0
  9  3  1  0  0  0  0
 10  3  1  0  0  0  0
 14 20  1  0  0  0  0
 14 19  1  0  0  0  0
 15 14  2  0  0  0  0
 16 15  1  0  0  0  0
 16 17  2  0  0  0  0
 17 18  1  0  0  0  0
 18 19  2  0  0  0  0
 18 22  1  0  0  0  0
 21 15  1  0  0  0  0
 23 26  1  6  0  0  0
 23  4  1  0  0  0  0
 23 24  1  0  0  0  0
 24 28  1  0  0  0  0
 24 27  1  0  0  0  0
 25 29  1  6  0  0  0
 25 23  1  0  0  0  0
 25 24  1  0  0  0  0
 30 25  1  0  0  0  0
 32 31  2  6  0  0  0
 32 35  1  0  0  0  0
 32 30  1  0  0  0  0
 33 32  1  0  0  0  0
 34 33  1  0  0  0  0
 36 35  1  0  0  0  0
 36 37  1  0  0  0  0
 38 36  1  0  0  0  0
 38 37  1  0  0  0  0
M  END
>  <minimizedAffinity>
-5.16072035

>  <minimizedRMSD>
0.585832179

$$$$
