
 OpenBabel03252509313D

 21 22  0  0  0  0  0  0  0  0999 V2000
   47.0700   33.5520   42.8900 C   0  0  0  0  0  0  0  0  0  0  0  0
   46.9460   34.0500   41.9010 H   0  0  0  0  0  0  0  0  0  0  0  0
   46.7260   32.4940   42.7600 H   0  0  0  0  0  0  0  0  0  0  0  0
   45.1270   34.2790   46.0000 C   0  0  0  0  0  0  0  0  0  0  0  0
   45.9900   33.6380   45.1030 C   0  0  0  0  0  0  0  0  0  0  0  0
   46.1760   34.2010   43.8440 C   0  0  0  0  0  0  0  0  0  0  0  0
   45.5030   35.3640   43.5330 N   0  0  0  0  0  0  0  0  0  0  0  0
   44.6780   35.9520   44.4290 C   0  0  0  0  0  0  0  0  0  0  0  0
   44.4910   35.4220   45.6410 N   0  0  0  0  0  0  0  0  0  0  0  0
   45.0520   33.7630   46.9490 H   0  0  0  0  0  0  0  0  0  0  0  0
   46.5130   32.7340   45.3450 H   0  0  0  0  0  0  0  0  0  0  0  0
   44.1430   36.8650   44.2020 H   0  0  0  0  0  0  0  0  0  0  0  0
   48.3900   33.5940   43.3390 O   0  0  0  0  0  0  0  0  0  0  0  0
   50.7790   33.8490   42.2980 O   0  0  0  0  0  0  0  0  0  0  0  0
   49.3270   34.2090   42.0700 P   0  0  2  0  0  0  0  0  0  0  0  0
   49.0650   35.8640   41.9980 O   0  0  0  0  0  0  0  0  0  0  0  0
   49.5740   36.2960   42.7240 H   0  0  0  0  0  0  0  0  0  0  0  0
   48.8280   33.4590   40.6470 O   0  0  0  0  0  0  0  0  0  0  0  0
   48.1210   34.2800   39.8060 C   0  0  0  0  0  3  0  0  0  0  0  0
   46.9750   33.6250   39.0760 C   0  0  0  0  0  2  0  0  0  0  0  0
   48.2410   33.8740   38.3380 C   0  0  0  0  0  2  0  0  0  0  0  0
  1 13  1  0  0  0  0
  1  6  1  0  0  0  0
  2  1  1  0  0  0  0
  3  1  1  0  0  0  0
  4 10  1  0  0  0  0
  5 11  1  0  0  0  0
  5  4  2  0  0  0  0
  6  5  1  0  0  0  0
  7  6  2  0  0  0  0
  7  8  1  0  0  0  0
  8  9  2  0  0  0  0
  9  4  1  0  0  0  0
 12  8  1  0  0  0  0
 15 14  2  1  0  0  0
 15 13  1  0  0  0  0
 16 15  1  0  0  0  0
 16 17  1  0  0  0  0
 18 15  1  0  0  0  0
 19 18  1  0  0  0  0
 20 19  1  0  0  0  0
 21 20  1  0  0  0  0
 21 19  1  0  0  0  0
M  END
>  <minimizedAffinity>
-4.01667404

>  <minimizedRMSD>
1.82315838

$$$$
