
 OpenBabel03252509313D

 21 22  0  0  0  0  0  0  0  0999 V2000
   46.7760   34.8980   42.1110 C   0  0  0  0  0  0  0  0  0  0  0  0
   46.7930   35.9340   41.7010 H   0  0  0  0  0  0  0  0  0  0  0  0
   46.1850   34.2780   41.3890 H   0  0  0  0  0  0  0  0  0  0  0  0
   45.5640   33.9570   45.5200 C   0  0  0  0  0  0  0  0  0  0  0  0
   46.2690   33.9130   44.3120 C   0  0  0  0  0  0  0  0  0  0  0  0
   46.0520   34.9220   43.3790 C   0  0  0  0  0  0  0  0  0  0  0  0
   45.1530   35.9220   43.6830 N   0  0  0  0  0  0  0  0  0  0  0  0
   44.4910   35.9280   44.8620 C   0  0  0  0  0  0  0  0  0  0  0  0
   44.6900   34.9650   45.7670 N   0  0  0  0  0  0  0  0  0  0  0  0
   45.8040   33.1290   46.1750 H   0  0  0  0  0  0  0  0  0  0  0  0
   46.9690   33.1350   44.0760 H   0  0  0  0  0  0  0  0  0  0  0  0
   43.7820   36.7050   45.1180 H   0  0  0  0  0  0  0  0  0  0  0  0
   48.0580   34.3780   42.2810 O   0  0  0  0  0  0  0  0  0  0  0  0
   47.6070   31.9950   41.2930 O   0  0  0  0  0  0  0  0  0  0  0  0
   48.3270   33.2950   41.0080 P   0  0  2  0  0  0  0  0  0  0  0  0
   49.9850   33.1040   40.8420 O   0  0  0  0  0  0  0  0  0  0  0  0
   50.3070   32.5070   41.5580 H   0  0  0  0  0  0  0  0  0  0  0  0
   47.6570   33.9590   39.6130 O   0  0  0  0  0  0  0  0  0  0  0  0
   48.2430   33.5200   38.4530 C   0  0  0  0  0  3  0  0  0  0  0  0
   48.4900   34.5830   37.4110 C   0  0  0  0  0  2  0  0  0  0  0  0
   47.3330   33.6670   37.2340 C   0  0  0  0  0  2  0  0  0  0  0  0
  1 13  1  0  0  0  0
  1  6  1  0  0  0  0
  2  1  1  0  0  0  0
  3  1  1  0  0  0  0
  4  9  1  0  0  0  0
  4 10  1  0  0  0  0
  5  4  2  0  0  0  0
  6  7  2  0  0  0  0
  6  5  1  0  0  0  0
  7  8  1  0  0  0  0
  8 12  1  0  0  0  0
  8  9  2  0  0  0  0
 11  5  1  0  0  0  0
 15 14  2  1  0  0  0
 15 13  1  0  0  0  0
 16 15  1  0  0  0  0
 16 17  1  0  0  0  0
 18 15  1  0  0  0  0
 19 18  1  0  0  0  0
 20 19  1  0  0  0  0
 21 20  1  0  0  0  0
 21 19  1  0  0  0  0
M  END
>  <minimizedAffinity>
-4.10074615

>  <minimizedRMSD>
2.43866801

$$$$
