
 OpenBabel03252500223D

 30 32  0  0  1  0  0  0  0  0999 V2000
   36.4920   28.7670   39.7760 C   0  0  1  0  0  0  0  0  0  0  0  0
   36.0790   28.3820   38.3420 C   0  0  0  0  0  0  0  0  0  0  0  0
   36.1040   26.9790   37.9590 C   0  0  0  0  0  0  0  0  0  0  0  0
   36.5520   26.0290   39.0580 C   0  0  0  0  0  0  0  0  0  0  0  0
   37.8290   26.6710   39.5780 C   0  0  0  0  0  0  0  0  0  0  0  0
   37.2930   27.7900   40.5020 C   0  0  2  0  0  0  0  0  0  0  0  0
   35.4640   28.9040   40.2120 H   0  0  0  0  0  0  0  0  0  0  0  0
   35.7840   29.1420   37.6610 H   0  0  0  0  0  0  0  0  0  0  0  0
   35.7980   26.8040   36.9320 H   0  0  0  0  0  0  0  0  0  0  0  0
   36.7220   25.0960   38.5400 H   0  0  0  0  0  0  0  0  0  0  0  0
   35.7300   26.0640   39.7850 H   0  0  0  0  0  0  0  0  0  0  0  0
   38.4340   27.1180   38.7900 H   0  0  0  0  0  0  0  0  0  0  0  0
   38.3810   25.9860   40.2600 H   0  0  0  0  0  0  0  0  0  0  0  0
   38.2220   28.2530   40.8810 H   0  0  0  0  0  0  0  0  0  0  0  0
   38.1100   30.3670   38.7050 C   0  0  0  0  0  0  0  0  0  0  0  0
   37.0780   30.1250   39.6390 C   0  0  0  0  0  0  0  0  0  0  0  0
   36.7210   31.1950   40.4700 C   0  0  0  0  0  0  0  0  0  0  0  0
   37.3520   32.3890   40.3630 N   0  0  0  0  0  0  0  0  0  0  0  0
   38.3390   32.5560   39.4430 C   0  0  0  0  0  0  0  0  0  0  0  0
   38.7080   31.5450   38.6240 N   0  0  0  0  0  0  0  0  0  0  0  0
   38.9990   33.7970   39.3180 N   0  0  0  0  0  0  0  0  0  0  0  0
   38.4650   29.6210   38.0090 H   0  0  0  0  0  0  0  0  0  0  0  0
   39.9900   33.8160   38.9780 H   0  0  0  0  0  0  0  0  0  0  0  0
   38.4530   34.6690   39.5770 H   0  0  0  0  0  0  0  0  0  0  0  0
   35.6490   30.9670   41.3810 N   0  0  0  0  0  0  0  0  0  0  0  0
   35.6700   30.6910   42.3870 H   0  0  0  0  0  0  0  0  0  0  0  0
   34.6490   31.0790   41.0490 H   0  0  0  0  0  0  0  0  0  0  0  0
   36.6130   27.1710   41.7000 C   0  0  0  0  0  3  0  0  0  0  0  0
   37.2330   26.2470   42.6290 C   0  0  0  0  0  2  0  0  0  0  0  0
   37.1300   27.6840   43.0450 C   0  0  0  0  0  2  0  0  0  0  0  0
  1  7  1  1  0  0  0
  1  6  1  0  0  0  0
  2  1  1  0  0  0  0
  3  2  2  0  0  0  0
  3  4  1  0  0  0  0
  4  5  1  0  0  0  0
  4 11  1  0  0  0  0
  5 13  1  0  0  0  0
  5  6  1  0  0  0  0
  6 14  1  1  0  0  0
  6 28  1  0  0  0  0
  8  2  1  0  0  0  0
  9  3  1  0  0  0  0
 10  4  1  0  0  0  0
 12  5  1  0  0  0  0
 15 16  1  0  0  0  0
 16  1  1  0  0  0  0
 16 17  2  0  0  0  0
 17 25  1  0  0  0  0
 18 17  1  0  0  0  0
 19 18  2  0  0  0  0
 20 15  2  0  0  0  0
 20 19  1  0  0  0  0
 21 19  1  0  0  0  0
 21 24  1  0  0  0  0
 22 15  1  0  0  0  0
 23 21  1  0  0  0  0
 25 26  1  0  0  0  0
 27 25  1  0  0  0  0
 28 29  1  0  0  0  0
 28 30  1  0  0  0  0
 29 30  1  0  0  0  0
M  END
>  <minimizedAffinity>
-5.30350351

$$$$

 OpenBabel03252500223D

 30 32  0  0  1  0  0  0  0  0999 V2000
   38.3150   28.9230   41.8520 C   0  0  1  0  0  0  0  0  0  0  0  0
   37.4870   28.9340   43.1520 C   0  0  0  0  0  0  0  0  0  0  0  0
   36.9870   27.6720   43.6730 C   0  0  0  0  0  0  0  0  0  0  0  0
   37.3530   26.4520   42.8440 C   0  0  0  0  0  0  0  0  0  0  0  0
   36.9740   26.8630   41.4290 C   0  0  0  0  0  0  0  0  0  0  0  0
   38.1690   27.7490   41.0030 C   0  0  2  0  0  0  0  0  0  0  0  0
   39.3400   29.0110   42.3090 H   0  0  0  0  0  0  0  0  0  0  0  0
   37.2970   29.8560   43.6430 H   0  0  0  0  0  0  0  0  0  0  0  0
   36.4150   27.7780   44.5910 H   0  0  0  0  0  0  0  0  0  0  0  0
   36.7260   25.6680   43.2440 H   0  0  0  0  0  0  0  0  0  0  0  0
   38.4380   26.3560   42.9840 H   0  0  0  0  0  0  0  0  0  0  0  0
   36.0600   27.4540   41.3870 H   0  0  0  0  0  0  0  0  0  0  0  0
   37.0060   25.9970   40.7310 H   0  0  0  0  0  0  0  0  0  0  0  0
   37.8950   28.0440   39.9740 H   0  0  0  0  0  0  0  0  0  0  0  0
   39.0650   31.1480   40.9490 C   0  0  0  0  0  0  0  0  0  0  0  0
   38.0210   30.2330   41.2160 C   0  0  0  0  0  0  0  0  0  0  0  0
   36.7200   30.6690   40.9370 C   0  0  0  0  0  0  0  0  0  0  0  0
   36.5010   31.9100   40.4400 N   0  0  0  0  0  0  0  0  0  0  0  0
   37.5500   32.7430   40.2060 C   0  0  0  0  0  0  0  0  0  0  0  0
   38.8200   32.3540   40.4630 N   0  0  0  0  0  0  0  0  0  0  0  0
   37.3360   34.0360   39.6830 N   0  0  0  0  0  0  0  0  0  0  0  0
   40.1080   30.9210   41.1170 H   0  0  0  0  0  0  0  0  0  0  0  0
   38.0150   34.8000   39.9150 H   0  0  0  0  0  0  0  0  0  0  0  0
   36.4830   34.1780   39.0670 H   0  0  0  0  0  0  0  0  0  0  0  0
   35.6700   29.7320   41.1620 N   0  0  0  0  0  0  0  0  0  0  0  0
   35.0430   29.6100   41.9870 H   0  0  0  0  0  0  0  0  0  0  0  0
   35.4370   29.0190   40.4130 H   0  0  0  0  0  0  0  0  0  0  0  0
   39.4080   26.8950   40.8770 C   0  0  0  0  0  3  0  0  0  0  0  0
   39.5600   25.7670   39.9800 C   0  0  0  0  0  2  0  0  0  0  0  0
   40.1580   27.0740   39.5550 C   0  0  0  0  0  2  0  0  0  0  0  0
  1  7  1  1  0  0  0
  1  2  1  0  0  0  0
  2  8  1  0  0  0  0
  2  3  2  0  0  0  0
  3  9  1  0  0  0  0
  4 11  1  0  0  0  0
  4 10  1  0  0  0  0
  4  3  1  0  0  0  0
  5  4  1  0  0  0  0
  6 14  1  6  0  0  0
  6  5  1  0  0  0  0
  6  1  1  0  0  0  0
 12  5  1  0  0  0  0
 13  5  1  0  0  0  0
 15 22  1  0  0  0  0
 15 16  1  0  0  0  0
 16  1  1  0  0  0  0
 17 25  1  0  0  0  0
 17 16  2  0  0  0  0
 18 17  1  0  0  0  0
 19 18  2  0  0  0  0
 19 20  1  0  0  0  0
 20 15  2  0  0  0  0
 21 23  1  0  0  0  0
 21 19  1  0  0  0  0
 24 21  1  0  0  0  0
 25 26  1  0  0  0  0
 27 25  1  0  0  0  0
 28  6  1  0  0  0  0
 29 28  1  0  0  0  0
 30 29  1  0  0  0  0
 30 28  1  0  0  0  0
M  END
>  <minimizedAffinity>
-5.217731

$$$$

 OpenBabel03252500223D

 30 32  0  0  1  0  0  0  0  0999 V2000
   38.2610   27.8450   40.8600 C   0  0  1  0  0  0  0  0  0  0  0  0
   39.2380   27.9770   42.0450 C   0  0  0  0  0  0  0  0  0  0  0  0
   39.3600   26.8680   42.9780 C   0  0  0  0  0  0  0  0  0  0  0  0
   38.4780   25.6720   42.6610 C   0  0  0  0  0  0  0  0  0  0  0  0
   37.1080   26.2940   42.4370 C   0  0  0  0  0  0  0  0  0  0  0  0
   37.2160   26.8380   40.9930 C   0  0  2  0  0  0  0  0  0  0  0  0
   39.0100   27.5990   40.0560 H   0  0  0  0  0  0  0  0  0  0  0  0
   39.8020   28.8690   42.1600 H   0  0  0  0  0  0  0  0  0  0  0  0
   40.0700   27.0520   43.7790 H   0  0  0  0  0  0  0  0  0  0  0  0
   38.5310   25.0660   43.5540 H   0  0  0  0  0  0  0  0  0  0  0  0
   38.9150   25.2600   41.7420 H   0  0  0  0  0  0  0  0  0  0  0  0
   36.9000   27.1210   43.1150 H   0  0  0  0  0  0  0  0  0  0  0  0
   36.3120   25.5190   42.3840 H   0  0  0  0  0  0  0  0  0  0  0  0
   36.2200   27.2870   40.8300 H   0  0  0  0  0  0  0  0  0  0  0  0
   38.1130   29.8720   39.3790 C   0  0  0  0  0  0  0  0  0  0  0  0
   37.8040   29.2350   40.6020 C   0  0  0  0  0  0  0  0  0  0  0  0
   37.1400   30.0090   41.5620 C   0  0  0  0  0  0  0  0  0  0  0  0
   36.8250   31.3010   41.3070 N   0  0  0  0  0  0  0  0  0  0  0  0
   37.1520   31.8560   40.1080 C   0  0  0  0  0  0  0  0  0  0  0  0
   37.7910   31.1370   39.1580 N   0  0  0  0  0  0  0  0  0  0  0  0
   36.8240   33.1990   39.8280 N   0  0  0  0  0  0  0  0  0  0  0  0
   38.6160   29.3750   38.5620 H   0  0  0  0  0  0  0  0  0  0  0  0
   37.4240   33.7440   39.1630 H   0  0  0  0  0  0  0  0  0  0  0  0
   35.9700   33.6050   40.3110 H   0  0  0  0  0  0  0  0  0  0  0  0
   36.7870   29.3540   42.7780 N   0  0  0  0  0  0  0  0  0  0  0  0
   37.2820   29.3280   43.6950 H   0  0  0  0  0  0  0  0  0  0  0  0
   35.8920   28.7890   42.8250 H   0  0  0  0  0  0  0  0  0  0  0  0
   37.3180   25.6830   40.0260 C   0  0  0  0  0  3  0  0  0  0  0  0
   36.3510   24.6110   39.8980 C   0  0  0  0  0  2  0  0  0  0  0  0
   36.2890   25.7230   38.8950 C   0  0  0  0  0  2  0  0  0  0  0  0
  1  7  1  6  0  0  0
  1  6  1  0  0  0  0
  1  2  1  0  0  0  0
  2  8  1  0  0  0  0
  2  3  2  0  0  0  0
  3  9  1  0  0  0  0
  4  3  1  0  0  0  0
  4 10  1  0  0  0  0
  5  4  1  0  0  0  0
  5 12  1  0  0  0  0
  6 14  1  6  0  0  0
  6  5  1  0  0  0  0
 11  4  1  0  0  0  0
 13  5  1  0  0  0  0
 15 16  1  0  0  0  0
 16  1  1  0  0  0  0
 16 17  2  0  0  0  0
 17 25  1  0  0  0  0
 18 17  1  0  0  0  0
 19 18  2  0  0  0  0
 20 15  2  0  0  0  0
 20 19  1  0  0  0  0
 21 19  1  0  0  0  0
 21 24  1  0  0  0  0
 22 15  1  0  0  0  0
 23 21  1  0  0  0  0
 25 27  1  0  0  0  0
 25 26  1  0  0  0  0
 28  6  1  0  0  0  0
 29 28  1  0  0  0  0
 30 29  1  0  0  0  0
 30 28  1  0  0  0  0
M  END
>  <minimizedAffinity>
-5.16648531

$$$$

 OpenBabel03252500223D

 30 32  0  0  1  0  0  0  0  0999 V2000
   38.6420   31.8100   39.7550 C   0  0  1  0  0  0  0  0  0  0  0  0
   37.4240   31.8140   38.8120 C   0  0  0  0  0  0  0  0  0  0  0  0
   36.4690   30.7190   38.8980 C   0  0  0  0  0  0  0  0  0  0  0  0
   36.8010   29.6680   39.9440 C   0  0  0  0  0  0  0  0  0  0  0  0
   38.2630   29.3470   39.6670 C   0  0  0  0  0  0  0  0  0  0  0  0
   39.0020   30.5260   40.3430 C   0  0  2  0  0  0  0  0  0  0  0  0
   38.2660   32.5510   40.5140 H   0  0  0  0  0  0  0  0  0  0  0  0
   37.3010   32.6090   38.1200 H   0  0  0  0  0  0  0  0  0  0  0  0
   35.6450   30.8070   38.1960 H   0  0  0  0  0  0  0  0  0  0  0  0
   36.1330   28.8510   39.7120 H   0  0  0  0  0  0  0  0  0  0  0  0
   36.6530   30.1910   40.8980 H   0  0  0  0  0  0  0  0  0  0  0  0
   38.5030   29.3370   38.6050 H   0  0  0  0  0  0  0  0  0  0  0  0
   38.5960   28.4480   40.2320 H   0  0  0  0  0  0  0  0  0  0  0  0
   40.0620   30.2900   40.1440 H   0  0  0  0  0  0  0  0  0  0  0  0
   40.1340   31.9860   37.7380 C   0  0  0  0  0  0  0  0  0  0  0  0
   39.7090   32.5000   38.9840 C   0  0  0  0  0  0  0  0  0  0  0  0
   40.4030   33.6130   39.4730 C   0  0  0  0  0  0  0  0  0  0  0  0
   41.4280   34.1500   38.7690 N   0  0  0  0  0  0  0  0  0  0  0  0
   41.7900   33.6070   37.5750 C   0  0  0  0  0  0  0  0  0  0  0  0
   41.1400   32.5320   37.0730 N   0  0  0  0  0  0  0  0  0  0  0  0
   42.8520   34.1600   36.8290 N   0  0  0  0  0  0  0  0  0  0  0  0
   39.6710   31.1360   37.2590 H   0  0  0  0  0  0  0  0  0  0  0  0
   43.4090   33.5370   36.1960 H   0  0  0  0  0  0  0  0  0  0  0  0
   43.0410   35.1970   36.9440 H   0  0  0  0  0  0  0  0  0  0  0  0
   39.9450   34.1610   40.7070 N   0  0  0  0  0  0  0  0  0  0  0  0
   40.2840   34.0000   41.6800 H   0  0  0  0  0  0  0  0  0  0  0  0
   39.1370   34.8460   40.7060 H   0  0  0  0  0  0  0  0  0  0  0  0
   38.8260   30.4390   41.8400 C   0  0  0  0  0  3  0  0  0  0  0  0
   39.3490   29.3820   42.6830 C   0  0  0  0  0  2  0  0  0  0  0  0
   40.1130   30.6710   42.6340 C   0  0  0  0  0  2  0  0  0  0  0  0
  1  6  1  0  0  0  0
  1  7  1  1  0  0  0
  2  3  2  0  0  0  0
  2  1  1  0  0  0  0
  3  4  1  0  0  0  0
  4 11  1  0  0  0  0
  5  4  1  0  0  0  0
  5 13  1  0  0  0  0
  5  6  1  0  0  0  0
  6 14  1  6  0  0  0
  6 28  1  0  0  0  0
  8  2  1  0  0  0  0
  9  3  1  0  0  0  0
 10  4  1  0  0  0  0
 12  5  1  0  0  0  0
 15 16  1  0  0  0  0
 16 17  2  0  0  0  0
 16  1  1  0  0  0  0
 17 25  1  0  0  0  0
 18 17  1  0  0  0  0
 19 18  2  0  0  0  0
 20 19  1  0  0  0  0
 20 15  2  0  0  0  0
 21 24  1  0  0  0  0
 21 19  1  0  0  0  0
 22 15  1  0  0  0  0
 23 21  1  0  0  0  0
 25 26  1  0  0  0  0
 27 25  1  0  0  0  0
 28 30  1  0  0  0  0
 28 29  1  0  0  0  0
 30 29  1  0  0  0  0
M  END
>  <minimizedAffinity>
-5.15740728

$$$$

 OpenBabel03252500223D

 30 32  0  0  1  0  0  0  0  0999 V2000
   36.7320   28.0510   40.2010 C   0  0  1  0  0  0  0  0  0  0  0  0
   36.2050   26.8990   39.3240 C   0  0  0  0  0  0  0  0  0  0  0  0
   36.4680   25.5290   39.7360 C   0  0  0  0  0  0  0  0  0  0  0  0
   37.2590   25.3950   41.0260 C   0  0  0  0  0  0  0  0  0  0  0  0
   38.4350   26.3360   40.8160 C   0  0  0  0  0  0  0  0  0  0  0  0
   37.8170   27.7220   41.1160 C   0  0  2  0  0  0  0  0  0  0  0  0
   35.7730   28.3080   40.7300 H   0  0  0  0  0  0  0  0  0  0  0  0
   35.6620   27.1230   38.4390 H   0  0  0  0  0  0  0  0  0  0  0  0
   36.0590   24.7870   39.0570 H   0  0  0  0  0  0  0  0  0  0  0  0
   37.5440   24.3530   41.0480 H   0  0  0  0  0  0  0  0  0  0  0  0
   36.5630   25.7480   41.7980 H   0  0  0  0  0  0  0  0  0  0  0  0
   38.8120   26.3270   39.7940 H   0  0  0  0  0  0  0  0  0  0  0  0
   39.2110   26.2010   41.6030 H   0  0  0  0  0  0  0  0  0  0  0  0
   38.6730   28.4050   40.9670 H   0  0  0  0  0  0  0  0  0  0  0  0
   37.7690   28.9250   38.0820 C   0  0  0  0  0  0  0  0  0  0  0  0
   36.9960   29.1550   39.2420 C   0  0  0  0  0  0  0  0  0  0  0  0
   36.5860   30.4750   39.4700 C   0  0  0  0  0  0  0  0  0  0  0  0
   36.9300   31.4620   38.6080 N   0  0  0  0  0  0  0  0  0  0  0  0
   37.6780   31.1730   37.5090 C   0  0  0  0  0  0  0  0  0  0  0  0
   38.0890   29.9090   37.2580 N   0  0  0  0  0  0  0  0  0  0  0  0
   38.0380   32.1910   36.6000 N   0  0  0  0  0  0  0  0  0  0  0  0
   38.1350   27.9490   37.7990 H   0  0  0  0  0  0  0  0  0  0  0  0
   38.9260   32.0940   36.0510 H   0  0  0  0  0  0  0  0  0  0  0  0
   37.3830   33.0200   36.5110 H   0  0  0  0  0  0  0  0  0  0  0  0
   35.7670   30.7020   40.6150 N   0  0  0  0  0  0  0  0  0  0  0  0
   36.0270   31.0200   41.5740 H   0  0  0  0  0  0  0  0  0  0  0  0
   34.7220   30.5420   40.5490 H   0  0  0  0  0  0  0  0  0  0  0  0
   37.4630   27.8090   42.5820 C   0  0  0  0  0  3  0  0  0  0  0  0
   38.4030   27.6860   43.6780 C   0  0  0  0  0  2  0  0  0  0  0  0
   37.9850   29.0680   43.2770 C   0  0  0  0  0  2  0  0  0  0  0  0
  1  7  1  1  0  0  0
  1  6  1  0  0  0  0
  2  3  2  0  0  0  0
  2  1  1  0  0  0  0
  3  4  1  0  0  0  0
  4 10  1  0  0  0  0
  4 11  1  0  0  0  0
  5  4  1  0  0  0  0
  5  6  1  0  0  0  0
  5 13  1  0  0  0  0
  6 14  1  6  0  0  0
  6 28  1  0  0  0  0
  8  2  1  0  0  0  0
  9  3  1  0  0  0  0
 12  5  1  0  0  0  0
 15 16  1  0  0  0  0
 16 17  2  0  0  0  0
 16  1  1  0  0  0  0
 17 25  1  0  0  0  0
 18 17  1  0  0  0  0
 19 18  2  0  0  0  0
 20 19  1  0  0  0  0
 20 15  2  0  0  0  0
 21 19  1  0  0  0  0
 22 15  1  0  0  0  0
 23 21  1  0  0  0  0
 24 21  1  0  0  0  0
 25 26  1  0  0  0  0
 27 25  1  0  0  0  0
 28 30  1  0  0  0  0
 28 29  1  0  0  0  0
 30 29  1  0  0  0  0
M  END
>  <minimizedAffinity>
-5.12756443

$$$$

 OpenBabel03252500223D

 30 32  0  0  1  0  0  0  0  0999 V2000
   37.2870   29.7530   40.4840 C   0  0  1  0  0  0  0  0  0  0  0  0
   36.8780   29.7210   38.9990 C   0  0  0  0  0  0  0  0  0  0  0  0
   36.3970   28.4720   38.4320 C   0  0  0  0  0  0  0  0  0  0  0  0
   36.3540   27.3070   39.4070 C   0  0  0  0  0  0  0  0  0  0  0  0
   37.7320   27.3370   40.0510 C   0  0  0  0  0  0  0  0  0  0  0  0
   37.5910   28.4670   41.0980 C   0  0  2  0  0  0  0  0  0  0  0  0
   36.3570   30.2310   40.9010 H   0  0  0  0  0  0  0  0  0  0  0  0
   36.9550   30.6070   38.4170 H   0  0  0  0  0  0  0  0  0  0  0  0
   36.1330   28.5460   37.3810 H   0  0  0  0  0  0  0  0  0  0  0  0
   36.1960   26.4450   38.7750 H   0  0  0  0  0  0  0  0  0  0  0  0
   35.5510   27.5790   40.1050 H   0  0  0  0  0  0  0  0  0  0  0  0
   38.5240   27.5980   39.3500 H   0  0  0  0  0  0  0  0  0  0  0  0
   37.9200   26.4200   40.6530 H   0  0  0  0  0  0  0  0  0  0  0  0
   38.5900   28.4860   41.5680 H   0  0  0  0  0  0  0  0  0  0  0  0
   39.7130   30.3940   40.6540 C   0  0  0  0  0  0  0  0  0  0  0  0
   38.3580   30.7810   40.5510 C   0  0  0  0  0  0  0  0  0  0  0  0
   38.0920   32.1540   40.6120 C   0  0  0  0  0  0  0  0  0  0  0  0
   39.1010   33.0450   40.7630 N   0  0  0  0  0  0  0  0  0  0  0  0
   40.3860   32.6070   40.8570 C   0  0  0  0  0  0  0  0  0  0  0  0
   40.6780   31.2880   40.8010 N   0  0  0  0  0  0  0  0  0  0  0  0
   41.4460   33.5260   41.0090 N   0  0  0  0  0  0  0  0  0  0  0  0
   40.0400   29.3650   40.6130 H   0  0  0  0  0  0  0  0  0  0  0  0
   42.3140   33.2240   41.5120 H   0  0  0  0  0  0  0  0  0  0  0  0
   41.3140   34.4960   40.6000 H   0  0  0  0  0  0  0  0  0  0  0  0
   36.7300   32.5490   40.4620 N   0  0  0  0  0  0  0  0  0  0  0  0
   36.0100   32.7660   41.1850 H   0  0  0  0  0  0  0  0  0  0  0  0
   36.3230   32.6590   39.4900 H   0  0  0  0  0  0  0  0  0  0  0  0
   36.6290   28.0340   42.1790 C   0  0  0  0  0  3  0  0  0  0  0  0
   36.7510   26.8280   42.9740 C   0  0  0  0  0  2  0  0  0  0  0  0
   37.2020   28.1160   43.5950 C   0  0  0  0  0  2  0  0  0  0  0  0
  1 16  1  0  0  0  0
  1  7  1  1  0  0  0
  1  6  1  0  0  0  0
  2  1  1  0  0  0  0
  3  2  2  0  0  0  0
  3  4  1  0  0  0  0
  4  5  1  0  0  0  0
  4 11  1  0  0  0  0
  5 13  1  0  0  0  0
  5  6  1  0  0  0  0
  6 14  1  1  0  0  0
  6 28  1  0  0  0  0
  8  2  1  0  0  0  0
  9  3  1  0  0  0  0
 10  4  1  0  0  0  0
 12  5  1  0  0  0  0
 15 20  1  0  0  0  0
 16 17  1  0  0  0  0
 16 15  2  0  0  0  0
 17 18  2  0  0  0  0
 18 19  1  0  0  0  0
 19 21  1  0  0  0  0
 20 19  2  0  0  0  0
 21 23  1  0  0  0  0
 22 15  1  0  0  0  0
 24 21  1  0  0  0  0
 25 17  1  0  0  0  0
 25 26  1  0  0  0  0
 27 25  1  0  0  0  0
 28 29  1  0  0  0  0
 28 30  1  0  0  0  0
 29 30  1  0  0  0  0
M  END
>  <minimizedAffinity>
-5.11313391

$$$$

 OpenBabel03252500223D

 30 32  0  0  1  0  0  0  0  0999 V2000
   38.0430   26.8440   42.3330 C   0  0  1  0  0  0  0  0  0  0  0  0
   36.9680   25.8000   41.9720 C   0  0  0  0  0  0  0  0  0  0  0  0
   37.3390   24.3940   41.9480 C   0  0  0  0  0  0  0  0  0  0  0  0
   38.7930   24.1140   42.2920 C   0  0  0  0  0  0  0  0  0  0  0  0
   39.5570   25.0900   41.4090 C   0  0  0  0  0  0  0  0  0  0  0  0
   39.4300   26.4210   42.1880 C   0  0  2  0  0  0  0  0  0  0  0  0
   37.7470   27.0220   43.4040 H   0  0  0  0  0  0  0  0  0  0  0  0
   35.9810   26.1220   41.7490 H   0  0  0  0  0  0  0  0  0  0  0  0
   36.5180   23.7340   41.6830 H   0  0  0  0  0  0  0  0  0  0  0  0
   38.9330   23.0820   42.0080 H   0  0  0  0  0  0  0  0  0  0  0  0
   38.8610   24.3620   43.3600 H   0  0  0  0  0  0  0  0  0  0  0  0
   39.1120   25.2110   40.4220 H   0  0  0  0  0  0  0  0  0  0  0  0
   40.6480   24.8700   41.4080 H   0  0  0  0  0  0  0  0  0  0  0  0
   39.9870   27.1280   41.5480 H   0  0  0  0  0  0  0  0  0  0  0  0
   37.6750   28.0640   40.1650 C   0  0  0  0  0  0  0  0  0  0  0  0
   37.6460   28.0600   41.5770 C   0  0  0  0  0  0  0  0  0  0  0  0
   37.3190   29.2710   42.2010 C   0  0  0  0  0  0  0  0  0  0  0  0
   37.0520   30.3750   41.4630 N   0  0  0  0  0  0  0  0  0  0  0  0
   37.0980   30.3130   40.1050 C   0  0  0  0  0  0  0  0  0  0  0  0
   37.4090   29.1590   39.4710 N   0  0  0  0  0  0  0  0  0  0  0  0
   36.8160   31.4540   39.3260 N   0  0  0  0  0  0  0  0  0  0  0  0
   37.9070   27.1890   39.5750 H   0  0  0  0  0  0  0  0  0  0  0  0
   37.2640   31.5520   38.3830 H   0  0  0  0  0  0  0  0  0  0  0  0
   36.1520   32.1740   39.7350 H   0  0  0  0  0  0  0  0  0  0  0  0
   37.2440   29.2570   43.6240 N   0  0  0  0  0  0  0  0  0  0  0  0
   37.9580   29.5220   44.3370 H   0  0  0  0  0  0  0  0  0  0  0  0
   36.3500   28.9390   44.0960 H   0  0  0  0  0  0  0  0  0  0  0  0
   40.2050   26.3240   43.4800 C   0  0  0  0  0  3  0  0  0  0  0  0
   41.6130   25.9980   43.5880 C   0  0  0  0  0  2  0  0  0  0  0  0
   41.2290   27.4440   43.6800 C   0  0  0  0  0  2  0  0  0  0  0  0
  1  7  1  1  0  0  0
  2  1  1  0  0  0  0
  3  2  2  0  0  0  0
  3  4  1  0  0  0  0
  4 11  1  0  0  0  0
  5  6  1  0  0  0  0
  5  4  1  0  0  0  0
  6 14  1  6  0  0  0
  6  1  1  0  0  0  0
  6 28  1  0  0  0  0
  8  2  1  0  0  0  0
  9  3  1  0  0  0  0
 10  4  1  0  0  0  0
 12  5  1  0  0  0  0
 13  5  1  0  0  0  0
 15 16  1  0  0  0  0
 16 17  2  0  0  0  0
 16  1  1  0  0  0  0
 17 25  1  0  0  0  0
 18 17  1  0  0  0  0
 19 18  2  0  0  0  0
 20 19  1  0  0  0  0
 20 15  2  0  0  0  0
 21 24  1  0  0  0  0
 21 19  1  0  0  0  0
 22 15  1  0  0  0  0
 23 21  1  0  0  0  0
 25 27  1  0  0  0  0
 25 26  1  0  0  0  0
 28 29  1  0  0  0  0
 28 30  1  0  0  0  0
 29 30  1  0  0  0  0
M  END
>  <minimizedAffinity>
-5.09755468

$$$$

 OpenBabel03252500223D

 30 32  0  0  1  0  0  0  0  0999 V2000
   37.5510   28.7150   42.0770 C   0  0  1  0  0  0  0  0  0  0  0  0
   37.4450   27.3500   42.7840 C   0  0  0  0  0  0  0  0  0  0  0  0
   38.6140   26.8240   43.4700 C   0  0  0  0  0  0  0  0  0  0  0  0
   39.8430   27.7160   43.4040 C   0  0  0  0  0  0  0  0  0  0  0  0
   39.9520   28.0560   41.9250 C   0  0  0  0  0  0  0  0  0  0  0  0
   38.8960   29.1750   41.7580 C   0  0  2  0  0  0  0  0  0  0  0  0
   37.0450   29.3460   42.8600 H   0  0  0  0  0  0  0  0  0  0  0  0
   36.5260   26.8190   42.7580 H   0  0  0  0  0  0  0  0  0  0  0  0
   38.4450   25.8580   43.9360 H   0  0  0  0  0  0  0  0  0  0  0  0
   40.6440   27.0810   43.7560 H   0  0  0  0  0  0  0  0  0  0  0  0
   39.5720   28.5820   44.0220 H   0  0  0  0  0  0  0  0  0  0  0  0
   39.6920   27.2210   41.2750 H   0  0  0  0  0  0  0  0  0  0  0  0
   40.9210   28.5500   41.6910 H   0  0  0  0  0  0  0  0  0  0  0  0
   38.9780   29.4240   40.6840 H   0  0  0  0  0  0  0  0  0  0  0  0
   36.5960   27.4690   40.1130 C   0  0  0  0  0  0  0  0  0  0  0  0
   36.6040   28.6170   40.9370 C   0  0  0  0  0  0  0  0  0  0  0  0
   35.7520   29.6640   40.5620 C   0  0  0  0  0  0  0  0  0  0  0  0
   34.9730   29.5560   39.4590 N   0  0  0  0  0  0  0  0  0  0  0  0
   35.0130   28.4230   38.7070 C   0  0  0  0  0  0  0  0  0  0  0  0
   35.8230   27.3920   39.0420 N   0  0  0  0  0  0  0  0  0  0  0  0
   34.2010   28.2960   37.5600 N   0  0  0  0  0  0  0  0  0  0  0  0
   37.2040   26.5970   40.3060 H   0  0  0  0  0  0  0  0  0  0  0  0
   34.5260   27.6890   36.7690 H   0  0  0  0  0  0  0  0  0  0  0  0
   33.2840   28.8290   37.5490 H   0  0  0  0  0  0  0  0  0  0  0  0
   35.7250   30.8030   41.4180 N   0  0  0  0  0  0  0  0  0  0  0  0
   36.2410   31.7070   41.3490 H   0  0  0  0  0  0  0  0  0  0  0  0
   35.1030   30.7970   42.2750 H   0  0  0  0  0  0  0  0  0  0  0  0
   39.3450   30.4060   42.5080 C   0  0  0  0  0  3  0  0  0  0  0  0
   40.6310   31.0570   42.3570 C   0  0  0  0  0  2  0  0  0  0  0  0
   39.4610   31.6600   41.6390 C   0  0  0  0  0  2  0  0  0  0  0  0
  1  2  1  0  0  0  0
  1  7  1  1  0  0  0
  2  3  2  0  0  0  0
  3  9  1  0  0  0  0
  4  3  1  0  0  0  0
  4 10  1  0  0  0  0
  4 11  1  0  0  0  0
  5  4  1  0  0  0  0
  6 14  1  6  0  0  0
  6  5  1  0  0  0  0
  6  1  1  0  0  0  0
  6 28  1  0  0  0  0
  8  2  1  0  0  0  0
 12  5  1  0  0  0  0
 13  5  1  0  0  0  0
 15 22  1  0  0  0  0
 15 16  1  0  0  0  0
 16  1  1  0  0  0  0
 17 16  2  0  0  0  0
 17 25  1  0  0  0  0
 18 17  1  0  0  0  0
 19 20  1  0  0  0  0
 19 18  2  0  0  0  0
 20 15  2  0  0  0  0
 21 19  1  0  0  0  0
 23 21  1  0  0  0  0
 24 21  1  0  0  0  0
 25 27  1  0  0  0  0
 26 25  1  0  0  0  0
 29 28  1  0  0  0  0
 30 29  1  0  0  0  0
 30 28  1  0  0  0  0
M  END
>  <minimizedAffinity>
-5.08782864

$$$$

 OpenBabel03252500223D

 30 32  0  0  1  0  0  0  0  0999 V2000
   38.9720   29.4290   42.4290 C   0  0  1  0  0  0  0  0  0  0  0  0
   37.8110   29.0300   43.3600 C   0  0  0  0  0  0  0  0  0  0  0  0
   37.6210   27.6230   43.6790 C   0  0  0  0  0  0  0  0  0  0  0  0
   38.6260   26.6840   43.0320 C   0  0  0  0  0  0  0  0  0  0  0  0
   38.6180   27.1140   41.5720 C   0  0  0  0  0  0  0  0  0  0  0  0
   39.5170   28.3730   41.5860 C   0  0  2  0  0  0  0  0  0  0  0  0
   39.6980   29.7830   43.2140 H   0  0  0  0  0  0  0  0  0  0  0  0
   37.1720   29.7820   43.7510 H   0  0  0  0  0  0  0  0  0  0  0  0
   36.7790   27.4380   44.3390 H   0  0  0  0  0  0  0  0  0  0  0  0
   38.2040   25.7030   43.1910 H   0  0  0  0  0  0  0  0  0  0  0  0
   39.5700   26.9200   43.5410 H   0  0  0  0  0  0  0  0  0  0  0  0
   37.6270   27.3870   41.2130 H   0  0  0  0  0  0  0  0  0  0  0  0
   39.1660   26.3870   40.9310 H   0  0  0  0  0  0  0  0  0  0  0  0
   39.5130   28.6820   40.5250 H   0  0  0  0  0  0  0  0  0  0  0  0
   37.2200   30.6410   41.0930 C   0  0  0  0  0  0  0  0  0  0  0  0
   38.4830   30.6430   41.7270 C   0  0  0  0  0  0  0  0  0  0  0  0
   39.2590   31.7990   41.5740 C   0  0  0  0  0  0  0  0  0  0  0  0
   38.8000   32.8450   40.8460 N   0  0  0  0  0  0  0  0  0  0  0  0
   37.5740   32.7790   40.2590 C   0  0  0  0  0  0  0  0  0  0  0  0
   36.7980   31.6790   40.3890 N   0  0  0  0  0  0  0  0  0  0  0  0
   37.0820   33.8650   39.5050 N   0  0  0  0  0  0  0  0  0  0  0  0
   36.5320   29.8100   41.1470 H   0  0  0  0  0  0  0  0  0  0  0  0
   36.4100   33.6790   38.7210 H   0  0  0  0  0  0  0  0  0  0  0  0
   37.4190   34.8350   39.7680 H   0  0  0  0  0  0  0  0  0  0  0  0
   40.5130   31.8210   42.2510 N   0  0  0  0  0  0  0  0  0  0  0  0
   41.4690   31.5930   41.9020 H   0  0  0  0  0  0  0  0  0  0  0  0
   40.5500   32.1060   43.2710 H   0  0  0  0  0  0  0  0  0  0  0  0
   40.9380   27.9740   41.9010 C   0  0  0  0  0  3  0  0  0  0  0  0
   41.7260   27.0170   41.1490 C   0  0  0  0  0  2  0  0  0  0  0  0
   41.9670   28.4730   40.8850 C   0  0  0  0  0  2  0  0  0  0  0  0
  1  7  1  1  0  0  0
  1  2  1  0  0  0  0
  2  3  2  0  0  0  0
  2  8  1  0  0  0  0
  3  9  1  0  0  0  0
  4 10  1  0  0  0  0
  4 11  1  0  0  0  0
  4  3  1  0  0  0  0
  5  6  1  0  0  0  0
  5  4  1  0  0  0  0
  6 14  1  6  0  0  0
  6 28  1  0  0  0  0
  6  1  1  0  0  0  0
 12  5  1  0  0  0  0
 13  5  1  0  0  0  0
 15 22  1  0  0  0  0
 15 16  1  0  0  0  0
 16  1  1  0  0  0  0
 17 16  2  0  0  0  0
 17 25  1  0  0  0  0
 18 17  1  0  0  0  0
 19 20  1  0  0  0  0
 19 18  2  0  0  0  0
 20 15  2  0  0  0  0
 21 24  1  0  0  0  0
 21 19  1  0  0  0  0
 23 21  1  0  0  0  0
 25 27  1  0  0  0  0
 26 25  1  0  0  0  0
 29 28  1  0  0  0  0
 30 29  1  0  0  0  0
 30 28  1  0  0  0  0
M  END
>  <minimizedAffinity>
-5.04874897

$$$$
