
 OpenBabel03252503593D

 28 31  0  0  0  0  0  0  0  0999 V2000
   46.0500   31.7020   45.1520 C   0  0  0  0  0  0  0  0  0  0  0  0
   45.8000   33.0160   45.5480 C   0  0  0  0  0  0  0  0  0  0  0  0
   45.5190   33.2780   46.8640 C   0  0  0  0  0  0  0  0  0  0  0  0
   45.4870   32.2480   47.7770 C   0  0  0  0  0  0  0  0  0  0  0  0
   45.2480   32.1980   49.0950 N   0  0  0  0  0  0  0  0  0  0  0  0
   45.3310   30.9370   49.5520 C   0  0  0  0  0  0  0  0  0  0  0  0
   45.6410   30.1130   48.4840 C   0  0  0  0  0  0  0  0  0  0  0  0
   45.7350   30.9410   47.3820 C   0  0  0  0  0  0  0  0  0  0  0  0
   46.0180   30.6680   46.0630 C   0  0  0  0  0  0  0  0  0  0  0  0
   46.2800   31.3910   44.1390 H   0  0  0  0  0  0  0  0  0  0  0  0
   45.3260   34.3090   47.1600 H   0  0  0  0  0  0  0  0  0  0  0  0
   45.0290   33.0470   49.6580 H   0  0  0  0  0  0  0  0  0  0  0  0
   45.1680   30.6990   50.5990 H   0  0  0  0  0  0  0  0  0  0  0  0
   45.7630   29.0610   48.5850 H   0  0  0  0  0  0  0  0  0  0  0  0
   46.2050   29.6530   45.7930 H   0  0  0  0  0  0  0  0  0  0  0  0
   46.9240   34.9530   42.6680 C   0  0  0  0  0  0  0  0  0  0  0  0
   45.9890   35.9770   42.5690 C   0  0  0  0  0  0  0  0  0  0  0  0
   44.9530   36.0050   43.5070 C   0  0  0  0  0  0  0  0  0  0  0  0
   44.9120   35.0370   44.4620 N   0  0  0  0  0  0  0  0  0  0  0  0
   45.8530   34.0520   44.5180 C   0  0  0  0  0  0  0  0  0  0  0  0
   46.8590   34.0150   43.6160 N   0  0  0  0  0  0  0  0  0  0  0  0
   46.0060   36.7430   41.8290 H   0  0  0  0  0  0  0  0  0  0  0  0
   44.1720   36.7620   43.5170 H   0  0  0  0  0  0  0  0  0  0  0  0
   47.9530   35.0010   41.6640 C   0  0  0  0  0  0  0  0  0  0  0  0
   48.8640   35.9010   41.5730 O   0  0  0  0  0  0  0  0  0  0  0  0
   48.0930   33.9850   40.5740 C   0  0  0  0  0  0  0  0  0  0  0  0
   48.1450   34.3810   39.1540 C   0  0  0  0  0  0  0  0  0  0  0  0
   46.9120   33.6340   39.7470 C   0  0  0  0  0  0  0  0  0  0  0  0
  1  2  2  0  0  0  0
  1  9  1  0  0  0  0
  2  3  1  0  0  0  0
  3 11  1  0  0  0  0
  3  4  2  0  0  0  0
  4  5  1  0  0  0  0
  5  6  1  0  0  0  0
  5 12  1  0  0  0  0
  6 13  1  0  0  0  0
  7 14  1  0  0  0  0
  7  6  2  0  0  0  0
  8  4  1  0  0  0  0
  8  7  1  0  0  0  0
  9  8  2  0  0  0  0
 10  1  1  0  0  0  0
 15  9  1  0  0  0  0
 16 21  1  0  0  0  0
 17 16  2  0  0  0  0
 17 18  1  0  0  0  0
 18 23  1  0  0  0  0
 18 19  2  0  0  0  0
 19 20  1  0  0  0  0
 20  2  1  0  0  0  0
 21 20  2  0  0  0  0
 22 17  1  0  0  0  0
 24 16  1  0  0  0  0
 25 24  2  0  0  0  0
 26 24  1  0  0  0  0
 27 28  1  0  0  0  0
 27 26  1  0  0  0  0
 28 26  1  0  0  0  0
M  END
>  <minimizedAffinity>
-5.83981419

>  <minimizedRMSD>
0.273982346

$$$$
