
 OpenBabel03252503313D

 35 37  0  0  1  0  0  0  0  0999 V2000
   45.4530   34.4870   42.2900 C   0  0  0  0  0  0  0  0  0  0  0  0
   46.5400   35.2280   41.7350 C   0  0  0  0  0  0  0  0  0  0  0  0
   47.8240   34.8670   42.1830 C   0  0  0  0  0  0  0  0  0  0  0  0
   47.9250   33.8740   43.0790 N   0  0  0  0  0  0  0  0  0  0  0  0
   46.8600   33.2020   43.5760 C   0  0  0  0  0  0  0  0  0  0  0  0
   45.6180   33.5230   43.1670 N   0  0  0  0  0  0  0  0  0  0  0  0
   43.8400   34.3030   40.6040 C   0  0  0  0  0  0  0  0  0  0  0  0
   44.7670   33.7150   39.9500 O   0  0  0  0  0  0  0  0  0  0  0  0
   44.1130   34.7870   41.8860 N   0  0  0  0  0  0  0  0  0  0  0  0
   42.5770   34.4200   39.9590 N   0  0  0  0  0  0  0  0  0  0  0  0
   42.4670   34.1590   38.5110 C   0  0  0  0  0  0  0  0  0  0  0  0
   41.3540   35.0770   38.1060 C   0  0  0  0  0  0  0  0  0  0  0  0
   40.8490   35.7030   39.3740 C   0  0  0  0  0  0  0  0  0  0  0  0
   41.2730   34.7460   40.4580 C   0  0  1  0  0  0  0  0  0  0  0  0
   46.3630   36.0050   41.0240 H   0  0  0  0  0  0  0  0  0  0  0  0
   47.0510   32.4120   44.3000 H   0  0  0  0  0  0  0  0  0  0  0  0
   43.3960   35.2810   42.4050 H   0  0  0  0  0  0  0  0  0  0  0  0
   42.1920   33.1020   38.4090 H   0  0  0  0  0  0  0  0  0  0  0  0
   43.4040   34.3640   37.9970 H   0  0  0  0  0  0  0  0  0  0  0  0
   40.5320   34.4870   37.6550 H   0  0  0  0  0  0  0  0  0  0  0  0
   41.7400   35.7960   37.3720 H   0  0  0  0  0  0  0  0  0  0  0  0
   41.6210   36.5390   39.5270 H   0  0  0  0  0  0  0  0  0  0  0  0
   39.9520   36.2330   39.3840 H   0  0  0  0  0  0  0  0  0  0  0  0
   41.2080   35.3500   41.3730 H   0  0  0  0  0  0  0  0  0  0  0  0
   39.0230   33.4900   40.5390 C   0  0  0  0  0  0  0  0  0  0  0  0
   38.5730   34.5850   40.1260 O   0  0  0  0  0  0  0  0  0  0  0  0
   40.4720   33.5330   40.5580 N   0  0  0  0  0  0  0  0  0  0  0  0
   41.0090   32.6140   40.6530 H   0  0  0  0  0  0  0  0  0  0  0  0
   38.3510   32.2270   40.9850 C   0  0  0  0  0  0  0  0  0  0  0  0
   39.2850   31.1250   41.3570 C   0  0  0  0  0  0  0  0  0  0  0  0
   38.4560   31.0210   40.1260 C   0  0  0  0  0  0  0  0  0  0  0  0
   48.9150   35.6470   41.5930 C   0  0  0  0  0  0  0  0  0  0  0  0
   50.1220   35.0490   41.9600 F   0  0  0  0  0  0  0  0  0  0  0  0
   48.9190   36.8860   42.2290 F   0  0  0  0  0  0  0  0  0  0  0  0
   48.8720   35.7240   40.2360 F   0  0  0  0  0  0  0  0  0  0  0  0
  1  6  1  0  0  0  0
  2  3  1  0  0  0  0
  2  1  2  0  0  0  0
  3  4  2  0  0  0  0
  4  5  1  0  0  0  0
  5 16  1  0  0  0  0
  6  5  2  0  0  0  0
  7  9  1  0  0  0  0
  8  7  2  0  0  0  0
  9  1  1  0  0  0  0
  9 17  1  0  0  0  0
 10 14  1  0  0  0  0
 10  7  1  0  0  0  0
 11 10  1  0  0  0  0
 12 11  1  0  0  0  0
 12 13  1  0  0  0  0
 13 23  1  0  0  0  0
 13 22  1  0  0  0  0
 13 14  1  0  0  0  0
 14 27  1  0  0  0  0
 14 24  1  1  0  0  0
 15  2  1  0  0  0  0
 18 11  1  0  0  0  0
 19 11  1  0  0  0  0
 20 12  1  0  0  0  0
 21 12  1  0  0  0  0
 25 27  1  0  0  0  0
 25 29  1  0  0  0  0
 26 25  2  0  0  0  0
 27 28  1  0  0  0  0
 29 30  1  0  0  0  0
 31 29  1  0  0  0  0
 31 30  1  0  0  0  0
 32 33  1  0  0  0  0
 32  3  1  0  0  0  0
 32 34  1  0  0  0  0
 35 32  1  0  0  0  0
M  END
>  <minimizedAffinity>
-6.54424763

>  <minimizedRMSD>
0.472570747

$$$$
