
 OpenBabel03252503333D

 35 37  0  0  1  0  0  0  0  0999 V2000
   37.0240   29.1440   36.6660 C   0  0  0  0  0  0  0  0  0  0  0  0
   37.0510   30.1510   35.6540 C   0  0  0  0  0  0  0  0  0  0  0  0
   36.1180   30.0010   34.6120 C   0  0  0  0  0  0  0  0  0  0  0  0
   35.2930   28.9440   34.6490 N   0  0  0  0  0  0  0  0  0  0  0  0
   35.3090   28.0150   35.6320 C   0  0  0  0  0  0  0  0  0  0  0  0
   36.1890   28.1300   36.6450 N   0  0  0  0  0  0  0  0  0  0  0  0
   37.5590   30.2070   38.6810 C   0  0  0  0  0  0  0  0  0  0  0  0
   36.5260   30.9180   38.4390 O   0  0  0  0  0  0  0  0  0  0  0  0
   37.9370   29.2210   37.7660 N   0  0  0  0  0  0  0  0  0  0  0  0
   38.2570   30.4810   39.8910 N   0  0  0  0  0  0  0  0  0  0  0  0
   37.9710   31.7240   40.6350 C   0  0  0  0  0  0  0  0  0  0  0  0
   39.2940   32.0240   41.2710 C   0  0  0  0  0  0  0  0  0  0  0  0
   40.1930   30.8720   40.9270 C   0  0  0  0  0  0  0  0  0  0  0  0
   39.2480   29.7410   40.6160 C   0  0  1  0  0  0  0  0  0  0  0  0
   37.7460   30.9600   35.7090 H   0  0  0  0  0  0  0  0  0  0  0  0
   34.5960   27.1940   35.5680 H   0  0  0  0  0  0  0  0  0  0  0  0
   38.7710   28.6690   37.9300 H   0  0  0  0  0  0  0  0  0  0  0  0
   37.2030   31.4690   41.3750 H   0  0  0  0  0  0  0  0  0  0  0  0
   37.6200   32.5130   39.9730 H   0  0  0  0  0  0  0  0  0  0  0  0
   39.1770   32.0610   42.3720 H   0  0  0  0  0  0  0  0  0  0  0  0
   39.6480   32.9970   40.9030 H   0  0  0  0  0  0  0  0  0  0  0  0
   40.5210   31.1610   39.8650 H   0  0  0  0  0  0  0  0  0  0  0  0
   41.1080   30.7490   41.4090 H   0  0  0  0  0  0  0  0  0  0  0  0
   39.8710   29.0320   40.0550 H   0  0  0  0  0  0  0  0  0  0  0  0
   38.9760   27.8010   42.2920 C   0  0  0  0  0  0  0  0  0  0  0  0
   40.0610   27.4210   41.7910 O   0  0  0  0  0  0  0  0  0  0  0  0
   38.6330   29.1130   41.7780 N   0  0  0  0  0  0  0  0  0  0  0  0
   37.8740   29.6740   42.2780 H   0  0  0  0  0  0  0  0  0  0  0  0
   38.0380   27.1620   43.2700 C   0  0  0  0  0  3  0  0  0  0  0  0
   37.0390   26.2370   42.6580 C   0  0  0  0  0  2  0  0  0  0  0  0
   36.6020   27.5380   43.2320 C   0  0  0  0  0  2  0  0  0  0  0  0
   36.1730   31.0520   33.5920 C   0  0  0  0  0  0  0  0  0  0  0  0
   36.9670   32.0890   34.0830 F   0  0  0  0  0  0  0  0  0  0  0  0
   34.8920   31.5930   33.4970 F   0  0  0  0  0  0  0  0  0  0  0  0
   36.6890   30.6460   32.4020 F   0  0  0  0  0  0  0  0  0  0  0  0
  1  9  1  0  0  0  0
  2 15  1  0  0  0  0
  2  1  2  0  0  0  0
  3  4  2  0  0  0  0
  3  2  1  0  0  0  0
  4  5  1  0  0  0  0
  5  6  2  0  0  0  0
  6  1  1  0  0  0  0
  7 10  1  0  0  0  0
  8  7  2  0  0  0  0
  9 17  1  0  0  0  0
  9  7  1  0  0  0  0
 10 14  1  0  0  0  0
 10 11  1  0  0  0  0
 11 12  1  0  0  0  0
 11 18  1  0  0  0  0
 12 20  1  0  0  0  0
 13 12  1  0  0  0  0
 13 23  1  0  0  0  0
 14 24  1  6  0  0  0
 14 13  1  0  0  0  0
 14 27  1  0  0  0  0
 16  5  1  0  0  0  0
 19 11  1  0  0  0  0
 21 12  1  0  0  0  0
 22 13  1  0  0  0  0
 25 29  1  0  0  0  0
 26 25  2  0  0  0  0
 27 28  1  0  0  0  0
 27 25  1  0  0  0  0
 30 31  1  0  0  0  0
 30 29  1  0  0  0  0
 31 29  1  0  0  0  0
 32 33  1  0  0  0  0
 32  3  1  0  0  0  0
 34 32  1  0  0  0  0
 35 32  1  0  0  0  0
M  END
>  <minimizedAffinity>
-5.47705173

$$$$

 OpenBabel03252503333D

 35 37  0  0  1  0  0  0  0  0999 V2000
   41.4290   32.0440   40.5330 C   0  0  0  0  0  0  0  0  0  0  0  0
   41.8430   32.5930   39.2810 C   0  0  0  0  0  0  0  0  0  0  0  0
   43.2300   32.7420   39.1020 C   0  0  0  0  0  0  0  0  0  0  0  0
   44.0410   32.3650   40.1030 N   0  0  0  0  0  0  0  0  0  0  0  0
   43.5970   31.8510   41.2730 C   0  0  0  0  0  0  0  0  0  0  0  0
   42.2760   31.6940   41.4750 N   0  0  0  0  0  0  0  0  0  0  0  0
   39.5240   30.7560   40.1020 C   0  0  0  0  0  0  0  0  0  0  0  0
   40.2940   30.0990   39.3220 O   0  0  0  0  0  0  0  0  0  0  0  0
   40.0350   31.8550   40.7970 N   0  0  0  0  0  0  0  0  0  0  0  0
   38.1780   30.3050   40.2020 N   0  0  0  0  0  0  0  0  0  0  0  0
   37.6530   29.3410   39.2150 C   0  0  0  0  0  0  0  0  0  0  0  0
   36.2040   29.7160   39.1450 C   0  0  0  0  0  0  0  0  0  0  0  0
   36.0000   30.7870   40.1770 C   0  0  0  0  0  0  0  0  0  0  0  0
   37.1370   30.5930   41.1460 C   0  0  1  0  0  0  0  0  0  0  0  0
   41.1220   32.8650   38.5410 H   0  0  0  0  0  0  0  0  0  0  0  0
   44.3400   31.5760   42.0210 H   0  0  0  0  0  0  0  0  0  0  0  0
   39.4290   32.4020   41.3970 H   0  0  0  0  0  0  0  0  0  0  0  0
   37.8040   28.3450   39.6470 H   0  0  0  0  0  0  0  0  0  0  0  0
   38.1680   29.4280   38.2600 H   0  0  0  0  0  0  0  0  0  0  0  0
   35.5810   28.8420   39.4190 H   0  0  0  0  0  0  0  0  0  0  0  0
   35.9710   30.0300   38.1180 H   0  0  0  0  0  0  0  0  0  0  0  0
   36.3740   31.7120   39.6080 H   0  0  0  0  0  0  0  0  0  0  0  0
   35.0410   31.0800   40.4580 H   0  0  0  0  0  0  0  0  0  0  0  0
   37.1830   31.5500   41.6840 H   0  0  0  0  0  0  0  0  0  0  0  0
   37.9610   29.0660   43.0520 C   0  0  0  0  0  0  0  0  0  0  0  0
   38.8010   29.9820   43.2150 O   0  0  0  0  0  0  0  0  0  0  0  0
   36.9840   29.4700   42.0610 N   0  0  0  0  0  0  0  0  0  0  0  0
   36.0760   28.9110   41.9810 H   0  0  0  0  0  0  0  0  0  0  0  0
   37.8130   27.7110   43.6740 C   0  0  0  0  0  3  0  0  0  0  0  0
   38.4890   26.6090   42.9300 C   0  0  0  0  0  2  0  0  0  0  0  0
   37.0040   26.6860   42.9680 C   0  0  0  0  0  2  0  0  0  0  0  0
   43.6180   33.3070   37.8070 C   0  0  0  0  0  0  0  0  0  0  0  0
   44.7180   34.1410   38.0120 F   0  0  0  0  0  0  0  0  0  0  0  0
   42.5890   34.1580   37.4110 F   0  0  0  0  0  0  0  0  0  0  0  0
   43.9550   32.3770   36.8740 F   0  0  0  0  0  0  0  0  0  0  0  0
  1  9  1  0  0  0  0
  1  6  1  0  0  0  0
  2  1  2  0  0  0  0
  3  2  1  0  0  0  0
  3  4  2  0  0  0  0
  4  5  1  0  0  0  0
  5  6  2  0  0  0  0
  5 16  1  0  0  0  0
  7 10  1  0  0  0  0
  7  9  1  0  0  0  0
  8  7  2  0  0  0  0
  9 17  1  0  0  0  0
 10 14  1  0  0  0  0
 11 18  1  0  0  0  0
 11 10  1  0  0  0  0
 12 11  1  0  0  0  0
 12 20  1  0  0  0  0
 12 13  1  0  0  0  0
 13 23  1  0  0  0  0
 13 14  1  0  0  0  0
 14 24  1  1  0  0  0
 14 27  1  0  0  0  0
 15  2  1  0  0  0  0
 19 11  1  0  0  0  0
 21 12  1  0  0  0  0
 22 13  1  0  0  0  0
 25 26  2  0  0  0  0
 25 29  1  0  0  0  0
 27 25  1  0  0  0  0
 28 27  1  0  0  0  0
 30 31  1  0  0  0  0
 30 29  1  0  0  0  0
 31 29  1  0  0  0  0
 32 33  1  0  0  0  0
 32  3  1  0  0  0  0
 34 32  1  0  0  0  0
 35 32  1  0  0  0  0
M  END
>  <minimizedAffinity>
-5.37432528

$$$$

 OpenBabel03252503333D

 35 37  0  0  1  0  0  0  0  0999 V2000
   36.8980   28.6130   36.0590 C   0  0  0  0  0  0  0  0  0  0  0  0
   36.7890   29.8980   35.4460 C   0  0  0  0  0  0  0  0  0  0  0  0
   36.2110   29.9200   34.1630 C   0  0  0  0  0  0  0  0  0  0  0  0
   35.8150   28.7560   33.6270 N   0  0  0  0  0  0  0  0  0  0  0  0
   35.9430   27.5620   34.2520 C   0  0  0  0  0  0  0  0  0  0  0  0
   36.4910   27.5060   35.4800 N   0  0  0  0  0  0  0  0  0  0  0  0
   36.5890   28.9420   38.3560 C   0  0  0  0  0  0  0  0  0  0  0  0
   35.4500   29.4080   38.0120 O   0  0  0  0  0  0  0  0  0  0  0  0
   37.4710   28.5000   37.3660 N   0  0  0  0  0  0  0  0  0  0  0  0
   36.8740   28.9080   39.7500 N   0  0  0  0  0  0  0  0  0  0  0  0
   36.0230   29.6670   40.6890 C   0  0  0  0  0  0  0  0  0  0  0  0
   36.9930   30.0290   41.7720 C   0  0  0  0  0  0  0  0  0  0  0  0
   38.2860   29.3550   41.4170 C   0  0  0  0  0  0  0  0  0  0  0  0
   37.8810   28.2250   40.5070 C   0  0  1  0  0  0  0  0  0  0  0  0
   37.1330   30.7740   35.9510 H   0  0  0  0  0  0  0  0  0  0  0  0
   35.5890   26.6750   33.7280 H   0  0  0  0  0  0  0  0  0  0  0  0
   38.3890   28.1540   37.6220 H   0  0  0  0  0  0  0  0  0  0  0  0
   35.2520   28.9700   41.0370 H   0  0  0  0  0  0  0  0  0  0  0  0
   35.5710   30.5320   40.2070 H   0  0  0  0  0  0  0  0  0  0  0  0
   36.6380   29.6200   42.7390 H   0  0  0  0  0  0  0  0  0  0  0  0
   37.0580   31.1240   41.8350 H   0  0  0  0  0  0  0  0  0  0  0  0
   38.7120   30.0930   40.6470 H   0  0  0  0  0  0  0  0  0  0  0  0
   39.0620   29.2950   42.1090 H   0  0  0  0  0  0  0  0  0  0  0  0
   38.8160   27.9580   39.9960 H   0  0  0  0  0  0  0  0  0  0  0  0
   38.0300   25.9320   41.6770 C   0  0  0  0  0  0  0  0  0  0  0  0
   39.2520   26.2080   41.7230 O   0  0  0  0  0  0  0  0  0  0  0  0
   37.2900   27.0740   41.1780 N   0  0  0  0  0  0  0  0  0  0  0  0
   36.2290   27.0890   41.3030 H   0  0  0  0  0  0  0  0  0  0  0  0
   37.2620   24.6960   42.0320 C   0  0  0  0  0  3  0  0  0  0  0  0
   37.6740   23.4730   41.2840 C   0  0  0  0  0  2  0  0  0  0  0  0
   36.3540   24.1040   41.0170 C   0  0  0  0  0  2  0  0  0  0  0  0
   36.1140   31.2540   33.5640 C   0  0  0  0  0  0  0  0  0  0  0  0
   36.6890   31.1990   32.2930 F   0  0  0  0  0  0  0  0  0  0  0  0
   36.9490   32.0920   34.3010 F   0  0  0  0  0  0  0  0  0  0  0  0
   34.8420   31.7160   33.4380 F   0  0  0  0  0  0  0  0  0  0  0  0
  1  9  1  0  0  0  0
  2 15  1  0  0  0  0
  2  1  2  0  0  0  0
  3  2  1  0  0  0  0
  4  3  2  0  0  0  0
  4  5  1  0  0  0  0
  5  6  2  0  0  0  0
  6  1  1  0  0  0  0
  7 10  1  0  0  0  0
  8  7  2  0  0  0  0
  9 17  1  0  0  0  0
  9  7  1  0  0  0  0
 10 14  1  0  0  0  0
 10 11  1  0  0  0  0
 11 18  1  0  0  0  0
 11 12  1  0  0  0  0
 12 21  1  0  0  0  0
 12 20  1  0  0  0  0
 13 12  1  0  0  0  0
 13 23  1  0  0  0  0
 14 24  1  6  0  0  0
 14 27  1  0  0  0  0
 14 13  1  0  0  0  0
 16  5  1  0  0  0  0
 19 11  1  0  0  0  0
 22 13  1  0  0  0  0
 25 26  2  0  0  0  0
 25 29  1  0  0  0  0
 27 28  1  0  0  0  0
 27 25  1  0  0  0  0
 30 29  1  0  0  0  0
 31 30  1  0  0  0  0
 31 29  1  0  0  0  0
 32  3  1  0  0  0  0
 32 34  1  0  0  0  0
 33 32  1  0  0  0  0
 35 32  1  0  0  0  0
M  END
>  <minimizedAffinity>
-5.36199522

$$$$

 OpenBabel03252503333D

 35 37  0  0  1  0  0  0  0  0999 V2000
   39.0310   27.4500   39.8010 C   0  0  0  0  0  0  0  0  0  0  0  0
   37.9860   26.8140   40.5370 C   0  0  0  0  0  0  0  0  0  0  0  0
   38.3290   25.6090   41.1770 C   0  0  0  0  0  0  0  0  0  0  0  0
   39.5870   25.1610   41.0480 N   0  0  0  0  0  0  0  0  0  0  0  0
   40.5420   25.8020   40.3360 C   0  0  0  0  0  0  0  0  0  0  0  0
   40.2460   26.9580   39.7120 N   0  0  0  0  0  0  0  0  0  0  0  0
   38.6910   29.7560   40.0130 C   0  0  0  0  0  0  0  0  0  0  0  0
   38.8130   29.5350   41.2660 O   0  0  0  0  0  0  0  0  0  0  0  0
   38.7700   28.6830   39.1210 N   0  0  0  0  0  0  0  0  0  0  0  0
   38.4800   31.1070   39.6180 N   0  0  0  0  0  0  0  0  0  0  0  0
   38.1080   32.1160   40.6300 C   0  0  0  0  0  0  0  0  0  0  0  0
   37.2640   33.0650   39.8350 C   0  0  0  0  0  0  0  0  0  0  0  0
   37.3140   32.5800   38.4160 C   0  0  0  0  0  0  0  0  0  0  0  0
   38.5760   31.7600   38.3450 C   0  0  1  0  0  0  0  0  0  0  0  0
   37.0110   27.2480   40.5830 H   0  0  0  0  0  0  0  0  0  0  0  0
   41.5330   25.3520   40.2950 H   0  0  0  0  0  0  0  0  0  0  0  0
   38.6460   28.8390   38.1280 H   0  0  0  0  0  0  0  0  0  0  0  0
   39.0460   32.5750   40.9650 H   0  0  0  0  0  0  0  0  0  0  0  0
   37.5800   31.6650   41.4670 H   0  0  0  0  0  0  0  0  0  0  0  0
   37.7080   34.0800   39.8750 H   0  0  0  0  0  0  0  0  0  0  0  0
   36.2550   33.0860   40.2690 H   0  0  0  0  0  0  0  0  0  0  0  0
   36.5290   31.7420   38.4440 H   0  0  0  0  0  0  0  0  0  0  0  0
   36.9640   33.1770   37.6370 H   0  0  0  0  0  0  0  0  0  0  0  0
   38.4360   31.1500   37.4430 H   0  0  0  0  0  0  0  0  0  0  0  0
   41.1280   31.9750   38.0480 C   0  0  0  0  0  0  0  0  0  0  0  0
   41.0190   30.8070   37.6070 O   0  0  0  0  0  0  0  0  0  0  0  0
   39.8100   32.5320   38.2860 N   0  0  0  0  0  0  0  0  0  0  0  0
   39.7200   33.5870   38.4320 H   0  0  0  0  0  0  0  0  0  0  0  0
   42.3180   32.8330   38.3480 C   0  0  0  0  0  3  0  0  0  0  0  0
   42.6000   33.8840   37.3280 C   0  0  0  0  0  2  0  0  0  0  0  0
   43.5160   32.7230   37.4780 C   0  0  0  0  0  2  0  0  0  0  0  0
   37.2330   24.9850   41.9230 C   0  0  0  0  0  0  0  0  0  0  0  0
   37.7570   23.9080   42.6400 F   0  0  0  0  0  0  0  0  0  0  0  0
   36.3790   24.4100   40.9840 F   0  0  0  0  0  0  0  0  0  0  0  0
   36.6110   25.8180   42.7970 F   0  0  0  0  0  0  0  0  0  0  0  0
  1  2  1  0  0  0  0
  2 15  1  0  0  0  0
  2  3  2  0  0  0  0
  3 32  1  0  0  0  0
  4  3  1  0  0  0  0
  5  4  2  0  0  0  0
  6  1  2  0  0  0  0
  6  5  1  0  0  0  0
  7  8  2  0  0  0  0
  9  1  1  0  0  0  0
  9  7  1  0  0  0  0
 10  7  1  0  0  0  0
 10 11  1  0  0  0  0
 11 18  1  0  0  0  0
 11 19  1  0  0  0  0
 12 20  1  0  0  0  0
 12 21  1  0  0  0  0
 12 11  1  0  0  0  0
 13 22  1  0  0  0  0
 13 12  1  0  0  0  0
 14 24  1  6  0  0  0
 14 13  1  0  0  0  0
 14 10  1  0  0  0  0
 16  5  1  0  0  0  0
 17  9  1  0  0  0  0
 23 13  1  0  0  0  0
 25 27  1  0  0  0  0
 25 29  1  0  0  0  0
 26 25  2  0  0  0  0
 27 14  1  0  0  0  0
 27 28  1  0  0  0  0
 30 31  1  0  0  0  0
 30 29  1  0  0  0  0
 31 29  1  0  0  0  0
 32 33  1  0  0  0  0
 32 35  1  0  0  0  0
 34 32  1  0  0  0  0
M  END
>  <minimizedAffinity>
-5.2603302

$$$$

 OpenBabel03252503333D

 35 37  0  0  1  0  0  0  0  0999 V2000
   38.4250   29.6410   39.3520 C   0  0  0  0  0  0  0  0  0  0  0  0
   38.8060   30.9060   39.8920 C   0  0  0  0  0  0  0  0  0  0  0  0
   38.1100   32.0230   39.3940 C   0  0  0  0  0  0  0  0  0  0  0  0
   37.1620   31.8160   38.4670 N   0  0  0  0  0  0  0  0  0  0  0  0
   36.8400   30.5930   37.9860 C   0  0  0  0  0  0  0  0  0  0  0  0
   37.4860   29.5040   38.4430 N   0  0  0  0  0  0  0  0  0  0  0  0
   38.6470   28.0810   41.0820 C   0  0  0  0  0  0  0  0  0  0  0  0
   37.7960   28.8160   41.6890 O   0  0  0  0  0  0  0  0  0  0  0  0
   39.0790   28.4520   39.8060 N   0  0  0  0  0  0  0  0  0  0  0  0
   39.0950   26.9180   41.7690 N   0  0  0  0  0  0  0  0  0  0  0  0
   38.8240   26.7710   43.2130 C   0  0  0  0  0  0  0  0  0  0  0  0
   40.0060   25.9750   43.6780 C   0  0  0  0  0  0  0  0  0  0  0  0
   40.7940   25.6410   42.4450 C   0  0  0  0  0  0  0  0  0  0  0  0
   39.7960   25.7500   41.3220 C   0  0  1  0  0  0  0  0  0  0  0  0
   39.5750   30.9740   40.6300 H   0  0  0  0  0  0  0  0  0  0  0  0
   36.0540   30.5350   37.2340 H   0  0  0  0  0  0  0  0  0  0  0  0
   39.7750   27.8940   39.3240 H   0  0  0  0  0  0  0  0  0  0  0  0
   37.8860   26.2090   43.2940 H   0  0  0  0  0  0  0  0  0  0  0  0
   38.7350   27.7390   43.7030 H   0  0  0  0  0  0  0  0  0  0  0  0
   39.6580   25.0300   44.1390 H   0  0  0  0  0  0  0  0  0  0  0  0
   40.5590   26.5670   44.4200 H   0  0  0  0  0  0  0  0  0  0  0  0
   41.3810   26.6160   42.2910 H   0  0  0  0  0  0  0  0  0  0  0  0
   41.5580   24.9330   42.4780 H   0  0  0  0  0  0  0  0  0  0  0  0
   40.4250   25.8400   40.4270 H   0  0  0  0  0  0  0  0  0  0  0  0
   37.8730   24.4790   40.1680 C   0  0  0  0  0  0  0  0  0  0  0  0
   38.1280   25.2630   39.2240 O   0  0  0  0  0  0  0  0  0  0  0  0
   38.8650   24.6340   41.2140 N   0  0  0  0  0  0  0  0  0  0  0  0
   38.9310   23.8830   41.9710 H   0  0  0  0  0  0  0  0  0  0  0  0
   36.7820   23.4740   40.3780 C   0  0  0  0  0  3  0  0  0  0  0  0
   36.8230   22.3100   39.4460 C   0  0  0  0  0  2  0  0  0  0  0  0
   35.7390   23.3220   39.3320 C   0  0  0  0  0  2  0  0  0  0  0  0
   38.5260   33.3050   39.9710 C   0  0  0  0  0  0  0  0  0  0  0  0
   38.7360   33.1150   41.3370 F   0  0  0  0  0  0  0  0  0  0  0  0
   37.4300   34.1610   39.8900 F   0  0  0  0  0  0  0  0  0  0  0  0
   39.6650   33.8140   39.4300 F   0  0  0  0  0  0  0  0  0  0  0  0
  1  9  1  0  0  0  0
  1  2  1  0  0  0  0
  2 15  1  0  0  0  0
  3  2  2  0  0  0  0
  3 32  1  0  0  0  0
  4  3  1  0  0  0  0
  5  6  1  0  0  0  0
  5  4  2  0  0  0  0
  6  1  2  0  0  0  0
  7  8  2  0  0  0  0
  7 10  1  0  0  0  0
  9  7  1  0  0  0  0
 10 11  1  0  0  0  0
 11 18  1  0  0  0  0
 11 12  1  0  0  0  0
 11 19  1  0  0  0  0
 12 20  1  0  0  0  0
 12 21  1  0  0  0  0
 13 23  1  0  0  0  0
 13 12  1  0  0  0  0
 14 24  1  6  0  0  0
 14 10  1  0  0  0  0
 14 13  1  0  0  0  0
 16  5  1  0  0  0  0
 17  9  1  0  0  0  0
 22 13  1  0  0  0  0
 25 29  1  0  0  0  0
 25 27  1  0  0  0  0
 26 25  2  0  0  0  0
 27 14  1  0  0  0  0
 27 28  1  0  0  0  0
 30 29  1  0  0  0  0
 31 30  1  0  0  0  0
 31 29  1  0  0  0  0
 32 33  1  0  0  0  0
 34 32  1  0  0  0  0
 35 32  1  0  0  0  0
M  END
>  <minimizedAffinity>
-5.23056602

$$$$

 OpenBabel03252503333D

 35 37  0  0  1  0  0  0  0  0999 V2000
   37.2880   27.9810   39.2910 C   0  0  0  0  0  0  0  0  0  0  0  0
   36.8910   27.3230   40.4940 C   0  0  0  0  0  0  0  0  0  0  0  0
   37.5810   27.7010   41.6600 C   0  0  0  0  0  0  0  0  0  0  0  0
   38.5400   28.6330   41.5520 N   0  0  0  0  0  0  0  0  0  0  0  0
   38.8800   29.2270   40.3850 C   0  0  0  0  0  0  0  0  0  0  0  0
   38.2380   28.8870   39.2510 N   0  0  0  0  0  0  0  0  0  0  0  0
   35.3570   28.2190   37.9900 C   0  0  0  0  0  0  0  0  0  0  0  0
   34.9160   28.8870   38.9860 O   0  0  0  0  0  0  0  0  0  0  0  0
   36.6350   27.6580   38.0590 N   0  0  0  0  0  0  0  0  0  0  0  0
   34.4920   28.0990   36.8660 N   0  0  0  0  0  0  0  0  0  0  0  0
   33.0660   28.4560   36.9980 C   0  0  0  0  0  0  0  0  0  0  0  0
   32.4140   27.5260   36.0200 C   0  0  0  0  0  0  0  0  0  0  0  0
   33.5310   26.7940   35.3330 C   0  0  0  0  0  0  0  0  0  0  0  0
   34.7300   27.6890   35.5130 C   0  0  1  0  0  0  0  0  0  0  0  0
   36.1130   26.5900   40.4820 H   0  0  0  0  0  0  0  0  0  0  0  0
   39.6740   29.9720   40.4070 H   0  0  0  0  0  0  0  0  0  0  0  0
   36.9860   27.1020   37.2880 H   0  0  0  0  0  0  0  0  0  0  0  0
   32.9820   29.5050   36.6930 H   0  0  0  0  0  0  0  0  0  0  0  0
   32.7150   28.3230   38.0200 H   0  0  0  0  0  0  0  0  0  0  0  0
   31.8610   28.1140   35.2620 H   0  0  0  0  0  0  0  0  0  0  0  0
   31.7170   26.8740   36.5650 H   0  0  0  0  0  0  0  0  0  0  0  0
   33.7670   25.9800   36.1080 H   0  0  0  0  0  0  0  0  0  0  0  0
   33.3490   26.2310   34.4760 H   0  0  0  0  0  0  0  0  0  0  0  0
   35.5800   27.0210   35.3200 H   0  0  0  0  0  0  0  0  0  0  0  0
   35.9500   29.6230   34.3220 C   0  0  0  0  0  0  0  0  0  0  0  0
   36.9710   28.9670   34.6360 O   0  0  0  0  0  0  0  0  0  0  0  0
   34.7600   28.8610   34.6470 N   0  0  0  0  0  0  0  0  0  0  0  0
   33.8260   29.1690   34.2300 H   0  0  0  0  0  0  0  0  0  0  0  0
   35.7710   30.9770   33.7050 C   0  0  0  0  0  3  0  0  0  0  0  0
   36.5790   31.2090   32.4740 C   0  0  0  0  0  2  0  0  0  0  0  0
   36.9090   31.9290   33.7320 C   0  0  0  0  0  2  0  0  0  0  0  0
   37.1470   27.0060   42.8750 C   0  0  0  0  0  0  0  0  0  0  0  0
   38.2690   26.8020   43.6790 F   0  0  0  0  0  0  0  0  0  0  0  0
   36.7430   25.7300   42.4900 F   0  0  0  0  0  0  0  0  0  0  0  0
   36.2180   27.6830   43.6000 F   0  0  0  0  0  0  0  0  0  0  0  0
  1  2  1  0  0  0  0
  2  3  2  0  0  0  0
  3 32  1  0  0  0  0
  4  3  1  0  0  0  0
  5 16  1  0  0  0  0
  5  4  2  0  0  0  0
  6  1  2  0  0  0  0
  6  5  1  0  0  0  0
  7  9  1  0  0  0  0
  7  8  2  0  0  0  0
  9  1  1  0  0  0  0
 10 11  1  0  0  0  0
 10  7  1  0  0  0  0
 11 19  1  0  0  0  0
 12 21  1  0  0  0  0
 12 11  1  0  0  0  0
 13 14  1  0  0  0  0
 13 12  1  0  0  0  0
 13 22  1  0  0  0  0
 14 24  1  6  0  0  0
 14 10  1  0  0  0  0
 15  2  1  0  0  0  0
 17  9  1  0  0  0  0
 18 11  1  0  0  0  0
 20 12  1  0  0  0  0
 23 13  1  0  0  0  0
 25 26  2  0  0  0  0
 25 27  1  0  0  0  0
 27 14  1  0  0  0  0
 28 27  1  0  0  0  0
 29 31  1  0  0  0  0
 29 25  1  0  0  0  0
 30 29  1  0  0  0  0
 30 31  1  0  0  0  0
 32 35  1  0  0  0  0
 32 33  1  0  0  0  0
 34 32  1  0  0  0  0
M  END
>  <minimizedAffinity>
-5.10454893

$$$$

 OpenBabel03252503333D

 35 37  0  0  1  0  0  0  0  0999 V2000
   36.9050   29.0920   38.5470 C   0  0  0  0  0  0  0  0  0  0  0  0
   36.4810   28.9460   37.1920 C   0  0  0  0  0  0  0  0  0  0  0  0
   36.7300   30.0430   36.3470 C   0  0  0  0  0  0  0  0  0  0  0  0
   37.3350   31.1200   36.8710 N   0  0  0  0  0  0  0  0  0  0  0  0
   37.7170   31.2080   38.1660 C   0  0  0  0  0  0  0  0  0  0  0  0
   37.4930   30.1760   39.0010 N   0  0  0  0  0  0  0  0  0  0  0  0
   37.5920   26.9720   39.2640 C   0  0  0  0  0  0  0  0  0  0  0  0
   38.4310   27.0540   38.3040 O   0  0  0  0  0  0  0  0  0  0  0  0
   36.6930   28.0220   39.4740 N   0  0  0  0  0  0  0  0  0  0  0  0
   37.6420   25.7940   40.0610 N   0  0  0  0  0  0  0  0  0  0  0  0
   38.4040   24.6220   39.5870 C   0  0  0  0  0  0  0  0  0  0  0  0
   37.6310   23.4820   40.1770 C   0  0  0  0  0  0  0  0  0  0  0  0
   36.5600   24.1010   41.0270 C   0  0  0  0  0  0  0  0  0  0  0  0
   37.0820   25.4780   41.3420 C   0  0  1  0  0  0  0  0  0  0  0  0
   36.0050   28.0470   36.8640 H   0  0  0  0  0  0  0  0  0  0  0  0
   38.2010   32.1280   38.4910 H   0  0  0  0  0  0  0  0  0  0  0  0
   36.0030   27.9580   40.2140 H   0  0  0  0  0  0  0  0  0  0  0  0
   39.4070   24.7120   40.0190 H   0  0  0  0  0  0  0  0  0  0  0  0
   38.4550   24.5930   38.5000 H   0  0  0  0  0  0  0  0  0  0  0  0
   38.2950   22.8820   40.8300 H   0  0  0  0  0  0  0  0  0  0  0  0
   37.2510   22.8540   39.3590 H   0  0  0  0  0  0  0  0  0  0  0  0
   35.7720   24.3580   40.2320 H   0  0  0  0  0  0  0  0  0  0  0  0
   36.0100   23.5200   41.6950 H   0  0  0  0  0  0  0  0  0  0  0  0
   36.1850   26.0260   41.6600 H   0  0  0  0  0  0  0  0  0  0  0  0
   38.6950   26.7390   42.9090 C   0  0  0  0  0  0  0  0  0  0  0  0
   37.9640   27.7160   42.6220 O   0  0  0  0  0  0  0  0  0  0  0  0
   38.1270   25.5250   42.3560 N   0  0  0  0  0  0  0  0  0  0  0  0
   38.4920   24.5840   42.7080 H   0  0  0  0  0  0  0  0  0  0  0  0
   39.9750   26.6290   43.6800 C   0  0  0  0  0  3  0  0  0  0  0  0
   41.2040   26.9230   42.8870 C   0  0  0  0  0  2  0  0  0  0  0  0
   40.9200   25.5350   43.3410 C   0  0  0  0  0  2  0  0  0  0  0  0
   36.2830   29.8590   34.9640 C   0  0  0  0  0  0  0  0  0  0  0  0
   36.4420   31.0720   34.2930 F   0  0  0  0  0  0  0  0  0  0  0  0
   34.9060   29.6500   35.0070 F   0  0  0  0  0  0  0  0  0  0  0  0
   36.9640   28.9010   34.2830 F   0  0  0  0  0  0  0  0  0  0  0  0
  1  6  1  0  0  0  0
  1  9  1  0  0  0  0
  2  1  2  0  0  0  0
  3  4  2  0  0  0  0
  3  2  1  0  0  0  0
  4  5  1  0  0  0  0
  5 16  1  0  0  0  0
  5  6  2  0  0  0  0
  7  9  1  0  0  0  0
  7 10  1  0  0  0  0
  8  7  2  0  0  0  0
  9 17  1  0  0  0  0
 10 14  1  0  0  0  0
 11 18  1  0  0  0  0
 11 10  1  0  0  0  0
 11 12  1  0  0  0  0
 12 20  1  0  0  0  0
 12 13  1  0  0  0  0
 13 14  1  0  0  0  0
 13 23  1  0  0  0  0
 14 24  1  1  0  0  0
 14 27  1  0  0  0  0
 15  2  1  0  0  0  0
 19 11  1  0  0  0  0
 21 12  1  0  0  0  0
 22 13  1  0  0  0  0
 25 29  1  0  0  0  0
 26 25  2  0  0  0  0
 27 28  1  0  0  0  0
 27 25  1  0  0  0  0
 30 31  1  0  0  0  0
 30 29  1  0  0  0  0
 31 29  1  0  0  0  0
 32 34  1  0  0  0  0
 32  3  1  0  0  0  0
 33 32  1  0  0  0  0
 35 32  1  0  0  0  0
M  END
>  <minimizedAffinity>
-5.07044172

$$$$

 OpenBabel03252503333D

 35 37  0  0  1  0  0  0  0  0999 V2000
   36.1230   29.4840   38.2620 C   0  0  0  0  0  0  0  0  0  0  0  0
   34.7930   29.0340   38.0030 C   0  0  0  0  0  0  0  0  0  0  0  0
   34.4280   28.9410   36.6470 C   0  0  0  0  0  0  0  0  0  0  0  0
   35.3390   29.2770   35.7220 N   0  0  0  0  0  0  0  0  0  0  0  0
   36.5890   29.7010   36.0210 C   0  0  0  0  0  0  0  0  0  0  0  0
   36.9710   29.8000   37.3090 N   0  0  0  0  0  0  0  0  0  0  0  0
   36.8500   28.3550   40.1790 C   0  0  0  0  0  0  0  0  0  0  0  0
   36.6390   27.3000   39.4890 O   0  0  0  0  0  0  0  0  0  0  0  0
   36.5790   29.6040   39.6140 N   0  0  0  0  0  0  0  0  0  0  0  0
   37.3550   28.1690   41.4960 N   0  0  0  0  0  0  0  0  0  0  0  0
   37.3210   26.8270   42.1100 C   0  0  0  0  0  0  0  0  0  0  0  0
   37.1580   27.1480   43.5650 C   0  0  0  0  0  0  0  0  0  0  0  0
   37.2240   28.6440   43.6720 C   0  0  0  0  0  0  0  0  0  0  0  0
   37.9590   29.0750   42.4290 C   0  0  1  0  0  0  0  0  0  0  0  0
   34.1350   28.7880   38.8080 H   0  0  0  0  0  0  0  0  0  0  0  0
   37.2530   29.9490   35.1940 H   0  0  0  0  0  0  0  0  0  0  0  0
   36.7140   30.4480   40.1590 H   0  0  0  0  0  0  0  0  0  0  0  0
   38.2900   26.3640   41.8930 H   0  0  0  0  0  0  0  0  0  0  0  0
   36.5080   26.2250   41.7070 H   0  0  0  0  0  0  0  0  0  0  0  0
   38.0050   26.7180   44.1360 H   0  0  0  0  0  0  0  0  0  0  0  0
   36.2140   26.7120   43.9180 H   0  0  0  0  0  0  0  0  0  0  0  0
   36.1500   28.9300   43.3820 H   0  0  0  0  0  0  0  0  0  0  0  0
   37.3280   29.1060   44.5990 H   0  0  0  0  0  0  0  0  0  0  0  0
   37.7120   30.1420   42.3420 H   0  0  0  0  0  0  0  0  0  0  0  0
   40.3970   29.9070   42.5280 C   0  0  0  0  0  0  0  0  0  0  0  0
   39.8520   30.9850   42.8630 O   0  0  0  0  0  0  0  0  0  0  0  0
   39.3990   28.8570   42.4570 N   0  0  0  0  0  0  0  0  0  0  0  0
   39.7280   27.8410   42.4210 H   0  0  0  0  0  0  0  0  0  0  0  0
   41.8170   29.5500   42.2110 C   0  0  0  0  0  3  0  0  0  0  0  0
   42.6920   29.3660   43.4050 C   0  0  0  0  0  2  0  0  0  0  0  0
   42.8850   30.5370   42.5090 C   0  0  0  0  0  2  0  0  0  0  0  0
   33.0570   28.4750   36.4190 C   0  0  0  0  0  0  0  0  0  0  0  0
   32.2190   29.1440   37.3120 F   0  0  0  0  0  0  0  0  0  0  0  0
   33.0110   27.1400   36.8120 F   0  0  0  0  0  0  0  0  0  0  0  0
   32.5990   28.6940   35.1580 F   0  0  0  0  0  0  0  0  0  0  0  0
  1  9  1  0  0  0  0
  2  1  1  0  0  0  0
  2 15  1  0  0  0  0
  3  2  2  0  0  0  0
  4  5  2  0  0  0  0
  4  3  1  0  0  0  0
  5  6  1  0  0  0  0
  6  1  2  0  0  0  0
  7 10  1  0  0  0  0
  8  7  2  0  0  0  0
  9 17  1  0  0  0  0
  9  7  1  0  0  0  0
 10 11  1  0  0  0  0
 10 14  1  0  0  0  0
 11 12  1  0  0  0  0
 12 13  1  0  0  0  0
 12 21  1  0  0  0  0
 12 20  1  0  0  0  0
 13 23  1  0  0  0  0
 14 24  1  6  0  0  0
 14 27  1  0  0  0  0
 14 13  1  0  0  0  0
 16  5  1  0  0  0  0
 18 11  1  0  0  0  0
 19 11  1  0  0  0  0
 22 13  1  0  0  0  0
 25 26  2  0  0  0  0
 27 25  1  0  0  0  0
 28 27  1  0  0  0  0
 29 31  1  0  0  0  0
 29 25  1  0  0  0  0
 29 30  1  0  0  0  0
 31 30  1  0  0  0  0
 32  3  1  0  0  0  0
 32 34  1  0  0  0  0
 32 33  1  0  0  0  0
 35 32  1  0  0  0  0
M  END
>  <minimizedAffinity>
-4.89757967

$$$$

 OpenBabel03252503333D

 35 37  0  0  1  0  0  0  0  0999 V2000
   40.5930   31.1700   40.0100 C   0  0  0  0  0  0  0  0  0  0  0  0
   40.9980   31.8790   38.8390 C   0  0  0  0  0  0  0  0  0  0  0  0
   42.3750   32.1390   38.7220 C   0  0  0  0  0  0  0  0  0  0  0  0
   43.1860   31.7090   39.7010 N   0  0  0  0  0  0  0  0  0  0  0  0
   42.7500   31.0410   40.7940 C   0  0  0  0  0  0  0  0  0  0  0  0
   41.4380   30.7760   40.9360 N   0  0  0  0  0  0  0  0  0  0  0  0
   38.7930   29.8130   39.3820 C   0  0  0  0  0  0  0  0  0  0  0  0
   39.6260   29.2980   38.5610 O   0  0  0  0  0  0  0  0  0  0  0  0
   39.2100   30.8600   40.2080 N   0  0  0  0  0  0  0  0  0  0  0  0
   37.4800   29.2650   39.3900 N   0  0  0  0  0  0  0  0  0  0  0  0
   37.0470   28.3830   38.2880 C   0  0  0  0  0  0  0  0  0  0  0  0
   35.5780   28.6660   38.2130 C   0  0  0  0  0  0  0  0  0  0  0  0
   35.2750   29.6010   39.3480 C   0  0  0  0  0  0  0  0  0  0  0  0
   36.3990   29.3780   40.3260 C   0  0  1  0  0  0  0  0  0  0  0  0
   40.2780   32.1820   38.1100 H   0  0  0  0  0  0  0  0  0  0  0  0
   43.4920   30.7360   41.5310 H   0  0  0  0  0  0  0  0  0  0  0  0
   38.5520   31.2970   40.8440 H   0  0  0  0  0  0  0  0  0  0  0  0
   37.2570   27.3570   38.6150 H   0  0  0  0  0  0  0  0  0  0  0  0
   37.5790   28.6080   37.3660 H   0  0  0  0  0  0  0  0  0  0  0  0
   35.0100   27.7270   38.3710 H   0  0  0  0  0  0  0  0  0  0  0  0
   35.3480   29.0740   37.2190 H   0  0  0  0  0  0  0  0  0  0  0  0
   35.5970   30.6060   38.8940 H   0  0  0  0  0  0  0  0  0  0  0  0
   34.2910   29.7970   39.6280 H   0  0  0  0  0  0  0  0  0  0  0  0
   36.3640   30.2710   40.9650 H   0  0  0  0  0  0  0  0  0  0  0  0
   36.9730   27.9190   42.3720 C   0  0  0  0  0  0  0  0  0  0  0  0
   37.3930   29.0050   42.8350 O   0  0  0  0  0  0  0  0  0  0  0  0
   36.3010   28.1530   41.1090 N   0  0  0  0  0  0  0  0  0  0  0  0
   35.6850   27.3780   40.7060 H   0  0  0  0  0  0  0  0  0  0  0  0
   37.0460   26.5110   42.8780 C   0  0  0  0  0  3  0  0  0  0  0  0
   38.3060   25.7910   42.5320 C   0  0  0  0  0  2  0  0  0  0  0  0
   37.0210   25.3970   41.8970 C   0  0  0  0  0  2  0  0  0  0  0  0
   42.7550   32.8670   37.5080 C   0  0  0  0  0  0  0  0  0  0  0  0
   41.6060   33.4660   36.9870 F   0  0  0  0  0  0  0  0  0  0  0  0
   43.1240   31.9140   36.5610 F   0  0  0  0  0  0  0  0  0  0  0  0
   43.6880   33.8350   37.7090 F   0  0  0  0  0  0  0  0  0  0  0  0
  1  9  1  0  0  0  0
  1  6  1  0  0  0  0
  2  1  2  0  0  0  0
  3  2  1  0  0  0  0
  3  4  2  0  0  0  0
  4  5  1  0  0  0  0
  5  6  2  0  0  0  0
  5 16  1  0  0  0  0
  7 10  1  0  0  0  0
  7  9  1  0  0  0  0
  8  7  2  0  0  0  0
  9 17  1  0  0  0  0
 10 14  1  0  0  0  0
 11 18  1  0  0  0  0
 11 10  1  0  0  0  0
 12 11  1  0  0  0  0
 12 20  1  0  0  0  0
 12 13  1  0  0  0  0
 13 23  1  0  0  0  0
 13 14  1  0  0  0  0
 14 24  1  1  0  0  0
 14 27  1  0  0  0  0
 15  2  1  0  0  0  0
 19 11  1  0  0  0  0
 21 12  1  0  0  0  0
 22 13  1  0  0  0  0
 25 26  2  0  0  0  0
 25 29  1  0  0  0  0
 27 25  1  0  0  0  0
 28 27  1  0  0  0  0
 30 29  1  0  0  0  0
 31 30  1  0  0  0  0
 31 29  1  0  0  0  0
 32 35  1  0  0  0  0
 32  3  1  0  0  0  0
 33 32  1  0  0  0  0
 34 32  1  0  0  0  0
M  END
>  <minimizedAffinity>
-4.84263945

$$$$
