
 OpenBabel03242510223D

 32 35  0  0  1  0  0  0  0  0999 V2000
   46.3110   32.1260   44.4790 C   0  0  1  0  0  0  0  0  0  0  0  0
   46.4030   31.3760   43.2980 C   0  0  0  0  0  0  0  0  0  0  0  0
   47.6530   32.1280   43.8570 C   0  0  1  0  0  0  0  0  0  0  0  0
   46.1800   31.6670   45.4830 H   0  0  0  0  0  0  0  0  0  0  0  0
   46.1010   31.6330   42.2650 H   0  0  0  0  0  0  0  0  0  0  0  0
   46.4850   30.2490   43.3890 H   0  0  0  0  0  0  0  0  0  0  0  0
   48.4260   31.4280   44.2050 H   0  0  0  0  0  0  0  0  0  0  0  0
   45.0350   34.0020   43.1910 C   0  0  0  0  0  0  0  0  0  0  0  0
   45.5440   33.4600   44.4160 C   0  0  0  0  0  0  0  0  0  0  0  0
   45.3470   34.1940   45.5680 C   0  0  0  0  0  0  0  0  0  0  0  0
   44.6960   35.3720   45.4920 N   0  0  0  0  0  0  0  0  0  0  0  0
   44.2190   35.8760   44.3200 C   0  0  0  0  0  0  0  0  0  0  0  0
   44.4010   35.1570   43.1360 N   0  0  0  0  0  0  0  0  0  0  0  0
   45.1780   33.4090   42.3090 H   0  0  0  0  0  0  0  0  0  0  0  0
   45.7040   33.8440   46.5280 H   0  0  0  0  0  0  0  0  0  0  0  0
   43.6980   36.8200   44.2660 H   0  0  0  0  0  0  0  0  0  0  0  0
   47.9940   33.2640   43.0790 N   0  0  0  0  0  0  0  0  0  0  0  0
   49.2090   33.3930   42.4150 C   0  0  0  0  0  0  0  0  0  0  0  0
   50.3790   33.1080   42.7740 O   0  0  0  0  0  0  0  0  0  0  0  0
   47.3850   34.0990   42.9310 H   0  0  0  0  0  0  0  0  0  0  0  0
   49.2200   33.9660   41.0050 C   0  0  2  0  0  0  0  0  0  0  0  0
   48.6520   35.4230   40.8430 C   0  0  0  0  0  0  0  0  0  0  0  0
   47.9800   34.2080   40.2710 C   0  0  1  0  0  0  0  0  0  0  0  0
   50.1700   33.8910   40.4390 H   0  0  0  0  0  0  0  0  0  0  0  0
   48.2180   35.8350   41.7810 H   0  0  0  0  0  0  0  0  0  0  0  0
   49.1240   36.0820   40.1220 H   0  0  0  0  0  0  0  0  0  0  0  0
   47.0980   33.7140   40.7430 H   0  0  0  0  0  0  0  0  0  0  0  0
   48.0110   34.0570   38.7700 C   0  0  0  0  0  0  0  0  0  0  0  0
   48.5600   34.8940   38.0670 O   0  0  0  0  0  0  0  0  0  0  0  0
   47.3630   32.8740   38.1170 C   0  0  0  0  0  3  0  0  0  0  0  0
   46.1900   32.2170   38.7270 C   0  0  0  0  0  2  0  0  0  0  0  0
   45.9800   33.1590   37.5670 C   0  0  0  0  0  2  0  0  0  0  0  0
  1  4  1  1  0  0  0
  2  6  1  0  0  0  0
  2  3  1  0  0  0  0
  2  1  1  0  0  0  0
  3  7  1  1  0  0  0
  3  1  1  0  0  0  0
  5  2  1  0  0  0  0
  8  9  1  0  0  0  0
  9  1  1  0  0  0  0
  9 10  2  0  0  0  0
 10 15  1  0  0  0  0
 11 10  1  0  0  0  0
 12 11  2  0  0  0  0
 13  8  2  0  0  0  0
 13 12  1  0  0  0  0
 14  8  1  0  0  0  0
 16 12  1  0  0  0  0
 17  3  1  0  0  0  0
 18 19  2  0  0  0  0
 18 17  1  0  0  0  0
 20 17  1  0  0  0  0
 21 24  1  6  0  0  0
 21 18  1  0  0  0  0
 22 21  1  0  0  0  0
 22 25  1  0  0  0  0
 23 27  1  1  0  0  0
 23 22  1  0  0  0  0
 23 21  1  0  0  0  0
 26 22  1  0  0  0  0
 28 23  1  0  0  0  0
 29 28  2  0  0  0  0
 30 31  1  0  0  0  0
 30 28  1  0  0  0  0
 32 30  1  0  0  0  0
 32 31  1  0  0  0  0
M  END
>  <minimizedAffinity>
-4.41919231

>  <minimizedRMSD>
0.46859467

$$$$
