
 OpenBabel03242521573D

 42 46  0  0  0  0  0  0  0  0999 V2000
   36.5530   26.9950   39.8170 C   0  0  0  0  0  0  0  0  0  0  0  0
   36.5900   25.6040   39.8060 C   0  0  0  0  0  0  0  0  0  0  0  0
   36.9140   24.8390   40.9320 C   0  0  0  0  0  0  0  0  0  0  0  0
   37.2130   25.4450   42.1210 C   0  0  0  0  0  0  0  0  0  0  0  0
   37.1900   26.8480   42.1560 C   0  0  0  0  0  0  0  0  0  0  0  0
   37.5470   27.4190   43.3420 C   0  0  0  0  0  0  0  0  0  0  0  0
   37.6070   28.8140   43.3950 C   0  0  0  0  0  0  0  0  0  0  0  0
   37.3000   29.5610   42.2040 C   0  0  0  0  0  0  0  0  0  0  0  0
   36.9580   28.8370   41.0850 C   0  0  0  0  0  0  0  0  0  0  0  0
   36.8630   27.5230   40.9780 C   0  0  0  0  0  0  0  0  0  0  0  0
   36.3510   25.1010   38.8530 H   0  0  0  0  0  0  0  0  0  0  0  0
   36.9110   23.7670   40.7980 H   0  0  0  0  0  0  0  0  0  0  0  0
   37.4520   24.8250   42.9740 H   0  0  0  0  0  0  0  0  0  0  0  0
   37.7730   26.8080   44.2060 H   0  0  0  0  0  0  0  0  0  0  0  0
   37.8900   29.1880   44.3630 H   0  0  0  0  0  0  0  0  0  0  0  0
   37.4270   30.5790   42.5380 H   0  0  0  0  0  0  0  0  0  0  0  0
   38.5430   29.9640   39.7940 C   0  0  0  0  0  0  0  0  0  0  0  0
   37.1540   29.9770   40.2110 C   0  0  0  0  0  0  0  0  0  0  0  0
   36.5470   31.0830   39.7870 C   0  0  0  0  0  0  0  0  0  0  0  0
   37.1340   32.0940   39.0570 C   0  0  0  0  0  0  0  0  0  0  0  0
   38.4530   32.0590   38.6790 C   0  0  0  0  0  0  0  0  0  0  0  0
   39.1660   30.9560   39.0660 C   0  0  0  0  0  0  0  0  0  0  0  0
   35.5100   31.0030   40.1430 H   0  0  0  0  0  0  0  0  0  0  0  0
   36.4180   32.8910   38.8370 H   0  0  0  0  0  0  0  0  0  0  0  0
   38.7000   32.9430   38.1230 H   0  0  0  0  0  0  0  0  0  0  0  0
   39.4910   28.9390   40.0590 O   0  0  0  0  0  0  0  0  0  0  0  0
   40.0520   28.9340   40.9000 H   0  0  0  0  0  0  0  0  0  0  0  0
   40.4780   30.9740   38.6710 O   0  0  0  0  0  0  0  0  0  0  0  0
   41.0300   31.2560   37.4630 C   0  0  0  0  0  3  0  0  0  0  0  0
   41.9930   32.4350   37.3890 C   0  0  0  0  0  2  0  0  0  0  0  0
   42.4720   31.0370   37.1820 C   0  0  0  0  0  2  0  0  0  0  0  0
   34.5110   29.0040   37.4270 C   0  0  0  0  0  0  0  0  0  0  0  0
   35.4590   29.1850   36.3910 C   0  0  0  0  0  0  0  0  0  0  0  0
   36.6850   28.5930   36.5790 C   0  0  0  0  0  0  0  0  0  0  0  0
   36.8280   27.9240   37.7210 N   0  0  0  0  0  0  0  0  0  0  0  0
   35.9650   27.7360   38.7120 C   0  0  0  0  0  0  0  0  0  0  0  0
   34.8080   28.2970   38.5220 N   0  0  0  0  0  0  0  0  0  0  0  0
   33.5400   29.4650   37.2900 H   0  0  0  0  0  0  0  0  0  0  0  0
   35.2340   29.7550   35.5020 H   0  0  0  0  0  0  0  0  0  0  0  0
   37.7020   28.6450   35.5960 N   0  0  0  0  0  0  0  0  0  0  0  0
   37.8900   29.4330   34.9420 H   0  0  0  0  0  0  0  0  0  0  0  0
   38.4090   27.9460   35.3560 H   0  0  0  0  0  0  0  0  0  0  0  0
  1 10  1  0  0  0  0
  2  1  2  0  0  0  0
  2  3  1  0  0  0  0
  3  4  2  0  0  0  0
  4  5  1  0  0  0  0
  4 13  1  0  0  0  0
  5  6  1  0  0  0  0
  6  7  2  0  0  0  0
  6 14  1  0  0  0  0
  7 15  1  0  0  0  0
  8 16  1  0  0  0  0
  8  7  1  0  0  0  0
  9  8  2  0  0  0  0
 10  9  1  0  0  0  0
 10  5  2  0  0  0  0
 11  2  1  0  0  0  0
 12  3  1  0  0  0  0
 17 26  1  0  0  0  0
 17 18  1  0  0  0  0
 18  9  1  0  0  0  0
 19 23  1  0  0  0  0
 19 18  2  0  0  0  0
 20 19  1  0  0  0  0
 21 20  2  0  0  0  0
 21 22  1  0  0  0  0
 22 17  2  0  0  0  0
 24 20  1  0  0  0  0
 25 21  1  0  0  0  0
 26 27  1  0  0  0  0
 28 22  1  0  0  0  0
 29 28  1  0  0  0  0
 30 29  1  0  0  0  0
 31 30  1  0  0  0  0
 31 29  1  0  0  0  0
 32 37  1  0  0  0  0
 33 34  1  0  0  0  0
 33 32  2  0  0  0  0
 34 35  2  0  0  0  0
 35 36  1  0  0  0  0
 36  1  1  0  0  0  0
 37 36  2  0  0  0  0
 38 32  1  0  0  0  0
 39 33  1  0  0  0  0
 40 34  1  0  0  0  0
 41 40  1  0  0  0  0
 42 40  1  0  0  0  0
M  END
>  <minimizedAffinity>
-6.74774981

$$$$

 OpenBabel03242521573D

 42 46  0  0  0  0  0  0  0  0999 V2000
   37.9810   31.5000   40.5670 C   0  0  0  0  0  0  0  0  0  0  0  0
   37.8690   32.7720   40.0130 C   0  0  0  0  0  0  0  0  0  0  0  0
   38.9090   33.7080   40.0320 C   0  0  0  0  0  0  0  0  0  0  0  0
   40.1100   33.4000   40.6090 C   0  0  0  0  0  0  0  0  0  0  0  0
   40.2460   32.1260   41.1810 C   0  0  0  0  0  0  0  0  0  0  0  0
   41.4370   31.8740   41.7960 C   0  0  0  0  0  0  0  0  0  0  0  0
   41.5820   30.6430   42.4410 C   0  0  0  0  0  0  0  0  0  0  0  0
   40.4750   29.7240   42.4260 C   0  0  0  0  0  0  0  0  0  0  0  0
   39.3390   30.1260   41.7640 C   0  0  0  0  0  0  0  0  0  0  0  0
   39.1470   31.2650   41.1190 C   0  0  0  0  0  0  0  0  0  0  0  0
   36.9050   33.0340   39.5430 H   0  0  0  0  0  0  0  0  0  0  0  0
   38.7010   34.6620   39.5710 H   0  0  0  0  0  0  0  0  0  0  0  0
   40.8960   34.1440   40.6010 H   0  0  0  0  0  0  0  0  0  0  0  0
   42.2350   32.6050   41.7800 H   0  0  0  0  0  0  0  0  0  0  0  0
   42.5490   30.5170   42.8960 H   0  0  0  0  0  0  0  0  0  0  0  0
   40.8690   28.8890   42.9850 H   0  0  0  0  0  0  0  0  0  0  0  0
   38.5560   27.9420   41.5020 C   0  0  0  0  0  0  0  0  0  0  0  0
   38.5350   29.0930   42.3850 C   0  0  0  0  0  0  0  0  0  0  0  0
   37.6880   28.8950   43.3930 C   0  0  0  0  0  0  0  0  0  0  0  0
   36.9220   27.7660   43.5900 C   0  0  0  0  0  0  0  0  0  0  0  0
   36.9580   26.6930   42.7360 C   0  0  0  0  0  0  0  0  0  0  0  0
   37.8040   26.7990   41.6650 C   0  0  0  0  0  0  0  0  0  0  0  0
   37.7420   29.8070   44.0050 H   0  0  0  0  0  0  0  0  0  0  0  0
   36.3090   27.8570   44.4920 H   0  0  0  0  0  0  0  0  0  0  0  0
   36.2850   25.9290   43.0760 H   0  0  0  0  0  0  0  0  0  0  0  0
   39.3470   27.7970   40.3300 O   0  0  0  0  0  0  0  0  0  0  0  0
   39.0260   28.1130   39.4260 H   0  0  0  0  0  0  0  0  0  0  0  0
   37.7960   25.7050   40.8390 O   0  0  0  0  0  0  0  0  0  0  0  0
   36.7980   25.1730   40.0900 C   0  0  0  0  0  3  0  0  0  0  0  0
   37.1270   23.9490   39.2450 C   0  0  0  0  0  2  0  0  0  0  0  0
   36.1900   23.8540   40.4020 C   0  0  0  0  0  2  0  0  0  0  0  0
   35.0620   29.1830   40.4020 C   0  0  0  0  0  0  0  0  0  0  0  0
   35.3700   28.4890   39.2060 C   0  0  0  0  0  0  0  0  0  0  0  0
   36.5410   28.8460   38.5820 C   0  0  0  0  0  0  0  0  0  0  0  0
   37.2400   29.8060   39.1830 N   0  0  0  0  0  0  0  0  0  0  0  0
   36.9820   30.4770   40.2990 C   0  0  0  0  0  0  0  0  0  0  0  0
   35.8740   30.1290   40.8820 N   0  0  0  0  0  0  0  0  0  0  0  0
   34.1420   28.9100   40.9040 H   0  0  0  0  0  0  0  0  0  0  0  0
   34.7230   27.7240   38.8040 H   0  0  0  0  0  0  0  0  0  0  0  0
   36.9980   28.1910   37.4130 N   0  0  0  0  0  0  0  0  0  0  0  0
   36.4050   27.8010   36.6520 H   0  0  0  0  0  0  0  0  0  0  0  0
   37.9550   27.9890   37.1130 H   0  0  0  0  0  0  0  0  0  0  0  0
  1 10  1  0  0  0  0
  2  3  1  0  0  0  0
  2  1  2  0  0  0  0
  3  4  2  0  0  0  0
  4  5  1  0  0  0  0
  5  6  1  0  0  0  0
  6  7  2  0  0  0  0
  7 15  1  0  0  0  0
  8  7  1  0  0  0  0
  8 16  1  0  0  0  0
  9 18  1  0  0  0  0
  9  8  2  0  0  0  0
 10  5  2  0  0  0  0
 10  9  1  0  0  0  0
 11  2  1  0  0  0  0
 12  3  1  0  0  0  0
 13  4  1  0  0  0  0
 14  6  1  0  0  0  0
 17 22  2  0  0  0  0
 17 18  1  0  0  0  0
 18 19  2  0  0  0  0
 19 20  1  0  0  0  0
 19 23  1  0  0  0  0
 20 24  1  0  0  0  0
 21 25  1  0  0  0  0
 21 20  2  0  0  0  0
 22 21  1  0  0  0  0
 26 17  1  0  0  0  0
 27 26  1  0  0  0  0
 28 22  1  0  0  0  0
 29 31  1  0  0  0  0
 29 28  1  0  0  0  0
 30 29  1  0  0  0  0
 30 31  1  0  0  0  0
 32 37  1  0  0  0  0
 32 38  1  0  0  0  0
 33 32  2  0  0  0  0
 34 35  2  0  0  0  0
 34 33  1  0  0  0  0
 35 36  1  0  0  0  0
 36  1  1  0  0  0  0
 36 37  2  0  0  0  0
 39 33  1  0  0  0  0
 40 34  1  0  0  0  0
 41 40  1  0  0  0  0
 42 40  1  0  0  0  0
M  END
>  <minimizedAffinity>
-6.51369286

$$$$

 OpenBabel03242521573D

 42 46  0  0  0  0  0  0  0  0999 V2000
   39.2570   28.9370   41.2990 C   0  0  0  0  0  0  0  0  0  0  0  0
   40.3840   29.2990   42.0320 C   0  0  0  0  0  0  0  0  0  0  0  0
   40.9870   28.4560   42.9720 C   0  0  0  0  0  0  0  0  0  0  0  0
   40.4810   27.2090   43.2130 C   0  0  0  0  0  0  0  0  0  0  0  0
   39.3400   26.8230   42.4920 C   0  0  0  0  0  0  0  0  0  0  0  0
   38.8310   25.5950   42.7970 C   0  0  0  0  0  0  0  0  0  0  0  0
   37.6540   25.2070   42.1540 C   0  0  0  0  0  0  0  0  0  0  0  0
   37.0480   26.1180   41.2190 C   0  0  0  0  0  0  0  0  0  0  0  0
   37.6840   27.3210   41.0200 C   0  0  0  0  0  0  0  0  0  0  0  0
   38.8070   27.7380   41.5810 C   0  0  0  0  0  0  0  0  0  0  0  0
   40.8040   30.3030   41.8470 H   0  0  0  0  0  0  0  0  0  0  0  0
   41.8560   28.8510   43.4790 H   0  0  0  0  0  0  0  0  0  0  0  0
   40.9750   26.5800   43.9410 H   0  0  0  0  0  0  0  0  0  0  0  0
   39.3260   24.9520   43.5130 H   0  0  0  0  0  0  0  0  0  0  0  0
   37.3180   24.2260   42.4430 H   0  0  0  0  0  0  0  0  0  0  0  0
   36.1820   25.5620   40.8920 H   0  0  0  0  0  0  0  0  0  0  0  0
   36.5770   27.5480   38.9760 C   0  0  0  0  0  0  0  0  0  0  0  0
   36.5200   27.9030   40.3820 C   0  0  0  0  0  0  0  0  0  0  0  0
   35.5180   28.7500   40.6120 C   0  0  0  0  0  0  0  0  0  0  0  0
   34.6470   29.2420   39.6640 C   0  0  0  0  0  0  0  0  0  0  0  0
   34.7260   28.8930   38.3390 C   0  0  0  0  0  0  0  0  0  0  0  0
   35.7260   28.0210   38.0000 C   0  0  0  0  0  0  0  0  0  0  0  0
   35.5500   28.9560   41.6910 H   0  0  0  0  0  0  0  0  0  0  0  0
   33.9170   29.9210   40.1130 H   0  0  0  0  0  0  0  0  0  0  0  0
   33.9570   29.3900   37.7810 H   0  0  0  0  0  0  0  0  0  0  0  0
   37.5090   26.6630   38.3710 O   0  0  0  0  0  0  0  0  0  0  0  0
   38.4010   26.9830   38.0210 H   0  0  0  0  0  0  0  0  0  0  0  0
   35.7660   27.7110   36.6660 O   0  0  0  0  0  0  0  0  0  0  0  0
   36.4520   28.2900   35.6470 C   0  0  0  0  0  3  0  0  0  0  0  0
   35.7330   28.4400   34.3120 C   0  0  0  0  0  2  0  0  0  0  0  0
   36.1050   29.6360   35.1240 C   0  0  0  0  0  2  0  0  0  0  0  0
   38.3750   30.4220   37.9920 C   0  0  0  0  0  0  0  0  0  0  0  0
   37.6170   31.5380   38.4220 C   0  0  0  0  0  0  0  0  0  0  0  0
   37.4940   31.7020   39.7820 C   0  0  0  0  0  0  0  0  0  0  0  0
   38.1060   30.7830   40.5260 N   0  0  0  0  0  0  0  0  0  0  0  0
   38.8220   29.7270   40.1580 C   0  0  0  0  0  0  0  0  0  0  0  0
   38.9340   29.5840   38.8710 N   0  0  0  0  0  0  0  0  0  0  0  0
   38.4800   30.2820   36.9230 H   0  0  0  0  0  0  0  0  0  0  0  0
   37.1580   32.2230   37.7240 H   0  0  0  0  0  0  0  0  0  0  0  0
   36.8150   32.8070   40.3460 N   0  0  0  0  0  0  0  0  0  0  0  0
   35.9810   33.2880   39.9490 H   0  0  0  0  0  0  0  0  0  0  0  0
   37.0090   33.3170   41.2110 H   0  0  0  0  0  0  0  0  0  0  0  0
  1 10  2  0  0  0  0
  1  2  1  0  0  0  0
  2  3  2  0  0  0  0
  3  4  1  0  0  0  0
  3 12  1  0  0  0  0
  4 13  1  0  0  0  0
  5  6  1  0  0  0  0
  5  4  2  0  0  0  0
  6 14  1  0  0  0  0
  7 15  1  0  0  0  0
  7  6  2  0  0  0  0
  8  7  1  0  0  0  0
  9  8  2  0  0  0  0
  9 10  1  0  0  0  0
 10  5  1  0  0  0  0
 11  2  1  0  0  0  0
 16  8  1  0  0  0  0
 17 18  1  0  0  0  0
 18 19  2  0  0  0  0
 18  9  1  0  0  0  0
 19 23  1  0  0  0  0
 20 24  1  0  0  0  0
 20 19  1  0  0  0  0
 21 20  2  0  0  0  0
 22 21  1  0  0  0  0
 22 17  2  0  0  0  0
 25 21  1  0  0  0  0
 26 17  1  0  0  0  0
 27 26  1  0  0  0  0
 28 22  1  0  0  0  0
 29 28  1  0  0  0  0
 30 31  1  0  0  0  0
 30 29  1  0  0  0  0
 31 29  1  0  0  0  0
 32 33  2  0  0  0  0
 32 37  1  0  0  0  0
 33 34  1  0  0  0  0
 34 40  1  0  0  0  0
 34 35  2  0  0  0  0
 36 35  1  0  0  0  0
 36  1  1  0  0  0  0
 37 36  2  0  0  0  0
 38 32  1  0  0  0  0
 39 33  1  0  0  0  0
 40 42  1  0  0  0  0
 41 40  1  0  0  0  0
M  END
>  <minimizedAffinity>
-6.42760706

$$$$

 OpenBabel03242521573D

 42 46  0  0  0  0  0  0  0  0999 V2000
   39.5150   30.1280   41.7770 C   0  0  0  0  0  0  0  0  0  0  0  0
   40.8620   30.1240   42.1290 C   0  0  0  0  0  0  0  0  0  0  0  0
   41.7040   31.2260   41.9370 C   0  0  0  0  0  0  0  0  0  0  0  0
   41.2230   32.3800   41.3840 C   0  0  0  0  0  0  0  0  0  0  0  0
   39.8700   32.4060   41.0130 C   0  0  0  0  0  0  0  0  0  0  0  0
   39.4390   33.5530   40.4150 C   0  0  0  0  0  0  0  0  0  0  0  0
   38.1170   33.5880   39.9650 C   0  0  0  0  0  0  0  0  0  0  0  0
   37.2950   32.4220   40.1510 C   0  0  0  0  0  0  0  0  0  0  0  0
   37.8780   31.3420   40.7730 C   0  0  0  0  0  0  0  0  0  0  0  0
   39.1120   31.2540   41.2380 C   0  0  0  0  0  0  0  0  0  0  0  0
   41.2630   29.1990   42.5770 H   0  0  0  0  0  0  0  0  0  0  0  0
   42.7310   31.1010   42.2500 H   0  0  0  0  0  0  0  0  0  0  0  0
   41.8990   33.2150   41.2560 H   0  0  0  0  0  0  0  0  0  0  0  0
   40.1030   34.4000   40.2960 H   0  0  0  0  0  0  0  0  0  0  0  0
   37.8510   34.5270   39.5090 H   0  0  0  0  0  0  0  0  0  0  0  0
   36.3570   32.7360   39.7190 H   0  0  0  0  0  0  0  0  0  0  0  0
   37.1170   30.0650   38.9720 C   0  0  0  0  0  0  0  0  0  0  0  0
   36.8240   30.4450   40.3410 C   0  0  0  0  0  0  0  0  0  0  0  0
   35.6340   29.9780   40.7130 C   0  0  0  0  0  0  0  0  0  0  0  0
   34.7770   29.2380   39.9260 C   0  0  0  0  0  0  0  0  0  0  0  0
   35.0780   28.8960   38.6320 C   0  0  0  0  0  0  0  0  0  0  0  0
   36.2860   29.3300   38.1540 C   0  0  0  0  0  0  0  0  0  0  0  0
   35.5020   30.3080   41.7530 H   0  0  0  0  0  0  0  0  0  0  0  0
   33.8640   28.9800   40.4700 H   0  0  0  0  0  0  0  0  0  0  0  0
   34.2750   28.3250   38.2060 H   0  0  0  0  0  0  0  0  0  0  0  0
   38.2970   30.3810   38.2460 O   0  0  0  0  0  0  0  0  0  0  0  0
   38.3860   31.2350   37.7150 H   0  0  0  0  0  0  0  0  0  0  0  0
   36.5330   28.9680   36.8560 O   0  0  0  0  0  0  0  0  0  0  0  0
   36.1560   29.5530   35.6900 C   0  0  0  0  0  3  0  0  0  0  0  0
   36.4180   28.7860   34.4000 C   0  0  0  0  0  2  0  0  0  0  0  0
   35.0260   29.0370   34.8760 C   0  0  0  0  0  2  0  0  0  0  0  0
   37.0090   27.8900   43.4000 C   0  0  0  0  0  0  0  0  0  0  0  0
   37.0240   26.8080   42.4870 C   0  0  0  0  0  0  0  0  0  0  0  0
   37.8920   26.9180   41.4270 C   0  0  0  0  0  0  0  0  0  0  0  0
   38.6110   28.0380   41.3910 N   0  0  0  0  0  0  0  0  0  0  0  0
   38.6220   29.0710   42.2260 C   0  0  0  0  0  0  0  0  0  0  0  0
   37.8010   28.9530   43.2260 N   0  0  0  0  0  0  0  0  0  0  0  0
   36.3310   27.8150   44.2400 H   0  0  0  0  0  0  0  0  0  0  0  0
   36.3890   25.9430   42.6130 H   0  0  0  0  0  0  0  0  0  0  0  0
   38.0500   25.8830   40.4750 N   0  0  0  0  0  0  0  0  0  0  0  0
   37.3080   25.2350   40.1380 H   0  0  0  0  0  0  0  0  0  0  0  0
   38.8870   25.5920   39.9640 H   0  0  0  0  0  0  0  0  0  0  0  0
  1  2  1  0  0  0  0
  1 36  1  0  0  0  0
  2 11  1  0  0  0  0
  3  2  2  0  0  0  0
  3 12  1  0  0  0  0
  4  3  1  0  0  0  0
  5 10  1  0  0  0  0
  5  4  2  0  0  0  0
  6  5  1  0  0  0  0
  7  8  1  0  0  0  0
  7  6  2  0  0  0  0
  8  9  2  0  0  0  0
  9 10  1  0  0  0  0
 10  1  2  0  0  0  0
 13  4  1  0  0  0  0
 14  6  1  0  0  0  0
 15  7  1  0  0  0  0
 16  8  1  0  0  0  0
 17 18  1  0  0  0  0
 18 19  2  0  0  0  0
 18  9  1  0  0  0  0
 19 23  1  0  0  0  0
 20 24  1  0  0  0  0
 20 19  1  0  0  0  0
 21 20  2  0  0  0  0
 22 21  1  0  0  0  0
 22 17  2  0  0  0  0
 25 21  1  0  0  0  0
 26 17  1  0  0  0  0
 27 26  1  0  0  0  0
 28 22  1  0  0  0  0
 29 28  1  0  0  0  0
 30 31  1  0  0  0  0
 30 29  1  0  0  0  0
 31 29  1  0  0  0  0
 32 38  1  0  0  0  0
 33 39  1  0  0  0  0
 33 32  2  0  0  0  0
 34 33  1  0  0  0  0
 35 34  2  0  0  0  0
 35 36  1  0  0  0  0
 36 37  2  0  0  0  0
 37 32  1  0  0  0  0
 40 34  1  0  0  0  0
 41 40  1  0  0  0  0
 42 40  1  0  0  0  0
M  END
>  <minimizedAffinity>
-6.4220109

$$$$

 OpenBabel03242521573D

 42 46  0  0  0  0  0  0  0  0999 V2000
   36.6870   26.9970   39.7550 C   0  0  0  0  0  0  0  0  0  0  0  0
   36.6820   25.6050   39.7580 C   0  0  0  0  0  0  0  0  0  0  0  0
   36.8810   24.8430   40.9150 C   0  0  0  0  0  0  0  0  0  0  0  0
   37.0910   25.4520   42.1200 C   0  0  0  0  0  0  0  0  0  0  0  0
   37.1090   26.8560   42.1430 C   0  0  0  0  0  0  0  0  0  0  0  0
   37.3770   27.4280   43.3510 C   0  0  0  0  0  0  0  0  0  0  0  0
   37.4760   28.8200   43.3980 C   0  0  0  0  0  0  0  0  0  0  0  0
   37.2980   29.5640   42.1790 C   0  0  0  0  0  0  0  0  0  0  0  0
   37.0340   28.8390   41.0390 C   0  0  0  0  0  0  0  0  0  0  0  0
   36.9080   27.5270   40.9340 C   0  0  0  0  0  0  0  0  0  0  0  0
   36.5110   25.1000   38.7920 H   0  0  0  0  0  0  0  0  0  0  0  0
   36.8550   23.7700   40.7890 H   0  0  0  0  0  0  0  0  0  0  0  0
   37.2350   24.8340   42.9970 H   0  0  0  0  0  0  0  0  0  0  0  0
   37.5070   26.8190   44.2370 H   0  0  0  0  0  0  0  0  0  0  0  0
   37.6840   29.1960   44.3850 H   0  0  0  0  0  0  0  0  0  0  0  0
   37.4270   30.5810   42.5140 H   0  0  0  0  0  0  0  0  0  0  0  0
   38.7720   29.9370   39.9310 C   0  0  0  0  0  0  0  0  0  0  0  0
   37.3430   29.9630   40.1780 C   0  0  0  0  0  0  0  0  0  0  0  0
   36.7990   31.0650   39.6660 C   0  0  0  0  0  0  0  0  0  0  0  0
   37.4770   32.0610   38.9950 C   0  0  0  0  0  0  0  0  0  0  0  0
   38.8310   32.0130   38.7800 C   0  0  0  0  0  0  0  0  0  0  0  0
   39.4840   30.9130   39.2680 C   0  0  0  0  0  0  0  0  0  0  0  0
   35.7260   30.9970   39.8950 H   0  0  0  0  0  0  0  0  0  0  0  0
   36.7980   32.8570   38.6780 H   0  0  0  0  0  0  0  0  0  0  0  0
   39.1500   32.8860   38.2440 H   0  0  0  0  0  0  0  0  0  0  0  0
   39.6740   28.9110   40.3250 O   0  0  0  0  0  0  0  0  0  0  0  0
   40.1290   28.9170   41.2270 H   0  0  0  0  0  0  0  0  0  0  0  0
   40.8350   30.9170   39.0330 O   0  0  0  0  0  0  0  0  0  0  0  0
   41.5310   30.7000   37.8880 C   0  0  0  0  0  3  0  0  0  0  0  0
   42.6880   29.7100   37.9450 C   0  0  0  0  0  2  0  0  0  0  0  0
   41.4600   29.4120   37.1520 C   0  0  0  0  0  2  0  0  0  0  0  0
   36.1240   28.7570   36.5140 C   0  0  0  0  0  0  0  0  0  0  0  0
   34.7420   29.0460   36.6320 C   0  0  0  0  0  0  0  0  0  0  0  0
   34.1350   28.6460   37.7990 C   0  0  0  0  0  0  0  0  0  0  0  0
   34.9280   28.0320   38.6740 N   0  0  0  0  0  0  0  0  0  0  0  0
   36.2220   27.7440   38.5970 C   0  0  0  0  0  0  0  0  0  0  0  0
   36.7850   28.1300   37.4910 N   0  0  0  0  0  0  0  0  0  0  0  0
   36.6140   29.0690   35.6000 H   0  0  0  0  0  0  0  0  0  0  0  0
   34.1930   29.5500   35.8510 H   0  0  0  0  0  0  0  0  0  0  0  0
   32.7750   28.9240   38.0710 N   0  0  0  0  0  0  0  0  0  0  0  0
   32.0010   28.9650   37.3750 H   0  0  0  0  0  0  0  0  0  0  0  0
   32.3190   29.1290   38.9630 H   0  0  0  0  0  0  0  0  0  0  0  0
  1  2  2  0  0  0  0
  1 10  1  0  0  0  0
  2  3  1  0  0  0  0
  3  4  2  0  0  0  0
  4  5  1  0  0  0  0
  4 13  1  0  0  0  0
  5  6  1  0  0  0  0
  6  7  2  0  0  0  0
  6 14  1  0  0  0  0
  7 15  1  0  0  0  0
  8 16  1  0  0  0  0
  8  7  1  0  0  0  0
  9  8  2  0  0  0  0
 10  9  1  0  0  0  0
 10  5  2  0  0  0  0
 11  2  1  0  0  0  0
 12  3  1  0  0  0  0
 17 18  1  0  0  0  0
 17 26  1  0  0  0  0
 18  9  1  0  0  0  0
 19 23  1  0  0  0  0
 19 18  2  0  0  0  0
 20 19  1  0  0  0  0
 21 20  2  0  0  0  0
 21 22  1  0  0  0  0
 22 17  2  0  0  0  0
 24 20  1  0  0  0  0
 25 21  1  0  0  0  0
 26 27  1  0  0  0  0
 28 22  1  0  0  0  0
 29 30  1  0  0  0  0
 29 28  1  0  0  0  0
 31 29  1  0  0  0  0
 31 30  1  0  0  0  0
 32 33  2  0  0  0  0
 32 37  1  0  0  0  0
 33 34  1  0  0  0  0
 34 40  1  0  0  0  0
 34 35  2  0  0  0  0
 36 35  1  0  0  0  0
 36  1  1  0  0  0  0
 37 36  2  0  0  0  0
 38 32  1  0  0  0  0
 39 33  1  0  0  0  0
 40 42  1  0  0  0  0
 41 40  1  0  0  0  0
M  END
>  <minimizedAffinity>
-6.38207006

$$$$

 OpenBabel03242521573D

 42 46  0  0  0  0  0  0  0  0999 V2000
   37.6030   29.2960   37.8100 C   0  0  0  0  0  0  0  0  0  0  0  0
   37.7720   29.1050   36.4420 C   0  0  0  0  0  0  0  0  0  0  0  0
   36.7040   28.9050   35.5610 C   0  0  0  0  0  0  0  0  0  0  0  0
   35.4160   28.8910   36.0210 C   0  0  0  0  0  0  0  0  0  0  0  0
   35.2200   29.0740   37.3990 C   0  0  0  0  0  0  0  0  0  0  0  0
   33.9280   29.0000   37.8300 C   0  0  0  0  0  0  0  0  0  0  0  0
   33.7000   29.1030   39.2050 C   0  0  0  0  0  0  0  0  0  0  0  0
   34.8300   29.2740   40.0790 C   0  0  0  0  0  0  0  0  0  0  0  0
   36.0720   29.3300   39.4890 C   0  0  0  0  0  0  0  0  0  0  0  0
   36.3510   29.2590   38.1980 C   0  0  0  0  0  0  0  0  0  0  0  0
   38.8060   29.1150   36.0560 H   0  0  0  0  0  0  0  0  0  0  0  0
   36.9620   28.7670   34.5200 H   0  0  0  0  0  0  0  0  0  0  0  0
   34.6130   28.7410   35.3130 H   0  0  0  0  0  0  0  0  0  0  0  0
   33.1150   28.8650   37.1280 H   0  0  0  0  0  0  0  0  0  0  0  0
   32.6580   29.0400   39.4650 H   0  0  0  0  0  0  0  0  0  0  0  0
   34.3600   29.3210   41.0490 H   0  0  0  0  0  0  0  0  0  0  0  0
   36.8000   27.6730   40.9650 C   0  0  0  0  0  0  0  0  0  0  0  0
   36.7510   29.1070   40.7500 C   0  0  0  0  0  0  0  0  0  0  0  0
   37.2050   29.7580   41.8190 C   0  0  0  0  0  0  0  0  0  0  0  0
   37.6580   29.1750   42.9830 C   0  0  0  0  0  0  0  0  0  0  0  0
   37.6890   27.8150   43.1620 C   0  0  0  0  0  0  0  0  0  0  0  0
   37.2440   27.0550   42.1140 C   0  0  0  0  0  0  0  0  0  0  0  0
   37.1340   30.8250   41.5650 H   0  0  0  0  0  0  0  0  0  0  0  0
   37.9740   29.9310   43.7070 H   0  0  0  0  0  0  0  0  0  0  0  0
   38.0740   27.5800   44.1350 H   0  0  0  0  0  0  0  0  0  0  0  0
   36.4040   26.6710   40.0390 O   0  0  0  0  0  0  0  0  0  0  0  0
   35.4530   26.3330   39.9910 H   0  0  0  0  0  0  0  0  0  0  0  0
   37.2890   25.7050   42.3460 O   0  0  0  0  0  0  0  0  0  0  0  0
   38.3330   24.8390   42.3110 C   0  0  0  0  0  3  0  0  0  0  0  0
   38.2970   23.7360   41.2610 C   0  0  0  0  0  2  0  0  0  0  0  0
   39.3130   24.8270   41.1950 C   0  0  0  0  0  2  0  0  0  0  0  0
   40.6090   29.7990   39.9620 C   0  0  0  0  0  0  0  0  0  0  0  0
   40.6790   31.2130   39.9540 C   0  0  0  0  0  0  0  0  0  0  0  0
   39.6960   31.8660   39.2490 C   0  0  0  0  0  0  0  0  0  0  0  0
   38.7990   31.0810   38.6570 N   0  0  0  0  0  0  0  0  0  0  0  0
   38.7040   29.7560   38.6420 C   0  0  0  0  0  0  0  0  0  0  0  0
   39.6360   29.1500   39.3150 N   0  0  0  0  0  0  0  0  0  0  0  0
   41.3770   29.2720   40.5150 H   0  0  0  0  0  0  0  0  0  0  0  0
   41.4600   31.7520   40.4700 H   0  0  0  0  0  0  0  0  0  0  0  0
   39.6140   33.2780   39.2090 N   0  0  0  0  0  0  0  0  0  0  0  0
   40.4140   33.9440   39.2190 H   0  0  0  0  0  0  0  0  0  0  0  0
   38.7880   33.8800   39.1640 H   0  0  0  0  0  0  0  0  0  0  0  0
  1 10  1  0  0  0  0
  1 36  1  0  0  0  0
  2  1  2  0  0  0  0
  3  4  2  0  0  0  0
  3  2  1  0  0  0  0
  4  5  1  0  0  0  0
  5  6  2  0  0  0  0
  5 10  1  0  0  0  0
  6  7  1  0  0  0  0
  7 15  1  0  0  0  0
  7  8  2  0  0  0  0
  8 16  1  0  0  0  0
  9  8  1  0  0  0  0
  9 18  1  0  0  0  0
 10  9  2  0  0  0  0
 11  2  1  0  0  0  0
 12  3  1  0  0  0  0
 13  4  1  0  0  0  0
 14  6  1  0  0  0  0
 17 22  1  0  0  0  0
 18 17  2  0  0  0  0
 18 19  1  0  0  0  0
 19 20  2  0  0  0  0
 20 21  1  0  0  0  0
 20 24  1  0  0  0  0
 21 25  1  0  0  0  0
 22 28  1  0  0  0  0
 22 21  2  0  0  0  0
 23 19  1  0  0  0  0
 26 17  1  0  0  0  0
 27 26  1  0  0  0  0
 29 28  1  0  0  0  0
 30 29  1  0  0  0  0
 31 30  1  0  0  0  0
 31 29  1  0  0  0  0
 32 38  1  0  0  0  0
 33 32  1  0  0  0  0
 33 39  1  0  0  0  0
 34 33  2  0  0  0  0
 35 34  1  0  0  0  0
 36 35  2  0  0  0  0
 36 37  1  0  0  0  0
 37 32  2  0  0  0  0
 40 41  1  0  0  0  0
 40 34  1  0  0  0  0
 42 40  1  0  0  0  0
M  END
>  <minimizedAffinity>
-6.36546612

$$$$

 OpenBabel03242521573D

 42 46  0  0  0  0  0  0  0  0999 V2000
   37.6440   26.4980   40.5460 C   0  0  0  0  0  0  0  0  0  0  0  0
   36.7080   25.4760   40.4190 C   0  0  0  0  0  0  0  0  0  0  0  0
   36.7150   24.3300   41.2220 C   0  0  0  0  0  0  0  0  0  0  0  0
   37.6650   24.1660   42.1910 C   0  0  0  0  0  0  0  0  0  0  0  0
   38.6260   25.1800   42.3340 C   0  0  0  0  0  0  0  0  0  0  0  0
   39.5900   24.9570   43.2720 C   0  0  0  0  0  0  0  0  0  0  0  0
   40.6050   25.9100   43.3920 C   0  0  0  0  0  0  0  0  0  0  0  0
   40.5790   27.0560   42.5230 C   0  0  0  0  0  0  0  0  0  0  0  0
   39.5380   27.1360   41.6270 C   0  0  0  0  0  0  0  0  0  0  0  0
   38.5390   26.2820   41.4790 C   0  0  0  0  0  0  0  0  0  0  0  0
   35.9340   25.5950   39.6410 H   0  0  0  0  0  0  0  0  0  0  0  0
   35.9370   23.6060   41.0270 H   0  0  0  0  0  0  0  0  0  0  0  0
   37.6390   23.2720   42.7990 H   0  0  0  0  0  0  0  0  0  0  0  0
   39.5640   24.0730   43.8960 H   0  0  0  0  0  0  0  0  0  0  0  0
   41.3240   25.6660   44.1550 H   0  0  0  0  0  0  0  0  0  0  0  0
   41.4580   27.5970   42.8370 H   0  0  0  0  0  0  0  0  0  0  0  0
   39.8170   29.4420   41.3850 C   0  0  0  0  0  0  0  0  0  0  0  0
   40.2080   28.1540   40.8430 C   0  0  0  0  0  0  0  0  0  0  0  0
   40.9270   28.3110   39.7340 C   0  0  0  0  0  0  0  0  0  0  0  0
   41.2620   29.5170   39.1560 C   0  0  0  0  0  0  0  0  0  0  0  0
   40.8750   30.7210   39.6870 C   0  0  0  0  0  0  0  0  0  0  0  0
   40.1300   30.6660   40.8350 C   0  0  0  0  0  0  0  0  0  0  0  0
   41.1790   27.2940   39.4010 H   0  0  0  0  0  0  0  0  0  0  0  0
   41.8570   29.3700   38.2500 H   0  0  0  0  0  0  0  0  0  0  0  0
   41.2400   31.5270   39.0800 H   0  0  0  0  0  0  0  0  0  0  0  0
   39.0520   29.6600   42.5630 O   0  0  0  0  0  0  0  0  0  0  0  0
   38.0420   29.6930   42.5470 H   0  0  0  0  0  0  0  0  0  0  0  0
   39.7630   31.8940   41.3200 O   0  0  0  0  0  0  0  0  0  0  0  0
   38.7160   32.6940   40.9940 C   0  0  0  0  0  3  0  0  0  0  0  0
   39.0130   34.1610   40.7090 C   0  0  0  0  0  2  0  0  0  0  0  0
   38.5400   33.2490   39.6270 C   0  0  0  0  0  2  0  0  0  0  0  0
   37.4120   29.4490   38.2750 C   0  0  0  0  0  0  0  0  0  0  0  0
   36.6540   30.3240   39.0900 C   0  0  0  0  0  0  0  0  0  0  0  0
   36.3140   29.8510   40.3360 C   0  0  0  0  0  0  0  0  0  0  0  0
   36.7410   28.6230   40.6180 N   0  0  0  0  0  0  0  0  0  0  0  0
   37.4500   27.7770   39.8790 C   0  0  0  0  0  0  0  0  0  0  0  0
   37.7680   28.2350   38.7060 N   0  0  0  0  0  0  0  0  0  0  0  0
   37.6870   29.8100   37.2920 H   0  0  0  0  0  0  0  0  0  0  0  0
   36.3560   31.3070   38.7560 H   0  0  0  0  0  0  0  0  0  0  0  0
   35.6100   30.6450   41.2730 N   0  0  0  0  0  0  0  0  0  0  0  0
   34.8820   31.3570   41.0560 H   0  0  0  0  0  0  0  0  0  0  0  0
   35.6830   30.6650   42.2930 H   0  0  0  0  0  0  0  0  0  0  0  0
  1 10  1  0  0  0  0
  2  1  2  0  0  0  0
  2  3  1  0  0  0  0
  3  4  2  0  0  0  0
  4  5  1  0  0  0  0
  4 13  1  0  0  0  0
  5  6  1  0  0  0  0
  6  7  2  0  0  0  0
  6 14  1  0  0  0  0
  7 15  1  0  0  0  0
  8 16  1  0  0  0  0
  8  7  1  0  0  0  0
  9  8  2  0  0  0  0
 10  9  1  0  0  0  0
 10  5  2  0  0  0  0
 11  2  1  0  0  0  0
 12  3  1  0  0  0  0
 17 26  1  0  0  0  0
 18 17  1  0  0  0  0
 18  9  1  0  0  0  0
 19 18  2  0  0  0  0
 20 21  2  0  0  0  0
 20 19  1  0  0  0  0
 21 22  1  0  0  0  0
 22 28  1  0  0  0  0
 22 17  2  0  0  0  0
 23 19  1  0  0  0  0
 24 20  1  0  0  0  0
 25 21  1  0  0  0  0
 27 26  1  0  0  0  0
 29 28  1  0  0  0  0
 30 29  1  0  0  0  0
 31 30  1  0  0  0  0
 31 29  1  0  0  0  0
 32 37  2  0  0  0  0
 32 33  1  0  0  0  0
 33 34  2  0  0  0  0
 34 35  1  0  0  0  0
 34 40  1  0  0  0  0
 36  1  1  0  0  0  0
 36 35  2  0  0  0  0
 37 36  1  0  0  0  0
 38 32  1  0  0  0  0
 39 33  1  0  0  0  0
 40 42  1  0  0  0  0
 41 40  1  0  0  0  0
M  END
>  <minimizedAffinity>
-6.35385895

$$$$

 OpenBabel03242521573D

 42 46  0  0  0  0  0  0  0  0999 V2000
   37.5290   26.1640   41.3760 C   0  0  0  0  0  0  0  0  0  0  0  0
   37.7110   24.9320   41.9970 C   0  0  0  0  0  0  0  0  0  0  0  0
   37.2650   23.7250   41.4450 C   0  0  0  0  0  0  0  0  0  0  0  0
   36.6180   23.7090   40.2410 C   0  0  0  0  0  0  0  0  0  0  0  0
   36.4160   24.9410   39.5980 C   0  0  0  0  0  0  0  0  0  0  0  0
   35.7190   24.8920   38.4260 C   0  0  0  0  0  0  0  0  0  0  0  0
   35.4340   26.1060   37.7950 C   0  0  0  0  0  0  0  0  0  0  0  0
   35.8810   27.3250   38.4150 C   0  0  0  0  0  0  0  0  0  0  0  0
   36.5720   27.2060   39.5980 C   0  0  0  0  0  0  0  0  0  0  0  0
   36.8910   26.0910   40.2330 C   0  0  0  0  0  0  0  0  0  0  0  0
   38.2320   24.9290   42.9700 H   0  0  0  0  0  0  0  0  0  0  0  0
   37.4640   22.8340   42.0230 H   0  0  0  0  0  0  0  0  0  0  0  0
   36.2930   22.7590   39.8380 H   0  0  0  0  0  0  0  0  0  0  0  0
   35.4020   23.9460   38.0080 H   0  0  0  0  0  0  0  0  0  0  0  0
   34.8880   25.9850   36.8760 H   0  0  0  0  0  0  0  0  0  0  0  0
   35.5270   28.0730   37.7210 H   0  0  0  0  0  0  0  0  0  0  0  0
   37.5370   29.3180   39.3460 C   0  0  0  0  0  0  0  0  0  0  0  0
   36.4030   28.6110   39.9110 C   0  0  0  0  0  0  0  0  0  0  0  0
   35.6560   29.4340   40.6440 C   0  0  0  0  0  0  0  0  0  0  0  0
   35.9050   30.7730   40.8580 C   0  0  0  0  0  0  0  0  0  0  0  0
   36.9890   31.4150   40.3150 C   0  0  0  0  0  0  0  0  0  0  0  0
   37.8200   30.6530   39.5390 C   0  0  0  0  0  0  0  0  0  0  0  0
   34.8280   28.8180   41.0240 H   0  0  0  0  0  0  0  0  0  0  0  0
   35.1400   31.2200   41.4990 H   0  0  0  0  0  0  0  0  0  0  0  0
   36.9920   32.4470   40.6090 H   0  0  0  0  0  0  0  0  0  0  0  0
   38.5390   28.7620   38.5050 O   0  0  0  0  0  0  0  0  0  0  0  0
   39.3720   28.3300   38.8800 H   0  0  0  0  0  0  0  0  0  0  0  0
   38.8900   31.3400   39.0270 O   0  0  0  0  0  0  0  0  0  0  0  0
   40.0720   31.6830   39.5980 C   0  0  0  0  0  3  0  0  0  0  0  0
   40.8100   32.8850   39.0220 C   0  0  0  0  0  2  0  0  0  0  0  0
   40.2340   32.9250   40.3970 C   0  0  0  0  0  2  0  0  0  0  0  0
   38.7990   29.2450   43.0540 C   0  0  0  0  0  0  0  0  0  0  0  0
   40.0760   29.3410   42.4500 C   0  0  0  0  0  0  0  0  0  0  0  0
   40.3810   28.3780   41.5170 C   0  0  0  0  0  0  0  0  0  0  0  0
   39.4320   27.4710   41.3010 N   0  0  0  0  0  0  0  0  0  0  0  0
   38.2280   27.3490   41.8480 C   0  0  0  0  0  0  0  0  0  0  0  0
   37.9500   28.2660   42.7250 N   0  0  0  0  0  0  0  0  0  0  0  0
   38.5460   29.9980   43.7900 H   0  0  0  0  0  0  0  0  0  0  0  0
   40.7740   30.1240   42.7060 H   0  0  0  0  0  0  0  0  0  0  0  0
   41.5980   28.3920   40.7950 N   0  0  0  0  0  0  0  0  0  0  0  0
   42.5220   28.7150   41.1480 H   0  0  0  0  0  0  0  0  0  0  0  0
   41.7860   28.1000   39.8330 H   0  0  0  0  0  0  0  0  0  0  0  0
  1 36  1  0  0  0  0
  1  2  1  0  0  0  0
  2 11  1  0  0  0  0
  3  2  2  0  0  0  0
  3 12  1  0  0  0  0
  4  3  1  0  0  0  0
  5 10  1  0  0  0  0
  5  4  2  0  0  0  0
  6  5  1  0  0  0  0
  7  8  1  0  0  0  0
  7  6  2  0  0  0  0
  8  9  2  0  0  0  0
  9 18  1  0  0  0  0
  9 10  1  0  0  0  0
 10  1  2  0  0  0  0
 13  4  1  0  0  0  0
 14  6  1  0  0  0  0
 15  7  1  0  0  0  0
 16  8  1  0  0  0  0
 17 22  2  0  0  0  0
 17 18  1  0  0  0  0
 18 19  2  0  0  0  0
 19 20  1  0  0  0  0
 19 23  1  0  0  0  0
 20 24  1  0  0  0  0
 21 25  1  0  0  0  0
 21 20  2  0  0  0  0
 22 21  1  0  0  0  0
 26 27  1  0  0  0  0
 26 17  1  0  0  0  0
 28 22  1  0  0  0  0
 28 29  1  0  0  0  0
 29 31  1  0  0  0  0
 30 29  1  0  0  0  0
 30 31  1  0  0  0  0
 32 38  1  0  0  0  0
 33 39  1  0  0  0  0
 33 32  2  0  0  0  0
 34 33  1  0  0  0  0
 35 34  2  0  0  0  0
 35 36  1  0  0  0  0
 36 37  2  0  0  0  0
 37 32  1  0  0  0  0
 40 41  1  0  0  0  0
 40 34  1  0  0  0  0
 42 40  1  0  0  0  0
M  END
>  <minimizedAffinity>
-6.18804407

$$$$

 OpenBabel03242521573D

 42 46  0  0  0  0  0  0  0  0999 V2000
   37.3730   26.6930   41.0590 C   0  0  0  0  0  0  0  0  0  0  0  0
   37.1040   25.9160   42.1820 C   0  0  0  0  0  0  0  0  0  0  0  0
   36.8970   24.5340   42.1230 C   0  0  0  0  0  0  0  0  0  0  0  0
   36.9540   23.8720   40.9280 C   0  0  0  0  0  0  0  0  0  0  0  0
   37.2160   24.6350   39.7780 C   0  0  0  0  0  0  0  0  0  0  0  0
   37.2110   23.9510   38.5980 C   0  0  0  0  0  0  0  0  0  0  0  0
   37.3930   24.6880   37.4260 C   0  0  0  0  0  0  0  0  0  0  0  0
   37.5690   26.1130   37.5290 C   0  0  0  0  0  0  0  0  0  0  0  0
   37.5490   26.6540   38.7930 C   0  0  0  0  0  0  0  0  0  0  0  0
   37.4010   26.0100   39.9390 C   0  0  0  0  0  0  0  0  0  0  0  0
   37.0570   26.4360   43.1540 H   0  0  0  0  0  0  0  0  0  0  0  0
   36.6960   24.0410   43.0640 H   0  0  0  0  0  0  0  0  0  0  0  0
   36.7960   22.8020   40.9180 H   0  0  0  0  0  0  0  0  0  0  0  0
   37.0690   22.8790   38.5790 H   0  0  0  0  0  0  0  0  0  0  0  0
   37.3820   24.0790   36.5380 H   0  0  0  0  0  0  0  0  0  0  0  0
   37.6840   26.4010   36.4950 H   0  0  0  0  0  0  0  0  0  0  0  0
   38.6880   28.5800   38.1270 C   0  0  0  0  0  0  0  0  0  0  0  0
   37.3680   27.9980   38.2840 C   0  0  0  0  0  0  0  0  0  0  0  0
   36.4240   28.9080   38.0530 C   0  0  0  0  0  0  0  0  0  0  0  0
   36.6420   30.2270   37.7160 C   0  0  0  0  0  0  0  0  0  0  0  0
   37.9020   30.7530   37.5790 C   0  0  0  0  0  0  0  0  0  0  0  0
   38.9450   29.8930   37.7950 C   0  0  0  0  0  0  0  0  0  0  0  0
   35.4690   28.3810   38.1890 H   0  0  0  0  0  0  0  0  0  0  0  0
   35.6980   30.7630   37.5820 H   0  0  0  0  0  0  0  0  0  0  0  0
   37.8410   31.7920   37.3170 H   0  0  0  0  0  0  0  0  0  0  0  0
   39.9280   27.9050   38.2880 O   0  0  0  0  0  0  0  0  0  0  0  0
   40.3880   27.8380   39.1850 H   0  0  0  0  0  0  0  0  0  0  0  0
   40.1800   30.4690   37.6530 O   0  0  0  0  0  0  0  0  0  0  0  0
   40.5300   31.7640   37.4440 C   0  0  0  0  0  3  0  0  0  0  0  0
   41.3420   32.4580   38.5310 C   0  0  0  0  0  2  0  0  0  0  0  0
   41.9350   32.1740   37.1920 C   0  0  0  0  0  2  0  0  0  0  0  0
   39.1940   29.9420   41.2690 C   0  0  0  0  0  0  0  0  0  0  0  0
   38.0950   30.8330   41.3210 C   0  0  0  0  0  0  0  0  0  0  0  0
   36.8460   30.2590   41.3070 C   0  0  0  0  0  0  0  0  0  0  0  0
   36.8280   28.9290   41.2430 N   0  0  0  0  0  0  0  0  0  0  0  0
   37.8360   28.0650   41.1910 C   0  0  0  0  0  0  0  0  0  0  0  0
   39.0110   28.6190   41.2090 N   0  0  0  0  0  0  0  0  0  0  0  0
   40.1840   30.3820   41.2810 H   0  0  0  0  0  0  0  0  0  0  0  0
   38.2260   31.9040   41.3680 H   0  0  0  0  0  0  0  0  0  0  0  0
   35.6640   31.0300   41.4140 N   0  0  0  0  0  0  0  0  0  0  0  0
   35.5150   31.9880   41.0350 H   0  0  0  0  0  0  0  0  0  0  0  0
   34.7760   30.7980   41.8650 H   0  0  0  0  0  0  0  0  0  0  0  0
  1 36  1  0  0  0  0
  1  2  1  0  0  0  0
  2 11  1  0  0  0  0
  3  2  2  0  0  0  0
  3 12  1  0  0  0  0
  4  3  1  0  0  0  0
  5 10  1  0  0  0  0
  5  4  2  0  0  0  0
  6  5  1  0  0  0  0
  7  8  1  0  0  0  0
  7  6  2  0  0  0  0
  8  9  2  0  0  0  0
  9 10  1  0  0  0  0
 10  1  2  0  0  0  0
 13  4  1  0  0  0  0
 14  6  1  0  0  0  0
 15  7  1  0  0  0  0
 16  8  1  0  0  0  0
 17 18  1  0  0  0  0
 17 26  1  0  0  0  0
 18  9  1  0  0  0  0
 19 23  1  0  0  0  0
 19 18  2  0  0  0  0
 20 19  1  0  0  0  0
 21 20  2  0  0  0  0
 21 22  1  0  0  0  0
 22 17  2  0  0  0  0
 24 20  1  0  0  0  0
 25 21  1  0  0  0  0
 26 27  1  0  0  0  0
 28 22  1  0  0  0  0
 29 28  1  0  0  0  0
 29 30  1  0  0  0  0
 31 29  1  0  0  0  0
 31 30  1  0  0  0  0
 32 38  1  0  0  0  0
 32 33  1  0  0  0  0
 33 39  1  0  0  0  0
 34 33  2  0  0  0  0
 34 40  1  0  0  0  0
 35 34  1  0  0  0  0
 36 37  1  0  0  0  0
 36 35  2  0  0  0  0
 37 32  2  0  0  0  0
 40 42  1  0  0  0  0
 41 40  1  0  0  0  0
M  END
>  <minimizedAffinity>
-6.14076328

$$$$
