
 OpenBabel03242523163D

 21 24  0  0  1  0  0  0  0  0999 V2000
   46.1120   34.4670   43.9070 C   0  0  0  0  0  0  0  0  0  0  0  0
   47.1930   33.7920   43.4380 C   0  0  0  0  0  0  0  0  0  0  0  0
   47.6310   32.7310   44.2100 C   0  0  0  0  0  0  0  0  0  0  0  0
   46.9410   32.4470   45.3870 N   0  0  0  0  0  0  0  0  0  0  0  0
   45.8880   33.1450   45.7950 C   0  0  0  0  0  0  0  0  0  0  0  0
   45.4260   34.2060   45.0510 N   0  0  0  0  0  0  0  0  0  0  0  0
   48.4800   32.1220   43.9400 H   0  0  0  0  0  0  0  0  0  0  0  0
   45.5130   32.7470   46.7320 H   0  0  0  0  0  0  0  0  0  0  0  0
   47.9340   34.1330   42.2800 C   0  0  0  0  0  0  0  0  0  0  0  0
   48.1940   35.3330   41.7030 C   0  0  0  0  0  0  0  0  0  0  0  0
   49.3880   34.7530   42.4520 C   0  0  0  0  0  0  0  0  0  0  0  0
   48.2790   33.1230   41.7750 H   0  0  0  0  0  0  0  0  0  0  0  0
   48.3180   35.4990   40.5930 H   0  0  0  0  0  0  0  0  0  0  0  0
   47.8800   36.3070   42.1750 H   0  0  0  0  0  0  0  0  0  0  0  0
   49.6140   35.0940   43.4780 H   0  0  0  0  0  0  0  0  0  0  0  0
   50.1850   34.4260   41.8060 H   0  0  0  0  0  0  0  0  0  0  0  0
   45.3920   35.5350   43.2630 C   0  0  2  0  0  0  0  0  0  0  0  0
   45.0610   36.6910   43.0720 O   0  0  0  0  0  0  0  0  0  0  0  0
   44.3850   35.6890   42.1630 C   0  0  0  0  0  0  0  0  0  0  0  0
   43.4450   34.5220   42.0160 C   0  0  0  0  0  0  0  0  0  0  0  0
   44.4070   34.8590   40.9490 C   0  0  0  0  0  0  0  0  0  0  0  0
  1  6  1  0  0  0  0
  2  1  2  0  0  0  0
  2  3  1  0  0  0  0
  3  4  2  0  0  0  0
  4  5  1  0  0  0  0
  5  8  1  0  0  0  0
  6  5  2  0  0  0  0
  7  3  1  0  0  0  0
  9 11  1  0  0  0  0
  9  2  1  0  0  0  0
 10 14  1  0  0  0  0
 10  9  1  0  0  0  0
 10 11  1  0  0  0  0
 11 15  1  0  0  0  0
 12  9  1  0  0  0  0
 13 10  1  0  0  0  0
 16 11  1  0  0  0  0
 17  1  1  1  0  0  0
 18 17  1  0  0  0  0
 19 18  1  0  0  0  0
 19 17  1  0  0  0  0
 20 19  1  0  0  0  0
 21 20  1  0  0  0  0
 21 19  1  0  0  0  0
M  END
>  <minimizedAffinity>
-4.23703194

>  <minimizedRMSD>
0.870970011

$$$$
