
 OpenBabel03252508143D

 31 34  0  0  1  0  0  0  0  0999 V2000
   47.1470   31.0870   46.7880 C   0  0  0  0  0  0  0  0  0  0  0  0
   46.4190   30.2740   46.5850 H   0  0  0  0  0  0  0  0  0  0  0  0
   48.1860   30.7560   46.7530 H   0  0  0  0  0  0  0  0  0  0  0  0
   46.8020   31.6670   48.1390 C   0  0  1  0  0  0  0  0  0  0  0  0
   46.2140   30.7240   49.1280 C   0  0  0  0  0  0  0  0  0  0  0  0
   47.5590   31.2250   49.3350 C   0  0  1  0  0  0  0  0  0  0  0  0
   46.4690   32.7250   48.1560 H   0  0  0  0  0  0  0  0  0  0  0  0
   46.0550   29.6680   48.8250 H   0  0  0  0  0  0  0  0  0  0  0  0
   45.3650   31.1020   49.7570 H   0  0  0  0  0  0  0  0  0  0  0  0
   47.6550   31.9760   50.1780 H   0  0  0  0  0  0  0  0  0  0  0  0
   48.8030   30.4490   49.1250 C   0  0  0  0  0  0  0  0  0  0  0  0
   49.6590   30.2550   50.4040 C   0  0  0  0  0  0  0  0  0  0  0  0
   50.1260   31.1940   49.3610 C   0  0  0  0  0  0  0  0  0  0  0  0
   48.8290   29.6210   48.3870 H   0  0  0  0  0  0  0  0  0  0  0  0
   49.2100   30.5700   51.3530 H   0  0  0  0  0  0  0  0  0  0  0  0
   50.1840   29.2680   50.4420 H   0  0  0  0  0  0  0  0  0  0  0  0
   50.0130   32.2770   49.6500 H   0  0  0  0  0  0  0  0  0  0  0  0
   50.9750   30.9050   48.7280 H   0  0  0  0  0  0  0  0  0  0  0  0
   46.1080   33.0800   46.0380 C   0  0  0  0  0  3  0  0  0  0  0  0
   46.8770   32.1190   45.7000 C   0  0  0  0  0  3  0  0  0  0  0  0
   44.5140   35.9210   44.3220 C   0  0  0  0  0  0  0  0  0  0  0  0
   45.1920   35.9870   43.1120 C   0  0  0  0  0  0  0  0  0  0  0  0
   46.1970   35.0550   42.9170 C   0  0  0  0  0  0  0  0  0  0  0  0
   46.4480   34.1640   43.8850 N   0  0  0  0  0  0  0  0  0  0  0  0
   45.7880   34.1050   45.0490 C   0  0  0  0  0  0  0  0  0  0  0  0
   44.8260   34.9950   45.2430 N   0  0  0  0  0  0  0  0  0  0  0  0
   43.7260   36.6450   44.4850 H   0  0  0  0  0  0  0  0  0  0  0  0
   44.9720   36.7090   42.3580 H   0  0  0  0  0  0  0  0  0  0  0  0
   46.9780   35.0670   41.6310 C   0  0  0  0  0  3  0  0  0  0  0  0
   47.8240   33.7690   41.4520 C   0  0  0  0  0  2  0  0  0  0  0  0
   46.6640   34.1340   40.5470 C   0  0  0  0  0  2  0  0  0  0  0  0
  1  4  1  0  0  0  0
  2  1  1  0  0  0  0
  3  1  1  0  0  0  0
  4  7  1  1  0  0  0
  4  5  1  0  0  0  0
  4  6  1  0  0  0  0
  5  6  1  0  0  0  0
  5  9  1  0  0  0  0
  6 10  1  1  0  0  0
  8  5  1  0  0  0  0
 11  6  1  0  0  0  0
 11 13  1  0  0  0  0
 11 12  1  0  0  0  0
 12 16  1  0  0  0  0
 12 15  1  0  0  0  0
 13 17  1  0  0  0  0
 13 12  1  0  0  0  0
 14 11  1  0  0  0  0
 18 13  1  0  0  0  0
 20 19  2  0  0  0  0
 20  1  1  0  0  0  0
 21 27  1  0  0  0  0
 21 26  1  0  0  0  0
 22 21  2  0  0  0  0
 23 22  1  0  0  0  0
 23 24  2  0  0  0  0
 24 25  1  0  0  0  0
 25 26  2  0  0  0  0
 25 19  1  0  0  0  0
 28 22  1  0  0  0  0
 29 23  1  0  0  0  0
 30 29  1  0  0  0  0
 31 30  1  0  0  0  0
 31 29  1  0  0  0  0
M  END
>  <minimizedAffinity>
-5.07596445

>  <minimizedRMSD>
0.367052823

$$$$
