
 OpenBabel03252504233D

 26 29  0  0  0  0  0  0  0  0999 V2000
   39.0820   26.8610   42.8040 C   0  0  0  0  0  0  0  0  0  0  0  0
   38.1490   27.4260   43.6770 C   0  0  0  0  0  0  0  0  0  0  0  0
   37.7180   28.7420   43.4300 C   0  0  0  0  0  0  0  0  0  0  0  0
   38.2400   29.3840   42.3490 N   0  0  0  0  0  0  0  0  0  0  0  0
   39.1430   28.7950   41.5270 C   0  0  0  0  0  0  0  0  0  0  0  0
   39.5630   27.5490   41.7490 N   0  0  0  0  0  0  0  0  0  0  0  0
   39.6280   29.5510   40.4180 N   0  0  0  0  0  0  0  0  0  0  0  0
   40.9220   29.6380   40.0210 C   0  0  0  0  0  0  0  0  0  0  0  0
   40.9760   30.4530   38.9280 N   0  0  0  0  0  0  0  0  0  0  0  0
   39.7230   30.8450   38.6820 C   0  0  0  0  0  0  0  0  0  0  0  0
   39.1410   31.6610   37.7280 C   0  0  0  0  0  0  0  0  0  0  0  0
   37.8320   31.9020   37.6930 N   0  0  0  0  0  0  0  0  0  0  0  0
   36.9920   31.3630   38.5920 C   0  0  0  0  0  0  0  0  0  0  0  0
   37.5570   30.5700   39.5180 N   0  0  0  0  0  0  0  0  0  0  0  0
   38.8590   30.2930   39.6030 C   0  0  0  0  0  0  0  0  0  0  0  0
   37.7430   26.8930   44.5380 H   0  0  0  0  0  0  0  0  0  0  0  0
   37.0000   29.1850   44.0980 H   0  0  0  0  0  0  0  0  0  0  0  0
   41.7500   29.1310   40.5170 H   0  0  0  0  0  0  0  0  0  0  0  0
   35.9300   31.5630   38.5600 H   0  0  0  0  0  0  0  0  0  0  0  0
   39.9320   32.2860   36.7290 N   0  0  0  0  0  0  0  0  0  0  0  0
   40.5750   31.6090   36.2470 H   0  0  0  0  0  0  0  0  0  0  0  0
   39.9050   33.3070   36.4730 H   0  0  0  0  0  0  0  0  0  0  0  0
   39.5940   25.1650   43.1800 S   0  0  0  0  0  0  0  0  0  0  0  0
   38.6000   24.0490   42.1630 C   0  0  0  0  0  3  0  0  0  0  0  0
   37.1810   24.3920   41.8860 C   0  0  0  0  0  2  0  0  0  0  0  0
   38.2230   24.4200   40.7820 C   0  0  0  0  0  2  0  0  0  0  0  0
  1 23  1  0  0  0  0
  1  2  1  0  0  0  0
  2 16  1  0  0  0  0
  3  2  2  0  0  0  0
  3 17  1  0  0  0  0
  4  3  1  0  0  0  0
  5  6  1  0  0  0  0
  5  4  2  0  0  0  0
  6  1  2  0  0  0  0
  7  5  1  0  0  0  0
  8  7  1  0  0  0  0
  8 18  1  0  0  0  0
  9  8  2  0  0  0  0
 10  9  1  0  0  0  0
 10 15  1  0  0  0  0
 11 10  2  0  0  0  0
 12 11  1  0  0  0  0
 12 13  2  0  0  0  0
 13 14  1  0  0  0  0
 14 15  2  0  0  0  0
 15  7  1  0  0  0  0
 19 13  1  0  0  0  0
 20 11  1  0  0  0  0
 21 20  1  0  0  0  0
 22 20  1  0  0  0  0
 24 23  1  0  0  0  0
 25 24  1  0  0  0  0
 26 25  1  0  0  0  0
 26 24  1  0  0  0  0
M  END
>  <minimizedAffinity>
-5.42304325

$$$$

 OpenBabel03252504233D

 26 29  0  0  0  0  0  0  0  0999 V2000
   38.4120   26.3980   42.2850 C   0  0  0  0  0  0  0  0  0  0  0  0
   37.0930   26.4550   42.7430 C   0  0  0  0  0  0  0  0  0  0  0  0
   36.5180   27.7200   42.9620 C   0  0  0  0  0  0  0  0  0  0  0  0
   37.2880   28.8140   42.7130 N   0  0  0  0  0  0  0  0  0  0  0  0
   38.5640   28.7120   42.2670 C   0  0  0  0  0  0  0  0  0  0  0  0
   39.1240   27.5210   42.0550 N   0  0  0  0  0  0  0  0  0  0  0  0
   39.2880   29.9190   42.0320 N   0  0  0  0  0  0  0  0  0  0  0  0
   40.5690   30.1640   42.4040 C   0  0  0  0  0  0  0  0  0  0  0  0
   40.8940   31.4250   41.9990 N   0  0  0  0  0  0  0  0  0  0  0  0
   39.8130   31.9220   41.3930 C   0  0  0  0  0  0  0  0  0  0  0  0
   39.5240   33.1300   40.7840 C   0  0  0  0  0  0  0  0  0  0  0  0
   38.3380   33.3910   40.2360 N   0  0  0  0  0  0  0  0  0  0  0  0
   37.3440   32.4870   40.2450 C   0  0  0  0  0  0  0  0  0  0  0  0
   37.6260   31.3140   40.8360 N   0  0  0  0  0  0  0  0  0  0  0  0
   38.7920   30.9970   41.4000 C   0  0  0  0  0  0  0  0  0  0  0  0
   36.4940   25.5640   42.9360 H   0  0  0  0  0  0  0  0  0  0  0  0
   35.5040   27.7720   43.3160 H   0  0  0  0  0  0  0  0  0  0  0  0
   41.1980   29.4510   42.9370 H   0  0  0  0  0  0  0  0  0  0  0  0
   36.3830   32.7050   39.8000 H   0  0  0  0  0  0  0  0  0  0  0  0
   40.4970   34.1610   40.7170 N   0  0  0  0  0  0  0  0  0  0  0  0
   41.4210   33.8140   40.3560 H   0  0  0  0  0  0  0  0  0  0  0  0
   40.3480   35.1670   40.9880 H   0  0  0  0  0  0  0  0  0  0  0  0
   39.0900   24.7400   42.0220 S   0  0  0  0  0  0  0  0  0  0  0  0
   37.7530   23.6840   41.4190 C   0  0  0  0  0  3  0  0  0  0  0  0
   37.1930   23.9270   40.0640 C   0  0  0  0  0  2  0  0  0  0  0  0
   38.0030   22.6780   40.3640 C   0  0  0  0  0  2  0  0  0  0  0  0
  1  2  1  0  0  0  0
  2 16  1  0  0  0  0
  2  3  2  0  0  0  0
  3 17  1  0  0  0  0
  4  3  1  0  0  0  0
  5  4  2  0  0  0  0
  6  5  1  0  0  0  0
  6  1  2  0  0  0  0
  7  5  1  0  0  0  0
  7  8  1  0  0  0  0
  8 18  1  0  0  0  0
  9  8  2  0  0  0  0
 10 15  1  0  0  0  0
 10  9  1  0  0  0  0
 11 10  2  0  0  0  0
 12 13  2  0  0  0  0
 12 11  1  0  0  0  0
 13 14  1  0  0  0  0
 14 15  2  0  0  0  0
 15  7  1  0  0  0  0
 19 13  1  0  0  0  0
 20 11  1  0  0  0  0
 20 22  1  0  0  0  0
 21 20  1  0  0  0  0
 23  1  1  0  0  0  0
 24 23  1  0  0  0  0
 25 26  1  0  0  0  0
 25 24  1  0  0  0  0
 26 24  1  0  0  0  0
M  END
>  <minimizedAffinity>
-5.20292473

$$$$

 OpenBabel03252504233D

 26 29  0  0  0  0  0  0  0  0999 V2000
   37.3650   26.3380   42.0420 C   0  0  0  0  0  0  0  0  0  0  0  0
   37.0140   27.0020   43.2200 C   0  0  0  0  0  0  0  0  0  0  0  0
   37.2530   28.3860   43.3010 C   0  0  0  0  0  0  0  0  0  0  0  0
   37.8160   28.9930   42.2210 N   0  0  0  0  0  0  0  0  0  0  0  0
   38.1400   28.3080   41.0960 C   0  0  0  0  0  0  0  0  0  0  0  0
   37.9200   26.9960   41.0040 N   0  0  0  0  0  0  0  0  0  0  0  0
   38.7220   29.0360   40.0160 N   0  0  0  0  0  0  0  0  0  0  0  0
   39.7900   28.6450   39.2780 C   0  0  0  0  0  0  0  0  0  0  0  0
   40.0390   29.6100   38.3470 N   0  0  0  0  0  0  0  0  0  0  0  0
   39.1240   30.5650   38.5340 C   0  0  0  0  0  0  0  0  0  0  0  0
   38.8590   31.7750   37.9170 C   0  0  0  0  0  0  0  0  0  0  0  0
   37.8610   32.5700   38.2980 N   0  0  0  0  0  0  0  0  0  0  0  0
   37.0460   32.2400   39.3130 C   0  0  0  0  0  0  0  0  0  0  0  0
   37.3030   31.0640   39.9110 N   0  0  0  0  0  0  0  0  0  0  0  0
   38.2860   30.2290   39.5740 C   0  0  0  0  0  0  0  0  0  0  0  0
   36.5630   26.4950   44.0750 H   0  0  0  0  0  0  0  0  0  0  0  0
   36.9870   28.9050   44.2050 H   0  0  0  0  0  0  0  0  0  0  0  0
   40.3330   27.7130   39.4340 H   0  0  0  0  0  0  0  0  0  0  0  0
   36.2370   32.8900   39.6200 H   0  0  0  0  0  0  0  0  0  0  0  0
   39.6560   32.2280   36.8330 N   0  0  0  0  0  0  0  0  0  0  0  0
   39.7780   31.4910   36.0930 H   0  0  0  0  0  0  0  0  0  0  0  0
   40.0920   33.1820   36.7460 H   0  0  0  0  0  0  0  0  0  0  0  0
   37.0290   24.5600   42.0040 S   0  0  0  0  0  0  0  0  0  0  0  0
   38.3910   23.7570   41.1270 C   0  0  0  0  0  3  0  0  0  0  0  0
   38.1440   22.4670   40.4320 C   0  0  0  0  0  2  0  0  0  0  0  0
   38.4290   23.7370   39.6490 C   0  0  0  0  0  2  0  0  0  0  0  0
  1  2  1  0  0  0  0
  2  3  2  0  0  0  0
  2 16  1  0  0  0  0
  3 17  1  0  0  0  0
  4  3  1  0  0  0  0
  5  4  2  0  0  0  0
  6  5  1  0  0  0  0
  6  1  2  0  0  0  0
  7  5  1  0  0  0  0
  8 18  1  0  0  0  0
  8  7  1  0  0  0  0
  9 10  1  0  0  0  0
  9  8  2  0  0  0  0
 10 15  1  0  0  0  0
 11 12  1  0  0  0  0
 11 10  2  0  0  0  0
 12 13  2  0  0  0  0
 13 19  1  0  0  0  0
 13 14  1  0  0  0  0
 15 14  2  0  0  0  0
 15  7  1  0  0  0  0
 20 11  1  0  0  0  0
 21 20  1  0  0  0  0
 22 20  1  0  0  0  0
 23  1  1  0  0  0  0
 24 23  1  0  0  0  0
 25 24  1  0  0  0  0
 26 25  1  0  0  0  0
 26 24  1  0  0  0  0
M  END
>  <minimizedAffinity>
-5.16318893

$$$$

 OpenBabel03252504233D

 26 29  0  0  0  0  0  0  0  0999 V2000
   37.2540   30.9580   39.6640 C   0  0  0  0  0  0  0  0  0  0  0  0
   36.7420   30.5220   38.4390 C   0  0  0  0  0  0  0  0  0  0  0  0
   37.4650   30.8210   37.2700 C   0  0  0  0  0  0  0  0  0  0  0  0
   38.6240   31.5200   37.4080 N   0  0  0  0  0  0  0  0  0  0  0  0
   39.0850   31.9230   38.6180 C   0  0  0  0  0  0  0  0  0  0  0  0
   38.4110   31.6480   39.7350 N   0  0  0  0  0  0  0  0  0  0  0  0
   40.3140   32.6470   38.6570 N   0  0  0  0  0  0  0  0  0  0  0  0
   40.5550   33.7640   39.3870 C   0  0  0  0  0  0  0  0  0  0  0  0
   41.8400   34.1540   39.1540 N   0  0  0  0  0  0  0  0  0  0  0  0
   42.3560   33.2740   38.2910 C   0  0  0  0  0  0  0  0  0  0  0  0
   43.5910   33.1340   37.6840 C   0  0  0  0  0  0  0  0  0  0  0  0
   43.8660   32.1430   36.8380 N   0  0  0  0  0  0  0  0  0  0  0  0
   42.9500   31.2140   36.5210 C   0  0  0  0  0  0  0  0  0  0  0  0
   41.7500   31.3500   37.1110 N   0  0  0  0  0  0  0  0  0  0  0  0
   41.4180   32.3190   37.9640 C   0  0  0  0  0  0  0  0  0  0  0  0
   35.8090   29.9620   38.3520 H   0  0  0  0  0  0  0  0  0  0  0  0
   37.0760   30.4900   36.3230 H   0  0  0  0  0  0  0  0  0  0  0  0
   39.8200   34.2420   40.0360 H   0  0  0  0  0  0  0  0  0  0  0  0
   43.1770   30.4120   35.8320 H   0  0  0  0  0  0  0  0  0  0  0  0
   44.6360   34.0590   37.9440 N   0  0  0  0  0  0  0  0  0  0  0  0
   44.7810   34.2190   38.9730 H   0  0  0  0  0  0  0  0  0  0  0  0
   45.2190   34.5480   37.2170 H   0  0  0  0  0  0  0  0  0  0  0  0
   36.2750   30.5390   41.1270 S   0  0  0  0  0  0  0  0  0  0  0  0
   36.0280   28.7490   41.1340 C   0  0  0  0  0  3  0  0  0  0  0  0
   37.2050   27.8540   40.9850 C   0  0  0  0  0  2  0  0  0  0  0  0
   36.4440   27.9340   42.2970 C   0  0  0  0  0  2  0  0  0  0  0  0
  1  6  1  0  0  0  0
  1 23  1  0  0  0  0
  2  1  2  0  0  0  0
  3  4  2  0  0  0  0
  3  2  1  0  0  0  0
  4  5  1  0  0  0  0
  5  7  1  0  0  0  0
  5  6  2  0  0  0  0
  7  8  1  0  0  0  0
  8 18  1  0  0  0  0
  9  8  2  0  0  0  0
 10  9  1  0  0  0  0
 11 20  1  0  0  0  0
 11 10  2  0  0  0  0
 12 11  1  0  0  0  0
 13 12  2  0  0  0  0
 13 14  1  0  0  0  0
 14 15  2  0  0  0  0
 15 10  1  0  0  0  0
 15  7  1  0  0  0  0
 16  2  1  0  0  0  0
 17  3  1  0  0  0  0
 19 13  1  0  0  0  0
 20 21  1  0  0  0  0
 22 20  1  0  0  0  0
 23 24  1  0  0  0  0
 24 26  1  0  0  0  0
 25 24  1  0  0  0  0
 25 26  1  0  0  0  0
M  END
>  <minimizedAffinity>
-4.98498011

$$$$

 OpenBabel03252504233D

 26 29  0  0  0  0  0  0  0  0999 V2000
   43.0850   32.3650   38.8870 C   0  0  0  0  0  0  0  0  0  0  0  0
   43.7570   32.6190   40.0850 C   0  0  0  0  0  0  0  0  0  0  0  0
   43.0130   32.6280   41.2780 C   0  0  0  0  0  0  0  0  0  0  0  0
   41.6770   32.3860   41.1890 N   0  0  0  0  0  0  0  0  0  0  0  0
   41.0650   32.1420   40.0040 C   0  0  0  0  0  0  0  0  0  0  0  0
   41.7570   32.1310   38.8640 N   0  0  0  0  0  0  0  0  0  0  0  0
   39.6590   31.8960   40.0160 N   0  0  0  0  0  0  0  0  0  0  0  0
   38.7520   32.4240   39.1570 C   0  0  0  0  0  0  0  0  0  0  0  0
   37.5200   31.9490   39.4970 N   0  0  0  0  0  0  0  0  0  0  0  0
   37.6980   31.1460   40.5500 C   0  0  0  0  0  0  0  0  0  0  0  0
   36.8470   30.3850   41.3320 C   0  0  0  0  0  0  0  0  0  0  0  0
   37.2790   29.6490   42.3540 N   0  0  0  0  0  0  0  0  0  0  0  0
   38.5790   29.6020   42.6880 C   0  0  0  0  0  0  0  0  0  0  0  0
   39.4050   30.3410   41.9280 N   0  0  0  0  0  0  0  0  0  0  0  0
   39.0310   31.0960   40.8950 C   0  0  0  0  0  0  0  0  0  0  0  0
   44.8310   32.8110   40.1330 H   0  0  0  0  0  0  0  0  0  0  0  0
   43.5230   32.8240   42.2050 H   0  0  0  0  0  0  0  0  0  0  0  0
   39.0030   33.1100   38.3480 H   0  0  0  0  0  0  0  0  0  0  0  0
   38.9250   29.0040   43.5200 H   0  0  0  0  0  0  0  0  0  0  0  0
   35.4510   30.3590   41.0720 N   0  0  0  0  0  0  0  0  0  0  0  0
   35.2380   30.1720   40.0610 H   0  0  0  0  0  0  0  0  0  0  0  0
   34.6910   30.5060   41.7840 H   0  0  0  0  0  0  0  0  0  0  0  0
   44.1020   32.3680   37.3890 S   0  0  0  0  0  0  0  0  0  0  0  0
   44.1810   30.6720   36.7700 C   0  0  0  0  0  3  0  0  0  0  0  0
   43.1570   30.2070   35.7980 C   0  0  0  0  0  2  0  0  0  0  0  0
   44.6050   30.3950   35.3800 C   0  0  0  0  0  2  0  0  0  0  0  0
  1  2  1  0  0  0  0
  2 16  1  0  0  0  0
  2  3  2  0  0  0  0
  3 17  1  0  0  0  0
  4  3  1  0  0  0  0
  5  7  1  0  0  0  0
  5  4  2  0  0  0  0
  6  1  2  0  0  0  0
  6  5  1  0  0  0  0
  7 15  1  0  0  0  0
  8  9  2  0  0  0  0
  8  7  1  0  0  0  0
  9 10  1  0  0  0  0
 10 15  2  0  0  0  0
 10 11  1  0  0  0  0
 11 12  2  0  0  0  0
 12 13  1  0  0  0  0
 13 19  1  0  0  0  0
 14 13  2  0  0  0  0
 15 14  1  0  0  0  0
 18  8  1  0  0  0  0
 20 11  1  0  0  0  0
 20 22  1  0  0  0  0
 21 20  1  0  0  0  0
 23  1  1  0  0  0  0
 24 23  1  0  0  0  0
 25 24  1  0  0  0  0
 26 25  1  0  0  0  0
 26 24  1  0  0  0  0
M  END
>  <minimizedAffinity>
-4.87045765

$$$$

 OpenBabel03252504233D

 26 29  0  0  0  0  0  0  0  0999 V2000
   38.7650   25.5830   40.6430 C   0  0  0  0  0  0  0  0  0  0  0  0
   39.6270   25.3010   39.5810 C   0  0  0  0  0  0  0  0  0  0  0  0
   39.8520   26.3050   38.6210 C   0  0  0  0  0  0  0  0  0  0  0  0
   39.2110   27.4930   38.7900 N   0  0  0  0  0  0  0  0  0  0  0  0
   38.3820   27.7230   39.8380 C   0  0  0  0  0  0  0  0  0  0  0  0
   38.1580   26.7820   40.7550 N   0  0  0  0  0  0  0  0  0  0  0  0
   37.7590   29.0040   39.9280 N   0  0  0  0  0  0  0  0  0  0  0  0
   36.4560   29.2360   40.2250 C   0  0  0  0  0  0  0  0  0  0  0  0
   36.2520   30.5840   40.2120 N   0  0  0  0  0  0  0  0  0  0  0  0
   37.4250   31.1450   39.9100 C   0  0  0  0  0  0  0  0  0  0  0  0
   37.8520   32.4520   39.7490 C   0  0  0  0  0  0  0  0  0  0  0  0
   39.1100   32.7610   39.4390 N   0  0  0  0  0  0  0  0  0  0  0  0
   40.0450   31.8140   39.2610 C   0  0  0  0  0  0  0  0  0  0  0  0
   39.6300   30.5460   39.4170 N   0  0  0  0  0  0  0  0  0  0  0  0
   38.3870   30.1760   39.7270 C   0  0  0  0  0  0  0  0  0  0  0  0
   40.1320   24.3410   39.4650 H   0  0  0  0  0  0  0  0  0  0  0  0
   40.5140   26.0960   37.7990 H   0  0  0  0  0  0  0  0  0  0  0  0
   35.7270   28.4520   40.4290 H   0  0  0  0  0  0  0  0  0  0  0  0
   41.0640   32.0710   39.0070 H   0  0  0  0  0  0  0  0  0  0  0  0
   36.9500   33.5350   39.9120 N   0  0  0  0  0  0  0  0  0  0  0  0
   36.4010   33.4660   40.8060 H   0  0  0  0  0  0  0  0  0  0  0  0
   36.8180   34.3320   39.2370 H   0  0  0  0  0  0  0  0  0  0  0  0
   38.5210   24.2480   41.8420 S   0  0  0  0  0  0  0  0  0  0  0  0
   39.7080   24.4860   43.1840 C   0  0  0  0  0  3  0  0  0  0  0  0
   41.0460   25.0560   42.8750 C   0  0  0  0  0  2  0  0  0  0  0  0
   40.0260   25.8430   43.6800 C   0  0  0  0  0  2  0  0  0  0  0  0
  1  6  1  0  0  0  0
  1 23  1  0  0  0  0
  2  1  2  0  0  0  0
  3  4  2  0  0  0  0
  3  2  1  0  0  0  0
  4  5  1  0  0  0  0
  5  7  1  0  0  0  0
  5  6  2  0  0  0  0
  7  8  1  0  0  0  0
  8 18  1  0  0  0  0
  9  8  2  0  0  0  0
 10  9  1  0  0  0  0
 11 10  1  0  0  0  0
 11 20  1  0  0  0  0
 12 11  2  0  0  0  0
 13 14  2  0  0  0  0
 13 12  1  0  0  0  0
 14 15  1  0  0  0  0
 15 10  2  0  0  0  0
 15  7  1  0  0  0  0
 16  2  1  0  0  0  0
 17  3  1  0  0  0  0
 19 13  1  0  0  0  0
 20 21  1  0  0  0  0
 22 20  1  0  0  0  0
 23 24  1  0  0  0  0
 24 26  1  0  0  0  0
 25 24  1  0  0  0  0
 25 26  1  0  0  0  0
M  END
>  <minimizedAffinity>
-4.73689604

$$$$

 OpenBabel03252504233D

 26 29  0  0  0  0  0  0  0  0999 V2000
   38.2310   27.9900   41.0710 C   0  0  0  0  0  0  0  0  0  0  0  0
   38.0380   26.9530   40.1540 C   0  0  0  0  0  0  0  0  0  0  0  0
   38.3960   27.1740   38.8130 C   0  0  0  0  0  0  0  0  0  0  0  0
   38.9110   28.3920   38.4900 N   0  0  0  0  0  0  0  0  0  0  0  0
   39.0810   29.3700   39.4130 C   0  0  0  0  0  0  0  0  0  0  0  0
   38.7470   29.1760   40.6890 N   0  0  0  0  0  0  0  0  0  0  0  0
   39.6330   30.6120   38.9760 N   0  0  0  0  0  0  0  0  0  0  0  0
   39.1840   31.8450   39.3160 C   0  0  0  0  0  0  0  0  0  0  0  0
   39.9710   32.7690   38.6960 N   0  0  0  0  0  0  0  0  0  0  0  0
   40.8800   32.0870   37.9940 C   0  0  0  0  0  0  0  0  0  0  0  0
   41.9310   32.4530   37.1710 C   0  0  0  0  0  0  0  0  0  0  0  0
   42.7130   31.5590   36.5690 N   0  0  0  0  0  0  0  0  0  0  0  0
   42.5250   30.2390   36.7250 C   0  0  0  0  0  0  0  0  0  0  0  0
   41.5040   29.8840   37.5240 N   0  0  0  0  0  0  0  0  0  0  0  0
   40.6890   30.7320   38.1520 C   0  0  0  0  0  0  0  0  0  0  0  0
   37.6230   25.9830   40.4360 H   0  0  0  0  0  0  0  0  0  0  0  0
   38.2490   26.3810   38.1000 H   0  0  0  0  0  0  0  0  0  0  0  0
   38.3330   32.0260   39.9740 H   0  0  0  0  0  0  0  0  0  0  0  0
   43.1620   29.5180   36.2330 H   0  0  0  0  0  0  0  0  0  0  0  0
   42.2230   33.8210   36.9320 N   0  0  0  0  0  0  0  0  0  0  0  0
   42.2800   34.3780   37.8210 H   0  0  0  0  0  0  0  0  0  0  0  0
   42.3710   34.2620   35.9880 H   0  0  0  0  0  0  0  0  0  0  0  0
   37.7500   27.6380   42.7800 S   0  0  0  0  0  0  0  0  0  0  0  0
   39.2330   27.1310   43.6800 C   0  0  0  0  0  3  0  0  0  0  0  0
   39.7940   25.7750   43.4450 C   0  0  0  0  0  2  0  0  0  0  0  0
   40.5350   27.0190   42.9860 C   0  0  0  0  0  2  0  0  0  0  0  0
  1 23  1  0  0  0  0
  2 16  1  0  0  0  0
  2  1  2  0  0  0  0
  3  2  1  0  0  0  0
  4  3  2  0  0  0  0
  4  5  1  0  0  0  0
  5  6  2  0  0  0  0
  6  1  1  0  0  0  0
  7  8  1  0  0  0  0
  7  5  1  0  0  0  0
  8 18  1  0  0  0  0
  9  8  2  0  0  0  0
 10 15  1  0  0  0  0
 10  9  1  0  0  0  0
 11 10  2  0  0  0  0
 12 13  2  0  0  0  0
 12 11  1  0  0  0  0
 13 14  1  0  0  0  0
 14 15  2  0  0  0  0
 15  7  1  0  0  0  0
 17  3  1  0  0  0  0
 19 13  1  0  0  0  0
 20 11  1  0  0  0  0
 20 21  1  0  0  0  0
 22 20  1  0  0  0  0
 23 24  1  0  0  0  0
 25 24  1  0  0  0  0
 26 25  1  0  0  0  0
 26 24  1  0  0  0  0
M  END
>  <minimizedAffinity>
-4.70938206

$$$$

 OpenBabel03252504233D

 26 29  0  0  0  0  0  0  0  0999 V2000
   40.6980   31.8390   41.2140 C   0  0  0  0  0  0  0  0  0  0  0  0
   41.8880   32.2380   41.8290 C   0  0  0  0  0  0  0  0  0  0  0  0
   42.5080   31.3450   42.7210 C   0  0  0  0  0  0  0  0  0  0  0  0
   41.9060   30.1420   42.9300 N   0  0  0  0  0  0  0  0  0  0  0  0
   40.7510   29.7960   42.3100 C   0  0  0  0  0  0  0  0  0  0  0  0
   40.1510   30.6310   41.4610 N   0  0  0  0  0  0  0  0  0  0  0  0
   40.2020   28.5100   42.5920 N   0  0  0  0  0  0  0  0  0  0  0  0
   38.8960   28.2420   42.8440 C   0  0  0  0  0  0  0  0  0  0  0  0
   38.7740   26.9020   43.0660 N   0  0  0  0  0  0  0  0  0  0  0  0
   39.9990   26.3820   42.9470 C   0  0  0  0  0  0  0  0  0  0  0  0
   40.5140   25.1030   43.0580 C   0  0  0  0  0  0  0  0  0  0  0  0
   41.8080   24.8350   42.8890 N   0  0  0  0  0  0  0  0  0  0  0  0
   42.6960   25.8000   42.6000 C   0  0  0  0  0  0  0  0  0  0  0  0
   42.1940   27.0420   42.4920 N   0  0  0  0  0  0  0  0  0  0  0  0
   40.9120   27.3700   42.6500 C   0  0  0  0  0  0  0  0  0  0  0  0
   42.3530   33.2080   41.6460 H   0  0  0  0  0  0  0  0  0  0  0  0
   43.4240   31.6450   43.2000 H   0  0  0  0  0  0  0  0  0  0  0  0
   38.1090   28.9960   42.8600 H   0  0  0  0  0  0  0  0  0  0  0  0
   43.7450   25.5770   42.4650 H   0  0  0  0  0  0  0  0  0  0  0  0
   39.6690   24.0040   43.3620 N   0  0  0  0  0  0  0  0  0  0  0  0
   38.8180   23.9730   42.7470 H   0  0  0  0  0  0  0  0  0  0  0  0
   39.8420   23.2840   44.1100 H   0  0  0  0  0  0  0  0  0  0  0  0
   39.9540   33.0350   40.0760 S   0  0  0  0  0  0  0  0  0  0  0  0
   38.1900   33.1370   40.4580 C   0  0  0  0  0  3  0  0  0  0  0  0
   37.2400   33.5440   39.3900 C   0  0  0  0  0  2  0  0  0  0  0  0
   37.2450   32.1270   39.9350 C   0  0  0  0  0  2  0  0  0  0  0  0
  1  6  2  0  0  0  0
  1  2  1  0  0  0  0
  2  3  2  0  0  0  0
  3  4  1  0  0  0  0
  3 17  1  0  0  0  0
  5  7  1  0  0  0  0
  5  4  2  0  0  0  0
  6  5  1  0  0  0  0
  7 15  1  0  0  0  0
  7  8  1  0  0  0  0
  8 18  1  0  0  0  0
  8  9  2  0  0  0  0
 10 11  1  0  0  0  0
 10  9  1  0  0  0  0
 11 20  1  0  0  0  0
 12 11  2  0  0  0  0
 13 12  1  0  0  0  0
 14 13  2  0  0  0  0
 14 15  1  0  0  0  0
 15 10  2  0  0  0  0
 16  2  1  0  0  0  0
 19 13  1  0  0  0  0
 20 22  1  0  0  0  0
 21 20  1  0  0  0  0
 23 24  1  0  0  0  0
 23  1  1  0  0  0  0
 25 26  1  0  0  0  0
 25 24  1  0  0  0  0
 26 24  1  0  0  0  0
M  END
>  <minimizedAffinity>
-4.70492744

$$$$

 OpenBabel03252504233D

 26 29  0  0  0  0  0  0  0  0999 V2000
   35.7820   25.2950   38.0040 C   0  0  0  0  0  0  0  0  0  0  0  0
   35.3660   25.3820   36.6720 C   0  0  0  0  0  0  0  0  0  0  0  0
   35.1290   26.6570   36.1300 C   0  0  0  0  0  0  0  0  0  0  0  0
   35.3210   27.7330   36.9420 N   0  0  0  0  0  0  0  0  0  0  0  0
   35.7270   27.6020   38.2290 C   0  0  0  0  0  0  0  0  0  0  0  0
   35.9550   26.4000   38.7580 N   0  0  0  0  0  0  0  0  0  0  0  0
   35.9040   28.7910   38.9970 N   0  0  0  0  0  0  0  0  0  0  0  0
   35.4820   28.9840   40.2720 C   0  0  0  0  0  0  0  0  0  0  0  0
   35.8390   30.2440   40.6510 N   0  0  0  0  0  0  0  0  0  0  0  0
   36.4670   30.7930   39.6070 C   0  0  0  0  0  0  0  0  0  0  0  0
   37.0500   32.0270   39.3760 C   0  0  0  0  0  0  0  0  0  0  0  0
   37.6280   32.3410   38.2190 N   0  0  0  0  0  0  0  0  0  0  0  0
   37.6790   31.4700   37.1980 C   0  0  0  0  0  0  0  0  0  0  0  0
   37.1130   30.2720   37.4220 N   0  0  0  0  0  0  0  0  0  0  0  0
   36.5200   29.9020   38.5570 C   0  0  0  0  0  0  0  0  0  0  0  0
   35.2190   24.5050   36.0390 H   0  0  0  0  0  0  0  0  0  0  0  0
   34.8080   26.7330   35.1060 H   0  0  0  0  0  0  0  0  0  0  0  0
   34.9500   28.2360   40.8600 H   0  0  0  0  0  0  0  0  0  0  0  0
   38.1490   31.7310   36.2590 H   0  0  0  0  0  0  0  0  0  0  0  0
   37.0540   33.0270   40.3840 N   0  0  0  0  0  0  0  0  0  0  0  0
   37.3940   32.6600   41.3080 H   0  0  0  0  0  0  0  0  0  0  0  0
   36.7580   34.0290   40.2570 H   0  0  0  0  0  0  0  0  0  0  0  0
   36.0700   23.6240   38.6370 S   0  0  0  0  0  0  0  0  0  0  0  0
   37.5550   23.6700   39.6670 C   0  0  0  0  0  3  0  0  0  0  0  0
   37.4100   23.7490   41.1440 C   0  0  0  0  0  2  0  0  0  0  0  0
   37.9490   22.4960   40.4760 C   0  0  0  0  0  2  0  0  0  0  0  0
  1 23  1  0  0  0  0
  1  6  1  0  0  0  0
  2  1  2  0  0  0  0
  3  2  1  0  0  0  0
  3  4  2  0  0  0  0
  4  5  1  0  0  0  0
  5  6  2  0  0  0  0
  5  7  1  0  0  0  0
  7  8  1  0  0  0  0
  8  9  2  0  0  0  0
  8 18  1  0  0  0  0
 10  9  1  0  0  0  0
 11 10  1  0  0  0  0
 11 20  1  0  0  0  0
 12 11  2  0  0  0  0
 13 14  2  0  0  0  0
 13 12  1  0  0  0  0
 14 15  1  0  0  0  0
 15  7  1  0  0  0  0
 15 10  2  0  0  0  0
 16  2  1  0  0  0  0
 17  3  1  0  0  0  0
 19 13  1  0  0  0  0
 20 21  1  0  0  0  0
 22 20  1  0  0  0  0
 23 24  1  0  0  0  0
 24 26  1  0  0  0  0
 24 25  1  0  0  0  0
 26 25  1  0  0  0  0
M  END
>  <minimizedAffinity>
-4.67352438

$$$$
