
 OpenBabel03252501483D

 27 29  0  0  0  0  0  0  0  0999 V2000
   33.9790   29.2030   39.2360 C   0  0  0  0  0  0  0  0  0  0  0  0
   34.4310   28.8160   37.9460 C   0  0  0  0  0  0  0  0  0  0  0  0
   35.6750   28.1970   37.8240 C   0  0  0  0  0  0  0  0  0  0  0  0
   36.3930   27.9970   38.9670 N   0  0  0  0  0  0  0  0  0  0  0  0
   35.9330   28.3750   40.1670 C   0  0  0  0  0  0  0  0  0  0  0  0
   34.7350   28.9740   40.3020 N   0  0  0  0  0  0  0  0  0  0  0  0
   33.0180   29.6850   39.3650 H   0  0  0  0  0  0  0  0  0  0  0  0
   36.0540   27.8890   36.8680 H   0  0  0  0  0  0  0  0  0  0  0  0
   36.9160   30.4840   41.6860 F   0  0  0  0  0  0  0  0  0  0  0  0
   37.2270   29.2180   42.0910 C   0  0  0  0  0  0  0  0  0  0  0  0
   36.7500   28.1320   41.3510 C   0  0  0  0  0  0  0  0  0  0  0  0
   37.0320   26.8440   41.7140 C   0  0  0  0  0  0  0  0  0  0  0  0
   37.8150   26.6490   42.8510 C   0  0  0  0  0  0  0  0  0  0  0  0
   38.3050   27.7200   43.6090 C   0  0  0  0  0  0  0  0  0  0  0  0
   38.0040   29.0260   43.2180 C   0  0  0  0  0  0  0  0  0  0  0  0
   36.6720   25.9910   41.1550 H   0  0  0  0  0  0  0  0  0  0  0  0
   38.0890   25.6700   43.2130 H   0  0  0  0  0  0  0  0  0  0  0  0
   38.9110   27.5430   44.4880 H   0  0  0  0  0  0  0  0  0  0  0  0
   38.3540   29.8870   43.7640 H   0  0  0  0  0  0  0  0  0  0  0  0
   33.5980   29.0670   36.7750 C   0  0  0  0  0  3  0  0  0  0  0  0
   32.3330   29.4480   36.8060 C   0  0  0  0  0  3  0  0  0  0  0  0
   31.5490   29.6830   35.5460 C   0  0  0  0  0  0  0  0  0  0  0  0
   32.2560   30.1030   34.8040 H   0  0  0  0  0  0  0  0  0  0  0  0
   31.1730   28.7150   35.1460 H   0  0  0  0  0  0  0  0  0  0  0  0
   30.4450   30.6900   35.7350 C   0  0  0  0  0  3  0  0  0  0  0  0
   30.4590   31.5760   36.9140 C   0  0  0  0  0  2  0  0  0  0  0  0
   30.6440   32.1400   35.5020 C   0  0  0  0  0  2  0  0  0  0  0  0
  1  7  1  0  0  0  0
  1  6  1  0  0  0  0
  2  1  2  0  0  0  0
  3  2  1  0  0  0  0
  3  4  2  0  0  0  0
  4  5  1  0  0  0  0
  5  6  2  0  0  0  0
  5 11  1  0  0  0  0
  8  3  1  0  0  0  0
  9 10  1  0  0  0  0
 10 15  1  0  0  0  0
 11 12  1  0  0  0  0
 11 10  2  0  0  0  0
 12 13  2  0  0  0  0
 13 17  1  0  0  0  0
 13 14  1  0  0  0  0
 14 18  1  0  0  0  0
 15 14  2  0  0  0  0
 15 19  1  0  0  0  0
 16 12  1  0  0  0  0
 20 21  2  0  0  0  0
 20  2  1  0  0  0  0
 22 25  1  0  0  0  0
 22 21  1  0  0  0  0
 23 22  1  0  0  0  0
 24 22  1  0  0  0  0
 25 26  1  0  0  0  0
 27 25  1  0  0  0  0
 27 26  1  0  0  0  0
M  END
>  <minimizedAffinity>
-5.17921066

$$$$

 OpenBabel03252501483D

 27 29  0  0  0  0  0  0  0  0999 V2000
   35.7360   28.1090   38.0410 C   0  0  0  0  0  0  0  0  0  0  0  0
   34.4930   28.7640   38.2480 C   0  0  0  0  0  0  0  0  0  0  0  0
   34.1550   29.1800   39.5360 C   0  0  0  0  0  0  0  0  0  0  0  0
   35.0520   28.9290   40.5330 N   0  0  0  0  0  0  0  0  0  0  0  0
   36.2160   28.3090   40.2980 C   0  0  0  0  0  0  0  0  0  0  0  0
   36.5570   27.9010   39.0620 N   0  0  0  0  0  0  0  0  0  0  0  0
   36.0280   27.7740   37.0530 H   0  0  0  0  0  0  0  0  0  0  0  0
   33.2260   29.6780   39.7360 H   0  0  0  0  0  0  0  0  0  0  0  0
   36.7180   25.7340   41.2160 F   0  0  0  0  0  0  0  0  0  0  0  0
   37.3600   26.7620   41.8440 C   0  0  0  0  0  0  0  0  0  0  0  0
   37.1320   28.0710   41.4090 C   0  0  0  0  0  0  0  0  0  0  0  0
   37.7510   29.1370   42.0030 C   0  0  0  0  0  0  0  0  0  0  0  0
   38.6200   28.8720   43.0610 C   0  0  0  0  0  0  0  0  0  0  0  0
   38.8640   27.5700   43.5150 C   0  0  0  0  0  0  0  0  0  0  0  0
   38.2210   26.4980   42.8920 C   0  0  0  0  0  0  0  0  0  0  0  0
   37.5880   30.1560   41.6810 H   0  0  0  0  0  0  0  0  0  0  0  0
   39.1520   29.6480   43.5900 H   0  0  0  0  0  0  0  0  0  0  0  0
   39.5430   27.3900   44.3380 H   0  0  0  0  0  0  0  0  0  0  0  0
   38.3720   25.4770   43.2000 H   0  0  0  0  0  0  0  0  0  0  0  0
   33.5910   28.9930   37.1230 C   0  0  0  0  0  3  0  0  0  0  0  0
   32.3490   29.4310   37.2200 C   0  0  0  0  0  3  0  0  0  0  0  0
   31.4890   29.6380   36.0040 C   0  0  0  0  0  0  0  0  0  0  0  0
   32.1200   30.1500   35.2510 H   0  0  0  0  0  0  0  0  0  0  0  0
   31.1880   28.6540   35.5810 H   0  0  0  0  0  0  0  0  0  0  0  0
   30.3070   30.5280   36.2800 C   0  0  0  0  0  3  0  0  0  0  0  0
   30.2090   31.2340   37.5720 C   0  0  0  0  0  2  0  0  0  0  0  0
   30.4030   32.0060   36.2630 C   0  0  0  0  0  2  0  0  0  0  0  0
  1  2  2  0  0  0  0
  1  6  1  0  0  0  0
  2  3  1  0  0  0  0
  3  8  1  0  0  0  0
  3  4  2  0  0  0  0
  5  4  1  0  0  0  0
  5 11  1  0  0  0  0
  6  5  2  0  0  0  0
  7  1  1  0  0  0  0
  9 10  1  0  0  0  0
 10 15  1  0  0  0  0
 11 10  2  0  0  0  0
 11 12  1  0  0  0  0
 12 13  2  0  0  0  0
 13 14  1  0  0  0  0
 13 17  1  0  0  0  0
 14 18  1  0  0  0  0
 15 19  1  0  0  0  0
 15 14  2  0  0  0  0
 16 12  1  0  0  0  0
 20 21  2  0  0  0  0
 20  2  1  0  0  0  0
 22 25  1  0  0  0  0
 22 21  1  0  0  0  0
 23 22  1  0  0  0  0
 24 22  1  0  0  0  0
 25 26  1  0  0  0  0
 27 25  1  0  0  0  0
 27 26  1  0  0  0  0
M  END
>  <minimizedAffinity>
-5.04894066

$$$$

 OpenBabel03252501483D

 27 29  0  0  0  0  0  0  0  0999 V2000
   38.0220   28.0310   40.3700 C   0  0  0  0  0  0  0  0  0  0  0  0
   37.4930   27.6380   41.6280 C   0  0  0  0  0  0  0  0  0  0  0  0
   37.1440   28.6220   42.5510 C   0  0  0  0  0  0  0  0  0  0  0  0
   37.3340   29.9230   42.1860 N   0  0  0  0  0  0  0  0  0  0  0  0
   37.8360   30.2550   40.9890 C   0  0  0  0  0  0  0  0  0  0  0  0
   38.1780   29.3170   40.0860 N   0  0  0  0  0  0  0  0  0  0  0  0
   38.3020   27.2900   39.6310 H   0  0  0  0  0  0  0  0  0  0  0  0
   36.7400   28.3690   43.5130 H   0  0  0  0  0  0  0  0  0  0  0  0
   40.0790   31.6540   41.8460 F   0  0  0  0  0  0  0  0  0  0  0  0
   39.1560   32.3370   41.1080 C   0  0  0  0  0  0  0  0  0  0  0  0
   38.0150   31.6660   40.6590 C   0  0  0  0  0  0  0  0  0  0  0  0
   37.0600   32.3030   39.9160 C   0  0  0  0  0  0  0  0  0  0  0  0
   37.2640   33.6500   39.6190 C   0  0  0  0  0  0  0  0  0  0  0  0
   38.3990   34.3450   40.0570 C   0  0  0  0  0  0  0  0  0  0  0  0
   39.3600   33.6720   40.8150 C   0  0  0  0  0  0  0  0  0  0  0  0
   36.1710   31.8020   39.5590 H   0  0  0  0  0  0  0  0  0  0  0  0
   36.5670   34.2350   39.0390 H   0  0  0  0  0  0  0  0  0  0  0  0
   38.5350   35.3900   39.8140 H   0  0  0  0  0  0  0  0  0  0  0  0
   40.2510   34.1570   41.1770 H   0  0  0  0  0  0  0  0  0  0  0  0
   37.3210   26.2220   41.9380 C   0  0  0  0  0  3  0  0  0  0  0  0
   37.6310   25.2220   41.1320 C   0  0  0  0  0  3  0  0  0  0  0  0
   37.4190   23.7900   41.5340 C   0  0  0  0  0  0  0  0  0  0  0  0
   37.8870   23.6650   42.5300 H   0  0  0  0  0  0  0  0  0  0  0  0
   36.3310   23.5830   41.6420 H   0  0  0  0  0  0  0  0  0  0  0  0
   38.0940   22.8230   40.5980 C   0  0  0  0  0  3  0  0  0  0  0  0
   37.3810   22.3540   39.3930 C   0  0  0  0  0  2  0  0  0  0  0  0
   38.6290   23.2350   39.2790 C   0  0  0  0  0  2  0  0  0  0  0  0
  1  2  1  0  0  0  0
  2 20  1  0  0  0  0
  2  3  2  0  0  0  0
  3  8  1  0  0  0  0
  4  3  1  0  0  0  0
  5  4  2  0  0  0  0
  6  1  2  0  0  0  0
  6  5  1  0  0  0  0
  7  1  1  0  0  0  0
 10  9  1  0  0  0  0
 11  5  1  0  0  0  0
 11 10  2  0  0  0  0
 12 11  1  0  0  0  0
 13 12  2  0  0  0  0
 13 14  1  0  0  0  0
 14 15  2  0  0  0  0
 15 10  1  0  0  0  0
 15 19  1  0  0  0  0
 16 12  1  0  0  0  0
 17 13  1  0  0  0  0
 18 14  1  0  0  0  0
 21 22  1  0  0  0  0
 21 20  2  0  0  0  0
 22 24  1  0  0  0  0
 22 23  1  0  0  0  0
 25 22  1  0  0  0  0
 26 25  1  0  0  0  0
 27 26  1  0  0  0  0
 27 25  1  0  0  0  0
M  END
>  <minimizedAffinity>
-4.87470818

$$$$

 OpenBabel03252501483D

 27 29  0  0  0  0  0  0  0  0999 V2000
   36.1520   27.6680   38.9350 C   0  0  0  0  0  0  0  0  0  0  0  0
   35.1420   28.6140   39.2560 C   0  0  0  0  0  0  0  0  0  0  0  0
   35.2290   29.3140   40.4590 C   0  0  0  0  0  0  0  0  0  0  0  0
   36.2950   29.0440   41.2670 N   0  0  0  0  0  0  0  0  0  0  0  0
   37.2290   28.1440   40.9300 C   0  0  0  0  0  0  0  0  0  0  0  0
   37.1590   27.4600   39.7730 N   0  0  0  0  0  0  0  0  0  0  0  0
   36.1130   27.1080   38.0080 H   0  0  0  0  0  0  0  0  0  0  0  0
   34.4880   30.0370   40.7390 H   0  0  0  0  0  0  0  0  0  0  0  0
   37.0920   26.1580   42.8690 F   0  0  0  0  0  0  0  0  0  0  0  0
   38.2400   26.8940   42.8020 C   0  0  0  0  0  0  0  0  0  0  0  0
   38.3440   27.9020   41.8390 C   0  0  0  0  0  0  0  0  0  0  0  0
   39.4720   28.6680   41.7290 C   0  0  0  0  0  0  0  0  0  0  0  0
   40.5190   28.4090   42.6140 C   0  0  0  0  0  0  0  0  0  0  0  0
   40.4380   27.4050   43.5870 C   0  0  0  0  0  0  0  0  0  0  0  0
   39.2760   26.6360   43.6800 C   0  0  0  0  0  0  0  0  0  0  0  0
   39.5730   29.4520   40.9910 H   0  0  0  0  0  0  0  0  0  0  0  0
   41.4460   28.9610   42.6020 H   0  0  0  0  0  0  0  0  0  0  0  0
   41.2640   27.2230   44.2620 H   0  0  0  0  0  0  0  0  0  0  0  0
   39.1600   25.8520   44.4090 H   0  0  0  0  0  0  0  0  0  0  0  0
   34.0350   28.8410   38.3320 C   0  0  0  0  0  3  0  0  0  0  0  0
   34.1440   28.9280   37.0180 C   0  0  0  0  0  3  0  0  0  0  0  0
   32.9460   29.1660   36.1420 C   0  0  0  0  0  0  0  0  0  0  0  0
   33.2620   29.8810   35.3570 H   0  0  0  0  0  0  0  0  0  0  0  0
   32.6510   28.2180   35.6370 H   0  0  0  0  0  0  0  0  0  0  0  0
   31.8010   29.7950   36.8890 C   0  0  0  0  0  3  0  0  0  0  0  0
   30.9670   30.8140   36.2230 C   0  0  0  0  0  2  0  0  0  0  0  0
   30.3870   29.4510   36.6120 C   0  0  0  0  0  2  0  0  0  0  0  0
  1  2  2  0  0  0  0
  1  6  1  0  0  0  0
  2  3  1  0  0  0  0
  3  8  1  0  0  0  0
  3  4  2  0  0  0  0
  5  4  1  0  0  0  0
  5 11  1  0  0  0  0
  6  5  2  0  0  0  0
  7  1  1  0  0  0  0
 10  9  1  0  0  0  0
 10 15  1  0  0  0  0
 11 10  2  0  0  0  0
 12 11  1  0  0  0  0
 12 13  2  0  0  0  0
 13 14  1  0  0  0  0
 14 15  2  0  0  0  0
 14 18  1  0  0  0  0
 15 19  1  0  0  0  0
 16 12  1  0  0  0  0
 17 13  1  0  0  0  0
 20  2  1  0  0  0  0
 21 20  2  0  0  0  0
 22 25  1  0  0  0  0
 22 21  1  0  0  0  0
 23 22  1  0  0  0  0
 24 22  1  0  0  0  0
 26 27  1  0  0  0  0
 26 25  1  0  0  0  0
 27 25  1  0  0  0  0
M  END
>  <minimizedAffinity>
-4.80986166

$$$$

 OpenBabel03252501483D

 27 29  0  0  0  0  0  0  0  0999 V2000
   33.6110   29.2620   35.7410 C   0  0  0  0  0  0  0  0  0  0  0  0
   33.0530   29.1580   37.0440 C   0  0  0  0  0  0  0  0  0  0  0  0
   31.7350   29.5670   37.2480 C   0  0  0  0  0  0  0  0  0  0  0  0
   31.0520   30.0480   36.1700 N   0  0  0  0  0  0  0  0  0  0  0  0
   31.6120   30.1310   34.9560 C   0  0  0  0  0  0  0  0  0  0  0  0
   32.8830   29.7410   34.7420 N   0  0  0  0  0  0  0  0  0  0  0  0
   34.6310   28.9530   35.5500 H   0  0  0  0  0  0  0  0  0  0  0  0
   31.2750   29.5050   38.2160 H   0  0  0  0  0  0  0  0  0  0  0  0
   31.0890   32.8500   34.7270 F   0  0  0  0  0  0  0  0  0  0  0  0
   30.5830   32.0290   33.7610 C   0  0  0  0  0  0  0  0  0  0  0  0
   30.8270   30.6550   33.8430 C   0  0  0  0  0  0  0  0  0  0  0  0
   30.3430   29.7880   32.9020 C   0  0  0  0  0  0  0  0  0  0  0  0
   29.5970   30.3250   31.8520 C   0  0  0  0  0  0  0  0  0  0  0  0
   29.3400   31.6980   31.7480 C   0  0  0  0  0  0  0  0  0  0  0  0
   29.8440   32.5620   32.7220 C   0  0  0  0  0  0  0  0  0  0  0  0
   30.5200   28.7230   32.9470 H   0  0  0  0  0  0  0  0  0  0  0  0
   29.1760   29.7200   31.0640 H   0  0  0  0  0  0  0  0  0  0  0  0
   28.7580   32.0900   30.9240 H   0  0  0  0  0  0  0  0  0  0  0  0
   29.6770   33.6260   32.6910 H   0  0  0  0  0  0  0  0  0  0  0  0
   33.8550   28.6300   38.1420 C   0  0  0  0  0  3  0  0  0  0  0  0
   35.1760   28.6240   38.1880 C   0  0  0  0  0  3  0  0  0  0  0  0
   35.9220   28.0580   39.3620 C   0  0  0  0  0  0  0  0  0  0  0  0
   35.5690   27.0160   39.4920 H   0  0  0  0  0  0  0  0  0  0  0  0
   37.0110   28.0200   39.1380 H   0  0  0  0  0  0  0  0  0  0  0  0
   35.6280   28.7950   40.6420 C   0  0  0  0  0  3  0  0  0  0  0  0
   36.7230   29.0780   41.5890 C   0  0  0  0  0  2  0  0  0  0  0  0
   36.0080   30.2110   40.8480 C   0  0  0  0  0  2  0  0  0  0  0  0
  1  2  1  0  0  0  0
  2  3  2  0  0  0  0
  2 20  1  0  0  0  0
  3  8  1  0  0  0  0
  4  3  1  0  0  0  0
  5  4  2  0  0  0  0
  6  5  1  0  0  0  0
  6  1  2  0  0  0  0
  7  1  1  0  0  0  0
 10 11  1  0  0  0  0
 10  9  1  0  0  0  0
 11  5  1  0  0  0  0
 12 16  1  0  0  0  0
 12 11  2  0  0  0  0
 13 12  1  0  0  0  0
 14 13  2  0  0  0  0
 14 15  1  0  0  0  0
 15 10  2  0  0  0  0
 17 13  1  0  0  0  0
 18 14  1  0  0  0  0
 19 15  1  0  0  0  0
 20 21  2  0  0  0  0
 21 22  1  0  0  0  0
 22 23  1  0  0  0  0
 22 25  1  0  0  0  0
 24 22  1  0  0  0  0
 25 27  1  0  0  0  0
 25 26  1  0  0  0  0
 27 26  1  0  0  0  0
M  END
>  <minimizedAffinity>
-4.75746012

$$$$

 OpenBabel03252501483D

 27 29  0  0  0  0  0  0  0  0999 V2000
   35.3940   27.6770   38.1480 C   0  0  0  0  0  0  0  0  0  0  0  0
   34.2720   28.5360   38.2940 C   0  0  0  0  0  0  0  0  0  0  0  0
   34.1230   29.2570   39.4790 C   0  0  0  0  0  0  0  0  0  0  0  0
   35.0760   29.0900   40.4400 N   0  0  0  0  0  0  0  0  0  0  0  0
   36.1210   28.2690   40.2660 C   0  0  0  0  0  0  0  0  0  0  0  0
   36.2800   27.5670   39.1280 N   0  0  0  0  0  0  0  0  0  0  0  0
   35.5380   27.1040   37.2400 H   0  0  0  0  0  0  0  0  0  0  0  0
   33.2910   29.9170   39.6300 H   0  0  0  0  0  0  0  0  0  0  0  0
   38.5960   29.5230   40.0960 F   0  0  0  0  0  0  0  0  0  0  0  0
   38.3420   28.7810   41.2130 C   0  0  0  0  0  0  0  0  0  0  0  0
   37.1070   28.1360   41.3330 C   0  0  0  0  0  0  0  0  0  0  0  0
   36.8020   27.3810   42.4320 C   0  0  0  0  0  0  0  0  0  0  0  0
   37.7680   27.2760   43.4330 C   0  0  0  0  0  0  0  0  0  0  0  0
   39.0120   27.9120   43.3360 C   0  0  0  0  0  0  0  0  0  0  0  0
   39.3000   28.6770   42.2040 C   0  0  0  0  0  0  0  0  0  0  0  0
   35.8530   26.8750   42.5440 H   0  0  0  0  0  0  0  0  0  0  0  0
   37.6160   26.7020   44.3350 H   0  0  0  0  0  0  0  0  0  0  0  0
   39.7450   27.8150   44.1260 H   0  0  0  0  0  0  0  0  0  0  0  0
   40.2400   29.1880   42.0780 H   0  0  0  0  0  0  0  0  0  0  0  0
   33.2980   28.6570   37.2140 C   0  0  0  0  0  3  0  0  0  0  0  0
   33.5790   29.0010   35.9690 C   0  0  0  0  0  3  0  0  0  0  0  0
   32.5090   29.1000   34.9180 C   0  0  0  0  0  0  0  0  0  0  0  0
   32.9310   28.6640   33.9910 H   0  0  0  0  0  0  0  0  0  0  0  0
   31.6300   28.4850   35.2130 H   0  0  0  0  0  0  0  0  0  0  0  0
   32.1330   30.5250   34.6130 C   0  0  0  0  0  3  0  0  0  0  0  0
   30.9010   30.8080   33.8510 C   0  0  0  0  0  2  0  0  0  0  0  0
   31.0350   31.2260   35.3190 C   0  0  0  0  0  2  0  0  0  0  0  0
  1  2  2  0  0  0  0
  1  6  1  0  0  0  0
  2  3  1  0  0  0  0
  3  8  1  0  0  0  0
  3  4  2  0  0  0  0
  5  4  1  0  0  0  0
  5 11  1  0  0  0  0
  6  5  2  0  0  0  0
  7  1  1  0  0  0  0
  9 10  1  0  0  0  0
 10 11  2  0  0  0  0
 10 15  1  0  0  0  0
 11 12  1  0  0  0  0
 12 16  1  0  0  0  0
 12 13  2  0  0  0  0
 13 17  1  0  0  0  0
 14 13  1  0  0  0  0
 14 18  1  0  0  0  0
 15 14  2  0  0  0  0
 19 15  1  0  0  0  0
 20  2  1  0  0  0  0
 21 20  2  0  0  0  0
 22 24  1  0  0  0  0
 22 21  1  0  0  0  0
 23 22  1  0  0  0  0
 25 22  1  0  0  0  0
 25 27  1  0  0  0  0
 26 25  1  0  0  0  0
 26 27  1  0  0  0  0
M  END
>  <minimizedAffinity>
-4.640131

$$$$

 OpenBabel03252501483D

 27 29  0  0  0  0  0  0  0  0999 V2000
   37.5660   28.9970   40.5690 C   0  0  0  0  0  0  0  0  0  0  0  0
   37.6720   28.3760   41.8420 C   0  0  0  0  0  0  0  0  0  0  0  0
   38.4410   28.9890   42.8310 C   0  0  0  0  0  0  0  0  0  0  0  0
   39.0550   30.1640   42.5100 N   0  0  0  0  0  0  0  0  0  0  0  0
   38.9320   30.7200   41.2970 C   0  0  0  0  0  0  0  0  0  0  0  0
   38.1930   30.1410   40.3320 N   0  0  0  0  0  0  0  0  0  0  0  0
   36.9750   28.5460   39.7800 H   0  0  0  0  0  0  0  0  0  0  0  0
   38.5480   28.5540   43.8060 H   0  0  0  0  0  0  0  0  0  0  0  0
   41.6990   30.8290   41.0680 F   0  0  0  0  0  0  0  0  0  0  0  0
   41.0080   31.9960   40.9110 C   0  0  0  0  0  0  0  0  0  0  0  0
   39.6150   31.9790   41.0190 C   0  0  0  0  0  0  0  0  0  0  0  0
   38.8740   33.1200   40.8690 C   0  0  0  0  0  0  0  0  0  0  0  0
   39.5600   34.3050   40.6030 C   0  0  0  0  0  0  0  0  0  0  0  0
   40.9560   34.3470   40.4900 C   0  0  0  0  0  0  0  0  0  0  0  0
   41.6890   33.1700   40.6470 C   0  0  0  0  0  0  0  0  0  0  0  0
   37.7970   33.1270   40.9480 H   0  0  0  0  0  0  0  0  0  0  0  0
   39.0620   35.2520   40.4690 H   0  0  0  0  0  0  0  0  0  0  0  0
   41.4650   35.2790   40.2830 H   0  0  0  0  0  0  0  0  0  0  0  0
   42.7630   33.1450   40.5710 H   0  0  0  0  0  0  0  0  0  0  0  0
   36.9800   27.1170   42.1010 C   0  0  0  0  0  3  0  0  0  0  0  0
   37.5350   25.9190   42.0560 C   0  0  0  0  0  3  0  0  0  0  0  0
   36.7450   24.6720   42.3360 C   0  0  0  0  0  0  0  0  0  0  0  0
   37.3450   24.0660   43.0440 H   0  0  0  0  0  0  0  0  0  0  0  0
   35.7890   24.9350   42.8420 H   0  0  0  0  0  0  0  0  0  0  0  0
   36.5280   23.8380   41.1030 C   0  0  0  0  0  3  0  0  0  0  0  0
   37.1160   24.2660   39.8190 C   0  0  0  0  0  2  0  0  0  0  0  0
   37.5930   22.9900   40.5190 C   0  0  0  0  0  2  0  0  0  0  0  0
  1  2  1  0  0  0  0
  2 20  1  0  0  0  0
  2  3  2  0  0  0  0
  3  8  1  0  0  0  0
  4  3  1  0  0  0  0
  5  4  2  0  0  0  0
  6  1  2  0  0  0  0
  6  5  1  0  0  0  0
  7  1  1  0  0  0  0
 10 11  1  0  0  0  0
 10  9  1  0  0  0  0
 11  5  1  0  0  0  0
 12 16  1  0  0  0  0
 12 11  2  0  0  0  0
 13 12  1  0  0  0  0
 14 13  2  0  0  0  0
 14 15  1  0  0  0  0
 15 10  2  0  0  0  0
 17 13  1  0  0  0  0
 18 14  1  0  0  0  0
 19 15  1  0  0  0  0
 21 20  2  0  0  0  0
 21 22  1  0  0  0  0
 22 24  1  0  0  0  0
 22 23  1  0  0  0  0
 25 22  1  0  0  0  0
 26 27  1  0  0  0  0
 26 25  1  0  0  0  0
 27 25  1  0  0  0  0
M  END
>  <minimizedAffinity>
-4.55156517

$$$$

 OpenBabel03252501483D

 27 29  0  0  0  0  0  0  0  0999 V2000
   39.3620   29.7670   40.8310 C   0  0  0  0  0  0  0  0  0  0  0  0
   38.4020   30.8030   40.9790 C   0  0  0  0  0  0  0  0  0  0  0  0
   37.0570   30.4630   41.1250 C   0  0  0  0  0  0  0  0  0  0  0  0
   36.7410   29.1360   41.1150 N   0  0  0  0  0  0  0  0  0  0  0  0
   37.6750   28.1860   40.9730 C   0  0  0  0  0  0  0  0  0  0  0  0
   38.9770   28.4980   40.8320 N   0  0  0  0  0  0  0  0  0  0  0  0
   40.4140   29.9980   40.7160 H   0  0  0  0  0  0  0  0  0  0  0  0
   36.3000   31.2140   41.2400 H   0  0  0  0  0  0  0  0  0  0  0  0
   37.8130   26.6520   43.2860 F   0  0  0  0  0  0  0  0  0  0  0  0
   37.3540   26.0430   42.1540 C   0  0  0  0  0  0  0  0  0  0  0  0
   37.2700   26.7840   40.9710 C   0  0  0  0  0  0  0  0  0  0  0  0
   36.8160   26.2220   39.8100 C   0  0  0  0  0  0  0  0  0  0  0  0
   36.4370   24.8800   39.8460 C   0  0  0  0  0  0  0  0  0  0  0  0
   36.5120   24.1180   41.0180 C   0  0  0  0  0  0  0  0  0  0  0  0
   36.9790   24.7130   42.1910 C   0  0  0  0  0  0  0  0  0  0  0  0
   36.7440   26.7780   38.8860 H   0  0  0  0  0  0  0  0  0  0  0  0
   36.0670   24.3530   38.9800 H   0  0  0  0  0  0  0  0  0  0  0  0
   36.2120   23.0780   41.0200 H   0  0  0  0  0  0  0  0  0  0  0  0
   37.0560   24.1740   43.1200 H   0  0  0  0  0  0  0  0  0  0  0  0
   38.8280   32.1990   40.9790 C   0  0  0  0  0  3  0  0  0  0  0  0
   39.8940   32.6710   40.3560 C   0  0  0  0  0  3  0  0  0  0  0  0
   40.2580   34.1270   40.4110 C   0  0  0  0  0  0  0  0  0  0  0  0
   39.8610   34.5910   39.4860 H   0  0  0  0  0  0  0  0  0  0  0  0
   39.7540   34.6130   41.2760 H   0  0  0  0  0  0  0  0  0  0  0  0
   41.7470   34.3490   40.4210 C   0  0  0  0  0  3  0  0  0  0  0  0
   42.6020   33.5230   41.2960 C   0  0  0  0  0  2  0  0  0  0  0  0
   42.6940   33.4130   39.7710 C   0  0  0  0  0  2  0  0  0  0  0  0
  1  6  2  0  0  0  0
  1  2  1  0  0  0  0
  2 20  1  0  0  0  0
  2  3  2  0  0  0  0
  3  8  1  0  0  0  0
  4  3  1  0  0  0  0
  5  4  2  0  0  0  0
  6  5  1  0  0  0  0
  7  1  1  0  0  0  0
 10 15  1  0  0  0  0
 10  9  1  0  0  0  0
 11  5  1  0  0  0  0
 11 10  2  0  0  0  0
 12 13  2  0  0  0  0
 12 11  1  0  0  0  0
 13 14  1  0  0  0  0
 14 18  1  0  0  0  0
 14 15  2  0  0  0  0
 15 19  1  0  0  0  0
 16 12  1  0  0  0  0
 17 13  1  0  0  0  0
 21 22  1  0  0  0  0
 21 20  2  0  0  0  0
 22 25  1  0  0  0  0
 22 24  1  0  0  0  0
 23 22  1  0  0  0  0
 25 26  1  0  0  0  0
 27 25  1  0  0  0  0
 27 26  1  0  0  0  0
M  END
>  <minimizedAffinity>
-4.52683449

$$$$

 OpenBabel03252501483D

 27 29  0  0  0  0  0  0  0  0999 V2000
   38.0160   29.1570   39.0640 C   0  0  0  0  0  0  0  0  0  0  0  0
   36.8840   30.0010   38.9030 C   0  0  0  0  0  0  0  0  0  0  0  0
   35.6110   29.4310   38.9080 C   0  0  0  0  0  0  0  0  0  0  0  0
   35.5280   28.0790   39.0690 N   0  0  0  0  0  0  0  0  0  0  0  0
   36.6190   27.3160   39.2180 C   0  0  0  0  0  0  0  0  0  0  0  0
   37.8550   27.8490   39.2150 N   0  0  0  0  0  0  0  0  0  0  0  0
   39.0180   29.5680   39.0650 H   0  0  0  0  0  0  0  0  0  0  0  0
   34.7300   30.0320   38.7900 H   0  0  0  0  0  0  0  0  0  0  0  0
   37.1470   26.0910   41.6560 F   0  0  0  0  0  0  0  0  0  0  0  0
   36.7370   25.2930   40.6270 C   0  0  0  0  0  0  0  0  0  0  0  0
   36.4610   25.8750   39.3860 C   0  0  0  0  0  0  0  0  0  0  0  0
   36.0460   25.1210   38.3230 C   0  0  0  0  0  0  0  0  0  0  0  0
   35.9060   23.7470   38.5200 C   0  0  0  0  0  0  0  0  0  0  0  0
   36.1760   23.1410   39.7540 C   0  0  0  0  0  0  0  0  0  0  0  0
   36.5990   23.9320   40.8240 C   0  0  0  0  0  0  0  0  0  0  0  0
   35.8280   25.5510   37.3560 H   0  0  0  0  0  0  0  0  0  0  0  0
   35.5840   23.0730   37.7410 H   0  0  0  0  0  0  0  0  0  0  0  0
   36.0600   22.0730   39.8820 H   0  0  0  0  0  0  0  0  0  0  0  0
   36.8200   23.5190   41.7940 H   0  0  0  0  0  0  0  0  0  0  0  0
   37.0640   31.4400   38.7370 C   0  0  0  0  0  3  0  0  0  0  0  0
   37.0680   32.3250   39.7180 C   0  0  0  0  0  3  0  0  0  0  0  0
   37.2600   33.7920   39.4550 C   0  0  0  0  0  0  0  0  0  0  0  0
   37.4240   33.9020   38.3650 H   0  0  0  0  0  0  0  0  0  0  0  0
   36.3320   34.3490   39.7150 H   0  0  0  0  0  0  0  0  0  0  0  0
   38.4740   34.3480   40.1500 C   0  0  0  0  0  3  0  0  0  0  0  0
   39.2860   33.4720   41.0160 C   0  0  0  0  0  2  0  0  0  0  0  0
   39.8530   34.0370   39.7110 C   0  0  0  0  0  2  0  0  0  0  0  0
  1  7  1  0  0  0  0
  1  6  1  0  0  0  0
  2  3  1  0  0  0  0
  2  1  2  0  0  0  0
  3  4  2  0  0  0  0
  4  5  1  0  0  0  0
  5 11  1  0  0  0  0
  6  5  2  0  0  0  0
  8  3  1  0  0  0  0
 10 15  1  0  0  0  0
 10  9  1  0  0  0  0
 11 10  2  0  0  0  0
 12 13  2  0  0  0  0
 12 11  1  0  0  0  0
 13 14  1  0  0  0  0
 14 18  1  0  0  0  0
 14 15  2  0  0  0  0
 15 19  1  0  0  0  0
 16 12  1  0  0  0  0
 17 13  1  0  0  0  0
 20  2  1  0  0  0  0
 20 21  2  0  0  0  0
 22 24  1  0  0  0  0
 22 21  1  0  0  0  0
 22 25  1  0  0  0  0
 23 22  1  0  0  0  0
 25 26  1  0  0  0  0
 27 25  1  0  0  0  0
 27 26  1  0  0  0  0
M  END
>  <minimizedAffinity>
-4.50387669

$$$$
