
 OpenBabel03252504313D

 27 28  0  0  0  0  0  0  0  0999 V2000
   34.4440   29.0530   37.2490 C   0  0  0  0  0  3  0  0  0  0  0  0
   35.0540   29.0190   38.4410 C   0  0  0  0  0  3  0  0  0  0  0  0
   36.3880   29.6660   38.7500 C   0  0  0  0  0  0  0  0  0  0  0  0
   37.0490   29.3290   37.9120 H   0  0  0  0  0  0  0  0  0  0  0  0
   36.3180   30.7510   38.7230 H   0  0  0  0  0  0  0  0  0  0  0  0
   36.8470   29.1130   39.9280 O   0  0  0  0  0  0  0  0  0  0  0  0
   38.0350   31.3610   40.7030 O   0  0  0  0  0  0  0  0  0  0  0  0
   37.0470   30.3100   41.1150 P   0  0  1  0  0  0  0  0  0  0  0  0
   35.5700   31.0790   41.4260 O   0  0  0  0  0  0  0  0  0  0  0  0
   35.3860   31.1690   42.3860 H   0  0  0  0  0  0  0  0  0  0  0  0
   37.5520   29.5590   42.5530 O   0  0  0  0  0  0  0  0  0  0  0  0
   37.3740   28.2010   42.5260 C   0  0  0  0  0  3  0  0  0  0  0  0
   36.6140   27.4840   43.5780 C   0  0  0  0  0  2  0  0  0  0  0  0
   38.1250   27.4640   43.6330 C   0  0  0  0  0  2  0  0  0  0  0  0
   33.2230   28.3980   37.1610 O   0  0  0  0  0  0  0  0  0  0  0  0
   32.1850   28.7090   36.3150 C   0  0  0  0  0  0  0  0  0  0  0  0
   32.6540   29.1060   35.3610 H   0  0  0  0  0  0  0  0  0  0  0  0
   31.5630   27.8470   36.0740 H   0  0  0  0  0  0  0  0  0  0  0  0
   31.2170   30.8710   35.8230 C   0  0  0  0  0  0  0  0  0  0  0  0
   31.3550   29.8500   36.7900 C   0  0  0  0  0  0  0  0  0  0  0  0
   30.7330   30.0370   37.9810 C   0  0  0  0  0  0  0  0  0  0  0  0
   30.0430   31.1660   38.1450 N   0  0  0  0  0  0  0  0  0  0  0  0
   29.9120   32.1230   37.2430 C   0  0  0  0  0  0  0  0  0  0  0  0
   30.5190   32.0070   35.9940 N   0  0  0  0  0  0  0  0  0  0  0  0
   31.6720   30.8220   34.8390 H   0  0  0  0  0  0  0  0  0  0  0  0
   30.8780   29.2210   38.6760 H   0  0  0  0  0  0  0  0  0  0  0  0
   29.3350   33.0150   37.4430 H   0  0  0  0  0  0  0  0  0  0  0  0
  1  2  2  0  0  0  0
  2  3  1  0  0  0  0
  3  6  1  0  0  0  0
  4  3  1  0  0  0  0
  5  3  1  0  0  0  0
  6  8  1  0  0  0  0
  8  7  2  6  0  0  0
  8  9  1  0  0  0  0
  8 11  1  0  0  0  0
  9 10  1  0  0  0  0
 12 11  1  0  0  0  0
 12 13  1  0  0  0  0
 12 14  1  0  0  0  0
 13 14  1  0  0  0  0
 15  1  1  0  0  0  0
 16 20  1  0  0  0  0
 16 15  1  0  0  0  0
 17 16  1  0  0  0  0
 18 16  1  0  0  0  0
 19 24  2  0  0  0  0
 19 20  1  0  0  0  0
 20 21  2  0  0  0  0
 21 22  1  0  0  0  0
 21 26  1  0  0  0  0
 23 27  1  0  0  0  0
 23 22  2  0  0  0  0
 24 23  1  0  0  0  0
 25 19  1  0  0  0  0
M  END
>  <minimizedAffinity>
-4.58900499

$$$$

 OpenBabel03252504313D

 27 28  0  0  0  0  0  0  0  0999 V2000
   38.8100   27.2260   43.4920 C   0  0  0  0  0  3  0  0  0  0  0  0
   39.5140   28.2800   43.0580 C   0  0  0  0  0  3  0  0  0  0  0  0
   38.9430   29.6610   42.8140 C   0  0  0  0  0  0  0  0  0  0  0  0
   39.2180   30.2300   43.7390 H   0  0  0  0  0  0  0  0  0  0  0  0
   39.4160   30.1400   41.9590 H   0  0  0  0  0  0  0  0  0  0  0  0
   37.5710   29.5330   42.7620 O   0  0  0  0  0  0  0  0  0  0  0  0
   36.6990   28.8600   40.3430 O   0  0  0  0  0  0  0  0  0  0  0  0
   36.9800   30.0230   41.2480 P   0  0  1  0  0  0  0  0  0  0  0  0
   35.5390   30.8940   41.4360 O   0  0  0  0  0  0  0  0  0  0  0  0
   35.5260   31.7220   40.9100 H   0  0  0  0  0  0  0  0  0  0  0  0
   38.1210   31.0610   40.5370 O   0  0  0  0  0  0  0  0  0  0  0  0
   37.6960   32.3630   40.5020 C   0  0  0  0  0  3  0  0  0  0  0  0
   37.3180   33.0360   39.2360 C   0  0  0  0  0  2  0  0  0  0  0  0
   38.6830   33.3110   39.8240 C   0  0  0  0  0  2  0  0  0  0  0  0
   39.5120   26.0390   43.6540 O   0  0  0  0  0  0  0  0  0  0  0  0
   39.7380   25.0830   42.6920 C   0  0  0  0  0  0  0  0  0  0  0  0
   40.6720   25.4010   42.1330 H   0  0  0  0  0  0  0  0  0  0  0  0
   39.8960   24.0890   43.1120 H   0  0  0  0  0  0  0  0  0  0  0  0
   37.5630   24.2910   41.9910 C   0  0  0  0  0  0  0  0  0  0  0  0
   38.6950   25.0530   41.6300 C   0  0  0  0  0  0  0  0  0  0  0  0
   38.6840   25.6390   40.4060 C   0  0  0  0  0  0  0  0  0  0  0  0
   37.6070   25.4480   39.6430 N   0  0  0  0  0  0  0  0  0  0  0  0
   36.5460   24.7360   39.9770 C   0  0  0  0  0  0  0  0  0  0  0  0
   36.4790   24.1030   41.2170 N   0  0  0  0  0  0  0  0  0  0  0  0
   37.4690   23.7810   42.9440 H   0  0  0  0  0  0  0  0  0  0  0  0
   39.5780   26.2070   40.1900 H   0  0  0  0  0  0  0  0  0  0  0  0
   35.7040   24.6230   39.3080 H   0  0  0  0  0  0  0  0  0  0  0  0
  1 15  1  0  0  0  0
  2  1  2  0  0  0  0
  3  2  1  0  0  0  0
  3  4  1  0  0  0  0
  5  3  1  0  0  0  0
  6  3  1  0  0  0  0
  8  7  2  6  0  0  0
  8  9  1  0  0  0  0
  8  6  1  0  0  0  0
 10  9  1  0  0  0  0
 11  8  1  0  0  0  0
 12 11  1  0  0  0  0
 13 14  1  0  0  0  0
 13 12  1  0  0  0  0
 14 12  1  0  0  0  0
 16 18  1  0  0  0  0
 16 15  1  0  0  0  0
 17 16  1  0  0  0  0
 19 25  1  0  0  0  0
 20 19  1  0  0  0  0
 20 16  1  0  0  0  0
 21 20  2  0  0  0  0
 22 23  2  0  0  0  0
 22 21  1  0  0  0  0
 23 24  1  0  0  0  0
 24 19  2  0  0  0  0
 26 21  1  0  0  0  0
 27 23  1  0  0  0  0
M  END
>  <minimizedAffinity>
-4.45477486

$$$$

 OpenBabel03252504313D

 27 28  0  0  0  0  0  0  0  0999 V2000
   36.7060   29.1780   38.9840 C   0  0  0  0  0  3  0  0  0  0  0  0
   36.0200   29.3860   40.1170 C   0  0  0  0  0  3  0  0  0  0  0  0
   36.0110   28.4490   41.3070 C   0  0  0  0  0  0  0  0  0  0  0  0
   35.9180   29.1370   42.1860 H   0  0  0  0  0  0  0  0  0  0  0  0
   35.1440   27.7920   41.2870 H   0  0  0  0  0  0  0  0  0  0  0  0
   37.2430   27.8330   41.3510 O   0  0  0  0  0  0  0  0  0  0  0  0
   39.2010   29.2290   42.4830 O   0  0  0  0  0  0  0  0  0  0  0  0
   38.0820   28.2690   42.7610 P   0  0  1  0  0  0  0  0  0  0  0  0
   37.0300   29.0040   43.8660 O   0  0  0  0  0  0  0  0  0  0  0  0
   37.1280   28.6490   44.7750 H   0  0  0  0  0  0  0  0  0  0  0  0
   38.6860   26.8550   43.4840 O   0  0  0  0  0  0  0  0  0  0  0  0
   39.1380   25.9470   42.5640 C   0  0  0  0  0  3  0  0  0  0  0  0
   38.4830   24.6310   42.3660 C   0  0  0  0  0  2  0  0  0  0  0  0
   39.7490   24.6940   43.1890 C   0  0  0  0  0  2  0  0  0  0  0  0
   36.5870   30.1540   38.0030 O   0  0  0  0  0  0  0  0  0  0  0  0
   37.5950   30.9490   37.5130 C   0  0  0  0  0  0  0  0  0  0  0  0
   38.5220   30.2980   37.4550 H   0  0  0  0  0  0  0  0  0  0  0  0
   37.3760   31.3450   36.5200 H   0  0  0  0  0  0  0  0  0  0  0  0
   39.3980   32.1800   38.5540 C   0  0  0  0  0  0  0  0  0  0  0  0
   37.9970   32.0380   38.4450 C   0  0  0  0  0  0  0  0  0  0  0  0
   37.2290   32.8840   39.1770 C   0  0  0  0  0  0  0  0  0  0  0  0
   37.8570   33.7800   39.9400 N   0  0  0  0  0  0  0  0  0  0  0  0
   39.1670   33.9150   40.0450 C   0  0  0  0  0  0  0  0  0  0  0  0
   40.0250   33.0860   39.3250 N   0  0  0  0  0  0  0  0  0  0  0  0
   40.1020   31.5560   38.0140 H   0  0  0  0  0  0  0  0  0  0  0  0
   36.1680   32.7250   39.0490 H   0  0  0  0  0  0  0  0  0  0  0  0
   39.6100   34.6670   40.6840 H   0  0  0  0  0  0  0  0  0  0  0  0
  1  2  2  0  0  0  0
  2  3  1  0  0  0  0
  3  6  1  0  0  0  0
  3  4  1  0  0  0  0
  5  3  1  0  0  0  0
  6  8  1  0  0  0  0
  8  7  2  6  0  0  0
  8 11  1  0  0  0  0
  8  9  1  0  0  0  0
  9 10  1  0  0  0  0
 12 14  1  0  0  0  0
 12 11  1  0  0  0  0
 13 12  1  0  0  0  0
 13 14  1  0  0  0  0
 15  1  1  0  0  0  0
 16 15  1  0  0  0  0
 16 20  1  0  0  0  0
 17 16  1  0  0  0  0
 18 16  1  0  0  0  0
 19 24  1  0  0  0  0
 20 19  2  0  0  0  0
 20 21  1  0  0  0  0
 21 22  2  0  0  0  0
 22 23  1  0  0  0  0
 23 27  1  0  0  0  0
 24 23  2  0  0  0  0
 25 19  1  0  0  0  0
 26 21  1  0  0  0  0
M  END
>  <minimizedAffinity>
-4.31216621

$$$$

 OpenBabel03252504313D

 27 28  0  0  0  0  0  0  0  0999 V2000
   39.3480   27.3370   43.1130 C   0  0  0  0  0  3  0  0  0  0  0  0
   38.1270   27.5580   43.6190 C   0  0  0  0  0  3  0  0  0  0  0  0
   37.3410   28.8420   43.4560 C   0  0  0  0  0  0  0  0  0  0  0  0
   36.3020   28.4920   43.2280 H   0  0  0  0  0  0  0  0  0  0  0  0
   37.3200   29.4140   44.3810 H   0  0  0  0  0  0  0  0  0  0  0  0
   37.8450   29.4910   42.3480 O   0  0  0  0  0  0  0  0  0  0  0  0
   35.7260   28.4680   41.1110 O   0  0  0  0  0  0  0  0  0  0  0  0
   36.6530   29.6470   41.1500 P   0  0  1  0  0  0  0  0  0  0  0  0
   35.7190   31.0320   41.4290 O   0  0  0  0  0  0  0  0  0  0  0  0
   35.5890   31.5700   40.6200 H   0  0  0  0  0  0  0  0  0  0  0  0
   37.4240   29.8390   39.6480 O   0  0  0  0  0  0  0  0  0  0  0  0
   36.6020   30.3940   38.7040 C   0  0  0  0  0  3  0  0  0  0  0  0
   36.0960   29.6200   37.5450 C   0  0  0  0  0  2  0  0  0  0  0  0
   37.2630   30.5570   37.3360 C   0  0  0  0  0  2  0  0  0  0  0  0
   39.9070   26.0930   43.3710 O   0  0  0  0  0  0  0  0  0  0  0  0
   40.3470   25.1830   42.4390 C   0  0  0  0  0  0  0  0  0  0  0  0
   40.9440   25.7680   41.6720 H   0  0  0  0  0  0  0  0  0  0  0  0
   40.9840   24.4100   42.8710 H   0  0  0  0  0  0  0  0  0  0  0  0
   39.5600   24.4900   40.2600 C   0  0  0  0  0  0  0  0  0  0  0  0
   39.2490   24.5810   41.6350 C   0  0  0  0  0  0  0  0  0  0  0  0
   38.0340   24.1230   42.0270 C   0  0  0  0  0  0  0  0  0  0  0  0
   37.2310   23.6240   41.0860 N   0  0  0  0  0  0  0  0  0  0  0  0
   37.5180   23.5380   39.7990 C   0  0  0  0  0  0  0  0  0  0  0  0
   38.7460   23.9860   39.3150 N   0  0  0  0  0  0  0  0  0  0  0  0
   40.5020   24.8270   39.8410 H   0  0  0  0  0  0  0  0  0  0  0  0
   37.8570   24.2200   43.0890 H   0  0  0  0  0  0  0  0  0  0  0  0
   36.8180   23.1200   39.0880 H   0  0  0  0  0  0  0  0  0  0  0  0
  1 15  1  0  0  0  0
  1  2  2  0  0  0  0
  3  2  1  0  0  0  0
  3  5  1  0  0  0  0
  4  3  1  0  0  0  0
  6  3  1  0  0  0  0
  8  7  2  6  0  0  0
  8  9  1  0  0  0  0
  8  6  1  0  0  0  0
 10  9  1  0  0  0  0
 11  8  1  0  0  0  0
 12 11  1  0  0  0  0
 13 12  1  0  0  0  0
 14 13  1  0  0  0  0
 14 12  1  0  0  0  0
 16 18  1  0  0  0  0
 16 15  1  0  0  0  0
 17 16  1  0  0  0  0
 19 20  1  0  0  0  0
 20 21  2  0  0  0  0
 20 16  1  0  0  0  0
 21 26  1  0  0  0  0
 22 21  1  0  0  0  0
 23 22  2  0  0  0  0
 24 23  1  0  0  0  0
 24 19  2  0  0  0  0
 25 19  1  0  0  0  0
 27 23  1  0  0  0  0
M  END
>  <minimizedAffinity>
-4.28614712

$$$$

 OpenBabel03252504313D

 27 28  0  0  0  0  0  0  0  0999 V2000
   37.2170   31.6110   40.7050 C   0  0  0  0  0  3  0  0  0  0  0  0
   36.4020   30.6630   40.2250 C   0  0  0  0  0  3  0  0  0  0  0  0
   36.0430   29.3820   40.9490 C   0  0  0  0  0  0  0  0  0  0  0  0
   35.8550   29.7140   42.0020 H   0  0  0  0  0  0  0  0  0  0  0  0
   35.1270   28.9470   40.5540 H   0  0  0  0  0  0  0  0  0  0  0  0
   37.1600   28.5750   40.9300 O   0  0  0  0  0  0  0  0  0  0  0  0
   39.0960   28.1280   42.6960 O   0  0  0  0  0  0  0  0  0  0  0  0
   37.6080   28.1310   42.5050 P   0  0  1  0  0  0  0  0  0  0  0  0
   36.9430   29.2090   43.6300 O   0  0  0  0  0  0  0  0  0  0  0  0
   36.5200   28.7530   44.3880 H   0  0  0  0  0  0  0  0  0  0  0  0
   36.9700   26.5890   42.8290 O   0  0  0  0  0  0  0  0  0  0  0  0
   37.6950   25.5870   42.2400 C   0  0  0  0  0  3  0  0  0  0  0  0
   37.5310   25.2300   40.8100 C   0  0  0  0  0  2  0  0  0  0  0  0
   36.8570   24.3700   41.8550 C   0  0  0  0  0  2  0  0  0  0  0  0
   37.4260   32.7170   39.8910 O   0  0  0  0  0  0  0  0  0  0  0  0
   38.2050   33.8120   40.1790 C   0  0  0  0  0  0  0  0  0  0  0  0
   37.8440   34.6510   39.5060 H   0  0  0  0  0  0  0  0  0  0  0  0
   38.1210   34.1280   41.2190 H   0  0  0  0  0  0  0  0  0  0  0  0
   40.5040   34.4880   40.5080 C   0  0  0  0  0  0  0  0  0  0  0  0
   39.6310   33.6450   39.7860 C   0  0  0  0  0  0  0  0  0  0  0  0
   40.1870   32.8220   38.8620 C   0  0  0  0  0  0  0  0  0  0  0  0
   41.5110   32.8740   38.7100 N   0  0  0  0  0  0  0  0  0  0  0  0
   42.3310   33.6610   39.3830 C   0  0  0  0  0  0  0  0  0  0  0  0
   41.8380   34.5360   40.3510 N   0  0  0  0  0  0  0  0  0  0  0  0
   40.1640   35.1830   41.2690 H   0  0  0  0  0  0  0  0  0  0  0  0
   39.4670   32.2030   38.3440 H   0  0  0  0  0  0  0  0  0  0  0  0
   43.3980   33.6520   39.2090 H   0  0  0  0  0  0  0  0  0  0  0  0
  2  1  2  0  0  0  0
  2  3  1  0  0  0  0
  3  4  1  0  0  0  0
  5  3  1  0  0  0  0
  6  3  1  0  0  0  0
  6  8  1  0  0  0  0
  8  7  2  1  0  0  0
  8 11  1  0  0  0  0
  8  9  1  0  0  0  0
  9 10  1  0  0  0  0
 12 11  1  0  0  0  0
 13 14  1  0  0  0  0
 13 12  1  0  0  0  0
 14 12  1  0  0  0  0
 15 16  1  0  0  0  0
 15  1  1  0  0  0  0
 16 18  1  0  0  0  0
 17 16  1  0  0  0  0
 19 25  1  0  0  0  0
 20 16  1  0  0  0  0
 20 19  2  0  0  0  0
 21 20  1  0  0  0  0
 22 21  2  0  0  0  0
 22 23  1  0  0  0  0
 23 24  2  0  0  0  0
 24 19  1  0  0  0  0
 26 21  1  0  0  0  0
 27 23  1  0  0  0  0
M  END
>  <minimizedAffinity>
-4.26764345

$$$$

 OpenBabel03252504313D

 27 28  0  0  0  0  0  0  0  0999 V2000
   37.3040   28.8910   42.5050 C   0  0  0  0  0  3  0  0  0  0  0  0
   38.4920   28.4730   42.9620 C   0  0  0  0  0  3  0  0  0  0  0  0
   38.7370   27.1470   43.6510 C   0  0  0  0  0  0  0  0  0  0  0  0
   38.8870   27.4280   44.7250 H   0  0  0  0  0  0  0  0  0  0  0  0
   37.8670   26.4980   43.5810 H   0  0  0  0  0  0  0  0  0  0  0  0
   39.9190   26.6410   43.1540 O   0  0  0  0  0  0  0  0  0  0  0  0
   40.6310   25.0280   41.1650 O   0  0  0  0  0  0  0  0  0  0  0  0
   39.6390   25.2170   42.2740 P   0  0  1  0  0  0  0  0  0  0  0  0
   39.7390   23.8680   43.2940 O   0  0  0  0  0  0  0  0  0  0  0  0
   38.9930   23.2430   43.1690 H   0  0  0  0  0  0  0  0  0  0  0  0
   38.0610   25.2750   41.6490 O   0  0  0  0  0  0  0  0  0  0  0  0
   37.4460   24.0510   41.6630 C   0  0  0  0  0  3  0  0  0  0  0  0
   37.5940   23.0800   40.5520 C   0  0  0  0  0  2  0  0  0  0  0  0
   36.3340   23.9120   40.6240 C   0  0  0  0  0  2  0  0  0  0  0  0
   37.2800   30.1420   41.9010 O   0  0  0  0  0  0  0  0  0  0  0  0
   36.2740   30.6540   41.1160 C   0  0  0  0  0  0  0  0  0  0  0  0
   35.3880   29.9550   41.2310 H   0  0  0  0  0  0  0  0  0  0  0  0
   35.9760   31.6590   41.4150 H   0  0  0  0  0  0  0  0  0  0  0  0
   37.2770   31.7280   39.1950 C   0  0  0  0  0  0  0  0  0  0  0  0
   36.5720   30.5960   39.6590 C   0  0  0  0  0  0  0  0  0  0  0  0
   36.2700   29.6370   38.7470 C   0  0  0  0  0  0  0  0  0  0  0  0
   36.6620   29.8400   37.4890 N   0  0  0  0  0  0  0  0  0  0  0  0
   37.3210   30.8980   37.0510 C   0  0  0  0  0  0  0  0  0  0  0  0
   37.6700   31.9270   37.9250 N   0  0  0  0  0  0  0  0  0  0  0  0
   37.5670   32.5520   39.8390 H   0  0  0  0  0  0  0  0  0  0  0  0
   35.7310   28.7980   39.1640 H   0  0  0  0  0  0  0  0  0  0  0  0
   37.6100   30.9980   36.0140 H   0  0  0  0  0  0  0  0  0  0  0  0
  1  2  2  0  0  0  0
  2  3  1  0  0  0  0
  3  4  1  0  0  0  0
  5  3  1  0  0  0  0
  6  3  1  0  0  0  0
  8  7  2  6  0  0  0
  8  6  1  0  0  0  0
  8  9  1  0  0  0  0
 10  9  1  0  0  0  0
 11 12  1  0  0  0  0
 11  8  1  0  0  0  0
 13 14  1  0  0  0  0
 13 12  1  0  0  0  0
 14 12  1  0  0  0  0
 15  1  1  0  0  0  0
 16 17  1  0  0  0  0
 16 18  1  0  0  0  0
 16 15  1  0  0  0  0
 19 20  1  0  0  0  0
 19 25  1  0  0  0  0
 20 16  1  0  0  0  0
 21 26  1  0  0  0  0
 21 20  2  0  0  0  0
 22 21  1  0  0  0  0
 23 22  2  0  0  0  0
 23 24  1  0  0  0  0
 24 19  2  0  0  0  0
 27 23  1  0  0  0  0
M  END
>  <minimizedAffinity>
-4.26324415

$$$$

 OpenBabel03252504313D

 27 28  0  0  0  0  0  0  0  0999 V2000
   37.0960   29.9080   41.3060 C   0  0  0  0  0  3  0  0  0  0  0  0
   38.2950   30.5000   41.4000 C   0  0  0  0  0  3  0  0  0  0  0  0
   38.7060   31.7470   40.6440 C   0  0  0  0  0  0  0  0  0  0  0  0
   37.7320   32.2230   40.3650 H   0  0  0  0  0  0  0  0  0  0  0  0
   39.2580   32.4330   41.2830 H   0  0  0  0  0  0  0  0  0  0  0  0
   39.3460   31.3350   39.4940 O   0  0  0  0  0  0  0  0  0  0  0  0
   37.2370   32.5470   38.4230 O   0  0  0  0  0  0  0  0  0  0  0  0
   38.3690   31.6060   38.1330 P   0  0  1  0  0  0  0  0  0  0  0  0
   39.2880   32.2710   36.8750 O   0  0  0  0  0  0  0  0  0  0  0  0
   39.1270   31.8290   36.0150 H   0  0  0  0  0  0  0  0  0  0  0  0
   37.7680   30.1090   37.5980 O   0  0  0  0  0  0  0  0  0  0  0  0
   36.4000   30.0460   37.6480 C   0  0  0  0  0  3  0  0  0  0  0  0
   35.6810   28.8080   38.0360 C   0  0  0  0  0  2  0  0  0  0  0  0
   35.7890   29.1540   36.5690 C   0  0  0  0  0  2  0  0  0  0  0  0
   36.9080   28.7700   42.0790 O   0  0  0  0  0  0  0  0  0  0  0  0
   37.6560   28.3850   43.1660 C   0  0  0  0  0  0  0  0  0  0  0  0
   38.5780   29.0460   43.1750 H   0  0  0  0  0  0  0  0  0  0  0  0
   37.1230   28.5050   44.1100 H   0  0  0  0  0  0  0  0  0  0  0  0
   39.4130   26.8390   43.7750 C   0  0  0  0  0  0  0  0  0  0  0  0
   38.2190   27.0130   43.0420 C   0  0  0  0  0  0  0  0  0  0  0  0
   37.7570   25.9430   42.3470 C   0  0  0  0  0  0  0  0  0  0  0  0
   38.4660   24.8150   42.4110 N   0  0  0  0  0  0  0  0  0  0  0  0
   39.5840   24.6490   43.0950 C   0  0  0  0  0  0  0  0  0  0  0  0
   40.1240   25.6990   43.8360 N   0  0  0  0  0  0  0  0  0  0  0  0
   39.8690   27.6280   44.3650 H   0  0  0  0  0  0  0  0  0  0  0  0
   36.8410   26.1410   41.8080 H   0  0  0  0  0  0  0  0  0  0  0  0
   40.1090   23.7030   43.1030 H   0  0  0  0  0  0  0  0  0  0  0  0
  1  2  2  0  0  0  0
  1 15  1  0  0  0  0
  3  5  1  0  0  0  0
  3  2  1  0  0  0  0
  4  3  1  0  0  0  0
  6  3  1  0  0  0  0
  8  7  2  1  0  0  0
  8  6  1  0  0  0  0
  9  8  1  0  0  0  0
 10  9  1  0  0  0  0
 11 12  1  0  0  0  0
 11  8  1  0  0  0  0
 12 13  1  0  0  0  0
 14 12  1  0  0  0  0
 14 13  1  0  0  0  0
 15 16  1  0  0  0  0
 16 17  1  0  0  0  0
 16 18  1  0  0  0  0
 19 24  1  0  0  0  0
 19 25  1  0  0  0  0
 20 16  1  0  0  0  0
 20 19  2  0  0  0  0
 21 22  2  0  0  0  0
 21 20  1  0  0  0  0
 22 23  1  0  0  0  0
 23 27  1  0  0  0  0
 23 24  2  0  0  0  0
 26 21  1  0  0  0  0
M  END
>  <minimizedAffinity>
-4.25693989

$$$$

 OpenBabel03252504313D

 27 28  0  0  0  0  0  0  0  0999 V2000
   38.1380   29.4930   42.5240 C   0  0  0  0  0  3  0  0  0  0  0  0
   37.2150   29.8520   41.6210 C   0  0  0  0  0  3  0  0  0  0  0  0
   37.2350   31.1420   40.8280 C   0  0  0  0  0  0  0  0  0  0  0  0
   37.2770   30.8000   39.7630 H   0  0  0  0  0  0  0  0  0  0  0  0
   36.3190   31.7110   40.9750 H   0  0  0  0  0  0  0  0  0  0  0  0
   38.4130   31.7910   41.1340 O   0  0  0  0  0  0  0  0  0  0  0  0
   37.2340   33.6070   39.5920 O   0  0  0  0  0  0  0  0  0  0  0  0
   38.4830   33.3020   40.3640 P   0  0  1  0  0  0  0  0  0  0  0  0
   38.7000   34.5320   41.5070 O   0  0  0  0  0  0  0  0  0  0  0  0
   39.4010   35.1690   41.2500 H   0  0  0  0  0  0  0  0  0  0  0  0
   39.8320   33.3140   39.3300 O   0  0  0  0  0  0  0  0  0  0  0  0
   40.8990   33.9840   39.8680 C   0  0  0  0  0  3  0  0  0  0  0  0
   42.1870   34.1240   39.1480 C   0  0  0  0  0  2  0  0  0  0  0  0
   42.0720   33.0760   40.2320 C   0  0  0  0  0  2  0  0  0  0  0  0
   37.9450   28.2690   43.1500 O   0  0  0  0  0  0  0  0  0  0  0  0
   36.9860   27.3330   42.8430 C   0  0  0  0  0  0  0  0  0  0  0  0
   36.5370   26.9940   43.8290 H   0  0  0  0  0  0  0  0  0  0  0  0
   36.1930   27.7330   42.2100 H   0  0  0  0  0  0  0  0  0  0  0  0
   38.8200   25.7580   42.7850 C   0  0  0  0  0  0  0  0  0  0  0  0
   37.5440   26.0780   42.2700 C   0  0  0  0  0  0  0  0  0  0  0  0
   37.0140   25.2290   41.3540 C   0  0  0  0  0  0  0  0  0  0  0  0
   37.7380   24.1620   41.0140 N   0  0  0  0  0  0  0  0  0  0  0  0
   38.9310   23.8590   41.4930 C   0  0  0  0  0  0  0  0  0  0  0  0
   39.5440   24.6790   42.4380 N   0  0  0  0  0  0  0  0  0  0  0  0
   39.3340   26.3670   43.5200 H   0  0  0  0  0  0  0  0  0  0  0  0
   36.0380   25.5300   41.0000 H   0  0  0  0  0  0  0  0  0  0  0  0
   39.4630   22.9730   41.1720 H   0  0  0  0  0  0  0  0  0  0  0  0
  1 15  1  0  0  0  0
  2  1  2  0  0  0  0
  3  5  1  0  0  0  0
  3  6  1  0  0  0  0
  3  2  1  0  0  0  0
  4  3  1  0  0  0  0
  8  7  2  6  0  0  0
  8  6  1  0  0  0  0
  8  9  1  0  0  0  0
 10  9  1  0  0  0  0
 11 12  1  0  0  0  0
 11  8  1  0  0  0  0
 12 14  1  0  0  0  0
 13 12  1  0  0  0  0
 13 14  1  0  0  0  0
 16 15  1  0  0  0  0
 16 17  1  0  0  0  0
 18 16  1  0  0  0  0
 19 25  1  0  0  0  0
 20 19  2  0  0  0  0
 20 16  1  0  0  0  0
 21 20  1  0  0  0  0
 22 21  2  0  0  0  0
 22 23  1  0  0  0  0
 23 24  2  0  0  0  0
 24 19  1  0  0  0  0
 26 21  1  0  0  0  0
 27 23  1  0  0  0  0
M  END
>  <minimizedAffinity>
-4.22360516

$$$$

 OpenBabel03252504313D

 27 28  0  0  0  0  0  0  0  0999 V2000
   36.6450   31.1830   40.4720 C   0  0  0  0  0  3  0  0  0  0  0  0
   36.7610   31.0450   39.1440 C   0  0  0  0  0  3  0  0  0  0  0  0
   37.5760   31.9530   38.2470 C   0  0  0  0  0  0  0  0  0  0  0  0
   38.0740   31.2470   37.5340 H   0  0  0  0  0  0  0  0  0  0  0  0
   36.9380   32.6270   37.6810 H   0  0  0  0  0  0  0  0  0  0  0  0
   38.5420   32.5440   39.0340 O   0  0  0  0  0  0  0  0  0  0  0  0
   40.6100   30.8970   38.7560 O   0  0  0  0  0  0  0  0  0  0  0  0
   40.0910   32.2590   38.4000 P   0  0  1  0  0  0  0  0  0  0  0  0
   40.0630   32.3780   36.7110 O   0  0  0  0  0  0  0  0  0  0  0  0
   40.8000   32.9220   36.3580 H   0  0  0  0  0  0  0  0  0  0  0  0
   41.1390   33.4610   38.9860 O   0  0  0  0  0  0  0  0  0  0  0  0
   42.1920   32.9400   39.6910 C   0  0  0  0  0  3  0  0  0  0  0  0
   42.2950   33.0660   41.1650 C   0  0  0  0  0  2  0  0  0  0  0  0
   43.1070   34.0020   40.2980 C   0  0  0  0  0  2  0  0  0  0  0  0
   35.8500   30.2490   41.1230 O   0  0  0  0  0  0  0  0  0  0  0  0
   35.8830   28.8850   40.9530 C   0  0  0  0  0  0  0  0  0  0  0  0
   34.8910   28.4880   41.3340 H   0  0  0  0  0  0  0  0  0  0  0  0
   36.0070   28.5910   39.9100 H   0  0  0  0  0  0  0  0  0  0  0  0
   37.3500   26.9890   41.2750 C   0  0  0  0  0  0  0  0  0  0  0  0
   36.8810   28.2040   41.8220 C   0  0  0  0  0  0  0  0  0  0  0  0
   37.3860   28.5780   43.0250 C   0  0  0  0  0  0  0  0  0  0  0  0
   38.2820   27.7700   43.5930 N   0  0  0  0  0  0  0  0  0  0  0  0
   38.7230   26.6330   43.0850 C   0  0  0  0  0  0  0  0  0  0  0  0
   38.2550   26.1790   41.8530 N   0  0  0  0  0  0  0  0  0  0  0  0
   37.0130   26.5980   40.3210 H   0  0  0  0  0  0  0  0  0  0  0  0
   36.9870   29.5140   43.3880 H   0  0  0  0  0  0  0  0  0  0  0  0
   39.4540   26.0260   43.6010 H   0  0  0  0  0  0  0  0  0  0  0  0
  1 15  1  0  0  0  0
  2  1  2  0  0  0  0
  3  6  1  0  0  0  0
  3  2  1  0  0  0  0
  4  3  1  0  0  0  0
  5  3  1  0  0  0  0
  8  7  2  1  0  0  0
  8 11  1  0  0  0  0
  8  6  1  0  0  0  0
  9  8  1  0  0  0  0
 10  9  1  0  0  0  0
 11 12  1  0  0  0  0
 12 14  1  0  0  0  0
 12 13  1  0  0  0  0
 14 13  1  0  0  0  0
 16 15  1  0  0  0  0
 16 17  1  0  0  0  0
 16 20  1  0  0  0  0
 18 16  1  0  0  0  0
 19 20  2  0  0  0  0
 19 24  1  0  0  0  0
 20 21  1  0  0  0  0
 21 26  1  0  0  0  0
 21 22  2  0  0  0  0
 23 22  1  0  0  0  0
 23 27  1  0  0  0  0
 24 23  2  0  0  0  0
 25 19  1  0  0  0  0
M  END
>  <minimizedAffinity>
-4.21055317

$$$$
