
 OpenBabel03252506383D

 38 41  0  0  1  0  0  0  0  0999 V2000
   44.5040   35.5250   45.1360 C   0  0  0  0  0  0  0  0  0  0  0  0
   45.1740   35.5140   43.8890 C   0  0  0  0  0  0  0  0  0  0  0  0
   46.1010   34.5600   43.6460 C   0  0  0  0  0  0  0  0  0  0  0  0
   46.3350   33.6560   44.6310 N   0  0  0  0  0  0  0  0  0  0  0  0
   45.7040   33.6720   45.7970 C   0  0  0  0  0  0  0  0  0  0  0  0
   44.7850   34.5990   46.0660 N   0  0  0  0  0  0  0  0  0  0  0  0
   46.0360   32.6660   46.7700 N   0  0  0  0  0  0  0  0  0  0  0  0
   45.2900   32.4160   47.9500 C   0  0  0  0  0  0  0  0  0  0  0  0
   46.3610   32.0880   48.9740 C   0  0  0  0  0  0  0  0  0  0  0  0
   47.6480   31.9830   48.2120 C   0  0  0  0  0  0  0  0  0  0  0  0
   47.1600   31.7630   46.7840 C   0  0  1  0  0  0  0  0  0  0  0  0
   43.7520   36.2450   45.4170 H   0  0  0  0  0  0  0  0  0  0  0  0
   46.6200   34.5320   42.7110 H   0  0  0  0  0  0  0  0  0  0  0  0
   44.8990   33.4230   48.2990 H   0  0  0  0  0  0  0  0  0  0  0  0
   44.4990   31.7460   48.0470 H   0  0  0  0  0  0  0  0  0  0  0  0
   46.1310   31.0980   49.4600 H   0  0  0  0  0  0  0  0  0  0  0  0
   46.4560   32.8070   49.7850 H   0  0  0  0  0  0  0  0  0  0  0  0
   48.2040   31.0940   48.5720 H   0  0  0  0  0  0  0  0  0  0  0  0
   48.2080   32.9190   48.3240 H   0  0  0  0  0  0  0  0  0  0  0  0
   47.9040   32.1250   46.0580 H   0  0  0  0  0  0  0  0  0  0  0  0
   44.8170   36.5380   42.9470 N   0  0  0  0  0  0  0  0  0  0  0  0
   45.1050   37.5500   43.0500 H   0  0  0  0  0  0  0  0  0  0  0  0
   44.2500   36.0510   42.2060 H   0  0  0  0  0  0  0  0  0  0  0  0
   46.6560   30.0670   46.6020 S   0  0  0  0  0  0  0  0  0  0  0  0
   45.7100   30.5720   43.4440 O   0  0  0  0  0  0  0  0  0  0  0  0
   45.0650   30.0130   44.3430 C   0  0  0  0  0  0  0  0  0  0  0  0
   45.1300   29.7690   45.8120 C   0  0  1  0  0  0  0  0  0  0  0  0
   44.6180   28.3570   45.9140 C   0  0  0  0  0  0  0  0  0  0  0  0
   43.3180   28.5540   45.1310 C   0  0  0  0  0  0  0  0  0  0  0  0
   43.8360   29.3390   44.0160 N   0  0  0  0  0  0  0  0  0  0  0  0
   44.2310   30.3620   46.1270 H   0  0  0  0  0  0  0  0  0  0  0  0
   45.2340   27.6490   45.3290 H   0  0  0  0  0  0  0  0  0  0  0  0
   44.4440   28.0250   46.9500 H   0  0  0  0  0  0  0  0  0  0  0  0
   42.9520   27.5800   44.8070 H   0  0  0  0  0  0  0  0  0  0  0  0
   42.5840   29.1340   45.7250 H   0  0  0  0  0  0  0  0  0  0  0  0
   43.1000   29.3650   42.7440 C   0  0  0  0  0  0  0  0  0  0  0  0
   41.6430   29.3130   42.7350 C   0  0  0  0  0  0  0  0  0  0  0  0
   42.3310   30.5660   42.3430 C   0  0  0  0  0  0  0  0  0  0  0  0
  1 12  1  0  0  0  0
  1  6  1  0  0  0  0
  2  1  2  0  0  0  0
  3  2  1  0  0  0  0
  3  4  2  0  0  0  0
  4  5  1  0  0  0  0
  5  6  2  0  0  0  0
  5  7  1  0  0  0  0
  7 11  1  0  0  0  0
  7  8  1  0  0  0  0
  8 15  1  0  0  0  0
  8 14  1  0  0  0  0
  8  9  1  0  0  0  0
  9 16  1  0  0  0  0
  9 17  1  0  0  0  0
 10 19  1  0  0  0  0
 10 18  1  0  0  0  0
 10  9  1  0  0  0  0
 11 20  1  6  0  0  0
 11 10  1  0  0  0  0
 13  3  1  0  0  0  0
 21 22  1  0  0  0  0
 21  2  1  0  0  0  0
 23 21  1  0  0  0  0
 24 11  1  0  0  0  0
 25 26  2  0  0  0  0
 26 27  1  0  0  0  0
 27 28  1  0  0  0  0
 27 31  1  1  0  0  0
 27 24  1  0  0  0  0
 28 33  1  0  0  0  0
 29 35  1  0  0  0  0
 29 28  1  0  0  0  0
 30 26  1  0  0  0  0
 30 29  1  0  0  0  0
 32 28  1  0  0  0  0
 34 29  1  0  0  0  0
 36 30  1  0  0  0  0
 37 36  1  0  0  0  0
 38 37  1  0  0  0  0
 38 36  1  0  0  0  0
M  END
>  <minimizedAffinity>
-5.1425271

>  <minimizedRMSD>
0.0983855724

$$$$
