
 OpenBabel03252508343D

 29 31  0  0  1  0  0  0  0  0999 V2000
   45.3150   34.4360   41.9940 N   0  0  0  0  0  0  0  0  0  0  0  0
   46.6010   34.0810   41.4440 C   0  0  1  0  0  0  0  0  0  0  0  0
   46.6350   34.0310   39.9640 C   0  0  0  0  0  0  0  0  0  0  0  0
   45.5010   33.4960   39.3310 N   0  0  0  0  0  0  0  0  0  0  0  0
   44.2540   33.6550   39.9500 C   0  0  0  0  0  0  0  0  0  0  0  0
   44.3070   34.7310   41.0190 C   0  0  0  0  0  0  0  0  0  0  0  0
   46.8530   33.0720   41.8290 H   0  0  0  0  0  0  0  0  0  0  0  0
   47.5470   33.4650   39.6470 H   0  0  0  0  0  0  0  0  0  0  0  0
   46.7880   35.0710   39.5860 H   0  0  0  0  0  0  0  0  0  0  0  0
   45.6810   32.5500   38.9240 H   0  0  0  0  0  0  0  0  0  0  0  0
   43.9950   32.7090   40.4920 H   0  0  0  0  0  0  0  0  0  0  0  0
   43.4030   33.8720   39.2650 H   0  0  0  0  0  0  0  0  0  0  0  0
   44.4400   35.7020   40.4990 H   0  0  0  0  0  0  0  0  0  0  0  0
   43.3320   34.7110   41.5520 H   0  0  0  0  0  0  0  0  0  0  0  0
   44.5930   35.5970   43.9310 C   0  0  0  0  0  0  0  0  0  0  0  0
   45.1910   34.4530   43.3910 C   0  0  0  0  0  0  0  0  0  0  0  0
   45.6010   33.4540   44.2720 C   0  0  0  0  0  0  0  0  0  0  0  0
   45.4110   33.6190   45.6070 N   0  0  0  0  0  0  0  0  0  0  0  0
   44.8310   34.7350   46.0930 C   0  0  0  0  0  0  0  0  0  0  0  0
   44.4290   35.7050   45.2810 N   0  0  0  0  0  0  0  0  0  0  0  0
   44.2470   36.4220   43.2920 H   0  0  0  0  0  0  0  0  0  0  0  0
   46.0510   32.5990   43.8350 H   0  0  0  0  0  0  0  0  0  0  0  0
   44.6480   34.9340   47.1380 H   0  0  0  0  0  0  0  0  0  0  0  0
   47.6070   35.1180   41.8910 C   0  0  0  0  0  0  0  0  0  0  0  0
   47.5850   35.1000   43.0160 H   0  0  0  0  0  0  0  0  0  0  0  0
   47.3160   36.0970   41.4980 H   0  0  0  0  0  0  0  0  0  0  0  0
   49.0140   34.8090   41.4800 C   0  0  0  0  0  3  0  0  0  0  0  0
   50.0270   34.9440   42.6320 C   0  0  0  0  0  2  0  0  0  0  0  0
   49.7370   33.6230   41.9790 C   0  0  0  0  0  2  0  0  0  0  0  0
  1 16  1  0  0  0  0
  2  7  1  1  0  0  0
  2 24  1  0  0  0  0
  2  1  1  0  0  0  0
  3  2  1  0  0  0  0
  4  5  1  0  0  0  0
  4  3  1  0  0  0  0
  5 11  1  0  0  0  0
  5  6  1  0  0  0  0
  6 14  1  0  0  0  0
  6  1  1  0  0  0  0
  8  3  1  0  0  0  0
  9  3  1  0  0  0  0
 10  4  1  0  0  0  0
 12  5  1  0  0  0  0
 13  6  1  0  0  0  0
 15 20  1  0  0  0  0
 16 15  2  0  0  0  0
 16 17  1  0  0  0  0
 17 18  2  0  0  0  0
 18 19  1  0  0  0  0
 19 23  1  0  0  0  0
 20 19  2  0  0  0  0
 21 15  1  0  0  0  0
 22 17  1  0  0  0  0
 24 25  1  0  0  0  0
 26 24  1  0  0  0  0
 27 24  1  0  0  0  0
 27 29  1  0  0  0  0
 27 28  1  0  0  0  0
 29 28  1  0  0  0  0
M  END
>  <minimizedAffinity>
-4.66046095

>  <minimizedRMSD>
0.767518044

$$$$
