
 OpenBabel03252507123D

 22 23  0  0  0  0  0  0  0  0999 V2000
   44.4620   34.9830   43.0700 C   0  0  0  0  0  0  0  0  0  0  0  0
   45.0200   33.7350   43.3180 C   0  0  0  0  0  0  0  0  0  0  0  0
   45.3890   33.4320   44.6360 C   0  0  0  0  0  0  0  0  0  0  0  0
   45.1860   34.3610   45.5980 N   0  0  0  0  0  0  0  0  0  0  0  0
   44.6430   35.5570   45.3210 C   0  0  0  0  0  0  0  0  0  0  0  0
   44.2810   35.8660   44.0480 N   0  0  0  0  0  0  0  0  0  0  0  0
   45.8160   32.4480   44.7600 H   0  0  0  0  0  0  0  0  0  0  0  0
   44.4810   36.2950   46.0810 H   0  0  0  0  0  0  0  0  0  0  0  0
   42.7620   35.3020   41.2720 C   0  0  0  0  0  0  0  0  0  0  0  0
   42.1560   34.2180   41.5290 O   0  0  0  0  0  0  0  0  0  0  0  0
   43.9390   35.7780   42.0080 N   0  0  0  0  0  0  0  0  0  0  0  0
   42.3110   35.8360   40.4460 H   0  0  0  0  0  0  0  0  0  0  0  0
   44.2900   36.6850   41.6690 H   0  0  0  0  0  0  0  0  0  0  0  0
   45.1660   32.8950   42.2420 O   0  0  0  0  0  0  0  0  0  0  0  0
   46.6790   31.8650   40.3310 O   0  0  0  0  0  0  0  0  0  0  0  0
   46.4090   33.1310   41.0790 P   0  0  1  0  0  0  0  0  0  0  0  0
   45.9190   34.2820   39.9390 O   0  0  0  0  0  0  0  0  0  0  0  0
   46.3220   34.1400   39.0620 H   0  0  0  0  0  0  0  0  0  0  0  0
   47.8280   33.6740   41.8120 O   0  0  0  0  0  0  0  0  0  0  0  0
   48.0060   35.0370   41.7600 C   0  0  0  0  0  0  0  0  0  0  0  0
   48.9120   35.6340   40.7480 C   0  0  0  0  0  0  0  0  0  0  0  0
   49.3870   35.5200   42.1560 C   0  0  0  0  0  0  0  0  0  0  0  0
  1  2  2  0  0  0  0
  1  6  1  0  0  0  0
  2  3  1  0  0  0  0
  3  7  1  0  0  0  0
  3  4  2  0  0  0  0
  5  4  1  0  0  0  0
  5  8  1  0  0  0  0
  6  5  2  0  0  0  0
  9 10  2  0  0  0  0
  9 11  1  0  0  0  0
 11  1  1  0  0  0  0
 12  9  1  0  0  0  0
 13 11  1  0  0  0  0
 14  2  1  0  0  0  0
 16 15  2  6  0  0  0
 16 19  1  0  0  0  0
 16 14  1  0  0  0  0
 17 16  1  0  0  0  0
 18 17  1  0  0  0  0
 20 19  1  0  0  0  0
 20 22  1  0  0  0  0
 21 20  1  0  0  0  0
 21 22  1  0  0  0  0
M  END
>  <minimizedAffinity>
-4.50668812

>  <minimizedRMSD>
2.70302248

$$$$
