
 OpenBabel03252503013D

 24 25  0  0  0  0  0  0  0  0999 V2000
   43.3670   35.4750   41.6110 C   0  0  0  0  0  0  0  0  0  0  0  0
   44.4600   35.4910   41.3380 H   0  0  0  0  0  0  0  0  0  0  0  0
   42.8660   36.3470   41.1440 H   0  0  0  0  0  0  0  0  0  0  0  0
   43.3310   35.5800   43.0800 N   0  0  0  0  0  0  0  0  0  0  0  0
   42.6220   36.2650   43.4080 H   0  0  0  0  0  0  0  0  0  0  0  0
   44.8920   35.9220   43.7220 S   0  0  0  0  0  0  0  0  0  0  0  0
   45.9680   35.6720   42.7240 O   0  0  0  0  0  0  0  0  0  0  0  0
   46.4370   36.4280   42.2790 H   0  0  0  0  0  0  0  0  0  0  0  0
   44.8680   37.3830   44.1130 O   0  0  0  0  0  0  0  0  0  0  0  0
   44.4290   38.0340   43.4830 H   0  0  0  0  0  0  0  0  0  0  0  0
   45.1140   35.0670   45.1400 O   0  0  0  0  0  0  0  0  0  0  0  0
   45.3940   33.7330   44.9380 C   0  0  0  0  0  3  0  0  0  0  0  0
   45.9760   33.0350   46.1480 C   0  0  0  0  0  2  0  0  0  0  0  0
   46.8290   33.2890   44.9520 C   0  0  0  0  0  2  0  0  0  0  0  0
   42.7130   33.8790   41.1550 S   0  0  0  0  0  0  0  0  0  0  0  0
   40.0750   34.5330   40.5800 C   0  0  0  0  0  0  0  0  0  0  0  0
   41.2870   34.0990   40.0580 C   0  0  0  0  0  0  0  0  0  0  0  0
   41.4310   33.8280   38.7030 C   0  0  0  0  0  0  0  0  0  0  0  0
   40.3200   34.0100   37.9160 N   0  0  0  0  0  0  0  0  0  0  0  0
   39.1820   34.4280   38.4690 C   0  0  0  0  0  0  0  0  0  0  0  0
   39.0150   34.6930   39.7490 N   0  0  0  0  0  0  0  0  0  0  0  0
   39.9740   34.7410   41.6370 H   0  0  0  0  0  0  0  0  0  0  0  0
   42.3830   33.4850   38.2810 H   0  0  0  0  0  0  0  0  0  0  0  0
   38.3960   34.5230   37.7140 H   0  0  0  0  0  0  0  0  0  0  0  0
  1  4  1  0  0  0  0
  2  1  1  0  0  0  0
  3  1  1  0  0  0  0
  4  5  1  0  0  0  0
  4  6  1  0  0  0  0
  6  9  1  0  0  0  0
  6 11  1  0  0  0  0
  7  6  1  0  0  0  0
  8  7  1  0  0  0  0
 10  9  1  0  0  0  0
 12 14  1  0  0  0  0
 12 11  1  0  0  0  0
 12 13  1  0  0  0  0
 14 13  1  0  0  0  0
 15  1  1  0  0  0  0
 16 22  1  0  0  0  0
 17 16  1  0  0  0  0
 17 15  1  0  0  0  0
 18 17  2  0  0  0  0
 19 20  2  0  0  0  0
 19 18  1  0  0  0  0
 20 21  1  0  0  0  0
 21 16  2  0  0  0  0
 23 18  1  0  0  0  0
 24 20  1  0  0  0  0
M  END
>  <minimizedAffinity>
-4.64600945

>  <minimizedRMSD>
1.30706668

$$$$
