
 OpenBabel03252506393D

 38 41  0  0  1  0  0  0  0  0999 V2000
   43.1350   30.2130   36.5130 C   0  0  0  0  0  0  0  0  0  0  0  0
   43.7910   31.4660   36.5670 C   0  0  0  0  0  0  0  0  0  0  0  0
   43.1250   32.5390   37.0500 C   0  0  0  0  0  0  0  0  0  0  0  0
   41.8470   32.3440   37.4610 N   0  0  0  0  0  0  0  0  0  0  0  0
   41.2380   31.1670   37.4080 C   0  0  0  0  0  0  0  0  0  0  0  0
   41.8680   30.0910   36.9370 N   0  0  0  0  0  0  0  0  0  0  0  0
   39.8780   31.0770   37.8680 N   0  0  0  0  0  0  0  0  0  0  0  0
   39.1870   29.8590   38.0890 C   0  0  0  0  0  0  0  0  0  0  0  0
   37.7740   30.1740   37.6320 C   0  0  0  0  0  0  0  0  0  0  0  0
   37.7420   31.6500   37.3690 C   0  0  0  0  0  0  0  0  0  0  0  0
   38.9520   32.1450   38.1530 C   0  0  1  0  0  0  0  0  0  0  0  0
   43.5860   29.3050   36.1440 H   0  0  0  0  0  0  0  0  0  0  0  0
   43.6010   33.4970   37.1000 H   0  0  0  0  0  0  0  0  0  0  0  0
   39.5580   29.1330   37.2990 H   0  0  0  0  0  0  0  0  0  0  0  0
   39.1510   29.3260   38.9820 H   0  0  0  0  0  0  0  0  0  0  0  0
   37.0440   29.9230   38.4520 H   0  0  0  0  0  0  0  0  0  0  0  0
   37.4430   29.6230   36.7540 H   0  0  0  0  0  0  0  0  0  0  0  0
   36.8070   32.0680   37.7950 H   0  0  0  0  0  0  0  0  0  0  0  0
   37.8410   31.8230   36.2890 H   0  0  0  0  0  0  0  0  0  0  0  0
   39.3470   33.0730   37.7130 H   0  0  0  0  0  0  0  0  0  0  0  0
   45.1470   31.5150   36.0930 N   0  0  0  0  0  0  0  0  0  0  0  0
   45.4090   31.4640   35.0710 H   0  0  0  0  0  0  0  0  0  0  0  0
   45.7410   31.6050   36.9580 H   0  0  0  0  0  0  0  0  0  0  0  0
   38.5290   32.2180   39.8790 S   0  0  0  0  0  0  0  0  0  0  0  0
   39.3670   30.5620   42.6490 O   0  0  0  0  0  0  0  0  0  0  0  0
   38.3930   30.3510   41.9110 C   0  0  0  0  0  0  0  0  0  0  0  0
   37.8440   30.7840   40.5940 C   0  0  1  0  0  0  0  0  0  0  0  0
   36.3680   30.8500   40.8820 C   0  0  0  0  0  0  0  0  0  0  0  0
   36.2100   29.4420   41.4600 C   0  0  0  0  0  0  0  0  0  0  0  0
   37.3840   29.4130   42.3250 N   0  0  0  0  0  0  0  0  0  0  0  0
   37.9280   29.8090   40.0430 H   0  0  0  0  0  0  0  0  0  0  0  0
   36.1360   31.5550   41.7010 H   0  0  0  0  0  0  0  0  0  0  0  0
   35.7510   31.0120   39.9830 H   0  0  0  0  0  0  0  0  0  0  0  0
   35.2820   29.3990   42.0320 H   0  0  0  0  0  0  0  0  0  0  0  0
   36.2790   28.6770   40.6610 H   0  0  0  0  0  0  0  0  0  0  0  0
   37.4210   28.4860   43.4660 C   0  0  0  0  0  3  0  0  0  0  0  0
   36.5810   27.2950   43.4750 C   0  0  0  0  0  2  0  0  0  0  0  0
   38.0500   27.1520   43.3310 C   0  0  0  0  0  2  0  0  0  0  0  0
  1  2  2  0  0  0  0
  1  6  1  0  0  0  0
  2  3  1  0  0  0  0
  3 13  1  0  0  0  0
  3  4  2  0  0  0  0
  5  4  1  0  0  0  0
  5  7  1  0  0  0  0
  6  5  2  0  0  0  0
  7  8  1  0  0  0  0
  7 11  1  0  0  0  0
  8 15  1  0  0  0  0
  9  8  1  0  0  0  0
  9 16  1  0  0  0  0
 10  9  1  0  0  0  0
 10 18  1  0  0  0  0
 10 11  1  0  0  0  0
 11 20  1  6  0  0  0
 11 24  1  0  0  0  0
 12  1  1  0  0  0  0
 14  8  1  0  0  0  0
 17  9  1  0  0  0  0
 19 10  1  0  0  0  0
 21  2  1  0  0  0  0
 21 23  1  0  0  0  0
 22 21  1  0  0  0  0
 24 27  1  0  0  0  0
 26 30  1  0  0  0  0
 26 25  2  0  0  0  0
 27 31  1  6  0  0  0
 27 28  1  0  0  0  0
 27 26  1  0  0  0  0
 28 29  1  0  0  0  0
 28 32  1  0  0  0  0
 29 34  1  0  0  0  0
 29 30  1  0  0  0  0
 30 36  1  0  0  0  0
 33 28  1  0  0  0  0
 35 29  1  0  0  0  0
 36 37  1  0  0  0  0
 38 36  1  0  0  0  0
 38 37  1  0  0  0  0
M  END
>  <minimizedAffinity>
-5.41612196

$$$$

 OpenBabel03252506393D

 38 41  0  0  1  0  0  0  0  0999 V2000
   42.3410   31.9680   36.8850 C   0  0  0  0  0  0  0  0  0  0  0  0
   42.4450   33.2290   37.5160 C   0  0  0  0  0  0  0  0  0  0  0  0
   41.6680   33.4970   38.5890 C   0  0  0  0  0  0  0  0  0  0  0  0
   40.8210   32.5210   39.0010 N   0  0  0  0  0  0  0  0  0  0  0  0
   40.7270   31.3400   38.4050 C   0  0  0  0  0  0  0  0  0  0  0  0
   41.4800   31.0460   37.3460 N   0  0  0  0  0  0  0  0  0  0  0  0
   39.7900   30.3810   38.9260 N   0  0  0  0  0  0  0  0  0  0  0  0
   39.7480   29.0150   38.5460 C   0  0  0  0  0  0  0  0  0  0  0  0
   38.2630   28.7050   38.5320 C   0  0  0  0  0  0  0  0  0  0  0  0
   37.5810   29.9060   39.1160 C   0  0  0  0  0  0  0  0  0  0  0  0
   38.7180   30.5890   39.8670 C   0  0  1  0  0  0  0  0  0  0  0  0
   42.9200   31.6670   36.0260 H   0  0  0  0  0  0  0  0  0  0  0  0
   41.7290   34.4450   39.0830 H   0  0  0  0  0  0  0  0  0  0  0  0
   40.0300   28.9810   37.4470 H   0  0  0  0  0  0  0  0  0  0  0  0
   40.2620   28.2330   39.0040 H   0  0  0  0  0  0  0  0  0  0  0  0
   38.0560   27.8050   39.1770 H   0  0  0  0  0  0  0  0  0  0  0  0
   37.8520   28.4730   37.5510 H   0  0  0  0  0  0  0  0  0  0  0  0
   36.8000   29.5630   39.8240 H   0  0  0  0  0  0  0  0  0  0  0  0
   37.1850   30.5240   38.3000 H   0  0  0  0  0  0  0  0  0  0  0  0
   38.5350   31.6710   39.9500 H   0  0  0  0  0  0  0  0  0  0  0  0
   43.3900   34.1610   36.9630 N   0  0  0  0  0  0  0  0  0  0  0  0
   43.2370   34.6720   36.0510 H   0  0  0  0  0  0  0  0  0  0  0  0
   44.1900   34.1870   37.6470 H   0  0  0  0  0  0  0  0  0  0  0  0
   38.9970   29.7270   41.3970 S   0  0  0  0  0  0  0  0  0  0  0  0
   39.1830   26.4260   40.9630 O   0  0  0  0  0  0  0  0  0  0  0  0
   38.3090   27.0570   41.5760 C   0  0  0  0  0  0  0  0  0  0  0  0
   37.8740   28.4620   41.8170 C   0  0  1  0  0  0  0  0  0  0  0  0
   37.4690   28.4150   43.2660 C   0  0  0  0  0  0  0  0  0  0  0  0
   36.5150   27.2230   43.1740 C   0  0  0  0  0  0  0  0  0  0  0  0
   37.3290   26.3390   42.3460 N   0  0  0  0  0  0  0  0  0  0  0  0
   36.8780   28.4270   41.3000 H   0  0  0  0  0  0  0  0  0  0  0  0
   38.3040   28.1020   43.9200 H   0  0  0  0  0  0  0  0  0  0  0  0
   36.9690   29.3330   43.6140 H   0  0  0  0  0  0  0  0  0  0  0  0
   36.3620   26.8160   44.1740 H   0  0  0  0  0  0  0  0  0  0  0  0
   35.5770   27.5070   42.6570 H   0  0  0  0  0  0  0  0  0  0  0  0
   37.0860   24.8890   42.3770 C   0  0  0  0  0  3  0  0  0  0  0  0
   36.5580   24.2050   41.2020 C   0  0  0  0  0  2  0  0  0  0  0  0
   37.9590   23.9630   41.6200 C   0  0  0  0  0  2  0  0  0  0  0  0
  1  6  2  0  0  0  0
  1  2  1  0  0  0  0
  2  3  2  0  0  0  0
  3  4  1  0  0  0  0
  3 13  1  0  0  0  0
  5  7  1  0  0  0  0
  5  4  2  0  0  0  0
  6  5  1  0  0  0  0
  7 11  1  0  0  0  0
  8  7  1  0  0  0  0
  8 15  1  0  0  0  0
  9  8  1  0  0  0  0
  9 10  1  0  0  0  0
  9 16  1  0  0  0  0
 10 18  1  0  0  0  0
 10 11  1  0  0  0  0
 11 20  1  1  0  0  0
 11 24  1  0  0  0  0
 12  1  1  0  0  0  0
 14  8  1  0  0  0  0
 17  9  1  0  0  0  0
 19 10  1  0  0  0  0
 21  2  1  0  0  0  0
 21 23  1  0  0  0  0
 22 21  1  0  0  0  0
 24 27  1  0  0  0  0
 25 26  2  0  0  0  0
 26 27  1  0  0  0  0
 26 30  1  0  0  0  0
 27 31  1  6  0  0  0
 27 28  1  0  0  0  0
 28 33  1  0  0  0  0
 28 32  1  0  0  0  0
 29 28  1  0  0  0  0
 29 34  1  0  0  0  0
 30 36  1  0  0  0  0
 30 29  1  0  0  0  0
 35 29  1  0  0  0  0
 37 38  1  0  0  0  0
 37 36  1  0  0  0  0
 38 36  1  0  0  0  0
M  END
>  <minimizedAffinity>
-5.4089818

$$$$

 OpenBabel03252506393D

 38 41  0  0  1  0  0  0  0  0999 V2000
   36.9160   30.0600   36.5130 C   0  0  0  0  0  0  0  0  0  0  0  0
   37.7200   28.9300   36.2300 C   0  0  0  0  0  0  0  0  0  0  0  0
   38.7090   28.5920   37.0870 C   0  0  0  0  0  0  0  0  0  0  0  0
   38.8720   29.3710   38.1860 N   0  0  0  0  0  0  0  0  0  0  0  0
   38.1150   30.4290   38.4460 C   0  0  0  0  0  0  0  0  0  0  0  0
   37.1330   30.7870   37.6200 N   0  0  0  0  0  0  0  0  0  0  0  0
   38.3810   31.1860   39.6400 N   0  0  0  0  0  0  0  0  0  0  0  0
   37.5210   32.1840   40.1630 C   0  0  0  0  0  0  0  0  0  0  0  0
   38.4850   33.2290   40.6950 C   0  0  0  0  0  0  0  0  0  0  0  0
   39.8520   32.6190   40.6020 C   0  0  0  0  0  0  0  0  0  0  0  0
   39.5360   31.1310   40.5020 C   0  0  1  0  0  0  0  0  0  0  0  0
   36.1060   30.4030   35.8880 H   0  0  0  0  0  0  0  0  0  0  0  0
   39.3300   27.7420   36.8940 H   0  0  0  0  0  0  0  0  0  0  0  0
   37.0490   32.7000   39.2680 H   0  0  0  0  0  0  0  0  0  0  0  0
   36.7550   32.0360   40.8520 H   0  0  0  0  0  0  0  0  0  0  0  0
   38.2460   33.4520   41.7730 H   0  0  0  0  0  0  0  0  0  0  0  0
   38.4580   34.1850   40.1760 H   0  0  0  0  0  0  0  0  0  0  0  0
   40.4030   32.8360   41.5390 H   0  0  0  0  0  0  0  0  0  0  0  0
   40.3540   33.0030   39.7050 H   0  0  0  0  0  0  0  0  0  0  0  0
   40.3390   30.5970   39.9720 H   0  0  0  0  0  0  0  0  0  0  0  0
   37.4250   28.2040   35.0250 N   0  0  0  0  0  0  0  0  0  0  0  0
   37.6550   28.5620   34.0590 H   0  0  0  0  0  0  0  0  0  0  0  0
   36.9650   27.3120   35.3430 H   0  0  0  0  0  0  0  0  0  0  0  0
   39.1300   30.5180   42.1210 S   0  0  0  0  0  0  0  0  0  0  0  0
   39.7790   27.4710   40.9300 O   0  0  0  0  0  0  0  0  0  0  0  0
   38.8310   27.8120   41.6530 C   0  0  0  0  0  0  0  0  0  0  0  0
   38.2020   29.0450   42.2080 C   0  0  1  0  0  0  0  0  0  0  0  0
   37.8250   28.6020   43.5960 C   0  0  0  0  0  0  0  0  0  0  0  0
   37.0490   27.3420   43.2040 C   0  0  0  0  0  0  0  0  0  0  0  0
   37.9710   26.8010   42.2120 N   0  0  0  0  0  0  0  0  0  0  0  0
   37.2160   28.9920   41.6730 H   0  0  0  0  0  0  0  0  0  0  0  0
   38.7030   28.2640   44.1770 H   0  0  0  0  0  0  0  0  0  0  0  0
   37.2030   29.3320   44.1370 H   0  0  0  0  0  0  0  0  0  0  0  0
   36.9670   26.6940   44.0780 H   0  0  0  0  0  0  0  0  0  0  0  0
   36.0740   27.6040   42.7470 H   0  0  0  0  0  0  0  0  0  0  0  0
   37.9380   25.3650   41.8970 C   0  0  0  0  0  3  0  0  0  0  0  0
   36.7230   24.5910   42.1210 C   0  0  0  0  0  2  0  0  0  0  0  0
   37.1670   24.8680   40.7340 C   0  0  0  0  0  2  0  0  0  0  0  0
  1  6  1  0  0  0  0
  2  1  2  0  0  0  0
  2  3  1  0  0  0  0
  3  4  2  0  0  0  0
  4  5  1  0  0  0  0
  5  7  1  0  0  0  0
  6  5  2  0  0  0  0
  7  8  1  0  0  0  0
  7 11  1  0  0  0  0
  8  9  1  0  0  0  0
  8 15  1  0  0  0  0
  9 16  1  0  0  0  0
 10  9  1  0  0  0  0
 10 18  1  0  0  0  0
 11 20  1  6  0  0  0
 11 10  1  0  0  0  0
 11 24  1  0  0  0  0
 12  1  1  0  0  0  0
 13  3  1  0  0  0  0
 14  8  1  0  0  0  0
 17  9  1  0  0  0  0
 19 10  1  0  0  0  0
 21 23  1  0  0  0  0
 21  2  1  0  0  0  0
 22 21  1  0  0  0  0
 24 27  1  0  0  0  0
 25 26  2  0  0  0  0
 26 27  1  0  0  0  0
 26 30  1  0  0  0  0
 27 31  1  6  0  0  0
 27 28  1  0  0  0  0
 28 33  1  0  0  0  0
 28 32  1  0  0  0  0
 29 28  1  0  0  0  0
 29 34  1  0  0  0  0
 30 29  1  0  0  0  0
 35 29  1  0  0  0  0
 36 37  1  0  0  0  0
 36 30  1  0  0  0  0
 38 36  1  0  0  0  0
 38 37  1  0  0  0  0
M  END
>  <minimizedAffinity>
-5.26067162

$$$$

 OpenBabel03252506393D

 38 41  0  0  1  0  0  0  0  0999 V2000
   37.7340   32.5360   38.6310 C   0  0  0  0  0  0  0  0  0  0  0  0
   37.5790   32.6180   40.0350 C   0  0  0  0  0  0  0  0  0  0  0  0
   36.9640   31.6080   40.6910 C   0  0  0  0  0  0  0  0  0  0  0  0
   36.5270   30.5600   39.9490 N   0  0  0  0  0  0  0  0  0  0  0  0
   36.6750   30.4890   38.6330 C   0  0  0  0  0  0  0  0  0  0  0  0
   37.2760   31.4690   37.9580 N   0  0  0  0  0  0  0  0  0  0  0  0
   36.1680   29.3310   37.9470 N   0  0  0  0  0  0  0  0  0  0  0  0
   36.4570   29.0110   36.5960 C   0  0  0  0  0  0  0  0  0  0  0  0
   35.1490   28.4310   36.0900 C   0  0  0  0  0  0  0  0  0  0  0  0
   34.2650   28.2870   37.2920 C   0  0  0  0  0  0  0  0  0  0  0  0
   35.2700   28.3160   38.4380 C   0  0  1  0  0  0  0  0  0  0  0  0
   38.2100   33.2920   38.0260 H   0  0  0  0  0  0  0  0  0  0  0  0
   36.8360   31.6480   41.7540 H   0  0  0  0  0  0  0  0  0  0  0  0
   36.5330   29.9990   36.0430 H   0  0  0  0  0  0  0  0  0  0  0  0
   37.2490   28.4250   36.2590 H   0  0  0  0  0  0  0  0  0  0  0  0
   35.3330   27.4170   35.6360 H   0  0  0  0  0  0  0  0  0  0  0  0
   34.6530   29.0200   35.3210 H   0  0  0  0  0  0  0  0  0  0  0  0
   33.7580   27.3010   37.2460 H   0  0  0  0  0  0  0  0  0  0  0  0
   33.5650   29.1320   37.3260 H   0  0  0  0  0  0  0  0  0  0  0  0
   34.7980   28.6870   39.3610 H   0  0  0  0  0  0  0  0  0  0  0  0
   38.0950   33.7930   40.6820 N   0  0  0  0  0  0  0  0  0  0  0  0
   37.6380   34.7420   40.6150 H   0  0  0  0  0  0  0  0  0  0  0  0
   38.9630   33.4750   41.1870 H   0  0  0  0  0  0  0  0  0  0  0  0
   36.0600   26.7260   38.5520 S   0  0  0  0  0  0  0  0  0  0  0  0
   39.1810   25.8400   39.3240 O   0  0  0  0  0  0  0  0  0  0  0  0
   38.2410   26.0470   40.1060 C   0  0  0  0  0  0  0  0  0  0  0  0
   36.7710   26.2970   40.0840 C   0  0  1  0  0  0  0  0  0  0  0  0
   36.6160   27.3200   41.1760 C   0  0  0  0  0  0  0  0  0  0  0  0
   37.3420   26.5520   42.2820 C   0  0  0  0  0  0  0  0  0  0  0  0
   38.4960   26.0870   41.5220 N   0  0  0  0  0  0  0  0  0  0  0  0
   36.4290   25.3590   40.5980 H   0  0  0  0  0  0  0  0  0  0  0  0
   37.2130   28.2310   40.9800 H   0  0  0  0  0  0  0  0  0  0  0  0
   35.5660   27.5390   41.4290 H   0  0  0  0  0  0  0  0  0  0  0  0
   37.6280   27.2520   43.0680 H   0  0  0  0  0  0  0  0  0  0  0  0
   36.7270   25.7020   42.6410 H   0  0  0  0  0  0  0  0  0  0  0  0
   39.7340   25.7260   42.2300 C   0  0  0  0  0  3  0  0  0  0  0  0
   39.8200   25.8650   43.6790 C   0  0  0  0  0  2  0  0  0  0  0  0
   39.7900   24.5110   43.0750 C   0  0  0  0  0  2  0  0  0  0  0  0
  1  2  1  0  0  0  0
  2 21  1  0  0  0  0
  2  3  2  0  0  0  0
  3 13  1  0  0  0  0
  4  3  1  0  0  0  0
  5  4  2  0  0  0  0
  6  1  2  0  0  0  0
  6  5  1  0  0  0  0
  7 11  1  0  0  0  0
  7  5  1  0  0  0  0
  8  7  1  0  0  0  0
  9  8  1  0  0  0  0
  9 10  1  0  0  0  0
 10 19  1  0  0  0  0
 10 11  1  0  0  0  0
 11 24  1  0  0  0  0
 11 20  1  1  0  0  0
 12  1  1  0  0  0  0
 14  8  1  0  0  0  0
 15  8  1  0  0  0  0
 16  9  1  0  0  0  0
 17  9  1  0  0  0  0
 18 10  1  0  0  0  0
 21 23  1  0  0  0  0
 22 21  1  0  0  0  0
 24 27  1  0  0  0  0
 25 26  2  0  0  0  0
 26 30  1  0  0  0  0
 27 26  1  0  0  0  0
 27 31  1  1  0  0  0
 27 28  1  0  0  0  0
 28 33  1  0  0  0  0
 28 29  1  0  0  0  0
 29 35  1  0  0  0  0
 29 34  1  0  0  0  0
 30 36  1  0  0  0  0
 30 29  1  0  0  0  0
 32 28  1  0  0  0  0
 36 38  1  0  0  0  0
 36 37  1  0  0  0  0
 38 37  1  0  0  0  0
M  END
>  <minimizedAffinity>
-5.2214694

$$$$

 OpenBabel03252506393D

 38 41  0  0  1  0  0  0  0  0999 V2000
   38.6970   27.5230   36.3390 C   0  0  0  0  0  0  0  0  0  0  0  0
   37.4550   28.0940   35.9740 C   0  0  0  0  0  0  0  0  0  0  0  0
   36.4520   28.1260   36.8790 C   0  0  0  0  0  0  0  0  0  0  0  0
   36.7030   27.6000   38.1050 N   0  0  0  0  0  0  0  0  0  0  0  0
   37.8700   27.0660   38.4410 C   0  0  0  0  0  0  0  0  0  0  0  0
   38.8780   27.0200   37.5710 N   0  0  0  0  0  0  0  0  0  0  0  0
   38.0230   26.5340   39.7690 N   0  0  0  0  0  0  0  0  0  0  0  0
   39.2640   26.1520   40.3400 C   0  0  0  0  0  0  0  0  0  0  0  0
   38.9070   24.9230   41.1550 C   0  0  0  0  0  0  0  0  0  0  0  0
   37.4110   24.8290   41.1330 C   0  0  0  0  0  0  0  0  0  0  0  0
   37.0040   26.2470   40.7460 C   0  0  1  0  0  0  0  0  0  0  0  0
   39.5520   27.4540   35.6850 H   0  0  0  0  0  0  0  0  0  0  0  0
   35.5030   28.5520   36.6260 H   0  0  0  0  0  0  0  0  0  0  0  0
   39.8880   25.7280   39.4920 H   0  0  0  0  0  0  0  0  0  0  0  0
   39.9000   26.7630   40.8930 H   0  0  0  0  0  0  0  0  0  0  0  0
   39.2590   25.0560   42.2170 H   0  0  0  0  0  0  0  0  0  0  0  0
   39.3530   23.9940   40.8040 H   0  0  0  0  0  0  0  0  0  0  0  0
   37.0530   24.5880   42.1540 H   0  0  0  0  0  0  0  0  0  0  0  0
   37.1100   24.0870   40.3820 H   0  0  0  0  0  0  0  0  0  0  0  0
   36.0270   26.2470   40.2390 H   0  0  0  0  0  0  0  0  0  0  0  0
   37.3410   28.6100   34.6380 N   0  0  0  0  0  0  0  0  0  0  0  0
   37.2680   27.9960   33.7810 H   0  0  0  0  0  0  0  0  0  0  0  0
   37.3500   29.6580   34.7420 H   0  0  0  0  0  0  0  0  0  0  0  0
   37.1380   27.2940   42.1770 S   0  0  0  0  0  0  0  0  0  0  0  0
   39.4180   29.5510   41.2650 O   0  0  0  0  0  0  0  0  0  0  0  0
   38.1990   29.7280   41.4120 C   0  0  0  0  0  0  0  0  0  0  0  0
   36.9950   29.0130   41.9240 C   0  0  1  0  0  0  0  0  0  0  0  0
   35.9420   29.4330   40.9340 C   0  0  0  0  0  0  0  0  0  0  0  0
   36.1550   30.9450   41.0380 C   0  0  0  0  0  0  0  0  0  0  0  0
   37.6120   30.9770   41.0030 N   0  0  0  0  0  0  0  0  0  0  0  0
   36.7620   29.6740   42.8010 H   0  0  0  0  0  0  0  0  0  0  0  0
   36.2080   29.1470   39.8990 H   0  0  0  0  0  0  0  0  0  0  0  0
   34.9230   29.1270   41.2180 H   0  0  0  0  0  0  0  0  0  0  0  0
   35.7160   31.4230   40.1610 H   0  0  0  0  0  0  0  0  0  0  0  0
   35.7660   31.3320   42.0010 H   0  0  0  0  0  0  0  0  0  0  0  0
   38.3010   32.2050   40.5780 C   0  0  0  0  0  3  0  0  0  0  0  0
   38.5620   32.4510   39.1640 C   0  0  0  0  0  2  0  0  0  0  0  0
   37.5590   33.2790   39.8770 C   0  0  0  0  0  2  0  0  0  0  0  0
  1  6  1  0  0  0  0
  2  1  2  0  0  0  0
  2  3  1  0  0  0  0
  3  4  2  0  0  0  0
  4  5  1  0  0  0  0
  5  7  1  0  0  0  0
  6  5  2  0  0  0  0
  7  8  1  0  0  0  0
  7 11  1  0  0  0  0
  8 15  1  0  0  0  0
  8  9  1  0  0  0  0
  9 16  1  0  0  0  0
 10  9  1  0  0  0  0
 10 18  1  0  0  0  0
 11 20  1  6  0  0  0
 11 10  1  0  0  0  0
 11 24  1  0  0  0  0
 12  1  1  0  0  0  0
 13  3  1  0  0  0  0
 14  8  1  0  0  0  0
 17  9  1  0  0  0  0
 19 10  1  0  0  0  0
 21 23  1  0  0  0  0
 21  2  1  0  0  0  0
 22 21  1  0  0  0  0
 25 26  2  0  0  0  0
 26 27  1  0  0  0  0
 27 24  1  0  0  0  0
 27 31  1  1  0  0  0
 28 29  1  0  0  0  0
 28 33  1  0  0  0  0
 28 27  1  0  0  0  0
 29 35  1  0  0  0  0
 30 29  1  0  0  0  0
 30 26  1  0  0  0  0
 32 28  1  0  0  0  0
 34 29  1  0  0  0  0
 36 30  1  0  0  0  0
 37 38  1  0  0  0  0
 37 36  1  0  0  0  0
 38 36  1  0  0  0  0
M  END
>  <minimizedAffinity>
-5.09039736

$$$$

 OpenBabel03252506393D

 38 41  0  0  1  0  0  0  0  0999 V2000
   37.1860   30.1170   36.8660 C   0  0  0  0  0  0  0  0  0  0  0  0
   38.0550   29.0400   36.5690 C   0  0  0  0  0  0  0  0  0  0  0  0
   39.1300   28.8210   37.3580 C   0  0  0  0  0  0  0  0  0  0  0  0
   39.3120   29.6630   38.4070 N   0  0  0  0  0  0  0  0  0  0  0  0
   38.4940   30.6700   38.6810 C   0  0  0  0  0  0  0  0  0  0  0  0
   37.4260   30.9110   37.9210 N   0  0  0  0  0  0  0  0  0  0  0  0
   38.7870   31.5020   39.8180 N   0  0  0  0  0  0  0  0  0  0  0  0
   37.8910   32.4550   40.3650 C   0  0  0  0  0  0  0  0  0  0  0  0
   38.8040   33.5950   40.7750 C   0  0  0  0  0  0  0  0  0  0  0  0
   40.2050   33.0890   40.6000 C   0  0  0  0  0  0  0  0  0  0  0  0
   40.0030   31.5780   40.5880 C   0  0  1  0  0  0  0  0  0  0  0  0
   36.3070   30.3660   36.2940 H   0  0  0  0  0  0  0  0  0  0  0  0
   39.8010   28.0130   37.1530 H   0  0  0  0  0  0  0  0  0  0  0  0
   37.3130   32.8890   39.4890 H   0  0  0  0  0  0  0  0  0  0  0  0
   37.1930   32.2810   41.1180 H   0  0  0  0  0  0  0  0  0  0  0  0
   38.6300   33.8500   41.8580 H   0  0  0  0  0  0  0  0  0  0  0  0
   38.6610   34.5200   40.2200 H   0  0  0  0  0  0  0  0  0  0  0  0
   40.8070   33.3920   41.4810 H   0  0  0  0  0  0  0  0  0  0  0  0
   40.6060   33.4670   39.6510 H   0  0  0  0  0  0  0  0  0  0  0  0
   40.8050   31.0830   40.0190 H   0  0  0  0  0  0  0  0  0  0  0  0
   37.7300   28.2360   35.4220 N   0  0  0  0  0  0  0  0  0  0  0  0
   37.8570   28.5650   34.4270 H   0  0  0  0  0  0  0  0  0  0  0  0
   37.3690   27.3270   35.8130 H   0  0  0  0  0  0  0  0  0  0  0  0
   39.7720   31.0140   42.2580 S   0  0  0  0  0  0  0  0  0  0  0  0
   36.8750   29.3880   41.9550 O   0  0  0  0  0  0  0  0  0  0  0  0
   37.9960   28.8990   42.1660 C   0  0  0  0  0  0  0  0  0  0  0  0
   39.3870   29.3290   42.4860 C   0  0  1  0  0  0  0  0  0  0  0  0
   40.2030   28.3660   41.6670 C   0  0  0  0  0  0  0  0  0  0  0  0
   39.5640   27.0720   42.1750 C   0  0  0  0  0  0  0  0  0  0  0  0
   38.1620   27.4710   42.1230 N   0  0  0  0  0  0  0  0  0  0  0  0
   39.4730   28.8860   43.5140 H   0  0  0  0  0  0  0  0  0  0  0  0
   39.9660   28.4330   40.5890 H   0  0  0  0  0  0  0  0  0  0  0  0
   41.2840   28.4160   41.8750 H   0  0  0  0  0  0  0  0  0  0  0  0
   39.7840   26.2700   41.4700 H   0  0  0  0  0  0  0  0  0  0  0  0
   39.8830   26.8560   43.2140 H   0  0  0  0  0  0  0  0  0  0  0  0
   37.1170   26.4390   42.0370 C   0  0  0  0  0  3  0  0  0  0  0  0
   37.0150   25.5920   40.8540 C   0  0  0  0  0  2  0  0  0  0  0  0
   37.4670   25.0040   42.1380 C   0  0  0  0  0  2  0  0  0  0  0  0
  1  6  1  0  0  0  0
  2  1  2  0  0  0  0
  2  3  1  0  0  0  0
  3  4  2  0  0  0  0
  4  5  1  0  0  0  0
  5  7  1  0  0  0  0
  6  5  2  0  0  0  0
  7  8  1  0  0  0  0
  7 11  1  0  0  0  0
  8  9  1  0  0  0  0
  8 15  1  0  0  0  0
  9 16  1  0  0  0  0
 10  9  1  0  0  0  0
 10 18  1  0  0  0  0
 11 20  1  6  0  0  0
 11 10  1  0  0  0  0
 11 24  1  0  0  0  0
 12  1  1  0  0  0  0
 13  3  1  0  0  0  0
 14  8  1  0  0  0  0
 17  9  1  0  0  0  0
 19 10  1  0  0  0  0
 21 23  1  0  0  0  0
 21  2  1  0  0  0  0
 22 21  1  0  0  0  0
 24 27  1  0  0  0  0
 25 26  2  0  0  0  0
 26 27  1  0  0  0  0
 27 31  1  1  0  0  0
 28 33  1  0  0  0  0
 28 29  1  0  0  0  0
 28 27  1  0  0  0  0
 29 35  1  0  0  0  0
 30 26  1  0  0  0  0
 30 29  1  0  0  0  0
 32 28  1  0  0  0  0
 34 29  1  0  0  0  0
 36 30  1  0  0  0  0
 36 38  1  0  0  0  0
 37 36  1  0  0  0  0
 37 38  1  0  0  0  0
M  END
>  <minimizedAffinity>
-5.08439445

$$$$

 OpenBabel03252506393D

 38 41  0  0  1  0  0  0  0  0999 V2000
   38.4780   31.9620   38.8860 C   0  0  0  0  0  0  0  0  0  0  0  0
   39.2720   31.4180   37.8490 C   0  0  0  0  0  0  0  0  0  0  0  0
   39.7000   30.1400   37.9460 C   0  0  0  0  0  0  0  0  0  0  0  0
   39.3350   29.4450   39.0530 N   0  0  0  0  0  0  0  0  0  0  0  0
   38.5910   29.9600   40.0230 C   0  0  0  0  0  0  0  0  0  0  0  0
   38.1540   31.2170   39.9550 N   0  0  0  0  0  0  0  0  0  0  0  0
   38.2680   29.1320   41.1530 N   0  0  0  0  0  0  0  0  0  0  0  0
   37.3020   29.4620   42.1370 C   0  0  0  0  0  0  0  0  0  0  0  0
   37.9230   28.9410   43.4210 C   0  0  0  0  0  0  0  0  0  0  0  0
   39.1350   28.1600   43.0100 C   0  0  0  0  0  0  0  0  0  0  0  0
   38.8490   27.8710   41.5400 C   0  0  1  0  0  0  0  0  0  0  0  0
   38.0920   32.9690   38.8940 H   0  0  0  0  0  0  0  0  0  0  0  0
   40.3020   29.7070   37.1740 H   0  0  0  0  0  0  0  0  0  0  0  0
   37.3500   30.5890   42.2660 H   0  0  0  0  0  0  0  0  0  0  0  0
   36.2920   29.2130   42.1150 H   0  0  0  0  0  0  0  0  0  0  0  0
   37.1960   28.2590   43.9450 H   0  0  0  0  0  0  0  0  0  0  0  0
   38.1910   29.7090   44.1450 H   0  0  0  0  0  0  0  0  0  0  0  0
   39.1650   27.2170   43.5920 H   0  0  0  0  0  0  0  0  0  0  0  0
   40.0270   28.7840   43.1490 H   0  0  0  0  0  0  0  0  0  0  0  0
   39.7880   27.7350   40.9810 H   0  0  0  0  0  0  0  0  0  0  0  0
   39.5760   32.2790   36.7390 N   0  0  0  0  0  0  0  0  0  0  0  0
   40.2640   33.0790   36.7950 H   0  0  0  0  0  0  0  0  0  0  0  0
   38.9840   31.9270   35.9430 H   0  0  0  0  0  0  0  0  0  0  0  0
   37.6790   26.5360   41.4330 S   0  0  0  0  0  0  0  0  0  0  0  0
   36.0760   23.8070   40.3830 O   0  0  0  0  0  0  0  0  0  0  0  0
   36.3370   24.8260   39.7270 C   0  0  0  0  0  0  0  0  0  0  0  0
   37.1230   26.0880   39.8430 C   0  0  1  0  0  0  0  0  0  0  0  0
   36.2100   27.0820   39.1760 C   0  0  0  0  0  0  0  0  0  0  0  0
   35.9970   26.3180   37.8670 C   0  0  0  0  0  0  0  0  0  0  0  0
   35.7740   24.9840   38.4120 N   0  0  0  0  0  0  0  0  0  0  0  0
   37.8800   25.8950   39.0370 H   0  0  0  0  0  0  0  0  0  0  0  0
   35.2230   27.1380   39.6730 H   0  0  0  0  0  0  0  0  0  0  0  0
   36.6730   28.0700   39.0210 H   0  0  0  0  0  0  0  0  0  0  0  0
   35.1070   26.7090   37.3730 H   0  0  0  0  0  0  0  0  0  0  0  0
   36.9090   26.3500   37.2390 H   0  0  0  0  0  0  0  0  0  0  0  0
   35.0400   23.9890   37.6160 C   0  0  0  0  0  3  0  0  0  0  0  0
   33.5880   23.8970   37.7090 C   0  0  0  0  0  2  0  0  0  0  0  0
   34.2090   24.4110   36.4650 C   0  0  0  0  0  2  0  0  0  0  0  0
  1 12  1  0  0  0  0
  1  6  1  0  0  0  0
  2  3  1  0  0  0  0
  2  1  2  0  0  0  0
  3  4  2  0  0  0  0
  4  5  1  0  0  0  0
  5  7  1  0  0  0  0
  6  5  2  0  0  0  0
  7 11  1  0  0  0  0
  7  8  1  0  0  0  0
  8 14  1  0  0  0  0
  8  9  1  0  0  0  0
  9 16  1  0  0  0  0
  9 17  1  0  0  0  0
 10 19  1  0  0  0  0
 10  9  1  0  0  0  0
 10 18  1  0  0  0  0
 11 20  1  6  0  0  0
 11 10  1  0  0  0  0
 13  3  1  0  0  0  0
 15  8  1  0  0  0  0
 21 22  1  0  0  0  0
 21  2  1  0  0  0  0
 23 21  1  0  0  0  0
 24 11  1  0  0  0  0
 26 27  1  0  0  0  0
 26 25  2  0  0  0  0
 27 31  1  6  0  0  0
 27 24  1  0  0  0  0
 28 32  1  0  0  0  0
 28 27  1  0  0  0  0
 29 30  1  0  0  0  0
 29 28  1  0  0  0  0
 30 26  1  0  0  0  0
 33 28  1  0  0  0  0
 34 29  1  0  0  0  0
 35 29  1  0  0  0  0
 36 37  1  0  0  0  0
 36 30  1  0  0  0  0
 38 36  1  0  0  0  0
 38 37  1  0  0  0  0
M  END
>  <minimizedAffinity>
-4.96097183

$$$$

 OpenBabel03252506393D

 38 41  0  0  1  0  0  0  0  0999 V2000
   41.1380   29.3450   37.4470 C   0  0  0  0  0  0  0  0  0  0  0  0
   41.8010   28.6320   38.4730 C   0  0  0  0  0  0  0  0  0  0  0  0
   41.3180   28.6870   39.7340 C   0  0  0  0  0  0  0  0  0  0  0  0
   40.2060   29.4370   39.9410 N   0  0  0  0  0  0  0  0  0  0  0  0
   39.5880   30.1040   38.9750 C   0  0  0  0  0  0  0  0  0  0  0  0
   40.0410   30.0680   37.7220 N   0  0  0  0  0  0  0  0  0  0  0  0
   38.4190   30.8710   39.3100 N   0  0  0  0  0  0  0  0  0  0  0  0
   37.5320   31.4340   38.3580 C   0  0  0  0  0  0  0  0  0  0  0  0
   37.1430   32.7590   38.9890 C   0  0  0  0  0  0  0  0  0  0  0  0
   37.7070   32.7400   40.3780 C   0  0  0  0  0  0  0  0  0  0  0  0
   37.9350   31.2510   40.6140 C   0  0  1  0  0  0  0  0  0  0  0  0
   41.4510   29.3590   36.4140 H   0  0  0  0  0  0  0  0  0  0  0  0
   41.8030   28.1560   40.5270 H   0  0  0  0  0  0  0  0  0  0  0  0
   38.1700   31.7470   37.4730 H   0  0  0  0  0  0  0  0  0  0  0  0
   36.6850   30.9770   37.9610 H   0  0  0  0  0  0  0  0  0  0  0  0
   36.0210   32.8400   39.0410 H   0  0  0  0  0  0  0  0  0  0  0  0
   37.4840   33.6410   38.4510 H   0  0  0  0  0  0  0  0  0  0  0  0
   36.9420   33.1300   41.0790 H   0  0  0  0  0  0  0  0  0  0  0  0
   38.6410   33.3150   40.3930 H   0  0  0  0  0  0  0  0  0  0  0  0
   38.7430   31.0920   41.3440 H   0  0  0  0  0  0  0  0  0  0  0  0
   42.9680   27.8820   38.0980 N   0  0  0  0  0  0  0  0  0  0  0  0
   43.8960   28.3290   37.8620 H   0  0  0  0  0  0  0  0  0  0  0  0
   42.6710   26.8720   38.1230 H   0  0  0  0  0  0  0  0  0  0  0  0
   36.3770   30.4830   40.9970 S   0  0  0  0  0  0  0  0  0  0  0  0
   37.0710   27.7340   39.2410 O   0  0  0  0  0  0  0  0  0  0  0  0
   36.8660   27.8170   40.4620 C   0  0  0  0  0  0  0  0  0  0  0  0
   36.4100   28.8080   41.4780 C   0  0  1  0  0  0  0  0  0  0  0  0
   37.3070   28.4900   42.6440 C   0  0  0  0  0  0  0  0  0  0  0  0
   37.0230   26.9880   42.7170 C   0  0  0  0  0  0  0  0  0  0  0  0
   37.0990   26.6680   41.2960 N   0  0  0  0  0  0  0  0  0  0  0  0
   35.4510   28.3120   41.7850 H   0  0  0  0  0  0  0  0  0  0  0  0
   38.3780   28.5960   42.3840 H   0  0  0  0  0  0  0  0  0  0  0  0
   37.0320   29.0210   43.5690 H   0  0  0  0  0  0  0  0  0  0  0  0
   37.8200   26.5070   43.2850 H   0  0  0  0  0  0  0  0  0  0  0  0
   36.0070   26.7980   43.1190 H   0  0  0  0  0  0  0  0  0  0  0  0
   37.3880   25.2890   40.8780 C   0  0  0  0  0  3  0  0  0  0  0  0
   37.8610   24.3090   41.8500 C   0  0  0  0  0  2  0  0  0  0  0  0
   36.4970   24.1770   41.2830 C   0  0  0  0  0  2  0  0  0  0  0  0
  1  6  2  0  0  0  0
  1  2  1  0  0  0  0
  2  3  2  0  0  0  0
  3  4  1  0  0  0  0
  3 13  1  0  0  0  0
  5  7  1  0  0  0  0
  5  4  2  0  0  0  0
  6  5  1  0  0  0  0
  7 11  1  0  0  0  0
  8  9  1  0  0  0  0
  8  7  1  0  0  0  0
  9 16  1  0  0  0  0
  9 10  1  0  0  0  0
 10 19  1  0  0  0  0
 10 11  1  0  0  0  0
 10 18  1  0  0  0  0
 11 24  1  0  0  0  0
 11 20  1  1  0  0  0
 12  1  1  0  0  0  0
 14  8  1  0  0  0  0
 15  8  1  0  0  0  0
 17  9  1  0  0  0  0
 21 23  1  0  0  0  0
 21  2  1  0  0  0  0
 22 21  1  0  0  0  0
 24 27  1  0  0  0  0
 25 26  2  0  0  0  0
 26 30  1  0  0  0  0
 26 27  1  0  0  0  0
 27 31  1  1  0  0  0
 27 28  1  0  0  0  0
 28 29  1  0  0  0  0
 28 33  1  0  0  0  0
 29 35  1  0  0  0  0
 29 34  1  0  0  0  0
 30 29  1  0  0  0  0
 32 28  1  0  0  0  0
 36 38  1  0  0  0  0
 36 30  1  0  0  0  0
 36 37  1  0  0  0  0
 38 37  1  0  0  0  0
M  END
>  <minimizedAffinity>
-4.94296694

$$$$

 OpenBabel03252506393D

 38 41  0  0  1  0  0  0  0  0999 V2000
   36.8950   27.7540   37.3410 C   0  0  0  0  0  0  0  0  0  0  0  0
   36.3160   29.0140   37.0600 C   0  0  0  0  0  0  0  0  0  0  0  0
   36.1360   29.8980   38.0670 C   0  0  0  0  0  0  0  0  0  0  0  0
   36.5300   29.5150   39.3070 N   0  0  0  0  0  0  0  0  0  0  0  0
   37.0720   28.3320   39.5650 C   0  0  0  0  0  0  0  0  0  0  0  0
   37.2620   27.4400   38.5940 N   0  0  0  0  0  0  0  0  0  0  0  0
   37.4490   28.0310   40.9200 N   0  0  0  0  0  0  0  0  0  0  0  0
   38.2420   26.9190   41.3020 C   0  0  0  0  0  0  0  0  0  0  0  0
   37.6230   26.4880   42.6200 C   0  0  0  0  0  0  0  0  0  0  0  0
   36.6260   27.5490   42.9780 C   0  0  0  0  0  0  0  0  0  0  0  0
   37.0910   28.7280   42.1300 C   0  0  1  0  0  0  0  0  0  0  0  0
   37.0770   26.9890   36.6030 H   0  0  0  0  0  0  0  0  0  0  0  0
   35.7000   30.8570   37.8780 H   0  0  0  0  0  0  0  0  0  0  0  0
   37.9660   26.0730   40.5980 H   0  0  0  0  0  0  0  0  0  0  0  0
   39.2800   26.9040   41.3850 H   0  0  0  0  0  0  0  0  0  0  0  0
   38.4190   26.4370   43.4150 H   0  0  0  0  0  0  0  0  0  0  0  0
   37.1490   25.5090   42.6050 H   0  0  0  0  0  0  0  0  0  0  0  0
   36.7280   27.7840   44.0570 H   0  0  0  0  0  0  0  0  0  0  0  0
   35.6220   27.2040   42.7030 H   0  0  0  0  0  0  0  0  0  0  0  0
   36.2490   29.4020   41.9060 H   0  0  0  0  0  0  0  0  0  0  0  0
   35.9500   29.2750   35.6950 N   0  0  0  0  0  0  0  0  0  0  0  0
   35.1180   28.8290   35.2200 H   0  0  0  0  0  0  0  0  0  0  0  0
   36.6660   29.9600   35.3400 H   0  0  0  0  0  0  0  0  0  0  0  0
   38.5020   29.4780   42.9100 S   0  0  0  0  0  0  0  0  0  0  0  0
   37.8470   32.0430   40.8820 O   0  0  0  0  0  0  0  0  0  0  0  0
   38.9600   31.5860   41.1840 C   0  0  0  0  0  0  0  0  0  0  0  0
   39.5620   30.4260   41.9010 C   0  0  1  0  0  0  0  0  0  0  0  0
   40.7220   31.0690   42.6110 C   0  0  0  0  0  0  0  0  0  0  0  0
   41.3530   31.7510   41.3950 C   0  0  0  0  0  0  0  0  0  0  0  0
   40.1470   32.2940   40.7820 N   0  0  0  0  0  0  0  0  0  0  0  0
   40.0710   29.9300   41.0310 H   0  0  0  0  0  0  0  0  0  0  0  0
   40.3960   31.8780   43.2920 H   0  0  0  0  0  0  0  0  0  0  0  0
   41.4000   30.3460   43.0920 H   0  0  0  0  0  0  0  0  0  0  0  0
   42.0230   32.5390   41.7420 H   0  0  0  0  0  0  0  0  0  0  0  0
   41.8410   31.0070   40.7340 H   0  0  0  0  0  0  0  0  0  0  0  0
   40.2510   33.4420   39.8690 C   0  0  0  0  0  3  0  0  0  0  0  0
   41.5150   34.1550   39.7230 C   0  0  0  0  0  2  0  0  0  0  0  0
   41.0090   33.3290   38.6010 C   0  0  0  0  0  2  0  0  0  0  0  0
  1  6  1  0  0  0  0
  2  1  2  0  0  0  0
  2  3  1  0  0  0  0
  3  4  2  0  0  0  0
  4  5  1  0  0  0  0
  5  7  1  0  0  0  0
  6  5  2  0  0  0  0
  7  8  1  0  0  0  0
  7 11  1  0  0  0  0
  8 15  1  0  0  0  0
  8  9  1  0  0  0  0
  9 10  1  0  0  0  0
  9 16  1  0  0  0  0
 10 18  1  0  0  0  0
 11 20  1  6  0  0  0
 11 24  1  0  0  0  0
 11 10  1  0  0  0  0
 12  1  1  0  0  0  0
 13  3  1  0  0  0  0
 14  8  1  0  0  0  0
 17  9  1  0  0  0  0
 19 10  1  0  0  0  0
 21  2  1  0  0  0  0
 22 21  1  0  0  0  0
 23 21  1  0  0  0  0
 25 26  2  0  0  0  0
 26 27  1  0  0  0  0
 27 31  1  6  0  0  0
 27 28  1  0  0  0  0
 27 24  1  0  0  0  0
 28 33  1  0  0  0  0
 28 32  1  0  0  0  0
 29 34  1  0  0  0  0
 29 28  1  0  0  0  0
 30 26  1  0  0  0  0
 30 29  1  0  0  0  0
 35 29  1  0  0  0  0
 36 30  1  0  0  0  0
 37 36  1  0  0  0  0
 38 37  1  0  0  0  0
 38 36  1  0  0  0  0
M  END
>  <minimizedAffinity>
-4.90171528

$$$$
