
 OpenBabel03252509083D

 35 38  0  0  0  0  0  0  0  0999 V2000
   45.3830   35.7240   43.2570 Cl  0  0  0  0  0  0  0  0  0  0  0  0
   45.1390   34.8350   41.7770 C   0  0  0  0  0  0  0  0  0  0  0  0
   46.1710   34.2790   41.1060 C   0  0  0  0  0  0  0  0  0  0  0  0
   45.8800   33.6010   39.9370 C   0  0  0  0  0  0  0  0  0  0  0  0
   44.6000   33.4850   39.4560 C   0  0  0  0  0  0  0  0  0  0  0  0
   43.5710   34.0480   40.1390 C   0  0  0  0  0  0  0  0  0  0  0  0
   43.8490   34.7270   41.3090 C   0  0  0  0  0  0  0  0  0  0  0  0
   44.4270   32.9470   38.5380 H   0  0  0  0  0  0  0  0  0  0  0  0
   42.5570   33.9780   39.7980 H   0  0  0  0  0  0  0  0  0  0  0  0
   43.0230   35.1730   41.8520 H   0  0  0  0  0  0  0  0  0  0  0  0
   47.3120   31.6550   39.2870 C   0  0  0  0  0  0  0  0  0  0  0  0
   46.9670   32.9690   39.1910 C   0  0  0  0  0  0  0  0  0  0  0  0
   47.6770   33.7900   38.3340 C   0  0  0  0  0  0  0  0  0  0  0  0
   48.7150   33.2820   37.5880 C   0  0  0  0  0  0  0  0  0  0  0  0
   49.0810   31.9450   37.6690 C   0  0  0  0  0  0  0  0  0  0  0  0
   48.3620   31.1280   38.5350 C   0  0  0  0  0  0  0  0  0  0  0  0
   47.4310   34.8300   38.2370 H   0  0  0  0  0  0  0  0  0  0  0  0
   49.2470   33.9430   36.9310 H   0  0  0  0  0  0  0  0  0  0  0  0
   49.8850   31.5510   37.0890 H   0  0  0  0  0  0  0  0  0  0  0  0
   48.6590   30.1020   38.5830 H   0  0  0  0  0  0  0  0  0  0  0  0
   46.4660   30.5970   40.2810 S   0  0  0  0  0  0  0  0  0  0  0  0
   45.1950   30.0700   39.6650 O   0  0  0  0  0  0  0  0  0  0  0  0
   47.3720   29.3300   40.3630 O   0  0  0  0  0  0  0  0  0  0  0  0
   46.1280   30.8160   41.9400 C   0  0  0  0  0  3  0  0  0  0  0  0
   45.3910   29.5790   42.5180 C   0  0  0  0  0  2  0  0  0  0  0  0
   46.6600   30.0060   43.0780 C   0  0  0  0  0  2  0  0  0  0  0  0
   49.5710   35.7200   41.9430 C   0  0  0  0  0  0  0  0  0  0  0  0
   48.2760   35.5830   41.4290 C   0  0  0  0  0  0  0  0  0  0  0  0
   47.5210   34.4330   41.6370 C   0  0  0  0  0  0  0  0  0  0  0  0
   48.1260   33.4840   42.3570 N   0  0  0  0  0  0  0  0  0  0  0  0
   49.3620   33.6060   42.8520 C   0  0  0  0  0  0  0  0  0  0  0  0
   50.0780   34.7140   42.6470 N   0  0  0  0  0  0  0  0  0  0  0  0
   50.0880   36.6530   41.7320 H   0  0  0  0  0  0  0  0  0  0  0  0
   47.8360   36.3880   40.8510 H   0  0  0  0  0  0  0  0  0  0  0  0
   49.8380   32.8210   43.4370 H   0  0  0  0  0  0  0  0  0  0  0  0
  2  1  1  0  0  0  0
  3 29  1  0  0  0  0
  3  2  2  0  0  0  0
  4  3  1  0  0  0  0
  5  4  2  0  0  0  0
  5  6  1  0  0  0  0
  6  7  2  0  0  0  0
  7  2  1  0  0  0  0
  7 10  1  0  0  0  0
  8  5  1  0  0  0  0
  9  6  1  0  0  0  0
 11 21  1  0  0  0  0
 12 11  1  0  0  0  0
 12  4  1  0  0  0  0
 13 12  2  0  0  0  0
 14 15  2  0  0  0  0
 14 13  1  0  0  0  0
 15 16  1  0  0  0  0
 16 20  1  0  0  0  0
 16 11  2  0  0  0  0
 17 13  1  0  0  0  0
 18 14  1  0  0  0  0
 19 15  1  0  0  0  0
 21 23  2  0  0  0  0
 21 24  1  0  0  0  0
 22 21  2  0  0  0  0
 24 25  1  0  0  0  0
 24 26  1  0  0  0  0
 25 26  1  0  0  0  0
 27 32  1  0  0  0  0
 28 29  1  0  0  0  0
 28 27  2  0  0  0  0
 29 30  2  0  0  0  0
 30 31  1  0  0  0  0
 31 35  1  0  0  0  0
 32 31  2  0  0  0  0
 33 27  1  0  0  0  0
 34 28  1  0  0  0  0
M  END
>  <minimizedAffinity>
-4.412076

>  <minimizedRMSD>
0.942162573

$$$$
