
 OpenBabel03242523443D

 25 27  0  0  1  0  0  0  0  0999 V2000
   46.5850   34.6990   41.8060 C   0  0  2  0  0  0  0  0  0  0  0  0
   46.9630   35.6780   41.4980 H   0  0  0  0  0  0  0  0  0  0  0  0
   45.2710   36.1000   43.3260 C   0  0  0  0  0  0  0  0  0  0  0  0
   45.9120   34.8600   43.1070 C   0  0  0  0  0  0  0  0  0  0  0  0
   45.8930   33.8760   44.1110 C   0  0  0  0  0  0  0  0  0  0  0  0
   45.2390   34.2140   45.2380 N   0  0  0  0  0  0  0  0  0  0  0  0
   44.6380   35.3820   45.4360 C   0  0  0  0  0  0  0  0  0  0  0  0
   44.6440   36.3250   44.5000 N   0  0  0  0  0  0  0  0  0  0  0  0
   45.2620   36.8770   42.5840 H   0  0  0  0  0  0  0  0  0  0  0  0
   46.3890   32.9410   43.9190 H   0  0  0  0  0  0  0  0  0  0  0  0
   44.1260   35.6000   46.3640 H   0  0  0  0  0  0  0  0  0  0  0  0
   45.5890   34.1630   40.8270 C   0  0  0  0  0  0  0  0  0  0  0  0
   44.2370   34.3670   40.7610 C   0  0  0  0  0  0  0  0  0  0  0  0
   43.7280   33.6900   39.6920 N   0  0  0  0  0  0  0  0  0  0  0  0
   44.7870   33.0640   39.1000 C   0  0  0  0  0  0  0  0  0  0  0  0
   45.9080   33.3520   39.7870 N   0  0  0  0  0  0  0  0  0  0  0  0
   43.6530   34.9760   41.4510 H   0  0  0  0  0  0  0  0  0  0  0  0
   42.7380   33.6310   39.3550 H   0  0  0  0  0  0  0  0  0  0  0  0
   44.8110   32.4270   38.2240 H   0  0  0  0  0  0  0  0  0  0  0  0
   47.7010   33.7190   41.9690 C   0  0  0  0  0  0  0  0  0  0  0  0
   47.7900   33.3390   43.0070 H   0  0  0  0  0  0  0  0  0  0  0  0
   47.4520   32.7910   41.3710 H   0  0  0  0  0  0  0  0  0  0  0  0
   49.0400   34.2560   41.5590 C   0  0  0  0  0  0  0  0  0  0  0  0
   49.7170   35.0930   42.6600 C   0  0  0  0  0  0  0  0  0  0  0  0
   50.2960   33.8160   42.2000 C   0  0  0  0  0  0  0  0  0  0  0  0
  1  2  1  6  0  0  0
  1 20  1  0  0  0  0
  1  4  1  0  0  0  0
  3  8  1  0  0  0  0
  4  3  2  0  0  0  0
  4  5  1  0  0  0  0
  5  6  2  0  0  0  0
  6  7  1  0  0  0  0
  7 11  1  0  0  0  0
  8  7  2  0  0  0  0
  9  3  1  0  0  0  0
 10  5  1  0  0  0  0
 12  1  1  0  0  0  0
 13 12  2  0  0  0  0
 13 17  1  0  0  0  0
 14 13  1  0  0  0  0
 15 14  1  0  0  0  0
 15 16  2  0  0  0  0
 16 12  1  0  0  0  0
 18 14  1  0  0  0  0
 19 15  1  0  0  0  0
 20 21  1  0  0  0  0
 22 20  1  0  0  0  0
 23 20  1  0  0  0  0
 23 25  1  0  0  0  0
 23 24  1  0  0  0  0
 25 24  1  0  0  0  0
M  END
>  <minimizedAffinity>
-4.63262796

>  <minimizedRMSD>
2.20426583

$$$$
