
 OpenBabel03242517533D

 32 34  0  0  0  0  0  0  0  0999 V2000
   44.6300   35.2200   45.2040 C   0  0  0  0  0  0  0  0  0  0  0  0
   45.0670   35.5040   43.8870 C   0  0  0  0  0  0  0  0  0  0  0  0
   46.1490   34.8070   43.3780 C   0  0  0  0  0  0  0  0  0  0  0  0
   46.7030   33.9010   44.1910 N   0  0  0  0  0  0  0  0  0  0  0  0
   46.2940   33.6370   45.4170 C   0  0  0  0  0  0  0  0  0  0  0  0
   45.2550   34.3010   45.9220 N   0  0  0  0  0  0  0  0  0  0  0  0
   43.7730   35.7880   45.5780 H   0  0  0  0  0  0  0  0  0  0  0  0
   44.5930   36.2410   43.2630 H   0  0  0  0  0  0  0  0  0  0  0  0
   46.6870   35.0220   42.0210 C   0  0  0  0  0  0  0  0  0  0  0  0
   47.7510   34.8220   42.0070 H   0  0  0  0  0  0  0  0  0  0  0  0
   46.5430   36.1070   41.8010 H   0  0  0  0  0  0  0  0  0  0  0  0
   45.9100   34.2500   40.9670 C   0  0  0  0  0  0  0  0  0  0  0  0
   45.3180   33.4350   41.4210 H   0  0  0  0  0  0  0  0  0  0  0  0
   45.1900   34.9490   40.4920 H   0  0  0  0  0  0  0  0  0  0  0  0
   46.7980   33.7050   39.8940 C   0  0  0  0  0  0  0  0  0  0  0  0
   48.0780   33.0340   40.1900 C   0  0  0  0  0  0  0  0  0  0  0  0
   48.0970   34.4350   39.5950 C   0  0  0  0  0  0  0  0  0  0  0  0
   46.8960   32.6910   46.2300 O   0  0  0  0  0  0  0  0  0  0  0  0
   45.6590   30.6250   46.8630 C   0  0  0  0  0  0  0  0  0  0  0  0
   46.2360   31.8440   47.1110 C   0  0  0  0  0  0  0  0  0  0  0  0
   46.1730   32.3320   48.4080 C   0  0  0  0  0  0  0  0  0  0  0  0
   45.5540   31.6260   49.4230 C   0  0  0  0  0  0  0  0  0  0  0  0
   44.9820   30.3990   49.1390 C   0  0  0  0  0  0  0  0  0  0  0  0
   45.0430   29.9070   47.8400 C   0  0  0  0  0  0  0  0  0  0  0  0
   46.5960   33.2820   48.7090 H   0  0  0  0  0  0  0  0  0  0  0  0
   45.5020   32.0020   50.4370 H   0  0  0  0  0  0  0  0  0  0  0  0
   44.4820   29.7750   49.8430 H   0  0  0  0  0  0  0  0  0  0  0  0
   44.6300   28.9590   47.5040 H   0  0  0  0  0  0  0  0  0  0  0  0
   45.7860   30.0910   45.2100 S   0  0  0  0  0  0  0  0  0  0  0  0
   44.6410   29.1810   44.8250 O   0  0  0  0  0  0  0  0  0  0  0  0
   47.0340   29.2160   45.0990 O   0  0  0  0  0  0  0  0  0  0  0  0
   45.8340   31.0970   44.3110 H   0  0  0  0  0  0  0  0  0  0  0  0
  1  7  1  0  0  0  0
  1  6  1  0  0  0  0
  2  1  2  0  0  0  0
  3  2  1  0  0  0  0
  3  4  2  0  0  0  0
  4  5  1  0  0  0  0
  5  6  2  0  0  0  0
  5 18  1  0  0  0  0
  8  2  1  0  0  0  0
  9  3  1  0  0  0  0
 10  9  1  0  0  0  0
 11  9  1  0  0  0  0
 12 13  1  0  0  0  0
 12  9  1  0  0  0  0
 14 12  1  0  0  0  0
 15 16  1  0  0  0  0
 15 12  1  0  0  0  0
 17 15  1  0  0  0  0
 17 16  1  0  0  0  0
 18 20  1  0  0  0  0
 19 20  2  0  0  0  0
 19 24  1  0  0  0  0
 20 21  1  0  0  0  0
 21 25  1  0  0  0  0
 21 22  2  0  0  0  0
 22 26  1  0  0  0  0
 23 22  1  0  0  0  0
 23 27  1  0  0  0  0
 24 23  2  0  0  0  0
 28 24  1  0  0  0  0
 29 19  1  0  0  0  0
 30 29  2  0  0  0  0
 31 29  2  0  0  0  0
 32 29  1  0  0  0  0
M  END
>  <minimizedAffinity>
-5.34011602

>  <minimizedRMSD>
1.79201198

$$$$
