
 OpenBabel03242510223D

 32 35  0  0  1  0  0  0  0  0999 V2000
   46.3040   32.1180   44.4720 C   0  0  1  0  0  0  0  0  0  0  0  0
   46.4010   31.3710   43.2900 C   0  0  0  0  0  0  0  0  0  0  0  0
   47.6500   32.1160   43.8590 C   0  0  1  0  0  0  0  0  0  0  0  0
   46.1640   31.6570   45.4740 H   0  0  0  0  0  0  0  0  0  0  0  0
   46.1060   31.6310   42.2560 H   0  0  0  0  0  0  0  0  0  0  0  0
   46.4780   30.2440   43.3790 H   0  0  0  0  0  0  0  0  0  0  0  0
   48.4180   31.4130   44.2110 H   0  0  0  0  0  0  0  0  0  0  0  0
   45.0370   33.9990   43.1830 C   0  0  0  0  0  0  0  0  0  0  0  0
   45.5420   33.4550   44.4080 C   0  0  0  0  0  0  0  0  0  0  0  0
   45.3480   34.1910   45.5590 C   0  0  0  0  0  0  0  0  0  0  0  0
   44.7010   35.3720   45.4820 N   0  0  0  0  0  0  0  0  0  0  0  0
   44.2270   35.8770   44.3090 C   0  0  0  0  0  0  0  0  0  0  0  0
   44.4070   35.1560   43.1260 N   0  0  0  0  0  0  0  0  0  0  0  0
   45.1780   33.4040   42.3000 H   0  0  0  0  0  0  0  0  0  0  0  0
   45.7020   33.8400   46.5200 H   0  0  0  0  0  0  0  0  0  0  0  0
   43.7100   36.8230   44.2540 H   0  0  0  0  0  0  0  0  0  0  0  0
   48.0010   33.2530   43.0870 N   0  0  0  0  0  0  0  0  0  0  0  0
   49.2120   33.3700   42.4130 C   0  0  0  0  0  0  0  0  0  0  0  0
   50.3800   33.0650   42.7600 O   0  0  0  0  0  0  0  0  0  0  0  0
   47.4020   34.0980   42.9500 H   0  0  0  0  0  0  0  0  0  0  0  0
   49.2180   33.9530   41.0070 C   0  0  2  0  0  0  0  0  0  0  0  0
   48.6420   35.4080   40.8560 C   0  0  0  0  0  0  0  0  0  0  0  0
   47.9770   34.1920   40.2750 C   0  0  1  0  0  0  0  0  0  0  0  0
   50.1690   33.8870   40.4400 H   0  0  0  0  0  0  0  0  0  0  0  0
   48.2050   35.8110   41.7970 H   0  0  0  0  0  0  0  0  0  0  0  0
   49.1090   36.0750   40.1400 H   0  0  0  0  0  0  0  0  0  0  0  0
   47.0980   33.6900   40.7440 H   0  0  0  0  0  0  0  0  0  0  0  0
   48.0080   34.0520   38.7730 C   0  0  0  0  0  0  0  0  0  0  0  0
   48.5570   34.8940   38.0770 O   0  0  0  0  0  0  0  0  0  0  0  0
   47.3600   32.8740   38.1120 C   0  0  0  0  0  3  0  0  0  0  0  0
   46.1930   32.2080   38.7210 C   0  0  0  0  0  2  0  0  0  0  0  0
   45.9740   33.1600   37.5730 C   0  0  0  0  0  2  0  0  0  0  0  0
  1  4  1  1  0  0  0
  2  6  1  0  0  0  0
  2  3  1  0  0  0  0
  2  1  1  0  0  0  0
  3  7  1  1  0  0  0
  3  1  1  0  0  0  0
  5  2  1  0  0  0  0
  8  9  1  0  0  0  0
  9  1  1  0  0  0  0
  9 10  2  0  0  0  0
 10 15  1  0  0  0  0
 11 10  1  0  0  0  0
 12 11  2  0  0  0  0
 13  8  2  0  0  0  0
 13 12  1  0  0  0  0
 14  8  1  0  0  0  0
 16 12  1  0  0  0  0
 17  3  1  0  0  0  0
 18 19  2  0  0  0  0
 18 17  1  0  0  0  0
 20 17  1  0  0  0  0
 21 24  1  6  0  0  0
 21 18  1  0  0  0  0
 22 21  1  0  0  0  0
 22 25  1  0  0  0  0
 23 27  1  1  0  0  0
 23 22  1  0  0  0  0
 23 21  1  0  0  0  0
 26 22  1  0  0  0  0
 28 23  1  0  0  0  0
 29 28  2  0  0  0  0
 30 31  1  0  0  0  0
 30 28  1  0  0  0  0
 32 30  1  0  0  0  0
 32 31  1  0  0  0  0
M  END
>  <minimizedAffinity>
-4.4204874

>  <minimizedRMSD>
0.410210043

$$$$
