
 OpenBabel03252507153D

 23 25  0  0  0  0  0  0  0  0999 V2000
   44.8200   35.9240   43.4170 C   0  0  0  0  0  0  0  0  0  0  0  0
   45.4790   34.7160   43.0820 C   0  0  0  0  0  0  0  0  0  0  0  0
   45.7230   33.8200   44.0970 C   0  0  0  0  0  0  0  0  0  0  0  0
   45.3370   34.1070   45.3540 N   0  0  0  0  0  0  0  0  0  0  0  0
   44.7020   35.2810   45.6610 C   0  0  0  0  0  0  0  0  0  0  0  0
   44.4630   36.1530   44.6810 N   0  0  0  0  0  0  0  0  0  0  0  0
   44.6020   36.6700   42.6530 H   0  0  0  0  0  0  0  0  0  0  0  0
   44.4560   35.3630   46.7200 H   0  0  0  0  0  0  0  0  0  0  0  0
   46.4000   32.5720   43.7660 C   0  0  0  0  0  0  0  0  0  0  0  0
   45.6680   31.4140   43.5840 C   0  0  0  0  0  0  0  0  0  0  0  0
   46.3360   30.2530   43.2730 C   0  0  0  0  0  0  0  0  0  0  0  0
   47.7240   30.1830   43.1300 C   0  0  0  0  0  0  0  0  0  0  0  0
   48.3980   31.3690   43.3240 C   0  0  0  0  0  0  0  0  0  0  0  0
   47.7370   32.5070   43.6300 N   0  0  0  0  0  0  0  0  0  0  0  0
   44.5920   31.4250   43.6850 H   0  0  0  0  0  0  0  0  0  0  0  0
   45.7580   29.3470   43.1310 H   0  0  0  0  0  0  0  0  0  0  0  0
   48.2500   29.2690   42.8860 H   0  0  0  0  0  0  0  0  0  0  0  0
   49.4860   31.3440   43.2200 H   0  0  0  0  0  0  0  0  0  0  0  0
   45.8610   34.4720   41.7260 C   0  0  0  0  0  0  0  0  0  0  0  0
   46.9990   34.8810   41.3560 O   0  0  0  0  0  0  0  0  0  0  0  0
   44.9910   33.7710   40.7510 C   0  0  0  0  0  3  0  0  0  0  0  0
   43.6090   33.3740   41.1860 C   0  0  0  0  0  2  0  0  0  0  0  0
   43.7440   34.4790   40.2330 C   0  0  0  0  0  2  0  0  0  0  0  0
  1  6  1  0  0  0  0
  2  1  2  0  0  0  0
  2  3  1  0  0  0  0
  3  4  2  0  0  0  0
  4  5  1  0  0  0  0
  5  8  1  0  0  0  0
  6  5  2  0  0  0  0
  7  1  1  0  0  0  0
  9  3  1  0  0  0  0
 10 15  1  0  0  0  0
 10  9  2  0  0  0  0
 11 10  1  0  0  0  0
 12 11  2  0  0  0  0
 12 13  1  0  0  0  0
 13 14  2  0  0  0  0
 14  9  1  0  0  0  0
 16 11  1  0  0  0  0
 17 12  1  0  0  0  0
 18 13  1  0  0  0  0
 19  2  1  0  0  0  0
 20 19  2  0  0  0  0
 21 22  1  0  0  0  0
 21 19  1  0  0  0  0
 23 21  1  0  0  0  0
 23 22  1  0  0  0  0
M  END
>  <minimizedAffinity>
-3.86748743

>  <minimizedRMSD>
0.836588442

$$$$
