
 OpenBabel03252502563D

 31 33  0  0  0  0  0  0  0  0999 V2000
   45.6530   29.9430   44.8320 Br  0  0  0  0  0  0  0  0  0  0  0  0
   45.6670   30.6190   46.6400 C   0  0  0  0  0  0  0  0  0  0  0  0
   46.3310   31.8010   46.8250 C   0  0  0  0  0  0  0  0  0  0  0  0
   46.3180   32.2580   48.1420 C   0  0  0  0  0  0  0  0  0  0  0  0
   45.6950   31.5870   49.1890 C   0  0  0  0  0  0  0  0  0  0  0  0
   45.0570   30.4130   48.9080 C   0  0  0  0  0  0  0  0  0  0  0  0
   45.0290   29.9020   47.6210 C   0  0  0  0  0  0  0  0  0  0  0  0
   46.8230   33.1950   48.3880 H   0  0  0  0  0  0  0  0  0  0  0  0
   45.7170   31.9880   50.1930 H   0  0  0  0  0  0  0  0  0  0  0  0
   44.5660   29.8830   49.7280 H   0  0  0  0  0  0  0  0  0  0  0  0
   47.0240   32.6110   45.8360 C   0  0  0  0  0  0  0  0  0  0  0  0
   47.9540   33.0020   46.2950 H   0  0  0  0  0  0  0  0  0  0  0  0
   47.3510   31.9290   44.9970 H   0  0  0  0  0  0  0  0  0  0  0  0
   44.5190   35.3270   45.3850 C   0  0  0  0  0  0  0  0  0  0  0  0
   44.7540   35.7020   44.0510 C   0  0  0  0  0  0  0  0  0  0  0  0
   45.7430   35.0370   43.3380 C   0  0  0  0  0  0  0  0  0  0  0  0
   46.4440   34.0530   43.9540 N   0  0  0  0  0  0  0  0  0  0  0  0
   46.1990   33.7020   45.2580 C   0  0  0  0  0  0  0  0  0  0  0  0
   45.2390   34.3550   45.9340 N   0  0  0  0  0  0  0  0  0  0  0  0
   43.7390   35.8790   45.8920 H   0  0  0  0  0  0  0  0  0  0  0  0
   44.2100   36.4850   43.5320 H   0  0  0  0  0  0  0  0  0  0  0  0
   45.9740   35.2760   42.3090 H   0  0  0  0  0  0  0  0  0  0  0  0
   44.3710   28.7020   47.3690 O   0  0  0  0  0  0  0  0  0  0  0  0
   44.3080   26.1350   46.9610 O   0  0  0  0  0  0  0  0  0  0  0  0
   44.9610   27.1860   47.8360 P   0  0  2  0  0  0  0  0  0  0  0  0
   44.5470   26.9530   49.4490 O   0  0  0  0  0  0  0  0  0  0  0  0
   43.6640   27.2930   49.6630 H   0  0  0  0  0  0  0  0  0  0  0  0
   46.6400   27.0730   47.6310 O   0  0  0  0  0  0  0  0  0  0  0  0
   47.1520   25.8580   48.0850 C   0  0  0  0  0  0  0  0  0  0  0  0
   48.6070   25.9710   48.5440 C   0  0  0  0  0  0  0  0  0  0  0  0
   48.2380   25.2500   47.3070 C   0  0  0  0  0  0  0  0  0  0  0  0
  1  2  1  0  0  0  0
  2  3  2  0  0  0  0
  2  7  1  0  0  0  0
  3  4  1  0  0  0  0
  4  8  1  0  0  0  0
  4  5  2  0  0  0  0
  5  9  1  0  0  0  0
  6  5  1  0  0  0  0
  6 10  1  0  0  0  0
  7  6  2  0  0  0  0
 11 12  1  0  0  0  0
 11  3  1  0  0  0  0
 13 11  1  0  0  0  0
 14 20  1  0  0  0  0
 14 19  1  0  0  0  0
 15 14  2  0  0  0  0
 16 17  2  0  0  0  0
 16 15  1  0  0  0  0
 17 18  1  0  0  0  0
 18 11  1  0  0  0  0
 18 19  2  0  0  0  0
 21 15  1  0  0  0  0
 22 16  1  0  0  0  0
 23  7  1  0  0  0  0
 23 25  1  0  0  0  0
 25 24  2  6  0  0  0
 25 26  1  0  0  0  0
 26 27  1  0  0  0  0
 28 25  1  0  0  0  0
 28 29  1  0  0  0  0
 29 30  1  0  0  0  0
 31 29  1  0  0  0  0
 31 30  1  0  0  0  0
M  END
>  <minimizedAffinity>
-4.91120911

>  <minimizedRMSD>
0.685727179

$$$$
