
 OpenBabel03242523443D

 25 27  0  0  1  0  0  0  0  0999 V2000
   36.6380   29.1940   39.5600 C   0  0  2  0  0  0  0  0  0  0  0  0
   37.1570   28.7790   38.6920 H   0  0  0  0  0  0  0  0  0  0  0  0
   36.3040   28.1210   41.7370 C   0  0  0  0  0  0  0  0  0  0  0  0
   37.2230   28.5900   40.7700 C   0  0  0  0  0  0  0  0  0  0  0  0
   38.6030   28.4760   41.0070 C   0  0  0  0  0  0  0  0  0  0  0  0
   38.9450   27.9080   42.1780 N   0  0  0  0  0  0  0  0  0  0  0  0
   38.0750   27.4690   43.0820 C   0  0  0  0  0  0  0  0  0  0  0  0
   36.7650   27.5670   42.8780 N   0  0  0  0  0  0  0  0  0  0  0  0
   35.2410   28.1890   41.5940 H   0  0  0  0  0  0  0  0  0  0  0  0
   39.2820   28.8400   40.2550 H   0  0  0  0  0  0  0  0  0  0  0  0
   38.4050   27.0200   44.0090 H   0  0  0  0  0  0  0  0  0  0  0  0
   36.8150   30.6780   39.6460 C   0  0  0  0  0  0  0  0  0  0  0  0
   36.6660   31.5110   40.7220 C   0  0  0  0  0  0  0  0  0  0  0  0
   36.9400   32.7920   40.3440 N   0  0  0  0  0  0  0  0  0  0  0  0
   37.2600   32.7370   39.0180 C   0  0  0  0  0  0  0  0  0  0  0  0
   37.1830   31.4600   38.6010 N   0  0  0  0  0  0  0  0  0  0  0  0
   36.3750   31.2030   41.7270 H   0  0  0  0  0  0  0  0  0  0  0  0
   36.9220   33.6700   40.9160 H   0  0  0  0  0  0  0  0  0  0  0  0
   37.5390   33.5350   38.3410 H   0  0  0  0  0  0  0  0  0  0  0  0
   35.1820   28.8660   39.5250 C   0  0  0  0  0  0  0  0  0  0  0  0
   34.8740   28.1880   40.3470 H   0  0  0  0  0  0  0  0  0  0  0  0
   34.5970   29.8120   39.7350 H   0  0  0  0  0  0  0  0  0  0  0  0
   34.7310   28.2560   38.2310 C   0  0  0  0  0  3  0  0  0  0  0  0
   33.4450   28.8970   37.6790 C   0  0  0  0  0  2  0  0  0  0  0  0
   34.7300   29.0110   36.9620 C   0  0  0  0  0  2  0  0  0  0  0  0
  1  2  1  6  0  0  0
  1 12  1  0  0  0  0
  1  4  1  0  0  0  0
  3  8  1  0  0  0  0
  4  5  1  0  0  0  0
  4  3  2  0  0  0  0
  5  6  2  0  0  0  0
  6  7  1  0  0  0  0
  7 11  1  0  0  0  0
  8  7  2  0  0  0  0
  9  3  1  0  0  0  0
 10  5  1  0  0  0  0
 12 13  2  0  0  0  0
 13 17  1  0  0  0  0
 14 13  1  0  0  0  0
 14 18  1  0  0  0  0
 15 14  1  0  0  0  0
 16 15  2  0  0  0  0
 16 12  1  0  0  0  0
 19 15  1  0  0  0  0
 20  1  1  0  0  0  0
 20 22  1  0  0  0  0
 20 21  1  0  0  0  0
 23 20  1  0  0  0  0
 24 23  1  0  0  0  0
 25 24  1  0  0  0  0
 25 23  1  0  0  0  0
M  END
>  <minimizedAffinity>
-4.41546488

$$$$

 OpenBabel03242523443D

 25 27  0  0  1  0  0  0  0  0999 V2000
   36.3260   28.7860   39.7790 C   0  0  2  0  0  0  0  0  0  0  0  0
   37.2110   28.1840   39.5590 H   0  0  0  0  0  0  0  0  0  0  0  0
   37.0870   30.5670   38.2790 C   0  0  0  0  0  0  0  0  0  0  0  0
   36.6780   30.2030   39.5830 C   0  0  0  0  0  0  0  0  0  0  0  0
   36.6440   31.1720   40.6000 C   0  0  0  0  0  0  0  0  0  0  0  0
   37.0160   32.4120   40.2300 N   0  0  0  0  0  0  0  0  0  0  0  0
   37.3980   32.7460   39.0020 C   0  0  0  0  0  0  0  0  0  0  0  0
   37.4380   31.8450   38.0260 N   0  0  0  0  0  0  0  0  0  0  0  0
   37.1260   29.8560   37.4740 H   0  0  0  0  0  0  0  0  0  0  0  0
   36.3290   30.8700   41.5830 H   0  0  0  0  0  0  0  0  0  0  0  0
   37.6880   33.7600   38.7600 H   0  0  0  0  0  0  0  0  0  0  0  0
   35.1940   28.4530   38.8580 C   0  0  0  0  0  0  0  0  0  0  0  0
   33.9500   29.0170   38.7700 C   0  0  0  0  0  0  0  0  0  0  0  0
   33.2450   28.4060   37.7760 N   0  0  0  0  0  0  0  0  0  0  0  0
   34.0740   27.4550   37.2520 C   0  0  0  0  0  0  0  0  0  0  0  0
   35.2480   27.4870   37.9080 N   0  0  0  0  0  0  0  0  0  0  0  0
   33.5760   29.8300   39.3930 H   0  0  0  0  0  0  0  0  0  0  0  0
   32.2690   28.5900   37.4450 H   0  0  0  0  0  0  0  0  0  0  0  0
   33.8970   26.7520   36.4470 H   0  0  0  0  0  0  0  0  0  0  0  0
   35.8880   28.6010   41.1950 C   0  0  0  0  0  0  0  0  0  0  0  0
   35.7460   29.5620   41.7300 H   0  0  0  0  0  0  0  0  0  0  0  0
   34.8500   28.1490   41.1920 H   0  0  0  0  0  0  0  0  0  0  0  0
   36.8190   27.7530   42.0090 C   0  0  0  0  0  3  0  0  0  0  0  0
   37.4250   28.5040   43.2090 C   0  0  0  0  0  2  0  0  0  0  0  0
   36.5140   27.3580   43.3990 C   0  0  0  0  0  2  0  0  0  0  0  0
  1  2  1  6  0  0  0
  1 20  1  0  0  0  0
  3  4  1  0  0  0  0
  4  1  1  0  0  0  0
  4  5  2  0  0  0  0
  5 10  1  0  0  0  0
  6  5  1  0  0  0  0
  7  6  2  0  0  0  0
  8  3  2  0  0  0  0
  8  7  1  0  0  0  0
  9  3  1  0  0  0  0
 11  7  1  0  0  0  0
 12  1  1  0  0  0  0
 13 12  2  0  0  0  0
 13 17  1  0  0  0  0
 14 13  1  0  0  0  0
 15 14  1  0  0  0  0
 15 16  2  0  0  0  0
 16 12  1  0  0  0  0
 18 14  1  0  0  0  0
 19 15  1  0  0  0  0
 20 21  1  0  0  0  0
 20 23  1  0  0  0  0
 22 20  1  0  0  0  0
 23 24  1  0  0  0  0
 23 25  1  0  0  0  0
 24 25  1  0  0  0  0
M  END
>  <minimizedAffinity>
-4.37387943

$$$$

 OpenBabel03242523443D

 25 27  0  0  1  0  0  0  0  0999 V2000
   36.1130   28.6020   40.6850 C   0  0  2  0  0  0  0  0  0  0  0  0
   35.3160   28.5710   41.4330 H   0  0  0  0  0  0  0  0  0  0  0  0
   34.4490   28.8210   38.9000 C   0  0  0  0  0  0  0  0  0  0  0  0
   35.5590   28.1100   39.4110 C   0  0  0  0  0  0  0  0  0  0  0  0
   36.0570   26.9970   38.7130 C   0  0  0  0  0  0  0  0  0  0  0  0
   35.4090   26.6920   37.5730 N   0  0  0  0  0  0  0  0  0  0  0  0
   34.3670   27.3650   37.0990 C   0  0  0  0  0  0  0  0  0  0  0  0
   33.8800   28.4210   37.7440 N   0  0  0  0  0  0  0  0  0  0  0  0
   34.0390   29.6770   39.4030 H   0  0  0  0  0  0  0  0  0  0  0  0
   36.9030   26.4740   39.1230 H   0  0  0  0  0  0  0  0  0  0  0  0
   33.8820   27.0750   36.1760 H   0  0  0  0  0  0  0  0  0  0  0  0
   36.6100   29.9970   40.4720 C   0  0  0  0  0  0  0  0  0  0  0  0
   36.2130   31.1630   41.0700 C   0  0  0  0  0  0  0  0  0  0  0  0
   36.9500   32.1990   40.5770 N   0  0  0  0  0  0  0  0  0  0  0  0
   37.8090   31.6540   39.6660 C   0  0  0  0  0  0  0  0  0  0  0  0
   37.6000   30.3260   39.6050 N   0  0  0  0  0  0  0  0  0  0  0  0
   35.4310   31.2550   41.8230 H   0  0  0  0  0  0  0  0  0  0  0  0
   36.9050   33.2180   40.8160 H   0  0  0  0  0  0  0  0  0  0  0  0
   38.5610   32.1350   39.0510 H   0  0  0  0  0  0  0  0  0  0  0  0
   37.2530   27.7210   41.0760 C   0  0  0  0  0  0  0  0  0  0  0  0
   37.4840   26.9520   40.3100 H   0  0  0  0  0  0  0  0  0  0  0  0
   38.1950   28.3480   41.1080 H   0  0  0  0  0  0  0  0  0  0  0  0
   37.0530   27.0190   42.3870 C   0  0  0  0  0  3  0  0  0  0  0  0
   38.2050   27.2600   43.3800 C   0  0  0  0  0  2  0  0  0  0  0  0
   36.8410   27.7550   43.6490 C   0  0  0  0  0  2  0  0  0  0  0  0
  1 20  1  0  0  0  0
  1  2  1  1  0  0  0
  3  9  1  0  0  0  0
  3  4  1  0  0  0  0
  4  1  1  0  0  0  0
  5 10  1  0  0  0  0
  5  4  2  0  0  0  0
  6  5  1  0  0  0  0
  7  6  2  0  0  0  0
  7  8  1  0  0  0  0
  8  3  2  0  0  0  0
 11  7  1  0  0  0  0
 12  1  1  0  0  0  0
 12 13  2  0  0  0  0
 13 17  1  0  0  0  0
 14 18  1  0  0  0  0
 14 13  1  0  0  0  0
 15 14  1  0  0  0  0
 16 15  2  0  0  0  0
 16 12  1  0  0  0  0
 19 15  1  0  0  0  0
 20 22  1  0  0  0  0
 20 23  1  0  0  0  0
 21 20  1  0  0  0  0
 23 24  1  0  0  0  0
 23 25  1  0  0  0  0
 24 25  1  0  0  0  0
M  END
>  <minimizedAffinity>
-4.2192955

$$$$

 OpenBabel03242523443D

 25 27  0  0  1  0  0  0  0  0999 V2000
   37.2100   27.0720   42.1050 C   0  0  2  0  0  0  0  0  0  0  0  0
   36.5880   26.8980   42.9880 H   0  0  0  0  0  0  0  0  0  0  0  0
   35.9160   28.4140   40.5160 C   0  0  0  0  0  0  0  0  0  0  0  0
   36.8670   28.3980   41.5620 C   0  0  0  0  0  0  0  0  0  0  0  0
   37.4340   29.6030   42.0090 C   0  0  0  0  0  0  0  0  0  0  0  0
   37.0050   30.7130   41.3780 N   0  0  0  0  0  0  0  0  0  0  0  0
   36.1100   30.7200   40.3970 C   0  0  0  0  0  0  0  0  0  0  0  0
   35.5620   29.5910   39.9590 N   0  0  0  0  0  0  0  0  0  0  0  0
   35.4590   27.5140   40.1460 H   0  0  0  0  0  0  0  0  0  0  0  0
   38.1560   29.5640   42.8060 H   0  0  0  0  0  0  0  0  0  0  0  0
   35.8010   31.6430   39.9240 H   0  0  0  0  0  0  0  0  0  0  0  0
   38.6660   27.0690   42.4510 C   0  0  0  0  0  0  0  0  0  0  0  0
   39.2690   27.0680   43.6800 C   0  0  0  0  0  0  0  0  0  0  0  0
   40.6230   27.0540   43.5200 N   0  0  0  0  0  0  0  0  0  0  0  0
   40.8460   27.0460   42.1730 C   0  0  0  0  0  0  0  0  0  0  0  0
   39.6630   27.0550   41.5310 N   0  0  0  0  0  0  0  0  0  0  0  0
   38.7520   27.0770   44.6390 H   0  0  0  0  0  0  0  0  0  0  0  0
   41.3760   27.0490   44.2470 H   0  0  0  0  0  0  0  0  0  0  0  0
   41.7830   27.0340   41.6280 H   0  0  0  0  0  0  0  0  0  0  0  0
   36.9460   26.0470   41.0510 C   0  0  0  0  0  0  0  0  0  0  0  0
   36.0000   26.2300   40.5020 H   0  0  0  0  0  0  0  0  0  0  0  0
   37.7370   26.1470   40.2490 H   0  0  0  0  0  0  0  0  0  0  0  0
   36.9110   24.6400   41.5720 C   0  0  0  0  0  3  0  0  0  0  0  0
   36.6300   23.5980   40.4740 C   0  0  0  0  0  2  0  0  0  0  0  0
   37.9210   23.6330   41.1890 C   0  0  0  0  0  2  0  0  0  0  0  0
  1 12  1  0  0  0  0
  1  2  1  1  0  0  0
  3  4  1  0  0  0  0
  4  5  2  0  0  0  0
  4  1  1  0  0  0  0
  5 10  1  0  0  0  0
  6  5  1  0  0  0  0
  7  6  2  0  0  0  0
  8  7  1  0  0  0  0
  8  3  2  0  0  0  0
  9  3  1  0  0  0  0
 11  7  1  0  0  0  0
 12 13  2  0  0  0  0
 13 17  1  0  0  0  0
 14 13  1  0  0  0  0
 14 18  1  0  0  0  0
 15 14  1  0  0  0  0
 16 15  2  0  0  0  0
 16 12  1  0  0  0  0
 19 15  1  0  0  0  0
 20 23  1  0  0  0  0
 20  1  1  0  0  0  0
 21 20  1  0  0  0  0
 22 20  1  0  0  0  0
 24 25  1  0  0  0  0
 24 23  1  0  0  0  0
 25 23  1  0  0  0  0
M  END
>  <minimizedAffinity>
-4.10715675

$$$$

 OpenBabel03242523443D

 25 27  0  0  1  0  0  0  0  0999 V2000
   37.8370   30.5390   39.5990 C   0  0  2  0  0  0  0  0  0  0  0  0
   38.4210   30.1920   38.7430 H   0  0  0  0  0  0  0  0  0  0  0  0
   37.3820   29.8690   41.9110 C   0  0  0  0  0  0  0  0  0  0  0  0
   38.1750   29.6890   40.7540 C   0  0  0  0  0  0  0  0  0  0  0  0
   39.2220   28.7520   40.7640 C   0  0  0  0  0  0  0  0  0  0  0  0
   39.3860   28.0800   41.9190 N   0  0  0  0  0  0  0  0  0  0  0  0
   38.6370   28.2550   43.0020 C   0  0  0  0  0  0  0  0  0  0  0  0
   37.6410   29.1360   43.0140 N   0  0  0  0  0  0  0  0  0  0  0  0
   36.5720   30.5740   41.9440 H   0  0  0  0  0  0  0  0  0  0  0  0
   39.8100   28.6350   39.8720 H   0  0  0  0  0  0  0  0  0  0  0  0
   38.8130   27.6860   43.9060 H   0  0  0  0  0  0  0  0  0  0  0  0
   38.1650   31.9560   39.9480 C   0  0  0  0  0  0  0  0  0  0  0  0
   37.3780   33.0750   39.8760 C   0  0  0  0  0  0  0  0  0  0  0  0
   38.0880   34.1550   40.3090 N   0  0  0  0  0  0  0  0  0  0  0  0
   39.3240   33.6880   40.6490 C   0  0  0  0  0  0  0  0  0  0  0  0
   39.3670   32.3600   40.4300 N   0  0  0  0  0  0  0  0  0  0  0  0
   36.3450   33.1020   39.5290 H   0  0  0  0  0  0  0  0  0  0  0  0
   37.7900   35.1570   40.3830 H   0  0  0  0  0  0  0  0  0  0  0  0
   40.1830   34.2230   41.0360 H   0  0  0  0  0  0  0  0  0  0  0  0
   36.3720   30.4160   39.3360 C   0  0  0  0  0  0  0  0  0  0  0  0
   35.7650   30.4410   40.2640 H   0  0  0  0  0  0  0  0  0  0  0  0
   36.0300   31.3390   38.7760 H   0  0  0  0  0  0  0  0  0  0  0  0
   35.9970   29.1800   38.5730 C   0  0  0  0  0  3  0  0  0  0  0  0
   34.4860   28.8850   38.6100 C   0  0  0  0  0  2  0  0  0  0  0  0
   35.1710   29.2290   37.3490 C   0  0  0  0  0  2  0  0  0  0  0  0
  1  2  1  6  0  0  0
  1 12  1  0  0  0  0
  1  4  1  0  0  0  0
  3  9  1  0  0  0  0
  3  8  1  0  0  0  0
  4  5  1  0  0  0  0
  4  3  2  0  0  0  0
  5  6  2  0  0  0  0
  6  7  1  0  0  0  0
  7  8  2  0  0  0  0
  7 11  1  0  0  0  0
 10  5  1  0  0  0  0
 12 16  1  0  0  0  0
 13 12  2  0  0  0  0
 13 14  1  0  0  0  0
 14 18  1  0  0  0  0
 14 15  1  0  0  0  0
 15 19  1  0  0  0  0
 16 15  2  0  0  0  0
 17 13  1  0  0  0  0
 20  1  1  0  0  0  0
 20 21  1  0  0  0  0
 22 20  1  0  0  0  0
 23 24  1  0  0  0  0
 23 20  1  0  0  0  0
 25 23  1  0  0  0  0
 25 24  1  0  0  0  0
M  END
>  <minimizedAffinity>
-4.07367182

$$$$

 OpenBabel03242523443D

 25 27  0  0  1  0  0  0  0  0999 V2000
   37.0040   30.7790   40.6180 C   0  0  2  0  0  0  0  0  0  0  0  0
   35.9620   30.8770   40.9360 H   0  0  0  0  0  0  0  0  0  0  0  0
   38.3030   29.6600   38.8690 C   0  0  0  0  0  0  0  0  0  0  0  0
   37.0250   30.0030   39.3650 C   0  0  0  0  0  0  0  0  0  0  0  0
   35.8740   29.6160   38.6580 C   0  0  0  0  0  0  0  0  0  0  0  0
   36.0970   28.9240   37.5250 N   0  0  0  0  0  0  0  0  0  0  0  0
   37.3020   28.6050   37.0650 C   0  0  0  0  0  0  0  0  0  0  0  0
   38.4040   28.9610   37.7180 N   0  0  0  0  0  0  0  0  0  0  0  0
   39.2080   29.9370   39.3800 H   0  0  0  0  0  0  0  0  0  0  0  0
   34.9140   29.8890   39.0580 H   0  0  0  0  0  0  0  0  0  0  0  0
   37.4230   28.0460   36.1470 H   0  0  0  0  0  0  0  0  0  0  0  0
   37.6240   32.1150   40.3520 C   0  0  0  0  0  0  0  0  0  0  0  0
   37.2260   33.1030   39.4910 C   0  0  0  0  0  0  0  0  0  0  0  0
   38.0850   34.1580   39.5850 N   0  0  0  0  0  0  0  0  0  0  0  0
   39.0190   33.8060   40.5160 C   0  0  0  0  0  0  0  0  0  0  0  0
   38.7370   32.5730   40.9760 N   0  0  0  0  0  0  0  0  0  0  0  0
   36.3590   33.0590   38.8320 H   0  0  0  0  0  0  0  0  0  0  0  0
   38.0730   35.0700   39.0700 H   0  0  0  0  0  0  0  0  0  0  0  0
   39.8740   34.3620   40.8820 H   0  0  0  0  0  0  0  0  0  0  0  0
   37.8130   30.0490   41.6390 C   0  0  0  0  0  0  0  0  0  0  0  0
   38.7650   29.6550   41.2310 H   0  0  0  0  0  0  0  0  0  0  0  0
   38.1520   30.7910   42.4240 H   0  0  0  0  0  0  0  0  0  0  0  0
   37.0820   28.9100   42.2860 C   0  0  0  0  0  3  0  0  0  0  0  0
   37.9470   27.6450   42.4330 C   0  0  0  0  0  2  0  0  0  0  0  0
   37.4590   28.3840   43.6140 C   0  0  0  0  0  2  0  0  0  0  0  0
  1  2  1  1  0  0  0
  1 20  1  0  0  0  0
  3  4  1  0  0  0  0
  3  9  1  0  0  0  0
  4  1  1  0  0  0  0
  5 10  1  0  0  0  0
  5  4  2  0  0  0  0
  6  5  1  0  0  0  0
  7  6  2  0  0  0  0
  7  8  1  0  0  0  0
  8  3  2  0  0  0  0
 11  7  1  0  0  0  0
 12  1  1  0  0  0  0
 12 16  1  0  0  0  0
 13 14  1  0  0  0  0
 13 12  2  0  0  0  0
 14 15  1  0  0  0  0
 15 19  1  0  0  0  0
 15 16  2  0  0  0  0
 17 13  1  0  0  0  0
 18 14  1  0  0  0  0
 20 23  1  0  0  0  0
 20 22  1  0  0  0  0
 21 20  1  0  0  0  0
 23 24  1  0  0  0  0
 23 25  1  0  0  0  0
 24 25  1  0  0  0  0
M  END
>  <minimizedAffinity>
-4.05460501

$$$$

 OpenBabel03242523443D

 25 27  0  0  1  0  0  0  0  0999 V2000
   38.9550   29.3700   40.6030 C   0  0  2  0  0  0  0  0  0  0  0  0
   39.1830   28.6090   39.8510 H   0  0  0  0  0  0  0  0  0  0  0  0
   40.4820   31.1680   41.2630 C   0  0  0  0  0  0  0  0  0  0  0  0
   39.6850   30.5980   40.2440 C   0  0  0  0  0  0  0  0  0  0  0  0
   39.6160   31.2160   38.9830 C   0  0  0  0  0  0  0  0  0  0  0  0
   40.3430   32.3410   38.8500 N   0  0  0  0  0  0  0  0  0  0  0  0
   41.0910   32.8700   39.8130 C   0  0  0  0  0  0  0  0  0  0  0  0
   41.1700   32.3020   41.0120 N   0  0  0  0  0  0  0  0  0  0  0  0
   40.5620   30.7260   42.2390 H   0  0  0  0  0  0  0  0  0  0  0  0
   39.0020   30.7630   38.2250 H   0  0  0  0  0  0  0  0  0  0  0  0
   41.6560   33.7780   39.6510 H   0  0  0  0  0  0  0  0  0  0  0  0
   37.4920   29.6870   40.6340 C   0  0  0  0  0  0  0  0  0  0  0  0
   36.8290   30.6680   41.3220 C   0  0  0  0  0  0  0  0  0  0  0  0
   35.4970   30.5940   41.0420 N   0  0  0  0  0  0  0  0  0  0  0  0
   35.3470   29.5530   40.1720 C   0  0  0  0  0  0  0  0  0  0  0  0
   36.5540   29.0090   39.9280 N   0  0  0  0  0  0  0  0  0  0  0  0
   37.2900   31.3960   41.9890 H   0  0  0  0  0  0  0  0  0  0  0  0
   34.7110   31.1900   41.3970 H   0  0  0  0  0  0  0  0  0  0  0  0
   34.4490   29.1640   39.7080 H   0  0  0  0  0  0  0  0  0  0  0  0
   39.4000   28.9360   41.9610 C   0  0  0  0  0  0  0  0  0  0  0  0
   40.5030   28.8560   42.0460 H   0  0  0  0  0  0  0  0  0  0  0  0
   39.1400   29.7530   42.7000 H   0  0  0  0  0  0  0  0  0  0  0  0
   38.8070   27.6300   42.4020 C   0  0  0  0  0  3  0  0  0  0  0  0
   39.4710   27.0670   43.6720 C   0  0  0  0  0  2  0  0  0  0  0  0
   38.0570   27.4920   43.6670 C   0  0  0  0  0  2  0  0  0  0  0  0
  1  2  1  6  0  0  0
  1 12  1  0  0  0  0
  1 20  1  0  0  0  0
  3  9  1  0  0  0  0
  4  1  1  0  0  0  0
  4  3  2  0  0  0  0
  5  4  1  0  0  0  0
  6  5  2  0  0  0  0
  6  7  1  0  0  0  0
  7  8  2  0  0  0  0
  8  3  1  0  0  0  0
 10  5  1  0  0  0  0
 11  7  1  0  0  0  0
 12 13  2  0  0  0  0
 13 17  1  0  0  0  0
 14 13  1  0  0  0  0
 14 18  1  0  0  0  0
 15 14  1  0  0  0  0
 16 15  2  0  0  0  0
 16 12  1  0  0  0  0
 19 15  1  0  0  0  0
 20 21  1  0  0  0  0
 20 23  1  0  0  0  0
 20 22  1  0  0  0  0
 23 25  1  0  0  0  0
 23 24  1  0  0  0  0
 25 24  1  0  0  0  0
M  END
>  <minimizedAffinity>
-4.04675627

$$$$

 OpenBabel03242523443D

 25 27  0  0  1  0  0  0  0  0999 V2000
   36.3420   30.2670   39.6050 C   0  0  2  0  0  0  0  0  0  0  0  0
   35.4020   30.8240   39.6370 H   0  0  0  0  0  0  0  0  0  0  0  0
   38.6760   30.7330   39.0230 C   0  0  0  0  0  0  0  0  0  0  0  0
   37.4430   31.2400   39.4920 C   0  0  0  0  0  0  0  0  0  0  0  0
   37.3320   32.5990   39.8330 C   0  0  0  0  0  0  0  0  0  0  0  0
   38.4530   33.3280   39.6770 N   0  0  0  0  0  0  0  0  0  0  0  0
   39.6080   32.8440   39.2340 C   0  0  0  0  0  0  0  0  0  0  0  0
   39.7350   31.5620   38.9060 N   0  0  0  0  0  0  0  0  0  0  0  0
   38.8020   29.7000   38.7510 H   0  0  0  0  0  0  0  0  0  0  0  0
   36.3830   32.9600   40.1880 H   0  0  0  0  0  0  0  0  0  0  0  0
   40.4790   33.4760   39.1280 H   0  0  0  0  0  0  0  0  0  0  0  0
   36.5500   29.4680   40.8530 C   0  0  0  0  0  0  0  0  0  0  0  0
   37.0350   29.8650   42.0700 C   0  0  0  0  0  0  0  0  0  0  0  0
   37.0390   28.8020   42.9240 N   0  0  0  0  0  0  0  0  0  0  0  0
   36.5490   27.7430   42.2150 C   0  0  0  0  0  0  0  0  0  0  0  0
   36.2550   28.1490   40.9660 N   0  0  0  0  0  0  0  0  0  0  0  0
   37.3660   30.8720   42.3220 H   0  0  0  0  0  0  0  0  0  0  0  0
   37.3450   28.7570   43.9250 H   0  0  0  0  0  0  0  0  0  0  0  0
   36.3920   26.7170   42.5260 H   0  0  0  0  0  0  0  0  0  0  0  0
   36.3910   29.3610   38.4180 C   0  0  0  0  0  0  0  0  0  0  0  0
   37.1780   29.6470   37.6910 H   0  0  0  0  0  0  0  0  0  0  0  0
   36.7170   28.3340   38.7660 H   0  0  0  0  0  0  0  0  0  0  0  0
   35.0900   29.2670   37.6770 C   0  0  0  0  0  3  0  0  0  0  0  0
   34.5470   27.8290   37.5930 C   0  0  0  0  0  2  0  0  0  0  0  0
   33.8300   28.8800   38.3420 C   0  0  0  0  0  2  0  0  0  0  0  0
  1  2  1  1  0  0  0
  1 12  1  0  0  0  0
  3  4  1  0  0  0  0
  4  1  1  0  0  0  0
  4  5  2  0  0  0  0
  5 10  1  0  0  0  0
  6  5  1  0  0  0  0
  7  6  2  0  0  0  0
  8  3  2  0  0  0  0
  8  7  1  0  0  0  0
  9  3  1  0  0  0  0
 11  7  1  0  0  0  0
 12 16  1  0  0  0  0
 12 13  2  0  0  0  0
 13 17  1  0  0  0  0
 13 14  1  0  0  0  0
 14 18  1  0  0  0  0
 15 19  1  0  0  0  0
 15 14  1  0  0  0  0
 16 15  2  0  0  0  0
 20 22  1  0  0  0  0
 20  1  1  0  0  0  0
 21 20  1  0  0  0  0
 23 25  1  0  0  0  0
 23 20  1  0  0  0  0
 24 23  1  0  0  0  0
 24 25  1  0  0  0  0
M  END
>  <minimizedAffinity>
-4.03164625

$$$$

 OpenBabel03242523443D

 25 27  0  0  1  0  0  0  0  0999 V2000
   36.0570   29.1690   40.7580 C   0  0  2  0  0  0  0  0  0  0  0  0
   35.1910   29.6640   41.2040 H   0  0  0  0  0  0  0  0  0  0  0  0
   36.6600   31.5400   40.6400 C   0  0  0  0  0  0  0  0  0  0  0  0
   36.9800   30.2120   40.2770 C   0  0  0  0  0  0  0  0  0  0  0  0
   38.1160   29.9580   39.4900 C   0  0  0  0  0  0  0  0  0  0  0  0
   38.8280   31.0440   39.1350 N   0  0  0  0  0  0  0  0  0  0  0  0
   38.5210   32.2890   39.4810 C   0  0  0  0  0  0  0  0  0  0  0  0
   37.4520   32.5520   40.2260 N   0  0  0  0  0  0  0  0  0  0  0  0
   35.8010   31.7760   41.2420 H   0  0  0  0  0  0  0  0  0  0  0  0
   38.3370   28.9390   39.2270 H   0  0  0  0  0  0  0  0  0  0  0  0
   39.1300   33.1270   39.1680 H   0  0  0  0  0  0  0  0  0  0  0  0
   36.7830   28.3270   41.7590 C   0  0  0  0  0  0  0  0  0  0  0  0
   37.0710   26.9890   41.7260 C   0  0  0  0  0  0  0  0  0  0  0  0
   37.7630   26.6470   42.8500 N   0  0  0  0  0  0  0  0  0  0  0  0
   37.8970   27.7940   43.5780 C   0  0  0  0  0  0  0  0  0  0  0  0
   37.3050   28.8050   42.9170 N   0  0  0  0  0  0  0  0  0  0  0  0
   36.7940   26.3010   40.9270 H   0  0  0  0  0  0  0  0  0  0  0  0
   38.1350   25.7110   43.1400 H   0  0  0  0  0  0  0  0  0  0  0  0
   38.3810   27.9530   44.5340 H   0  0  0  0  0  0  0  0  0  0  0  0
   35.6540   28.3240   39.5940 C   0  0  0  0  0  0  0  0  0  0  0  0
   36.5100   28.0530   38.9430 H   0  0  0  0  0  0  0  0  0  0  0  0
   35.2980   27.3230   39.9860 H   0  0  0  0  0  0  0  0  0  0  0  0
   34.5980   28.9480   38.7310 C   0  0  0  0  0  3  0  0  0  0  0  0
   35.0290   29.0910   37.2600 C   0  0  0  0  0  2  0  0  0  0  0  0
   33.9180   28.2020   37.6530 C   0  0  0  0  0  2  0  0  0  0  0  0
  1  2  1  1  0  0  0
  1 12  1  0  0  0  0
  3  9  1  0  0  0  0
  4  3  1  0  0  0  0
  4  1  1  0  0  0  0
  5  4  2  0  0  0  0
  6  7  2  0  0  0  0
  6  5  1  0  0  0  0
  7  8  1  0  0  0  0
  8  3  2  0  0  0  0
 10  5  1  0  0  0  0
 11  7  1  0  0  0  0
 12 16  1  0  0  0  0
 13 12  2  0  0  0  0
 13 14  1  0  0  0  0
 14 18  1  0  0  0  0
 14 15  1  0  0  0  0
 15 19  1  0  0  0  0
 16 15  2  0  0  0  0
 17 13  1  0  0  0  0
 20 22  1  0  0  0  0
 20  1  1  0  0  0  0
 21 20  1  0  0  0  0
 23 20  1  0  0  0  0
 24 25  1  0  0  0  0
 24 23  1  0  0  0  0
 25 23  1  0  0  0  0
M  END
>  <minimizedAffinity>
-4.02905512

$$$$
