
 OpenBabel03242510223D

 32 35  0  0  1  0  0  0  0  0999 V2000
   46.3110   32.1180   44.5210 C   0  0  1  0  0  0  0  0  0  0  0  0
   46.4490   31.3670   43.3450 C   0  0  0  0  0  0  0  0  0  0  0  0
   47.6770   32.1160   43.9540 C   0  0  1  0  0  0  0  0  0  0  0  0
   46.1370   31.6600   45.5180 H   0  0  0  0  0  0  0  0  0  0  0  0
   46.1900   31.6240   42.3000 H   0  0  0  0  0  0  0  0  0  0  0  0
   46.5240   30.2400   43.4400 H   0  0  0  0  0  0  0  0  0  0  0  0
   48.4330   31.4140   44.3340 H   0  0  0  0  0  0  0  0  0  0  0  0
   45.0630   33.9790   43.1850 C   0  0  0  0  0  0  0  0  0  0  0  0
   45.5500   33.4540   44.4260 C   0  0  0  0  0  0  0  0  0  0  0  0
   45.3390   34.2060   45.5630 C   0  0  0  0  0  0  0  0  0  0  0  0
   44.6940   35.3860   45.4590 N   0  0  0  0  0  0  0  0  0  0  0  0
   44.2370   35.8730   44.2730 C   0  0  0  0  0  0  0  0  0  0  0  0
   44.4340   35.1360   43.1030 N   0  0  0  0  0  0  0  0  0  0  0  0
   45.2160   33.3720   42.3140 H   0  0  0  0  0  0  0  0  0  0  0  0
   45.6800   33.8700   46.5340 H   0  0  0  0  0  0  0  0  0  0  0  0
   43.7210   36.8190   44.1970 H   0  0  0  0  0  0  0  0  0  0  0  0
   48.0530   33.2500   43.1900 N   0  0  0  0  0  0  0  0  0  0  0  0
   49.2240   33.3090   42.4420 C   0  0  0  0  0  0  0  0  0  0  0  0
   50.3890   32.9190   42.7040 O   0  0  0  0  0  0  0  0  0  0  0  0
   47.5040   34.1360   43.1160 H   0  0  0  0  0  0  0  0  0  0  0  0
   49.1800   33.9330   41.0550 C   0  0  2  0  0  0  0  0  0  0  0  0
   48.6890   35.4250   40.9800 C   0  0  0  0  0  0  0  0  0  0  0  0
   47.9130   34.2710   40.4100 C   0  0  1  0  0  0  0  0  0  0  0  0
   50.0870   33.8260   40.4270 H   0  0  0  0  0  0  0  0  0  0  0  0
   48.3380   35.8250   41.9560 H   0  0  0  0  0  0  0  0  0  0  0  0
   49.1520   36.0830   40.2530 H   0  0  0  0  0  0  0  0  0  0  0  0
   47.0350   33.8100   40.9220 H   0  0  0  0  0  0  0  0  0  0  0  0
   47.8410   34.1750   38.9070 C   0  0  0  0  0  0  0  0  0  0  0  0
   48.5860   34.8410   38.2000 O   0  0  0  0  0  0  0  0  0  0  0  0
   46.8510   33.2590   38.2550 C   0  0  0  0  0  3  0  0  0  0  0  0
   46.9140   32.9790   36.8070 C   0  0  0  0  0  2  0  0  0  0  0  0
   47.4490   31.9520   37.7760 C   0  0  0  0  0  2  0  0  0  0  0  0
  1  4  1  1  0  0  0
  2  6  1  0  0  0  0
  2  3  1  0  0  0  0
  2  1  1  0  0  0  0
  3  7  1  1  0  0  0
  3  1  1  0  0  0  0
  5  2  1  0  0  0  0
  8  9  1  0  0  0  0
  9  1  1  0  0  0  0
  9 10  2  0  0  0  0
 10 15  1  0  0  0  0
 11 10  1  0  0  0  0
 12 11  2  0  0  0  0
 13  8  2  0  0  0  0
 13 12  1  0  0  0  0
 14  8  1  0  0  0  0
 16 12  1  0  0  0  0
 17  3  1  0  0  0  0
 18 19  2  0  0  0  0
 18 17  1  0  0  0  0
 20 17  1  0  0  0  0
 21 24  1  6  0  0  0
 21 18  1  0  0  0  0
 22 21  1  0  0  0  0
 22 25  1  0  0  0  0
 23 27  1  1  0  0  0
 23 22  1  0  0  0  0
 23 21  1  0  0  0  0
 26 22  1  0  0  0  0
 28 23  1  0  0  0  0
 29 28  2  0  0  0  0
 30 28  1  0  0  0  0
 31 32  1  0  0  0  0
 31 30  1  0  0  0  0
 32 30  1  0  0  0  0
M  END
>  <minimizedAffinity>
-4.51980877

>  <minimizedRMSD>
0.609061658

$$$$
