
 OpenBabel03252508433D

 25 27  0  0  0  0  0  0  0  0999 V2000
   46.9270   33.7280   40.9300 C   0  0  0  0  0  0  0  0  0  0  0  0
   47.2530   32.5020   41.4680 C   0  0  0  0  0  0  0  0  0  0  0  0
   48.2540   31.7460   40.9100 C   0  0  0  0  0  0  0  0  0  0  0  0
   48.9190   32.2430   39.8030 C   0  0  0  0  0  0  0  0  0  0  0  0
   48.6270   33.4490   39.2410 C   0  0  0  0  0  0  0  0  0  0  0  0
   47.5980   34.1870   39.8440 C   0  0  0  0  0  0  0  0  0  0  0  0
   48.5270   30.7720   41.3220 H   0  0  0  0  0  0  0  0  0  0  0  0
   49.7020   31.6140   39.3970 H   0  0  0  0  0  0  0  0  0  0  0  0
   49.1590   33.8110   38.3670 H   0  0  0  0  0  0  0  0  0  0  0  0
   47.3620   35.1450   39.4050 H   0  0  0  0  0  0  0  0  0  0  0  0
   44.9000   35.9870   43.1850 C   0  0  0  0  0  0  0  0  0  0  0  0
   46.0220   35.3320   42.6420 C   0  0  0  0  0  0  0  0  0  0  0  0
   45.8510   34.4660   41.5780 C   0  0  0  0  0  0  0  0  0  0  0  0
   44.5920   34.3210   41.1430 N   0  0  0  0  0  0  0  0  0  0  0  0
   43.5100   34.9370   41.6470 C   0  0  0  0  0  0  0  0  0  0  0  0
   43.6720   35.7780   42.6810 N   0  0  0  0  0  0  0  0  0  0  0  0
   45.0310   36.6710   44.0290 H   0  0  0  0  0  0  0  0  0  0  0  0
   47.0060   35.4840   43.0210 H   0  0  0  0  0  0  0  0  0  0  0  0
   42.5860   34.6790   41.1440 H   0  0  0  0  0  0  0  0  0  0  0  0
   46.5090   31.9860   42.6660 C   0  0  0  0  0  0  0  0  0  0  0  0
   46.1180   30.9700   42.5080 H   0  0  0  0  0  0  0  0  0  0  0  0
   45.6480   32.6520   42.8250 H   0  0  0  0  0  0  0  0  0  0  0  0
   47.4190   32.1180   43.8600 C   0  0  0  0  0  3  0  0  0  0  0  0
   46.9630   32.7970   45.0840 C   0  0  0  0  0  2  0  0  0  0  0  0
   47.1460   31.2970   45.0600 C   0  0  0  0  0  2  0  0  0  0  0  0
  1  2  1  0  0  0  0
  1 13  1  0  0  0  0
  2 20  1  0  0  0  0
  3  7  1  0  0  0  0
  3  2  2  0  0  0  0
  4  3  1  0  0  0  0
  5  4  2  0  0  0  0
  5  6  1  0  0  0  0
  6  1  2  0  0  0  0
  8  4  1  0  0  0  0
  9  5  1  0  0  0  0
 10  6  1  0  0  0  0
 11 17  1  0  0  0  0
 12 18  1  0  0  0  0
 12 11  2  0  0  0  0
 13 12  1  0  0  0  0
 14 13  2  0  0  0  0
 14 15  1  0  0  0  0
 15 16  2  0  0  0  0
 16 11  1  0  0  0  0
 19 15  1  0  0  0  0
 20 22  1  0  0  0  0
 20 23  1  0  0  0  0
 21 20  1  0  0  0  0
 23 25  1  0  0  0  0
 23 24  1  0  0  0  0
 25 24  1  0  0  0  0
M  END
>  <minimizedAffinity>
-3.50276637

>  <minimizedRMSD>
3.71706891

$$$$
