
 OpenBabel03252504513D

 28 30  0  0  0  0  0  0  0  0999 V2000
   46.5170   33.1750   45.4060 C   0  0  0  0  0  0  0  0  0  0  0  0
   45.4630   33.9740   45.8610 C   0  0  0  0  0  0  0  0  0  0  0  0
   44.9630   34.9060   44.9620 C   0  0  0  0  0  0  0  0  0  0  0  0
   45.5280   34.9680   43.7250 N   0  0  0  0  0  0  0  0  0  0  0  0
   46.5300   34.1940   43.3200 C   0  0  0  0  0  0  0  0  0  0  0  0
   47.0440   33.2730   44.1690 N   0  0  0  0  0  0  0  0  0  0  0  0
   46.9720   32.4200   46.0340 H   0  0  0  0  0  0  0  0  0  0  0  0
   44.1560   35.5290   45.2880 H   0  0  0  0  0  0  0  0  0  0  0  0
   45.1800   32.4760   41.1810 Cl  0  0  0  0  0  0  0  0  0  0  0  0
   46.5160   33.5890   40.9410 C   0  0  0  0  0  0  0  0  0  0  0  0
   47.0690   34.3340   41.9800 C   0  0  0  0  0  0  0  0  0  0  0  0
   48.1260   35.2070   41.7560 C   0  0  0  0  0  0  0  0  0  0  0  0
   48.6370   35.3360   40.4720 C   0  0  0  0  0  0  0  0  0  0  0  0
   48.0660   34.5830   39.4620 C   0  0  0  0  0  0  0  0  0  0  0  0
   48.7240   34.7610   37.8570 Cl  0  0  0  0  0  0  0  0  0  0  0  0
   47.0170   33.7090   39.6560 C   0  0  0  0  0  0  0  0  0  0  0  0
   48.5330   35.7680   42.5680 H   0  0  0  0  0  0  0  0  0  0  0  0
   49.4550   36.0070   40.2800 H   0  0  0  0  0  0  0  0  0  0  0  0
   46.6180   33.1480   38.8060 H   0  0  0  0  0  0  0  0  0  0  0  0
   44.9940   33.7610   47.2110 C   0  0  0  0  0  0  0  0  0  0  0  0
   44.9860   34.6610   47.8240 H   0  0  0  0  0  0  0  0  0  0  0  0
   43.9210   33.4290   47.1450 H   0  0  0  0  0  0  0  0  0  0  0  0
   45.7440   32.5890   47.8020 C   0  0  0  0  0  0  0  0  0  0  0  0
   46.3530   32.1660   46.9670 H   0  0  0  0  0  0  0  0  0  0  0  0
   46.4080   32.9310   48.6110 H   0  0  0  0  0  0  0  0  0  0  0  0
   44.8240   31.5250   48.3470 C   0  0  0  0  0  0  0  0  0  0  0  0
   45.1830   30.6970   49.5180 C   0  0  0  0  0  0  0  0  0  0  0  0
   45.0760   30.1010   48.1050 C   0  0  0  0  0  0  0  0  0  0  0  0
  1  2  1  0  0  0  0
  1  7  1  0  0  0  0
  2 20  1  0  0  0  0
  3  8  1  0  0  0  0
  3  2  2  0  0  0  0
  4  3  1  0  0  0  0
  5  4  2  0  0  0  0
  5  6  1  0  0  0  0
  6  1  2  0  0  0  0
 10  9  1  0  0  0  0
 10 11  1  0  0  0  0
 11  5  1  0  0  0  0
 12 11  2  0  0  0  0
 12 17  1  0  0  0  0
 13 12  1  0  0  0  0
 14 16  1  0  0  0  0
 14 13  2  0  0  0  0
 15 14  1  0  0  0  0
 16 10  2  0  0  0  0
 18 13  1  0  0  0  0
 19 16  1  0  0  0  0
 20 23  1  0  0  0  0
 20 21  1  0  0  0  0
 22 20  1  0  0  0  0
 23 26  1  0  0  0  0
 23 25  1  0  0  0  0
 24 23  1  0  0  0  0
 26 27  1  0  0  0  0
 28 26  1  0  0  0  0
 28 27  1  0  0  0  0
M  END
>  <minimizedAffinity>
-5.43608952

>  <minimizedRMSD>
7.60905075

$$$$
