
 OpenBabel03252509003D

 39 41  0  0  1  0  0  0  0  0999 V2000
   46.5820   34.5570   43.5920 N   0  0  0  0  0  0  0  0  0  0  0  0
   46.0740   35.4990   42.6570 C   0  0  0  0  0  0  0  0  0  0  0  0
   44.5690   35.6340   42.6370 C   0  0  0  0  0  0  0  0  0  0  0  0
   43.9100   35.4390   43.9760 C   0  0  0  0  0  0  0  0  0  0  0  0
   44.9230   35.2320   45.0740 C   0  0  0  0  0  0  0  0  0  0  0  0
   45.7610   34.0060   44.5630 C   0  0  2  0  0  0  0  0  0  0  0  0
   46.4540   36.5040   42.9620 H   0  0  0  0  0  0  0  0  0  0  0  0
   46.3990   35.3700   41.6230 H   0  0  0  0  0  0  0  0  0  0  0  0
   44.1880   34.9250   41.8700 H   0  0  0  0  0  0  0  0  0  0  0  0
   44.3200   36.6440   42.2420 H   0  0  0  0  0  0  0  0  0  0  0  0
   43.2600   34.5520   43.9010 H   0  0  0  0  0  0  0  0  0  0  0  0
   43.3110   36.3440   44.2480 H   0  0  0  0  0  0  0  0  0  0  0  0
   45.6120   36.0720   45.1650 H   0  0  0  0  0  0  0  0  0  0  0  0
   44.3840   34.9540   45.9810 H   0  0  0  0  0  0  0  0  0  0  0  0
   45.0200   33.2420   44.2690 H   0  0  0  0  0  0  0  0  0  0  0  0
   47.6870   33.7860   43.1040 C   0  0  0  0  0  0  0  0  0  0  0  0
   48.3810   34.4620   42.5770 H   0  0  0  0  0  0  0  0  0  0  0  0
   48.1990   33.3400   43.9910 H   0  0  0  0  0  0  0  0  0  0  0  0
   47.1710   32.6710   42.2580 C   0  0  0  0  0  0  0  0  0  0  0  0
   47.3510   31.6610   42.6460 H   0  0  0  0  0  0  0  0  0  0  0  0
   46.0640   32.7550   42.1370 H   0  0  0  0  0  0  0  0  0  0  0  0
   49.3150   32.1080   39.2210 C   0  0  0  0  0  0  0  0  0  0  0  0
   48.7790   31.9930   40.5170 C   0  0  0  0  0  0  0  0  0  0  0  0
   47.7280   32.8040   40.8850 C   0  0  0  0  0  0  0  0  0  0  0  0
   47.2640   33.6710   39.9790 N   0  0  0  0  0  0  0  0  0  0  0  0
   47.7850   33.7730   38.7400 C   0  0  0  0  0  0  0  0  0  0  0  0
   48.8110   32.9970   38.3510 N   0  0  0  0  0  0  0  0  0  0  0  0
   50.1400   31.4720   38.9300 H   0  0  0  0  0  0  0  0  0  0  0  0
   49.2100   31.2640   41.1960 H   0  0  0  0  0  0  0  0  0  0  0  0
   47.3980   34.4790   38.0210 H   0  0  0  0  0  0  0  0  0  0  0  0
   46.4840   33.6690   45.7070 O   0  0  0  0  0  0  0  0  0  0  0  0
   45.6470   31.2300   45.0660 O   0  0  0  0  0  0  0  0  0  0  0  0
   46.2150   32.0860   46.2030 P   0  0  2  0  0  0  0  0  0  0  0  0
   44.9600   32.1590   47.3620 O   0  0  0  0  0  0  0  0  0  0  0  0
   45.1560   32.8550   48.0310 H   0  0  0  0  0  0  0  0  0  0  0  0
   47.5510   31.4040   46.9150 O   0  0  0  0  0  0  0  0  0  0  0  0
   47.3110   30.3730   47.7850 C   0  0  0  0  0  3  0  0  0  0  0  0
   47.2820   28.9580   47.3530 C   0  0  0  0  0  2  0  0  0  0  0  0
   48.5210   29.4610   48.0150 C   0  0  0  0  0  2  0  0  0  0  0  0
  1  6  1  0  0  0  0
  2  7  1  0  0  0  0
  2  1  1  0  0  0  0
  3  2  1  0  0  0  0
  3  4  1  0  0  0  0
  4 12  1  0  0  0  0
  4  5  1  0  0  0  0
  5 13  1  0  0  0  0
  5 14  1  0  0  0  0
  6 15  1  6  0  0  0
  6  5  1  0  0  0  0
  6 31  1  0  0  0  0
  8  2  1  0  0  0  0
  9  3  1  0  0  0  0
 10  3  1  0  0  0  0
 11  4  1  0  0  0  0
 16  1  1  0  0  0  0
 16 18  1  0  0  0  0
 17 16  1  0  0  0  0
 19 20  1  0  0  0  0
 19 16  1  0  0  0  0
 21 19  1  0  0  0  0
 22 23  1  0  0  0  0
 23 24  2  0  0  0  0
 23 29  1  0  0  0  0
 24 19  1  0  0  0  0
 25 24  1  0  0  0  0
 26 25  2  0  0  0  0
 27 26  1  0  0  0  0
 27 22  2  0  0  0  0
 28 22  1  0  0  0  0
 30 26  1  0  0  0  0
 31 33  1  0  0  0  0
 33 32  2  6  0  0  0
 33 36  1  0  0  0  0
 33 34  1  0  0  0  0
 34 35  1  0  0  0  0
 36 37  1  0  0  0  0
 37 39  1  0  0  0  0
 38 37  1  0  0  0  0
 38 39  1  0  0  0  0
M  END
>  <minimizedAffinity>
-4.1537528

>  <minimizedRMSD>
1.24055398

$$$$
