
 OpenBabel03252503013D

 24 25  0  0  0  0  0  0  0  0999 V2000
   43.3540   35.4810   41.6280 C   0  0  0  0  0  0  0  0  0  0  0  0
   44.4570   35.5270   41.4050 H   0  0  0  0  0  0  0  0  0  0  0  0
   42.8410   36.2960   41.0790 H   0  0  0  0  0  0  0  0  0  0  0  0
   43.2410   35.6820   43.0830 N   0  0  0  0  0  0  0  0  0  0  0  0
   42.6500   36.5030   43.3210 H   0  0  0  0  0  0  0  0  0  0  0  0
   44.7930   35.7770   43.8240 S   0  0  0  0  0  0  0  0  0  0  0  0
   45.8900   35.7290   42.8190 O   0  0  0  0  0  0  0  0  0  0  0  0
   46.4050   36.5480   42.5860 H   0  0  0  0  0  0  0  0  0  0  0  0
   44.8170   37.0960   44.5650 O   0  0  0  0  0  0  0  0  0  0  0  0
   44.4270   37.9030   44.1070 H   0  0  0  0  0  0  0  0  0  0  0  0
   44.9300   34.5890   44.9900 O   0  0  0  0  0  0  0  0  0  0  0  0
   46.1100   33.8810   44.9140 C   0  0  0  0  0  3  0  0  0  0  0  0
   45.9310   32.3770   44.9350 C   0  0  0  0  0  2  0  0  0  0  0  0
   46.5430   33.0710   46.1040 C   0  0  0  0  0  2  0  0  0  0  0  0
   42.7890   33.8310   41.2530 S   0  0  0  0  0  0  0  0  0  0  0  0
   40.1090   33.1020   41.3120 C   0  0  0  0  0  0  0  0  0  0  0  0
   41.0680   33.8910   40.6900 C   0  0  0  0  0  0  0  0  0  0  0  0
   40.7330   34.7330   39.6360 C   0  0  0  0  0  0  0  0  0  0  0  0
   39.4160   34.7410   39.2480 N   0  0  0  0  0  0  0  0  0  0  0  0
   38.5370   33.9630   39.8800 C   0  0  0  0  0  0  0  0  0  0  0  0
   38.8250   33.1560   40.8810 N   0  0  0  0  0  0  0  0  0  0  0  0
   40.3810   32.4500   42.1320 H   0  0  0  0  0  0  0  0  0  0  0  0
   41.4820   35.3600   39.1380 H   0  0  0  0  0  0  0  0  0  0  0  0
   37.5370   34.0830   39.4550 H   0  0  0  0  0  0  0  0  0  0  0  0
  1  4  1  0  0  0  0
  2  1  1  0  0  0  0
  3  1  1  0  0  0  0
  4  5  1  0  0  0  0
  4  6  1  0  0  0  0
  6  9  1  0  0  0  0
  6 11  1  0  0  0  0
  7  6  1  0  0  0  0
  8  7  1  0  0  0  0
 10  9  1  0  0  0  0
 12 13  1  0  0  0  0
 12 11  1  0  0  0  0
 12 14  1  0  0  0  0
 13 14  1  0  0  0  0
 15  1  1  0  0  0  0
 16 22  1  0  0  0  0
 17 15  1  0  0  0  0
 17 16  2  0  0  0  0
 18 17  1  0  0  0  0
 19 18  2  0  0  0  0
 19 20  1  0  0  0  0
 20 21  2  0  0  0  0
 21 16  1  0  0  0  0
 23 18  1  0  0  0  0
 24 20  1  0  0  0  0
M  END
>  <minimizedAffinity>
-4.62966156

>  <minimizedRMSD>
1.78201699

$$$$
