
 OpenBabel03252503013D

 24 25  0  0  0  0  0  0  0  0999 V2000
   43.3850   35.4660   41.6210 C   0  0  0  0  0  0  0  0  0  0  0  0
   44.4790   35.4980   41.3530 H   0  0  0  0  0  0  0  0  0  0  0  0
   42.8690   36.3190   41.1370 H   0  0  0  0  0  0  0  0  0  0  0  0
   43.3400   35.5920   43.0880 N   0  0  0  0  0  0  0  0  0  0  0  0
   42.6320   36.2860   43.4000 H   0  0  0  0  0  0  0  0  0  0  0  0
   44.8980   35.9340   43.7360 S   0  0  0  0  0  0  0  0  0  0  0  0
   45.9770   35.6930   42.7390 O   0  0  0  0  0  0  0  0  0  0  0  0
   46.4450   36.4530   42.3000 H   0  0  0  0  0  0  0  0  0  0  0  0
   44.8690   37.3930   44.1350 O   0  0  0  0  0  0  0  0  0  0  0  0
   44.4300   38.0460   43.5090 H   0  0  0  0  0  0  0  0  0  0  0  0
   45.1180   35.0710   45.1490 O   0  0  0  0  0  0  0  0  0  0  0  0
   45.3880   33.7360   44.9400 C   0  0  0  0  0  3  0  0  0  0  0  0
   45.9690   33.0270   46.1450 C   0  0  0  0  0  2  0  0  0  0  0  0
   46.8190   33.2800   44.9470 C   0  0  0  0  0  2  0  0  0  0  0  0
   42.7650   33.8500   41.1860 S   0  0  0  0  0  0  0  0  0  0  0  0
   39.9970   33.7480   40.9830 C   0  0  0  0  0  0  0  0  0  0  0  0
   41.1840   34.0210   40.3160 C   0  0  0  0  0  0  0  0  0  0  0  0
   41.1870   34.4240   38.9870 C   0  0  0  0  0  0  0  0  0  0  0  0
   39.9630   34.5380   38.3750 N   0  0  0  0  0  0  0  0  0  0  0  0
   38.8540   34.2630   39.0610 C   0  0  0  0  0  0  0  0  0  0  0  0
   38.8200   33.8790   40.3210 N   0  0  0  0  0  0  0  0  0  0  0  0
   40.0060   33.4340   42.0180 H   0  0  0  0  0  0  0  0  0  0  0  0
   42.1190   34.6420   38.4520 H   0  0  0  0  0  0  0  0  0  0  0  0
   37.9670   34.4000   38.4350 H   0  0  0  0  0  0  0  0  0  0  0  0
  1  4  1  0  0  0  0
  2  1  1  0  0  0  0
  3  1  1  0  0  0  0
  4  5  1  0  0  0  0
  4  6  1  0  0  0  0
  6  9  1  0  0  0  0
  6 11  1  0  0  0  0
  7  6  1  0  0  0  0
  8  7  1  0  0  0  0
 10  9  1  0  0  0  0
 12 14  1  0  0  0  0
 12 11  1  0  0  0  0
 12 13  1  0  0  0  0
 14 13  1  0  0  0  0
 15  1  1  0  0  0  0
 16 22  1  0  0  0  0
 17 16  2  0  0  0  0
 17 15  1  0  0  0  0
 18 17  1  0  0  0  0
 19 18  2  0  0  0  0
 19 20  1  0  0  0  0
 20 21  2  0  0  0  0
 21 16  1  0  0  0  0
 23 18  1  0  0  0  0
 24 20  1  0  0  0  0
M  END
>  <minimizedAffinity>
-4.58479929

>  <minimizedRMSD>
1.26054275

$$$$
