
 OpenBabel03252500053D

 39 42  0  0  0  0  0  0  0  0999 V2000
   44.6340   35.0650   45.2890 C   0  0  0  0  0  0  0  0  0  0  0  0
   45.1600   35.1270   44.0050 C   0  0  0  0  0  0  0  0  0  0  0  0
   46.2150   34.2970   43.6440 C   0  0  0  0  0  0  0  0  0  0  0  0
   46.6330   33.4760   44.6450 N   0  0  0  0  0  0  0  0  0  0  0  0
   46.1360   33.4150   45.8610 C   0  0  0  0  0  0  0  0  0  0  0  0
   45.1350   34.2180   46.1660 N   0  0  0  0  0  0  0  0  0  0  0  0
   43.8090   35.7270   45.5400 H   0  0  0  0  0  0  0  0  0  0  0  0
   46.8490   34.2420   42.3790 C   0  0  0  0  0  0  0  0  0  0  0  0
   47.8150   35.2010   42.1230 C   0  0  0  0  0  0  0  0  0  0  0  0
   48.5350   35.2970   40.9450 C   0  0  0  0  0  0  0  0  0  0  0  0
   48.3150   34.4130   39.9420 C   0  0  0  0  0  0  0  0  0  0  0  0
   47.3710   33.4360   40.1270 C   0  0  0  0  0  0  0  0  0  0  0  0
   47.0980   32.5150   39.1600 C   0  0  0  0  0  0  0  0  0  0  0  0
   46.1640   31.5230   39.3060 C   0  0  0  0  0  0  0  0  0  0  0  0
   45.4640   31.4740   40.5220 C   0  0  0  0  0  0  0  0  0  0  0  0
   45.7690   32.4270   41.4800 C   0  0  0  0  0  0  0  0  0  0  0  0
   46.6840   33.3900   41.3260 C   0  0  0  0  0  0  0  0  0  0  0  0
   48.0770   35.9670   42.8630 H   0  0  0  0  0  0  0  0  0  0  0  0
   49.2810   36.0640   40.7880 H   0  0  0  0  0  0  0  0  0  0  0  0
   48.8530   34.4500   39.0050 H   0  0  0  0  0  0  0  0  0  0  0  0
   47.6520   32.5730   38.2290 H   0  0  0  0  0  0  0  0  0  0  0  0
   45.9660   30.8020   38.5190 H   0  0  0  0  0  0  0  0  0  0  0  0
   44.7490   30.6900   40.5930 H   0  0  0  0  0  0  0  0  0  0  0  0
   44.9610   32.2370   42.6430 N   0  0  0  0  0  0  0  0  0  0  0  0
   45.4870   31.4850   43.1860 H   0  0  0  0  0  0  0  0  0  0  0  0
   44.0700   32.6450   42.9940 H   0  0  0  0  0  0  0  0  0  0  0  0
   46.7980   32.4100   46.7580 C   0  0  0  0  0  0  0  0  0  0  0  0
   45.8760   31.6420   47.4100 F   0  0  0  0  0  0  0  0  0  0  0  0
   47.6420   33.0560   47.6500 F   0  0  0  0  0  0  0  0  0  0  0  0
   47.6790   31.6240   45.9810 F   0  0  0  0  0  0  0  0  0  0  0  0
   44.6680   36.0370   42.9540 C   0  0  0  0  0  0  0  0  0  0  0  0
   44.4600   37.0170   43.4600 H   0  0  0  0  0  0  0  0  0  0  0  0
   45.4940   36.2560   42.2340 H   0  0  0  0  0  0  0  0  0  0  0  0
   43.3980   35.6070   42.2930 C   0  0  0  0  0  0  0  0  0  0  0  0
   43.0470   34.6580   42.7160 H   0  0  0  0  0  0  0  0  0  0  0  0
   42.6710   36.4120   42.3800 H   0  0  0  0  0  0  0  0  0  0  0  0
   43.6150   35.3190   40.8080 C   0  0  0  0  0  0  0  0  0  0  0  0
   42.8680   34.0980   40.3310 C   0  0  0  0  0  0  0  0  0  0  0  0
   42.3760   35.4370   39.9090 C   0  0  0  0  0  0  0  0  0  0  0  0
  1  7  1  0  0  0  0
  1  6  1  0  0  0  0
  2  1  2  0  0  0  0
  3  2  1  0  0  0  0
  3  4  2  0  0  0  0
  4  5  1  0  0  0  0
  5  6  2  0  0  0  0
  5 27  1  0  0  0  0
  8  3  1  0  0  0  0
  9  8  1  0  0  0  0
  9 18  1  0  0  0  0
 10  9  2  0  0  0  0
 11 12  2  0  0  0  0
 11 10  1  0  0  0  0
 12 17  1  0  0  0  0
 13 14  2  0  0  0  0
 13 12  1  0  0  0  0
 14 15  1  0  0  0  0
 15 23  1  0  0  0  0
 15 16  2  0  0  0  0
 16 24  1  0  0  0  0
 17 16  1  0  0  0  0
 17  8  2  0  0  0  0
 19 10  1  0  0  0  0
 20 11  1  0  0  0  0
 21 13  1  0  0  0  0
 22 14  1  0  0  0  0
 24 26  1  0  0  0  0
 24 25  1  0  0  0  0
 27 28  1  0  0  0  0
 27 29  1  0  0  0  0
 30 27  1  0  0  0  0
 31 32  1  0  0  0  0
 31  2  1  0  0  0  0
 33 31  1  0  0  0  0
 34 36  1  0  0  0  0
 34 35  1  0  0  0  0
 34 31  1  0  0  0  0
 37 34  1  0  0  0  0
 38 37  1  0  0  0  0
 39 38  1  0  0  0  0
 39 37  1  0  0  0  0
M  END
>  <minimizedAffinity>
-6.15611744

>  <minimizedRMSD>
1.15053844

$$$$
