
 OpenBabel03252500513D

 29 31  0  0  0  0  0  0  0  0999 V2000
   44.8940   35.0310   44.5360 C   0  0  0  0  0  0  0  0  0  0  0  0
   44.9670   34.3140   43.3690 C   0  0  0  0  0  0  0  0  0  0  0  0
   45.4040   32.9700   43.3650 C   0  0  0  0  0  0  0  0  0  0  0  0
   45.7470   32.4280   44.5820 N   0  0  0  0  0  0  0  0  0  0  0  0
   45.6710   33.1350   45.6990 C   0  0  0  0  0  0  0  0  0  0  0  0
   45.2470   34.4310   45.6810 N   0  0  0  0  0  0  0  0  0  0  0  0
   44.5560   36.0540   44.4910 H   0  0  0  0  0  0  0  0  0  0  0  0
   45.4660   32.3930   42.4540 H   0  0  0  0  0  0  0  0  0  0  0  0
   46.0380   32.5510   46.9810 C   0  0  0  0  0  0  0  0  0  0  0  0
   47.3350   32.2450   47.2890 C   0  0  0  0  0  0  0  0  0  0  0  0
   47.7190   31.6970   48.4820 C   0  0  0  0  0  0  0  0  0  0  0  0
   46.7160   31.4620   49.3820 N   0  0  0  0  0  0  0  0  0  0  0  0
   45.4710   31.7610   49.0730 C   0  0  0  0  0  0  0  0  0  0  0  0
   45.0690   32.2990   47.9080 N   0  0  0  0  0  0  0  0  0  0  0  0
   48.1490   32.4260   46.5810 H   0  0  0  0  0  0  0  0  0  0  0  0
   48.7550   31.4660   48.6960 H   0  0  0  0  0  0  0  0  0  0  0  0
   44.7370   31.5420   49.8450 H   0  0  0  0  0  0  0  0  0  0  0  0
   44.5860   34.9550   42.1180 C   0  0  0  0  0  0  0  0  0  0  0  0
   45.3360   34.8010   41.1290 O   0  0  0  0  0  0  0  0  0  0  0  0
   43.5300   35.7370   41.7560 O   0  0  0  0  0  0  0  0  0  0  0  0
   42.5180   35.3220   40.9220 C   0  0  0  0  0  0  0  0  0  0  0  0
   42.5870   34.3420   40.4510 H   0  0  0  0  0  0  0  0  0  0  0  0
   42.5480   36.0360   40.0420 H   0  0  0  0  0  0  0  0  0  0  0  0
   41.1320   35.5680   41.5080 C   0  0  0  0  0  0  0  0  0  0  0  0
   40.8110   34.5730   41.9220 H   0  0  0  0  0  0  0  0  0  0  0  0
   41.1500   36.2680   42.3420 H   0  0  0  0  0  0  0  0  0  0  0  0
   40.2070   35.9180   40.3890 C   0  0  0  0  0  0  0  0  0  0  0  0
   39.2890   34.8410   39.9240 C   0  0  0  0  0  0  0  0  0  0  0  0
   40.4240   35.2900   39.0550 C   0  0  0  0  0  0  0  0  0  0  0  0
  1  6  1  0  0  0  0
  2  1  2  0  0  0  0
  3  2  1  0  0  0  0
  3  4  2  0  0  0  0
  4  5  1  0  0  0  0
  5  9  1  0  0  0  0
  6  5  2  0  0  0  0
  7  1  1  0  0  0  0
  8  3  1  0  0  0  0
  9 10  2  0  0  0  0
  9 14  1  0  0  0  0
 10 11  1  0  0  0  0
 11 16  1  0  0  0  0
 11 12  2  0  0  0  0
 13 12  1  0  0  0  0
 13 17  1  0  0  0  0
 14 13  2  0  0  0  0
 15 10  1  0  0  0  0
 18  2  1  0  0  0  0
 19 18  2  0  0  0  0
 20 18  1  0  0  0  0
 21 24  1  0  0  0  0
 21 20  1  0  0  0  0
 22 21  1  0  0  0  0
 23 21  1  0  0  0  0
 24 25  1  0  0  0  0
 24 26  1  0  0  0  0
 27 24  1  0  0  0  0
 28 27  1  0  0  0  0
 29 28  1  0  0  0  0
 29 27  1  0  0  0  0
M  END
>  <minimizedAffinity>
-5.37586927

>  <minimizedRMSD>
1.62491119

$$$$
