
 OpenBabel03252503353D

 16 17  0  0  0  0  0  0  0  0999 V2000
   44.5590   35.9060   44.3330 C   0  0  0  0  0  0  0  0  0  0  0  0
   45.3960   35.9660   43.1890 C   0  0  0  0  0  0  0  0  0  0  0  0
   46.3990   35.0010   43.0610 C   0  0  0  0  0  0  0  0  0  0  0  0
   46.5280   34.0650   44.0180 N   0  0  0  0  0  0  0  0  0  0  0  0
   45.7250   34.0140   45.1070 C   0  0  0  0  0  0  0  0  0  0  0  0
   44.7490   34.9340   45.2540 N   0  0  0  0  0  0  0  0  0  0  0  0
   43.7530   36.6380   44.4890 H   0  0  0  0  0  0  0  0  0  0  0  0
   45.2410   36.7420   42.4570 H   0  0  0  0  0  0  0  0  0  0  0  0
   45.9480   33.2070   45.7880 H   0  0  0  0  0  0  0  0  0  0  0  0
   46.9720   34.2470   40.7570 C   0  0  0  0  0  0  0  0  0  0  0  0
   45.8660   33.6190   40.8080 O   0  0  0  0  0  0  0  0  0  0  0  0
   47.2600   35.0170   41.9380 N   0  0  0  0  0  0  0  0  0  0  0  0
   48.1480   35.5970   41.9260 H   0  0  0  0  0  0  0  0  0  0  0  0
   47.9490   34.2560   39.6400 C   0  0  0  0  0  3  0  0  0  0  0  0
   48.5010   32.9630   39.1070 C   0  0  0  0  0  2  0  0  0  0  0  0
   47.4150   33.6260   38.3310 C   0  0  0  0  0  2  0  0  0  0  0  0
  1  7  1  0  0  0  0
  1  6  1  0  0  0  0
  2  1  2  0  0  0  0
  3  2  1  0  0  0  0
  3  4  2  0  0  0  0
  4  5  1  0  0  0  0
  5  6  2  0  0  0  0
  5  9  1  0  0  0  0
  8  2  1  0  0  0  0
 10 11  2  0  0  0  0
 10 12  1  0  0  0  0
 12  3  1  0  0  0  0
 13 12  1  0  0  0  0
 14 10  1  0  0  0  0
 15 14  1  0  0  0  0
 16 15  1  0  0  0  0
 16 14  1  0  0  0  0
M  END
>  <minimizedAffinity>
-3.84367967

>  <minimizedRMSD>
0.515639365

$$$$
