
 OpenBabel03252503013D

 24 25  0  0  0  0  0  0  0  0999 V2000
   36.2880   30.0110   38.2070 C   0  0  0  0  0  0  0  0  0  0  0  0
   35.4810   30.7290   38.5290 H   0  0  0  0  0  0  0  0  0  0  0  0
   35.8350   29.2140   37.5840 H   0  0  0  0  0  0  0  0  0  0  0  0
   36.8320   29.4500   39.4550 N   0  0  0  0  0  0  0  0  0  0  0  0
   37.1690   28.4750   39.3340 H   0  0  0  0  0  0  0  0  0  0  0  0
   35.6980   29.5760   40.7450 S   0  0  0  0  0  0  0  0  0  0  0  0
   35.6980   30.9360   41.3500 O   0  0  0  0  0  0  0  0  0  0  0  0
   34.9510   31.5710   41.1780 H   0  0  0  0  0  0  0  0  0  0  0  0
   34.3470   29.2710   40.1400 O   0  0  0  0  0  0  0  0  0  0  0  0
   34.1310   29.6660   39.2400 H   0  0  0  0  0  0  0  0  0  0  0  0
   35.9880   28.3710   41.8640 O   0  0  0  0  0  0  0  0  0  0  0  0
   37.3250   28.1930   42.1460 C   0  0  0  0  0  3  0  0  0  0  0  0
   37.5950   27.5610   43.4950 C   0  0  0  0  0  2  0  0  0  0  0  0
   37.9400   28.9920   43.2590 C   0  0  0  0  0  2  0  0  0  0  0  0
   37.5790   30.9580   37.4180 S   0  0  0  0  0  0  0  0  0  0  0  0
   37.3430   33.0810   39.1940 C   0  0  0  0  0  0  0  0  0  0  0  0
   38.2170   32.1960   38.5780 C   0  0  0  0  0  0  0  0  0  0  0  0
   39.5820   32.2390   38.8320 C   0  0  0  0  0  0  0  0  0  0  0  0
   40.0140   33.1960   39.7190 N   0  0  0  0  0  0  0  0  0  0  0  0
   39.1310   34.0200   40.2810 C   0  0  0  0  0  0  0  0  0  0  0  0
   37.8330   34.0030   40.0590 N   0  0  0  0  0  0  0  0  0  0  0  0
   36.2810   33.0390   38.9880 H   0  0  0  0  0  0  0  0  0  0  0  0
   40.2810   31.5450   38.3520 H   0  0  0  0  0  0  0  0  0  0  0  0
   39.6310   34.7200   40.9580 H   0  0  0  0  0  0  0  0  0  0  0  0
  1  2  1  0  0  0  0
  1  4  1  0  0  0  0
  3  1  1  0  0  0  0
  4  6  1  0  0  0  0
  5  4  1  0  0  0  0
  6  7  1  0  0  0  0
  6 11  1  0  0  0  0
  8  7  1  0  0  0  0
  9  6  1  0  0  0  0
 10  9  1  0  0  0  0
 11 12  1  0  0  0  0
 12 14  1  0  0  0  0
 12 13  1  0  0  0  0
 14 13  1  0  0  0  0
 15  1  1  0  0  0  0
 15 17  1  0  0  0  0
 16 21  1  0  0  0  0
 17 18  1  0  0  0  0
 17 16  2  0  0  0  0
 18 19  2  0  0  0  0
 19 20  1  0  0  0  0
 20 24  1  0  0  0  0
 21 20  2  0  0  0  0
 22 16  1  0  0  0  0
 23 18  1  0  0  0  0
M  END
>  <minimizedAffinity>
-4.58794594

$$$$

 OpenBabel03252503013D

 24 25  0  0  0  0  0  0  0  0999 V2000
   37.8220   30.7700   39.5370 C   0  0  0  0  0  0  0  0  0  0  0  0
   38.3680   30.6700   40.5180 H   0  0  0  0  0  0  0  0  0  0  0  0
   37.2340   31.7090   39.5460 H   0  0  0  0  0  0  0  0  0  0  0  0
   36.9320   29.5980   39.4660 N   0  0  0  0  0  0  0  0  0  0  0  0
   36.4920   29.4960   38.5300 H   0  0  0  0  0  0  0  0  0  0  0  0
   35.7560   29.6270   40.7230 S   0  0  0  0  0  0  0  0  0  0  0  0
   35.6980   30.9540   41.3960 O   0  0  0  0  0  0  0  0  0  0  0  0
   34.9390   31.5760   41.2320 H   0  0  0  0  0  0  0  0  0  0  0  0
   34.4330   29.3170   40.0600 O   0  0  0  0  0  0  0  0  0  0  0  0
   34.2340   29.7520   39.1740 H   0  0  0  0  0  0  0  0  0  0  0  0
   36.0450   28.3740   41.7890 O   0  0  0  0  0  0  0  0  0  0  0  0
   37.3800   28.2040   42.0870 C   0  0  0  0  0  3  0  0  0  0  0  0
   37.6360   27.5820   43.4430 C   0  0  0  0  0  2  0  0  0  0  0  0
   37.9790   29.0130   43.2020 C   0  0  0  0  0  2  0  0  0  0  0  0
   39.0240   30.6310   38.2260 S   0  0  0  0  0  0  0  0  0  0  0  0
   40.0150   33.0000   39.2850 C   0  0  0  0  0  0  0  0  0  0  0  0
   40.1400   32.0580   38.2720 C   0  0  0  0  0  0  0  0  0  0  0  0
   41.1090   32.1880   37.2850 C   0  0  0  0  0  0  0  0  0  0  0  0
   41.9280   33.2880   37.3650 N   0  0  0  0  0  0  0  0  0  0  0  0
   41.7630   34.1610   38.3590 C   0  0  0  0  0  0  0  0  0  0  0  0
   40.8550   34.0640   39.3080 N   0  0  0  0  0  0  0  0  0  0  0  0
   39.2560   32.8890   40.0490 H   0  0  0  0  0  0  0  0  0  0  0  0
   41.2160   31.4500   36.4810 H   0  0  0  0  0  0  0  0  0  0  0  0
   42.4890   34.9760   38.2820 H   0  0  0  0  0  0  0  0  0  0  0  0
  1  3  1  0  0  0  0
  1  2  1  0  0  0  0
  4  1  1  0  0  0  0
  4  6  1  0  0  0  0
  5  4  1  0  0  0  0
  6  7  1  0  0  0  0
  6 11  1  0  0  0  0
  8  7  1  0  0  0  0
  9  6  1  0  0  0  0
 10  9  1  0  0  0  0
 11 12  1  0  0  0  0
 12 14  1  0  0  0  0
 12 13  1  0  0  0  0
 14 13  1  0  0  0  0
 15 17  1  0  0  0  0
 15  1  1  0  0  0  0
 16 21  1  0  0  0  0
 16 22  1  0  0  0  0
 17 16  2  0  0  0  0
 18 19  2  0  0  0  0
 18 17  1  0  0  0  0
 19 20  1  0  0  0  0
 20 21  2  0  0  0  0
 23 18  1  0  0  0  0
 24 20  1  0  0  0  0
M  END
>  <minimizedAffinity>
-4.45292139

$$$$

 OpenBabel03252503013D

 24 25  0  0  0  0  0  0  0  0999 V2000
   37.4620   29.4220   42.4650 C   0  0  0  0  0  0  0  0  0  0  0  0
   36.5890   30.0510   42.7990 H   0  0  0  0  0  0  0  0  0  0  0  0
   38.2570   29.4690   43.2360 H   0  0  0  0  0  0  0  0  0  0  0  0
   37.9210   30.0300   41.2040 N   0  0  0  0  0  0  0  0  0  0  0  0
   38.8580   30.4700   41.3000 H   0  0  0  0  0  0  0  0  0  0  0  0
   36.7580   31.1360   40.5820 S   0  0  0  0  0  0  0  0  0  0  0  0
   35.4740   31.0690   41.3320 O   0  0  0  0  0  0  0  0  0  0  0  0
   35.2150   31.7910   41.9660 H   0  0  0  0  0  0  0  0  0  0  0  0
   37.3760   32.5090   40.7220 O   0  0  0  0  0  0  0  0  0  0  0  0
   37.8680   32.7220   41.5730 H   0  0  0  0  0  0  0  0  0  0  0  0
   36.5630   30.8810   38.9430 O   0  0  0  0  0  0  0  0  0  0  0  0
   36.5670   29.5480   38.5910 C   0  0  0  0  0  3  0  0  0  0  0  0
   35.7920   29.2400   37.3280 C   0  0  0  0  0  2  0  0  0  0  0  0
   35.2750   28.7830   38.6500 C   0  0  0  0  0  2  0  0  0  0  0  0
   36.8480   27.7870   42.0980 S   0  0  0  0  0  0  0  0  0  0  0  0
   38.0330   25.2770   41.9870 C   0  0  0  0  0  0  0  0  0  0  0  0
   38.1080   26.5560   42.5240 C   0  0  0  0  0  0  0  0  0  0  0  0
   39.1350   26.9140   43.3890 C   0  0  0  0  0  0  0  0  0  0  0  0
   40.0630   25.9440   43.6790 N   0  0  0  0  0  0  0  0  0  0  0  0
   39.9430   24.7330   43.1360 C   0  0  0  0  0  0  0  0  0  0  0  0
   38.9810   24.3640   42.3150 N   0  0  0  0  0  0  0  0  0  0  0  0
   37.2280   25.0080   41.3150 H   0  0  0  0  0  0  0  0  0  0  0  0
   39.2030   27.9200   43.8170 H   0  0  0  0  0  0  0  0  0  0  0  0
   40.7560   24.0790   43.4660 H   0  0  0  0  0  0  0  0  0  0  0  0
  1  2  1  0  0  0  0
  1  3  1  0  0  0  0
  4  5  1  0  0  0  0
  4  1  1  0  0  0  0
  6  9  1  0  0  0  0
  6  4  1  0  0  0  0
  6  7  1  0  0  0  0
  7  8  1  0  0  0  0
  9 10  1  0  0  0  0
 11  6  1  0  0  0  0
 12 14  1  0  0  0  0
 12 11  1  0  0  0  0
 13 12  1  0  0  0  0
 13 14  1  0  0  0  0
 15  1  1  0  0  0  0
 15 17  1  0  0  0  0
 16 21  2  0  0  0  0
 16 17  1  0  0  0  0
 17 18  2  0  0  0  0
 18 19  1  0  0  0  0
 18 23  1  0  0  0  0
 20 24  1  0  0  0  0
 20 19  2  0  0  0  0
 21 20  1  0  0  0  0
 22 16  1  0  0  0  0
M  END
>  <minimizedAffinity>
-4.40298367

$$$$

 OpenBabel03252503013D

 24 25  0  0  0  0  0  0  0  0999 V2000
   36.5750   30.4070   38.4980 C   0  0  0  0  0  0  0  0  0  0  0  0
   35.8310   31.1560   38.8900 H   0  0  0  0  0  0  0  0  0  0  0  0
   36.0370   29.6420   37.9030 H   0  0  0  0  0  0  0  0  0  0  0  0
   37.1860   29.8020   39.6940 N   0  0  0  0  0  0  0  0  0  0  0  0
   37.3980   28.7940   39.5590 H   0  0  0  0  0  0  0  0  0  0  0  0
   36.2210   30.0690   41.0950 S   0  0  0  0  0  0  0  0  0  0  0  0
   35.8460   31.5020   41.2420 O   0  0  0  0  0  0  0  0  0  0  0  0
   34.9200   31.8100   41.0490 H   0  0  0  0  0  0  0  0  0  0  0  0
   34.9840   29.2190   40.9130 O   0  0  0  0  0  0  0  0  0  0  0  0
   34.5550   29.1960   40.0030 H   0  0  0  0  0  0  0  0  0  0  0  0
   37.0060   29.4640   42.4390 O   0  0  0  0  0  0  0  0  0  0  0  0
   37.1240   28.0900   42.4330 C   0  0  0  0  0  3  0  0  0  0  0  0
   36.5880   27.4190   43.6800 C   0  0  0  0  0  2  0  0  0  0  0  0
   38.0560   27.4430   43.4180 C   0  0  0  0  0  2  0  0  0  0  0  0
   37.8440   31.3050   37.6230 S   0  0  0  0  0  0  0  0  0  0  0  0
   40.1620   32.1070   38.9270 C   0  0  0  0  0  0  0  0  0  0  0  0
   38.7950   32.3090   38.7950 C   0  0  0  0  0  0  0  0  0  0  0  0
   38.1340   33.2720   39.5470 C   0  0  0  0  0  0  0  0  0  0  0  0
   38.9000   34.0050   40.4200 N   0  0  0  0  0  0  0  0  0  0  0  0
   40.2090   33.7690   40.5070 C   0  0  0  0  0  0  0  0  0  0  0  0
   40.8620   32.8640   39.8070 N   0  0  0  0  0  0  0  0  0  0  0  0
   40.6670   31.3540   38.3360 H   0  0  0  0  0  0  0  0  0  0  0  0
   37.0550   33.4400   39.4500 H   0  0  0  0  0  0  0  0  0  0  0  0
   40.6740   34.4320   41.2430 H   0  0  0  0  0  0  0  0  0  0  0  0
  1  2  1  0  0  0  0
  1  4  1  0  0  0  0
  3  1  1  0  0  0  0
  4  6  1  0  0  0  0
  5  4  1  0  0  0  0
  6  7  1  0  0  0  0
  6 11  1  0  0  0  0
  8  7  1  0  0  0  0
  9  6  1  0  0  0  0
 10  9  1  0  0  0  0
 12 11  1  0  0  0  0
 12 14  1  0  0  0  0
 12 13  1  0  0  0  0
 14 13  1  0  0  0  0
 15  1  1  0  0  0  0
 15 17  1  0  0  0  0
 16 21  1  0  0  0  0
 17 16  2  0  0  0  0
 17 18  1  0  0  0  0
 18 19  2  0  0  0  0
 19 20  1  0  0  0  0
 20 24  1  0  0  0  0
 21 20  2  0  0  0  0
 22 16  1  0  0  0  0
 23 18  1  0  0  0  0
M  END
>  <minimizedAffinity>
-4.3520112

$$$$

 OpenBabel03252503013D

 24 25  0  0  0  0  0  0  0  0999 V2000
   36.7780   28.0040   42.5660 C   0  0  0  0  0  0  0  0  0  0  0  0
   36.5490   27.8800   41.4700 H   0  0  0  0  0  0  0  0  0  0  0  0
   35.8850   27.7140   43.1560 H   0  0  0  0  0  0  0  0  0  0  0  0
   37.0780   29.4350   42.7420 N   0  0  0  0  0  0  0  0  0  0  0  0
   36.5320   29.8570   43.5200 H   0  0  0  0  0  0  0  0  0  0  0  0
   36.8690   30.3050   41.2710 S   0  0  0  0  0  0  0  0  0  0  0  0
   36.8310   29.3970   40.0930 O   0  0  0  0  0  0  0  0  0  0  0  0
   35.9750   29.2070   39.6220 H   0  0  0  0  0  0  0  0  0  0  0  0
   35.5560   31.0420   41.4090 O   0  0  0  0  0  0  0  0  0  0  0  0
   34.7780   30.5510   41.8180 H   0  0  0  0  0  0  0  0  0  0  0  0
   38.0490   31.4800   41.1440 O   0  0  0  0  0  0  0  0  0  0  0  0
   38.1530   32.0190   39.8800 C   0  0  0  0  0  3  0  0  0  0  0  0
   38.9010   33.3350   39.8280 C   0  0  0  0  0  2  0  0  0  0  0  0
   37.4310   33.3030   39.5820 C   0  0  0  0  0  2  0  0  0  0  0  0
   38.2630   27.0800   42.9210 S   0  0  0  0  0  0  0  0  0  0  0  0
   39.4280   25.1830   41.2600 C   0  0  0  0  0  0  0  0  0  0  0  0
   38.2770   25.5550   41.9430 C   0  0  0  0  0  0  0  0  0  0  0  0
   37.1270   24.7770   41.8910 C   0  0  0  0  0  0  0  0  0  0  0  0
   37.1920   23.6310   41.1360 N   0  0  0  0  0  0  0  0  0  0  0  0
   38.3220   23.3220   40.5010 C   0  0  0  0  0  0  0  0  0  0  0  0
   39.4270   24.0400   40.5310 N   0  0  0  0  0  0  0  0  0  0  0  0
   40.3180   25.7970   41.3070 H   0  0  0  0  0  0  0  0  0  0  0  0
   36.2140   25.0610   42.4260 H   0  0  0  0  0  0  0  0  0  0  0  0
   38.2110   22.3860   39.9460 H   0  0  0  0  0  0  0  0  0  0  0  0
  1  4  1  0  0  0  0
  1 15  1  0  0  0  0
  1  3  1  0  0  0  0
  2  1  1  0  0  0  0
  4  5  1  0  0  0  0
  6  9  1  0  0  0  0
  6  4  1  0  0  0  0
  7  6  1  0  0  0  0
  8  7  1  0  0  0  0
  9 10  1  0  0  0  0
 11  6  1  0  0  0  0
 12 11  1  0  0  0  0
 13 12  1  0  0  0  0
 14 13  1  0  0  0  0
 14 12  1  0  0  0  0
 16 22  1  0  0  0  0
 16 17  1  0  0  0  0
 17 15  1  0  0  0  0
 18 17  2  0  0  0  0
 18 23  1  0  0  0  0
 19 18  1  0  0  0  0
 20 21  1  0  0  0  0
 20 19  2  0  0  0  0
 21 16  2  0  0  0  0
 24 20  1  0  0  0  0
M  END
>  <minimizedAffinity>
-4.34686899

$$$$

 OpenBabel03252503013D

 24 25  0  0  0  0  0  0  0  0999 V2000
   36.6130   28.8460   41.7140 C   0  0  0  0  0  0  0  0  0  0  0  0
   37.2640   28.6690   40.8120 H   0  0  0  0  0  0  0  0  0  0  0  0
   35.6990   28.2250   41.6270 H   0  0  0  0  0  0  0  0  0  0  0  0
   36.2750   30.2790   41.6750 N   0  0  0  0  0  0  0  0  0  0  0  0
   35.2490   30.4420   41.7210 H   0  0  0  0  0  0  0  0  0  0  0  0
   36.9810   31.0530   40.3080 S   0  0  0  0  0  0  0  0  0  0  0  0
   36.3470   30.6130   39.0350 O   0  0  0  0  0  0  0  0  0  0  0  0
   35.7280   31.2130   38.5390 H   0  0  0  0  0  0  0  0  0  0  0  0
   36.7680   32.5350   40.5150 O   0  0  0  0  0  0  0  0  0  0  0  0
   35.8730   32.8410   40.8600 H   0  0  0  0  0  0  0  0  0  0  0  0
   38.6340   30.8160   40.3230 O   0  0  0  0  0  0  0  0  0  0  0  0
   39.3120   31.7250   41.1070 C   0  0  0  0  0  3  0  0  0  0  0  0
   40.8190   31.5890   41.0490 C   0  0  0  0  0  2  0  0  0  0  0  0
   40.0840   31.2210   42.2930 C   0  0  0  0  0  2  0  0  0  0  0  0
   37.6030   28.5520   43.1690 S   0  0  0  0  0  0  0  0  0  0  0  0
   37.6810   25.8830   42.4040 C   0  0  0  0  0  0  0  0  0  0  0  0
   38.3460   26.9010   43.0740 C   0  0  0  0  0  0  0  0  0  0  0  0
   39.5770   26.6810   43.6780 C   0  0  0  0  0  0  0  0  0  0  0  0
   40.0950   25.4130   43.5760 N   0  0  0  0  0  0  0  0  0  0  0  0
   39.4140   24.4730   42.9220 C   0  0  0  0  0  0  0  0  0  0  0  0
   38.2460   24.6520   42.3400 N   0  0  0  0  0  0  0  0  0  0  0  0
   36.7210   26.0660   41.9370 H   0  0  0  0  0  0  0  0  0  0  0  0
   40.1100   27.4780   44.2090 H   0  0  0  0  0  0  0  0  0  0  0  0
   39.9580   23.5230   42.9310 H   0  0  0  0  0  0  0  0  0  0  0  0
  1 15  1  0  0  0  0
  2  1  1  0  0  0  0
  3  1  1  0  0  0  0
  4  1  1  0  0  0  0
  4  5  1  0  0  0  0
  6 11  1  0  0  0  0
  6  9  1  0  0  0  0
  6  4  1  0  0  0  0
  7  6  1  0  0  0  0
  8  7  1  0  0  0  0
  9 10  1  0  0  0  0
 11 12  1  0  0  0  0
 12 14  1  0  0  0  0
 13 12  1  0  0  0  0
 13 14  1  0  0  0  0
 16 17  1  0  0  0  0
 17 15  1  0  0  0  0
 17 18  2  0  0  0  0
 18 23  1  0  0  0  0
 19 18  1  0  0  0  0
 20 24  1  0  0  0  0
 20 19  2  0  0  0  0
 21 16  2  0  0  0  0
 21 20  1  0  0  0  0
 22 16  1  0  0  0  0
M  END
>  <minimizedAffinity>
-4.20841646

$$$$

 OpenBabel03252503013D

 24 25  0  0  0  0  0  0  0  0999 V2000
   36.6930   30.4200   38.7550 C   0  0  0  0  0  0  0  0  0  0  0  0
   36.2150   30.0000   37.8250 H   0  0  0  0  0  0  0  0  0  0  0  0
   35.9040   30.6290   39.5040 H   0  0  0  0  0  0  0  0  0  0  0  0
   37.3490   31.6670   38.3270 N   0  0  0  0  0  0  0  0  0  0  0  0
   38.2920   31.4960   37.9240 H   0  0  0  0  0  0  0  0  0  0  0  0
   37.4020   32.8180   39.6060 S   0  0  0  0  0  0  0  0  0  0  0  0
   36.9230   34.1570   39.1640 O   0  0  0  0  0  0  0  0  0  0  0  0
   36.0320   34.4990   39.4450 H   0  0  0  0  0  0  0  0  0  0  0  0
   36.5030   32.2720   40.6920 O   0  0  0  0  0  0  0  0  0  0  0  0
   35.6250   31.8630   40.4190 H   0  0  0  0  0  0  0  0  0  0  0  0
   38.9400   32.8630   40.2560 O   0  0  0  0  0  0  0  0  0  0  0  0
   39.9210   33.1360   39.3260 C   0  0  0  0  0  3  0  0  0  0  0  0
   41.2820   32.5760   39.6810 C   0  0  0  0  0  2  0  0  0  0  0  0
   41.0490   34.0480   39.7160 C   0  0  0  0  0  2  0  0  0  0  0  0
   37.9620   29.2790   39.2770 S   0  0  0  0  0  0  0  0  0  0  0  0
   36.8750   27.8000   41.3630 C   0  0  0  0  0  0  0  0  0  0  0  0
   37.7150   28.8530   41.0210 C   0  0  0  0  0  0  0  0  0  0  0  0
   38.3740   29.5930   41.9950 C   0  0  0  0  0  0  0  0  0  0  0  0
   38.1510   29.2280   43.3010 N   0  0  0  0  0  0  0  0  0  0  0  0
   37.3350   28.2100   43.5720 C   0  0  0  0  0  0  0  0  0  0  0  0
   36.6980   27.4920   42.6710 N   0  0  0  0  0  0  0  0  0  0  0  0
   36.3670   27.2310   40.5950 H   0  0  0  0  0  0  0  0  0  0  0  0
   39.0380   30.4250   41.7370 H   0  0  0  0  0  0  0  0  0  0  0  0
   37.2640   28.0480   44.6520 H   0  0  0  0  0  0  0  0  0  0  0  0
  1 15  1  0  0  0  0
  1  3  1  0  0  0  0
  2  1  1  0  0  0  0
  4  1  1  0  0  0  0
  4  6  1  0  0  0  0
  5  4  1  0  0  0  0
  6 11  1  0  0  0  0
  6  9  1  0  0  0  0
  7  8  1  0  0  0  0
  7  6  1  0  0  0  0
 10  9  1  0  0  0  0
 12 13  1  0  0  0  0
 12 14  1  0  0  0  0
 12 11  1  0  0  0  0
 13 14  1  0  0  0  0
 15 17  1  0  0  0  0
 16 21  1  0  0  0  0
 17 16  2  0  0  0  0
 17 18  1  0  0  0  0
 18 19  2  0  0  0  0
 19 20  1  0  0  0  0
 20 24  1  0  0  0  0
 21 20  2  0  0  0  0
 22 16  1  0  0  0  0
 23 18  1  0  0  0  0
M  END
>  <minimizedAffinity>
-4.20108604

$$$$

 OpenBabel03252503013D

 24 25  0  0  0  0  0  0  0  0999 V2000
   38.4150   29.0110   42.8970 C   0  0  0  0  0  0  0  0  0  0  0  0
   38.9270   29.6180   43.6970 H   0  0  0  0  0  0  0  0  0  0  0  0
   38.8920   29.2280   41.9190 H   0  0  0  0  0  0  0  0  0  0  0  0
   37.0130   29.4600   42.9030 N   0  0  0  0  0  0  0  0  0  0  0  0
   36.3940   28.8070   43.4240 H   0  0  0  0  0  0  0  0  0  0  0  0
   36.4380   29.7450   41.3050 S   0  0  0  0  0  0  0  0  0  0  0  0
   35.5910   28.6230   40.8150 O   0  0  0  0  0  0  0  0  0  0  0  0
   34.6030   28.7210   40.7460 H   0  0  0  0  0  0  0  0  0  0  0  0
   35.6280   31.0200   41.3780 O   0  0  0  0  0  0  0  0  0  0  0  0
   35.0130   31.1470   42.1640 H   0  0  0  0  0  0  0  0  0  0  0  0
   37.7280   30.0710   40.2960 O   0  0  0  0  0  0  0  0  0  0  0  0
   37.5230   29.6640   38.9950 C   0  0  0  0  0  3  0  0  0  0  0  0
   38.4170   30.3510   37.9850 C   0  0  0  0  0  2  0  0  0  0  0  0
   36.9570   30.6490   38.0120 C   0  0  0  0  0  2  0  0  0  0  0  0
   38.4500   27.3000   43.4030 S   0  0  0  0  0  0  0  0  0  0  0  0
   37.0870   25.1900   42.2170 C   0  0  0  0  0  0  0  0  0  0  0  0
   37.9660   26.2450   42.0110 C   0  0  0  0  0  0  0  0  0  0  0  0
   38.4870   26.5120   40.7510 C   0  0  0  0  0  0  0  0  0  0  0  0
   38.0890   25.6830   39.7310 N   0  0  0  0  0  0  0  0  0  0  0  0
   37.2430   24.6850   39.9840 C   0  0  0  0  0  0  0  0  0  0  0  0
   36.7330   24.4080   41.1670 N   0  0  0  0  0  0  0  0  0  0  0  0
   36.6870   24.9910   43.2030 H   0  0  0  0  0  0  0  0  0  0  0  0
   39.1810   27.3420   40.5770 H   0  0  0  0  0  0  0  0  0  0  0  0
   37.0260   24.1200   39.0730 H   0  0  0  0  0  0  0  0  0  0  0  0
  1  4  1  0  0  0  0
  1 15  1  0  0  0  0
  1  2  1  0  0  0  0
  3  1  1  0  0  0  0
  4  5  1  0  0  0  0
  6  9  1  0  0  0  0
  6  4  1  0  0  0  0
  7  6  1  0  0  0  0
  8  7  1  0  0  0  0
  9 10  1  0  0  0  0
 11  6  1  0  0  0  0
 12 11  1  0  0  0  0
 13 14  1  0  0  0  0
 13 12  1  0  0  0  0
 14 12  1  0  0  0  0
 16 22  1  0  0  0  0
 17 16  1  0  0  0  0
 17 15  1  0  0  0  0
 18 17  2  0  0  0  0
 19 20  2  0  0  0  0
 19 18  1  0  0  0  0
 20 21  1  0  0  0  0
 21 16  2  0  0  0  0
 23 18  1  0  0  0  0
 24 20  1  0  0  0  0
M  END
>  <minimizedAffinity>
-4.17212105

$$$$

 OpenBabel03252503013D

 24 25  0  0  0  0  0  0  0  0999 V2000
   36.8020   27.2390   40.9390 C   0  0  0  0  0  0  0  0  0  0  0  0
   37.7900   27.5380   40.4870 H   0  0  0  0  0  0  0  0  0  0  0  0
   36.0950   26.9850   40.1240 H   0  0  0  0  0  0  0  0  0  0  0  0
   36.3380   28.4230   41.6810 N   0  0  0  0  0  0  0  0  0  0  0  0
   35.6390   28.1800   42.4100 H   0  0  0  0  0  0  0  0  0  0  0  0
   35.7490   29.6400   40.6150 S   0  0  0  0  0  0  0  0  0  0  0  0
   34.3770   29.3320   40.1280 O   0  0  0  0  0  0  0  0  0  0  0  0
   33.5890   29.8330   40.4730 H   0  0  0  0  0  0  0  0  0  0  0  0
   35.7470   30.9250   41.4130 O   0  0  0  0  0  0  0  0  0  0  0  0
   35.4230   30.8900   42.3650 H   0  0  0  0  0  0  0  0  0  0  0  0
   36.8400   29.8700   39.3710 O   0  0  0  0  0  0  0  0  0  0  0  0
   37.6150   30.9990   39.5220 C   0  0  0  0  0  3  0  0  0  0  0  0
   37.5500   31.9550   38.3490 C   0  0  0  0  0  2  0  0  0  0  0  0
   38.8000   31.1870   38.6170 C   0  0  0  0  0  2  0  0  0  0  0  0
   37.1130   25.9360   42.1180 S   0  0  0  0  0  0  0  0  0  0  0  0
   39.2950   27.2460   43.2310 C   0  0  0  0  0  0  0  0  0  0  0  0
   38.8230   26.0480   42.7100 C   0  0  0  0  0  0  0  0  0  0  0  0
   39.6380   24.9260   42.6310 C   0  0  0  0  0  0  0  0  0  0  0  0
   40.9240   25.0650   43.0930 N   0  0  0  0  0  0  0  0  0  0  0  0
   41.3250   26.2380   43.5830 C   0  0  0  0  0  0  0  0  0  0  0  0
   40.5760   27.3180   43.6700 N   0  0  0  0  0  0  0  0  0  0  0  0
   38.6510   28.1140   43.2870 H   0  0  0  0  0  0  0  0  0  0  0  0
   39.2750   23.9760   42.2220 H   0  0  0  0  0  0  0  0  0  0  0  0
   42.3700   26.1850   43.9070 H   0  0  0  0  0  0  0  0  0  0  0  0
  1  4  1  0  0  0  0
  1 15  1  0  0  0  0
  2  1  1  0  0  0  0
  3  1  1  0  0  0  0
  4  5  1  0  0  0  0
  6  9  1  0  0  0  0
  6  4  1  0  0  0  0
  7  8  1  0  0  0  0
  7  6  1  0  0  0  0
  9 10  1  0  0  0  0
 11 12  1  0  0  0  0
 11  6  1  0  0  0  0
 13 14  1  0  0  0  0
 13 12  1  0  0  0  0
 14 12  1  0  0  0  0
 15 17  1  0  0  0  0
 16 22  1  0  0  0  0
 16 21  1  0  0  0  0
 17 16  2  0  0  0  0
 18 17  1  0  0  0  0
 18 19  2  0  0  0  0
 19 20  1  0  0  0  0
 20 21  2  0  0  0  0
 20 24  1  0  0  0  0
 23 18  1  0  0  0  0
M  END
>  <minimizedAffinity>
-4.13086224

$$$$
