
 OpenBabel03252508503D

 22 24  0  0  0  0  0  0  0  0999 V2000
   45.7800   34.2320   41.0350 C   0  0  0  0  0  0  0  0  0  0  0  0
   46.4170   34.7980   42.1340 C   0  0  0  0  0  0  0  0  0  0  0  0
   47.7900   35.0710   42.0120 C   0  0  0  0  0  0  0  0  0  0  0  0
   48.4040   34.7660   40.8310 N   0  0  0  0  0  0  0  0  0  0  0  0
   47.7350   34.2190   39.7990 C   0  0  0  0  0  0  0  0  0  0  0  0
   46.4170   33.9440   39.8830 N   0  0  0  0  0  0  0  0  0  0  0  0
   48.3020   35.5120   42.8590 H   0  0  0  0  0  0  0  0  0  0  0  0
   48.2750   33.9950   38.8780 H   0  0  0  0  0  0  0  0  0  0  0  0
   45.6710   35.0850   43.3470 C   0  0  0  0  0  0  0  0  0  0  0  0
   45.0800   36.3060   43.5960 C   0  0  0  0  0  0  0  0  0  0  0  0
   44.4930   36.1400   44.8310 C   0  0  0  0  0  0  0  0  0  0  0  0
   44.7110   34.8940   45.3070 N   0  0  0  0  0  0  0  0  0  0  0  0
   45.4240   34.2790   44.3930 N   0  0  0  0  0  0  0  0  0  0  0  0
   45.0790   37.1910   42.9650 H   0  0  0  0  0  0  0  0  0  0  0  0
   43.9260   36.9320   45.3390 H   0  0  0  0  0  0  0  0  0  0  0  0
   44.3740   34.5000   46.2290 H   0  0  0  0  0  0  0  0  0  0  0  0
   44.4220   33.9590   41.1440 O   0  0  0  0  0  0  0  0  0  0  0  0
   43.4050   34.7100   40.6220 C   0  0  0  0  0  0  0  0  0  0  0  0
   42.7250   35.6250   41.1880 O   0  0  0  0  0  0  0  0  0  0  0  0
   42.6980   34.7940   39.2880 C   0  0  0  0  0  3  0  0  0  0  0  0
   42.0530   33.5510   38.7380 C   0  0  0  0  0  2  0  0  0  0  0  0
   41.2400   34.7120   39.2180 C   0  0  0  0  0  2  0  0  0  0  0  0
  1 17  1  0  0  0  0
  1  2  1  0  0  0  0
  2  9  1  0  0  0  0
  3  2  2  0  0  0  0
  3  7  1  0  0  0  0
  4  3  1  0  0  0  0
  5  6  1  0  0  0  0
  5  4  2  0  0  0  0
  6  1  2  0  0  0  0
  8  5  1  0  0  0  0
  9 10  1  0  0  0  0
  9 13  2  0  0  0  0
 10 11  2  0  0  0  0
 11 12  1  0  0  0  0
 11 15  1  0  0  0  0
 12 16  1  0  0  0  0
 13 12  1  0  0  0  0
 14 10  1  0  0  0  0
 18 17  1  0  0  0  0
 18 19  2  0  0  0  0
 20 18  1  0  0  0  0
 21 22  1  0  0  0  0
 21 20  1  0  0  0  0
 22 20  1  0  0  0  0
M  END
>  <minimizedAffinity>
-4.78743887

>  <minimizedRMSD>
0.691716909

$$$$
