
 OpenBabel03242521553D

 42 46  0  0  0  0  0  0  0  0999 V2000
   45.8030   32.3080   46.0470 C   0  0  0  0  0  0  0  0  0  0  0  0
   45.6060   32.9900   47.2440 C   0  0  0  0  0  0  0  0  0  0  0  0
   45.7860   32.3980   48.5000 C   0  0  0  0  0  0  0  0  0  0  0  0
   46.1760   31.0920   48.6020 C   0  0  0  0  0  0  0  0  0  0  0  0
   46.3740   30.3790   47.4090 C   0  0  0  0  0  0  0  0  0  0  0  0
   46.7080   29.0650   47.5500 C   0  0  0  0  0  0  0  0  0  0  0  0
   46.8410   28.3050   46.3850 C   0  0  0  0  0  0  0  0  0  0  0  0
   46.6130   28.9450   45.1160 C   0  0  0  0  0  0  0  0  0  0  0  0
   46.2820   30.2790   45.1420 C   0  0  0  0  0  0  0  0  0  0  0  0
   46.1610   31.0560   46.2050 C   0  0  0  0  0  0  0  0  0  0  0  0
   45.2920   34.0460   47.1770 H   0  0  0  0  0  0  0  0  0  0  0  0
   45.6020   33.0300   49.3570 H   0  0  0  0  0  0  0  0  0  0  0  0
   46.3130   30.6660   49.5870 H   0  0  0  0  0  0  0  0  0  0  0  0
   46.8630   28.6330   48.5300 H   0  0  0  0  0  0  0  0  0  0  0  0
   47.1110   27.2810   46.5780 H   0  0  0  0  0  0  0  0  0  0  0  0
   46.7820   28.1360   44.4220 H   0  0  0  0  0  0  0  0  0  0  0  0
   44.4510   29.7650   43.7870 C   0  0  0  0  0  0  0  0  0  0  0  0
   45.8160   30.2550   43.7700 C   0  0  0  0  0  0  0  0  0  0  0  0
   46.2510   30.3880   42.5180 C   0  0  0  0  0  0  0  0  0  0  0  0
   45.5280   30.1020   41.3800 C   0  0  0  0  0  0  0  0  0  0  0  0
   44.2390   29.6350   41.4250 C   0  0  0  0  0  0  0  0  0  0  0  0
   43.6980   29.4660   42.6720 C   0  0  0  0  0  0  0  0  0  0  0  0
   47.2810   30.7640   42.6040 H   0  0  0  0  0  0  0  0  0  0  0  0
   46.1160   30.2970   40.4780 H   0  0  0  0  0  0  0  0  0  0  0  0
   43.8680   29.4780   40.4300 H   0  0  0  0  0  0  0  0  0  0  0  0
   43.6640   29.5120   44.9430 O   0  0  0  0  0  0  0  0  0  0  0  0
   43.6770   28.6180   45.4130 H   0  0  0  0  0  0  0  0  0  0  0  0
   42.4120   28.9910   42.6610 O   0  0  0  0  0  0  0  0  0  0  0  0
   41.2590   29.5780   42.2510 C   0  0  0  0  0  0  0  0  0  0  0  0
   40.0360   29.4300   43.1480 C   0  0  0  0  0  0  0  0  0  0  0  0
   40.6830   30.7590   42.9430 C   0  0  0  0  0  0  0  0  0  0  0  0
   45.2480   34.1450   42.8480 C   0  0  0  0  0  0  0  0  0  0  0  0
   46.5810   34.5140   42.5460 C   0  0  0  0  0  0  0  0  0  0  0  0
   47.5440   34.0890   43.4300 C   0  0  0  0  0  0  0  0  0  0  0  0
   47.0980   33.3830   44.4660 N   0  0  0  0  0  0  0  0  0  0  0  0
   45.8590   33.0210   44.7810 C   0  0  0  0  0  0  0  0  0  0  0  0
   44.9580   33.4250   43.9370 N   0  0  0  0  0  0  0  0  0  0  0  0
   44.4790   34.4730   42.1590 H   0  0  0  0  0  0  0  0  0  0  0  0
   46.8310   35.0970   41.6710 H   0  0  0  0  0  0  0  0  0  0  0  0
   48.9210   34.3360   43.2150 N   0  0  0  0  0  0  0  0  0  0  0  0
   49.3340   35.1780   42.7640 H   0  0  0  0  0  0  0  0  0  0  0  0
   49.7300   33.7570   43.4530 H   0  0  0  0  0  0  0  0  0  0  0  0
  1 10  2  0  0  0  0
  1  2  1  0  0  0  0
  2  3  2  0  0  0  0
  3  4  1  0  0  0  0
  3 12  1  0  0  0  0
  4 13  1  0  0  0  0
  5  6  1  0  0  0  0
  5  4  2  0  0  0  0
  6 14  1  0  0  0  0
  7 15  1  0  0  0  0
  7  6  2  0  0  0  0
  8  9  2  0  0  0  0
  8  7  1  0  0  0  0
  9 10  1  0  0  0  0
 10  5  1  0  0  0  0
 11  2  1  0  0  0  0
 16  8  1  0  0  0  0
 17 26  1  0  0  0  0
 18 17  1  0  0  0  0
 18  9  1  0  0  0  0
 19 23  1  0  0  0  0
 19 18  2  0  0  0  0
 20 21  2  0  0  0  0
 20 19  1  0  0  0  0
 21 22  1  0  0  0  0
 22 17  2  0  0  0  0
 24 20  1  0  0  0  0
 25 21  1  0  0  0  0
 26 27  1  0  0  0  0
 28 22  1  0  0  0  0
 29 28  1  0  0  0  0
 29 31  1  0  0  0  0
 29 30  1  0  0  0  0
 31 30  1  0  0  0  0
 32 37  1  0  0  0  0
 33 32  2  0  0  0  0
 33 34  1  0  0  0  0
 34 35  2  0  0  0  0
 35 36  1  0  0  0  0
 36  1  1  0  0  0  0
 37 36  2  0  0  0  0
 38 32  1  0  0  0  0
 39 33  1  0  0  0  0
 40 34  1  0  0  0  0
 40 42  1  0  0  0  0
 41 40  1  0  0  0  0
M  END
>  <minimizedAffinity>
-5.05800772

>  <minimizedRMSD>
0.978655875

$$$$
