
 OpenBabel03252501323D

 18 19  0  0  0  0  0  0  0  0999 V2000
   45.6960   34.4900   44.3670 C   0  0  0  0  0  0  0  0  0  0  0  0
   45.3010   34.2940   45.6760 C   0  0  0  0  0  0  0  0  0  0  0  0
   45.9370   33.2680   46.3630 C   0  0  0  0  0  0  0  0  0  0  0  0
   46.8720   32.5550   45.7180 N   0  0  0  0  0  0  0  0  0  0  0  0
   47.2320   32.7710   44.4470 C   0  0  0  0  0  0  0  0  0  0  0  0
   46.6360   33.7610   43.7430 N   0  0  0  0  0  0  0  0  0  0  0  0
   45.6180   33.1270   47.3850 H   0  0  0  0  0  0  0  0  0  0  0  0
   48.0000   32.1180   44.0560 H   0  0  0  0  0  0  0  0  0  0  0  0
   44.3030   34.8760   42.5200 C   0  0  0  0  0  0  0  0  0  0  0  0
   44.2530   33.6050   42.6960 O   0  0  0  0  0  0  0  0  0  0  0  0
   45.1590   35.5040   43.4770 N   0  0  0  0  0  0  0  0  0  0  0  0
   45.3190   36.5350   43.4670 H   0  0  0  0  0  0  0  0  0  0  0  0
   43.5860   35.6570   41.4760 C   0  0  0  0  0  0  0  0  0  0  0  0
   42.9960   34.9660   40.3040 C   0  0  0  0  0  0  0  0  0  0  0  0
   42.0900   35.4890   41.3530 C   0  0  0  0  0  0  0  0  0  0  0  0
   44.2920   35.1570   46.1840 N   0  0  0  0  0  0  0  0  0  0  0  0
   44.3500   36.0710   46.6640 H   0  0  0  0  0  0  0  0  0  0  0  0
   43.5010   34.5130   45.8840 H   0  0  0  0  0  0  0  0  0  0  0  0
  1  2  1  0  0  0  0
  2 16  1  0  0  0  0
  2  3  2  0  0  0  0
  3  7  1  0  0  0  0
  4  3  1  0  0  0  0
  5  4  2  0  0  0  0
  6  1  2  0  0  0  0
  6  5  1  0  0  0  0
  8  5  1  0  0  0  0
  9 10  2  0  0  0  0
  9 11  1  0  0  0  0
 11  1  1  0  0  0  0
 12 11  1  0  0  0  0
 13  9  1  0  0  0  0
 14 15  1  0  0  0  0
 14 13  1  0  0  0  0
 15 13  1  0  0  0  0
 16 17  1  0  0  0  0
 18 16  1  0  0  0  0
M  END
>  <minimizedAffinity>
-4.45297861

>  <minimizedRMSD>
0.956410289

$$$$
