
 OpenBabel03252506143D

 30 32  0  0  0  0  0  0  0  0999 V2000
   38.3680   28.1980   39.8250 F   0  0  0  0  0  0  0  0  0  0  0  0
   37.8850   28.0130   41.0530 C   0  0  0  0  0  0  0  0  0  0  0  0
   37.8310   29.0850   41.9250 C   0  0  0  0  0  0  0  0  0  0  0  0
   37.3410   28.9810   43.2260 C   0  0  0  0  0  0  0  0  0  0  0  0
   36.8810   27.7440   43.6800 C   0  0  0  0  0  0  0  0  0  0  0  0
   36.9500   26.6980   42.7820 C   0  0  0  0  0  0  0  0  0  0  0  0
   37.4260   26.7850   41.5120 C   0  0  0  0  0  0  0  0  0  0  0  0
   37.3290   29.8720   43.8570 H   0  0  0  0  0  0  0  0  0  0  0  0
   36.5100   27.7110   44.6930 H   0  0  0  0  0  0  0  0  0  0  0  0
   36.5580   25.8080   43.2580 H   0  0  0  0  0  0  0  0  0  0  0  0
   37.8280   32.4730   40.5210 C   0  0  0  0  0  0  0  0  0  0  0  0
   39.1690   32.8670   40.6960 C   0  0  0  0  0  0  0  0  0  0  0  0
   40.0840   31.9520   41.3050 C   0  0  0  0  0  0  0  0  0  0  0  0
   39.5770   30.7380   41.6800 N   0  0  0  0  0  0  0  0  0  0  0  0
   38.2990   30.4070   41.4960 C   0  0  0  0  0  0  0  0  0  0  0  0
   37.4380   31.2670   40.9230 N   0  0  0  0  0  0  0  0  0  0  0  0
   39.5370   33.8340   40.3880 H   0  0  0  0  0  0  0  0  0  0  0  0
   41.1110   32.1990   41.4620 H   0  0  0  0  0  0  0  0  0  0  0  0
   36.9490   33.3980   39.9180 N   0  0  0  0  0  0  0  0  0  0  0  0
   36.2320   33.2250   39.1830 H   0  0  0  0  0  0  0  0  0  0  0  0
   36.9920   34.3980   40.2190 H   0  0  0  0  0  0  0  0  0  0  0  0
   37.4510   25.6790   40.7020 O   0  0  0  0  0  0  0  0  0  0  0  0
   38.8080   23.8310   39.3710 O   0  0  0  0  0  0  0  0  0  0  0  0
   38.6130   24.4660   40.7140 P   0  0  2  0  0  0  0  0  0  0  0  0
   38.1410   23.2860   41.8700 O   0  0  0  0  0  0  0  0  0  0  0  0
   38.3930   23.6110   42.7540 H   0  0  0  0  0  0  0  0  0  0  0  0
   40.1120   25.0260   41.2730 O   0  0  0  0  0  0  0  0  0  0  0  0
   40.2890   24.7800   42.6080 C   0  0  0  0  0  3  0  0  0  0  0  0
   40.4740   25.9970   43.5450 C   0  0  0  0  0  2  0  0  0  0  0  0
   41.6420   25.1630   43.1500 C   0  0  0  0  0  2  0  0  0  0  0  0
  1  2  1  0  0  0  0
  2  7  2  0  0  0  0
  2  3  1  0  0  0  0
  3  4  2  0  0  0  0
  4  5  1  0  0  0  0
  4  8  1  0  0  0  0
  5  9  1  0  0  0  0
  6 10  1  0  0  0  0
  6  5  2  0  0  0  0
  7  6  1  0  0  0  0
 11 12  2  0  0  0  0
 11 16  1  0  0  0  0
 12 13  1  0  0  0  0
 13 18  1  0  0  0  0
 13 14  2  0  0  0  0
 15 14  1  0  0  0  0
 15  3  1  0  0  0  0
 16 15  2  0  0  0  0
 17 12  1  0  0  0  0
 19 21  1  0  0  0  0
 19 11  1  0  0  0  0
 20 19  1  0  0  0  0
 22 24  1  0  0  0  0
 22  7  1  0  0  0  0
 24 23  2  6  0  0  0
 24 27  1  0  0  0  0
 24 25  1  0  0  0  0
 25 26  1  0  0  0  0
 27 28  1  0  0  0  0
 28 30  1  0  0  0  0
 28 29  1  0  0  0  0
 30 29  1  0  0  0  0
M  END
>  <minimizedAffinity>
-5.59512568

$$$$

 OpenBabel03252506143D

 30 32  0  0  0  0  0  0  0  0999 V2000
   39.3230   27.9700   42.0760 F   0  0  0  0  0  0  0  0  0  0  0  0
   38.8780   26.7140   42.1130 C   0  0  0  0  0  0  0  0  0  0  0  0
   37.6750   26.4060   41.5050 C   0  0  0  0  0  0  0  0  0  0  0  0
   37.1370   25.1200   41.4960 C   0  0  0  0  0  0  0  0  0  0  0  0
   37.8360   24.0890   42.1260 C   0  0  0  0  0  0  0  0  0  0  0  0
   39.0330   24.4340   42.7200 C   0  0  0  0  0  0  0  0  0  0  0  0
   39.5680   25.6830   42.7380 C   0  0  0  0  0  0  0  0  0  0  0  0
   36.1810   24.9520   40.9960 H   0  0  0  0  0  0  0  0  0  0  0  0
   37.3820   23.1100   42.0930 H   0  0  0  0  0  0  0  0  0  0  0  0
   39.4690   23.5460   43.1600 H   0  0  0  0  0  0  0  0  0  0  0  0
   35.9870   29.5980   40.8630 C   0  0  0  0  0  0  0  0  0  0  0  0
   35.4700   29.4030   39.5660 C   0  0  0  0  0  0  0  0  0  0  0  0
   35.7070   28.1560   38.9090 C   0  0  0  0  0  0  0  0  0  0  0  0
   36.4340   27.2260   39.6010 N   0  0  0  0  0  0  0  0  0  0  0  0
   36.9040   27.4530   40.8280 C   0  0  0  0  0  0  0  0  0  0  0  0
   36.6810   28.6250   41.4470 N   0  0  0  0  0  0  0  0  0  0  0  0
   34.8990   30.1580   39.0470 H   0  0  0  0  0  0  0  0  0  0  0  0
   35.3390   27.9550   37.9270 H   0  0  0  0  0  0  0  0  0  0  0  0
   35.7360   30.8380   41.4860 N   0  0  0  0  0  0  0  0  0  0  0  0
   35.4450   31.0230   42.4690 H   0  0  0  0  0  0  0  0  0  0  0  0
   35.8450   31.7120   40.9230 H   0  0  0  0  0  0  0  0  0  0  0  0
   40.7670   25.9170   43.3610 O   0  0  0  0  0  0  0  0  0  0  0  0
   42.2530   25.2370   41.2730 O   0  0  0  0  0  0  0  0  0  0  0  0
   42.2880   25.8090   42.6580 P   0  0  2  0  0  0  0  0  0  0  0  0
   43.2800   24.8460   43.6770 O   0  0  0  0  0  0  0  0  0  0  0  0
   43.5980   25.4080   44.4080 H   0  0  0  0  0  0  0  0  0  0  0  0
   43.0720   27.3110   42.6050 O   0  0  0  0  0  0  0  0  0  0  0  0
   42.5340   28.2040   43.4910 C   0  0  0  0  0  3  0  0  0  0  0  0
   42.0440   29.5620   42.9360 C   0  0  0  0  0  2  0  0  0  0  0  0
   43.3300   29.4700   43.6790 C   0  0  0  0  0  2  0  0  0  0  0  0
  1  2  1  0  0  0  0
  2  7  1  0  0  0  0
  3  2  2  0  0  0  0
  4  3  1  0  0  0  0
  4  5  2  0  0  0  0
  5  6  1  0  0  0  0
  6  7  2  0  0  0  0
  6 10  1  0  0  0  0
  7 22  1  0  0  0  0
  8  4  1  0  0  0  0
  9  5  1  0  0  0  0
 11 16  1  0  0  0  0
 11 19  1  0  0  0  0
 12 11  2  0  0  0  0
 13 12  1  0  0  0  0
 13 14  2  0  0  0  0
 14 15  1  0  0  0  0
 15 16  2  0  0  0  0
 15  3  1  0  0  0  0
 17 12  1  0  0  0  0
 18 13  1  0  0  0  0
 19 20  1  0  0  0  0
 21 19  1  0  0  0  0
 24 23  2  6  0  0  0
 24 22  1  0  0  0  0
 24 25  1  0  0  0  0
 25 26  1  0  0  0  0
 27 24  1  0  0  0  0
 27 28  1  0  0  0  0
 28 30  1  0  0  0  0
 29 28  1  0  0  0  0
 29 30  1  0  0  0  0
M  END
>  <minimizedAffinity>
-5.54464149

$$$$

 OpenBabel03252506143D

 30 32  0  0  0  0  0  0  0  0999 V2000
   39.5010   28.7220   39.7890 F   0  0  0  0  0  0  0  0  0  0  0  0
   38.1910   28.8230   40.0100 C   0  0  0  0  0  0  0  0  0  0  0  0
   37.6400   28.1790   41.1030 C   0  0  0  0  0  0  0  0  0  0  0  0
   36.2810   28.2320   41.4090 C   0  0  0  0  0  0  0  0  0  0  0  0
   35.4280   28.9660   40.5820 C   0  0  0  0  0  0  0  0  0  0  0  0
   36.0140   29.5960   39.5020 C   0  0  0  0  0  0  0  0  0  0  0  0
   37.3360   29.5520   39.1920 C   0  0  0  0  0  0  0  0  0  0  0  0
   35.9170   27.6980   42.2890 H   0  0  0  0  0  0  0  0  0  0  0  0
   34.3840   28.9790   40.8580 H   0  0  0  0  0  0  0  0  0  0  0  0
   35.2470   30.1290   38.9560 H   0  0  0  0  0  0  0  0  0  0  0  0
   39.1710   25.3160   42.8080 C   0  0  0  0  0  0  0  0  0  0  0  0
   40.0830   25.9440   43.6800 C   0  0  0  0  0  0  0  0  0  0  0  0
   40.1690   27.3710   43.6770 C   0  0  0  0  0  0  0  0  0  0  0  0
   39.3420   28.0330   42.8110 N   0  0  0  0  0  0  0  0  0  0  0  0
   38.4930   27.3980   42.0030 C   0  0  0  0  0  0  0  0  0  0  0  0
   38.4120   26.0560   42.0050 N   0  0  0  0  0  0  0  0  0  0  0  0
   40.7210   25.3910   44.3520 H   0  0  0  0  0  0  0  0  0  0  0  0
   40.8420   27.8980   44.3170 H   0  0  0  0  0  0  0  0  0  0  0  0
   39.1090   23.9070   42.8330 N   0  0  0  0  0  0  0  0  0  0  0  0
   38.2660   23.2950   42.8260 H   0  0  0  0  0  0  0  0  0  0  0  0
   40.0040   23.3670   42.8630 H   0  0  0  0  0  0  0  0  0  0  0  0
   37.8140   30.2140   38.0920 O   0  0  0  0  0  0  0  0  0  0  0  0
   37.2940   32.7430   38.6940 O   0  0  0  0  0  0  0  0  0  0  0  0
   38.2760   31.8280   38.0270 P   0  0  2  0  0  0  0  0  0  0  0  0
   38.4700   32.2620   36.3770 O   0  0  0  0  0  0  0  0  0  0  0  0
   39.3440   31.9440   36.0810 H   0  0  0  0  0  0  0  0  0  0  0  0
   39.8060   32.0800   38.7120 O   0  0  0  0  0  0  0  0  0  0  0  0
   39.7360   32.7920   39.8790 C   0  0  0  0  0  3  0  0  0  0  0  0
   40.9440   32.7140   40.8420 C   0  0  0  0  0  2  0  0  0  0  0  0
   39.6970   31.9540   41.1320 C   0  0  0  0  0  2  0  0  0  0  0  0
  1  2  1  0  0  0  0
  2  3  1  0  0  0  0
  3  4  2  0  0  0  0
  3 15  1  0  0  0  0
  4  8  1  0  0  0  0
  5  9  1  0  0  0  0
  5  4  1  0  0  0  0
  6  5  2  0  0  0  0
  7  6  1  0  0  0  0
  7  2  2  0  0  0  0
 10  6  1  0  0  0  0
 11 19  1  0  0  0  0
 11 12  1  0  0  0  0
 12 17  1  0  0  0  0
 13 12  2  0  0  0  0
 13 18  1  0  0  0  0
 14 13  1  0  0  0  0
 15 16  1  0  0  0  0
 15 14  2  0  0  0  0
 16 11  2  0  0  0  0
 19 21  1  0  0  0  0
 20 19  1  0  0  0  0
 22  7  1  0  0  0  0
 24 22  1  0  0  0  0
 24 23  2  1  0  0  0
 24 27  1  0  0  0  0
 25 24  1  0  0  0  0
 26 25  1  0  0  0  0
 27 28  1  0  0  0  0
 28 29  1  0  0  0  0
 28 30  1  0  0  0  0
 29 30  1  0  0  0  0
M  END
>  <minimizedAffinity>
-5.2893877

$$$$

 OpenBabel03252506143D

 30 32  0  0  0  0  0  0  0  0999 V2000
   40.2140   30.0870   40.5810 F   0  0  0  0  0  0  0  0  0  0  0  0
   39.2430   30.9660   40.3370 C   0  0  0  0  0  0  0  0  0  0  0  0
   37.9540   30.6780   40.7480 C   0  0  0  0  0  0  0  0  0  0  0  0
   36.8800   31.5410   40.5360 C   0  0  0  0  0  0  0  0  0  0  0  0
   37.1030   32.7530   39.8800 C   0  0  0  0  0  0  0  0  0  0  0  0
   38.4010   33.0060   39.4860 C   0  0  0  0  0  0  0  0  0  0  0  0
   39.4570   32.1740   39.6860 C   0  0  0  0  0  0  0  0  0  0  0  0
   35.8890   31.2460   40.8890 H   0  0  0  0  0  0  0  0  0  0  0  0
   36.2420   33.3880   39.7380 H   0  0  0  0  0  0  0  0  0  0  0  0
   38.4330   33.9730   39.0010 H   0  0  0  0  0  0  0  0  0  0  0  0
   37.1560   27.1470   41.3330 C   0  0  0  0  0  0  0  0  0  0  0  0
   37.1360   27.0770   42.7400 C   0  0  0  0  0  0  0  0  0  0  0  0
   37.4000   28.2630   43.4940 C   0  0  0  0  0  0  0  0  0  0  0  0
   37.6580   29.3990   42.7770 N   0  0  0  0  0  0  0  0  0  0  0  0
   37.6670   29.4200   41.4440 C   0  0  0  0  0  0  0  0  0  0  0  0
   37.4190   28.3050   40.7350 N   0  0  0  0  0  0  0  0  0  0  0  0
   36.9270   26.1630   43.2750 H   0  0  0  0  0  0  0  0  0  0  0  0
   37.3970   28.2670   44.5620 H   0  0  0  0  0  0  0  0  0  0  0  0
   36.8920   25.9600   40.6170 N   0  0  0  0  0  0  0  0  0  0  0  0
   36.2890   25.8300   39.7780 H   0  0  0  0  0  0  0  0  0  0  0  0
   37.3400   25.0720   40.9370 H   0  0  0  0  0  0  0  0  0  0  0  0
   40.7090   32.5230   39.2500 O   0  0  0  0  0  0  0  0  0  0  0  0
   42.0710   33.6870   37.2960 O   0  0  0  0  0  0  0  0  0  0  0  0
   41.2540   32.4850   37.6620 P   0  0  2  0  0  0  0  0  0  0  0  0
   39.8860   32.3570   36.6310 O   0  0  0  0  0  0  0  0  0  0  0  0
   39.6070   31.4220   36.6150 H   0  0  0  0  0  0  0  0  0  0  0  0
   42.1620   31.0910   37.3340 O   0  0  0  0  0  0  0  0  0  0  0  0
   41.3970   29.9570   37.3810 C   0  0  0  0  0  3  0  0  0  0  0  0
   42.0010   28.7120   38.0730 C   0  0  0  0  0  2  0  0  0  0  0  0
   41.9380   28.7950   36.5880 C   0  0  0  0  0  2  0  0  0  0  0  0
  2  1  1  0  0  0  0
  2  3  1  0  0  0  0
  3 15  1  0  0  0  0
  4  3  2  0  0  0  0
  4  8  1  0  0  0  0
  5  4  1  0  0  0  0
  6  7  1  0  0  0  0
  6  5  2  0  0  0  0
  7  2  2  0  0  0  0
  9  5  1  0  0  0  0
 10  6  1  0  0  0  0
 11 12  1  0  0  0  0
 12 17  1  0  0  0  0
 12 13  2  0  0  0  0
 13 18  1  0  0  0  0
 14 13  1  0  0  0  0
 15 14  2  0  0  0  0
 16 11  2  0  0  0  0
 16 15  1  0  0  0  0
 19 21  1  0  0  0  0
 19 11  1  0  0  0  0
 20 19  1  0  0  0  0
 22  7  1  0  0  0  0
 24 23  2  6  0  0  0
 24 22  1  0  0  0  0
 25 24  1  0  0  0  0
 26 25  1  0  0  0  0
 27 28  1  0  0  0  0
 27 24  1  0  0  0  0
 28 29  1  0  0  0  0
 30 28  1  0  0  0  0
 30 29  1  0  0  0  0
M  END
>  <minimizedAffinity>
-5.28924274

$$$$

 OpenBabel03252506143D

 30 32  0  0  0  0  0  0  0  0999 V2000
   39.5600   26.9680   40.6900 F   0  0  0  0  0  0  0  0  0  0  0  0
   38.7020   27.2850   41.6590 C   0  0  0  0  0  0  0  0  0  0  0  0
   37.5590   26.5240   41.8240 C   0  0  0  0  0  0  0  0  0  0  0  0
   36.6100   26.7860   42.8110 C   0  0  0  0  0  0  0  0  0  0  0  0
   36.8130   27.8600   43.6790 C   0  0  0  0  0  0  0  0  0  0  0  0
   37.9650   28.5960   43.4840 C   0  0  0  0  0  0  0  0  0  0  0  0
   38.8970   28.3530   42.5260 C   0  0  0  0  0  0  0  0  0  0  0  0
   35.7310   26.1410   42.8810 H   0  0  0  0  0  0  0  0  0  0  0  0
   36.0520   28.0240   44.4270 H   0  0  0  0  0  0  0  0  0  0  0  0
   37.9990   29.3860   44.2230 H   0  0  0  0  0  0  0  0  0  0  0  0
   37.5910   23.1170   40.4690 C   0  0  0  0  0  0  0  0  0  0  0  0
   36.8220   23.2570   39.2970 C   0  0  0  0  0  0  0  0  0  0  0  0
   36.2880   24.5430   38.9720 C   0  0  0  0  0  0  0  0  0  0  0  0
   36.5690   25.5610   39.8420 N   0  0  0  0  0  0  0  0  0  0  0  0
   37.3020   25.3830   40.9410 C   0  0  0  0  0  0  0  0  0  0  0  0
   37.8040   24.1740   41.2470 N   0  0  0  0  0  0  0  0  0  0  0  0
   36.6190   22.4320   38.6310 H   0  0  0  0  0  0  0  0  0  0  0  0
   35.6990   24.7050   38.0960 H   0  0  0  0  0  0  0  0  0  0  0  0
   38.1040   21.8360   40.7640 N   0  0  0  0  0  0  0  0  0  0  0  0
   39.0570   21.5810   41.0970 H   0  0  0  0  0  0  0  0  0  0  0  0
   37.4790   21.0060   40.6450 H   0  0  0  0  0  0  0  0  0  0  0  0
   40.0070   29.1500   42.4190 O   0  0  0  0  0  0  0  0  0  0  0  0
   41.4690   30.4870   40.6570 O   0  0  0  0  0  0  0  0  0  0  0  0
   40.1770   30.4870   41.4170 P   0  0  2  0  0  0  0  0  0  0  0  0
   40.0540   31.8990   42.3870 O   0  0  0  0  0  0  0  0  0  0  0  0
   39.1080   32.0740   42.5490 H   0  0  0  0  0  0  0  0  0  0  0  0
   38.8970   30.6210   40.3130 O   0  0  0  0  0  0  0  0  0  0  0  0
   37.8660   31.3720   40.8090 C   0  0  0  0  0  3  0  0  0  0  0  0
   36.4270   30.8430   40.6050 C   0  0  0  0  0  2  0  0  0  0  0  0
   36.9480   31.9570   39.7670 C   0  0  0  0  0  2  0  0  0  0  0  0
  1  2  1  0  0  0  0
  2  3  2  0  0  0  0
  2  7  1  0  0  0  0
  3  4  1  0  0  0  0
  4  8  1  0  0  0  0
  4  5  2  0  0  0  0
  5  9  1  0  0  0  0
  6  5  1  0  0  0  0
  6 10  1  0  0  0  0
  7  6  2  0  0  0  0
 11 19  1  0  0  0  0
 11 16  1  0  0  0  0
 12 11  2  0  0  0  0
 13 12  1  0  0  0  0
 13 14  2  0  0  0  0
 14 15  1  0  0  0  0
 15 16  2  0  0  0  0
 15  3  1  0  0  0  0
 17 12  1  0  0  0  0
 18 13  1  0  0  0  0
 19 20  1  0  0  0  0
 21 19  1  0  0  0  0
 22  7  1  0  0  0  0
 24 23  2  6  0  0  0
 24 25  1  0  0  0  0
 24 22  1  0  0  0  0
 25 26  1  0  0  0  0
 27 28  1  0  0  0  0
 27 24  1  0  0  0  0
 29 28  1  0  0  0  0
 30 29  1  0  0  0  0
 30 28  1  0  0  0  0
M  END
>  <minimizedAffinity>
-5.20779371

$$$$

 OpenBabel03252506143D

 30 32  0  0  0  0  0  0  0  0999 V2000
   38.1010   27.8910   39.5530 F   0  0  0  0  0  0  0  0  0  0  0  0
   37.9590   27.8650   40.8770 C   0  0  0  0  0  0  0  0  0  0  0  0
   37.7800   26.6500   41.5130 C   0  0  0  0  0  0  0  0  0  0  0  0
   37.6240   26.5320   42.8930 C   0  0  0  0  0  0  0  0  0  0  0  0
   37.6490   27.6850   43.6790 C   0  0  0  0  0  0  0  0  0  0  0  0
   37.8310   28.8780   43.0100 C   0  0  0  0  0  0  0  0  0  0  0  0
   37.9830   29.0080   41.6660 C   0  0  0  0  0  0  0  0  0  0  0  0
   37.4870   25.5370   43.3250 H   0  0  0  0  0  0  0  0  0  0  0  0
   37.5250   27.5440   44.7430 H   0  0  0  0  0  0  0  0  0  0  0  0
   37.8370   29.6830   43.7350 H   0  0  0  0  0  0  0  0  0  0  0  0
   36.5050   23.7610   39.6480 C   0  0  0  0  0  0  0  0  0  0  0  0
   37.6930   23.1000   39.2780 C   0  0  0  0  0  0  0  0  0  0  0  0
   38.9470   23.6580   39.6790 C   0  0  0  0  0  0  0  0  0  0  0  0
   38.8970   24.8170   40.4050 N   0  0  0  0  0  0  0  0  0  0  0  0
   37.7490   25.4090   40.7330 C   0  0  0  0  0  0  0  0  0  0  0  0
   36.5700   24.8850   40.3570 N   0  0  0  0  0  0  0  0  0  0  0  0
   37.6960   22.1850   38.7040 H   0  0  0  0  0  0  0  0  0  0  0  0
   39.8770   23.1990   39.4260 H   0  0  0  0  0  0  0  0  0  0  0  0
   35.2830   23.1860   39.2380 N   0  0  0  0  0  0  0  0  0  0  0  0
   34.4090   23.0610   39.7900 H   0  0  0  0  0  0  0  0  0  0  0  0
   35.2020   22.8260   38.2600 H   0  0  0  0  0  0  0  0  0  0  0  0
   38.1550   30.2460   41.1030 O   0  0  0  0  0  0  0  0  0  0  0  0
   37.3730   32.6490   40.3020 O   0  0  0  0  0  0  0  0  0  0  0  0
   36.9490   31.2200   40.4580 P   0  0  2  0  0  0  0  0  0  0  0  0
   35.5740   31.1140   41.4820 O   0  0  0  0  0  0  0  0  0  0  0  0
   35.0990   30.2900   41.2660 H   0  0  0  0  0  0  0  0  0  0  0  0
   36.4030   30.6480   38.9580 O   0  0  0  0  0  0  0  0  0  0  0  0
   37.1160   31.1750   37.9160 C   0  0  0  0  0  3  0  0  0  0  0  0
   37.3170   30.2900   36.6630 C   0  0  0  0  0  2  0  0  0  0  0  0
   38.4280   30.4880   37.6340 C   0  0  0  0  0  2  0  0  0  0  0  0
  1  2  1  0  0  0  0
  2  3  2  0  0  0  0
  2  7  1  0  0  0  0
  3  4  1  0  0  0  0
  4  8  1  0  0  0  0
  4  5  2  0  0  0  0
  5  9  1  0  0  0  0
  6  5  1  0  0  0  0
  6 10  1  0  0  0  0
  7  6  2  0  0  0  0
 11 16  1  0  0  0  0
 12 11  2  0  0  0  0
 12 13  1  0  0  0  0
 13 14  2  0  0  0  0
 14 15  1  0  0  0  0
 15  3  1  0  0  0  0
 16 15  2  0  0  0  0
 17 12  1  0  0  0  0
 18 13  1  0  0  0  0
 19 11  1  0  0  0  0
 19 20  1  0  0  0  0
 21 19  1  0  0  0  0
 22  7  1  0  0  0  0
 24 23  2  6  0  0  0
 24 22  1  0  0  0  0
 24 25  1  0  0  0  0
 26 25  1  0  0  0  0
 27 24  1  0  0  0  0
 28 27  1  0  0  0  0
 29 30  1  0  0  0  0
 29 28  1  0  0  0  0
 30 28  1  0  0  0  0
M  END
>  <minimizedAffinity>
-5.20083189

$$$$

 OpenBabel03252506143D

 30 32  0  0  0  0  0  0  0  0999 V2000
   39.8160   30.3900   39.7210 F   0  0  0  0  0  0  0  0  0  0  0  0
   39.2220   31.5820   39.7610 C   0  0  0  0  0  0  0  0  0  0  0  0
   39.9780   32.7030   40.0560 C   0  0  0  0  0  0  0  0  0  0  0  0
   39.4380   33.9860   40.1180 C   0  0  0  0  0  0  0  0  0  0  0  0
   38.0750   34.1610   39.8730 C   0  0  0  0  0  0  0  0  0  0  0  0
   37.3540   33.0210   39.5810 C   0  0  0  0  0  0  0  0  0  0  0  0
   37.8670   31.7640   39.5180 C   0  0  0  0  0  0  0  0  0  0  0  0
   40.0970   34.8240   40.3570 H   0  0  0  0  0  0  0  0  0  0  0  0
   37.7020   35.1730   39.9320 H   0  0  0  0  0  0  0  0  0  0  0  0
   36.3230   33.2990   39.4070 H   0  0  0  0  0  0  0  0  0  0  0  0
   43.6050   32.6340   39.5180 C   0  0  0  0  0  0  0  0  0  0  0  0
   44.0890   32.3320   40.8060 C   0  0  0  0  0  0  0  0  0  0  0  0
   43.1520   32.1500   41.8710 C   0  0  0  0  0  0  0  0  0  0  0  0
   41.8290   32.2860   41.5520 N   0  0  0  0  0  0  0  0  0  0  0  0
   41.4140   32.5730   40.3180 C   0  0  0  0  0  0  0  0  0  0  0  0
   42.2950   32.7440   39.3160 N   0  0  0  0  0  0  0  0  0  0  0  0
   45.1420   32.2310   41.0240 H   0  0  0  0  0  0  0  0  0  0  0  0
   43.4650   31.9200   42.8650 H   0  0  0  0  0  0  0  0  0  0  0  0
   44.5530   32.8080   38.4880 N   0  0  0  0  0  0  0  0  0  0  0  0
   44.5250   32.4430   37.5130 H   0  0  0  0  0  0  0  0  0  0  0  0
   45.4120   33.3700   38.6870 H   0  0  0  0  0  0  0  0  0  0  0  0
   37.0580   30.6980   39.2210 O   0  0  0  0  0  0  0  0  0  0  0  0
   35.1250   28.9440   39.6850 O   0  0  0  0  0  0  0  0  0  0  0  0
   36.2070   29.7600   40.3240 P   0  0  2  0  0  0  0  0  0  0  0  0
   35.5410   30.8070   41.5130 O   0  0  0  0  0  0  0  0  0  0  0  0
   36.2430   31.0210   42.1550 H   0  0  0  0  0  0  0  0  0  0  0  0
   37.2240   28.7240   41.1980 O   0  0  0  0  0  0  0  0  0  0  0  0
   37.4580   29.1820   42.4670 C   0  0  0  0  0  3  0  0  0  0  0  0
   38.9200   29.5070   42.8560 C   0  0  0  0  0  2  0  0  0  0  0  0
   38.2710   28.2560   43.3350 C   0  0  0  0  0  2  0  0  0  0  0  0
  1  2  1  0  0  0  0
  2  3  1  0  0  0  0
  3  4  2  0  0  0  0
  3 15  1  0  0  0  0
  4  8  1  0  0  0  0
  5  9  1  0  0  0  0
  5  4  1  0  0  0  0
  6  5  2  0  0  0  0
  7  6  1  0  0  0  0
  7  2  2  0  0  0  0
 10  6  1  0  0  0  0
 11 12  1  0  0  0  0
 12 17  1  0  0  0  0
 12 13  2  0  0  0  0
 13 18  1  0  0  0  0
 14 13  1  0  0  0  0
 15 14  2  0  0  0  0
 16 11  2  0  0  0  0
 16 15  1  0  0  0  0
 19 21  1  0  0  0  0
 19 11  1  0  0  0  0
 20 19  1  0  0  0  0
 22  7  1  0  0  0  0
 22 24  1  0  0  0  0
 24 23  2  6  0  0  0
 24 27  1  0  0  0  0
 24 25  1  0  0  0  0
 25 26  1  0  0  0  0
 27 28  1  0  0  0  0
 28 29  1  0  0  0  0
 28 30  1  0  0  0  0
 29 30  1  0  0  0  0
M  END
>  <minimizedAffinity>
-5.12917328

$$$$

 OpenBabel03252506143D

 30 32  0  0  0  0  0  0  0  0999 V2000
   39.5000   28.5550   39.7150 F   0  0  0  0  0  0  0  0  0  0  0  0
   38.2160   28.8130   39.9610 C   0  0  0  0  0  0  0  0  0  0  0  0
   37.6060   28.2190   41.0520 C   0  0  0  0  0  0  0  0  0  0  0  0
   36.2690   28.4330   41.3820 C   0  0  0  0  0  0  0  0  0  0  0  0
   35.5020   29.2840   40.5850 C   0  0  0  0  0  0  0  0  0  0  0  0
   36.1440   29.8580   39.5070 C   0  0  0  0  0  0  0  0  0  0  0  0
   37.4460   29.6580   39.1720 C   0  0  0  0  0  0  0  0  0  0  0  0
   35.8560   27.9290   42.2590 H   0  0  0  0  0  0  0  0  0  0  0  0
   34.4720   29.4200   40.8800 H   0  0  0  0  0  0  0  0  0  0  0  0
   35.4410   30.4940   38.9850 H   0  0  0  0  0  0  0  0  0  0  0  0
   38.9070   25.1440   42.5690 C   0  0  0  0  0  0  0  0  0  0  0  0
   39.7940   25.6460   43.5420 C   0  0  0  0  0  0  0  0  0  0  0  0
   39.9430   27.0630   43.6740 C   0  0  0  0  0  0  0  0  0  0  0  0
   39.1980   27.8390   42.8290 N   0  0  0  0  0  0  0  0  0  0  0  0
   38.3700   27.3200   41.9220 C   0  0  0  0  0  0  0  0  0  0  0  0
   38.2300   25.9890   41.7970 N   0  0  0  0  0  0  0  0  0  0  0  0
   40.3670   25.0050   44.1950 H   0  0  0  0  0  0  0  0  0  0  0  0
   40.6000   27.4970   44.3950 H   0  0  0  0  0  0  0  0  0  0  0  0
   38.7810   23.7430   42.4620 N   0  0  0  0  0  0  0  0  0  0  0  0
   37.9140   23.1760   42.3530 H   0  0  0  0  0  0  0  0  0  0  0  0
   39.6480   23.1590   42.4910 H   0  0  0  0  0  0  0  0  0  0  0  0
   37.9850   30.2790   38.0760 O   0  0  0  0  0  0  0  0  0  0  0  0
   38.6270   32.6300   39.1200 O   0  0  0  0  0  0  0  0  0  0  0  0
   39.0120   31.6080   38.0930 P   0  0  2  0  0  0  0  0  0  0  0  0
   39.0070   32.3070   36.5240 O   0  0  0  0  0  0  0  0  0  0  0  0
   39.6050   31.7840   35.9590 H   0  0  0  0  0  0  0  0  0  0  0  0
   40.6270   31.1620   38.3510 O   0  0  0  0  0  0  0  0  0  0  0  0
   41.0670   30.2620   37.4180 C   0  0  0  0  0  3  0  0  0  0  0  0
   42.3270   29.4320   37.7580 C   0  0  0  0  0  2  0  0  0  0  0  0
   42.4100   30.5790   36.8140 C   0  0  0  0  0  2  0  0  0  0  0  0
  1  2  1  0  0  0  0
  2  3  1  0  0  0  0
  3  4  2  0  0  0  0
  3 15  1  0  0  0  0
  4  8  1  0  0  0  0
  5  9  1  0  0  0  0
  5  4  1  0  0  0  0
  6  5  2  0  0  0  0
  7  6  1  0  0  0  0
  7  2  2  0  0  0  0
 10  6  1  0  0  0  0
 11 12  1  0  0  0  0
 12 13  2  0  0  0  0
 12 17  1  0  0  0  0
 13 18  1  0  0  0  0
 14 13  1  0  0  0  0
 15 14  2  0  0  0  0
 16 15  1  0  0  0  0
 16 11  2  0  0  0  0
 19 21  1  0  0  0  0
 19 11  1  0  0  0  0
 20 19  1  0  0  0  0
 22 24  1  0  0  0  0
 22  7  1  0  0  0  0
 24 27  1  0  0  0  0
 24 23  2  1  0  0  0
 25 24  1  0  0  0  0
 26 25  1  0  0  0  0
 28 29  1  0  0  0  0
 28 27  1  0  0  0  0
 30 28  1  0  0  0  0
 30 29  1  0  0  0  0
M  END
>  <minimizedAffinity>
-5.12283421

$$$$

 OpenBabel03252506143D

 30 32  0  0  0  0  0  0  0  0999 V2000
   39.2220   29.5570   39.0720 F   0  0  0  0  0  0  0  0  0  0  0  0
   38.7800   30.7830   39.3490 C   0  0  0  0  0  0  0  0  0  0  0  0
   37.6000   31.2200   38.7740 C   0  0  0  0  0  0  0  0  0  0  0  0
   37.0650   32.4850   39.0100 C   0  0  0  0  0  0  0  0  0  0  0  0
   37.7410   33.3590   39.8630 C   0  0  0  0  0  0  0  0  0  0  0  0
   38.9130   32.8880   40.4180 C   0  0  0  0  0  0  0  0  0  0  0  0
   39.4470   31.6580   40.1970 C   0  0  0  0  0  0  0  0  0  0  0  0
   36.1280   32.7610   38.5200 H   0  0  0  0  0  0  0  0  0  0  0  0
   37.2890   34.3280   40.0160 H   0  0  0  0  0  0  0  0  0  0  0  0
   39.3260   33.6570   41.0580 H   0  0  0  0  0  0  0  0  0  0  0  0
   36.6730   29.2840   35.8000 C   0  0  0  0  0  0  0  0  0  0  0  0
   35.4550   28.6980   36.1960 C   0  0  0  0  0  0  0  0  0  0  0  0
   34.9490   28.9750   37.5050 C   0  0  0  0  0  0  0  0  0  0  0  0
   35.7020   29.8050   38.2900 N   0  0  0  0  0  0  0  0  0  0  0  0
   36.8500   30.3390   37.8730 C   0  0  0  0  0  0  0  0  0  0  0  0
   37.3260   30.0790   36.6430 N   0  0  0  0  0  0  0  0  0  0  0  0
   34.8850   28.0460   35.5520 H   0  0  0  0  0  0  0  0  0  0  0  0
   34.0320   28.5570   37.8570 H   0  0  0  0  0  0  0  0  0  0  0  0
   37.1470   28.9930   34.5030 N   0  0  0  0  0  0  0  0  0  0  0  0
   37.5560   29.6440   33.8010 H   0  0  0  0  0  0  0  0  0  0  0  0
   37.0980   28.0050   34.1630 H   0  0  0  0  0  0  0  0  0  0  0  0
   40.6220   31.2910   40.8000 O   0  0  0  0  0  0  0  0  0  0  0  0
   41.6710   31.3050   43.2340 O   0  0  0  0  0  0  0  0  0  0  0  0
   40.7780   30.5480   42.2980 P   0  0  2  0  0  0  0  0  0  0  0  0
   41.3860   28.9610   42.0460 O   0  0  0  0  0  0  0  0  0  0  0  0
   40.6410   28.3910   41.7810 H   0  0  0  0  0  0  0  0  0  0  0  0
   39.2780   30.3100   43.0510 O   0  0  0  0  0  0  0  0  0  0  0  0
   38.7250   29.1010   42.7260 C   0  0  0  0  0  3  0  0  0  0  0  0
   37.2320   29.0790   42.3210 C   0  0  0  0  0  2  0  0  0  0  0  0
   37.6560   28.6180   43.6710 C   0  0  0  0  0  2  0  0  0  0  0  0
  1  2  1  0  0  0  0
  2  7  1  0  0  0  0
  3  4  1  0  0  0  0
  3  2  2  0  0  0  0
  4  5  2  0  0  0  0
  5  9  1  0  0  0  0
  5  6  1  0  0  0  0
  6 10  1  0  0  0  0
  7  6  2  0  0  0  0
  7 22  1  0  0  0  0
  8  4  1  0  0  0  0
 11 12  2  0  0  0  0
 11 16  1  0  0  0  0
 12 13  1  0  0  0  0
 13 18  1  0  0  0  0
 13 14  2  0  0  0  0
 15 14  1  0  0  0  0
 15  3  1  0  0  0  0
 16 15  2  0  0  0  0
 17 12  1  0  0  0  0
 19 11  1  0  0  0  0
 20 19  1  0  0  0  0
 21 19  1  0  0  0  0
 22 24  1  0  0  0  0
 24 27  1  0  0  0  0
 24 23  2  1  0  0  0
 25 24  1  0  0  0  0
 26 25  1  0  0  0  0
 28 27  1  0  0  0  0
 28 30  1  0  0  0  0
 29 28  1  0  0  0  0
 29 30  1  0  0  0  0
M  END
>  <minimizedAffinity>
-5.02988434

$$$$
