
 OpenBabel03242513003D

 29 32  0  0  0  0  0  0  0  0999 V2000
   40.3080   30.0700   40.2860 F   0  0  0  0  0  0  0  0  0  0  0  0
   39.1220   30.7290   40.2470 C   0  0  0  0  0  0  0  0  0  0  0  0
   38.9770   31.8780   39.5070 C   0  0  0  0  0  0  0  0  0  0  0  0
   37.7310   32.4750   39.5320 C   0  0  0  0  0  0  0  0  0  0  0  0
   36.6670   31.9920   40.2340 C   0  0  0  0  0  0  0  0  0  0  0  0
   36.8710   30.8350   40.9580 C   0  0  0  0  0  0  0  0  0  0  0  0
   38.0930   30.1950   40.9720 C   0  0  0  0  0  0  0  0  0  0  0  0
   37.6000   33.3850   38.9520 H   0  0  0  0  0  0  0  0  0  0  0  0
   35.6970   32.4600   40.2500 H   0  0  0  0  0  0  0  0  0  0  0  0
   36.0770   30.3940   41.5370 H   0  0  0  0  0  0  0  0  0  0  0  0
   41.8870   34.0140   38.3510 C   0  0  0  0  0  0  0  0  0  0  0  0
   40.7780   33.5690   39.0950 C   0  0  0  0  0  0  0  0  0  0  0  0
   40.1220   32.3740   38.7680 C   0  0  0  0  0  0  0  0  0  0  0  0
   40.6290   31.6890   37.6970 N   0  0  0  0  0  0  0  0  0  0  0  0
   41.6980   32.1410   37.0000 C   0  0  0  0  0  0  0  0  0  0  0  0
   42.3140   33.2860   37.3260 N   0  0  0  0  0  0  0  0  0  0  0  0
   42.3920   34.9340   38.6010 H   0  0  0  0  0  0  0  0  0  0  0  0
   40.4330   34.1480   39.9160 H   0  0  0  0  0  0  0  0  0  0  0  0
   41.9570   31.4680   36.1870 H   0  0  0  0  0  0  0  0  0  0  0  0
   38.2890   28.9730   41.7420 C   0  0  0  0  0  0  0  0  0  0  0  0
   38.6240   28.8770   43.0760 C   0  0  0  0  0  0  0  0  0  0  0  0
   38.7110   27.5330   43.4080 C   0  0  0  0  0  0  0  0  0  0  0  0
   38.4270   26.8600   42.2660 N   0  0  0  0  0  0  0  0  0  0  0  0
   38.1730   27.7010   41.2600 N   0  0  0  0  0  0  0  0  0  0  0  0
   38.7920   29.6990   43.7600 H   0  0  0  0  0  0  0  0  0  0  0  0
   38.9520   27.1130   44.3670 H   0  0  0  0  0  0  0  0  0  0  0  0
   38.3940   25.4140   42.1170 C   0  0  0  0  0  3  0  0  0  0  0  0
   36.9900   24.7530   42.1610 C   0  0  0  0  0  2  0  0  0  0  0  0
   37.8260   24.7920   40.9160 C   0  0  0  0  0  2  0  0  0  0  0  0
  2  1  1  0  0  0  0
  2  7  1  0  0  0  0
  3  4  1  0  0  0  0
  3  2  2  0  0  0  0
  4  5  2  0  0  0  0
  5  9  1  0  0  0  0
  5  6  1  0  0  0  0
  6  7  2  0  0  0  0
  6 10  1  0  0  0  0
  7 20  1  0  0  0  0
  8  4  1  0  0  0  0
 11 17  1  0  0  0  0
 11 12  1  0  0  0  0
 12 18  1  0  0  0  0
 13 12  2  0  0  0  0
 13  3  1  0  0  0  0
 14 13  1  0  0  0  0
 15 16  1  0  0  0  0
 15 14  2  0  0  0  0
 16 11  2  0  0  0  0
 19 15  1  0  0  0  0
 20 21  1  0  0  0  0
 21 22  2  0  0  0  0
 21 25  1  0  0  0  0
 22 26  1  0  0  0  0
 23 22  1  0  0  0  0
 24 20  2  0  0  0  0
 24 23  1  0  0  0  0
 27 28  1  0  0  0  0
 27 23  1  0  0  0  0
 29 27  1  0  0  0  0
 29 28  1  0  0  0  0
M  END
>  <minimizedAffinity>
-5.15813828

$$$$

 OpenBabel03242513003D

 29 32  0  0  0  0  0  0  0  0999 V2000
   40.3570   30.4720   41.1090 F   0  0  0  0  0  0  0  0  0  0  0  0
   39.1660   31.0360   40.7840 C   0  0  0  0  0  0  0  0  0  0  0  0
   39.1120   32.2180   40.0840 C   0  0  0  0  0  0  0  0  0  0  0  0
   37.8530   32.7100   39.8000 C   0  0  0  0  0  0  0  0  0  0  0  0
   36.6920   32.0980   40.1690 C   0  0  0  0  0  0  0  0  0  0  0  0
   36.8080   30.9140   40.8700 C   0  0  0  0  0  0  0  0  0  0  0  0
   38.0380   30.3730   41.1820 C   0  0  0  0  0  0  0  0  0  0  0  0
   37.7930   33.6440   39.2480 H   0  0  0  0  0  0  0  0  0  0  0  0
   35.7130   32.4850   39.9470 H   0  0  0  0  0  0  0  0  0  0  0  0
   35.9350   30.3730   41.1950 H   0  0  0  0  0  0  0  0  0  0  0  0
   42.0660   33.4590   38.0580 C   0  0  0  0  0  0  0  0  0  0  0  0
   40.8510   32.8300   38.3880 C   0  0  0  0  0  0  0  0  0  0  0  0
   40.3580   32.8520   39.7010 C   0  0  0  0  0  0  0  0  0  0  0  0
   41.1320   33.5150   40.6160 N   0  0  0  0  0  0  0  0  0  0  0  0
   42.2970   34.1110   40.2700 C   0  0  0  0  0  0  0  0  0  0  0  0
   42.7520   34.0800   39.0090 N   0  0  0  0  0  0  0  0  0  0  0  0
   42.4460   33.4420   37.0490 H   0  0  0  0  0  0  0  0  0  0  0  0
   40.2980   32.3320   37.6300 H   0  0  0  0  0  0  0  0  0  0  0  0
   42.7700   34.5860   41.1250 H   0  0  0  0  0  0  0  0  0  0  0  0
   38.1400   29.1220   41.9220 C   0  0  0  0  0  0  0  0  0  0  0  0
   38.2180   28.9690   43.2900 C   0  0  0  0  0  0  0  0  0  0  0  0
   38.3020   27.6140   43.5730 C   0  0  0  0  0  0  0  0  0  0  0  0
   38.2720   26.9920   42.3700 N   0  0  0  0  0  0  0  0  0  0  0  0
   38.1770   27.8730   41.3720 N   0  0  0  0  0  0  0  0  0  0  0  0
   38.2140   29.7600   44.0280 H   0  0  0  0  0  0  0  0  0  0  0  0
   38.3750   27.1550   44.5410 H   0  0  0  0  0  0  0  0  0  0  0  0
   38.3360   25.5550   42.1540 C   0  0  0  0  0  3  0  0  0  0  0  0
   36.9770   24.8060   42.1300 C   0  0  0  0  0  2  0  0  0  0  0  0
   37.8380   24.9560   40.9110 C   0  0  0  0  0  2  0  0  0  0  0  0
  2  1  1  0  0  0  0
  2  7  1  0  0  0  0
  3  2  2  0  0  0  0
  4  3  1  0  0  0  0
  4  5  2  0  0  0  0
  5  6  1  0  0  0  0
  6  7  2  0  0  0  0
  6 10  1  0  0  0  0
  7 20  1  0  0  0  0
  8  4  1  0  0  0  0
  9  5  1  0  0  0  0
 11 12  2  0  0  0  0
 11 16  1  0  0  0  0
 12 13  1  0  0  0  0
 13  3  1  0  0  0  0
 13 14  2  0  0  0  0
 15 14  1  0  0  0  0
 15 19  1  0  0  0  0
 16 15  2  0  0  0  0
 17 11  1  0  0  0  0
 18 12  1  0  0  0  0
 20 21  1  0  0  0  0
 21 22  2  0  0  0  0
 21 25  1  0  0  0  0
 22 26  1  0  0  0  0
 23 22  1  0  0  0  0
 24 20  2  0  0  0  0
 24 23  1  0  0  0  0
 27 23  1  0  0  0  0
 28 27  1  0  0  0  0
 29 28  1  0  0  0  0
 29 27  1  0  0  0  0
M  END
>  <minimizedAffinity>
-5.15060282

$$$$

 OpenBabel03242513003D

 29 32  0  0  0  0  0  0  0  0999 V2000
   33.4040   28.9840   38.9590 F   0  0  0  0  0  0  0  0  0  0  0  0
   34.2120   29.0930   37.8740 C   0  0  0  0  0  0  0  0  0  0  0  0
   33.6990   29.0190   36.6000 C   0  0  0  0  0  0  0  0  0  0  0  0
   34.6020   29.1420   35.5630 C   0  0  0  0  0  0  0  0  0  0  0  0
   35.9420   29.3300   35.7340 C   0  0  0  0  0  0  0  0  0  0  0  0
   36.4000   29.3970   37.0340 C   0  0  0  0  0  0  0  0  0  0  0  0
   35.5460   29.2810   38.1110 C   0  0  0  0  0  0  0  0  0  0  0  0
   34.2120   29.0850   34.5500 H   0  0  0  0  0  0  0  0  0  0  0  0
   36.6420   29.4250   34.9220 H   0  0  0  0  0  0  0  0  0  0  0  0
   37.4460   29.5440   37.2480 H   0  0  0  0  0  0  0  0  0  0  0  0
   29.9490   29.5710   36.5870 C   0  0  0  0  0  0  0  0  0  0  0  0
   31.3260   29.8050   36.7560 C   0  0  0  0  0  0  0  0  0  0  0  0
   32.2720   28.8190   36.4420 C   0  0  0  0  0  0  0  0  0  0  0  0
   31.7650   27.6380   35.9690 N   0  0  0  0  0  0  0  0  0  0  0  0
   30.4350   27.4400   35.8160 C   0  0  0  0  0  0  0  0  0  0  0  0
   29.5450   28.3950   36.1220 N   0  0  0  0  0  0  0  0  0  0  0  0
   29.2210   30.3290   36.8290 H   0  0  0  0  0  0  0  0  0  0  0  0
   31.6540   30.7450   37.1280 H   0  0  0  0  0  0  0  0  0  0  0  0
   30.2220   26.4470   35.4300 H   0  0  0  0  0  0  0  0  0  0  0  0
   36.0490   29.3550   39.4770 C   0  0  0  0  0  0  0  0  0  0  0  0
   36.1210   30.4760   40.2760 C   0  0  0  0  0  0  0  0  0  0  0  0
   36.6630   30.1070   41.4980 C   0  0  0  0  0  0  0  0  0  0  0  0
   36.9010   28.7770   41.3990 N   0  0  0  0  0  0  0  0  0  0  0  0
   36.5430   28.3080   40.2010 N   0  0  0  0  0  0  0  0  0  0  0  0
   35.8110   31.4780   40.0100 H   0  0  0  0  0  0  0  0  0  0  0  0
   36.8530   30.7400   42.3440 H   0  0  0  0  0  0  0  0  0  0  0  0
   37.4720   27.9360   42.4390 C   0  0  0  0  0  3  0  0  0  0  0  0
   36.4900   27.4410   43.5350 C   0  0  0  0  0  2  0  0  0  0  0  0
   37.1210   26.5140   42.5380 C   0  0  0  0  0  2  0  0  0  0  0  0
  2  7  1  0  0  0  0
  2  1  1  0  0  0  0
  3  2  2  0  0  0  0
  4  5  2  0  0  0  0
  4  3  1  0  0  0  0
  5  6  1  0  0  0  0
  6 10  1  0  0  0  0
  6  7  2  0  0  0  0
  7 20  1  0  0  0  0
  8  4  1  0  0  0  0
  9  5  1  0  0  0  0
 11 12  1  0  0  0  0
 11 17  1  0  0  0  0
 12 18  1  0  0  0  0
 13  3  1  0  0  0  0
 13 12  2  0  0  0  0
 14 13  1  0  0  0  0
 15 14  2  0  0  0  0
 15 16  1  0  0  0  0
 16 11  2  0  0  0  0
 19 15  1  0  0  0  0
 20 24  2  0  0  0  0
 20 21  1  0  0  0  0
 21 22  2  0  0  0  0
 22 26  1  0  0  0  0
 23 22  1  0  0  0  0
 23 27  1  0  0  0  0
 24 23  1  0  0  0  0
 25 21  1  0  0  0  0
 27 29  1  0  0  0  0
 27 28  1  0  0  0  0
 29 28  1  0  0  0  0
M  END
>  <minimizedAffinity>
-5.13809824

$$$$

 OpenBabel03242513003D

 29 32  0  0  0  0  0  0  0  0999 V2000
   37.6700   27.5230   39.6230 F   0  0  0  0  0  0  0  0  0  0  0  0
   37.5310   27.7480   40.9550 C   0  0  0  0  0  0  0  0  0  0  0  0
   37.6200   29.0200   41.4700 C   0  0  0  0  0  0  0  0  0  0  0  0
   37.4640   29.1440   42.8360 C   0  0  0  0  0  0  0  0  0  0  0  0
   37.2310   28.0970   43.6770 C   0  0  0  0  0  0  0  0  0  0  0  0
   37.1510   26.8440   43.1050 C   0  0  0  0  0  0  0  0  0  0  0  0
   37.2980   26.6570   41.7460 C   0  0  0  0  0  0  0  0  0  0  0  0
   37.5330   30.1440   43.2590 H   0  0  0  0  0  0  0  0  0  0  0  0
   37.1100   28.1990   44.7430 H   0  0  0  0  0  0  0  0  0  0  0  0
   36.9690   25.9690   43.7060 H   0  0  0  0  0  0  0  0  0  0  0  0
   37.1300   31.9970   39.1740 C   0  0  0  0  0  0  0  0  0  0  0  0
   36.8460   30.9390   40.0590 C   0  0  0  0  0  0  0  0  0  0  0  0
   37.8680   30.1190   40.5570 C   0  0  0  0  0  0  0  0  0  0  0  0
   39.1340   30.4170   40.1280 N   0  0  0  0  0  0  0  0  0  0  0  0
   39.3780   31.4400   39.2760 C   0  0  0  0  0  0  0  0  0  0  0  0
   38.3880   32.2150   38.8100 N   0  0  0  0  0  0  0  0  0  0  0  0
   36.3440   32.6280   38.7910 H   0  0  0  0  0  0  0  0  0  0  0  0
   35.8420   30.7610   40.3540 H   0  0  0  0  0  0  0  0  0  0  0  0
   40.4370   31.5250   39.0480 H   0  0  0  0  0  0  0  0  0  0  0  0
   37.2100   25.3260   41.1590 C   0  0  0  0  0  0  0  0  0  0  0  0
   37.9610   24.2190   41.4940 C   0  0  0  0  0  0  0  0  0  0  0  0
   37.5570   23.1600   40.6940 C   0  0  0  0  0  0  0  0  0  0  0  0
   36.5770   23.6600   39.9030 N   0  0  0  0  0  0  0  0  0  0  0  0
   36.3540   24.9500   40.1640 N   0  0  0  0  0  0  0  0  0  0  0  0
   38.7340   24.1690   42.2480 H   0  0  0  0  0  0  0  0  0  0  0  0
   37.9400   22.1570   40.7000 H   0  0  0  0  0  0  0  0  0  0  0  0
   35.8410   22.9190   38.8910 C   0  0  0  0  0  3  0  0  0  0  0  0
   34.3860   22.5210   39.2550 C   0  0  0  0  0  2  0  0  0  0  0  0
   34.7050   23.5260   38.1880 C   0  0  0  0  0  2  0  0  0  0  0  0
  1  2  1  0  0  0  0
  2  3  2  0  0  0  0
  2  7  1  0  0  0  0
  3  4  1  0  0  0  0
  4  8  1  0  0  0  0
  4  5  2  0  0  0  0
  5  9  1  0  0  0  0
  6  5  1  0  0  0  0
  6 10  1  0  0  0  0
  7  6  2  0  0  0  0
 11 12  1  0  0  0  0
 12 18  1  0  0  0  0
 12 13  2  0  0  0  0
 13  3  1  0  0  0  0
 14 13  1  0  0  0  0
 15 14  2  0  0  0  0
 16 11  2  0  0  0  0
 16 15  1  0  0  0  0
 17 11  1  0  0  0  0
 19 15  1  0  0  0  0
 20 21  1  0  0  0  0
 20  7  1  0  0  0  0
 21 25  1  0  0  0  0
 22 26  1  0  0  0  0
 22 21  2  0  0  0  0
 23 24  1  0  0  0  0
 23 22  1  0  0  0  0
 24 20  2  0  0  0  0
 27 28  1  0  0  0  0
 27 23  1  0  0  0  0
 29 27  1  0  0  0  0
 29 28  1  0  0  0  0
M  END
>  <minimizedAffinity>
-5.08540773

$$$$

 OpenBabel03242513003D

 29 32  0  0  0  0  0  0  0  0999 V2000
   37.8370   27.9280   39.6090 F   0  0  0  0  0  0  0  0  0  0  0  0
   37.6360   27.8450   40.9490 C   0  0  0  0  0  0  0  0  0  0  0  0
   37.5500   26.6250   41.5770 C   0  0  0  0  0  0  0  0  0  0  0  0
   37.3450   26.6470   42.9430 C   0  0  0  0  0  0  0  0  0  0  0  0
   37.2280   27.7880   43.6800 C   0  0  0  0  0  0  0  0  0  0  0  0
   37.3230   28.9830   42.9970 C   0  0  0  0  0  0  0  0  0  0  0  0
   37.5280   29.0250   41.6330 C   0  0  0  0  0  0  0  0  0  0  0  0
   37.2740   25.6900   43.4530 H   0  0  0  0  0  0  0  0  0  0  0  0
   37.0680   27.8000   44.7440 H   0  0  0  0  0  0  0  0  0  0  0  0
   37.2410   29.9260   43.5110 H   0  0  0  0  0  0  0  0  0  0  0  0
   36.7410   23.4990   39.5900 C   0  0  0  0  0  0  0  0  0  0  0  0
   36.5740   24.6590   40.3710 C   0  0  0  0  0  0  0  0  0  0  0  0
   37.6770   25.4250   40.7730 C   0  0  0  0  0  0  0  0  0  0  0  0
   38.9010   24.9700   40.3600 N   0  0  0  0  0  0  0  0  0  0  0  0
   39.0320   23.8510   39.6100 C   0  0  0  0  0  0  0  0  0  0  0  0
   37.9650   23.1310   39.2330 N   0  0  0  0  0  0  0  0  0  0  0  0
   35.8930   22.9100   39.2800 H   0  0  0  0  0  0  0  0  0  0  0  0
   35.5960   24.9580   40.6580 H   0  0  0  0  0  0  0  0  0  0  0  0
   40.0730   23.6460   39.3780 H   0  0  0  0  0  0  0  0  0  0  0  0
   37.6260   30.2970   40.9290 C   0  0  0  0  0  0  0  0  0  0  0  0
   36.5860   31.1040   40.5220 C   0  0  0  0  0  0  0  0  0  0  0  0
   37.1190   32.2180   39.8890 C   0  0  0  0  0  0  0  0  0  0  0  0
   38.4620   32.0490   39.9340 N   0  0  0  0  0  0  0  0  0  0  0  0
   38.7870   30.9090   40.5500 N   0  0  0  0  0  0  0  0  0  0  0  0
   35.5300   30.9150   40.6640 H   0  0  0  0  0  0  0  0  0  0  0  0
   36.5810   33.0400   39.4560 H   0  0  0  0  0  0  0  0  0  0  0  0
   39.4530   32.9660   39.3930 C   0  0  0  0  0  3  0  0  0  0  0  0
   39.8550   34.1560   40.3060 C   0  0  0  0  0  2  0  0  0  0  0  0
   40.8020   33.0430   39.9660 C   0  0  0  0  0  2  0  0  0  0  0  0
  1  2  1  0  0  0  0
  2  3  2  0  0  0  0
  2  7  1  0  0  0  0
  3  4  1  0  0  0  0
  4  8  1  0  0  0  0
  4  5  2  0  0  0  0
  5  9  1  0  0  0  0
  6 10  1  0  0  0  0
  6  5  1  0  0  0  0
  7  6  2  0  0  0  0
 11 12  1  0  0  0  0
 12 18  1  0  0  0  0
 12 13  2  0  0  0  0
 13  3  1  0  0  0  0
 14 13  1  0  0  0  0
 15 14  2  0  0  0  0
 16 11  2  0  0  0  0
 16 15  1  0  0  0  0
 17 11  1  0  0  0  0
 19 15  1  0  0  0  0
 20  7  1  0  0  0  0
 21 25  1  0  0  0  0
 21 20  1  0  0  0  0
 22 23  1  0  0  0  0
 22 21  2  0  0  0  0
 23 24  1  0  0  0  0
 24 20  2  0  0  0  0
 26 22  1  0  0  0  0
 27 23  1  0  0  0  0
 27 29  1  0  0  0  0
 27 28  1  0  0  0  0
 29 28  1  0  0  0  0
M  END
>  <minimizedAffinity>
-5.07315302

$$$$

 OpenBabel03242513003D

 29 32  0  0  0  0  0  0  0  0999 V2000
   38.8370   27.5880   40.1690 F   0  0  0  0  0  0  0  0  0  0  0  0
   38.1140   27.5990   41.3180 C   0  0  0  0  0  0  0  0  0  0  0  0
   37.4170   26.4860   41.7260 C   0  0  0  0  0  0  0  0  0  0  0  0
   36.7120   26.5980   42.9090 C   0  0  0  0  0  0  0  0  0  0  0  0
   36.6750   27.7270   43.6720 C   0  0  0  0  0  0  0  0  0  0  0  0
   37.3940   28.8130   43.2140 C   0  0  0  0  0  0  0  0  0  0  0  0
   38.1160   28.7610   42.0400 C   0  0  0  0  0  0  0  0  0  0  0  0
   36.1560   25.7270   43.2440 H   0  0  0  0  0  0  0  0  0  0  0  0
   36.1240   27.8100   44.5930 H   0  0  0  0  0  0  0  0  0  0  0  0
   37.4120   29.7400   43.7630 H   0  0  0  0  0  0  0  0  0  0  0  0
   38.4110   23.1230   40.2870 C   0  0  0  0  0  0  0  0  0  0  0  0
   38.3930   24.2630   41.1140 C   0  0  0  0  0  0  0  0  0  0  0  0
   37.4710   25.2970   40.8990 C   0  0  0  0  0  0  0  0  0  0  0  0
   36.6100   25.1190   39.8490 N   0  0  0  0  0  0  0  0  0  0  0  0
   36.6500   24.0130   39.0700 C   0  0  0  0  0  0  0  0  0  0  0  0
   37.5390   23.0330   39.2900 N   0  0  0  0  0  0  0  0  0  0  0  0
   39.1200   22.3270   40.4520 H   0  0  0  0  0  0  0  0  0  0  0  0
   39.0880   24.3390   41.9120 H   0  0  0  0  0  0  0  0  0  0  0  0
   35.8950   24.0460   38.2900 H   0  0  0  0  0  0  0  0  0  0  0  0
   38.8700   29.9180   41.5720 C   0  0  0  0  0  0  0  0  0  0  0  0
   40.1560   30.2690   41.9230 C   0  0  0  0  0  0  0  0  0  0  0  0
   40.4870   31.4380   41.2530 C   0  0  0  0  0  0  0  0  0  0  0  0
   39.3930   31.7560   40.5200 N   0  0  0  0  0  0  0  0  0  0  0  0
   38.4160   30.8630   40.6970 N   0  0  0  0  0  0  0  0  0  0  0  0
   40.8070   29.7350   42.6020 H   0  0  0  0  0  0  0  0  0  0  0  0
   41.4140   31.9760   41.3040 H   0  0  0  0  0  0  0  0  0  0  0  0
   39.2610   32.9100   39.6460 C   0  0  0  0  0  3  0  0  0  0  0  0
   38.5760   34.1600   40.2610 C   0  0  0  0  0  2  0  0  0  0  0  0
   40.0310   34.1350   39.8920 C   0  0  0  0  0  2  0  0  0  0  0  0
  1  2  1  0  0  0  0
  2  3  2  0  0  0  0
  2  7  1  0  0  0  0
  3  4  1  0  0  0  0
  4  8  1  0  0  0  0
  4  5  2  0  0  0  0
  5  9  1  0  0  0  0
  6  5  1  0  0  0  0
  6 10  1  0  0  0  0
  7  6  2  0  0  0  0
 11 17  1  0  0  0  0
 11 12  1  0  0  0  0
 12 18  1  0  0  0  0
 13 12  2  0  0  0  0
 13  3  1  0  0  0  0
 14 13  1  0  0  0  0
 15 16  1  0  0  0  0
 15 14  2  0  0  0  0
 16 11  2  0  0  0  0
 19 15  1  0  0  0  0
 20 21  1  0  0  0  0
 20  7  1  0  0  0  0
 21 25  1  0  0  0  0
 22 26  1  0  0  0  0
 22 21  2  0  0  0  0
 23 24  1  0  0  0  0
 23 22  1  0  0  0  0
 24 20  2  0  0  0  0
 27 29  1  0  0  0  0
 27 28  1  0  0  0  0
 27 23  1  0  0  0  0
 29 28  1  0  0  0  0
M  END
>  <minimizedAffinity>
-5.05196047

$$$$

 OpenBabel03242513003D

 29 32  0  0  0  0  0  0  0  0999 V2000
   38.7740   29.6380   40.9840 F   0  0  0  0  0  0  0  0  0  0  0  0
   37.8250   29.6690   40.0130 C   0  0  0  0  0  0  0  0  0  0  0  0
   37.6320   30.7970   39.2510 C   0  0  0  0  0  0  0  0  0  0  0  0
   36.6430   30.7290   38.2890 C   0  0  0  0  0  0  0  0  0  0  0  0
   35.8700   29.6280   38.0630 C   0  0  0  0  0  0  0  0  0  0  0  0
   36.1090   28.5260   38.8590 C   0  0  0  0  0  0  0  0  0  0  0  0
   37.0830   28.5340   39.8360 C   0  0  0  0  0  0  0  0  0  0  0  0
   36.4770   31.6130   37.6780 H   0  0  0  0  0  0  0  0  0  0  0  0
   35.1000   29.5800   37.3130 H   0  0  0  0  0  0  0  0  0  0  0  0
   35.5390   27.6200   38.7400 H   0  0  0  0  0  0  0  0  0  0  0  0
   38.8680   34.1610   40.4850 C   0  0  0  0  0  0  0  0  0  0  0  0
   38.0270   33.0550   40.2590 C   0  0  0  0  0  0  0  0  0  0  0  0
   38.4650   31.9550   39.5070 C   0  0  0  0  0  0  0  0  0  0  0  0
   39.7420   32.0370   39.0210 N   0  0  0  0  0  0  0  0  0  0  0  0
   40.5290   33.1130   39.2540 C   0  0  0  0  0  0  0  0  0  0  0  0
   40.0940   34.1560   39.9750 N   0  0  0  0  0  0  0  0  0  0  0  0
   38.5320   35.0070   41.0620 H   0  0  0  0  0  0  0  0  0  0  0  0
   37.0460   33.0540   40.6640 H   0  0  0  0  0  0  0  0  0  0  0  0
   41.5060   33.0000   38.7910 H   0  0  0  0  0  0  0  0  0  0  0  0
   37.3220   27.3600   40.6660 C   0  0  0  0  0  0  0  0  0  0  0  0
   36.9370   27.1770   41.9770 C   0  0  0  0  0  0  0  0  0  0  0  0
   37.3630   25.9220   42.3850 C   0  0  0  0  0  0  0  0  0  0  0  0
   37.9910   25.3870   41.3100 N   0  0  0  0  0  0  0  0  0  0  0  0
   37.9780   26.2290   40.2740 N   0  0  0  0  0  0  0  0  0  0  0  0
   36.3950   27.8820   42.5940 H   0  0  0  0  0  0  0  0  0  0  0  0
   37.2250   25.4700   43.3500 H   0  0  0  0  0  0  0  0  0  0  0  0
   38.6100   24.0720   41.2550 C   0  0  0  0  0  3  0  0  0  0  0  0
   37.7500   22.9360   40.6380 C   0  0  0  0  0  2  0  0  0  0  0  0
   38.9850   23.4680   39.9710 C   0  0  0  0  0  2  0  0  0  0  0  0
  2  1  1  0  0  0  0
  3 13  1  0  0  0  0
  3  2  2  0  0  0  0
  4  3  1  0  0  0  0
  5  4  2  0  0  0  0
  5  6  1  0  0  0  0
  6  7  2  0  0  0  0
  7  2  1  0  0  0  0
  7 20  1  0  0  0  0
  8  4  1  0  0  0  0
  9  5  1  0  0  0  0
 10  6  1  0  0  0  0
 11 17  1  0  0  0  0
 12 11  1  0  0  0  0
 12 18  1  0  0  0  0
 13 12  2  0  0  0  0
 14 15  2  0  0  0  0
 14 13  1  0  0  0  0
 15 16  1  0  0  0  0
 16 11  2  0  0  0  0
 19 15  1  0  0  0  0
 20 21  1  0  0  0  0
 21 22  2  0  0  0  0
 21 25  1  0  0  0  0
 22 26  1  0  0  0  0
 23 22  1  0  0  0  0
 24 20  2  0  0  0  0
 24 23  1  0  0  0  0
 27 23  1  0  0  0  0
 28 27  1  0  0  0  0
 29 28  1  0  0  0  0
 29 27  1  0  0  0  0
M  END
>  <minimizedAffinity>
-4.99718189

$$$$

 OpenBabel03242513003D

 29 32  0  0  0  0  0  0  0  0999 V2000
   36.1420   26.7240   39.0510 F   0  0  0  0  0  0  0  0  0  0  0  0
   36.3040   27.8010   39.8610 C   0  0  0  0  0  0  0  0  0  0  0  0
   37.0890   27.7270   40.9870 C   0  0  0  0  0  0  0  0  0  0  0  0
   37.1900   28.8770   41.7460 C   0  0  0  0  0  0  0  0  0  0  0  0
   36.5690   30.0510   41.4400 C   0  0  0  0  0  0  0  0  0  0  0  0
   35.7940   30.0670   40.2980 C   0  0  0  0  0  0  0  0  0  0  0  0
   35.6550   28.9500   39.5010 C   0  0  0  0  0  0  0  0  0  0  0  0
   37.8070   28.8330   42.6400 H   0  0  0  0  0  0  0  0  0  0  0  0
   36.6510   30.9450   42.0340 H   0  0  0  0  0  0  0  0  0  0  0  0
   35.2730   30.9590   39.9920 H   0  0  0  0  0  0  0  0  0  0  0  0
   37.7580   24.2060   42.2240 C   0  0  0  0  0  0  0  0  0  0  0  0
   37.0880   25.4130   41.9460 C   0  0  0  0  0  0  0  0  0  0  0  0
   37.7400   26.4680   41.2930 C   0  0  0  0  0  0  0  0  0  0  0  0
   39.0480   26.2420   40.9540 N   0  0  0  0  0  0  0  0  0  0  0  0
   39.6670   25.0710   41.2340 C   0  0  0  0  0  0  0  0  0  0  0  0
   39.0270   24.0720   41.8590 N   0  0  0  0  0  0  0  0  0  0  0  0
   37.2570   23.3940   42.7270 H   0  0  0  0  0  0  0  0  0  0  0  0
   36.0720   25.5250   42.2360 H   0  0  0  0  0  0  0  0  0  0  0  0
   40.6980   25.0740   40.8910 H   0  0  0  0  0  0  0  0  0  0  0  0
   34.8330   28.9870   38.2970 C   0  0  0  0  0  0  0  0  0  0  0  0
   35.2730   28.9980   36.9910 C   0  0  0  0  0  0  0  0  0  0  0  0
   34.1650   29.0360   36.1580 C   0  0  0  0  0  0  0  0  0  0  0  0
   33.0920   29.0470   36.9850 N   0  0  0  0  0  0  0  0  0  0  0  0
   33.4690   29.0180   38.2660 N   0  0  0  0  0  0  0  0  0  0  0  0
   36.3020   28.9800   36.6570 H   0  0  0  0  0  0  0  0  0  0  0  0
   34.1580   29.0540   35.0840 H   0  0  0  0  0  0  0  0  0  0  0  0
   31.6990   29.0850   36.5710 C   0  0  0  0  0  3  0  0  0  0  0  0
   31.0190   30.4810   36.5820 C   0  0  0  0  0  2  0  0  0  0  0  0
   31.3030   29.7310   35.3140 C   0  0  0  0  0  2  0  0  0  0  0  0
  1  2  1  0  0  0  0
  2  3  1  0  0  0  0
  3 13  1  0  0  0  0
  3  4  2  0  0  0  0
  4  8  1  0  0  0  0
  5  4  1  0  0  0  0
  5  9  1  0  0  0  0
  6  5  2  0  0  0  0
  7  2  2  0  0  0  0
  7  6  1  0  0  0  0
 10  6  1  0  0  0  0
 11 17  1  0  0  0  0
 12 11  1  0  0  0  0
 12 18  1  0  0  0  0
 13 12  2  0  0  0  0
 14 15  2  0  0  0  0
 14 13  1  0  0  0  0
 15 16  1  0  0  0  0
 16 11  2  0  0  0  0
 19 15  1  0  0  0  0
 20  7  1  0  0  0  0
 21 20  1  0  0  0  0
 22 23  1  0  0  0  0
 22 21  2  0  0  0  0
 23 24  1  0  0  0  0
 24 20  2  0  0  0  0
 25 21  1  0  0  0  0
 26 22  1  0  0  0  0
 27 28  1  0  0  0  0
 27 23  1  0  0  0  0
 29 27  1  0  0  0  0
 29 28  1  0  0  0  0
M  END
>  <minimizedAffinity>
-4.90499973

$$$$

 OpenBabel03242513003D

 29 32  0  0  0  0  0  0  0  0999 V2000
   41.2370   30.3160   39.9950 F   0  0  0  0  0  0  0  0  0  0  0  0
   40.7510   31.5820   39.9430 C   0  0  0  0  0  0  0  0  0  0  0  0
   41.3520   32.5390   39.1590 C   0  0  0  0  0  0  0  0  0  0  0  0
   40.7820   33.7970   39.1740 C   0  0  0  0  0  0  0  0  0  0  0  0
   39.6810   34.1280   39.9070 C   0  0  0  0  0  0  0  0  0  0  0  0
   39.1200   33.1280   40.6750 C   0  0  0  0  0  0  0  0  0  0  0  0
   39.6450   31.8520   40.7010 C   0  0  0  0  0  0  0  0  0  0  0  0
   41.2460   34.5640   38.5600 H   0  0  0  0  0  0  0  0  0  0  0  0
   39.2400   35.1100   39.9160 H   0  0  0  0  0  0  0  0  0  0  0  0
   38.2480   33.3150   41.2810 H   0  0  0  0  0  0  0  0  0  0  0  0
   43.5990   31.2220   36.4050 C   0  0  0  0  0  0  0  0  0  0  0  0
   42.4380   31.5700   37.1210 C   0  0  0  0  0  0  0  0  0  0  0  0
   42.5210   32.1640   38.3880 C   0  0  0  0  0  0  0  0  0  0  0  0
   43.7880   32.3750   38.8650 N   0  0  0  0  0  0  0  0  0  0  0  0
   44.8860   32.0300   38.1540 C   0  0  0  0  0  0  0  0  0  0  0  0
   44.7880   31.4630   36.9430 N   0  0  0  0  0  0  0  0  0  0  0  0
   43.5350   30.7640   35.4300 H   0  0  0  0  0  0  0  0  0  0  0  0
   41.4840   31.3790   36.6940 H   0  0  0  0  0  0  0  0  0  0  0  0
   45.8000   32.2730   38.6890 H   0  0  0  0  0  0  0  0  0  0  0  0
   39.0370   30.8090   41.5170 C   0  0  0  0  0  0  0  0  0  0  0  0
   39.4140   30.4210   42.7850 C   0  0  0  0  0  0  0  0  0  0  0  0
   38.5740   29.3970   43.1960 C   0  0  0  0  0  0  0  0  0  0  0  0
   37.7170   29.1980   42.1650 N   0  0  0  0  0  0  0  0  0  0  0  0
   37.9770   30.0300   41.1530 N   0  0  0  0  0  0  0  0  0  0  0  0
   40.2220   30.8360   43.3730 H   0  0  0  0  0  0  0  0  0  0  0  0
   38.5970   28.8720   44.1330 H   0  0  0  0  0  0  0  0  0  0  0  0
   36.6450   28.2170   42.1280 C   0  0  0  0  0  3  0  0  0  0  0  0
   37.0780   26.7360   41.9550 C   0  0  0  0  0  2  0  0  0  0  0  0
   36.4630   27.2560   43.2210 C   0  0  0  0  0  2  0  0  0  0  0  0
  2  1  1  0  0  0  0
  2  7  1  0  0  0  0
  3  4  1  0  0  0  0
  3  2  2  0  0  0  0
  4  5  2  0  0  0  0
  5  9  1  0  0  0  0
  5  6  1  0  0  0  0
  6  7  2  0  0  0  0
  6 10  1  0  0  0  0
  7 20  1  0  0  0  0
  8  4  1  0  0  0  0
 11 16  2  0  0  0  0
 11 12  1  0  0  0  0
 12 13  2  0  0  0  0
 13 14  1  0  0  0  0
 13  3  1  0  0  0  0
 15 19  1  0  0  0  0
 15 14  2  0  0  0  0
 16 15  1  0  0  0  0
 17 11  1  0  0  0  0
 18 12  1  0  0  0  0
 20 21  1  0  0  0  0
 21 22  2  0  0  0  0
 21 25  1  0  0  0  0
 22 26  1  0  0  0  0
 23 22  1  0  0  0  0
 24 20  2  0  0  0  0
 24 23  1  0  0  0  0
 27 23  1  0  0  0  0
 27 29  1  0  0  0  0
 28 27  1  0  0  0  0
 28 29  1  0  0  0  0
M  END
>  <minimizedAffinity>
-4.90488005

$$$$
