
 OpenBabel03242511313D

 17 18  0  0  0  0  0  0  0  0999 V2000
   38.0840   31.6900   40.9240 C   0  0  0  0  0  0  0  0  0  0  0  0
   37.0960   32.2150   40.0360 C   0  0  0  0  0  0  0  0  0  0  0  0
   37.3170   33.4890   39.5060 C   0  0  0  0  0  0  0  0  0  0  0  0
   38.4530   34.1600   39.8570 N   0  0  0  0  0  0  0  0  0  0  0  0
   39.3610   33.6240   40.7010 C   0  0  0  0  0  0  0  0  0  0  0  0
   39.1640   32.3960   41.2240 N   0  0  0  0  0  0  0  0  0  0  0  0
   36.2250   31.6550   39.7900 H   0  0  0  0  0  0  0  0  0  0  0  0
   36.5780   33.9060   38.8290 H   0  0  0  0  0  0  0  0  0  0  0  0
   40.2210   34.2460   40.9090 H   0  0  0  0  0  0  0  0  0  0  0  0
   37.8360   30.3600   41.4680 C   0  0  0  0  0  3  0  0  0  0  0  0
   38.6460   29.8900   42.4070 C   0  0  0  0  0  3  0  0  0  0  0  0
   38.4340   28.5380   42.9950 C   0  0  0  0  0  0  0  0  0  0  0  0
   38.4890   28.5700   44.1070 H   0  0  0  0  0  0  0  0  0  0  0  0
   39.3000   27.9330   42.6670 H   0  0  0  0  0  0  0  0  0  0  0  0
   37.1650   27.8990   42.5480 C   0  0  0  0  0  3  0  0  0  0  0  0
   37.0930   26.3920   42.6510 C   0  0  0  0  0  2  0  0  0  0  0  0
   36.3510   27.2320   43.6430 C   0  0  0  0  0  2  0  0  0  0  0  0
  1  6  1  0  0  0  0
  1 10  1  0  0  0  0
  2  1  2  0  0  0  0
  3  4  2  0  0  0  0
  3  2  1  0  0  0  0
  4  5  1  0  0  0  0
  5  9  1  0  0  0  0
  5  6  2  0  0  0  0
  7  2  1  0  0  0  0
  8  3  1  0  0  0  0
 10 11  2  0  0  0  0
 11 12  1  0  0  0  0
 12 13  1  0  0  0  0
 14 12  1  0  0  0  0
 15 16  1  0  0  0  0
 15 12  1  0  0  0  0
 15 17  1  0  0  0  0
 16 17  1  0  0  0  0
M  END
>  <minimizedAffinity>
-3.92419243

$$$$

 OpenBabel03242511313D

 17 18  0  0  0  0  0  0  0  0999 V2000
   37.9830   31.5980   40.7720 C   0  0  0  0  0  0  0  0  0  0  0  0
   37.0360   32.2140   39.8990 C   0  0  0  0  0  0  0  0  0  0  0  0
   37.2920   33.5270   39.4920 C   0  0  0  0  0  0  0  0  0  0  0  0
   38.4210   34.1480   39.9450 N   0  0  0  0  0  0  0  0  0  0  0  0
   39.2890   33.5260   40.7710 C   0  0  0  0  0  0  0  0  0  0  0  0
   39.0580   32.2590   41.1740 N   0  0  0  0  0  0  0  0  0  0  0  0
   36.1690   31.6910   39.5710 H   0  0  0  0  0  0  0  0  0  0  0  0
   36.5840   34.0120   38.8280 H   0  0  0  0  0  0  0  0  0  0  0  0
   40.1480   34.1140   41.0650 H   0  0  0  0  0  0  0  0  0  0  0  0
   37.7000   30.2290   41.1870 C   0  0  0  0  0  3  0  0  0  0  0  0
   36.6550   29.6030   40.6620 C   0  0  0  0  0  3  0  0  0  0  0  0
   36.3260   28.2030   41.0520 C   0  0  0  0  0  0  0  0  0  0  0  0
   36.3110   27.5320   40.1640 H   0  0  0  0  0  0  0  0  0  0  0  0
   35.2840   28.2370   41.4240 H   0  0  0  0  0  0  0  0  0  0  0  0
   37.2280   27.6630   42.1070 C   0  0  0  0  0  3  0  0  0  0  0  0
   36.5960   27.3580   43.4460 C   0  0  0  0  0  2  0  0  0  0  0  0
   36.9520   26.2310   42.5290 C   0  0  0  0  0  2  0  0  0  0  0  0
  1  6  1  0  0  0  0
  1 10  1  0  0  0  0
  2  1  2  0  0  0  0
  3  2  1  0  0  0  0
  3  4  2  0  0  0  0
  4  5  1  0  0  0  0
  5  9  1  0  0  0  0
  5  6  2  0  0  0  0
  7  2  1  0  0  0  0
  8  3  1  0  0  0  0
 11 12  1  0  0  0  0
 11 10  2  0  0  0  0
 12 14  1  0  0  0  0
 12 15  1  0  0  0  0
 13 12  1  0  0  0  0
 15 17  1  0  0  0  0
 15 16  1  0  0  0  0
 17 16  1  0  0  0  0
M  END
>  <minimizedAffinity>
-3.81509924

$$$$

 OpenBabel03242511313D

 17 18  0  0  0  0  0  0  0  0999 V2000
   37.7220   26.7000   42.6700 C   0  0  0  0  0  0  0  0  0  0  0  0
   37.5890   25.3770   42.1480 C   0  0  0  0  0  0  0  0  0  0  0  0
   38.6040   24.4620   42.4430 C   0  0  0  0  0  0  0  0  0  0  0  0
   39.6580   24.8730   43.2070 N   0  0  0  0  0  0  0  0  0  0  0  0
   39.7430   26.1350   43.6800 C   0  0  0  0  0  0  0  0  0  0  0  0
   38.7730   27.0320   43.4040 N   0  0  0  0  0  0  0  0  0  0  0  0
   36.7480   25.1010   41.5570 H   0  0  0  0  0  0  0  0  0  0  0  0
   38.5210   23.4510   42.0560 H   0  0  0  0  0  0  0  0  0  0  0  0
   40.6220   26.3480   44.2720 H   0  0  0  0  0  0  0  0  0  0  0  0
   36.6550   27.6410   42.3510 C   0  0  0  0  0  3  0  0  0  0  0  0
   36.4960   28.0290   41.0930 C   0  0  0  0  0  3  0  0  0  0  0  0
   35.4190   28.9880   40.7180 C   0  0  0  0  0  0  0  0  0  0  0  0
   35.5140   29.9410   41.2860 H   0  0  0  0  0  0  0  0  0  0  0  0
   34.4760   28.5230   41.0620 H   0  0  0  0  0  0  0  0  0  0  0  0
   35.3560   29.2510   39.2530 C   0  0  0  0  0  3  0  0  0  0  0  0
   35.2450   28.0410   38.3530 C   0  0  0  0  0  2  0  0  0  0  0  0
   34.0390   28.8960   38.5850 C   0  0  0  0  0  2  0  0  0  0  0  0
  1  6  1  0  0  0  0
  2  3  1  0  0  0  0
  2  1  2  0  0  0  0
  3  4  2  0  0  0  0
  4  5  1  0  0  0  0
  5  9  1  0  0  0  0
  6  5  2  0  0  0  0
  7  2  1  0  0  0  0
  8  3  1  0  0  0  0
 10  1  1  0  0  0  0
 11 10  2  0  0  0  0
 12 14  1  0  0  0  0
 12 11  1  0  0  0  0
 12 13  1  0  0  0  0
 15 12  1  0  0  0  0
 16 17  1  0  0  0  0
 16 15  1  0  0  0  0
 17 15  1  0  0  0  0
M  END
>  <minimizedAffinity>
-3.77902913

$$$$

 OpenBabel03242511313D

 17 18  0  0  0  0  0  0  0  0999 V2000
   37.5840   30.4540   41.2130 C   0  0  0  0  0  0  0  0  0  0  0  0
   38.9070   30.6950   41.6920 C   0  0  0  0  0  0  0  0  0  0  0  0
   39.4660   31.9510   41.4400 C   0  0  0  0  0  0  0  0  0  0  0  0
   38.7280   32.8740   40.7560 N   0  0  0  0  0  0  0  0  0  0  0  0
   37.4790   32.6020   40.3210 C   0  0  0  0  0  0  0  0  0  0  0  0
   36.9230   31.3950   40.5550 N   0  0  0  0  0  0  0  0  0  0  0  0
   39.4450   29.9450   42.2220 H   0  0  0  0  0  0  0  0  0  0  0  0
   40.4710   32.1540   41.7970 H   0  0  0  0  0  0  0  0  0  0  0  0
   36.9900   33.4080   39.7910 H   0  0  0  0  0  0  0  0  0  0  0  0
   37.0170   29.1380   41.4850 C   0  0  0  0  0  3  0  0  0  0  0  0
   37.4040   28.4850   42.5720 C   0  0  0  0  0  3  0  0  0  0  0  0
   36.8520   27.1390   42.8930 C   0  0  0  0  0  0  0  0  0  0  0  0
   35.7630   27.1930   43.1160 H   0  0  0  0  0  0  0  0  0  0  0  0
   37.3400   26.8370   43.8400 H   0  0  0  0  0  0  0  0  0  0  0  0
   37.1250   26.1270   41.8340 C   0  0  0  0  0  3  0  0  0  0  0  0
   38.2780   25.1820   42.0820 C   0  0  0  0  0  2  0  0  0  0  0  0
   36.8760   24.6840   42.2320 C   0  0  0  0  0  2  0  0  0  0  0  0
  1 10  1  0  0  0  0
  1  2  1  0  0  0  0
  2  7  1  0  0  0  0
  3  2  2  0  0  0  0
  3  8  1  0  0  0  0
  4  3  1  0  0  0  0
  5  6  1  0  0  0  0
  5  4  2  0  0  0  0
  6  1  2  0  0  0  0
  9  5  1  0  0  0  0
 10 11  2  0  0  0  0
 11 12  1  0  0  0  0
 12 13  1  0  0  0  0
 12 14  1  0  0  0  0
 15 16  1  0  0  0  0
 15 17  1  0  0  0  0
 15 12  1  0  0  0  0
 16 17  1  0  0  0  0
M  END
>  <minimizedAffinity>
-3.72572994

$$$$

 OpenBabel03242511313D

 17 18  0  0  0  0  0  0  0  0999 V2000
   37.4680   29.2120   41.9730 C   0  0  0  0  0  0  0  0  0  0  0  0
   36.3790   28.3820   41.5680 C   0  0  0  0  0  0  0  0  0  0  0  0
   35.4480   28.9280   40.6800 C   0  0  0  0  0  0  0  0  0  0  0  0
   35.6230   30.2110   40.2500 N   0  0  0  0  0  0  0  0  0  0  0  0
   36.6690   30.9610   40.6600 C   0  0  0  0  0  0  0  0  0  0  0  0
   37.5780   30.4510   41.5170 N   0  0  0  0  0  0  0  0  0  0  0  0
   36.2840   27.3860   41.9290 H   0  0  0  0  0  0  0  0  0  0  0  0
   34.6130   28.3120   40.3600 H   0  0  0  0  0  0  0  0  0  0  0  0
   36.7050   31.9630   40.2550 H   0  0  0  0  0  0  0  0  0  0  0  0
   38.4300   28.6270   42.9000 C   0  0  0  0  0  3  0  0  0  0  0  0
   38.7620   27.3500   42.7590 C   0  0  0  0  0  3  0  0  0  0  0  0
   39.7410   26.7070   43.6800 C   0  0  0  0  0  0  0  0  0  0  0  0
   39.3580   26.6890   44.7250 H   0  0  0  0  0  0  0  0  0  0  0  0
   40.6210   27.3780   43.6910 H   0  0  0  0  0  0  0  0  0  0  0  0
   40.1450   25.3420   43.2420 C   0  0  0  0  0  3  0  0  0  0  0  0
   40.6410   25.2070   41.8200 C   0  0  0  0  0  2  0  0  0  0  0  0
   41.6240   25.1640   42.9470 C   0  0  0  0  0  2  0  0  0  0  0  0
  1 10  1  0  0  0  0
  2  7  1  0  0  0  0
  2  1  1  0  0  0  0
  3  2  2  0  0  0  0
  4  5  2  0  0  0  0
  4  3  1  0  0  0  0
  5  6  1  0  0  0  0
  6  1  2  0  0  0  0
  8  3  1  0  0  0  0
  9  5  1  0  0  0  0
 11 10  2  0  0  0  0
 11 12  1  0  0  0  0
 12 14  1  0  0  0  0
 12 13  1  0  0  0  0
 15 12  1  0  0  0  0
 16 17  1  0  0  0  0
 16 15  1  0  0  0  0
 17 15  1  0  0  0  0
M  END
>  <minimizedAffinity>
-3.68896747

$$$$

 OpenBabel03242511313D

 17 18  0  0  0  0  0  0  0  0999 V2000
   38.3020   26.3900   42.6830 C   0  0  0  0  0  0  0  0  0  0  0  0
   39.3380   27.1640   43.2880 C   0  0  0  0  0  0  0  0  0  0  0  0
   40.5000   26.4920   43.6800 C   0  0  0  0  0  0  0  0  0  0  0  0
   40.5850   25.1460   43.4670 N   0  0  0  0  0  0  0  0  0  0  0  0
   39.5790   24.4540   42.8900 C   0  0  0  0  0  0  0  0  0  0  0  0
   38.4500   25.0860   42.5060 N   0  0  0  0  0  0  0  0  0  0  0  0
   39.2280   28.2120   43.4330 H   0  0  0  0  0  0  0  0  0  0  0  0
   41.2990   27.0630   44.1420 H   0  0  0  0  0  0  0  0  0  0  0  0
   39.7560   23.3940   42.7730 H   0  0  0  0  0  0  0  0  0  0  0  0
   37.0970   27.1070   42.2810 C   0  0  0  0  0  3  0  0  0  0  0  0
   37.2120   28.1540   41.4750 C   0  0  0  0  0  3  0  0  0  0  0  0
   36.0110   28.9180   41.0360 C   0  0  0  0  0  0  0  0  0  0  0  0
   35.1140   28.6320   41.6280 H   0  0  0  0  0  0  0  0  0  0  0  0
   35.8100   28.5830   40.0000 H   0  0  0  0  0  0  0  0  0  0  0  0
   36.2140   30.3940   41.0650 C   0  0  0  0  0  3  0  0  0  0  0  0
   37.6140   30.8900   40.7780 C   0  0  0  0  0  2  0  0  0  0  0  0
   36.5560   31.0300   39.7300 C   0  0  0  0  0  2  0  0  0  0  0  0
  1  2  1  0  0  0  0
  2  7  1  0  0  0  0
  2  3  2  0  0  0  0
  3  8  1  0  0  0  0
  4  3  1  0  0  0  0
  5  4  2  0  0  0  0
  6  1  2  0  0  0  0
  6  5  1  0  0  0  0
  9  5  1  0  0  0  0
 10  1  1  0  0  0  0
 11 10  2  0  0  0  0
 12 15  1  0  0  0  0
 12 11  1  0  0  0  0
 12 13  1  0  0  0  0
 14 12  1  0  0  0  0
 16 15  1  0  0  0  0
 17 16  1  0  0  0  0
 17 15  1  0  0  0  0
M  END
>  <minimizedAffinity>
-3.61308241

$$$$

 OpenBabel03242511313D

 17 18  0  0  0  0  0  0  0  0999 V2000
   37.5120   31.8670   39.9340 C   0  0  0  0  0  0  0  0  0  0  0  0
   37.3650   33.2400   39.5680 C   0  0  0  0  0  0  0  0  0  0  0  0
   38.2960   34.1470   40.0820 C   0  0  0  0  0  0  0  0  0  0  0  0
   39.2880   33.6820   40.8970 N   0  0  0  0  0  0  0  0  0  0  0  0
   39.3880   32.3730   41.2160 C   0  0  0  0  0  0  0  0  0  0  0  0
   38.4970   31.4830   40.7300 N   0  0  0  0  0  0  0  0  0  0  0  0
   36.5760   33.5580   38.9290 H   0  0  0  0  0  0  0  0  0  0  0  0
   38.2020   35.1960   39.8160 H   0  0  0  0  0  0  0  0  0  0  0  0
   40.2120   32.1200   41.8690 H   0  0  0  0  0  0  0  0  0  0  0  0
   36.5310   30.9350   39.3890 C   0  0  0  0  0  3  0  0  0  0  0  0
   35.8320   30.1790   40.2240 C   0  0  0  0  0  3  0  0  0  0  0  0
   34.8170   29.2130   39.7160 C   0  0  0  0  0  0  0  0  0  0  0  0
   33.7930   29.4940   40.0490 H   0  0  0  0  0  0  0  0  0  0  0  0
   35.0460   28.2530   40.2170 H   0  0  0  0  0  0  0  0  0  0  0  0
   34.8630   29.0410   38.2370 C   0  0  0  0  0  3  0  0  0  0  0  0
   34.7010   27.6320   37.7150 C   0  0  0  0  0  2  0  0  0  0  0  0
   33.5630   28.5950   37.5930 C   0  0  0  0  0  2  0  0  0  0  0  0
  1  6  1  0  0  0  0
  2  1  2  0  0  0  0
  2  3  1  0  0  0  0
  3  4  2  0  0  0  0
  4  5  1  0  0  0  0
  5  9  1  0  0  0  0
  6  5  2  0  0  0  0
  7  2  1  0  0  0  0
  8  3  1  0  0  0  0
 10  1  1  0  0  0  0
 10 11  2  0  0  0  0
 12 13  1  0  0  0  0
 12 14  1  0  0  0  0
 12 11  1  0  0  0  0
 15 12  1  0  0  0  0
 16 15  1  0  0  0  0
 17 16  1  0  0  0  0
 17 15  1  0  0  0  0
M  END
>  <minimizedAffinity>
-3.57830477

$$$$

 OpenBabel03242511313D

 17 18  0  0  0  0  0  0  0  0999 V2000
   36.8490   26.7550   40.7000 C   0  0  0  0  0  0  0  0  0  0  0  0
   37.1310   26.1830   41.9780 C   0  0  0  0  0  0  0  0  0  0  0  0
   37.0260   24.7940   42.1000 C   0  0  0  0  0  0  0  0  0  0  0  0
   36.6630   24.0620   41.0050 N   0  0  0  0  0  0  0  0  0  0  0  0
   36.4060   24.6470   39.8150 C   0  0  0  0  0  0  0  0  0  0  0  0
   36.5020   25.9860   39.6790 N   0  0  0  0  0  0  0  0  0  0  0  0
   37.4110   26.7920   42.8030 H   0  0  0  0  0  0  0  0  0  0  0  0
   37.2360   24.3400   43.0630 H   0  0  0  0  0  0  0  0  0  0  0  0
   36.1270   23.9690   39.0200 H   0  0  0  0  0  0  0  0  0  0  0  0
   36.9630   28.2040   40.5910 C   0  0  0  0  0  3  0  0  0  0  0  0
   35.9360   28.9580   40.9570 C   0  0  0  0  0  3  0  0  0  0  0  0
   36.0040   30.4440   40.8650 C   0  0  0  0  0  0  0  0  0  0  0  0
   35.9090   30.9130   41.8700 H   0  0  0  0  0  0  0  0  0  0  0  0
   35.1020   30.7480   40.3020 H   0  0  0  0  0  0  0  0  0  0  0  0
   37.2280   30.9300   40.1700 C   0  0  0  0  0  3  0  0  0  0  0  0
   37.0250   31.5890   38.8240 C   0  0  0  0  0  2  0  0  0  0  0  0
   37.3350   32.4370   40.0170 C   0  0  0  0  0  2  0  0  0  0  0  0
  1  2  1  0  0  0  0
  2  3  2  0  0  0  0
  2  7  1  0  0  0  0
  3  8  1  0  0  0  0
  4  3  1  0  0  0  0
  5  4  2  0  0  0  0
  6  5  1  0  0  0  0
  6  1  2  0  0  0  0
  9  5  1  0  0  0  0
 10  1  1  0  0  0  0
 10 11  2  0  0  0  0
 12 11  1  0  0  0  0
 12 13  1  0  0  0  0
 14 12  1  0  0  0  0
 15 12  1  0  0  0  0
 16 17  1  0  0  0  0
 16 15  1  0  0  0  0
 17 15  1  0  0  0  0
M  END
>  <minimizedAffinity>
-3.52418685

$$$$

 OpenBabel03242511313D

 17 18  0  0  0  0  0  0  0  0999 V2000
   36.8510   27.9160   41.0270 C   0  0  0  0  0  0  0  0  0  0  0  0
   35.7740   28.5190   40.3080 C   0  0  0  0  0  0  0  0  0  0  0  0
   35.5970   29.8980   40.4490 C   0  0  0  0  0  0  0  0  0  0  0  0
   36.4520   30.5930   41.2560 N   0  0  0  0  0  0  0  0  0  0  0  0
   37.4580   29.9800   41.9180 C   0  0  0  0  0  0  0  0  0  0  0  0
   37.6430   28.6490   41.7950 N   0  0  0  0  0  0  0  0  0  0  0  0
   35.1330   27.9380   39.6900 H   0  0  0  0  0  0  0  0  0  0  0  0
   34.7840   30.3760   39.9100 H   0  0  0  0  0  0  0  0  0  0  0  0
   38.0710   30.6290   42.5280 H   0  0  0  0  0  0  0  0  0  0  0  0
   37.0200   26.4760   40.8700 C   0  0  0  0  0  3  0  0  0  0  0  0
   37.1010   25.7170   41.9540 C   0  0  0  0  0  3  0  0  0  0  0  0
   37.2730   24.2410   41.8440 C   0  0  0  0  0  0  0  0  0  0  0  0
   36.3540   23.7050   42.1720 H   0  0  0  0  0  0  0  0  0  0  0  0
   38.0550   23.9790   42.5810 H   0  0  0  0  0  0  0  0  0  0  0  0
   37.6850   23.8000   40.4820 C   0  0  0  0  0  3  0  0  0  0  0  0
   38.0040   22.3320   40.3140 C   0  0  0  0  0  2  0  0  0  0  0  0
   36.7150   22.8680   39.7790 C   0  0  0  0  0  2  0  0  0  0  0  0
  1  6  1  0  0  0  0
  2  3  1  0  0  0  0
  2  1  2  0  0  0  0
  3  4  2  0  0  0  0
  4  5  1  0  0  0  0
  5  9  1  0  0  0  0
  6  5  2  0  0  0  0
  7  2  1  0  0  0  0
  8  3  1  0  0  0  0
 10  1  1  0  0  0  0
 10 11  2  0  0  0  0
 12 11  1  0  0  0  0
 12 13  1  0  0  0  0
 12 14  1  0  0  0  0
 15 12  1  0  0  0  0
 16 15  1  0  0  0  0
 17 16  1  0  0  0  0
 17 15  1  0  0  0  0
M  END
>  <minimizedAffinity>
-3.45662689

$$$$
