
 OpenBabel03252509313D

 21 22  0  0  0  0  0  0  0  0999 V2000
   45.8670   32.6770   45.0930 C   0  0  0  0  0  0  0  0  0  0  0  0
   44.7580   32.7220   44.9860 H   0  0  0  0  0  0  0  0  0  0  0  0
   46.2240   31.8850   44.3860 H   0  0  0  0  0  0  0  0  0  0  0  0
   47.4960   30.9380   47.9730 C   0  0  0  0  0  0  0  0  0  0  0  0
   47.2170   31.3410   46.6620 C   0  0  0  0  0  0  0  0  0  0  0  0
   46.1770   32.2410   46.4510 C   0  0  0  0  0  0  0  0  0  0  0  0
   45.4650   32.6970   47.5400 N   0  0  0  0  0  0  0  0  0  0  0  0
   45.7670   32.2830   48.7920 C   0  0  0  0  0  0  0  0  0  0  0  0
   46.7630   31.4180   49.0090 N   0  0  0  0  0  0  0  0  0  0  0  0
   48.3210   30.2390   48.0290 H   0  0  0  0  0  0  0  0  0  0  0  0
   47.7710   30.9870   45.8150 H   0  0  0  0  0  0  0  0  0  0  0  0
   45.2190   32.6300   49.6580 H   0  0  0  0  0  0  0  0  0  0  0  0
   46.4730   33.9020   44.8130 O   0  0  0  0  0  0  0  0  0  0  0  0
   44.7980   35.9010   44.5710 O   0  0  0  0  0  0  0  0  0  0  0  0
   45.4200   34.7570   43.7990 P   0  0  2  0  0  0  0  0  0  0  0  0
   44.2880   33.6710   43.2060 O   0  0  0  0  0  0  0  0  0  0  0  0
   43.6270   33.4880   43.9140 H   0  0  0  0  0  0  0  0  0  0  0  0
   46.3320   35.4180   42.5470 O   0  0  0  0  0  0  0  0  0  0  0  0
   47.4980   34.7410   42.2930 C   0  0  0  0  0  3  0  0  0  0  0  0
   48.6050   35.5670   41.6860 C   0  0  0  0  0  2  0  0  0  0  0  0
   47.8260   34.6590   40.8030 C   0  0  0  0  0  2  0  0  0  0  0  0
  1  6  1  0  0  0  0
  2  1  1  0  0  0  0
  3  1  1  0  0  0  0
  4 10  1  0  0  0  0
  4  9  1  0  0  0  0
  5  4  2  0  0  0  0
  6  5  1  0  0  0  0
  6  7  2  0  0  0  0
  7  8  1  0  0  0  0
  8  9  2  0  0  0  0
  8 12  1  0  0  0  0
 11  5  1  0  0  0  0
 13  1  1  0  0  0  0
 15 14  2  1  0  0  0
 15 13  1  0  0  0  0
 16 15  1  0  0  0  0
 16 17  1  0  0  0  0
 18 15  1  0  0  0  0
 19 18  1  0  0  0  0
 20 19  1  0  0  0  0
 21 20  1  0  0  0  0
 21 19  1  0  0  0  0
M  END
>  <minimizedAffinity>
-4.41342545

>  <minimizedRMSD>
4.45178747

$$$$
