
 OpenBabel03252500483D

 22 24  0  0  0  0  0  0  0  0999 V2000
   44.5450   35.3880   45.4720 C   0  0  0  0  0  0  0  0  0  0  0  0
   45.2390   35.3090   44.2740 C   0  0  0  0  0  0  0  0  0  0  0  0
   46.1800   34.3070   44.0580 C   0  0  0  0  0  0  0  0  0  0  0  0
   46.3740   33.4160   45.0880 N   0  0  0  0  0  0  0  0  0  0  0  0
   45.7080   33.4940   46.2340 C   0  0  0  0  0  0  0  0  0  0  0  0
   44.8030   34.4740   46.4180 N   0  0  0  0  0  0  0  0  0  0  0  0
   43.8160   36.1350   45.6860 H   0  0  0  0  0  0  0  0  0  0  0  0
   46.7210   34.2330   43.1420 H   0  0  0  0  0  0  0  0  0  0  0  0
   45.9380   32.5380   47.2990 C   0  0  0  0  0  0  0  0  0  0  0  0
   47.1760   32.0770   47.6140 C   0  0  0  0  0  0  0  0  0  0  0  0
   47.4640   31.1800   48.6000 C   0  0  0  0  0  0  0  0  0  0  0  0
   46.3850   30.7360   49.3050 N   0  0  0  0  0  0  0  0  0  0  0  0
   45.1560   31.1810   49.0070 C   0  0  0  0  0  0  0  0  0  0  0  0
   44.8780   32.0740   48.0240 N   0  0  0  0  0  0  0  0  0  0  0  0
   47.9910   32.4840   47.0000 H   0  0  0  0  0  0  0  0  0  0  0  0
   48.5030   30.9050   48.7350 H   0  0  0  0  0  0  0  0  0  0  0  0
   44.3620   30.7570   49.6370 H   0  0  0  0  0  0  0  0  0  0  0  0
   44.9610   36.3020   43.2410 C   0  0  0  0  0  0  0  0  0  0  0  0
   44.1310   36.0000   42.3570 O   0  0  0  0  0  0  0  0  0  0  0  0
   45.6720   37.5960   43.3030 C   0  0  0  0  0  3  0  0  0  0  0  0
   44.9430   38.8250   42.8020 C   0  0  0  0  0  2  0  0  0  0  0  0
   45.2800   38.6300   44.2960 C   0  0  0  0  0  2  0  0  0  0  0  0
  1  7  1  0  0  0  0
  1  6  1  0  0  0  0
  2  1  2  0  0  0  0
  3  2  1  0  0  0  0
  3  4  2  0  0  0  0
  4  5  1  0  0  0  0
  5  6  2  0  0  0  0
  5  9  1  0  0  0  0
  8  3  1  0  0  0  0
  9 10  2  0  0  0  0
  9 14  1  0  0  0  0
 10 11  1  0  0  0  0
 11 16  1  0  0  0  0
 11 12  2  0  0  0  0
 13 12  1  0  0  0  0
 13 17  1  0  0  0  0
 14 13  2  0  0  0  0
 15 10  1  0  0  0  0
 18 20  1  0  0  0  0
 18  2  1  0  0  0  0
 19 18  2  0  0  0  0
 20 22  1  0  0  0  0
 21 20  1  0  0  0  0
 21 22  1  0  0  0  0
M  END
>  <minimizedAffinity>
-3.14647889

>  <minimizedRMSD>
0.348066926

$$$$
