
 OpenBabel03252507163D

 23 25  0  0  0  0  0  0  0  0999 V2000
   44.7900   35.9250   43.4040 C   0  0  0  0  0  0  0  0  0  0  0  0
   45.4650   34.7340   43.0380 C   0  0  0  0  0  0  0  0  0  0  0  0
   45.7390   33.8240   44.0330 C   0  0  0  0  0  0  0  0  0  0  0  0
   45.3670   34.0840   45.3010 N   0  0  0  0  0  0  0  0  0  0  0  0
   44.7170   35.2410   45.6380 C   0  0  0  0  0  0  0  0  0  0  0  0
   44.4490   36.1250   44.6770 N   0  0  0  0  0  0  0  0  0  0  0  0
   44.5480   36.6790   42.6560 H   0  0  0  0  0  0  0  0  0  0  0  0
   44.4860   35.3000   46.7010 H   0  0  0  0  0  0  0  0  0  0  0  0
   46.4320   32.5940   43.6700 C   0  0  0  0  0  0  0  0  0  0  0  0
   45.7120   31.4420   43.4200 C   0  0  0  0  0  0  0  0  0  0  0  0
   46.3950   30.2980   43.0810 C   0  0  0  0  0  0  0  0  0  0  0  0
   47.7870   30.2400   42.9760 C   0  0  0  0  0  0  0  0  0  0  0  0
   48.4490   31.4190   43.2370 C   0  0  0  0  0  0  0  0  0  0  0  0
   47.7740   32.5410   43.5710 N   0  0  0  0  0  0  0  0  0  0  0  0
   44.6340   31.4440   43.4900 H   0  0  0  0  0  0  0  0  0  0  0  0
   45.8270   29.3960   42.8850 H   0  0  0  0  0  0  0  0  0  0  0  0
   48.3250   29.3390   42.7090 H   0  0  0  0  0  0  0  0  0  0  0  0
   49.5390   31.4040   43.1640 H   0  0  0  0  0  0  0  0  0  0  0  0
   45.8300   34.5200   41.6720 C   0  0  0  0  0  0  0  0  0  0  0  0
   46.9680   34.9270   41.3010 O   0  0  0  0  0  0  0  0  0  0  0  0
   44.9430   33.8500   40.6900 C   0  0  0  0  0  3  0  0  0  0  0  0
   43.5710   33.4360   41.1360 C   0  0  0  0  0  2  0  0  0  0  0  0
   43.6870   34.5730   40.2190 C   0  0  0  0  0  2  0  0  0  0  0  0
  1  6  1  0  0  0  0
  2  1  2  0  0  0  0
  2  3  1  0  0  0  0
  3  4  2  0  0  0  0
  4  5  1  0  0  0  0
  5  8  1  0  0  0  0
  6  5  2  0  0  0  0
  7  1  1  0  0  0  0
  9  3  1  0  0  0  0
 10 15  1  0  0  0  0
 10  9  2  0  0  0  0
 11 10  1  0  0  0  0
 12 11  2  0  0  0  0
 12 13  1  0  0  0  0
 13 14  2  0  0  0  0
 14  9  1  0  0  0  0
 16 11  1  0  0  0  0
 17 12  1  0  0  0  0
 18 13  1  0  0  0  0
 19  2  1  0  0  0  0
 20 19  2  0  0  0  0
 21 22  1  0  0  0  0
 21 19  1  0  0  0  0
 23 21  1  0  0  0  0
 23 22  1  0  0  0  0
M  END
>  <minimizedAffinity>
-3.89419007

>  <minimizedRMSD>
0.542470813

$$$$
