
 OpenBabel03242513593D

 35 39  0  0  0  0  0  0  0  0999 V2000
   44.8850   34.9310   44.9340 C   0  0  0  0  0  0  0  0  0  0  0  0
   45.5400   34.7890   43.7030 C   0  0  0  0  0  0  0  0  0  0  0  0
   46.5970   33.8430   43.6300 C   0  0  0  0  0  0  0  0  0  0  0  0
   46.9060   33.1440   44.7340 N   0  0  0  0  0  0  0  0  0  0  0  0
   46.2560   33.3030   45.9110 C   0  0  0  0  0  0  0  0  0  0  0  0
   45.2450   34.2080   45.9790 N   0  0  0  0  0  0  0  0  0  0  0  0
   44.0830   35.6580   44.9660 H   0  0  0  0  0  0  0  0  0  0  0  0
   47.1220   33.7050   42.7100 H   0  0  0  0  0  0  0  0  0  0  0  0
   46.5490   32.5720   47.1400 C   0  0  0  0  0  0  0  0  0  0  0  0
   45.6000   32.4320   48.1460 C   0  0  0  0  0  0  0  0  0  0  0  0
   46.1640   31.6980   49.1720 C   0  0  0  0  0  0  0  0  0  0  0  0
   47.4270   31.4140   48.7690 N   0  0  0  0  0  0  0  0  0  0  0  0
   47.6410   31.9440   47.5510 N   0  0  0  0  0  0  0  0  0  0  0  0
   44.5950   32.8140   48.1580 H   0  0  0  0  0  0  0  0  0  0  0  0
   45.6880   31.4150   50.1030 H   0  0  0  0  0  0  0  0  0  0  0  0
   48.4260   30.6690   49.4860 C   0  0  0  0  0  0  0  0  0  0  0  0
   49.6900   30.3200   48.7700 C   0  0  0  0  0  0  0  0  0  0  0  0
   49.7190   31.4110   49.8290 C   0  0  0  0  0  0  0  0  0  0  0  0
   45.2440   35.4940   42.5490 O   0  0  0  0  0  0  0  0  0  0  0  0
   44.3270   35.0980   41.5940 C   0  0  0  0  0  0  0  0  0  0  0  0
   44.5480   34.2440   40.5430 C   0  0  0  0  0  0  0  0  0  0  0  0
   43.5220   33.9490   39.6760 C   0  0  0  0  0  0  0  0  0  0  0  0
   42.2470   34.4900   39.8200 C   0  0  0  0  0  0  0  0  0  0  0  0
   41.3030   34.1590   38.9400 N   0  0  0  0  0  0  0  0  0  0  0  0
   40.0480   34.6670   39.0490 C   0  0  0  0  0  0  0  0  0  0  0  0
   39.8040   35.5250   40.0930 C   0  0  0  0  0  0  0  0  0  0  0  0
   40.7910   35.8740   41.0180 C   0  0  0  0  0  0  0  0  0  0  0  0
   42.0560   35.3360   40.8730 C   0  0  0  0  0  0  0  0  0  0  0  0
   43.0710   35.6570   41.7720 C   0  0  0  0  0  0  0  0  0  0  0  0
   45.5500   33.8440   40.4640 H   0  0  0  0  0  0  0  0  0  0  0  0
   43.7310   33.2680   38.8530 H   0  0  0  0  0  0  0  0  0  0  0  0
   39.3130   34.3710   38.3130 H   0  0  0  0  0  0  0  0  0  0  0  0
   38.7900   35.9280   40.1720 H   0  0  0  0  0  0  0  0  0  0  0  0
   40.5550   36.5540   41.8260 H   0  0  0  0  0  0  0  0  0  0  0  0
   42.8100   36.3260   42.5540 H   0  0  0  0  0  0  0  0  0  0  0  0
  1  7  1  0  0  0  0
  1  6  1  0  0  0  0
  2  1  2  0  0  0  0
  3  2  1  0  0  0  0
  3  4  2  0  0  0  0
  4  5  1  0  0  0  0
  5  6  2  0  0  0  0
  5  9  1  0  0  0  0
  8  3  1  0  0  0  0
  9 13  2  0  0  0  0
  9 10  1  0  0  0  0
 10 14  1  0  0  0  0
 10 11  2  0  0  0  0
 11 15  1  0  0  0  0
 12 11  1  0  0  0  0
 12 16  1  0  0  0  0
 13 12  1  0  0  0  0
 16 18  1  0  0  0  0
 17 16  1  0  0  0  0
 17 18  1  0  0  0  0
 19  2  1  0  0  0  0
 20 29  1  0  0  0  0
 20 19  1  0  0  0  0
 21 20  2  0  0  0  0
 22 23  2  0  0  0  0
 22 21  1  0  0  0  0
 23 28  1  0  0  0  0
 24 25  2  0  0  0  0
 24 23  1  0  0  0  0
 25 26  1  0  0  0  0
 26 33  1  0  0  0  0
 26 27  2  0  0  0  0
 27 34  1  0  0  0  0
 28 27  1  0  0  0  0
 28 29  2  0  0  0  0
 29 35  1  0  0  0  0
 30 21  1  0  0  0  0
 31 22  1  0  0  0  0
 32 25  1  0  0  0  0
M  END
>  <minimizedAffinity>
-6.98549271

>  <minimizedRMSD>
0.634303689

$$$$
