
 OpenBabel03242523513D

 37 40  0  0  1  0  0  0  0  0999 V2000
   42.8310   34.4860   38.7460 C   0  0  1  0  0  0  0  0  0  0  0  0
   42.9720   35.1490   40.1150 C   0  0  1  0  0  0  0  0  0  0  0  0
   41.6880   35.4180   40.6280 O   0  0  0  0  0  0  0  0  0  0  0  0
   40.7640   35.7560   39.6370 C   0  0  0  0  0  0  0  0  0  0  0  0
   40.4340   34.5530   38.7740 C   0  0  2  0  0  0  0  0  0  0  0  0
   41.6260   33.5760   38.8750 C   0  0  1  0  0  0  0  0  0  0  0  0
   43.7660   33.9220   38.5850 H   0  0  0  0  0  0  0  0  0  0  0  0
   43.5580   36.0650   40.0000 H   0  0  0  0  0  0  0  0  0  0  0  0
   41.0200   36.6520   39.0640 H   0  0  0  0  0  0  0  0  0  0  0  0
   39.8340   35.9920   40.1950 H   0  0  0  0  0  0  0  0  0  0  0  0
   39.5110   34.0450   39.0700 H   0  0  0  0  0  0  0  0  0  0  0  0
   41.5830   33.1340   39.8920 H   0  0  0  0  0  0  0  0  0  0  0  0
   42.6030   35.4370   37.7560 O   0  0  0  0  0  0  0  0  0  0  0  0
   43.4440   35.5090   37.2110 H   0  0  0  0  0  0  0  0  0  0  0  0
   40.4420   34.9510   37.4300 O   0  0  0  0  0  0  0  0  0  0  0  0
   39.6260   34.6340   36.9640 H   0  0  0  0  0  0  0  0  0  0  0  0
   43.4950   34.1800   40.9720 O   0  0  0  0  0  0  0  0  0  0  0  0
   44.6040   34.3120   41.7080 C   0  0  0  0  0  0  0  0  0  0  0  0
   45.8530   34.4460   41.1060 C   0  0  0  0  0  0  0  0  0  0  0  0
   46.9700   34.5810   41.9160 C   0  0  0  0  0  0  0  0  0  0  0  0
   46.8200   34.5820   43.2900 N   0  0  0  0  0  0  0  0  0  0  0  0
   45.5980   34.4510   43.8360 C   0  0  0  0  0  0  0  0  0  0  0  0
   44.4920   34.3170   43.0590 N   0  0  0  0  0  0  0  0  0  0  0  0
   45.9980   34.4480   40.0320 H   0  0  0  0  0  0  0  0  0  0  0  0
   45.4580   34.4480   44.9030 H   0  0  0  0  0  0  0  0  0  0  0  0
   48.3430   34.7090   41.3230 C   0  0  0  0  0  0  0  0  0  0  0  0
   49.0690   36.0220   41.5120 C   0  0  0  0  0  0  0  0  0  0  0  0
   49.5000   34.7100   42.1790 C   0  0  0  0  0  0  0  0  0  0  0  0
   48.3920   34.2390   40.3180 H   0  0  0  0  0  0  0  0  0  0  0  0
   49.6990   36.3200   40.6510 H   0  0  0  0  0  0  0  0  0  0  0  0
   48.5190   36.7720   42.0820 H   0  0  0  0  0  0  0  0  0  0  0  0
   50.4880   34.2990   41.9150 H   0  0  0  0  0  0  0  0  0  0  0  0
   49.3810   34.7780   43.2920 H   0  0  0  0  0  0  0  0  0  0  0  0
   41.5410   32.6000   37.9150 O   0  0  0  0  0  0  0  0  0  0  0  0
   40.7830   31.4970   38.2500 C   0  0  0  0  0  0  0  0  0  0  0  0
   40.7520   30.4180   37.1560 C   0  0  0  0  0  0  0  0  0  0  0  0
   39.5340   31.1670   37.5210 C   0  0  0  0  0  0  0  0  0  0  0  0
  1  7  1  6  0  0  0
  1  6  1  0  0  0  0
  1  2  1  0  0  0  0
  2  8  1  6  0  0  0
  2  3  1  0  0  0  0
  2 17  1  0  0  0  0
  4 10  1  0  0  0  0
  4  3  1  0  0  0  0
  5  6  1  0  0  0  0
  5 11  1  1  0  0  0
  5  4  1  0  0  0  0
  6 12  1  1  0  0  0
  9  4  1  0  0  0  0
 13  1  1  0  0  0  0
 14 13  1  0  0  0  0
 15  5  1  0  0  0  0
 16 15  1  0  0  0  0
 17 18  1  0  0  0  0
 18 23  1  0  0  0  0
 19 18  2  0  0  0  0
 19 20  1  0  0  0  0
 20 21  2  0  0  0  0
 21 22  1  0  0  0  0
 22 25  1  0  0  0  0
 23 22  2  0  0  0  0
 24 19  1  0  0  0  0
 26 27  1  0  0  0  0
 26 20  1  0  0  0  0
 26 28  1  0  0  0  0
 27 31  1  0  0  0  0
 27 28  1  0  0  0  0
 28 33  1  0  0  0  0
 29 26  1  0  0  0  0
 30 27  1  0  0  0  0
 32 28  1  0  0  0  0
 34 35  1  0  0  0  0
 34  6  1  0  0  0  0
 36 37  1  0  0  0  0
 36 35  1  0  0  0  0
 37 35  1  0  0  0  0
M  END
>  <minimizedAffinity>
-5.7984972

>  <minimizedRMSD>
0.652703226

$$$$
