
 OpenBabel03242523403D

 31 35  0  0  1  0  0  0  0  0999 V2000
   36.9440   28.5460   42.2720 C   0  0  2  0  0  0  0  0  0  0  0  0
   35.9330   29.0040   41.6460 N   0  0  2  0  0  4  0  0  0  0  0  0
   35.2650   29.1650   40.5960 C   0  0  0  0  0  0  0  0  0  0  0  0
   35.4940   30.5040   40.7940 N   0  0  0  0  0  0  0  0  0  0  0  0
   36.8120   30.7550   41.0870 C   0  0  0  0  0  0  0  0  0  0  0  0
   37.3160   32.0050   40.6210 C   0  0  0  0  0  0  0  0  0  0  0  0
   38.6160   32.2490   40.8390 C   0  0  0  0  0  0  0  0  0  0  0  0
   39.4660   31.4050   41.4600 C   0  0  0  0  0  0  0  0  0  0  0  0
   38.8390   30.2220   41.8650 C   0  0  0  0  0  3  0  0  0  0  0  0
   37.5330   29.7440   41.7590 C   0  0  1  0  0  0  0  0  0  0  0  0
   36.7570   28.9540   43.3950 H   0  0  0  0  0  0  0  0  0  0  0  0
   35.0940   28.6310   42.2720 H   0  0  0  0  0  0  0  0  0  0  0  0
   34.1520   29.0010   40.4380 H   0  0  0  0  0  0  0  0  0  0  0  0
   35.6740   28.8060   39.6270 H   0  0  0  0  0  0  0  0  0  0  0  0
   34.7280   31.2530   40.7220 H   0  0  0  0  0  0  0  0  0  0  0  0
   36.7040   32.7290   40.1210 H   0  0  0  0  0  0  0  0  0  0  0  0
   38.9900   33.2230   40.4730 H   0  0  0  0  0  0  0  0  0  0  0  0
   40.4670   31.6640   41.5910 H   0  0  0  0  0  0  0  0  0  0  0  0
   39.6370   29.6530   42.3420 H   0  0  0  0  0  0  0  0  0  0  0  0
   39.8520   26.7360   43.6790 C   0  0  0  0  0  0  0  0  0  0  0  0
   40.0530   25.8850   42.5720 C   0  0  0  0  0  0  0  0  0  0  0  0
   39.2050   26.0390   41.4910 C   0  0  0  0  0  0  0  0  0  0  0  0
   38.2530   26.9970   41.5950 N   0  0  0  0  0  0  0  0  0  0  0  0
   38.0700   27.8100   42.6720 C   0  0  0  0  0  0  0  0  0  0  0  0
   38.8870   27.6020   43.6080 N   0  0  0  0  0  0  0  0  0  0  0  0
   40.4590   26.7070   44.5860 H   0  0  0  0  0  0  0  0  0  0  0  0
   40.8560   25.1690   42.6420 H   0  0  0  0  0  0  0  0  0  0  0  0
   39.4410   24.9820   40.1030 S   0  0  0  0  0  0  0  0  0  0  0  0
   38.0350   23.9390   39.7130 C   0  0  0  0  0  3  0  0  0  0  0  0
   37.0170   23.6820   40.7650 C   0  0  0  0  0  2  0  0  0  0  0  0
   38.0290   22.6000   40.4410 C   0  0  0  0  0  2  0  0  0  0  0  0
  1 24  1  0  0  0  0
  1 11  1  1  0  0  0
  2 10  1  0  0  0  0
  2  1  1  0  0  0  0
  2 12  1  1  0  0  0
  3  4  1  0  0  0  0
  3  2  1  0  0  0  0
  4  5  1  0  0  0  0
  6  7  1  0  0  0  0
  6  5  2  0  0  0  0
  7  8  2  0  0  0  0
  8 18  1  0  0  0  0
  8  9  1  0  0  0  0
  9 19  1  0  0  0  0
 10  5  1  1  0  0  0
 10  9  1  0  0  0  0
 10  1  1  0  0  0  0
 13  3  1  0  0  0  0
 14  3  1  0  0  0  0
 15  4  1  0  0  0  0
 16  6  1  0  0  0  0
 17  7  1  0  0  0  0
 20 26  1  0  0  0  0
 21 27  1  0  0  0  0
 21 20  2  0  0  0  0
 22 23  2  0  0  0  0
 22 21  1  0  0  0  0
 23 24  1  0  0  0  0
 24 25  2  0  0  0  0
 25 20  1  0  0  0  0
 28 22  1  0  0  0  0
 29 28  1  0  0  0  0
 29 31  1  0  0  0  0
 29 30  1  0  0  0  0
 31 30  1  0  0  0  0
M  END
>  <minimizedAffinity>
-5.63136625

$$$$

 OpenBabel03242523403D

 31 35  0  0  1  0  0  0  0  0999 V2000
   36.5030   29.0990   41.2490 C   0  0  2  0  0  0  0  0  0  0  0  0
   36.8180   28.9320   42.4730 N   0  0  2  0  0  4  0  0  0  0  0  0
   37.6680   28.8060   43.3870 C   0  0  0  0  0  0  0  0  0  0  0  0
   37.1190   27.5630   43.5690 N   0  0  0  0  0  0  0  0  0  0  0  0
   36.9530   26.9010   42.3760 C   0  0  2  0  0  3  0  0  0  0  0  0
   37.0970   25.4830   42.4360 C   0  0  0  0  0  0  0  0  0  0  0  0
   37.0010   24.8200   41.2750 C   0  0  0  0  0  0  0  0  0  0  0  0
   36.7820   25.3930   40.0740 C   0  0  0  0  0  0  0  0  0  0  0  0
   36.6600   26.7840   40.1630 C   0  0  0  0  0  0  0  0  0  0  0  0
   36.7170   27.6860   41.2260 C   0  0  1  0  0  0  0  0  0  0  0  0
   35.2950   29.0550   41.2870 H   0  0  0  0  0  0  0  0  0  0  0  0
   36.2180   29.7250   42.9690 H   0  0  0  0  0  0  0  0  0  0  0  0
   37.7090   29.3410   44.3880 H   0  0  0  0  0  0  0  0  0  0  0  0
   38.7480   28.7570   43.1260 H   0  0  0  0  0  0  0  0  0  0  0  0
   36.8590   27.1640   44.5310 H   0  0  0  0  0  0  0  0  0  0  0  0
   37.2690   24.9550   43.3520 H   0  0  0  0  0  0  0  0  0  0  0  0
   37.1130   23.7220   41.3400 H   0  0  0  0  0  0  0  0  0  0  0  0
   36.7230   24.8100   39.2120 H   0  0  0  0  0  0  0  0  0  0  0  0
   36.4890   27.0970   39.1330 H   0  0  0  0  0  0  0  0  0  0  0  0
   36.1380   29.8170   37.6350 C   0  0  0  0  0  0  0  0  0  0  0  0
   37.2750   30.6440   37.5280 C   0  0  0  0  0  0  0  0  0  0  0  0
   38.0280   30.8390   38.6710 C   0  0  0  0  0  0  0  0  0  0  0  0
   37.6020   30.2150   39.7950 N   0  0  0  0  0  0  0  0  0  0  0  0
   36.5000   29.4210   39.8830 C   0  0  0  0  0  0  0  0  0  0  0  0
   35.8760   29.2980   38.7960 N   0  0  0  0  0  0  0  0  0  0  0  0
   35.4700   29.5910   36.8010 H   0  0  0  0  0  0  0  0  0  0  0  0
   37.4820   31.0710   36.5600 H   0  0  0  0  0  0  0  0  0  0  0  0
   39.4500   31.8710   38.5530 S   0  0  0  0  0  0  0  0  0  0  0  0
   39.9310   32.6540   40.0940 C   0  0  0  0  0  3  0  0  0  0  0  0
   38.9780   33.5830   40.7570 C   0  0  0  0  0  2  0  0  0  0  0  0
   40.1520   34.1590   39.9880 C   0  0  0  0  0  2  0  0  0  0  0  0
  1 11  1  1  0  0  0
  1  2  1  0  0  0  0
  2 12  1  1  0  0  0
  2  3  1  0  0  0  0
  3  4  1  0  0  0  0
  3 13  1  0  0  0  0
  4 15  1  0  0  0  0
  5  6  1  6  0  0  0
  5  4  1  0  0  0  0
  6 16  1  0  0  0  0
  7 17  1  0  0  0  0
  7  6  2  0  0  0  0
  8  9  2  0  0  0  0
  8  7  1  0  0  0  0
 10  9  1  6  0  0  0
 10  1  1  0  0  0  0
 10  5  1  0  0  0  0
 10  2  1  0  0  0  0
 14  3  1  0  0  0  0
 18  8  1  0  0  0  0
 19  9  1  0  0  0  0
 20 25  1  0  0  0  0
 21 20  2  0  0  0  0
 21 22  1  0  0  0  0
 22 23  2  0  0  0  0
 23 24  1  0  0  0  0
 24  1  1  0  0  0  0
 25 24  2  0  0  0  0
 26 20  1  0  0  0  0
 27 21  1  0  0  0  0
 28 22  1  0  0  0  0
 28 29  1  0  0  0  0
 29 30  1  0  0  0  0
 31 29  1  0  0  0  0
 31 30  1  0  0  0  0
M  END
>  <minimizedAffinity>
-5.48730898

$$$$

 OpenBabel03242523403D

 31 35  0  0  1  0  0  0  0  0999 V2000
   37.7470   28.1170   42.4750 C   0  0  2  0  0  0  0  0  0  0  0  0
   38.7820   27.8410   43.1660 N   0  0  2  0  0  4  0  0  0  0  0  0
   40.0200   27.6750   43.2810 C   0  0  0  0  0  0  0  0  0  0  0  0
   39.6990   26.3850   43.6210 N   0  0  0  0  0  0  0  0  0  0  0  0
   38.7800   25.8460   42.7540 C   0  0  2  0  0  3  0  0  0  0  0  0
   38.8980   24.4420   42.5300 C   0  0  0  0  0  0  0  0  0  0  0  0
   38.0530   23.9020   41.6410 C   0  0  0  0  0  0  0  0  0  0  0  0
   37.1140   24.5840   40.9540 C   0  0  0  0  0  0  0  0  0  0  0  0
   37.1090   25.9470   41.2720 C   0  0  0  0  0  0  0  0  0  0  0  0
   37.8650   26.7320   42.1430 C   0  0  1  0  0  0  0  0  0  0  0  0
   36.8570   27.9900   43.2830 H   0  0  0  0  0  0  0  0  0  0  0  0
   38.6690   28.5360   44.0260 H   0  0  0  0  0  0  0  0  0  0  0  0
   40.7170   28.1010   44.0700 H   0  0  0  0  0  0  0  0  0  0  0  0
   40.6650   27.7250   42.3770 H   0  0  0  0  0  0  0  0  0  0  0  0
   40.1230   25.8700   44.4620 H   0  0  0  0  0  0  0  0  0  0  0  0
   39.6170   23.8310   43.0390 H   0  0  0  0  0  0  0  0  0  0  0  0
   38.1580   22.8120   41.4800 H   0  0  0  0  0  0  0  0  0  0  0  0
   36.4940   24.0940   40.2750 H   0  0  0  0  0  0  0  0  0  0  0  0
   36.3120   26.3560   40.6510 H   0  0  0  0  0  0  0  0  0  0  0  0
   35.1210   29.2330   40.1150 C   0  0  0  0  0  0  0  0  0  0  0  0
   35.9680   30.0100   39.2980 C   0  0  0  0  0  0  0  0  0  0  0  0
   37.3110   30.0440   39.6290 C   0  0  0  0  0  0  0  0  0  0  0  0
   37.6900   29.3260   40.7130 N   0  0  0  0  0  0  0  0  0  0  0  0
   36.8590   28.5820   41.4930 C   0  0  0  0  0  0  0  0  0  0  0  0
   35.6560   28.6070   41.1190 N   0  0  0  0  0  0  0  0  0  0  0  0
   34.0460   29.1300   39.9510 H   0  0  0  0  0  0  0  0  0  0  0  0
   35.5130   30.5260   38.4690 H   0  0  0  0  0  0  0  0  0  0  0  0
   38.3810   31.0120   38.6200 S   0  0  0  0  0  0  0  0  0  0  0  0
   38.8240   32.6040   39.3180 C   0  0  0  0  0  3  0  0  0  0  0  0
   38.4930   32.8830   40.7390 C   0  0  0  0  0  2  0  0  0  0  0  0
   37.6320   33.4950   39.6500 C   0  0  0  0  0  2  0  0  0  0  0  0
  1  2  1  0  0  0  0
  1 11  1  1  0  0  0
  2  3  1  0  0  0  0
  2 12  1  1  0  0  0
  3  4  1  0  0  0  0
  3 13  1  0  0  0  0
  4 15  1  0  0  0  0
  5  6  1  6  0  0  0
  5  4  1  0  0  0  0
  6 16  1  0  0  0  0
  7  6  2  0  0  0  0
  8  9  2  0  0  0  0
  8  7  1  0  0  0  0
 10  9  1  6  0  0  0
 10  1  1  0  0  0  0
 10  5  1  0  0  0  0
 10  2  1  0  0  0  0
 14  3  1  0  0  0  0
 17  7  1  0  0  0  0
 18  8  1  0  0  0  0
 19  9  1  0  0  0  0
 20 25  1  0  0  0  0
 21 22  1  0  0  0  0
 21 20  2  0  0  0  0
 22 23  2  0  0  0  0
 23 24  1  0  0  0  0
 24  1  1  0  0  0  0
 25 24  2  0  0  0  0
 26 20  1  0  0  0  0
 27 21  1  0  0  0  0
 28 29  1  0  0  0  0
 28 22  1  0  0  0  0
 29 31  1  0  0  0  0
 29 30  1  0  0  0  0
 31 30  1  0  0  0  0
M  END
>  <minimizedAffinity>
-5.44170475

$$$$

 OpenBabel03242523403D

 31 35  0  0  1  0  0  0  0  0999 V2000
   37.0780   31.6600   40.8670 C   0  0  2  0  0  0  0  0  0  0  0  0
   37.0320   32.7650   40.2330 N   0  0  2  0  0  4  0  0  0  0  0  0
   37.1160   33.4340   39.1750 C   0  0  0  0  0  0  0  0  0  0  0  0
   38.1630   34.0670   39.7960 N   0  0  0  0  0  0  0  0  0  0  0  0
   39.0230   33.1700   40.3820 C   0  0  0  0  0  0  0  0  0  0  0  0
   40.3950   33.5610   40.4040 C   0  0  0  0  0  0  0  0  0  0  0  0
   41.2640   32.6770   40.9140 C   0  0  0  0  0  0  0  0  0  0  0  0
   40.9340   31.4630   41.4010 C   0  0  0  0  0  0  0  0  0  0  0  0
   39.5600   31.2130   41.3190 C   0  0  0  0  0  3  0  0  0  0  0  0
   38.4760   31.9530   40.8450 C   0  0  1  0  0  0  0  0  0  0  0  0
   36.8810   32.0100   42.0070 H   0  0  0  0  0  0  0  0  0  0  0  0
   36.0510   33.1700   40.5600 H   0  0  0  0  0  0  0  0  0  0  0  0
   36.3950   34.2160   38.7790 H   0  0  0  0  0  0  0  0  0  0  0  0
   37.4260   32.9310   38.2330 H   0  0  0  0  0  0  0  0  0  0  0  0
   38.2860   35.1340   39.8120 H   0  0  0  0  0  0  0  0  0  0  0  0
   40.7350   34.5090   40.0380 H   0  0  0  0  0  0  0  0  0  0  0  0
   42.3220   32.9950   40.9240 H   0  0  0  0  0  0  0  0  0  0  0  0
   41.6670   30.8270   41.7800 H   0  0  0  0  0  0  0  0  0  0  0  0
   39.4500   30.2140   41.7430 H   0  0  0  0  0  0  0  0  0  0  0  0
   37.0010   28.1980   42.1790 C   0  0  0  0  0  0  0  0  0  0  0  0
   36.8100   27.5660   40.9330 C   0  0  0  0  0  0  0  0  0  0  0  0
   36.7510   28.3750   39.8130 C   0  0  0  0  0  0  0  0  0  0  0  0
   36.8820   29.7080   40.0170 N   0  0  0  0  0  0  0  0  0  0  0  0
   37.0650   30.3040   41.2280 C   0  0  0  0  0  0  0  0  0  0  0  0
   37.1070   29.4920   42.1900 N   0  0  0  0  0  0  0  0  0  0  0  0
   37.0640   27.6620   43.1280 H   0  0  0  0  0  0  0  0  0  0  0  0
   36.7210   26.4910   40.9350 H   0  0  0  0  0  0  0  0  0  0  0  0
   36.5090   27.6010   38.2500 S   0  0  0  0  0  0  0  0  0  0  0  0
   35.1950   28.3160   37.2610 C   0  0  0  0  0  3  0  0  0  0  0  0
   33.9750   28.8220   37.9420 C   0  0  0  0  0  2  0  0  0  0  0  0
   33.9170   27.4870   37.2250 C   0  0  0  0  0  2  0  0  0  0  0  0
  1 24  1  0  0  0  0
  1 11  1  1  0  0  0
  2 12  1  1  0  0  0
  2 10  1  0  0  0  0
  2  1  1  0  0  0  0
  3  4  1  0  0  0  0
  3  2  1  0  0  0  0
  4 15  1  0  0  0  0
  4  5  1  0  0  0  0
  5  6  2  0  0  0  0
  6  7  1  0  0  0  0
  7 17  1  0  0  0  0
  7  8  2  0  0  0  0
  8 18  1  0  0  0  0
  9  8  1  0  0  0  0
  9 19  1  0  0  0  0
 10  5  1  1  0  0  0
 10  1  1  0  0  0  0
 10  9  1  0  0  0  0
 13  3  1  0  0  0  0
 14  3  1  0  0  0  0
 16  6  1  0  0  0  0
 20 25  1  0  0  0  0
 20 26  1  0  0  0  0
 21 27  1  0  0  0  0
 21 20  2  0  0  0  0
 22 23  2  0  0  0  0
 22 21  1  0  0  0  0
 23 24  1  0  0  0  0
 24 25  2  0  0  0  0
 28 22  1  0  0  0  0
 29 30  1  0  0  0  0
 29 28  1  0  0  0  0
 31 29  1  0  0  0  0
 31 30  1  0  0  0  0
M  END
>  <minimizedAffinity>
-5.17338562

$$$$

 OpenBabel03242523403D

 31 35  0  0  1  0  0  0  0  0999 V2000
   36.9280   29.8890   41.8460 C   0  0  2  0  0  0  0  0  0  0  0  0
   37.0890   29.1640   42.8810 N   0  0  2  0  0  4  0  0  0  0  0  0
   37.8180   28.5270   43.6800 C   0  0  0  0  0  0  0  0  0  0  0  0
   37.1080   27.4270   43.2690 N   0  0  0  0  0  0  0  0  0  0  0  0
   36.9910   27.3800   41.9010 C   0  0  2  0  0  3  0  0  0  0  0  0
   36.9560   26.0720   41.3340 C   0  0  0  0  0  0  0  0  0  0  0  0
   36.9050   25.9990   39.9960 C   0  0  0  0  0  0  0  0  0  0  0  0
   36.8840   27.0600   39.1650 C   0  0  0  0  0  0  0  0  0  0  0  0
   36.9210   28.2760   39.8550 C   0  0  0  0  0  0  0  0  0  0  0  0
   36.9730   28.6100   41.2080 C   0  0  1  0  0  0  0  0  0  0  0  0
   35.7260   30.0190   41.8090 H   0  0  0  0  0  0  0  0  0  0  0  0
   36.5400   29.7470   43.6510 H   0  0  0  0  0  0  0  0  0  0  0  0
   37.8170   28.5640   44.8150 H   0  0  0  0  0  0  0  0  0  0  0  0
   38.9050   28.4300   43.4700 H   0  0  0  0  0  0  0  0  0  0  0  0
   36.7020   26.6980   43.9440 H   0  0  0  0  0  0  0  0  0  0  0  0
   36.9670   25.1800   41.9270 H   0  0  0  0  0  0  0  0  0  0  0  0
   36.8780   24.9770   39.5720 H   0  0  0  0  0  0  0  0  0  0  0  0
   36.8460   26.9230   38.1320 H   0  0  0  0  0  0  0  0  0  0  0  0
   36.8970   29.0260   39.0640 H   0  0  0  0  0  0  0  0  0  0  0  0
   37.0270   32.1740   38.9340 C   0  0  0  0  0  0  0  0  0  0  0  0
   38.3200   32.6800   39.1790 C   0  0  0  0  0  0  0  0  0  0  0  0
   39.0000   32.1780   40.2740 C   0  0  0  0  0  0  0  0  0  0  0  0
   38.3580   31.2430   41.0140 N   0  0  0  0  0  0  0  0  0  0  0  0
   37.1070   30.7650   40.7640 C   0  0  0  0  0  0  0  0  0  0  0  0
   36.5640   31.2760   39.7490 N   0  0  0  0  0  0  0  0  0  0  0  0
   36.3970   32.4940   38.1000 H   0  0  0  0  0  0  0  0  0  0  0  0
   38.6930   33.4260   38.4970 H   0  0  0  0  0  0  0  0  0  0  0  0
   40.6140   32.8020   40.5960 S   0  0  0  0  0  0  0  0  0  0  0  0
   41.2310   33.9450   39.3580 C   0  0  0  0  0  3  0  0  0  0  0  0
   41.6450   33.4150   38.0330 C   0  0  0  0  0  2  0  0  0  0  0  0
   42.7140   33.7850   39.0440 C   0  0  0  0  0  2  0  0  0  0  0  0
  1 11  1  1  0  0  0
  1  2  1  0  0  0  0
  2 12  1  1  0  0  0
  2  3  1  0  0  0  0
  3 13  1  0  0  0  0
  4  3  1  0  0  0  0
  4 15  1  0  0  0  0
  5  6  1  6  0  0  0
  5  4  1  0  0  0  0
  6 16  1  0  0  0  0
  7  6  2  0  0  0  0
  8  9  2  0  0  0  0
  8  7  1  0  0  0  0
 10  9  1  6  0  0  0
 10  1  1  0  0  0  0
 10  5  1  0  0  0  0
 10  2  1  0  0  0  0
 14  3  1  0  0  0  0
 17  7  1  0  0  0  0
 18  8  1  0  0  0  0
 19  9  1  0  0  0  0
 20 21  2  0  0  0  0
 20 25  1  0  0  0  0
 21 22  1  0  0  0  0
 22 28  1  0  0  0  0
 22 23  2  0  0  0  0
 24 23  1  0  0  0  0
 24  1  1  0  0  0  0
 25 24  2  0  0  0  0
 26 20  1  0  0  0  0
 27 21  1  0  0  0  0
 29 28  1  0  0  0  0
 30 31  1  0  0  0  0
 30 29  1  0  0  0  0
 31 29  1  0  0  0  0
M  END
>  <minimizedAffinity>
-5.1562438

$$$$

 OpenBabel03242523403D

 31 35  0  0  1  0  0  0  0  0999 V2000
   40.1700   30.3860   41.4480 C   0  0  2  0  0  0  0  0  0  0  0  0
   40.9980   29.4230   41.5690 N   0  0  2  0  0  4  0  0  0  0  0  0
   41.4830   28.3310   41.1900 C   0  0  0  0  0  0  0  0  0  0  0  0
   41.0630   27.8550   42.4060 N   0  0  0  0  0  0  0  0  0  0  0  0
   39.7720   28.2360   42.6810 C   0  0  2  0  0  3  0  0  0  0  0  0
   39.0090   27.3070   43.4480 C   0  0  0  0  0  0  0  0  0  0  0  0
   37.7280   27.6260   43.6790 C   0  0  0  0  0  0  0  0  0  0  0  0
   37.1210   28.7490   43.2410 C   0  0  0  0  0  0  0  0  0  0  0  0
   37.9850   29.5670   42.5060 C   0  0  0  0  0  0  0  0  0  0  0  0
   39.3270   29.4620   42.1390 C   0  0  1  0  0  0  0  0  0  0  0  0
   40.4350   31.0740   42.4050 H   0  0  0  0  0  0  0  0  0  0  0  0
   41.9630   29.9680   41.6500 H   0  0  0  0  0  0  0  0  0  0  0  0
   42.5770   28.0590   41.0450 H   0  0  0  0  0  0  0  0  0  0  0  0
   41.0140   27.7900   40.3390 H   0  0  0  0  0  0  0  0  0  0  0  0
   41.6760   27.2550   43.0520 H   0  0  0  0  0  0  0  0  0  0  0  0
   39.4200   26.3950   43.8330 H   0  0  0  0  0  0  0  0  0  0  0  0
   37.1510   26.8960   44.2760 H   0  0  0  0  0  0  0  0  0  0  0  0
   36.1180   28.9270   43.4590 H   0  0  0  0  0  0  0  0  0  0  0  0
   37.3640   30.4190   42.2270 H   0  0  0  0  0  0  0  0  0  0  0  0
   37.9360   33.1270   40.3520 C   0  0  0  0  0  0  0  0  0  0  0  0
   37.2690   32.3910   39.3520 C   0  0  0  0  0  0  0  0  0  0  0  0
   37.6360   31.0680   39.1850 C   0  0  0  0  0  0  0  0  0  0  0  0
   38.6100   30.5990   40.0020 N   0  0  0  0  0  0  0  0  0  0  0  0
   39.2460   31.3240   40.9630 C   0  0  0  0  0  0  0  0  0  0  0  0
   38.8480   32.5160   41.0460 N   0  0  0  0  0  0  0  0  0  0  0  0
   37.7290   34.1770   40.5740 H   0  0  0  0  0  0  0  0  0  0  0  0
   36.5140   32.9090   38.7810 H   0  0  0  0  0  0  0  0  0  0  0  0
   36.8140   30.1370   37.9380 S   0  0  0  0  0  0  0  0  0  0  0  0
   35.4780   29.1030   38.5410 C   0  0  0  0  0  3  0  0  0  0  0  0
   35.0930   29.1880   39.9740 C   0  0  0  0  0  2  0  0  0  0  0  0
   35.9210   28.0070   39.5040 C   0  0  0  0  0  2  0  0  0  0  0  0
  1  2  1  0  0  0  0
  1 10  1  0  0  0  0
  1 11  1  1  0  0  0
  2 12  1  1  0  0  0
  2 10  1  0  0  0  0
  3  2  1  0  0  0  0
  3  4  1  0  0  0  0
  4  5  1  0  0  0  0
  4 15  1  0  0  0  0
  5  6  1  6  0  0  0
  6  7  2  0  0  0  0
  6 16  1  0  0  0  0
  7 17  1  0  0  0  0
  8 18  1  0  0  0  0
  8  7  1  0  0  0  0
  9  8  2  0  0  0  0
 10  9  1  6  0  0  0
 10  5  1  0  0  0  0
 13  3  1  0  0  0  0
 14  3  1  0  0  0  0
 19  9  1  0  0  0  0
 20 26  1  0  0  0  0
 20 25  1  0  0  0  0
 21 20  2  0  0  0  0
 22 21  1  0  0  0  0
 22 23  2  0  0  0  0
 23 24  1  0  0  0  0
 24 25  2  0  0  0  0
 24  1  1  0  0  0  0
 27 21  1  0  0  0  0
 28 29  1  0  0  0  0
 28 22  1  0  0  0  0
 29 31  1  0  0  0  0
 29 30  1  0  0  0  0
 31 30  1  0  0  0  0
M  END
>  <minimizedAffinity>
-4.9792223

$$$$

 OpenBabel03242523403D

 31 35  0  0  1  0  0  0  0  0999 V2000
   37.0330   26.3740   40.6640 C   0  0  2  0  0  0  0  0  0  0  0  0
   37.0080   25.1030   40.7540 N   0  0  2  0  0  4  0  0  0  0  0  0
   36.6050   24.0420   41.2880 C   0  0  0  0  0  0  0  0  0  0  0  0
   37.9240   23.8350   41.6020 N   0  0  0  0  0  0  0  0  0  0  0  0
   38.5030   24.9640   42.1310 C   0  0  0  0  0  0  0  0  0  0  0  0
   39.5210   24.7330   43.1030 C   0  0  0  0  0  0  0  0  0  0  0  0
   40.0590   25.8170   43.6800 C   0  0  0  0  0  0  0  0  0  0  0  0
   39.7080   27.0910   43.4080 C   0  0  0  0  0  0  0  0  0  0  0  0
   38.7030   27.1690   42.4380 C   0  0  0  0  0  3  0  0  0  0  0  0
   38.0000   26.2130   41.7050 C   0  0  1  0  0  0  0  0  0  0  0  0
   37.8240   26.5530   39.7670 H   0  0  0  0  0  0  0  0  0  0  0  0
   36.7820   24.8090   39.7060 H   0  0  0  0  0  0  0  0  0  0  0  0
   36.1960   23.1110   40.7830 H   0  0  0  0  0  0  0  0  0  0  0  0
   35.9600   24.0960   42.1920 H   0  0  0  0  0  0  0  0  0  0  0  0
   38.4300   22.9000   41.4520 H   0  0  0  0  0  0  0  0  0  0  0  0
   39.8560   23.7510   43.3720 H   0  0  0  0  0  0  0  0  0  0  0  0
   40.8470   25.6200   44.4300 H   0  0  0  0  0  0  0  0  0  0  0  0
   40.1700   27.8840   43.9000 H   0  0  0  0  0  0  0  0  0  0  0  0
   38.5310   28.2400   42.3260 H   0  0  0  0  0  0  0  0  0  0  0  0
   36.1800   29.9300   41.2460 C   0  0  0  0  0  0  0  0  0  0  0  0
   36.7220   30.4170   40.0390 C   0  0  0  0  0  0  0  0  0  0  0  0
   37.2840   29.4940   39.1770 C   0  0  0  0  0  0  0  0  0  0  0  0
   37.2640   28.1990   39.5740 N   0  0  0  0  0  0  0  0  0  0  0  0
   36.7380   27.7440   40.7450 C   0  0  0  0  0  0  0  0  0  0  0  0
   36.2470   28.6520   41.4660 N   0  0  0  0  0  0  0  0  0  0  0  0
   35.7110   30.5650   42.0010 H   0  0  0  0  0  0  0  0  0  0  0  0
   36.6620   31.4800   39.8670 H   0  0  0  0  0  0  0  0  0  0  0  0
   37.9670   30.0870   37.6670 S   0  0  0  0  0  0  0  0  0  0  0  0
   36.8840   29.9250   36.2450 C   0  0  0  0  0  3  0  0  0  0  0  0
   35.6660   29.0820   36.3620 C   0  0  0  0  0  2  0  0  0  0  0  0
   36.8720   28.5330   35.6240 C   0  0  0  0  0  2  0  0  0  0  0  0
  1 11  1  6  0  0  0
  1 24  1  0  0  0  0
  1  2  1  0  0  0  0
  1 10  1  0  0  0  0
  2 12  1  6  0  0  0
  2  3  1  0  0  0  0
  2 10  1  0  0  0  0
  3  4  1  0  0  0  0
  3 14  1  0  0  0  0
  4  5  1  0  0  0  0
  5  6  2  0  0  0  0
  6 16  1  0  0  0  0
  6  7  1  0  0  0  0
  7 17  1  0  0  0  0
  8  7  2  0  0  0  0
  8 18  1  0  0  0  0
  9  8  1  0  0  0  0
 10  5  1  6  0  0  0
 10  9  1  0  0  0  0
 13  3  1  0  0  0  0
 15  4  1  0  0  0  0
 19  9  1  0  0  0  0
 20 25  1  0  0  0  0
 20 26  1  0  0  0  0
 21 20  2  0  0  0  0
 22 23  2  0  0  0  0
 22 21  1  0  0  0  0
 23 24  1  0  0  0  0
 24 25  2  0  0  0  0
 27 21  1  0  0  0  0
 28 22  1  0  0  0  0
 29 30  1  0  0  0  0
 29 28  1  0  0  0  0
 31 29  1  0  0  0  0
 31 30  1  0  0  0  0
M  END
>  <minimizedAffinity>
-4.96846867

$$$$

 OpenBabel03242523403D

 31 35  0  0  1  0  0  0  0  0999 V2000
   37.9600   26.6210   42.5870 C   0  0  2  0  0  0  0  0  0  0  0  0
   38.8050   25.7830   43.0420 N   0  0  2  0  0  4  0  0  0  0  0  0
   39.9290   25.2260   43.0190 C   0  0  0  0  0  0  0  0  0  0  0  0
   39.2240   24.0740   42.7740 N   0  0  0  0  0  0  0  0  0  0  0  0
   38.2740   24.2590   41.7980 C   0  0  2  0  0  3  0  0  0  0  0  0
   38.0100   23.1230   40.9780 C   0  0  0  0  0  0  0  0  0  0  0  0
   37.1320   23.2940   39.9790 C   0  0  0  0  0  0  0  0  0  0  0  0
   36.4930   24.4500   39.7020 C   0  0  0  0  0  0  0  0  0  0  0  0
   36.8450   25.4760   40.5850 C   0  0  0  0  0  0  0  0  0  0  0  0
   37.7090   25.5480   41.6770 C   0  0  1  0  0  0  0  0  0  0  0  0
   37.0000   26.4280   43.2960 H   0  0  0  0  0  0  0  0  0  0  0  0
   38.8150   26.0390   44.1240 H   0  0  0  0  0  0  0  0  0  0  0  0
   40.6420   25.0440   43.8840 H   0  0  0  0  0  0  0  0  0  0  0  0
   40.6420   25.4670   42.2010 H   0  0  0  0  0  0  0  0  0  0  0  0
   39.4050   23.1480   43.2850 H   0  0  0  0  0  0  0  0  0  0  0  0
   38.4750   22.1710   41.1350 H   0  0  0  0  0  0  0  0  0  0  0  0
   36.9370   22.4040   39.3530 H   0  0  0  0  0  0  0  0  0  0  0  0
   35.8240   24.5070   38.9050 H   0  0  0  0  0  0  0  0  0  0  0  0
   36.2590   26.3280   40.2410 H   0  0  0  0  0  0  0  0  0  0  0  0
   35.9820   29.3430   41.0420 C   0  0  0  0  0  0  0  0  0  0  0  0
   37.0790   30.1720   40.7300 C   0  0  0  0  0  0  0  0  0  0  0  0
   38.3390   29.7070   41.0580 C   0  0  0  0  0  0  0  0  0  0  0  0
   38.4040   28.4920   41.6520 N   0  0  0  0  0  0  0  0  0  0  0  0
   37.3340   27.7030   41.9480 C   0  0  0  0  0  0  0  0  0  0  0  0
   36.2280   28.2040   41.6140 N   0  0  0  0  0  0  0  0  0  0  0  0
   34.9430   29.6050   40.8300 H   0  0  0  0  0  0  0  0  0  0  0  0
   36.8620   31.1160   40.2560 H   0  0  0  0  0  0  0  0  0  0  0  0
   39.7190   30.7320   40.6770 S   0  0  0  0  0  0  0  0  0  0  0  0
   39.3000   32.2670   39.8490 C   0  0  0  0  0  3  0  0  0  0  0  0
   40.2330   33.4190   39.9550 C   0  0  0  0  0  2  0  0  0  0  0  0
   38.9690   33.4170   40.7930 C   0  0  0  0  0  2  0  0  0  0  0  0
  1  2  1  0  0  0  0
  1 11  1  1  0  0  0
  2 12  1  1  0  0  0
  3  2  1  0  0  0  0
  3 13  1  0  0  0  0
  4  3  1  0  0  0  0
  4 15  1  0  0  0  0
  5  6  1  6  0  0  0
  5  4  1  0  0  0  0
  6 16  1  0  0  0  0
  7  6  2  0  0  0  0
  8  7  1  0  0  0  0
  8  9  2  0  0  0  0
 10  9  1  6  0  0  0
 10  5  1  0  0  0  0
 10  1  1  0  0  0  0
 10  2  1  0  0  0  0
 14  3  1  0  0  0  0
 17  7  1  0  0  0  0
 18  8  1  0  0  0  0
 19  9  1  0  0  0  0
 20 25  1  0  0  0  0
 21 20  2  0  0  0  0
 21 22  1  0  0  0  0
 22 23  2  0  0  0  0
 23 24  1  0  0  0  0
 24  1  1  0  0  0  0
 25 24  2  0  0  0  0
 26 20  1  0  0  0  0
 27 21  1  0  0  0  0
 28 22  1  0  0  0  0
 29 30  1  0  0  0  0
 29 28  1  0  0  0  0
 29 31  1  0  0  0  0
 30 31  1  0  0  0  0
M  END
>  <minimizedAffinity>
-4.95879173

$$$$

 OpenBabel03242523403D

 31 35  0  0  1  0  0  0  0  0999 V2000
   38.6570   30.6550   41.1610 C   0  0  2  0  0  0  0  0  0  0  0  0
   37.4100   30.6470   40.8940 N   0  0  2  0  0  4  0  0  0  0  0  0
   36.2210   30.9340   41.1700 C   0  0  0  0  0  0  0  0  0  0  0  0
   36.0190   29.5770   41.1850 N   0  0  0  0  0  0  0  0  0  0  0  0
   36.9940   28.9270   41.9020 C   0  0  0  0  0  0  0  0  0  0  0  0
   36.5700   27.7470   42.5830 C   0  0  0  0  0  0  0  0  0  0  0  0
   37.4870   27.1280   43.3400 C   0  0  0  0  0  0  0  0  0  0  0  0
   38.7620   27.5390   43.4990 C   0  0  0  0  0  0  0  0  0  0  0  0
   39.0390   28.7030   42.7760 C   0  0  0  0  0  3  0  0  0  0  0  0
   38.2780   29.5140   41.9350 C   0  0  1  0  0  0  0  0  0  0  0  0
   39.1230   30.0410   40.2290 H   0  0  0  0  0  0  0  0  0  0  0  0
   37.4010   31.0550   39.8600 H   0  0  0  0  0  0  0  0  0  0  0  0
   35.4400   31.4150   40.5010 H   0  0  0  0  0  0  0  0  0  0  0  0
   35.9850   31.4060   42.1480 H   0  0  0  0  0  0  0  0  0  0  0  0
   35.1940   29.0950   40.6950 H   0  0  0  0  0  0  0  0  0  0  0  0
   35.5760   27.3560   42.5050 H   0  0  0  0  0  0  0  0  0  0  0  0
   37.1420   26.2150   43.8600 H   0  0  0  0  0  0  0  0  0  0  0  0
   39.4180   27.0050   44.1090 H   0  0  0  0  0  0  0  0  0  0  0  0
   40.0870   28.9060   43.0000 H   0  0  0  0  0  0  0  0  0  0  0  0
   41.8860   31.3210   42.8460 C   0  0  0  0  0  0  0  0  0  0  0  0
   42.6550   31.4230   41.6690 C   0  0  0  0  0  0  0  0  0  0  0  0
   41.9930   31.2760   40.4640 C   0  0  0  0  0  0  0  0  0  0  0  0
   40.6600   31.0460   40.5250 N   0  0  0  0  0  0  0  0  0  0  0  0
   39.9310   30.9480   41.6710 C   0  0  0  0  0  0  0  0  0  0  0  0
   40.6130   31.0960   42.7190 N   0  0  0  0  0  0  0  0  0  0  0  0
   42.2990   31.4200   43.8530 H   0  0  0  0  0  0  0  0  0  0  0  0
   43.7110   31.6080   41.7870 H   0  0  0  0  0  0  0  0  0  0  0  0
   42.9410   31.3970   38.9850 S   0  0  0  0  0  0  0  0  0  0  0  0
   43.2390   33.0760   38.4280 C   0  0  0  0  0  3  0  0  0  0  0  0
   42.3400   34.1610   38.9000 C   0  0  0  0  0  2  0  0  0  0  0  0
   42.1670   33.6240   37.4920 C   0  0  0  0  0  2  0  0  0  0  0  0
  1 11  1  6  0  0  0
  1 24  1  0  0  0  0
  1 10  1  0  0  0  0
  2 12  1  6  0  0  0
  2  1  1  0  0  0  0
  2  3  1  0  0  0  0
  2 10  1  0  0  0  0
  3  4  1  0  0  0  0
  3 14  1  0  0  0  0
  4  5  1  0  0  0  0
  5  6  2  0  0  0  0
  6  7  1  0  0  0  0
  7  8  2  0  0  0  0
  7 17  1  0  0  0  0
  8 18  1  0  0  0  0
  9 19  1  0  0  0  0
  9  8  1  0  0  0  0
 10  5  1  6  0  0  0
 10  9  1  0  0  0  0
 13  3  1  0  0  0  0
 15  4  1  0  0  0  0
 16  6  1  0  0  0  0
 20 26  1  0  0  0  0
 21 27  1  0  0  0  0
 21 20  2  0  0  0  0
 22 23  2  0  0  0  0
 22 21  1  0  0  0  0
 23 24  1  0  0  0  0
 24 25  2  0  0  0  0
 25 20  1  0  0  0  0
 28 22  1  0  0  0  0
 29 30  1  0  0  0  0
 29 28  1  0  0  0  0
 31 29  1  0  0  0  0
 31 30  1  0  0  0  0
M  END
>  <minimizedAffinity>
-4.93197107

$$$$
