
 OpenBabel03252502573D

 31 33  0  0  0  0  0  0  0  0999 V2000
   41.5220   31.5990   41.5590 Br  0  0  0  0  0  0  0  0  0  0  0  0
   39.7070   31.7030   40.9120 C   0  0  0  0  0  0  0  0  0  0  0  0
   38.7900   30.9540   41.5980 C   0  0  0  0  0  0  0  0  0  0  0  0
   37.4910   31.0560   41.1020 C   0  0  0  0  0  0  0  0  0  0  0  0
   37.1370   31.8400   40.0100 C   0  0  0  0  0  0  0  0  0  0  0  0
   38.1220   32.5530   39.3870 C   0  0  0  0  0  0  0  0  0  0  0  0
   39.4340   32.5000   39.8280 C   0  0  0  0  0  0  0  0  0  0  0  0
   36.6880   30.4930   41.5860 H   0  0  0  0  0  0  0  0  0  0  0  0
   36.1120   31.8810   39.6670 H   0  0  0  0  0  0  0  0  0  0  0  0
   37.8470   33.1710   38.5290 H   0  0  0  0  0  0  0  0  0  0  0  0
   39.0090   30.0940   42.7490 C   0  0  0  0  0  0  0  0  0  0  0  0
   40.1010   29.9630   42.8840 H   0  0  0  0  0  0  0  0  0  0  0  0
   38.6430   30.6420   43.6670 H   0  0  0  0  0  0  0  0  0  0  0  0
   36.6380   27.2840   43.3330 C   0  0  0  0  0  0  0  0  0  0  0  0
   37.1140   26.3260   42.4210 C   0  0  0  0  0  0  0  0  0  0  0  0
   38.2140   26.6450   41.6350 C   0  0  0  0  0  0  0  0  0  0  0  0
   38.7860   27.8660   41.7780 N   0  0  0  0  0  0  0  0  0  0  0  0
   38.3070   28.7870   42.6740 C   0  0  0  0  0  0  0  0  0  0  0  0
   37.2420   28.4630   43.4260 N   0  0  0  0  0  0  0  0  0  0  0  0
   35.7790   26.9820   43.9180 H   0  0  0  0  0  0  0  0  0  0  0  0
   36.6760   25.3430   42.2860 H   0  0  0  0  0  0  0  0  0  0  0  0
   38.6300   25.9540   40.9150 H   0  0  0  0  0  0  0  0  0  0  0  0
   40.4130   33.2380   39.1710 O   0  0  0  0  0  0  0  0  0  0  0  0
   42.1410   33.8200   37.3180 O   0  0  0  0  0  0  0  0  0  0  0  0
   41.2070   32.7170   37.7700 P   0  0  2  0  0  0  0  0  0  0  0  0
   40.0360   32.4180   36.6020 O   0  0  0  0  0  0  0  0  0  0  0  0
   39.3130   33.0650   36.6190 H   0  0  0  0  0  0  0  0  0  0  0  0
   42.1330   31.3250   38.0520 O   0  0  0  0  0  0  0  0  0  0  0  0
   41.7400   30.2510   37.2540 C   0  0  0  0  0  3  0  0  0  0  0  0
   42.6620   29.0400   37.4060 C   0  0  0  0  0  2  0  0  0  0  0  0
   42.6420   29.8500   36.1690 C   0  0  0  0  0  2  0  0  0  0  0  0
  2  1  1  0  0  0  0
  2  3  1  0  0  0  0
  3 11  1  0  0  0  0
  4  8  1  0  0  0  0
  4  3  2  0  0  0  0
  5  4  1  0  0  0  0
  6  7  1  0  0  0  0
  6  5  2  0  0  0  0
  7  2  2  0  0  0  0
  9  5  1  0  0  0  0
 10  6  1  0  0  0  0
 11 12  1  0  0  0  0
 11 13  1  0  0  0  0
 14 19  1  0  0  0  0
 14 20  1  0  0  0  0
 15 14  2  0  0  0  0
 16 17  2  0  0  0  0
 16 15  1  0  0  0  0
 17 18  1  0  0  0  0
 18 11  1  0  0  0  0
 18 19  2  0  0  0  0
 21 15  1  0  0  0  0
 22 16  1  0  0  0  0
 23  7  1  0  0  0  0
 25 24  2  6  0  0  0
 25 28  1  0  0  0  0
 25 23  1  0  0  0  0
 26 27  1  0  0  0  0
 26 25  1  0  0  0  0
 29 30  1  0  0  0  0
 29 28  1  0  0  0  0
 31 29  1  0  0  0  0
 31 30  1  0  0  0  0
M  END
>  <minimizedAffinity>
-5.21988201

$$$$

 OpenBabel03252502573D

 31 33  0  0  0  0  0  0  0  0999 V2000
   39.7590   29.9760   38.5480 Br  0  0  0  0  0  0  0  0  0  0  0  0
   39.0970   31.6850   39.1530 C   0  0  0  0  0  0  0  0  0  0  0  0
   40.0420   32.6590   39.3260 C   0  0  0  0  0  0  0  0  0  0  0  0
   39.5260   33.8780   39.7620 C   0  0  0  0  0  0  0  0  0  0  0  0
   38.1760   34.1060   40.0070 C   0  0  0  0  0  0  0  0  0  0  0  0
   37.3060   33.0720   39.8050 C   0  0  0  0  0  0  0  0  0  0  0  0
   37.7500   31.8350   39.3720 C   0  0  0  0  0  0  0  0  0  0  0  0
   40.2060   34.7180   39.9290 H   0  0  0  0  0  0  0  0  0  0  0  0
   37.8310   35.0730   40.3440 H   0  0  0  0  0  0  0  0  0  0  0  0
   36.2440   33.2480   39.9960 H   0  0  0  0  0  0  0  0  0  0  0  0
   41.4780   32.5700   39.1130 C   0  0  0  0  0  0  0  0  0  0  0  0
   41.6980   31.5990   38.6270 H   0  0  0  0  0  0  0  0  0  0  0  0
   41.7680   33.3670   38.3680 H   0  0  0  0  0  0  0  0  0  0  0  0
   42.9090   32.2030   42.5290 C   0  0  0  0  0  0  0  0  0  0  0  0
   43.8590   33.2390   42.5450 C   0  0  0  0  0  0  0  0  0  0  0  0
   43.9960   34.0320   41.4120 C   0  0  0  0  0  0  0  0  0  0  0  0
   43.2090   33.7780   40.3380 N   0  0  0  0  0  0  0  0  0  0  0  0
   42.2880   32.7610   40.3430 C   0  0  0  0  0  0  0  0  0  0  0  0
   42.1680   32.0030   41.4450 N   0  0  0  0  0  0  0  0  0  0  0  0
   42.8470   31.6170   43.4370 H   0  0  0  0  0  0  0  0  0  0  0  0
   44.5020   33.4650   43.3890 H   0  0  0  0  0  0  0  0  0  0  0  0
   44.7070   34.8450   41.3580 H   0  0  0  0  0  0  0  0  0  0  0  0
   36.8370   30.8030   39.1780 O   0  0  0  0  0  0  0  0  0  0  0  0
   34.9250   29.1840   39.8720 O   0  0  0  0  0  0  0  0  0  0  0  0
   36.1160   29.9310   40.4370 P   0  0  2  0  0  0  0  0  0  0  0  0
   35.6220   31.0360   41.6040 O   0  0  0  0  0  0  0  0  0  0  0  0
   35.2640   31.8530   41.2210 H   0  0  0  0  0  0  0  0  0  0  0  0
   37.1810   28.7960   41.1070 O   0  0  0  0  0  0  0  0  0  0  0  0
   36.7910   28.3840   42.3810 C   0  0  0  0  0  3  0  0  0  0  0  0
   37.9740   27.9310   43.2380 C   0  0  0  0  0  2  0  0  0  0  0  0
   36.9780   26.9690   42.7210 C   0  0  0  0  0  2  0  0  0  0  0  0
  1  2  1  0  0  0  0
  2  3  2  0  0  0  0
  2  7  1  0  0  0  0
  3  4  1  0  0  0  0
  4  8  1  0  0  0  0
  4  5  2  0  0  0  0
  5  9  1  0  0  0  0
  6 10  1  0  0  0  0
  6  5  1  0  0  0  0
  7  6  2  0  0  0  0
 11  3  1  0  0  0  0
 11 18  1  0  0  0  0
 12 11  1  0  0  0  0
 13 11  1  0  0  0  0
 14 15  1  0  0  0  0
 14 20  1  0  0  0  0
 15 21  1  0  0  0  0
 16 15  2  0  0  0  0
 17 18  2  0  0  0  0
 17 16  1  0  0  0  0
 18 19  1  0  0  0  0
 19 14  2  0  0  0  0
 22 16  1  0  0  0  0
 23  7  1  0  0  0  0
 23 25  1  0  0  0  0
 25 24  2  6  0  0  0
 25 28  1  0  0  0  0
 25 26  1  0  0  0  0
 27 26  1  0  0  0  0
 28 29  1  0  0  0  0
 29 31  1  0  0  0  0
 29 30  1  0  0  0  0
 31 30  1  0  0  0  0
M  END
>  <minimizedAffinity>
-5.18302774

$$$$

 OpenBabel03252502573D

 31 33  0  0  0  0  0  0  0  0999 V2000
   39.7070   28.0700   39.7710 Br  0  0  0  0  0  0  0  0  0  0  0  0
   38.6540   28.0920   41.3900 C   0  0  0  0  0  0  0  0  0  0  0  0
   38.7020   29.2540   42.1110 C   0  0  0  0  0  0  0  0  0  0  0  0
   37.9290   29.2320   43.2710 C   0  0  0  0  0  0  0  0  0  0  0  0
   37.1730   28.1390   43.6790 C   0  0  0  0  0  0  0  0  0  0  0  0
   37.1880   27.0210   42.8930 C   0  0  0  0  0  0  0  0  0  0  0  0
   37.9320   26.9740   41.7270 C   0  0  0  0  0  0  0  0  0  0  0  0
   37.9040   30.1160   43.9130 H   0  0  0  0  0  0  0  0  0  0  0  0
   36.5920   28.1770   44.5900 H   0  0  0  0  0  0  0  0  0  0  0  0
   36.5940   26.1600   43.2100 H   0  0  0  0  0  0  0  0  0  0  0  0
   39.4410   30.4700   41.8130 C   0  0  0  0  0  0  0  0  0  0  0  0
   39.8040   30.9000   42.7680 H   0  0  0  0  0  0  0  0  0  0  0  0
   40.3630   30.1820   41.2280 H   0  0  0  0  0  0  0  0  0  0  0  0
   36.9590   32.0790   39.5530 C   0  0  0  0  0  0  0  0  0  0  0  0
   37.3620   33.4250   39.6120 C   0  0  0  0  0  0  0  0  0  0  0  0
   38.4530   33.7580   40.4050 C   0  0  0  0  0  0  0  0  0  0  0  0
   39.0860   32.7750   41.0920 N   0  0  0  0  0  0  0  0  0  0  0  0
   38.6770   31.4670   41.0210 C   0  0  0  0  0  0  0  0  0  0  0  0
   37.6200   31.1620   40.2500 N   0  0  0  0  0  0  0  0  0  0  0  0
   36.1050   31.8780   38.9220 H   0  0  0  0  0  0  0  0  0  0  0  0
   36.8760   34.2310   39.0740 H   0  0  0  0  0  0  0  0  0  0  0  0
   38.8150   34.7730   40.4940 H   0  0  0  0  0  0  0  0  0  0  0  0
   37.9270   25.8200   40.9500 O   0  0  0  0  0  0  0  0  0  0  0  0
   38.9660   23.6550   39.9530 O   0  0  0  0  0  0  0  0  0  0  0  0
   38.9570   24.5020   41.2090 P   0  0  2  0  0  0  0  0  0  0  0  0
   38.3470   23.6270   42.5090 O   0  0  0  0  0  0  0  0  0  0  0  0
   37.3780   23.5800   42.5090 H   0  0  0  0  0  0  0  0  0  0  0  0
   40.5480   24.9990   41.5220 O   0  0  0  0  0  0  0  0  0  0  0  0
   40.8360   25.0400   42.8850 C   0  0  0  0  0  3  0  0  0  0  0  0
   41.2710   26.4310   43.3500 C   0  0  0  0  0  2  0  0  0  0  0  0
   42.2250   25.3040   43.2750 C   0  0  0  0  0  2  0  0  0  0  0  0
  1  2  1  0  0  0  0
  2  7  2  0  0  0  0
  2  3  1  0  0  0  0
  3  4  2  0  0  0  0
  4  5  1  0  0  0  0
  4  8  1  0  0  0  0
  5  9  1  0  0  0  0
  6 10  1  0  0  0  0
  6  5  2  0  0  0  0
  7  6  1  0  0  0  0
 11  3  1  0  0  0  0
 11 12  1  0  0  0  0
 13 11  1  0  0  0  0
 14 15  2  0  0  0  0
 14 19  1  0  0  0  0
 15 16  1  0  0  0  0
 16 22  1  0  0  0  0
 16 17  2  0  0  0  0
 18 17  1  0  0  0  0
 18 11  1  0  0  0  0
 19 18  2  0  0  0  0
 20 14  1  0  0  0  0
 21 15  1  0  0  0  0
 23 25  1  0  0  0  0
 23  7  1  0  0  0  0
 25 24  2  6  0  0  0
 25 28  1  0  0  0  0
 25 26  1  0  0  0  0
 26 27  1  0  0  0  0
 28 29  1  0  0  0  0
 29 31  1  0  0  0  0
 29 30  1  0  0  0  0
 31 30  1  0  0  0  0
M  END
>  <minimizedAffinity>
-5.17473698

$$$$

 OpenBabel03252502573D

 31 33  0  0  0  0  0  0  0  0999 V2000
   41.8540   29.1300   42.4240 Br  0  0  0  0  0  0  0  0  0  0  0  0
   40.0160   28.7120   42.8390 C   0  0  0  0  0  0  0  0  0  0  0  0
   39.1060   29.6900   42.5440 C   0  0  0  0  0  0  0  0  0  0  0  0
   37.7900   29.3510   42.8560 C   0  0  0  0  0  0  0  0  0  0  0  0
   37.4150   28.1360   43.4200 C   0  0  0  0  0  0  0  0  0  0  0  0
   38.3950   27.2210   43.6800 C   0  0  0  0  0  0  0  0  0  0  0  0
   39.7220   27.4910   43.3930 C   0  0  0  0  0  0  0  0  0  0  0  0
   36.9910   30.0700   42.6560 H   0  0  0  0  0  0  0  0  0  0  0  0
   36.3770   27.9270   43.6420 H   0  0  0  0  0  0  0  0  0  0  0  0
   38.1030   26.2650   44.1210 H   0  0  0  0  0  0  0  0  0  0  0  0
   39.3460   30.9990   41.9580 C   0  0  0  0  0  0  0  0  0  0  0  0
   39.0170   31.7700   42.6830 H   0  0  0  0  0  0  0  0  0  0  0  0
   40.4620   31.1290   41.8460 H   0  0  0  0  0  0  0  0  0  0  0  0
   38.4600   30.6930   38.3560 C   0  0  0  0  0  0  0  0  0  0  0  0
   37.4600   31.6720   38.2320 C   0  0  0  0  0  0  0  0  0  0  0  0
   37.1070   32.4080   39.3570 C   0  0  0  0  0  0  0  0  0  0  0  0
   37.7410   32.1550   40.5280 N   0  0  0  0  0  0  0  0  0  0  0  0
   38.7160   31.1950   40.6280 C   0  0  0  0  0  0  0  0  0  0  0  0
   39.0440   30.4910   39.5320 N   0  0  0  0  0  0  0  0  0  0  0  0
   38.6930   30.1500   37.4500 H   0  0  0  0  0  0  0  0  0  0  0  0
   36.9360   31.8960   37.3090 H   0  0  0  0  0  0  0  0  0  0  0  0
   36.3470   33.1760   39.3300 H   0  0  0  0  0  0  0  0  0  0  0  0
   40.6970   26.5370   43.6710 O   0  0  0  0  0  0  0  0  0  0  0  0
   39.9460   24.1470   42.9780 O   0  0  0  0  0  0  0  0  0  0  0  0
   41.0060   25.1910   42.6930 P   0  0  2  0  0  0  0  0  0  0  0  0
   42.5320   24.6100   43.0930 O   0  0  0  0  0  0  0  0  0  0  0  0
   42.7140   24.6550   44.0450 H   0  0  0  0  0  0  0  0  0  0  0  0
   40.9320   25.5810   41.0440 O   0  0  0  0  0  0  0  0  0  0  0  0
   39.6940   25.2810   40.4790 C   0  0  0  0  0  3  0  0  0  0  0  0
   39.6320   25.6210   38.9900 C   0  0  0  0  0  2  0  0  0  0  0  0
   38.8820   26.4030   39.9960 C   0  0  0  0  0  2  0  0  0  0  0  0
  1  2  1  0  0  0  0
  2  7  1  0  0  0  0
  3  2  2  0  0  0  0
  3  4  1  0  0  0  0
  4  5  2  0  0  0  0
  5  9  1  0  0  0  0
  5  6  1  0  0  0  0
  6 10  1  0  0  0  0
  7 23  1  0  0  0  0
  7  6  2  0  0  0  0
  8  4  1  0  0  0  0
 11  3  1  0  0  0  0
 11 12  1  0  0  0  0
 13 11  1  0  0  0  0
 14 19  1  0  0  0  0
 15 14  2  0  0  0  0
 15 16  1  0  0  0  0
 16 17  2  0  0  0  0
 17 18  1  0  0  0  0
 18 11  1  0  0  0  0
 19 18  2  0  0  0  0
 20 14  1  0  0  0  0
 21 15  1  0  0  0  0
 22 16  1  0  0  0  0
 25 24  2  1  0  0  0
 25 26  1  0  0  0  0
 25 23  1  0  0  0  0
 26 27  1  0  0  0  0
 28 25  1  0  0  0  0
 29 28  1  0  0  0  0
 30 31  1  0  0  0  0
 30 29  1  0  0  0  0
 31 29  1  0  0  0  0
M  END
>  <minimizedAffinity>
-5.0831089

$$$$

 OpenBabel03252502573D

 31 33  0  0  0  0  0  0  0  0999 V2000
   35.8560   26.9590   38.2100 Br  0  0  0  0  0  0  0  0  0  0  0  0
   36.4070   28.8090   38.2450 C   0  0  0  0  0  0  0  0  0  0  0  0
   36.1890   29.4690   39.4230 C   0  0  0  0  0  0  0  0  0  0  0  0
   36.6000   30.8010   39.4100 C   0  0  0  0  0  0  0  0  0  0  0  0
   37.1810   31.4230   38.3100 C   0  0  0  0  0  0  0  0  0  0  0  0
   37.3590   30.6820   37.1760 C   0  0  0  0  0  0  0  0  0  0  0  0
   36.9740   29.3530   37.1190 C   0  0  0  0  0  0  0  0  0  0  0  0
   36.4660   31.4110   40.3070 H   0  0  0  0  0  0  0  0  0  0  0  0
   37.4810   32.4600   38.3560 H   0  0  0  0  0  0  0  0  0  0  0  0
   37.8150   31.1670   36.3100 H   0  0  0  0  0  0  0  0  0  0  0  0
   35.5970   28.9560   40.6480 C   0  0  0  0  0  0  0  0  0  0  0  0
   34.9120   29.7270   41.0540 H   0  0  0  0  0  0  0  0  0  0  0  0
   34.9480   28.0720   40.3760 H   0  0  0  0  0  0  0  0  0  0  0  0
   38.1280   28.9250   43.3770 C   0  0  0  0  0  0  0  0  0  0  0  0
   38.3930   27.5490   43.4940 C   0  0  0  0  0  0  0  0  0  0  0  0
   37.7180   26.6690   42.6570 C   0  0  0  0  0  0  0  0  0  0  0  0
   36.8310   27.1690   41.7620 N   0  0  0  0  0  0  0  0  0  0  0  0
   36.5870   28.5150   41.6630 C   0  0  0  0  0  0  0  0  0  0  0  0
   37.2480   29.3530   42.4790 N   0  0  0  0  0  0  0  0  0  0  0  0
   38.6810   29.5630   44.0530 H   0  0  0  0  0  0  0  0  0  0  0  0
   39.0960   27.1210   44.2000 H   0  0  0  0  0  0  0  0  0  0  0  0
   37.8750   25.6000   42.6950 H   0  0  0  0  0  0  0  0  0  0  0  0
   37.1690   28.6270   35.9480 O   0  0  0  0  0  0  0  0  0  0  0  0
   35.6990   27.2770   34.2830 O   0  0  0  0  0  0  0  0  0  0  0  0
   36.1290   28.6910   34.6150 P   0  0  2  0  0  0  0  0  0  0  0  0
   36.9840   29.3650   33.3340 O   0  0  0  0  0  0  0  0  0  0  0  0
   37.9080   29.0700   33.3010 H   0  0  0  0  0  0  0  0  0  0  0  0
   34.7370   29.6020   34.9440 O   0  0  0  0  0  0  0  0  0  0  0  0
   33.6730   28.8130   35.3770 C   0  0  0  0  0  3  0  0  0  0  0  0
   32.3600   29.5920   35.4570 C   0  0  0  0  0  2  0  0  0  0  0  0
   33.0700   29.1430   36.6730 C   0  0  0  0  0  2  0  0  0  0  0  0
  1  2  1  0  0  0  0
  2  3  1  0  0  0  0
  3 11  1  0  0  0  0
  4  3  2  0  0  0  0
  4  8  1  0  0  0  0
  5  9  1  0  0  0  0
  5  4  1  0  0  0  0
  6  5  2  0  0  0  0
  7  6  1  0  0  0  0
  7  2  2  0  0  0  0
 10  6  1  0  0  0  0
 11 12  1  0  0  0  0
 11 18  1  0  0  0  0
 13 11  1  0  0  0  0
 14 15  1  0  0  0  0
 14 20  1  0  0  0  0
 15 21  1  0  0  0  0
 16 22  1  0  0  0  0
 16 15  2  0  0  0  0
 17 16  1  0  0  0  0
 18 17  2  0  0  0  0
 18 19  1  0  0  0  0
 19 14  2  0  0  0  0
 23  7  1  0  0  0  0
 25 24  2  6  0  0  0
 25 28  1  0  0  0  0
 25 23  1  0  0  0  0
 26 25  1  0  0  0  0
 27 26  1  0  0  0  0
 28 29  1  0  0  0  0
 29 30  1  0  0  0  0
 29 31  1  0  0  0  0
 30 31  1  0  0  0  0
M  END
>  <minimizedAffinity>
-5.03577042

$$$$

 OpenBabel03252502573D

 31 33  0  0  0  0  0  0  0  0999 V2000
   37.2910   28.1190   43.6580 Br  0  0  0  0  0  0  0  0  0  0  0  0
   36.9910   27.5630   41.8340 C   0  0  0  0  0  0  0  0  0  0  0  0
   36.4790   28.5200   41.0000 C   0  0  0  0  0  0  0  0  0  0  0  0
   36.2780   28.0820   39.6920 C   0  0  0  0  0  0  0  0  0  0  0  0
   36.5610   26.7940   39.2530 C   0  0  0  0  0  0  0  0  0  0  0  0
   37.0690   25.9060   40.1590 C   0  0  0  0  0  0  0  0  0  0  0  0
   37.2960   26.2740   41.4740 C   0  0  0  0  0  0  0  0  0  0  0  0
   35.8710   28.7770   38.9530 H   0  0  0  0  0  0  0  0  0  0  0  0
   36.3840   26.5080   38.2250 H   0  0  0  0  0  0  0  0  0  0  0  0
   37.2940   24.8930   39.8170 H   0  0  0  0  0  0  0  0  0  0  0  0
   36.1350   29.8980   41.3130 C   0  0  0  0  0  0  0  0  0  0  0  0
   35.1210   30.1020   40.9170 H   0  0  0  0  0  0  0  0  0  0  0  0
   36.0580   29.9900   42.4360 H   0  0  0  0  0  0  0  0  0  0  0  0
   39.2300   31.9140   40.8520 C   0  0  0  0  0  0  0  0  0  0  0  0
   38.8370   32.7950   39.8290 C   0  0  0  0  0  0  0  0  0  0  0  0
   37.5490   32.6900   39.3200 C   0  0  0  0  0  0  0  0  0  0  0  0
   36.7200   31.7460   39.8290 N   0  0  0  0  0  0  0  0  0  0  0  0
   37.1230   30.8960   40.8280 C   0  0  0  0  0  0  0  0  0  0  0  0
   38.3720   31.0090   41.3090 N   0  0  0  0  0  0  0  0  0  0  0  0
   40.2430   32.0400   41.2090 H   0  0  0  0  0  0  0  0  0  0  0  0
   39.4780   33.5600   39.4030 H   0  0  0  0  0  0  0  0  0  0  0  0
   37.1830   33.3360   38.5340 H   0  0  0  0  0  0  0  0  0  0  0  0
   37.8140   25.3450   42.3720 O   0  0  0  0  0  0  0  0  0  0  0  0
   40.0470   24.8720   41.1280 O   0  0  0  0  0  0  0  0  0  0  0  0
   39.4630   24.9950   42.5200 P   0  0  2  0  0  0  0  0  0  0  0  0
   39.6020   23.5390   43.3500 O   0  0  0  0  0  0  0  0  0  0  0  0
   38.9200   22.8960   43.0980 H   0  0  0  0  0  0  0  0  0  0  0  0
   40.2970   26.2250   43.3360 O   0  0  0  0  0  0  0  0  0  0  0  0
   41.1440   26.9450   42.4940 C   0  0  0  0  0  3  0  0  0  0  0  0
   41.6010   28.2660   43.1140 C   0  0  0  0  0  2  0  0  0  0  0  0
   40.6530   28.2280   41.9800 C   0  0  0  0  0  2  0  0  0  0  0  0
  2  1  1  0  0  0  0
  3 11  1  0  0  0  0
  3  2  2  0  0  0  0
  4  3  1  0  0  0  0
  5  4  2  0  0  0  0
  5  6  1  0  0  0  0
  6  7  2  0  0  0  0
  7  2  1  0  0  0  0
  7 23  1  0  0  0  0
  8  4  1  0  0  0  0
  9  5  1  0  0  0  0
 10  6  1  0  0  0  0
 11 13  1  0  0  0  0
 12 11  1  0  0  0  0
 14 20  1  0  0  0  0
 14 19  1  0  0  0  0
 15 14  2  0  0  0  0
 16 17  2  0  0  0  0
 16 15  1  0  0  0  0
 17 18  1  0  0  0  0
 18 19  2  0  0  0  0
 18 11  1  0  0  0  0
 21 15  1  0  0  0  0
 22 16  1  0  0  0  0
 23 25  1  0  0  0  0
 25 24  2  6  0  0  0
 25 28  1  0  0  0  0
 25 26  1  0  0  0  0
 27 26  1  0  0  0  0
 29 30  1  0  0  0  0
 29 28  1  0  0  0  0
 31 29  1  0  0  0  0
 31 30  1  0  0  0  0
M  END
>  <minimizedAffinity>
-4.99420261

$$$$

 OpenBabel03252502573D

 31 33  0  0  0  0  0  0  0  0999 V2000
   41.2100   27.5610   43.0580 Br  0  0  0  0  0  0  0  0  0  0  0  0
   39.2980   27.6950   42.8320 C   0  0  0  0  0  0  0  0  0  0  0  0
   38.6300   26.5060   42.7200 C   0  0  0  0  0  0  0  0  0  0  0  0
   37.2520   26.6420   42.5600 C   0  0  0  0  0  0  0  0  0  0  0  0
   36.5950   27.8670   42.5120 C   0  0  0  0  0  0  0  0  0  0  0  0
   37.3460   29.0020   42.6320 C   0  0  0  0  0  0  0  0  0  0  0  0
   38.7190   28.9390   42.7950 C   0  0  0  0  0  0  0  0  0  0  0  0
   36.6340   25.7460   42.4620 H   0  0  0  0  0  0  0  0  0  0  0  0
   35.5220   27.9140   42.3850 H   0  0  0  0  0  0  0  0  0  0  0  0
   36.8320   29.9650   42.5950 H   0  0  0  0  0  0  0  0  0  0  0  0
   39.1770   25.1580   42.7520 C   0  0  0  0  0  0  0  0  0  0  0  0
   40.2010   25.2070   43.1740 H   0  0  0  0  0  0  0  0  0  0  0  0
   38.5650   24.5520   43.4820 H   0  0  0  0  0  0  0  0  0  0  0  0
   39.9040   24.1610   39.2400 C   0  0  0  0  0  0  0  0  0  0  0  0
   39.0140   23.0870   39.0670 C   0  0  0  0  0  0  0  0  0  0  0  0
   38.1950   22.7250   40.1290 C   0  0  0  0  0  0  0  0  0  0  0  0
   38.2850   23.4200   41.2900 N   0  0  0  0  0  0  0  0  0  0  0  0
   39.1600   24.4650   41.4380 C   0  0  0  0  0  0  0  0  0  0  0  0
   39.9460   24.8030   40.4020 N   0  0  0  0  0  0  0  0  0  0  0  0
   40.5180   24.3980   38.3810 H   0  0  0  0  0  0  0  0  0  0  0  0
   38.9210   22.5130   38.1510 H   0  0  0  0  0  0  0  0  0  0  0  0
   37.4890   21.9090   40.0620 H   0  0  0  0  0  0  0  0  0  0  0  0
   39.4550   30.1150   42.9130 O   0  0  0  0  0  0  0  0  0  0  0  0
   40.2810   30.2900   40.4550 O   0  0  0  0  0  0  0  0  0  0  0  0
   39.8070   31.1420   41.6150 P   0  0  2  0  0  0  0  0  0  0  0  0
   41.0210   32.1930   42.1120 O   0  0  0  0  0  0  0  0  0  0  0  0
   41.6850   31.7630   42.6730 H   0  0  0  0  0  0  0  0  0  0  0  0
   38.4410   32.0080   41.1080 O   0  0  0  0  0  0  0  0  0  0  0  0
   38.2590   31.9600   39.7270 C   0  0  0  0  0  3  0  0  0  0  0  0
   37.2660   33.0110   39.2290 C   0  0  0  0  0  2  0  0  0  0  0  0
   36.9340   31.5710   39.2330 C   0  0  0  0  0  2  0  0  0  0  0  0
  2  1  1  0  0  0  0
  3 11  1  0  0  0  0
  3  2  2  0  0  0  0
  4  3  1  0  0  0  0
  5  4  2  0  0  0  0
  5  6  1  0  0  0  0
  6  7  2  0  0  0  0
  7  2  1  0  0  0  0
  7 23  1  0  0  0  0
  8  4  1  0  0  0  0
  9  5  1  0  0  0  0
 10  6  1  0  0  0  0
 11 12  1  0  0  0  0
 11 13  1  0  0  0  0
 14 19  1  0  0  0  0
 15 14  2  0  0  0  0
 15 16  1  0  0  0  0
 16 17  2  0  0  0  0
 17 18  1  0  0  0  0
 18 11  1  0  0  0  0
 19 18  2  0  0  0  0
 20 14  1  0  0  0  0
 21 15  1  0  0  0  0
 22 16  1  0  0  0  0
 25 24  2  6  0  0  0
 25 26  1  0  0  0  0
 25 23  1  0  0  0  0
 26 27  1  0  0  0  0
 28 25  1  0  0  0  0
 29 28  1  0  0  0  0
 30 31  1  0  0  0  0
 30 29  1  0  0  0  0
 31 29  1  0  0  0  0
M  END
>  <minimizedAffinity>
-4.97575521

$$$$

 OpenBabel03252502573D

 31 33  0  0  0  0  0  0  0  0999 V2000
   39.8580   28.5740   39.5990 Br  0  0  0  0  0  0  0  0  0  0  0  0
   38.9910   28.2390   41.2900 C   0  0  0  0  0  0  0  0  0  0  0  0
   39.1140   26.9660   41.7770 C   0  0  0  0  0  0  0  0  0  0  0  0
   38.4760   26.7630   42.9990 C   0  0  0  0  0  0  0  0  0  0  0  0
   37.7710   27.7490   43.6800 C   0  0  0  0  0  0  0  0  0  0  0  0
   37.7020   28.9910   43.1150 C   0  0  0  0  0  0  0  0  0  0  0  0
   38.3140   29.2640   41.9040 C   0  0  0  0  0  0  0  0  0  0  0  0
   38.5190   25.7750   43.4670 H   0  0  0  0  0  0  0  0  0  0  0  0
   37.2950   27.5350   44.6270 H   0  0  0  0  0  0  0  0  0  0  0  0
   37.1500   29.7690   43.6480 H   0  0  0  0  0  0  0  0  0  0  0  0
   39.8140   25.8380   41.1830 C   0  0  0  0  0  0  0  0  0  0  0  0
   40.5930   26.2310   40.5000 H   0  0  0  0  0  0  0  0  0  0  0  0
   40.3640   25.2970   42.0080 H   0  0  0  0  0  0  0  0  0  0  0  0
   37.5200   24.2140   38.7420 C   0  0  0  0  0  0  0  0  0  0  0  0
   37.3110   22.9630   39.3480 C   0  0  0  0  0  0  0  0  0  0  0  0
   37.9420   22.6960   40.5570 C   0  0  0  0  0  0  0  0  0  0  0  0
   38.7350   23.6500   41.1050 N   0  0  0  0  0  0  0  0  0  0  0  0
   38.9260   24.8650   40.4970 C   0  0  0  0  0  0  0  0  0  0  0  0
   38.3090   25.1070   39.3280 N   0  0  0  0  0  0  0  0  0  0  0  0
   37.0060   24.3660   37.8030 H   0  0  0  0  0  0  0  0  0  0  0  0
   36.6830   22.1810   38.9340 H   0  0  0  0  0  0  0  0  0  0  0  0
   37.8230   21.7550   41.0750 H   0  0  0  0  0  0  0  0  0  0  0  0
   38.2240   30.5400   41.3560 O   0  0  0  0  0  0  0  0  0  0  0  0
   37.2210   32.4760   39.9400 O   0  0  0  0  0  0  0  0  0  0  0  0
   36.8960   31.0910   40.4620 P   0  0  2  0  0  0  0  0  0  0  0  0
   35.5720   31.1450   41.4970 O   0  0  0  0  0  0  0  0  0  0  0  0
   35.8040   31.4500   42.3890 H   0  0  0  0  0  0  0  0  0  0  0  0
   36.5710   30.0890   39.1340 O   0  0  0  0  0  0  0  0  0  0  0  0
   35.5530   29.1730   39.3930 C   0  0  0  0  0  3  0  0  0  0  0  0
   35.9030   27.7600   38.9240 C   0  0  0  0  0  2  0  0  0  0  0  0
   34.8750   28.5710   38.2400 C   0  0  0  0  0  2  0  0  0  0  0  0
  1  2  1  0  0  0  0
  2  3  2  0  0  0  0
  2  7  1  0  0  0  0
  3  4  1  0  0  0  0
  4  8  1  0  0  0  0
  4  5  2  0  0  0  0
  5  9  1  0  0  0  0
  6 10  1  0  0  0  0
  6  5  1  0  0  0  0
  7  6  2  0  0  0  0
 11  3  1  0  0  0  0
 11 13  1  0  0  0  0
 12 11  1  0  0  0  0
 14 19  2  0  0  0  0
 14 15  1  0  0  0  0
 15 16  2  0  0  0  0
 16 22  1  0  0  0  0
 16 17  1  0  0  0  0
 18 17  2  0  0  0  0
 18 11  1  0  0  0  0
 19 18  1  0  0  0  0
 20 14  1  0  0  0  0
 21 15  1  0  0  0  0
 23  7  1  0  0  0  0
 25 24  2  6  0  0  0
 25 23  1  0  0  0  0
 25 26  1  0  0  0  0
 26 27  1  0  0  0  0
 28 29  1  0  0  0  0
 28 25  1  0  0  0  0
 30 29  1  0  0  0  0
 31 30  1  0  0  0  0
 31 29  1  0  0  0  0
M  END
>  <minimizedAffinity>
-4.96042728

$$$$

 OpenBabel03252502573D

 31 33  0  0  0  0  0  0  0  0999 V2000
   39.5880   30.5600   42.1330 Br  0  0  0  0  0  0  0  0  0  0  0  0
   37.9710   30.1300   41.1700 C   0  0  0  0  0  0  0  0  0  0  0  0
   37.1410   29.2290   41.7790 C   0  0  0  0  0  0  0  0  0  0  0  0
   35.9840   28.9450   41.0550 C   0  0  0  0  0  0  0  0  0  0  0  0
   35.6820   29.5130   39.8220 C   0  0  0  0  0  0  0  0  0  0  0  0
   36.5720   30.4030   39.2920 C   0  0  0  0  0  0  0  0  0  0  0  0
   37.7410   30.7320   39.9580 C   0  0  0  0  0  0  0  0  0  0  0  0
   35.2600   28.2350   41.4610 H   0  0  0  0  0  0  0  0  0  0  0  0
   34.7690   29.2550   39.3030 H   0  0  0  0  0  0  0  0  0  0  0  0
   36.3380   30.8520   38.3240 H   0  0  0  0  0  0  0  0  0  0  0  0
   37.3220   28.5560   43.0560 C   0  0  0  0  0  0  0  0  0  0  0  0
   37.8180   29.2600   43.7530 H   0  0  0  0  0  0  0  0  0  0  0  0
   36.2980   28.3540   43.4890 H   0  0  0  0  0  0  0  0  0  0  0  0
   38.3230   25.0810   42.1770 C   0  0  0  0  0  0  0  0  0  0  0  0
   39.5220   24.9470   42.8990 C   0  0  0  0  0  0  0  0  0  0  0  0
   39.9630   26.0220   43.6600 C   0  0  0  0  0  0  0  0  0  0  0  0
   39.2230   27.1580   43.6780 N   0  0  0  0  0  0  0  0  0  0  0  0
   38.0550   27.2680   42.9660 C   0  0  0  0  0  0  0  0  0  0  0  0
   37.6420   26.2190   42.2350 N   0  0  0  0  0  0  0  0  0  0  0  0
   38.0290   24.2130   41.6020 H   0  0  0  0  0  0  0  0  0  0  0  0
   40.1350   24.0520   42.9040 H   0  0  0  0  0  0  0  0  0  0  0  0
   40.8760   25.9850   44.2390 H   0  0  0  0  0  0  0  0  0  0  0  0
   38.6270   31.6420   39.3900 O   0  0  0  0  0  0  0  0  0  0  0  0
   41.1550   31.3860   38.8400 O   0  0  0  0  0  0  0  0  0  0  0  0
   39.7810   31.2320   38.2210 P   0  0  2  0  0  0  0  0  0  0  0  0
   39.5930   32.2890   36.9270 O   0  0  0  0  0  0  0  0  0  0  0  0
   39.3880   33.1950   37.2080 H   0  0  0  0  0  0  0  0  0  0  0  0
   39.6110   29.6260   37.7050 O   0  0  0  0  0  0  0  0  0  0  0  0
   40.3920   28.7410   38.4480 C   0  0  0  0  0  3  0  0  0  0  0  0
   40.3730   27.3230   37.8780 C   0  0  0  0  0  2  0  0  0  0  0  0
   39.7000   27.6550   39.1510 C   0  0  0  0  0  2  0  0  0  0  0  0
  2  3  1  0  0  0  0
  2  1  1  0  0  0  0
  3 11  1  0  0  0  0
  4  8  1  0  0  0  0
  4  3  2  0  0  0  0
  5  4  1  0  0  0  0
  6  5  2  0  0  0  0
  6  7  1  0  0  0  0
  7  2  2  0  0  0  0
  9  5  1  0  0  0  0
 10  6  1  0  0  0  0
 11 13  1  0  0  0  0
 11 12  1  0  0  0  0
 14 19  2  0  0  0  0
 14 15  1  0  0  0  0
 15 21  1  0  0  0  0
 15 16  2  0  0  0  0
 16 17  1  0  0  0  0
 16 22  1  0  0  0  0
 18 11  1  0  0  0  0
 18 17  2  0  0  0  0
 19 18  1  0  0  0  0
 20 14  1  0  0  0  0
 23  7  1  0  0  0  0
 25 24  2  1  0  0  0
 25 23  1  0  0  0  0
 26 27  1  0  0  0  0
 26 25  1  0  0  0  0
 28 25  1  0  0  0  0
 28 29  1  0  0  0  0
 29 31  1  0  0  0  0
 30 29  1  0  0  0  0
 30 31  1  0  0  0  0
M  END
>  <minimizedAffinity>
-4.88435936

$$$$
