
 OpenBabel03242520343D

 22 24  0  0  1  0  0  0  0  0999 V2000
   37.6850   28.4390   43.6160 C   0  0  1  0  0  0  0  0  0  0  0  0
   36.5710   27.5190   43.5360 C   0  0  0  0  0  0  0  0  0  0  0  0
   37.9150   26.9910   43.1940 C   0  0  1  0  0  0  0  0  0  0  0  0
   38.0940   28.7030   44.6350 H   0  0  0  0  0  0  0  0  0  0  0  0
   35.8720   27.6520   42.6730 H   0  0  0  0  0  0  0  0  0  0  0  0
   36.0300   27.1430   44.4360 H   0  0  0  0  0  0  0  0  0  0  0  0
   38.3680   26.3240   43.9620 H   0  0  0  0  0  0  0  0  0  0  0  0
   39.1250   30.1750   42.4380 C   0  0  0  0  0  0  0  0  0  0  0  0
   37.8710   29.4980   42.5990 C   0  0  0  0  0  0  0  0  0  0  0  0
   36.8370   29.8900   41.7730 C   0  0  0  0  0  0  0  0  0  0  0  0
   37.0460   30.8750   40.8650 N   0  0  0  0  0  0  0  0  0  0  0  0
   38.2340   31.4920   40.7370 C   0  0  0  0  0  0  0  0  0  0  0  0
   39.2700   31.1320   41.5320 N   0  0  0  0  0  0  0  0  0  0  0  0
   39.9520   29.8880   43.0710 H   0  0  0  0  0  0  0  0  0  0  0  0
   35.8770   29.4060   41.8640 H   0  0  0  0  0  0  0  0  0  0  0  0
   38.3780   32.5670   39.7110 C   0  0  0  0  0  3  0  0  0  0  0  0
   38.3800   33.9710   40.3330 C   0  0  0  0  0  2  0  0  0  0  0  0
   37.2700   33.5060   39.4510 C   0  0  0  0  0  2  0  0  0  0  0  0
   38.2920   26.6670   41.7930 C   0  0  0  0  0  0  0  0  0  0  0  0
   39.4520   27.3090   41.3970 F   0  0  0  0  0  0  0  0  0  0  0  0
   37.2710   26.9880   40.8960 F   0  0  0  0  0  0  0  0  0  0  0  0
   38.5410   25.3170   41.7190 F   0  0  0  0  0  0  0  0  0  0  0  0
  1  4  1  1  0  0  0
  2  1  1  0  0  0  0
  2  6  1  0  0  0  0
  3  2  1  0  0  0  0
  3  1  1  0  0  0  0
  3  7  1  1  0  0  0
  5  2  1  0  0  0  0
  8  9  1  0  0  0  0
  8 14  1  0  0  0  0
  9  1  1  0  0  0  0
 10 15  1  0  0  0  0
 10  9  2  0  0  0  0
 11 10  1  0  0  0  0
 12 11  2  0  0  0  0
 12 13  1  0  0  0  0
 13  8  2  0  0  0  0
 16 17  1  0  0  0  0
 16 12  1  0  0  0  0
 18 16  1  0  0  0  0
 18 17  1  0  0  0  0
 19  3  1  0  0  0  0
 20 19  1  0  0  0  0
 21 19  1  0  0  0  0
 22 19  1  0  0  0  0
M  END
>  <minimizedAffinity>
-4.77717972

$$$$

 OpenBabel03242520343D

 22 24  0  0  1  0  0  0  0  0999 V2000
   39.3450   27.2780   42.2870 C   0  0  1  0  0  0  0  0  0  0  0  0
   39.0320   27.0430   43.6800 C   0  0  0  0  0  0  0  0  0  0  0  0
   38.5050   26.0700   42.6890 C   0  0  1  0  0  0  0  0  0  0  0  0
   40.3830   27.0270   41.9180 H   0  0  0  0  0  0  0  0  0  0  0  0
   38.2700   27.7180   44.1430 H   0  0  0  0  0  0  0  0  0  0  0  0
   39.7950   26.7260   44.4270 H   0  0  0  0  0  0  0  0  0  0  0  0
   39.0250   25.0860   42.6740 H   0  0  0  0  0  0  0  0  0  0  0  0
   38.6930   28.4010   40.0980 C   0  0  0  0  0  0  0  0  0  0  0  0
   38.6840   28.3650   41.5320 C   0  0  0  0  0  0  0  0  0  0  0  0
   38.0430   29.4030   42.1790 C   0  0  0  0  0  0  0  0  0  0  0  0
   37.4630   30.3870   41.4500 N   0  0  0  0  0  0  0  0  0  0  0  0
   37.4880   30.3930   40.1040 C   0  0  0  0  0  0  0  0  0  0  0  0
   38.1080   29.3900   39.4380 N   0  0  0  0  0  0  0  0  0  0  0  0
   39.1870   27.6010   39.5650 H   0  0  0  0  0  0  0  0  0  0  0  0
   38.0150   29.4140   43.2580 H   0  0  0  0  0  0  0  0  0  0  0  0
   36.8230   31.5160   39.3790 C   0  0  0  0  0  3  0  0  0  0  0  0
   37.7880   32.2550   38.4410 C   0  0  0  0  0  2  0  0  0  0  0  0
   37.2120   32.9140   39.6480 C   0  0  0  0  0  2  0  0  0  0  0  0
   37.0600   26.0120   42.3470 C   0  0  0  0  0  0  0  0  0  0  0  0
   36.8270   26.2410   41.0020 F   0  0  0  0  0  0  0  0  0  0  0  0
   36.3140   26.9270   43.0940 F   0  0  0  0  0  0  0  0  0  0  0  0
   36.6070   24.7420   42.6180 F   0  0  0  0  0  0  0  0  0  0  0  0
  1  4  1  6  0  0  0
  1  3  1  0  0  0  0
  1  2  1  0  0  0  0
  2  5  1  0  0  0  0
  2  6  1  0  0  0  0
  3  7  1  6  0  0  0
  3  2  1  0  0  0  0
  8  9  1  0  0  0  0
  9 10  2  0  0  0  0
  9  1  1  0  0  0  0
 10 15  1  0  0  0  0
 11 10  1  0  0  0  0
 12 11  2  0  0  0  0
 13  8  2  0  0  0  0
 13 12  1  0  0  0  0
 14  8  1  0  0  0  0
 16 18  1  0  0  0  0
 16 12  1  0  0  0  0
 17 16  1  0  0  0  0
 17 18  1  0  0  0  0
 19 22  1  0  0  0  0
 19  3  1  0  0  0  0
 19 21  1  0  0  0  0
 20 19  1  0  0  0  0
M  END
>  <minimizedAffinity>
-4.65355778

$$$$

 OpenBabel03242520343D

 22 24  0  0  1  0  0  0  0  0999 V2000
   37.6770   28.3180   43.6020 C   0  0  1  0  0  0  0  0  0  0  0  0
   36.5430   27.4370   43.4250 C   0  0  0  0  0  0  0  0  0  0  0  0
   37.8830   26.9010   43.0760 C   0  0  1  0  0  0  0  0  0  0  0  0
   38.0650   28.4930   44.6480 H   0  0  0  0  0  0  0  0  0  0  0  0
   35.8710   27.6540   42.5570 H   0  0  0  0  0  0  0  0  0  0  0  0
   35.9700   27.0080   44.2790 H   0  0  0  0  0  0  0  0  0  0  0  0
   38.2980   26.1660   43.8010 H   0  0  0  0  0  0  0  0  0  0  0  0
   36.9080   29.8980   41.7610 C   0  0  0  0  0  0  0  0  0  0  0  0
   37.9160   29.4460   42.6750 C   0  0  0  0  0  0  0  0  0  0  0  0
   39.1310   30.1020   42.6400 C   0  0  0  0  0  0  0  0  0  0  0  0
   39.3140   31.1210   41.7650 N   0  0  0  0  0  0  0  0  0  0  0  0
   38.3480   31.5230   40.9200 C   0  0  0  0  0  0  0  0  0  0  0  0
   37.1440   30.9010   40.9280 N   0  0  0  0  0  0  0  0  0  0  0  0
   35.9470   29.4040   41.7670 H   0  0  0  0  0  0  0  0  0  0  0  0
   39.9180   29.7910   43.3110 H   0  0  0  0  0  0  0  0  0  0  0  0
   38.6330   32.6540   39.9890 C   0  0  0  0  0  3  0  0  0  0  0  0
   39.3000   32.1840   38.6870 C   0  0  0  0  0  2  0  0  0  0  0  0
   40.0250   33.0330   39.6770 C   0  0  0  0  0  2  0  0  0  0  0  0
   38.2880   26.6740   41.6640 C   0  0  0  0  0  0  0  0  0  0  0  0
   38.5530   25.3420   41.4000 F   0  0  0  0  0  0  0  0  0  0  0  0
   39.4100   27.4330   41.3210 F   0  0  0  0  0  0  0  0  0  0  0  0
   37.2390   27.0400   40.8540 F   0  0  0  0  0  0  0  0  0  0  0  0
  1  4  1  1  0  0  0
  2  1  1  0  0  0  0
  2  6  1  0  0  0  0
  3  2  1  0  0  0  0
  3  1  1  0  0  0  0
  3  7  1  1  0  0  0
  5  2  1  0  0  0  0
  8 14  1  0  0  0  0
  8  9  1  0  0  0  0
  9  1  1  0  0  0  0
 10  9  2  0  0  0  0
 10 15  1  0  0  0  0
 11 10  1  0  0  0  0
 12 13  1  0  0  0  0
 12 11  2  0  0  0  0
 13  8  2  0  0  0  0
 16 12  1  0  0  0  0
 17 18  1  0  0  0  0
 17 16  1  0  0  0  0
 18 16  1  0  0  0  0
 19  3  1  0  0  0  0
 20 19  1  0  0  0  0
 21 19  1  0  0  0  0
 22 19  1  0  0  0  0
M  END
>  <minimizedAffinity>
-4.430408

$$$$

 OpenBabel03242520343D

 22 24  0  0  1  0  0  0  0  0999 V2000
   37.5440   32.0820   38.9430 C   0  0  1  0  0  0  0  0  0  0  0  0
   37.3110   33.4450   39.3690 C   0  0  0  0  0  0  0  0  0  0  0  0
   38.7230   33.0040   39.2360 C   0  0  1  0  0  0  0  0  0  0  0  0
   37.4060   31.8280   37.8510 H   0  0  0  0  0  0  0  0  0  0  0  0
   36.9480   33.5870   40.4170 H   0  0  0  0  0  0  0  0  0  0  0  0
   36.9010   34.2300   38.6920 H   0  0  0  0  0  0  0  0  0  0  0  0
   39.2600   33.4080   38.3490 H   0  0  0  0  0  0  0  0  0  0  0  0
   37.9320   29.6720   39.6640 C   0  0  0  0  0  0  0  0  0  0  0  0
   37.3040   30.9460   39.8600 C   0  0  0  0  0  0  0  0  0  0  0  0
   36.4490   31.0630   40.9380 C   0  0  0  0  0  0  0  0  0  0  0  0
   36.2450   29.9930   41.7460 N   0  0  0  0  0  0  0  0  0  0  0  0
   36.8490   28.8100   41.5360 C   0  0  0  0  0  0  0  0  0  0  0  0
   37.6940   28.6620   40.4870 N   0  0  0  0  0  0  0  0  0  0  0  0
   38.6070   29.5530   38.8280 H   0  0  0  0  0  0  0  0  0  0  0  0
   35.9550   32.0050   41.1210 H   0  0  0  0  0  0  0  0  0  0  0  0
   36.5690   27.6830   42.4750 C   0  0  0  0  0  3  0  0  0  0  0  0
   37.6270   27.5710   43.5820 C   0  0  0  0  0  2  0  0  0  0  0  0
   37.4730   26.5190   42.5360 C   0  0  0  0  0  2  0  0  0  0  0  0
   39.5820   32.7720   40.4270 C   0  0  0  0  0  0  0  0  0  0  0  0
   40.2250   31.5470   40.3810 F   0  0  0  0  0  0  0  0  0  0  0  0
   38.8520   32.8520   41.6150 F   0  0  0  0  0  0  0  0  0  0  0  0
   40.5630   33.7350   40.4410 F   0  0  0  0  0  0  0  0  0  0  0  0
  1  4  1  6  0  0  0
  1  3  1  0  0  0  0
  1  2  1  0  0  0  0
  1  9  1  0  0  0  0
  2  5  1  0  0  0  0
  3  7  1  6  0  0  0
  3  2  1  0  0  0  0
  3 19  1  0  0  0  0
  6  2  1  0  0  0  0
  8  9  2  0  0  0  0
  8 13  1  0  0  0  0
  9 10  1  0  0  0  0
 10 15  1  0  0  0  0
 10 11  2  0  0  0  0
 12 11  1  0  0  0  0
 12 16  1  0  0  0  0
 13 12  2  0  0  0  0
 14  8  1  0  0  0  0
 16 18  1  0  0  0  0
 16 17  1  0  0  0  0
 18 17  1  0  0  0  0
 19 22  1  0  0  0  0
 19 21  1  0  0  0  0
 20 19  1  0  0  0  0
M  END
>  <minimizedAffinity>
-4.3807807

$$$$

 OpenBabel03242520343D

 22 24  0  0  1  0  0  0  0  0999 V2000
   36.8090   25.0780   42.0190 C   0  0  1  0  0  0  0  0  0  0  0  0
   37.3590   24.0750   41.1330 C   0  0  0  0  0  0  0  0  0  0  0  0
   37.9810   24.2140   42.4730 C   0  0  1  0  0  0  0  0  0  0  0  0
   35.8330   24.8590   42.5420 H   0  0  0  0  0  0  0  0  0  0  0  0
   37.9740   24.4460   40.2760 H   0  0  0  0  0  0  0  0  0  0  0  0
   36.8120   23.1430   40.8600 H   0  0  0  0  0  0  0  0  0  0  0  0
   37.7380   23.4000   43.1920 H   0  0  0  0  0  0  0  0  0  0  0  0
   37.4980   27.0100   40.5120 C   0  0  0  0  0  0  0  0  0  0  0  0
   37.0560   26.5180   41.7840 C   0  0  0  0  0  0  0  0  0  0  0  0
   36.8860   27.4490   42.7890 C   0  0  0  0  0  0  0  0  0  0  0  0
   37.1370   28.7570   42.5360 N   0  0  0  0  0  0  0  0  0  0  0  0
   37.5510   29.1890   41.3310 C   0  0  0  0  0  0  0  0  0  0  0  0
   37.7280   28.3010   40.3230 N   0  0  0  0  0  0  0  0  0  0  0  0
   37.6390   26.3030   39.7060 H   0  0  0  0  0  0  0  0  0  0  0  0
   36.5550   27.1200   43.7630 H   0  0  0  0  0  0  0  0  0  0  0  0
   37.8040   30.6470   41.1380 C   0  0  0  0  0  3  0  0  0  0  0  0
   36.5660   31.3890   40.6140 C   0  0  0  0  0  2  0  0  0  0  0  0
   37.7960   31.2340   39.7840 C   0  0  0  0  0  2  0  0  0  0  0  0
   39.3320   24.8100   42.6480 C   0  0  0  0  0  0  0  0  0  0  0  0
   39.3330   25.8560   43.5540 F   0  0  0  0  0  0  0  0  0  0  0  0
   39.8570   25.2640   41.4350 F   0  0  0  0  0  0  0  0  0  0  0  0
   40.1640   23.8410   43.1580 F   0  0  0  0  0  0  0  0  0  0  0  0
  1  3  1  0  0  0  0
  1  4  1  1  0  0  0
  2  1  1  0  0  0  0
  2  3  1  0  0  0  0
  3 19  1  0  0  0  0
  3  7  1  1  0  0  0
  5  2  1  0  0  0  0
  6  2  1  0  0  0  0
  8  9  1  0  0  0  0
  9  1  1  0  0  0  0
  9 10  2  0  0  0  0
 10 15  1  0  0  0  0
 11 10  1  0  0  0  0
 12 11  2  0  0  0  0
 13  8  2  0  0  0  0
 13 12  1  0  0  0  0
 14  8  1  0  0  0  0
 16 12  1  0  0  0  0
 17 16  1  0  0  0  0
 18 17  1  0  0  0  0
 18 16  1  0  0  0  0
 19 22  1  0  0  0  0
 19 20  1  0  0  0  0
 21 19  1  0  0  0  0
M  END
>  <minimizedAffinity>
-4.36841488

$$$$

 OpenBabel03242520343D

 22 24  0  0  1  0  0  0  0  0999 V2000
   36.0500   28.3440   38.8300 C   0  0  1  0  0  0  0  0  0  0  0  0
   34.8590   29.1650   38.8750 C   0  0  0  0  0  0  0  0  0  0  0  0
   36.0770   29.7640   38.2720 C   0  0  1  0  0  0  0  0  0  0  0  0
   36.1140   27.5310   38.0490 H   0  0  0  0  0  0  0  0  0  0  0  0
   34.5690   29.5720   39.8760 H   0  0  0  0  0  0  0  0  0  0  0  0
   33.9610   28.9640   38.2480 H   0  0  0  0  0  0  0  0  0  0  0  0
   36.0560   29.8530   37.1630 H   0  0  0  0  0  0  0  0  0  0  0  0
   38.1820   27.5950   40.0000 C   0  0  0  0  0  0  0  0  0  0  0  0
   36.8280   28.0640   40.0560 C   0  0  0  0  0  0  0  0  0  0  0  0
   36.2760   28.2280   41.3110 C   0  0  0  0  0  0  0  0  0  0  0  0
   37.0180   27.9460   42.4090 N   0  0  0  0  0  0  0  0  0  0  0  0
   38.2870   27.5070   42.3240 C   0  0  0  0  0  0  0  0  0  0  0  0
   38.8600   27.3350   41.1080 N   0  0  0  0  0  0  0  0  0  0  0  0
   38.6410   27.4580   39.0300 H   0  0  0  0  0  0  0  0  0  0  0  0
   35.2580   28.5780   41.3980 H   0  0  0  0  0  0  0  0  0  0  0  0
   39.0340   27.2200   43.5840 C   0  0  0  0  0  3  0  0  0  0  0  0
   40.5540   27.3560   43.4040 C   0  0  0  0  0  2  0  0  0  0  0  0
   39.9130   26.0380   43.6790 C   0  0  0  0  0  2  0  0  0  0  0  0
   36.8470   30.8300   38.9640 C   0  0  0  0  0  0  0  0  0  0  0  0
   36.9150   31.9960   38.2230 F   0  0  0  0  0  0  0  0  0  0  0  0
   38.1450   30.4140   39.2700 F   0  0  0  0  0  0  0  0  0  0  0  0
   36.1920   31.1390   40.1330 F   0  0  0  0  0  0  0  0  0  0  0  0
  1  4  1  6  0  0  0
  1  2  1  0  0  0  0
  1  9  1  0  0  0  0
  2  5  1  0  0  0  0
  3  7  1  6  0  0  0
  3  1  1  0  0  0  0
  3  2  1  0  0  0  0
  3 19  1  0  0  0  0
  6  2  1  0  0  0  0
  8  9  2  0  0  0  0
  8 13  1  0  0  0  0
  9 10  1  0  0  0  0
 10 15  1  0  0  0  0
 10 11  2  0  0  0  0
 12 11  1  0  0  0  0
 12 16  1  0  0  0  0
 13 12  2  0  0  0  0
 14  8  1  0  0  0  0
 16 18  1  0  0  0  0
 17 16  1  0  0  0  0
 17 18  1  0  0  0  0
 19 21  1  0  0  0  0
 19 22  1  0  0  0  0
 20 19  1  0  0  0  0
M  END
>  <minimizedAffinity>
-4.36158609

$$$$

 OpenBabel03242520343D

 22 24  0  0  1  0  0  0  0  0999 V2000
   39.2160   30.7380   41.7350 C   0  0  1  0  0  0  0  0  0  0  0  0
   39.7150   31.2010   40.4590 C   0  0  0  0  0  0  0  0  0  0  0  0
   38.4400   31.7870   40.9440 C   0  0  1  0  0  0  0  0  0  0  0  0
   39.7040   31.1260   42.6770 H   0  0  0  0  0  0  0  0  0  0  0  0
   39.6220   30.4930   39.5980 H   0  0  0  0  0  0  0  0  0  0  0  0
   40.6250   31.8370   40.3580 H   0  0  0  0  0  0  0  0  0  0  0  0
   38.5150   32.8330   41.3160 H   0  0  0  0  0  0  0  0  0  0  0  0
   38.8180   28.3720   40.8880 C   0  0  0  0  0  0  0  0  0  0  0  0
   38.6200   29.3910   41.8770 C   0  0  0  0  0  0  0  0  0  0  0  0
   37.8320   29.0650   42.9620 C   0  0  0  0  0  0  0  0  0  0  0  0
   37.2930   27.8240   43.0460 N   0  0  0  0  0  0  0  0  0  0  0  0
   37.4970   26.8880   42.1020 C   0  0  0  0  0  0  0  0  0  0  0  0
   38.2650   27.1750   41.0240 N   0  0  0  0  0  0  0  0  0  0  0  0
   39.4310   28.5990   40.0270 H   0  0  0  0  0  0  0  0  0  0  0  0
   37.6570   29.8050   43.7290 H   0  0  0  0  0  0  0  0  0  0  0  0
   36.8660   25.5460   42.2730 C   0  0  0  0  0  3  0  0  0  0  0  0
   37.9010   24.4120   42.2800 C   0  0  0  0  0  2  0  0  0  0  0  0
   36.9060   24.5570   41.1790 C   0  0  0  0  0  2  0  0  0  0  0  0
   37.1370   31.4440   40.3180 C   0  0  0  0  0  0  0  0  0  0  0  0
   36.1710   31.1200   41.2550 F   0  0  0  0  0  0  0  0  0  0  0  0
   37.2590   30.3860   39.4140 F   0  0  0  0  0  0  0  0  0  0  0  0
   36.6810   32.5530   39.6450 F   0  0  0  0  0  0  0  0  0  0  0  0
  1  9  1  0  0  0  0
  1  4  1  1  0  0  0
  2  3  1  0  0  0  0
  2  1  1  0  0  0  0
  3  7  1  1  0  0  0
  3  1  1  0  0  0  0
  5  2  1  0  0  0  0
  6  2  1  0  0  0  0
  8 13  2  0  0  0  0
  8  9  1  0  0  0  0
  9 10  2  0  0  0  0
 10 11  1  0  0  0  0
 10 15  1  0  0  0  0
 12 16  1  0  0  0  0
 12 11  2  0  0  0  0
 13 12  1  0  0  0  0
 14  8  1  0  0  0  0
 16 17  1  0  0  0  0
 18 16  1  0  0  0  0
 18 17  1  0  0  0  0
 19  3  1  0  0  0  0
 19 20  1  0  0  0  0
 21 19  1  0  0  0  0
 22 19  1  0  0  0  0
M  END
>  <minimizedAffinity>
-4.35975695

$$$$

 OpenBabel03242520343D

 22 24  0  0  1  0  0  0  0  0999 V2000
   36.5860   31.5360   40.6230 C   0  0  1  0  0  0  0  0  0  0  0  0
   37.6700   32.4390   40.3050 C   0  0  0  0  0  0  0  0  0  0  0  0
   36.9490   31.8130   39.1680 C   0  0  1  0  0  0  0  0  0  0  0  0
   35.5980   31.9750   40.9530 H   0  0  0  0  0  0  0  0  0  0  0  0
   38.7070   32.0600   40.4850 H   0  0  0  0  0  0  0  0  0  0  0  0
   37.6110   33.5400   40.4710 H   0  0  0  0  0  0  0  0  0  0  0  0
   36.2640   32.4930   38.6140 H   0  0  0  0  0  0  0  0  0  0  0  0
   38.0940   29.8630   41.8070 C   0  0  0  0  0  0  0  0  0  0  0  0
   36.8540   30.1850   41.1630 C   0  0  0  0  0  0  0  0  0  0  0  0
   35.9230   29.1710   41.0550 C   0  0  0  0  0  0  0  0  0  0  0  0
   36.2150   27.9430   41.5500 N   0  0  0  0  0  0  0  0  0  0  0  0
   37.3880   27.6700   42.1490 C   0  0  0  0  0  0  0  0  0  0  0  0
   38.3230   28.6430   42.2730 N   0  0  0  0  0  0  0  0  0  0  0  0
   38.8410   30.6380   41.9070 H   0  0  0  0  0  0  0  0  0  0  0  0
   34.9770   29.3720   40.5750 H   0  0  0  0  0  0  0  0  0  0  0  0
   37.6270   26.2910   42.6670 C   0  0  0  0  0  3  0  0  0  0  0  0
   38.3600   25.4050   41.6490 C   0  0  0  0  0  2  0  0  0  0  0  0
   36.9490   25.1340   42.0510 C   0  0  0  0  0  2  0  0  0  0  0  0
   37.5770   30.7530   38.3360 C   0  0  0  0  0  0  0  0  0  0  0  0
   36.7650   29.6410   38.1980 F   0  0  0  0  0  0  0  0  0  0  0  0
   38.8090   30.3500   38.8560 F   0  0  0  0  0  0  0  0  0  0  0  0
   37.7720   31.2620   37.0730 F   0  0  0  0  0  0  0  0  0  0  0  0
  1  4  1  1  0  0  0
  1  9  1  0  0  0  0
  2  6  1  0  0  0  0
  2  5  1  0  0  0  0
  2  1  1  0  0  0  0
  3  7  1  6  0  0  0
  3  2  1  0  0  0  0
  3  1  1  0  0  0  0
  8 14  1  0  0  0  0
  8 13  1  0  0  0  0
  9  8  2  0  0  0  0
 10  9  1  0  0  0  0
 10 11  2  0  0  0  0
 11 12  1  0  0  0  0
 12 13  2  0  0  0  0
 12 16  1  0  0  0  0
 15 10  1  0  0  0  0
 17 18  1  0  0  0  0
 17 16  1  0  0  0  0
 18 16  1  0  0  0  0
 19 21  1  0  0  0  0
 19  3  1  0  0  0  0
 20 19  1  0  0  0  0
 22 19  1  0  0  0  0
M  END
>  <minimizedAffinity>
-4.31915474

$$$$

 OpenBabel03242520343D

 22 24  0  0  1  0  0  0  0  0999 V2000
   38.4430   30.4510   37.9260 C   0  0  1  0  0  0  0  0  0  0  0  0
   37.3150   30.9290   37.1570 C   0  0  0  0  0  0  0  0  0  0  0  0
   37.9850   31.8990   38.0590 C   0  0  1  0  0  0  0  0  0  0  0  0
   39.4350   30.3170   37.4020 H   0  0  0  0  0  0  0  0  0  0  0  0
   36.3020   30.5870   37.4860 H   0  0  0  0  0  0  0  0  0  0  0  0
   37.3510   31.0710   36.0520 H   0  0  0  0  0  0  0  0  0  0  0  0
   38.6150   32.6600   37.5470 H   0  0  0  0  0  0  0  0  0  0  0  0
   37.0400   28.7960   39.2570 C   0  0  0  0  0  0  0  0  0  0  0  0
   38.2470   29.5500   39.0830 C   0  0  0  0  0  0  0  0  0  0  0  0
   39.2170   29.4090   40.0560 C   0  0  0  0  0  0  0  0  0  0  0  0
   38.9920   28.5850   41.1080 N   0  0  0  0  0  0  0  0  0  0  0  0
   37.8480   27.8900   41.2430 C   0  0  0  0  0  0  0  0  0  0  0  0
   36.8760   28.0040   40.3060 N   0  0  0  0  0  0  0  0  0  0  0  0
   36.2640   28.8860   38.5100 H   0  0  0  0  0  0  0  0  0  0  0  0
   40.1400   29.9610   39.9640 H   0  0  0  0  0  0  0  0  0  0  0  0
   37.6820   27.0030   42.4330 C   0  0  0  0  0  3  0  0  0  0  0  0
   37.0040   27.7250   43.6070 C   0  0  0  0  0  2  0  0  0  0  0  0
   38.4250   27.2770   43.6780 C   0  0  0  0  0  2  0  0  0  0  0  0
   37.3400   32.3720   39.3120 C   0  0  0  0  0  0  0  0  0  0  0  0
   36.9010   33.6810   39.2170 F   0  0  0  0  0  0  0  0  0  0  0  0
   38.2000   32.2650   40.4080 F   0  0  0  0  0  0  0  0  0  0  0  0
   36.2290   31.5950   39.5410 F   0  0  0  0  0  0  0  0  0  0  0  0
  1  4  1  6  0  0  0
  1  3  1  0  0  0  0
  1  9  1  0  0  0  0
  2  5  1  0  0  0  0
  2  1  1  0  0  0  0
  2  3  1  0  0  0  0
  3  7  1  6  0  0  0
  3 19  1  0  0  0  0
  6  2  1  0  0  0  0
  8 13  1  0  0  0  0
  9  8  2  0  0  0  0
  9 10  1  0  0  0  0
 10 11  2  0  0  0  0
 11 12  1  0  0  0  0
 12 16  1  0  0  0  0
 13 12  2  0  0  0  0
 14  8  1  0  0  0  0
 15 10  1  0  0  0  0
 16 17  1  0  0  0  0
 16 18  1  0  0  0  0
 17 18  1  0  0  0  0
 19 22  1  0  0  0  0
 19 21  1  0  0  0  0
 20 19  1  0  0  0  0
M  END
>  <minimizedAffinity>
-4.30638266

$$$$
