
 OpenBabel03252503343D

 16 17  0  0  0  0  0  0  0  0999 V2000
   44.5770   36.2000   44.4740 C   0  0  0  0  0  0  0  0  0  0  0  0
   45.3420   36.0600   43.2880 C   0  0  0  0  0  0  0  0  0  0  0  0
   46.1490   34.9260   43.1600 C   0  0  0  0  0  0  0  0  0  0  0  0
   46.1670   34.0240   44.1580 N   0  0  0  0  0  0  0  0  0  0  0  0
   45.4330   34.1650   45.2870 C   0  0  0  0  0  0  0  0  0  0  0  0
   44.6460   35.2500   45.4350 N   0  0  0  0  0  0  0  0  0  0  0  0
   43.9230   37.0700   44.6320 H   0  0  0  0  0  0  0  0  0  0  0  0
   45.2830   36.8180   42.5250 H   0  0  0  0  0  0  0  0  0  0  0  0
   45.5500   33.3600   45.9980 H   0  0  0  0  0  0  0  0  0  0  0  0
   46.3750   34.1670   40.7990 C   0  0  0  0  0  0  0  0  0  0  0  0
   45.1300   33.9120   40.8790 O   0  0  0  0  0  0  0  0  0  0  0  0
   46.9310   34.7390   41.9960 N   0  0  0  0  0  0  0  0  0  0  0  0
   47.9560   35.0140   41.9640 H   0  0  0  0  0  0  0  0  0  0  0  0
   47.2660   33.9380   39.6340 C   0  0  0  0  0  3  0  0  0  0  0  0
   48.5670   33.2050   39.8100 C   0  0  0  0  0  2  0  0  0  0  0  0
   47.4160   32.4480   39.2400 C   0  0  0  0  0  2  0  0  0  0  0  0
  1  7  1  0  0  0  0
  1  6  1  0  0  0  0
  2  1  2  0  0  0  0
  3  2  1  0  0  0  0
  3  4  2  0  0  0  0
  4  5  1  0  0  0  0
  5  6  2  0  0  0  0
  5  9  1  0  0  0  0
  8  2  1  0  0  0  0
 10 11  2  0  0  0  0
 10 12  1  0  0  0  0
 12  3  1  0  0  0  0
 13 12  1  0  0  0  0
 14 15  1  0  0  0  0
 14 10  1  0  0  0  0
 16 14  1  0  0  0  0
 16 15  1  0  0  0  0
M  END
>  <minimizedAffinity>
-3.63472128

>  <minimizedRMSD>
0.17631723

$$$$
