
 OpenBabel03252509323D

 21 22  0  0  0  0  0  0  0  0999 V2000
   46.9270   34.5840   42.1490 C   0  0  0  0  0  0  0  0  0  0  0  0
   46.7820   35.4670   41.4850 H   0  0  0  0  0  0  0  0  0  0  0  0
   46.5070   33.7010   41.6040 H   0  0  0  0  0  0  0  0  0  0  0  0
   45.4500   34.0830   45.5470 C   0  0  0  0  0  0  0  0  0  0  0  0
   46.2220   33.8690   44.3990 C   0  0  0  0  0  0  0  0  0  0  0  0
   46.1320   34.7860   43.3570 C   0  0  0  0  0  0  0  0  0  0  0  0
   45.2860   35.8660   43.4970 N   0  0  0  0  0  0  0  0  0  0  0  0
   44.5570   36.0370   44.6230 C   0  0  0  0  0  0  0  0  0  0  0  0
   44.6340   35.1640   45.6320 N   0  0  0  0  0  0  0  0  0  0  0  0
   45.5930   33.3160   46.2970 H   0  0  0  0  0  0  0  0  0  0  0  0
   46.8810   33.0290   44.2910 H   0  0  0  0  0  0  0  0  0  0  0  0
   43.8880   36.8790   44.7510 H   0  0  0  0  0  0  0  0  0  0  0  0
   48.2690   34.3790   42.4670 O   0  0  0  0  0  0  0  0  0  0  0  0
   48.5410   31.7800   42.6260 O   0  0  0  0  0  0  0  0  0  0  0  0
   48.7510   32.9520   41.6930 P   0  0  2  0  0  0  0  0  0  0  0  0
   50.3510   33.1410   41.2260 O   0  0  0  0  0  0  0  0  0  0  0  0
   50.9260   33.0300   42.0190 H   0  0  0  0  0  0  0  0  0  0  0  0
   47.7560   32.7290   40.3540 O   0  0  0  0  0  0  0  0  0  0  0  0
   48.3760   32.9740   39.1550 C   0  0  0  0  0  3  0  0  0  0  0  0
   48.2540   34.3880   38.6410 C   0  0  0  0  0  2  0  0  0  0  0  0
   47.3960   33.3330   38.0400 C   0  0  0  0  0  2  0  0  0  0  0  0
  1 13  1  0  0  0  0
  1  6  1  0  0  0  0
  2  1  1  0  0  0  0
  3  1  1  0  0  0  0
  4  9  1  0  0  0  0
  4 10  1  0  0  0  0
  5  4  2  0  0  0  0
  6  7  2  0  0  0  0
  6  5  1  0  0  0  0
  7  8  1  0  0  0  0
  8 12  1  0  0  0  0
  8  9  2  0  0  0  0
 11  5  1  0  0  0  0
 15 13  1  0  0  0  0
 15 14  2  1  0  0  0
 16 15  1  0  0  0  0
 16 17  1  0  0  0  0
 18 15  1  0  0  0  0
 19 18  1  0  0  0  0
 20 19  1  0  0  0  0
 21 20  1  0  0  0  0
 21 19  1  0  0  0  0
M  END
>  <minimizedAffinity>
-3.82172465

>  <minimizedRMSD>
2.25935411

$$$$
