
 OpenBabel03252509293D

 15 16  0  0  0  0  0  0  0  0999 V2000
   44.5810   35.7940   44.4510 C   0  0  0  0  0  0  0  0  0  0  0  0
   45.3600   35.9800   43.2950 C   0  0  0  0  0  0  0  0  0  0  0  0
   46.3880   35.0720   43.0760 C   0  0  0  0  0  0  0  0  0  0  0  0
   46.5930   34.0660   43.9650 N   0  0  0  0  0  0  0  0  0  0  0  0
   45.8220   33.9210   45.0650 C   0  0  0  0  0  0  0  0  0  0  0  0
   44.8210   34.7930   45.2930 N   0  0  0  0  0  0  0  0  0  0  0  0
   43.7640   36.4690   44.6780 H   0  0  0  0  0  0  0  0  0  0  0  0
   45.1060   36.8050   42.6690 H   0  0  0  0  0  0  0  0  0  0  0  0
   45.9510   33.1370   45.7960 H   0  0  0  0  0  0  0  0  0  0  0  0
   47.1940   35.2720   41.8710 C   0  0  0  0  0  0  0  0  0  0  0  0
   48.1470   35.7680   42.1340 H   0  0  0  0  0  0  0  0  0  0  0  0
   46.6440   36.0220   41.2440 H   0  0  0  0  0  0  0  0  0  0  0  0
   47.3850   33.9760   41.1420 C   0  0  0  0  0  3  0  0  0  0  0  0
   46.3290   33.6830   40.0990 C   0  0  0  0  0  2  0  0  0  0  0  0
   47.7760   33.9360   39.7160 C   0  0  0  0  0  2  0  0  0  0  0  0
  1  7  1  0  0  0  0
  1  6  1  0  0  0  0
  2  1  2  0  0  0  0
  3  2  1  0  0  0  0
  3  4  2  0  0  0  0
  4  5  1  0  0  0  0
  5  6  2  0  0  0  0
  5  9  1  0  0  0  0
  8  2  1  0  0  0  0
 10 11  1  0  0  0  0
 10  3  1  0  0  0  0
 12 10  1  0  0  0  0
 13 10  1  0  0  0  0
 14 13  1  0  0  0  0
 15 14  1  0  0  0  0
 15 13  1  0  0  0  0
M  END
>  <minimizedAffinity>
-3.38960862

>  <minimizedRMSD>
1.18130505

$$$$
