
 OpenBabel03252503363D

 16 17  0  0  0  0  0  0  0  0999 V2000
   37.0930   30.9620   38.1640 C   0  0  0  0  0  0  0  0  0  0  0  0
   36.8670   30.1300   39.2900 C   0  0  0  0  0  0  0  0  0  0  0  0
   36.8790   30.7240   40.5560 C   0  0  0  0  0  0  0  0  0  0  0  0
   37.1030   32.0460   40.6520 N   0  0  0  0  0  0  0  0  0  0  0  0
   37.3190   32.8340   39.5720 C   0  0  0  0  0  0  0  0  0  0  0  0
   37.3120   32.2860   38.3390 N   0  0  0  0  0  0  0  0  0  0  0  0
   37.0960   30.5530   37.1440 H   0  0  0  0  0  0  0  0  0  0  0  0
   36.6920   29.0760   39.1460 H   0  0  0  0  0  0  0  0  0  0  0  0
   37.4840   33.8750   39.8060 H   0  0  0  0  0  0  0  0  0  0  0  0
   37.7520   29.4610   42.5170 C   0  0  0  0  0  0  0  0  0  0  0  0
   38.8940   29.8620   42.1250 O   0  0  0  0  0  0  0  0  0  0  0  0
   36.6580   29.9370   41.7110 N   0  0  0  0  0  0  0  0  0  0  0  0
   35.6810   29.6690   42.0240 H   0  0  0  0  0  0  0  0  0  0  0  0
   37.4560   28.5850   43.6780 C   0  0  0  0  0  3  0  0  0  0  0  0
   36.4830   27.4470   43.5400 C   0  0  0  0  0  2  0  0  0  0  0  0
   37.9360   27.1250   43.5030 C   0  0  0  0  0  2  0  0  0  0  0  0
  1  6  2  0  0  0  0
  1  2  1  0  0  0  0
  2  3  2  0  0  0  0
  3  4  1  0  0  0  0
  3 12  1  0  0  0  0
  5  9  1  0  0  0  0
  5  4  2  0  0  0  0
  6  5  1  0  0  0  0
  7  1  1  0  0  0  0
  8  2  1  0  0  0  0
 10 14  1  0  0  0  0
 11 10  2  0  0  0  0
 12 13  1  0  0  0  0
 12 10  1  0  0  0  0
 15 14  1  0  0  0  0
 16 15  1  0  0  0  0
 16 14  1  0  0  0  0
M  END
>  <minimizedAffinity>
-4.13995838

$$$$

 OpenBabel03252503363D

 16 17  0  0  0  0  0  0  0  0999 V2000
   37.2730   26.8690   41.7360 C   0  0  0  0  0  0  0  0  0  0  0  0
   37.6990   27.9570   40.9320 C   0  0  0  0  0  0  0  0  0  0  0  0
   37.9650   29.1750   41.5650 C   0  0  0  0  0  0  0  0  0  0  0  0
   37.8060   29.2640   42.8970 N   0  0  0  0  0  0  0  0  0  0  0  0
   37.3990   28.2200   43.6590 C   0  0  0  0  0  0  0  0  0  0  0  0
   37.1370   27.0340   43.0720 N   0  0  0  0  0  0  0  0  0  0  0  0
   37.0490   25.8870   41.2960 H   0  0  0  0  0  0  0  0  0  0  0  0
   37.8070   27.8210   39.8680 H   0  0  0  0  0  0  0  0  0  0  0  0
   37.3180   28.4420   44.7120 H   0  0  0  0  0  0  0  0  0  0  0  0
   37.4680   31.3070   40.3790 C   0  0  0  0  0  0  0  0  0  0  0  0
   36.2780   31.1310   40.7950 O   0  0  0  0  0  0  0  0  0  0  0  0
   38.3920   30.2900   40.8070 N   0  0  0  0  0  0  0  0  0  0  0  0
   39.4070   30.4170   40.5260 H   0  0  0  0  0  0  0  0  0  0  0  0
   37.9690   32.4180   39.5300 C   0  0  0  0  0  3  0  0  0  0  0  0
   37.2150   33.7170   39.4630 C   0  0  0  0  0  2  0  0  0  0  0  0
   38.4260   33.6620   40.3270 C   0  0  0  0  0  2  0  0  0  0  0  0
  1  6  1  0  0  0  0
  2  3  1  0  0  0  0
  2  1  2  0  0  0  0
  3  4  2  0  0  0  0
  4  5  1  0  0  0  0
  5  9  1  0  0  0  0
  6  5  2  0  0  0  0
  7  1  1  0  0  0  0
  8  2  1  0  0  0  0
 10 11  2  0  0  0  0
 10 12  1  0  0  0  0
 12  3  1  0  0  0  0
 13 12  1  0  0  0  0
 14 16  1  0  0  0  0
 14 10  1  0  0  0  0
 15 14  1  0  0  0  0
 15 16  1  0  0  0  0
M  END
>  <minimizedAffinity>
-3.64932656

$$$$

 OpenBabel03252503363D

 16 17  0  0  0  0  0  0  0  0999 V2000
   43.7060   31.5970   36.9580 C   0  0  0  0  0  0  0  0  0  0  0  0
   42.2920   31.4880   36.9260 C   0  0  0  0  0  0  0  0  0  0  0  0
   41.5410   32.6110   37.2830 C   0  0  0  0  0  0  0  0  0  0  0  0
   42.1820   33.7380   37.6390 N   0  0  0  0  0  0  0  0  0  0  0  0
   43.5330   33.8350   37.6670 C   0  0  0  0  0  0  0  0  0  0  0  0
   44.2820   32.7660   37.3260 N   0  0  0  0  0  0  0  0  0  0  0  0
   44.3510   30.7490   36.6880 H   0  0  0  0  0  0  0  0  0  0  0  0
   41.8380   30.5560   36.6310 H   0  0  0  0  0  0  0  0  0  0  0  0
   43.9040   34.8020   37.9720 H   0  0  0  0  0  0  0  0  0  0  0  0
   39.3830   32.0540   38.3940 C   0  0  0  0  0  0  0  0  0  0  0  0
   40.1070   31.7390   39.3920 O   0  0  0  0  0  0  0  0  0  0  0  0
   40.1270   32.5520   37.2680 N   0  0  0  0  0  0  0  0  0  0  0  0
   39.5650   32.8730   36.4270 H   0  0  0  0  0  0  0  0  0  0  0  0
   37.9050   31.9570   38.2890 C   0  0  0  0  0  3  0  0  0  0  0  0
   37.0880   31.5350   39.4790 C   0  0  0  0  0  2  0  0  0  0  0  0
   37.1440   32.9880   39.1560 C   0  0  0  0  0  2  0  0  0  0  0  0
  1  6  1  0  0  0  0
  2  1  2  0  0  0  0
  2  3  1  0  0  0  0
  3  4  2  0  0  0  0
  4  5  1  0  0  0  0
  5  9  1  0  0  0  0
  6  5  2  0  0  0  0
  7  1  1  0  0  0  0
  8  2  1  0  0  0  0
 10 11  2  0  0  0  0
 12  3  1  0  0  0  0
 12 10  1  0  0  0  0
 13 12  1  0  0  0  0
 14 10  1  0  0  0  0
 14 16  1  0  0  0  0
 14 15  1  0  0  0  0
 16 15  1  0  0  0  0
M  END
>  <minimizedAffinity>
-3.64492631

$$$$

 OpenBabel03252503363D

 16 17  0  0  0  0  0  0  0  0999 V2000
   39.9660   25.6580   43.6470 C   0  0  0  0  0  0  0  0  0  0  0  0
   39.0750   26.7390   43.4230 C   0  0  0  0  0  0  0  0  0  0  0  0
   37.9310   26.4960   42.6580 C   0  0  0  0  0  0  0  0  0  0  0  0
   37.7240   25.2600   42.1700 N   0  0  0  0  0  0  0  0  0  0  0  0
   38.5780   24.2330   42.3890 C   0  0  0  0  0  0  0  0  0  0  0  0
   39.6900   24.4400   43.1250 N   0  0  0  0  0  0  0  0  0  0  0  0
   40.8820   25.7870   44.2410 H   0  0  0  0  0  0  0  0  0  0  0  0
   39.2980   27.7060   43.8420 H   0  0  0  0  0  0  0  0  0  0  0  0
   38.2790   23.3000   41.9350 H   0  0  0  0  0  0  0  0  0  0  0  0
   37.1060   28.3580   41.2240 C   0  0  0  0  0  0  0  0  0  0  0  0
   38.0380   28.0090   40.4300 O   0  0  0  0  0  0  0  0  0  0  0  0
   37.0110   27.5410   42.4050 N   0  0  0  0  0  0  0  0  0  0  0  0
   36.2200   27.7620   43.0770 H   0  0  0  0  0  0  0  0  0  0  0  0
   36.1510   29.4810   41.0510 C   0  0  0  0  0  3  0  0  0  0  0  0
   36.0320   30.1740   39.7220 C   0  0  0  0  0  2  0  0  0  0  0  0
   34.9880   29.1730   40.0780 C   0  0  0  0  0  2  0  0  0  0  0  0
  1  7  1  0  0  0  0
  2  1  1  0  0  0  0
  2  8  1  0  0  0  0
  3  2  2  0  0  0  0
  4  5  2  0  0  0  0
  4  3  1  0  0  0  0
  5  6  1  0  0  0  0
  6  1  2  0  0  0  0
  9  5  1  0  0  0  0
 10 12  1  0  0  0  0
 11 10  2  0  0  0  0
 12  3  1  0  0  0  0
 12 13  1  0  0  0  0
 14 10  1  0  0  0  0
 15 16  1  0  0  0  0
 15 14  1  0  0  0  0
 16 14  1  0  0  0  0
M  END
>  <minimizedAffinity>
-3.61576247

$$$$

 OpenBabel03252503363D

 16 17  0  0  0  0  0  0  0  0999 V2000
   36.5330   31.1550   40.7600 C   0  0  0  0  0  0  0  0  0  0  0  0
   36.2830   29.8640   41.2900 C   0  0  0  0  0  0  0  0  0  0  0  0
   37.3570   29.1690   41.8540 C   0  0  0  0  0  0  0  0  0  0  0  0
   38.5710   29.7470   41.8690 N   0  0  0  0  0  0  0  0  0  0  0  0
   38.8020   30.9810   41.3610 C   0  0  0  0  0  0  0  0  0  0  0  0
   37.7830   31.6730   40.8120 N   0  0  0  0  0  0  0  0  0  0  0  0
   35.7290   31.7510   40.3040 H   0  0  0  0  0  0  0  0  0  0  0  0
   35.2860   29.4560   41.2480 H   0  0  0  0  0  0  0  0  0  0  0  0
   39.8260   31.3130   41.4460 H   0  0  0  0  0  0  0  0  0  0  0  0
   37.1920   26.7000   41.5680 C   0  0  0  0  0  0  0  0  0  0  0  0
   37.4690   26.9360   40.3490 O   0  0  0  0  0  0  0  0  0  0  0  0
   37.1590   27.8770   42.3960 N   0  0  0  0  0  0  0  0  0  0  0  0
   36.9790   27.7280   43.4310 H   0  0  0  0  0  0  0  0  0  0  0  0
   36.9110   25.3800   42.1880 C   0  0  0  0  0  3  0  0  0  0  0  0
   36.9800   24.1270   41.3610 C   0  0  0  0  0  2  0  0  0  0  0  0
   38.1370   24.4390   42.2450 C   0  0  0  0  0  2  0  0  0  0  0  0
  1  6  2  0  0  0  0
  1  2  1  0  0  0  0
  2  3  2  0  0  0  0
  3  4  1  0  0  0  0
  3 12  1  0  0  0  0
  5  9  1  0  0  0  0
  5  4  2  0  0  0  0
  6  5  1  0  0  0  0
  7  1  1  0  0  0  0
  8  2  1  0  0  0  0
 10 14  1  0  0  0  0
 10 12  1  0  0  0  0
 11 10  2  0  0  0  0
 12 13  1  0  0  0  0
 14 16  1  0  0  0  0
 15 14  1  0  0  0  0
 15 16  1  0  0  0  0
M  END
>  <minimizedAffinity>
-3.52552676

$$$$

 OpenBabel03252503363D

 16 17  0  0  0  0  0  0  0  0999 V2000
   38.7670   24.5170   42.2560 C   0  0  0  0  0  0  0  0  0  0  0  0
   37.8590   25.5840   42.0330 C   0  0  0  0  0  0  0  0  0  0  0  0
   38.1080   26.8000   42.6760 C   0  0  0  0  0  0  0  0  0  0  0  0
   39.1870   26.9070   43.4720 N   0  0  0  0  0  0  0  0  0  0  0  0
   40.0490   25.8840   43.6800 C   0  0  0  0  0  0  0  0  0  0  0  0
   39.8320   24.7000   43.0710 N   0  0  0  0  0  0  0  0  0  0  0  0
   38.6240   23.5370   41.7780 H   0  0  0  0  0  0  0  0  0  0  0  0
   37.0130   25.4350   41.3830 H   0  0  0  0  0  0  0  0  0  0  0  0
   40.8680   26.1190   44.3430 H   0  0  0  0  0  0  0  0  0  0  0  0
   37.5510   28.9650   41.5790 C   0  0  0  0  0  0  0  0  0  0  0  0
   38.6410   28.7950   40.9430 O   0  0  0  0  0  0  0  0  0  0  0  0
   37.2320   27.8950   42.4860 N   0  0  0  0  0  0  0  0  0  0  0  0
   36.3100   27.9670   43.0060 H   0  0  0  0  0  0  0  0  0  0  0  0
   36.6200   30.1180   41.4750 C   0  0  0  0  0  3  0  0  0  0  0  0
   36.7240   31.0710   40.3170 C   0  0  0  0  0  2  0  0  0  0  0  0
   35.6520   30.0380   40.2710 C   0  0  0  0  0  2  0  0  0  0  0  0
  1  6  1  0  0  0  0
  2  1  2  0  0  0  0
  2  3  1  0  0  0  0
  3  4  2  0  0  0  0
  4  5  1  0  0  0  0
  5  9  1  0  0  0  0
  6  5  2  0  0  0  0
  7  1  1  0  0  0  0
  8  2  1  0  0  0  0
 10 12  1  0  0  0  0
 11 10  2  0  0  0  0
 12  3  1  0  0  0  0
 12 13  1  0  0  0  0
 14 10  1  0  0  0  0
 15 14  1  0  0  0  0
 16 15  1  0  0  0  0
 16 14  1  0  0  0  0
M  END
>  <minimizedAffinity>
-3.44999766

$$$$

 OpenBabel03252503363D

 16 17  0  0  0  0  0  0  0  0999 V2000
   38.9190   27.2060   43.6670 C   0  0  0  0  0  0  0  0  0  0  0  0
   38.2260   28.3690   43.2410 C   0  0  0  0  0  0  0  0  0  0  0  0
   37.8500   28.4520   41.8980 C   0  0  0  0  0  0  0  0  0  0  0  0
   38.1570   27.4360   41.0720 N   0  0  0  0  0  0  0  0  0  0  0  0
   38.8180   26.3290   41.4850 C   0  0  0  0  0  0  0  0  0  0  0  0
   39.1920   26.2240   42.7770 N   0  0  0  0  0  0  0  0  0  0  0  0
   39.2410   27.0830   44.7110 H   0  0  0  0  0  0  0  0  0  0  0  0
   38.0100   29.1480   43.9530 H   0  0  0  0  0  0  0  0  0  0  0  0
   38.9930   25.5990   40.7090 H   0  0  0  0  0  0  0  0  0  0  0  0
   37.8590   30.7320   40.8980 C   0  0  0  0  0  0  0  0  0  0  0  0
   39.1220   30.5850   40.8520 O   0  0  0  0  0  0  0  0  0  0  0  0
   37.1580   29.5910   41.4240 N   0  0  0  0  0  0  0  0  0  0  0  0
   36.0980   29.6460   41.4390 H   0  0  0  0  0  0  0  0  0  0  0  0
   37.0770   31.9230   40.4790 C   0  0  0  0  0  3  0  0  0  0  0  0
   37.7780   33.1320   39.9260 C   0  0  0  0  0  2  0  0  0  0  0  0
   37.1280   32.2050   38.9580 C   0  0  0  0  0  2  0  0  0  0  0  0
  1  7  1  0  0  0  0
  2  1  1  0  0  0  0
  2  8  1  0  0  0  0
  3  2  2  0  0  0  0
  4  5  2  0  0  0  0
  4  3  1  0  0  0  0
  5  6  1  0  0  0  0
  6  1  2  0  0  0  0
  9  5  1  0  0  0  0
 10 12  1  0  0  0  0
 11 10  2  0  0  0  0
 12 13  1  0  0  0  0
 12  3  1  0  0  0  0
 14 10  1  0  0  0  0
 15 14  1  0  0  0  0
 16 15  1  0  0  0  0
 16 14  1  0  0  0  0
M  END
>  <minimizedAffinity>
-3.4469583

$$$$

 OpenBabel03252503363D

 16 17  0  0  0  0  0  0  0  0999 V2000
   39.2280   27.1440   43.1780 C   0  0  0  0  0  0  0  0  0  0  0  0
   39.7650   28.4290   42.9060 C   0  0  0  0  0  0  0  0  0  0  0  0
   38.8690   29.4860   42.7200 C   0  0  0  0  0  0  0  0  0  0  0  0
   37.5490   29.2430   42.8050 N   0  0  0  0  0  0  0  0  0  0  0  0
   37.0440   28.0140   43.0660 C   0  0  0  0  0  0  0  0  0  0  0  0
   37.8870   26.9770   43.2500 N   0  0  0  0  0  0  0  0  0  0  0  0
   39.8820   26.2740   43.3340 H   0  0  0  0  0  0  0  0  0  0  0  0
   40.8330   28.5580   42.8510 H   0  0  0  0  0  0  0  0  0  0  0  0
   35.9660   27.9730   43.1040 H   0  0  0  0  0  0  0  0  0  0  0  0
   39.4290   31.2920   41.1000 C   0  0  0  0  0  0  0  0  0  0  0  0
   38.9730   30.4920   40.2210 O   0  0  0  0  0  0  0  0  0  0  0  0
   39.3530   30.7860   42.4450 N   0  0  0  0  0  0  0  0  0  0  0  0
   39.6780   31.4350   43.2190 H   0  0  0  0  0  0  0  0  0  0  0  0
   40.0090   32.6400   40.8740 C   0  0  0  0  0  3  0  0  0  0  0  0
   39.8250   33.3300   39.5500 C   0  0  0  0  0  2  0  0  0  0  0  0
   38.9540   33.7550   40.6820 C   0  0  0  0  0  2  0  0  0  0  0  0
  1  6  1  0  0  0  0
  1  7  1  0  0  0  0
  2  1  2  0  0  0  0
  3  4  2  0  0  0  0
  3  2  1  0  0  0  0
  4  5  1  0  0  0  0
  5  9  1  0  0  0  0
  5  6  2  0  0  0  0
  8  2  1  0  0  0  0
 10 12  1  0  0  0  0
 11 10  2  0  0  0  0
 12  3  1  0  0  0  0
 12 13  1  0  0  0  0
 14 10  1  0  0  0  0
 15 16  1  0  0  0  0
 15 14  1  0  0  0  0
 16 14  1  0  0  0  0
M  END
>  <minimizedAffinity>
-3.32774472

$$$$

 OpenBabel03252503363D

 16 17  0  0  0  0  0  0  0  0999 V2000
   36.5190   29.8960   37.2950 C   0  0  0  0  0  0  0  0  0  0  0  0
   36.6870   29.7910   38.6990 C   0  0  0  0  0  0  0  0  0  0  0  0
   35.7290   29.0730   39.4210 C   0  0  0  0  0  0  0  0  0  0  0  0
   34.6980   28.5170   38.7600 N   0  0  0  0  0  0  0  0  0  0  0  0
   34.5450   28.6210   37.4190 C   0  0  0  0  0  0  0  0  0  0  0  0
   35.4560   29.3080   36.6990 N   0  0  0  0  0  0  0  0  0  0  0  0
   37.2390   30.4480   36.6740 H   0  0  0  0  0  0  0  0  0  0  0  0
   37.5360   30.2600   39.1700 H   0  0  0  0  0  0  0  0  0  0  0  0
   33.6700   28.1220   37.0300 H   0  0  0  0  0  0  0  0  0  0  0  0
   36.6250   27.8800   41.4150 C   0  0  0  0  0  0  0  0  0  0  0  0
   37.2160   27.1380   40.5670 O   0  0  0  0  0  0  0  0  0  0  0  0
   35.8510   28.9400   40.8240 N   0  0  0  0  0  0  0  0  0  0  0  0
   35.3770   29.6150   41.4910 H   0  0  0  0  0  0  0  0  0  0  0  0
   36.6580   27.7570   42.8950 C   0  0  0  0  0  3  0  0  0  0  0  0
   37.8980   27.2590   43.5840 C   0  0  0  0  0  2  0  0  0  0  0  0
   37.6470   28.7280   43.5840 C   0  0  0  0  0  2  0  0  0  0  0  0
  1  2  1  0  0  0  0
  2  8  1  0  0  0  0
  2  3  2  0  0  0  0
  3 12  1  0  0  0  0
  4  3  1  0  0  0  0
  5  4  2  0  0  0  0
  6  1  2  0  0  0  0
  6  5  1  0  0  0  0
  7  1  1  0  0  0  0
  9  5  1  0  0  0  0
 10 14  1  0  0  0  0
 11 10  2  0  0  0  0
 12 10  1  0  0  0  0
 12 13  1  0  0  0  0
 14 15  1  0  0  0  0
 14 16  1  0  0  0  0
 15 16  1  0  0  0  0
M  END
>  <minimizedAffinity>
-3.30088472

$$$$
