
 OpenBabel03252508143D

 31 34  0  0  1  0  0  0  0  0999 V2000
   47.0520   30.8020   46.7690 C   0  0  0  0  0  0  0  0  0  0  0  0
   46.1880   30.1170   46.6400 H   0  0  0  0  0  0  0  0  0  0  0  0
   48.0120   30.2860   46.8060 H   0  0  0  0  0  0  0  0  0  0  0  0
   46.8070   31.5940   48.0320 C   0  0  1  0  0  0  0  0  0  0  0  0
   46.2190   30.8430   49.1740 C   0  0  0  0  0  0  0  0  0  0  0  0
   47.5970   31.2850   49.2480 C   0  0  1  0  0  0  0  0  0  0  0  0
   46.5330   32.6620   47.9060 H   0  0  0  0  0  0  0  0  0  0  0  0
   45.9880   29.7650   49.0380 H   0  0  0  0  0  0  0  0  0  0  0  0
   45.4240   31.3600   49.7750 H   0  0  0  0  0  0  0  0  0  0  0  0
   47.7770   32.1450   49.9650 H   0  0  0  0  0  0  0  0  0  0  0  0
   48.7860   30.4130   49.1040 C   0  0  0  0  0  0  0  0  0  0  0  0
   49.6370   30.2730   50.3930 C   0  0  0  0  0  0  0  0  0  0  0  0
   50.1570   31.0850   49.2720 C   0  0  0  0  0  0  0  0  0  0  0  0
   48.7510   29.5240   48.4410 H   0  0  0  0  0  0  0  0  0  0  0  0
   49.2170   30.6990   51.3130 H   0  0  0  0  0  0  0  0  0  0  0  0
   50.0950   29.2600   50.5170 H   0  0  0  0  0  0  0  0  0  0  0  0
   50.1190   32.1940   49.4660 H   0  0  0  0  0  0  0  0  0  0  0  0
   50.9800   30.6850   48.6660 H   0  0  0  0  0  0  0  0  0  0  0  0
   46.3640   32.8260   45.7470 C   0  0  0  0  0  3  0  0  0  0  0  0
   46.9870   31.7280   45.5610 C   0  0  0  0  0  3  0  0  0  0  0  0
   45.0160   35.2940   43.3680 C   0  0  0  0  0  0  0  0  0  0  0  0
   46.0630   35.4840   42.4760 C   0  0  0  0  0  0  0  0  0  0  0  0
   47.2200   34.7650   42.7200 C   0  0  0  0  0  0  0  0  0  0  0  0
   47.2590   33.9440   43.7780 N   0  0  0  0  0  0  0  0  0  0  0  0
   46.2450   33.7640   44.6340 C   0  0  0  0  0  0  0  0  0  0  0  0
   45.1350   34.4510   44.4070 N   0  0  0  0  0  0  0  0  0  0  0  0
   44.1070   35.8510   43.1880 H   0  0  0  0  0  0  0  0  0  0  0  0
   46.0050   36.1450   41.6400 H   0  0  0  0  0  0  0  0  0  0  0  0
   48.3980   34.9210   41.7960 C   0  0  0  0  0  3  0  0  0  0  0  0
   48.7070   33.6060   41.0190 C   0  0  0  0  0  2  0  0  0  0  0  0
   48.2320   34.8770   40.3420 C   0  0  0  0  0  2  0  0  0  0  0  0
  1  3  1  0  0  0  0
  1  4  1  0  0  0  0
  2  1  1  0  0  0  0
  4  7  1  6  0  0  0
  4  5  1  0  0  0  0
  4  6  1  0  0  0  0
  5  6  1  0  0  0  0
  5  9  1  0  0  0  0
  6 10  1  1  0  0  0
  8  5  1  0  0  0  0
 11  6  1  0  0  0  0
 11 13  1  0  0  0  0
 11 12  1  0  0  0  0
 12 16  1  0  0  0  0
 12 15  1  0  0  0  0
 13 17  1  0  0  0  0
 13 12  1  0  0  0  0
 14 11  1  0  0  0  0
 18 13  1  0  0  0  0
 20 19  2  0  0  0  0
 20  1  1  0  0  0  0
 21 26  1  0  0  0  0
 22 23  1  0  0  0  0
 22 21  2  0  0  0  0
 23 24  2  0  0  0  0
 24 25  1  0  0  0  0
 25 19  1  0  0  0  0
 26 25  2  0  0  0  0
 27 21  1  0  0  0  0
 28 22  1  0  0  0  0
 29 23  1  0  0  0  0
 30 29  1  0  0  0  0
 31 30  1  0  0  0  0
 31 29  1  0  0  0  0
M  END
>  <minimizedAffinity>
-4.90223932

>  <minimizedRMSD>
1.24281967

$$$$
