
 OpenBabel03252509083D

 35 38  0  0  0  0  0  0  0  0999 V2000
   45.3880   35.3330   43.2420 Cl  0  0  0  0  0  0  0  0  0  0  0  0
   45.2100   34.5720   41.6840 C   0  0  0  0  0  0  0  0  0  0  0  0
   46.2800   34.1580   40.9710 C   0  0  0  0  0  0  0  0  0  0  0  0
   46.0400   33.5730   39.7410 C   0  0  0  0  0  0  0  0  0  0  0  0
   44.7710   33.4110   39.2420 C   0  0  0  0  0  0  0  0  0  0  0  0
   43.7040   33.8310   39.9670 C   0  0  0  0  0  0  0  0  0  0  0  0
   43.9310   34.4150   41.1980 C   0  0  0  0  0  0  0  0  0  0  0  0
   44.6380   32.9510   38.2760 H   0  0  0  0  0  0  0  0  0  0  0  0
   42.6980   33.7210   39.6130 H   0  0  0  0  0  0  0  0  0  0  0  0
   43.0740   34.7470   41.7740 H   0  0  0  0  0  0  0  0  0  0  0  0
   47.6240   31.8110   38.9390 C   0  0  0  0  0  0  0  0  0  0  0  0
   47.1700   33.0950   38.9470 C   0  0  0  0  0  0  0  0  0  0  0  0
   47.8020   34.0360   38.1570 C   0  0  0  0  0  0  0  0  0  0  0  0
   48.8740   33.6770   37.3730 C   0  0  0  0  0  0  0  0  0  0  0  0
   49.3510   32.3730   37.3480 C   0  0  0  0  0  0  0  0  0  0  0  0
   48.7080   31.4340   38.1480 C   0  0  0  0  0  0  0  0  0  0  0  0
   47.4700   35.0570   38.1420 H   0  0  0  0  0  0  0  0  0  0  0  0
   49.3440   34.4290   36.7690 H   0  0  0  0  0  0  0  0  0  0  0  0
   50.1810   32.0940   36.7390 H   0  0  0  0  0  0  0  0  0  0  0  0
   49.0900   30.4350   38.1150 H   0  0  0  0  0  0  0  0  0  0  0  0
   46.8770   30.6110   39.8480 S   0  0  0  0  0  0  0  0  0  0  0  0
   45.5400   30.1770   39.3000 O   0  0  0  0  0  0  0  0  0  0  0  0
   47.7700   29.3510   39.6420 O   0  0  0  0  0  0  0  0  0  0  0  0
   46.7190   30.5760   41.5480 C   0  0  0  0  0  3  0  0  0  0  0  0
   45.2460   30.8180   41.9690 C   0  0  0  0  0  2  0  0  0  0  0  0
   45.9300   29.5980   42.3550 C   0  0  0  0  0  2  0  0  0  0  0  0
   49.5820   35.7430   41.9300 C   0  0  0  0  0  0  0  0  0  0  0  0
   48.3010   35.5610   41.3960 C   0  0  0  0  0  0  0  0  0  0  0  0
   47.6140   34.3570   41.5240 C   0  0  0  0  0  0  0  0  0  0  0  0
   48.2710   33.4030   42.1900 N   0  0  0  0  0  0  0  0  0  0  0  0
   49.4950   33.5670   42.7040 C   0  0  0  0  0  0  0  0  0  0  0  0
   50.1440   34.7260   42.5750 N   0  0  0  0  0  0  0  0  0  0  0  0
   50.0440   36.7160   41.7820 H   0  0  0  0  0  0  0  0  0  0  0  0
   47.8160   36.3730   40.8640 H   0  0  0  0  0  0  0  0  0  0  0  0
   50.0120   32.7770   43.2440 H   0  0  0  0  0  0  0  0  0  0  0  0
  2  1  1  0  0  0  0
  3 29  1  0  0  0  0
  3  2  2  0  0  0  0
  4  3  1  0  0  0  0
  5  4  2  0  0  0  0
  5  6  1  0  0  0  0
  6  7  2  0  0  0  0
  7  2  1  0  0  0  0
  7 10  1  0  0  0  0
  8  5  1  0  0  0  0
  9  6  1  0  0  0  0
 11 12  1  0  0  0  0
 11 21  1  0  0  0  0
 12  4  1  0  0  0  0
 13 12  2  0  0  0  0
 14 13  1  0  0  0  0
 15 14  2  0  0  0  0
 15 16  1  0  0  0  0
 16 11  2  0  0  0  0
 17 13  1  0  0  0  0
 18 14  1  0  0  0  0
 19 15  1  0  0  0  0
 20 16  1  0  0  0  0
 21 24  1  0  0  0  0
 22 21  2  0  0  0  0
 23 21  2  0  0  0  0
 24 25  1  0  0  0  0
 24 26  1  0  0  0  0
 25 26  1  0  0  0  0
 27 32  1  0  0  0  0
 28 29  1  0  0  0  0
 28 27  2  0  0  0  0
 29 30  2  0  0  0  0
 30 31  1  0  0  0  0
 31 35  1  0  0  0  0
 32 31  2  0  0  0  0
 33 27  1  0  0  0  0
 34 28  1  0  0  0  0
M  END
>  <minimizedAffinity>
-4.43693781

>  <minimizedRMSD>
0.73079741

$$$$
