
 OpenBabel03252504513D

 28 30  0  0  0  0  0  0  0  0999 V2000
   37.8080   26.5860   40.9580 C   0  0  0  0  0  0  0  0  0  0  0  0
   37.1260   26.1950   42.1150 C   0  0  0  0  0  0  0  0  0  0  0  0
   36.7030   27.2140   42.9560 C   0  0  0  0  0  0  0  0  0  0  0  0
   36.9800   28.4980   42.5950 N   0  0  0  0  0  0  0  0  0  0  0  0
   37.6310   28.8400   41.4880 C   0  0  0  0  0  0  0  0  0  0  0  0
   38.0590   27.8730   40.6420 N   0  0  0  0  0  0  0  0  0  0  0  0
   38.1760   25.8640   40.2410 H   0  0  0  0  0  0  0  0  0  0  0  0
   36.1790   26.9390   43.8470 H   0  0  0  0  0  0  0  0  0  0  0  0
   40.2860   29.9470   42.5280 Cl  0  0  0  0  0  0  0  0  0  0  0  0
   39.0660   30.8270   41.6230 C   0  0  0  0  0  0  0  0  0  0  0  0
   37.8810   30.2370   41.1880 C   0  0  0  0  0  0  0  0  0  0  0  0
   36.9360   30.9630   40.4740 C   0  0  0  0  0  0  0  0  0  0  0  0
   37.1820   32.2990   40.1900 C   0  0  0  0  0  0  0  0  0  0  0  0
   38.3670   32.8550   40.6350 C   0  0  0  0  0  0  0  0  0  0  0  0
   38.6540   34.5360   40.2670 Cl  0  0  0  0  0  0  0  0  0  0  0  0
   39.3220   32.1590   41.3460 C   0  0  0  0  0  0  0  0  0  0  0  0
   36.0360   30.4890   40.1510 H   0  0  0  0  0  0  0  0  0  0  0  0
   36.4610   32.8760   39.6380 H   0  0  0  0  0  0  0  0  0  0  0  0
   40.2360   32.6700   41.6640 H   0  0  0  0  0  0  0  0  0  0  0  0
   36.9240   24.7810   42.3270 C   0  0  0  0  0  0  0  0  0  0  0  0
   36.6940   24.5170   43.3580 H   0  0  0  0  0  0  0  0  0  0  0  0
   36.0230   24.4760   41.7270 H   0  0  0  0  0  0  0  0  0  0  0  0
   38.0880   24.0310   41.7190 C   0  0  0  0  0  0  0  0  0  0  0  0
   38.7240   24.8060   41.2270 H   0  0  0  0  0  0  0  0  0  0  0  0
   38.6650   23.5200   42.5060 H   0  0  0  0  0  0  0  0  0  0  0  0
   37.6520   23.0110   40.6970 C   0  0  0  0  0  3  0  0  0  0  0  0
   37.9320   23.1720   39.2540 C   0  0  0  0  0  2  0  0  0  0  0  0
   36.5030   23.2520   39.8190 C   0  0  0  0  0  2  0  0  0  0  0  0
  1  2  1  0  0  0  0
  2 20  1  0  0  0  0
  2  3  2  0  0  0  0
  3  8  1  0  0  0  0
  4  3  1  0  0  0  0
  5  4  2  0  0  0  0
  6  1  2  0  0  0  0
  6  5  1  0  0  0  0
  7  1  1  0  0  0  0
 10  9  1  0  0  0  0
 11  5  1  0  0  0  0
 11 10  2  0  0  0  0
 12 11  1  0  0  0  0
 13 12  2  0  0  0  0
 13 14  1  0  0  0  0
 14 16  2  0  0  0  0
 15 14  1  0  0  0  0
 16 10  1  0  0  0  0
 16 19  1  0  0  0  0
 17 12  1  0  0  0  0
 18 13  1  0  0  0  0
 20 21  1  0  0  0  0
 22 20  1  0  0  0  0
 23 20  1  0  0  0  0
 23 25  1  0  0  0  0
 24 23  1  0  0  0  0
 26 23  1  0  0  0  0
 27 28  1  0  0  0  0
 27 26  1  0  0  0  0
 28 26  1  0  0  0  0
M  END
>  <minimizedAffinity>
-5.04855442

$$$$

 OpenBabel03252504513D

 28 30  0  0  0  0  0  0  0  0999 V2000
   37.9170   26.5840   40.9520 C   0  0  0  0  0  0  0  0  0  0  0  0
   37.2520   26.1880   42.1170 C   0  0  0  0  0  0  0  0  0  0  0  0
   36.8530   27.2020   42.9760 C   0  0  0  0  0  0  0  0  0  0  0  0
   37.1360   28.4870   42.6230 N   0  0  0  0  0  0  0  0  0  0  0  0
   37.7690   28.8340   41.5080 C   0  0  0  0  0  0  0  0  0  0  0  0
   38.1730   27.8720   40.6450 N   0  0  0  0  0  0  0  0  0  0  0  0
   38.2660   25.8670   40.2220 H   0  0  0  0  0  0  0  0  0  0  0  0
   36.3430   26.9220   43.8740 H   0  0  0  0  0  0  0  0  0  0  0  0
   35.5710   30.2690   39.9400 Cl  0  0  0  0  0  0  0  0  0  0  0  0
   37.0790   30.9660   40.5060 C   0  0  0  0  0  0  0  0  0  0  0  0
   38.0260   30.2320   41.2170 C   0  0  0  0  0  0  0  0  0  0  0  0
   39.2110   30.8150   41.6500 C   0  0  0  0  0  0  0  0  0  0  0  0
   39.4500   32.1520   41.3680 C   0  0  0  0  0  0  0  0  0  0  0  0
   38.4910   32.8530   40.6610 C   0  0  0  0  0  0  0  0  0  0  0  0
   38.8130   34.5320   40.3180 Cl  0  0  0  0  0  0  0  0  0  0  0  0
   37.3070   32.3010   40.2180 C   0  0  0  0  0  0  0  0  0  0  0  0
   39.9210   30.2320   42.1940 H   0  0  0  0  0  0  0  0  0  0  0  0
   40.3620   32.6190   41.6960 H   0  0  0  0  0  0  0  0  0  0  0  0
   36.5970   32.9220   39.6640 H   0  0  0  0  0  0  0  0  0  0  0  0
   37.0420   24.7730   42.3200 C   0  0  0  0  0  0  0  0  0  0  0  0
   36.8440   24.4990   43.3540 H   0  0  0  0  0  0  0  0  0  0  0  0
   36.1180   24.4850   41.7470 H   0  0  0  0  0  0  0  0  0  0  0  0
   38.1760   24.0180   41.6630 C   0  0  0  0  0  0  0  0  0  0  0  0
   38.7820   24.7880   41.1260 H   0  0  0  0  0  0  0  0  0  0  0  0
   38.7960   23.5220   42.4260 H   0  0  0  0  0  0  0  0  0  0  0  0
   37.6920   22.9800   40.6810 C   0  0  0  0  0  3  0  0  0  0  0  0
   37.9780   23.0710   39.2340 C   0  0  0  0  0  2  0  0  0  0  0  0
   36.5560   23.2400   39.7930 C   0  0  0  0  0  2  0  0  0  0  0  0
  1  2  1  0  0  0  0
  2 20  1  0  0  0  0
  2  3  2  0  0  0  0
  3  8  1  0  0  0  0
  4  3  1  0  0  0  0
  5  4  2  0  0  0  0
  6  1  2  0  0  0  0
  6  5  1  0  0  0  0
  7  1  1  0  0  0  0
  9 10  1  0  0  0  0
 10 11  1  0  0  0  0
 11  5  1  0  0  0  0
 11 12  2  0  0  0  0
 12 17  1  0  0  0  0
 13 12  1  0  0  0  0
 13 18  1  0  0  0  0
 14 13  2  0  0  0  0
 15 14  1  0  0  0  0
 16 10  2  0  0  0  0
 16 14  1  0  0  0  0
 19 16  1  0  0  0  0
 20 21  1  0  0  0  0
 22 20  1  0  0  0  0
 23 20  1  0  0  0  0
 23 25  1  0  0  0  0
 24 23  1  0  0  0  0
 26 23  1  0  0  0  0
 27 28  1  0  0  0  0
 27 26  1  0  0  0  0
 28 26  1  0  0  0  0
M  END
>  <minimizedAffinity>
-4.99198914

$$$$

 OpenBabel03252504513D

 28 30  0  0  0  0  0  0  0  0999 V2000
   41.0630   32.1540   39.4290 C   0  0  0  0  0  0  0  0  0  0  0  0
   40.6870   33.5000   39.4940 C   0  0  0  0  0  0  0  0  0  0  0  0
   39.5590   33.7900   40.2490 C   0  0  0  0  0  0  0  0  0  0  0  0
   38.9160   32.7570   40.8610 N   0  0  0  0  0  0  0  0  0  0  0  0
   39.2970   31.4870   40.7820 C   0  0  0  0  0  0  0  0  0  0  0  0
   40.3930   31.1650   40.0550 N   0  0  0  0  0  0  0  0  0  0  0  0
   41.9270   31.8300   38.8660 H   0  0  0  0  0  0  0  0  0  0  0  0
   39.2530   34.8130   40.3130 H   0  0  0  0  0  0  0  0  0  0  0  0
   36.7380   30.5750   39.3770 Cl  0  0  0  0  0  0  0  0  0  0  0  0
   37.3660   29.9760   40.9030 C   0  0  0  0  0  0  0  0  0  0  0  0
   38.5460   30.4530   41.4690 C   0  0  0  0  0  0  0  0  0  0  0  0
   39.0150   29.9570   42.6790 C   0  0  0  0  0  0  0  0  0  0  0  0
   38.2920   28.9680   43.3320 C   0  0  0  0  0  0  0  0  0  0  0  0
   37.1250   28.5160   42.7440 C   0  0  0  0  0  0  0  0  0  0  0  0
   36.2330   27.2740   43.5810 Cl  0  0  0  0  0  0  0  0  0  0  0  0
   36.6360   28.9900   41.5450 C   0  0  0  0  0  0  0  0  0  0  0  0
   39.9230   30.3380   43.0930 H   0  0  0  0  0  0  0  0  0  0  0  0
   38.6410   28.5730   44.2700 H   0  0  0  0  0  0  0  0  0  0  0  0
   35.7040   28.5810   41.1430 H   0  0  0  0  0  0  0  0  0  0  0  0
   41.4970   34.4570   38.7760 C   0  0  0  0  0  0  0  0  0  0  0  0
   40.9670   35.3670   38.5010 H   0  0  0  0  0  0  0  0  0  0  0  0
   42.3220   34.7840   39.4680 H   0  0  0  0  0  0  0  0  0  0  0  0
   42.1850   33.7450   37.6340 C   0  0  0  0  0  0  0  0  0  0  0  0
   41.9110   32.6670   37.7380 H   0  0  0  0  0  0  0  0  0  0  0  0
   41.8200   34.1310   36.6690 H   0  0  0  0  0  0  0  0  0  0  0  0
   43.6860   33.8910   37.6770 C   0  0  0  0  0  3  0  0  0  0  0  0
   44.5830   32.7410   37.9150 C   0  0  0  0  0  2  0  0  0  0  0  0
   44.4190   33.8700   38.9460 C   0  0  0  0  0  2  0  0  0  0  0  0
  1  2  2  0  0  0  0
  1  6  1  0  0  0  0
  2  3  1  0  0  0  0
  3  8  1  0  0  0  0
  3  4  2  0  0  0  0
  5  4  1  0  0  0  0
  5 11  1  0  0  0  0
  6  5  2  0  0  0  0
  7  1  1  0  0  0  0
  9 10  1  0  0  0  0
 10 11  2  0  0  0  0
 10 16  1  0  0  0  0
 11 12  1  0  0  0  0
 12 17  1  0  0  0  0
 12 13  2  0  0  0  0
 13 18  1  0  0  0  0
 14 13  1  0  0  0  0
 14 15  1  0  0  0  0
 16 14  2  0  0  0  0
 19 16  1  0  0  0  0
 20 22  1  0  0  0  0
 20  2  1  0  0  0  0
 21 20  1  0  0  0  0
 23 26  1  0  0  0  0
 23 24  1  0  0  0  0
 23 20  1  0  0  0  0
 25 23  1  0  0  0  0
 26 27  1  0  0  0  0
 26 28  1  0  0  0  0
 27 28  1  0  0  0  0
M  END
>  <minimizedAffinity>
-4.8261199

$$$$

 OpenBabel03252504513D

 28 30  0  0  0  0  0  0  0  0999 V2000
   37.2050   26.7750   41.5600 C   0  0  0  0  0  0  0  0  0  0  0  0
   37.5430   27.7930   42.4580 C   0  0  0  0  0  0  0  0  0  0  0  0
   37.2050   29.0860   42.0820 C   0  0  0  0  0  0  0  0  0  0  0  0
   36.5800   29.2600   40.8850 N   0  0  0  0  0  0  0  0  0  0  0  0
   36.2710   28.2730   40.0510 C   0  0  0  0  0  0  0  0  0  0  0  0
   36.5840   26.9990   40.3840 N   0  0  0  0  0  0  0  0  0  0  0  0
   37.4270   25.7370   41.7650 H   0  0  0  0  0  0  0  0  0  0  0  0
   37.4540   29.8810   42.7530 H   0  0  0  0  0  0  0  0  0  0  0  0
   38.1010   28.4350   37.6060 Cl  0  0  0  0  0  0  0  0  0  0  0  0
   36.3590   28.6500   37.6270 C   0  0  0  0  0  0  0  0  0  0  0  0
   35.6040   28.5570   38.7940 C   0  0  0  0  0  0  0  0  0  0  0  0
   34.2260   28.7340   38.7760 C   0  0  0  0  0  0  0  0  0  0  0  0
   33.5950   29.0060   37.5700 C   0  0  0  0  0  0  0  0  0  0  0  0
   34.3710   29.0910   36.4290 C   0  0  0  0  0  0  0  0  0  0  0  0
   33.5560   29.4340   34.9270 Cl  0  0  0  0  0  0  0  0  0  0  0  0
   35.7400   28.9210   36.4180 C   0  0  0  0  0  0  0  0  0  0  0  0
   33.6690   28.6570   39.6830 H   0  0  0  0  0  0  0  0  0  0  0  0
   32.5280   29.1450   37.5380 H   0  0  0  0  0  0  0  0  0  0  0  0
   36.2860   29.0040   35.4740 H   0  0  0  0  0  0  0  0  0  0  0  0
   38.2050   27.4120   43.6840 C   0  0  0  0  0  0  0  0  0  0  0  0
   37.9410   28.0310   44.5400 H   0  0  0  0  0  0  0  0  0  0  0  0
   37.8600   26.3730   43.9430 H   0  0  0  0  0  0  0  0  0  0  0  0
   39.6870   27.2900   43.4140 C   0  0  0  0  0  0  0  0  0  0  0  0
   39.8090   27.4390   42.3130 H   0  0  0  0  0  0  0  0  0  0  0  0
   40.2400   28.0720   43.9580 H   0  0  0  0  0  0  0  0  0  0  0  0
   40.2410   25.9430   43.8050 C   0  0  0  0  0  3  0  0  0  0  0  0
   41.1320   25.1680   42.9160 C   0  0  0  0  0  2  0  0  0  0  0  0
   39.7030   24.7020   43.2400 C   0  0  0  0  0  2  0  0  0  0  0  0
  1  7  1  0  0  0  0
  1  2  1  0  0  0  0
  2 20  1  0  0  0  0
  3  2  2  0  0  0  0
  3  8  1  0  0  0  0
  4  3  1  0  0  0  0
  5  6  1  0  0  0  0
  5  4  2  0  0  0  0
  6  1  2  0  0  0  0
  9 10  1  0  0  0  0
 10 11  1  0  0  0  0
 11  5  1  0  0  0  0
 12 11  2  0  0  0  0
 12 17  1  0  0  0  0
 13 12  1  0  0  0  0
 14 13  2  0  0  0  0
 15 14  1  0  0  0  0
 16 14  1  0  0  0  0
 16 10  2  0  0  0  0
 18 13  1  0  0  0  0
 19 16  1  0  0  0  0
 20 22  1  0  0  0  0
 20 21  1  0  0  0  0
 23 20  1  0  0  0  0
 23 26  1  0  0  0  0
 23 25  1  0  0  0  0
 24 23  1  0  0  0  0
 27 28  1  0  0  0  0
 27 26  1  0  0  0  0
 28 26  1  0  0  0  0
M  END
>  <minimizedAffinity>
-4.7626214

$$$$

 OpenBabel03252504513D

 28 30  0  0  0  0  0  0  0  0999 V2000
   32.9760   28.9640   37.2330 C   0  0  0  0  0  0  0  0  0  0  0  0
   33.6020   29.0250   35.9830 C   0  0  0  0  0  0  0  0  0  0  0  0
   34.9880   29.0900   35.9900 C   0  0  0  0  0  0  0  0  0  0  0  0
   35.6220   29.0890   37.1960 N   0  0  0  0  0  0  0  0  0  0  0  0
   35.0000   29.0310   38.3680 C   0  0  0  0  0  0  0  0  0  0  0  0
   33.6480   28.9660   38.4020 N   0  0  0  0  0  0  0  0  0  0  0  0
   31.8990   28.9110   37.3290 H   0  0  0  0  0  0  0  0  0  0  0  0
   35.4890   29.1370   35.0460 H   0  0  0  0  0  0  0  0  0  0  0  0
   36.1860   26.3330   39.1850 Cl  0  0  0  0  0  0  0  0  0  0  0  0
   36.3390   27.8510   40.0540 C   0  0  0  0  0  0  0  0  0  0  0  0
   35.7620   29.0360   39.6030 C   0  0  0  0  0  0  0  0  0  0  0  0
   35.9020   30.2200   40.3150 C   0  0  0  0  0  0  0  0  0  0  0  0
   36.6330   30.2180   41.4950 C   0  0  0  0  0  0  0  0  0  0  0  0
   37.1930   29.0260   41.9150 C   0  0  0  0  0  0  0  0  0  0  0  0
   38.1060   29.0470   43.4010 Cl  0  0  0  0  0  0  0  0  0  0  0  0
   37.0700   27.8360   41.2300 C   0  0  0  0  0  0  0  0  0  0  0  0
   35.4510   31.1160   39.9500 H   0  0  0  0  0  0  0  0  0  0  0  0
   36.7520   31.1270   42.0590 H   0  0  0  0  0  0  0  0  0  0  0  0
   37.5430   26.9330   41.6270 H   0  0  0  0  0  0  0  0  0  0  0  0
   32.7590   29.0140   34.8100 C   0  0  0  0  0  0  0  0  0  0  0  0
   33.2800   29.2700   33.8890 H   0  0  0  0  0  0  0  0  0  0  0  0
   32.3940   27.9590   34.6690 H   0  0  0  0  0  0  0  0  0  0  0  0
   31.5230   29.8350   35.0970 C   0  0  0  0  0  0  0  0  0  0  0  0
   30.6660   29.2520   34.6800 H   0  0  0  0  0  0  0  0  0  0  0  0
   31.3930   29.9620   36.1830 H   0  0  0  0  0  0  0  0  0  0  0  0
   31.5670   31.1980   34.4520 C   0  0  0  0  0  3  0  0  0  0  0  0
   30.8320   32.3560   35.0050 C   0  0  0  0  0  2  0  0  0  0  0  0
   30.4390   31.7080   33.6660 C   0  0  0  0  0  2  0  0  0  0  0  0
  1  7  1  0  0  0  0
  1  6  1  0  0  0  0
  2  3  1  0  0  0  0
  2  1  2  0  0  0  0
  3  4  2  0  0  0  0
  4  5  1  0  0  0  0
  5  6  2  0  0  0  0
  5 11  1  0  0  0  0
  8  3  1  0  0  0  0
  9 10  1  0  0  0  0
 10 16  1  0  0  0  0
 11 10  2  0  0  0  0
 11 12  1  0  0  0  0
 12 13  2  0  0  0  0
 13 14  1  0  0  0  0
 13 18  1  0  0  0  0
 14 15  1  0  0  0  0
 16 19  1  0  0  0  0
 16 14  2  0  0  0  0
 17 12  1  0  0  0  0
 20 23  1  0  0  0  0
 20  2  1  0  0  0  0
 21 20  1  0  0  0  0
 22 20  1  0  0  0  0
 23 25  1  0  0  0  0
 24 23  1  0  0  0  0
 26 27  1  0  0  0  0
 26 23  1  0  0  0  0
 28 26  1  0  0  0  0
 28 27  1  0  0  0  0
M  END
>  <minimizedAffinity>
-4.66768312

$$$$

 OpenBabel03252504513D

 28 30  0  0  0  0  0  0  0  0999 V2000
   37.8960   30.9730   38.8170 C   0  0  0  0  0  0  0  0  0  0  0  0
   37.2960   31.8590   39.7190 C   0  0  0  0  0  0  0  0  0  0  0  0
   36.7250   31.2940   40.8500 C   0  0  0  0  0  0  0  0  0  0  0  0
   36.7920   29.9420   40.9930 N   0  0  0  0  0  0  0  0  0  0  0  0
   37.3690   29.1240   40.1200 C   0  0  0  0  0  0  0  0  0  0  0  0
   37.9380   29.6380   39.0040 N   0  0  0  0  0  0  0  0  0  0  0  0
   38.3680   31.3180   37.9070 H   0  0  0  0  0  0  0  0  0  0  0  0
   36.2600   31.9520   41.5540 H   0  0  0  0  0  0  0  0  0  0  0  0
   39.2910   28.1920   42.3070 Cl  0  0  0  0  0  0  0  0  0  0  0  0
   38.2370   27.1780   41.3370 C   0  0  0  0  0  0  0  0  0  0  0  0
   37.3900   27.6930   40.3580 C   0  0  0  0  0  0  0  0  0  0  0  0
   36.5690   26.8620   39.6070 C   0  0  0  0  0  0  0  0  0  0  0  0
   36.5950   25.4950   39.8410 C   0  0  0  0  0  0  0  0  0  0  0  0
   37.4450   25.0140   40.8190 C   0  0  0  0  0  0  0  0  0  0  0  0
   37.4610   23.2920   41.0950 Cl  0  0  0  0  0  0  0  0  0  0  0  0
   38.2720   25.8150   41.5790 C   0  0  0  0  0  0  0  0  0  0  0  0
   35.9280   27.2810   38.8630 H   0  0  0  0  0  0  0  0  0  0  0  0
   35.9640   24.8360   39.2690 H   0  0  0  0  0  0  0  0  0  0  0  0
   38.9170   25.3590   42.3360 H   0  0  0  0  0  0  0  0  0  0  0  0
   37.3250   33.2660   39.3950 C   0  0  0  0  0  0  0  0  0  0  0  0
   37.4530   33.4730   38.3330 H   0  0  0  0  0  0  0  0  0  0  0  0
   36.3220   33.6950   39.6690 H   0  0  0  0  0  0  0  0  0  0  0  0
   38.3200   33.9500   40.3040 C   0  0  0  0  0  0  0  0  0  0  0  0
   38.0150   35.0240   40.3360 H   0  0  0  0  0  0  0  0  0  0  0  0
   38.2700   33.5190   41.3160 H   0  0  0  0  0  0  0  0  0  0  0  0
   39.7380   33.8430   39.8010 C   0  0  0  0  0  3  0  0  0  0  0  0
   40.7510   33.0010   40.4720 C   0  0  0  0  0  2  0  0  0  0  0  0
   40.8420   34.5360   40.4740 C   0  0  0  0  0  2  0  0  0  0  0  0
  1  6  2  0  0  0  0
  1  2  1  0  0  0  0
  2  3  2  0  0  0  0
  3  4  1  0  0  0  0
  3  8  1  0  0  0  0
  5 11  1  0  0  0  0
  5  4  2  0  0  0  0
  6  5  1  0  0  0  0
  7  1  1  0  0  0  0
 10 16  1  0  0  0  0
 10  9  1  0  0  0  0
 11 10  2  0  0  0  0
 12 13  2  0  0  0  0
 12 11  1  0  0  0  0
 13 14  1  0  0  0  0
 14 15  1  0  0  0  0
 14 16  2  0  0  0  0
 16 19  1  0  0  0  0
 17 12  1  0  0  0  0
 18 13  1  0  0  0  0
 20 22  1  0  0  0  0
 20  2  1  0  0  0  0
 20 23  1  0  0  0  0
 21 20  1  0  0  0  0
 23 24  1  0  0  0  0
 23 25  1  0  0  0  0
 26 23  1  0  0  0  0
 26 27  1  0  0  0  0
 26 28  1  0  0  0  0
 27 28  1  0  0  0  0
M  END
>  <minimizedAffinity>
-4.59376574

$$$$

 OpenBabel03252504513D

 28 30  0  0  0  0  0  0  0  0999 V2000
   39.0220   28.9850   42.3160 C   0  0  0  0  0  0  0  0  0  0  0  0
   37.6260   29.0680   42.3670 C   0  0  0  0  0  0  0  0  0  0  0  0
   37.0390   30.0750   41.6140 C   0  0  0  0  0  0  0  0  0  0  0  0
   37.8550   30.8920   40.8940 N   0  0  0  0  0  0  0  0  0  0  0  0
   39.1800   30.7900   40.8630 C   0  0  0  0  0  0  0  0  0  0  0  0
   39.7890   29.8190   41.5850 N   0  0  0  0  0  0  0  0  0  0  0  0
   39.5700   28.2340   42.8680 H   0  0  0  0  0  0  0  0  0  0  0  0
   35.9730   30.1570   41.6390 H   0  0  0  0  0  0  0  0  0  0  0  0
   39.4200   30.0730   37.9000 Cl  0  0  0  0  0  0  0  0  0  0  0  0
   40.1320   31.4620   38.7030 C   0  0  0  0  0  0  0  0  0  0  0  0
   39.9680   31.7100   40.0640 C   0  0  0  0  0  0  0  0  0  0  0  0
   40.5460   32.8190   40.6680 C   0  0  0  0  0  0  0  0  0  0  0  0
   41.2980   33.6940   39.8980 C   0  0  0  0  0  0  0  0  0  0  0  0
   41.4420   33.4220   38.5500 C   0  0  0  0  0  0  0  0  0  0  0  0
   42.3920   34.5350   37.6020 Cl  0  0  0  0  0  0  0  0  0  0  0  0
   40.8810   32.3290   37.9240 C   0  0  0  0  0  0  0  0  0  0  0  0
   40.4050   32.9880   41.7130 H   0  0  0  0  0  0  0  0  0  0  0  0
   41.7520   34.5590   40.3500 H   0  0  0  0  0  0  0  0  0  0  0  0
   41.0400   32.1810   36.8520 H   0  0  0  0  0  0  0  0  0  0  0  0
   36.9290   28.1070   43.1910 C   0  0  0  0  0  0  0  0  0  0  0  0
   36.7850   28.4300   44.2210 H   0  0  0  0  0  0  0  0  0  0  0  0
   35.8950   27.9870   42.7630 H   0  0  0  0  0  0  0  0  0  0  0  0
   37.5940   26.7600   43.0290 C   0  0  0  0  0  0  0  0  0  0  0  0
   38.6490   26.9750   42.7310 H   0  0  0  0  0  0  0  0  0  0  0  0
   37.5800   26.2100   43.9830 H   0  0  0  0  0  0  0  0  0  0  0  0
   36.9350   25.9090   41.9710 C   0  0  0  0  0  3  0  0  0  0  0  0
   37.1110   24.4420   41.9160 C   0  0  0  0  0  2  0  0  0  0  0  0
   37.6960   25.3720   40.8390 C   0  0  0  0  0  2  0  0  0  0  0  0
  1  2  1  0  0  0  0
  1  7  1  0  0  0  0
  2 20  1  0  0  0  0
  3  8  1  0  0  0  0
  3  2  2  0  0  0  0
  4  3  1  0  0  0  0
  5  4  2  0  0  0  0
  5  6  1  0  0  0  0
  6  1  2  0  0  0  0
  9 10  1  0  0  0  0
 10 11  1  0  0  0  0
 11 12  2  0  0  0  0
 11  5  1  0  0  0  0
 12 17  1  0  0  0  0
 13 18  1  0  0  0  0
 13 12  1  0  0  0  0
 14 13  2  0  0  0  0
 15 14  1  0  0  0  0
 16 14  1  0  0  0  0
 16 10  2  0  0  0  0
 19 16  1  0  0  0  0
 20 21  1  0  0  0  0
 22 20  1  0  0  0  0
 23 20  1  0  0  0  0
 23 25  1  0  0  0  0
 24 23  1  0  0  0  0
 26 23  1  0  0  0  0
 27 26  1  0  0  0  0
 28 27  1  0  0  0  0
 28 26  1  0  0  0  0
M  END
>  <minimizedAffinity>
-4.55197477

$$$$

 OpenBabel03252504513D

 28 30  0  0  0  0  0  0  0  0999 V2000
   33.5580   28.9210   37.6710 C   0  0  0  0  0  0  0  0  0  0  0  0
   34.2230   29.0510   36.4470 C   0  0  0  0  0  0  0  0  0  0  0  0
   35.6010   28.8910   36.4730 C   0  0  0  0  0  0  0  0  0  0  0  0
   36.1910   28.6230   37.6710 N   0  0  0  0  0  0  0  0  0  0  0  0
   35.5330   28.5050   38.8200 C   0  0  0  0  0  0  0  0  0  0  0  0
   34.1870   28.6540   38.8340 N   0  0  0  0  0  0  0  0  0  0  0  0
   32.4850   29.0280   37.7510 H   0  0  0  0  0  0  0  0  0  0  0  0
   36.1310   28.9860   35.5490 H   0  0  0  0  0  0  0  0  0  0  0  0
   36.1190   30.9300   40.5890 Cl  0  0  0  0  0  0  0  0  0  0  0  0
   36.5600   29.2630   40.9160 C   0  0  0  0  0  0  0  0  0  0  0  0
   36.2500   28.2180   40.0480 C   0  0  0  0  0  0  0  0  0  0  0  0
   36.6150   26.9100   40.3380 C   0  0  0  0  0  0  0  0  0  0  0  0
   37.3000   26.6430   41.5150 C   0  0  0  0  0  0  0  0  0  0  0  0
   37.5930   27.7010   42.3560 C   0  0  0  0  0  0  0  0  0  0  0  0
   38.4550   27.3410   43.8280 Cl  0  0  0  0  0  0  0  0  0  0  0  0
   37.2440   29.0090   42.0940 C   0  0  0  0  0  0  0  0  0  0  0  0
   36.3650   26.1260   39.6570 H   0  0  0  0  0  0  0  0  0  0  0  0
   37.5900   25.6350   41.7550 H   0  0  0  0  0  0  0  0  0  0  0  0
   37.5110   29.7920   42.8090 H   0  0  0  0  0  0  0  0  0  0  0  0
   33.4240   29.3360   35.2780 C   0  0  0  0  0  0  0  0  0  0  0  0
   33.5820   30.3320   34.8670 H   0  0  0  0  0  0  0  0  0  0  0  0
   33.7440   28.6210   34.4700 H   0  0  0  0  0  0  0  0  0  0  0  0
   31.9850   28.9880   35.5810 C   0  0  0  0  0  0  0  0  0  0  0  0
   31.7700   28.0560   35.0030 H   0  0  0  0  0  0  0  0  0  0  0  0
   31.8570   28.7970   36.6580 H   0  0  0  0  0  0  0  0  0  0  0  0
   31.0240   30.0740   35.1640 C   0  0  0  0  0  3  0  0  0  0  0  0
   31.4670   31.2850   34.4410 C   0  0  0  0  0  2  0  0  0  0  0  0
   30.9490   31.3470   35.8880 C   0  0  0  0  0  2  0  0  0  0  0  0
  1  7  1  0  0  0  0
  1  6  1  0  0  0  0
  2  3  1  0  0  0  0
  2  1  2  0  0  0  0
  3  4  2  0  0  0  0
  4  5  1  0  0  0  0
  5  6  2  0  0  0  0
  5 11  1  0  0  0  0
  8  3  1  0  0  0  0
  9 10  1  0  0  0  0
 10 16  1  0  0  0  0
 11 12  1  0  0  0  0
 11 10  2  0  0  0  0
 12 13  2  0  0  0  0
 13 18  1  0  0  0  0
 13 14  1  0  0  0  0
 14 15  1  0  0  0  0
 16 14  2  0  0  0  0
 16 19  1  0  0  0  0
 17 12  1  0  0  0  0
 20 23  1  0  0  0  0
 20  2  1  0  0  0  0
 21 20  1  0  0  0  0
 22 20  1  0  0  0  0
 23 25  1  0  0  0  0
 24 23  1  0  0  0  0
 26 23  1  0  0  0  0
 26 28  1  0  0  0  0
 27 26  1  0  0  0  0
 27 28  1  0  0  0  0
M  END
>  <minimizedAffinity>
-4.49297667

$$$$

 OpenBabel03252504513D

 28 30  0  0  0  0  0  0  0  0999 V2000
   36.2030   29.4820   41.2810 C   0  0  0  0  0  0  0  0  0  0  0  0
   37.0430   30.3160   40.5360 C   0  0  0  0  0  0  0  0  0  0  0  0
   38.0030   29.6880   39.7560 C   0  0  0  0  0  0  0  0  0  0  0  0
   38.0520   28.3270   39.7750 N   0  0  0  0  0  0  0  0  0  0  0  0
   37.2400   27.5590   40.4930 C   0  0  0  0  0  0  0  0  0  0  0  0
   36.2900   28.1360   41.2660 N   0  0  0  0  0  0  0  0  0  0  0  0
   35.4240   29.8780   41.9190 H   0  0  0  0  0  0  0  0  0  0  0  0
   38.6570   30.3070   39.1770 H   0  0  0  0  0  0  0  0  0  0  0  0
   38.8320   26.3180   42.7890 Cl  0  0  0  0  0  0  0  0  0  0  0  0
   38.0790   25.4620   41.4540 C   0  0  0  0  0  0  0  0  0  0  0  0
   37.3690   26.1150   40.4490 C   0  0  0  0  0  0  0  0  0  0  0  0
   36.7850   25.4070   39.4060 C   0  0  0  0  0  0  0  0  0  0  0  0
   36.9120   24.0260   39.3700 C   0  0  0  0  0  0  0  0  0  0  0  0
   37.6220   23.4080   40.3830 C   0  0  0  0  0  0  0  0  0  0  0  0
   37.7690   21.6720   40.3170 Cl  0  0  0  0  0  0  0  0  0  0  0  0
   38.2120   24.0840   41.4290 C   0  0  0  0  0  0  0  0  0  0  0  0
   36.2450   25.9290   38.6470 H   0  0  0  0  0  0  0  0  0  0  0  0
   36.4660   23.4620   38.5690 H   0  0  0  0  0  0  0  0  0  0  0  0
   38.7590   23.5240   42.1940 H   0  0  0  0  0  0  0  0  0  0  0  0
   36.8370   31.7420   40.6450 C   0  0  0  0  0  0  0  0  0  0  0  0
   35.8540   32.0200   41.0200 H   0  0  0  0  0  0  0  0  0  0  0  0
   37.5720   32.1300   41.4030 H   0  0  0  0  0  0  0  0  0  0  0  0
   37.2290   32.3870   39.3350 C   0  0  0  0  0  0  0  0  0  0  0  0
   37.7100   31.5800   38.7310 H   0  0  0  0  0  0  0  0  0  0  0  0
   36.3350   32.7610   38.8120 H   0  0  0  0  0  0  0  0  0  0  0  0
   38.1980   33.5290   39.5150 C   0  0  0  0  0  3  0  0  0  0  0  0
   39.6550   33.3130   39.6460 C   0  0  0  0  0  2  0  0  0  0  0  0
   38.8000   33.8210   40.8200 C   0  0  0  0  0  2  0  0  0  0  0  0
  1  7  1  0  0  0  0
  2 20  1  0  0  0  0
  2  1  2  0  0  0  0
  3  4  2  0  0  0  0
  3  2  1  0  0  0  0
  4  5  1  0  0  0  0
  5  6  2  0  0  0  0
  6  1  1  0  0  0  0
  8  3  1  0  0  0  0
 10  9  1  0  0  0  0
 11  5  1  0  0  0  0
 11 10  2  0  0  0  0
 12 11  1  0  0  0  0
 13 12  2  0  0  0  0
 13 14  1  0  0  0  0
 14 16  2  0  0  0  0
 15 14  1  0  0  0  0
 16 10  1  0  0  0  0
 16 19  1  0  0  0  0
 17 12  1  0  0  0  0
 18 13  1  0  0  0  0
 20 21  1  0  0  0  0
 20 22  1  0  0  0  0
 23 26  1  0  0  0  0
 23 20  1  0  0  0  0
 24 23  1  0  0  0  0
 25 23  1  0  0  0  0
 26 27  1  0  0  0  0
 26 28  1  0  0  0  0
 27 28  1  0  0  0  0
M  END
>  <minimizedAffinity>
-4.3617959

$$$$
