
 OpenBabel03252501363D

 19 20  0  0  0  0  0  0  0  0999 V2000
   37.5480   30.1730   41.8770 C   0  0  0  0  0  0  0  0  0  0  0  0
   36.7350   30.9310   41.0700 C   0  0  0  0  0  0  0  0  0  0  0  0
   37.3260   32.0410   40.4950 C   0  0  0  0  0  0  0  0  0  0  0  0
   38.6260   32.2880   40.7650 N   0  0  0  0  0  0  0  0  0  0  0  0
   39.3820   31.5210   41.5580 C   0  0  0  0  0  0  0  0  0  0  0  0
   38.8410   30.4290   42.1390 N   0  0  0  0  0  0  0  0  0  0  0  0
   36.6930   32.6450   39.8580 H   0  0  0  0  0  0  0  0  0  0  0  0
   40.4060   31.8230   41.6950 H   0  0  0  0  0  0  0  0  0  0  0  0
   37.2800   27.8430   41.7180 C   0  0  0  0  0  0  0  0  0  0  0  0
   37.7180   28.1760   40.5730 O   0  0  0  0  0  0  0  0  0  0  0  0
   37.1270   28.9710   42.5800 N   0  0  0  0  0  0  0  0  0  0  0  0
   36.7650   28.8670   43.5430 H   0  0  0  0  0  0  0  0  0  0  0  0
   36.9680   26.5510   42.1470 O   0  0  0  0  0  0  0  0  0  0  0  0
   37.5450   25.4360   41.4630 C   0  0  0  0  0  3  0  0  0  0  0  0
   36.6660   24.1980   41.4970 C   0  0  0  0  0  2  0  0  0  0  0  0
   37.9980   24.2290   42.1710 C   0  0  0  0  0  2  0  0  0  0  0  0
   35.4000   30.5080   40.9120 N   0  0  0  0  0  0  0  0  0  0  0  0
   34.7950   31.3350   41.1170 H   0  0  0  0  0  0  0  0  0  0  0  0
   35.0590   29.5610   40.6440 H   0  0  0  0  0  0  0  0  0  0  0  0
  1  6  1  0  0  0  0
  1 11  1  0  0  0  0
  2  1  2  0  0  0  0
  3  4  2  0  0  0  0
  3  2  1  0  0  0  0
  4  5  1  0  0  0  0
  5  8  1  0  0  0  0
  5  6  2  0  0  0  0
  7  3  1  0  0  0  0
  9 13  1  0  0  0  0
  9 11  1  0  0  0  0
 10  9  2  0  0  0  0
 11 12  1  0  0  0  0
 14 15  1  0  0  0  0
 14 13  1  0  0  0  0
 14 16  1  0  0  0  0
 15 16  1  0  0  0  0
 17  2  1  0  0  0  0
 17 18  1  0  0  0  0
 19 17  1  0  0  0  0
M  END
>  <minimizedAffinity>
-4.35668755

$$$$

 OpenBabel03252501363D

 19 20  0  0  0  0  0  0  0  0999 V2000
   37.6550   30.0810   40.3460 C   0  0  0  0  0  0  0  0  0  0  0  0
   36.8690   31.1630   40.6620 C   0  0  0  0  0  0  0  0  0  0  0  0
   37.3680   32.3970   40.2910 C   0  0  0  0  0  0  0  0  0  0  0  0
   38.5620   32.4440   39.6620 N   0  0  0  0  0  0  0  0  0  0  0  0
   39.2970   31.3640   39.3730 C   0  0  0  0  0  0  0  0  0  0  0  0
   38.8430   30.1400   39.7200 N   0  0  0  0  0  0  0  0  0  0  0  0
   36.7550   33.2560   40.5360 H   0  0  0  0  0  0  0  0  0  0  0  0
   40.2320   31.5310   38.8690 H   0  0  0  0  0  0  0  0  0  0  0  0
   37.7330   28.3960   41.9830 C   0  0  0  0  0  0  0  0  0  0  0  0
   38.2940   29.3890   42.5430 O   0  0  0  0  0  0  0  0  0  0  0  0
   37.3210   28.6980   40.6490 N   0  0  0  0  0  0  0  0  0  0  0  0
   36.8620   27.9890   40.0540 H   0  0  0  0  0  0  0  0  0  0  0  0
   37.5150   27.1360   42.5440 O   0  0  0  0  0  0  0  0  0  0  0  0
   37.7440   25.9730   41.7440 C   0  0  0  0  0  3  0  0  0  0  0  0
   36.8600   24.8010   42.1340 C   0  0  0  0  0  2  0  0  0  0  0  0
   38.3440   24.7470   42.2940 C   0  0  0  0  0  2  0  0  0  0  0  0
   35.6500   30.9080   41.3220 N   0  0  0  0  0  0  0  0  0  0  0  0
   35.6270   31.5280   42.1630 H   0  0  0  0  0  0  0  0  0  0  0  0
   34.9030   30.2370   41.0440 H   0  0  0  0  0  0  0  0  0  0  0  0
  1 11  1  0  0  0  0
  1  2  1  0  0  0  0
  2 17  1  0  0  0  0
  3  7  1  0  0  0  0
  3  2  2  0  0  0  0
  4  3  1  0  0  0  0
  5  4  2  0  0  0  0
  5  6  1  0  0  0  0
  6  1  2  0  0  0  0
  8  5  1  0  0  0  0
  9 10  2  0  0  0  0
  9 13  1  0  0  0  0
 11  9  1  0  0  0  0
 12 11  1  0  0  0  0
 14 15  1  0  0  0  0
 14 16  1  0  0  0  0
 14 13  1  0  0  0  0
 15 16  1  0  0  0  0
 17 18  1  0  0  0  0
 19 17  1  0  0  0  0
M  END
>  <minimizedAffinity>
-4.18813181

$$$$

 OpenBabel03252501363D

 19 20  0  0  0  0  0  0  0  0999 V2000
   41.0620   33.5270   38.7320 C   0  0  0  0  0  0  0  0  0  0  0  0
   41.2880   32.8630   37.5500 C   0  0  0  0  0  0  0  0  0  0  0  0
   42.6080   32.7770   37.1520 C   0  0  0  0  0  0  0  0  0  0  0  0
   43.5540   33.3390   37.9360 N   0  0  0  0  0  0  0  0  0  0  0  0
   43.2900   33.9780   39.0820 C   0  0  0  0  0  0  0  0  0  0  0  0
   42.0110   34.0830   39.5040 N   0  0  0  0  0  0  0  0  0  0  0  0
   42.7960   32.2560   36.2210 H   0  0  0  0  0  0  0  0  0  0  0  0
   44.1290   34.3840   39.6180 H   0  0  0  0  0  0  0  0  0  0  0  0
   39.4130   32.6020   40.1280 C   0  0  0  0  0  0  0  0  0  0  0  0
   40.3200   31.7120   40.0990 O   0  0  0  0  0  0  0  0  0  0  0  0
   39.7520   33.7350   39.3270 N   0  0  0  0  0  0  0  0  0  0  0  0
   39.1100   34.5400   39.2350 H   0  0  0  0  0  0  0  0  0  0  0  0
   38.2110   32.5440   40.8360 O   0  0  0  0  0  0  0  0  0  0  0  0
   37.0150   32.1850   40.1400 C   0  0  0  0  0  3  0  0  0  0  0  0
   36.3130   30.9820   40.7470 C   0  0  0  0  0  2  0  0  0  0  0  0
   36.8980   30.9340   39.3740 C   0  0  0  0  0  2  0  0  0  0  0  0
   40.1660   32.3440   36.8730 N   0  0  0  0  0  0  0  0  0  0  0  0
   40.2250   32.6830   35.8870 H   0  0  0  0  0  0  0  0  0  0  0  0
   39.4120   31.7390   37.2600 H   0  0  0  0  0  0  0  0  0  0  0  0
  1 11  1  0  0  0  0
  1  6  1  0  0  0  0
  2  1  2  0  0  0  0
  3  2  1  0  0  0  0
  3  4  2  0  0  0  0
  4  5  1  0  0  0  0
  5  6  2  0  0  0  0
  5  8  1  0  0  0  0
  7  3  1  0  0  0  0
  9 13  1  0  0  0  0
 10  9  2  0  0  0  0
 11  9  1  0  0  0  0
 12 11  1  0  0  0  0
 14 15  1  0  0  0  0
 14 13  1  0  0  0  0
 16 14  1  0  0  0  0
 16 15  1  0  0  0  0
 17 19  1  0  0  0  0
 17  2  1  0  0  0  0
 18 17  1  0  0  0  0
M  END
>  <minimizedAffinity>
-4.17743826

$$$$

 OpenBabel03252501363D

 19 20  0  0  0  0  0  0  0  0999 V2000
   36.8770   30.0540   41.5880 C   0  0  0  0  0  0  0  0  0  0  0  0
   37.3110   29.1500   42.5270 C   0  0  0  0  0  0  0  0  0  0  0  0
   38.6330   29.2700   42.9100 C   0  0  0  0  0  0  0  0  0  0  0  0
   39.3800   30.2430   42.3450 N   0  0  0  0  0  0  0  0  0  0  0  0
   38.9170   31.1040   41.4320 C   0  0  0  0  0  0  0  0  0  0  0  0
   37.6300   31.0190   41.0320 N   0  0  0  0  0  0  0  0  0  0  0  0
   38.9840   28.5610   43.6500 H   0  0  0  0  0  0  0  0  0  0  0  0
   39.6100   31.8360   41.0560 H   0  0  0  0  0  0  0  0  0  0  0  0
   35.4250   29.1760   39.9610 C   0  0  0  0  0  0  0  0  0  0  0  0
   36.5240   28.5770   39.7410 O   0  0  0  0  0  0  0  0  0  0  0  0
   35.5280   30.1010   41.0450 N   0  0  0  0  0  0  0  0  0  0  0  0
   34.7230   30.6780   41.3380 H   0  0  0  0  0  0  0  0  0  0  0  0
   34.2260   29.0000   39.2660 O   0  0  0  0  0  0  0  0  0  0  0  0
   34.2570   28.9350   37.8380 C   0  0  0  0  0  3  0  0  0  0  0  0
   32.8830   29.0740   37.2080 C   0  0  0  0  0  2  0  0  0  0  0  0
   33.6730   27.8120   37.0890 C   0  0  0  0  0  2  0  0  0  0  0  0
   36.3770   28.2050   42.9990 N   0  0  0  0  0  0  0  0  0  0  0  0
   36.8230   27.2660   42.9030 H   0  0  0  0  0  0  0  0  0  0  0  0
   35.4220   28.3860   43.3730 H   0  0  0  0  0  0  0  0  0  0  0  0
  1  2  1  0  0  0  0
  2  3  2  0  0  0  0
  2 17  1  0  0  0  0
  3  7  1  0  0  0  0
  4  3  1  0  0  0  0
  5  4  2  0  0  0  0
  6  5  1  0  0  0  0
  6  1  2  0  0  0  0
  8  5  1  0  0  0  0
  9 11  1  0  0  0  0
 10  9  2  0  0  0  0
 11 12  1  0  0  0  0
 11  1  1  0  0  0  0
 13  9  1  0  0  0  0
 14 13  1  0  0  0  0
 15 14  1  0  0  0  0
 16 15  1  0  0  0  0
 16 14  1  0  0  0  0
 17 19  1  0  0  0  0
 18 17  1  0  0  0  0
M  END
>  <minimizedAffinity>
-4.09483004

$$$$

 OpenBabel03252501363D

 19 20  0  0  0  0  0  0  0  0999 V2000
   39.0110   31.8240   40.0490 C   0  0  0  0  0  0  0  0  0  0  0  0
   38.3330   33.0020   40.2530 C   0  0  0  0  0  0  0  0  0  0  0  0
   39.1170   34.1340   40.3650 C   0  0  0  0  0  0  0  0  0  0  0  0
   40.4570   34.0000   40.2690 N   0  0  0  0  0  0  0  0  0  0  0  0
   41.0780   32.8320   40.0700 C   0  0  0  0  0  0  0  0  0  0  0  0
   40.3460   31.7020   39.9560 N   0  0  0  0  0  0  0  0  0  0  0  0
   38.5910   35.0670   40.5260 H   0  0  0  0  0  0  0  0  0  0  0  0
   42.1520   32.8540   40.0110 H   0  0  0  0  0  0  0  0  0  0  0  0
   38.1990   29.9440   41.2030 C   0  0  0  0  0  0  0  0  0  0  0  0
   38.6440   30.6970   42.1250 O   0  0  0  0  0  0  0  0  0  0  0  0
   38.3820   30.5200   39.9090 N   0  0  0  0  0  0  0  0  0  0  0  0
   38.0860   30.0240   39.0530 H   0  0  0  0  0  0  0  0  0  0  0  0
   37.5940   28.6950   41.3650 O   0  0  0  0  0  0  0  0  0  0  0  0
   37.9730   27.8830   42.4790 C   0  0  0  0  0  3  0  0  0  0  0  0
   37.0810   26.6670   42.6570 C   0  0  0  0  0  2  0  0  0  0  0  0
   37.1320   27.7540   43.6790 C   0  0  0  0  0  2  0  0  0  0  0  0
   36.9270   32.9370   40.3250 N   0  0  0  0  0  0  0  0  0  0  0  0
   36.6470   33.4340   41.2000 H   0  0  0  0  0  0  0  0  0  0  0  0
   36.2740   32.4860   39.6500 H   0  0  0  0  0  0  0  0  0  0  0  0
  1  2  1  0  0  0  0
  2 17  1  0  0  0  0
  2  3  2  0  0  0  0
  3  7  1  0  0  0  0
  4  3  1  0  0  0  0
  5  4  2  0  0  0  0
  6  1  2  0  0  0  0
  6  5  1  0  0  0  0
  8  5  1  0  0  0  0
  9 13  1  0  0  0  0
  9 10  2  0  0  0  0
 11  1  1  0  0  0  0
 11  9  1  0  0  0  0
 12 11  1  0  0  0  0
 13 14  1  0  0  0  0
 14 15  1  0  0  0  0
 14 16  1  0  0  0  0
 15 16  1  0  0  0  0
 17 18  1  0  0  0  0
 19 17  1  0  0  0  0
M  END
>  <minimizedAffinity>
-4.08551502

$$$$

 OpenBabel03252501363D

 19 20  0  0  0  0  0  0  0  0999 V2000
   41.8530   32.4340   37.0850 C   0  0  0  0  0  0  0  0  0  0  0  0
   42.6260   31.3380   36.7850 C   0  0  0  0  0  0  0  0  0  0  0  0
   43.9910   31.5150   36.9080 C   0  0  0  0  0  0  0  0  0  0  0  0
   44.4490   32.7220   37.3030 N   0  0  0  0  0  0  0  0  0  0  0  0
   43.6600   33.7640   37.5860 C   0  0  0  0  0  0  0  0  0  0  0  0
   42.3200   33.6310   37.4770 N   0  0  0  0  0  0  0  0  0  0  0  0
   44.6090   30.6570   36.6730 H   0  0  0  0  0  0  0  0  0  0  0  0
   44.1450   34.6750   37.8910 H   0  0  0  0  0  0  0  0  0  0  0  0
   39.8610   31.9840   38.2490 C   0  0  0  0  0  0  0  0  0  0  0  0
   40.7720   31.6390   39.0640 O   0  0  0  0  0  0  0  0  0  0  0  0
   40.4000   32.4650   37.0170 N   0  0  0  0  0  0  0  0  0  0  0  0
   39.7860   32.7700   36.2440 H   0  0  0  0  0  0  0  0  0  0  0  0
   38.4820   31.9250   38.4660 O   0  0  0  0  0  0  0  0  0  0  0  0
   37.9420   32.5200   39.6490 C   0  0  0  0  0  3  0  0  0  0  0  0
   37.0690   33.7280   39.3590 C   0  0  0  0  0  2  0  0  0  0  0  0
   38.3520   33.8540   40.1130 C   0  0  0  0  0  2  0  0  0  0  0  0
   41.9590   30.1620   36.3880 N   0  0  0  0  0  0  0  0  0  0  0  0
   42.4030   29.8490   35.4960 H   0  0  0  0  0  0  0  0  0  0  0  0
   41.1730   29.6800   36.8740 H   0  0  0  0  0  0  0  0  0  0  0  0
  1  6  1  0  0  0  0
  2  3  1  0  0  0  0
  2  1  2  0  0  0  0
  3  4  2  0  0  0  0
  4  5  1  0  0  0  0
  5  8  1  0  0  0  0
  6  5  2  0  0  0  0
  7  3  1  0  0  0  0
  9 13  1  0  0  0  0
  9 10  2  0  0  0  0
 11  1  1  0  0  0  0
 11  9  1  0  0  0  0
 12 11  1  0  0  0  0
 13 14  1  0  0  0  0
 14 16  1  0  0  0  0
 15 14  1  0  0  0  0
 15 16  1  0  0  0  0
 17  2  1  0  0  0  0
 17 19  1  0  0  0  0
 18 17  1  0  0  0  0
M  END
>  <minimizedAffinity>
-4.02654886

$$$$

 OpenBabel03252501363D

 19 20  0  0  0  0  0  0  0  0999 V2000
   39.3810   31.4080   38.9930 C   0  0  0  0  0  0  0  0  0  0  0  0
   40.0300   32.3460   38.2260 C   0  0  0  0  0  0  0  0  0  0  0  0
   40.8060   33.2560   38.9190 C   0  0  0  0  0  0  0  0  0  0  0  0
   40.8650   33.1560   40.2650 N   0  0  0  0  0  0  0  0  0  0  0  0
   40.2160   32.2250   40.9730 C   0  0  0  0  0  0  0  0  0  0  0  0
   39.4480   31.3190   40.3320 N   0  0  0  0  0  0  0  0  0  0  0  0
   41.3210   33.9990   38.3230 H   0  0  0  0  0  0  0  0  0  0  0  0
   40.3440   32.2490   42.0420 H   0  0  0  0  0  0  0  0  0  0  0  0
   37.1890   30.8820   38.3270 C   0  0  0  0  0  0  0  0  0  0  0  0
   37.1080   32.0910   38.7100 O   0  0  0  0  0  0  0  0  0  0  0  0
   38.5130   30.3660   38.4670 N   0  0  0  0  0  0  0  0  0  0  0  0
   38.7400   29.3910   38.2130 H   0  0  0  0  0  0  0  0  0  0  0  0
   36.1510   30.0970   37.8200 O   0  0  0  0  0  0  0  0  0  0  0  0
   35.6670   29.0020   38.6030 C   0  0  0  0  0  3  0  0  0  0  0  0
   34.1610   28.8320   38.5170 C   0  0  0  0  0  2  0  0  0  0  0  0
   34.8340   29.2000   39.7990 C   0  0  0  0  0  2  0  0  0  0  0  0
   39.8410   32.2870   36.8310 N   0  0  0  0  0  0  0  0  0  0  0  0
   39.5620   33.2440   36.5230 H   0  0  0  0  0  0  0  0  0  0  0  0
   39.9530   31.4590   36.2080 H   0  0  0  0  0  0  0  0  0  0  0  0
  1  6  1  0  0  0  0
  2  3  1  0  0  0  0
  2  1  2  0  0  0  0
  3  4  2  0  0  0  0
  4  5  1  0  0  0  0
  5  8  1  0  0  0  0
  6  5  2  0  0  0  0
  7  3  1  0  0  0  0
  9 11  1  0  0  0  0
  9 10  2  0  0  0  0
 11  1  1  0  0  0  0
 12 11  1  0  0  0  0
 13  9  1  0  0  0  0
 13 14  1  0  0  0  0
 14 16  1  0  0  0  0
 15 14  1  0  0  0  0
 15 16  1  0  0  0  0
 17  2  1  0  0  0  0
 18 17  1  0  0  0  0
 19 17  1  0  0  0  0
M  END
>  <minimizedAffinity>
-3.8568604

$$$$

 OpenBabel03252501363D

 19 20  0  0  0  0  0  0  0  0999 V2000
   38.4200   28.9050   42.8710 C   0  0  0  0  0  0  0  0  0  0  0  0
   37.8150   27.7630   43.3380 C   0  0  0  0  0  0  0  0  0  0  0  0
   38.6650   26.7250   43.6670 C   0  0  0  0  0  0  0  0  0  0  0  0
   39.9940   26.9080   43.5080 N   0  0  0  0  0  0  0  0  0  0  0  0
   40.5420   28.0380   43.0500 C   0  0  0  0  0  0  0  0  0  0  0  0
   39.7440   29.0760   42.7170 N   0  0  0  0  0  0  0  0  0  0  0  0
   38.1970   25.8200   44.0350 H   0  0  0  0  0  0  0  0  0  0  0  0
   41.6150   28.0620   42.9680 H   0  0  0  0  0  0  0  0  0  0  0  0
   37.3210   29.9870   41.0970 C   0  0  0  0  0  0  0  0  0  0  0  0
   37.7020   28.8850   40.5910 O   0  0  0  0  0  0  0  0  0  0  0  0
   37.7130   30.1100   42.4650 N   0  0  0  0  0  0  0  0  0  0  0  0
   37.4910   30.9560   43.0140 H   0  0  0  0  0  0  0  0  0  0  0  0
   36.6040   30.9970   40.4510 O   0  0  0  0  0  0  0  0  0  0  0  0
   37.2240   32.2710   40.2590 C   0  0  0  0  0  3  0  0  0  0  0  0
   37.1660   32.7480   38.8180 C   0  0  0  0  0  2  0  0  0  0  0  0
   38.4650   32.4320   39.4850 C   0  0  0  0  0  2  0  0  0  0  0  0
   36.4080   27.7660   43.4320 N   0  0  0  0  0  0  0  0  0  0  0  0
   36.0710   26.9090   42.9400 H   0  0  0  0  0  0  0  0  0  0  0  0
   35.8030   28.4750   43.8970 H   0  0  0  0  0  0  0  0  0  0  0  0
  1  2  1  0  0  0  0
  2 17  1  0  0  0  0
  2  3  2  0  0  0  0
  3  7  1  0  0  0  0
  4  3  1  0  0  0  0
  5  4  2  0  0  0  0
  6  1  2  0  0  0  0
  6  5  1  0  0  0  0
  8  5  1  0  0  0  0
  9 11  1  0  0  0  0
 10  9  2  0  0  0  0
 11  1  1  0  0  0  0
 11 12  1  0  0  0  0
 13  9  1  0  0  0  0
 14 13  1  0  0  0  0
 15 16  1  0  0  0  0
 15 14  1  0  0  0  0
 16 14  1  0  0  0  0
 17 19  1  0  0  0  0
 18 17  1  0  0  0  0
M  END
>  <minimizedAffinity>
-3.77392292

$$$$

 OpenBabel03252501363D

 19 20  0  0  0  0  0  0  0  0999 V2000
   36.6930   27.7680   41.0780 C   0  0  0  0  0  0  0  0  0  0  0  0
   36.7780   27.1450   42.3000 C   0  0  0  0  0  0  0  0  0  0  0  0
   37.3540   25.8890   42.2960 C   0  0  0  0  0  0  0  0  0  0  0  0
   37.7780   25.3820   41.1180 N   0  0  0  0  0  0  0  0  0  0  0  0
   37.6770   26.0230   39.9490 C   0  0  0  0  0  0  0  0  0  0  0  0
   37.1190   27.2530   39.9130 N   0  0  0  0  0  0  0  0  0  0  0  0
   37.4240   25.3900   43.2540 H   0  0  0  0  0  0  0  0  0  0  0  0
   38.0520   25.5140   39.0790 H   0  0  0  0  0  0  0  0  0  0  0  0
   37.1270   30.0780   41.0680 C   0  0  0  0  0  0  0  0  0  0  0  0
   38.2390   29.5630   41.4040 O   0  0  0  0  0  0  0  0  0  0  0  0
   36.1200   29.0870   40.8600 N   0  0  0  0  0  0  0  0  0  0  0  0
   35.1560   29.3470   40.5960 H   0  0  0  0  0  0  0  0  0  0  0  0
   36.8550   31.4380   40.9040 O   0  0  0  0  0  0  0  0  0  0  0  0
   37.8030   32.2550   40.2130 C   0  0  0  0  0  3  0  0  0  0  0  0
   37.1580   33.4020   39.4550 C   0  0  0  0  0  2  0  0  0  0  0  0
   37.8770   32.3030   38.7450 C   0  0  0  0  0  2  0  0  0  0  0  0
   36.2760   27.8400   43.4200 N   0  0  0  0  0  0  0  0  0  0  0  0
   35.6260   27.1890   43.9130 H   0  0  0  0  0  0  0  0  0  0  0  0
   36.4970   28.8140   43.7160 H   0  0  0  0  0  0  0  0  0  0  0  0
  1  2  1  0  0  0  0
  2 17  1  0  0  0  0
  3  2  2  0  0  0  0
  3  7  1  0  0  0  0
  4  3  1  0  0  0  0
  5  4  2  0  0  0  0
  6  5  1  0  0  0  0
  6  1  2  0  0  0  0
  8  5  1  0  0  0  0
  9 10  2  0  0  0  0
 11  9  1  0  0  0  0
 11  1  1  0  0  0  0
 12 11  1  0  0  0  0
 13  9  1  0  0  0  0
 14 13  1  0  0  0  0
 15 14  1  0  0  0  0
 16 15  1  0  0  0  0
 16 14  1  0  0  0  0
 17 19  1  0  0  0  0
 17 18  1  0  0  0  0
M  END
>  <minimizedAffinity>
-3.75732207

$$$$
