
 OpenBabel03252500483D

 22 24  0  0  0  0  0  0  0  0999 V2000
   45.1390   34.5910   44.6560 C   0  0  0  0  0  0  0  0  0  0  0  0
   45.1640   33.8120   43.5080 C   0  0  0  0  0  0  0  0  0  0  0  0
   45.5000   32.4640   43.5660 C   0  0  0  0  0  0  0  0  0  0  0  0
   45.8010   31.9600   44.8100 N   0  0  0  0  0  0  0  0  0  0  0  0
   45.7770   32.7080   45.9080 C   0  0  0  0  0  0  0  0  0  0  0  0
   45.4480   34.0100   45.8230 N   0  0  0  0  0  0  0  0  0  0  0  0
   44.8880   35.6260   44.6640 H   0  0  0  0  0  0  0  0  0  0  0  0
   45.5230   31.8530   42.6920 H   0  0  0  0  0  0  0  0  0  0  0  0
   46.1010   32.1430   47.2030 C   0  0  0  0  0  0  0  0  0  0  0  0
   47.3730   31.8520   47.5770 C   0  0  0  0  0  0  0  0  0  0  0  0
   47.7470   31.3200   48.7770 C   0  0  0  0  0  0  0  0  0  0  0  0
   46.7230   31.0790   49.6430 N   0  0  0  0  0  0  0  0  0  0  0  0
   45.4610   31.3620   49.2880 C   0  0  0  0  0  0  0  0  0  0  0  0
   45.0960   31.8900   48.0930 N   0  0  0  0  0  0  0  0  0  0  0  0
   48.1400   32.0760   46.8240 H   0  0  0  0  0  0  0  0  0  0  0  0
   48.8040   31.1420   48.9330 H   0  0  0  0  0  0  0  0  0  0  0  0
   44.7170   31.1270   50.0620 H   0  0  0  0  0  0  0  0  0  0  0  0
   44.8270   34.4400   42.2340 C   0  0  0  0  0  0  0  0  0  0  0  0
   43.6300   34.4160   41.8760 O   0  0  0  0  0  0  0  0  0  0  0  0
   45.9140   35.0640   41.4510 C   0  0  0  0  0  0  0  0  0  0  0  0
   47.3210   34.9740   42.0010 C   0  0  0  0  0  0  0  0  0  0  0  0
   46.9000   34.2240   40.7190 C   0  0  0  0  0  0  0  0  0  0  0  0
  1  7  1  0  0  0  0
  1  6  1  0  0  0  0
  2  3  1  0  0  0  0
  2  1  2  0  0  0  0
  3  4  2  0  0  0  0
  4  5  1  0  0  0  0
  5  9  1  0  0  0  0
  6  5  2  0  0  0  0
  8  3  1  0  0  0  0
  9 10  2  0  0  0  0
  9 14  1  0  0  0  0
 10 11  1  0  0  0  0
 11 16  1  0  0  0  0
 11 12  2  0  0  0  0
 13 12  1  0  0  0  0
 13 17  1  0  0  0  0
 14 13  2  0  0  0  0
 15 10  1  0  0  0  0
 18  2  1  0  0  0  0
 19 18  2  0  0  0  0
 20 21  1  0  0  0  0
 20 18  1  0  0  0  0
 22 20  1  0  0  0  0
 22 21  1  0  0  0  0
M  END
>  <minimizedAffinity>
-4.30402756

>  <minimizedRMSD>
1.99463701

$$$$
