
 OpenBabel03252507153D

 23 25  0  0  0  0  0  0  0  0999 V2000
   44.9060   36.0220   43.4140 C   0  0  0  0  0  0  0  0  0  0  0  0
   45.5710   34.8250   43.0530 C   0  0  0  0  0  0  0  0  0  0  0  0
   45.7680   33.8820   44.0360 C   0  0  0  0  0  0  0  0  0  0  0  0
   45.3320   34.1170   45.2880 N   0  0  0  0  0  0  0  0  0  0  0  0
   44.6920   35.2810   45.6210 C   0  0  0  0  0  0  0  0  0  0  0  0
   44.4990   36.1980   44.6720 N   0  0  0  0  0  0  0  0  0  0  0  0
   44.7250   36.8020   42.6760 H   0  0  0  0  0  0  0  0  0  0  0  0
   44.4040   35.3190   46.6710 H   0  0  0  0  0  0  0  0  0  0  0  0
   46.4500   32.6450   43.6780 C   0  0  0  0  0  0  0  0  0  0  0  0
   45.7190   31.5020   43.4170 C   0  0  0  0  0  0  0  0  0  0  0  0
   46.3920   30.3500   43.0830 C   0  0  0  0  0  0  0  0  0  0  0  0
   47.7840   30.2760   42.9920 C   0  0  0  0  0  0  0  0  0  0  0  0
   48.4570   31.4470   43.2640 C   0  0  0  0  0  0  0  0  0  0  0  0
   47.7910   32.5750   43.5930 N   0  0  0  0  0  0  0  0  0  0  0  0
   44.6400   31.5170   43.4750 H   0  0  0  0  0  0  0  0  0  0  0  0
   45.8150   29.4560   42.8780 H   0  0  0  0  0  0  0  0  0  0  0  0
   48.3140   29.3690   42.7290 H   0  0  0  0  0  0  0  0  0  0  0  0
   49.5480   31.4180   43.2020 H   0  0  0  0  0  0  0  0  0  0  0  0
   46.0070   34.6380   41.7040 C   0  0  0  0  0  0  0  0  0  0  0  0
   47.2350   34.8140   41.4570 O   0  0  0  0  0  0  0  0  0  0  0  0
   45.0930   34.2520   40.6020 C   0  0  0  0  0  3  0  0  0  0  0  0
   45.5890   33.2720   39.5750 C   0  0  0  0  0  2  0  0  0  0  0  0
   44.5800   32.8190   40.5370 C   0  0  0  0  0  2  0  0  0  0  0  0
  1  6  1  0  0  0  0
  2  1  2  0  0  0  0
  2  3  1  0  0  0  0
  3  4  2  0  0  0  0
  4  5  1  0  0  0  0
  5  8  1  0  0  0  0
  6  5  2  0  0  0  0
  7  1  1  0  0  0  0
  9  3  1  0  0  0  0
 10 15  1  0  0  0  0
 10  9  2  0  0  0  0
 11 10  1  0  0  0  0
 12 11  2  0  0  0  0
 12 13  1  0  0  0  0
 13 14  2  0  0  0  0
 14  9  1  0  0  0  0
 16 11  1  0  0  0  0
 17 12  1  0  0  0  0
 18 13  1  0  0  0  0
 19  2  1  0  0  0  0
 20 19  2  0  0  0  0
 21 19  1  0  0  0  0
 22 23  1  0  0  0  0
 22 21  1  0  0  0  0
 23 21  1  0  0  0  0
M  END
>  <minimizedAffinity>
-3.847579

>  <minimizedRMSD>
0.484747678

$$$$
