
 OpenBabel03252508273D

 19 21  0  0  0  0  0  0  0  0999 V2000
   37.1940   30.6430   40.9480 C   0  0  0  0  0  0  0  0  0  0  0  0
   36.0870   30.1120   40.3420 C   0  0  0  0  0  0  0  0  0  0  0  0
   35.7340   28.9180   40.9270 C   0  0  0  0  0  0  0  0  0  0  0  0
   36.6450   28.7340   41.8970 N   0  0  0  0  0  0  0  0  0  0  0  0
   37.5140   29.7440   41.9220 N   0  0  0  0  0  0  0  0  0  0  0  0
   35.5140   30.5290   39.5030 H   0  0  0  0  0  0  0  0  0  0  0  0
   34.9030   28.2450   40.6800 H   0  0  0  0  0  0  0  0  0  0  0  0
   38.0020   34.1080   39.7330 C   0  0  0  0  0  0  0  0  0  0  0  0
   37.2210   32.9480   39.9980 C   0  0  0  0  0  0  0  0  0  0  0  0
   37.8680   31.8920   40.6170 C   0  0  0  0  0  0  0  0  0  0  0  0
   39.1870   32.0090   40.9380 N   0  0  0  0  0  0  0  0  0  0  0  0
   39.9060   33.1170   40.6770 C   0  0  0  0  0  0  0  0  0  0  0  0
   39.3000   34.1580   40.0740 N   0  0  0  0  0  0  0  0  0  0  0  0
   37.4070   34.8710   39.2470 H   0  0  0  0  0  0  0  0  0  0  0  0
   36.1940   32.8210   39.7640 H   0  0  0  0  0  0  0  0  0  0  0  0
   40.9520   33.2070   40.9330 H   0  0  0  0  0  0  0  0  0  0  0  0
   36.6450   27.5650   42.7850 C   0  0  0  0  0  3  0  0  0  0  0  0
   37.1930   26.2820   42.2700 C   0  0  0  0  0  2  0  0  0  0  0  0
   37.9890   27.0830   43.2930 C   0  0  0  0  0  2  0  0  0  0  0  0
  1  5  2  0  0  0  0
  2  3  2  0  0  0  0
  2  1  1  0  0  0  0
  3  4  1  0  0  0  0
  4  5  1  0  0  0  0
  4 17  1  0  0  0  0
  6  2  1  0  0  0  0
  7  3  1  0  0  0  0
  8  9  2  0  0  0  0
  8 13  1  0  0  0  0
  9 10  1  0  0  0  0
 10 11  2  0  0  0  0
 10  1  1  0  0  0  0
 12 16  1  0  0  0  0
 12 11  1  0  0  0  0
 13 12  2  0  0  0  0
 14  8  1  0  0  0  0
 15  9  1  0  0  0  0
 17 19  1  0  0  0  0
 18 17  1  0  0  0  0
 18 19  1  0  0  0  0
M  END
>  <minimizedAffinity>
-4.28765202

$$$$

 OpenBabel03252508273D

 19 21  0  0  0  0  0  0  0  0999 V2000
   38.8770   30.7260   41.4430 C   0  0  0  0  0  0  0  0  0  0  0  0
   39.3000   30.3250   42.6810 C   0  0  0  0  0  0  0  0  0  0  0  0
   38.5480   29.2680   43.1380 C   0  0  0  0  0  0  0  0  0  0  0  0
   37.6610   29.0360   42.1560 N   0  0  0  0  0  0  0  0  0  0  0  0
   37.8430   29.8890   41.1480 N   0  0  0  0  0  0  0  0  0  0  0  0
   40.1200   30.7440   43.2810 H   0  0  0  0  0  0  0  0  0  0  0  0
   38.6290   28.7180   44.0840 H   0  0  0  0  0  0  0  0  0  0  0  0
   40.6870   32.7310   38.8280 C   0  0  0  0  0  0  0  0  0  0  0  0
   40.2250   31.5810   39.5270 C   0  0  0  0  0  0  0  0  0  0  0  0
   39.4210   31.8080   40.6320 C   0  0  0  0  0  0  0  0  0  0  0  0
   39.1160   33.0870   40.9880 N   0  0  0  0  0  0  0  0  0  0  0  0
   39.5650   34.1600   40.3090 C   0  0  0  0  0  0  0  0  0  0  0  0
   40.3490   33.9660   39.2320 N   0  0  0  0  0  0  0  0  0  0  0  0
   41.3060   32.4480   37.9860 H   0  0  0  0  0  0  0  0  0  0  0  0
   40.4400   30.5720   39.2810 H   0  0  0  0  0  0  0  0  0  0  0  0
   39.3200   35.1740   40.5940 H   0  0  0  0  0  0  0  0  0  0  0  0
   36.6470   27.9760   42.2260 C   0  0  0  0  0  3  0  0  0  0  0  0
   37.0960   26.5790   42.4670 C   0  0  0  0  0  2  0  0  0  0  0  0
   36.3970   27.3470   43.5820 C   0  0  0  0  0  2  0  0  0  0  0  0
  1  2  1  0  0  0  0
  2  3  2  0  0  0  0
  2  6  1  0  0  0  0
  3  7  1  0  0  0  0
  4 17  1  0  0  0  0
  4  3  1  0  0  0  0
  5  1  2  0  0  0  0
  5  4  1  0  0  0  0
  8 13  2  0  0  0  0
  8  9  1  0  0  0  0
  9 10  2  0  0  0  0
 10 11  1  0  0  0  0
 10  1  1  0  0  0  0
 12 16  1  0  0  0  0
 12 11  2  0  0  0  0
 13 12  1  0  0  0  0
 14  8  1  0  0  0  0
 15  9  1  0  0  0  0
 17 18  1  0  0  0  0
 17 19  1  0  0  0  0
 18 19  1  0  0  0  0
M  END
>  <minimizedAffinity>
-4.15181065

$$$$

 OpenBabel03252508273D

 19 21  0  0  0  0  0  0  0  0999 V2000
   37.7270   29.2190   42.0660 C   0  0  0  0  0  0  0  0  0  0  0  0
   38.0570   28.9280   43.3630 C   0  0  0  0  0  0  0  0  0  0  0  0
   37.8280   27.6010   43.6410 C   0  0  0  0  0  0  0  0  0  0  0  0
   37.3530   27.0920   42.4920 N   0  0  0  0  0  0  0  0  0  0  0  0
   37.2870   28.0350   41.5530 N   0  0  0  0  0  0  0  0  0  0  0  0
   38.4560   29.6120   44.1250 H   0  0  0  0  0  0  0  0  0  0  0  0
   37.9870   27.0530   44.5790 H   0  0  0  0  0  0  0  0  0  0  0  0
   37.0440   32.3010   40.0250 C   0  0  0  0  0  0  0  0  0  0  0  0
   36.8080   31.0310   40.6200 C   0  0  0  0  0  0  0  0  0  0  0  0
   37.8290   30.5090   41.3970 C   0  0  0  0  0  0  0  0  0  0  0  0
   38.9820   31.2190   41.5530 N   0  0  0  0  0  0  0  0  0  0  0  0
   39.1820   32.4210   40.9790 C   0  0  0  0  0  0  0  0  0  0  0  0
   38.2040   32.9490   40.2180 N   0  0  0  0  0  0  0  0  0  0  0  0
   36.1900   32.6170   39.4390 H   0  0  0  0  0  0  0  0  0  0  0  0
   35.9260   30.4500   40.5220 H   0  0  0  0  0  0  0  0  0  0  0  0
   40.0970   32.9820   41.1060 H   0  0  0  0  0  0  0  0  0  0  0  0
   36.9700   25.6830   42.3380 C   0  0  0  0  0  3  0  0  0  0  0  0
   37.0580   25.0670   40.9870 C   0  0  0  0  0  2  0  0  0  0  0  0
   38.0810   24.6920   42.0530 C   0  0  0  0  0  2  0  0  0  0  0  0
  1  2  1  0  0  0  0
  2  3  2  0  0  0  0
  2  6  1  0  0  0  0
  3  7  1  0  0  0  0
  4  3  1  0  0  0  0
  5  1  2  0  0  0  0
  5  4  1  0  0  0  0
  8 13  2  0  0  0  0
  8  9  1  0  0  0  0
  9 10  2  0  0  0  0
 10 11  1  0  0  0  0
 10  1  1  0  0  0  0
 12 16  1  0  0  0  0
 12 11  2  0  0  0  0
 13 12  1  0  0  0  0
 14  8  1  0  0  0  0
 15  9  1  0  0  0  0
 17  4  1  0  0  0  0
 18 19  1  0  0  0  0
 18 17  1  0  0  0  0
 19 17  1  0  0  0  0
M  END
>  <minimizedAffinity>
-4.1247468

$$$$

 OpenBabel03252508273D

 19 21  0  0  0  0  0  0  0  0999 V2000
   37.0010   28.3740   41.3890 C   0  0  0  0  0  0  0  0  0  0  0  0
   37.1220   28.3610   42.7520 C   0  0  0  0  0  0  0  0  0  0  0  0
   37.1160   27.0730   43.2330 C   0  0  0  0  0  0  0  0  0  0  0  0
   36.9890   26.3040   42.1380 N   0  0  0  0  0  0  0  0  0  0  0  0
   36.9200   27.0580   41.0420 N   0  0  0  0  0  0  0  0  0  0  0  0
   37.2160   29.2230   43.4270 H   0  0  0  0  0  0  0  0  0  0  0  0
   37.1950   26.7200   44.2700 H   0  0  0  0  0  0  0  0  0  0  0  0
   36.7430   30.6660   38.4200 C   0  0  0  0  0  0  0  0  0  0  0  0
   36.7470   29.4460   39.1520 C   0  0  0  0  0  0  0  0  0  0  0  0
   36.9690   29.5400   40.5160 C   0  0  0  0  0  0  0  0  0  0  0  0
   37.1670   30.7640   41.0800 N   0  0  0  0  0  0  0  0  0  0  0  0
   37.1580   31.9060   40.3660 C   0  0  0  0  0  0  0  0  0  0  0  0
   36.9450   31.8410   39.0370 N   0  0  0  0  0  0  0  0  0  0  0  0
   36.5640   30.4850   37.3680 H   0  0  0  0  0  0  0  0  0  0  0  0
   36.5970   28.4760   38.7490 H   0  0  0  0  0  0  0  0  0  0  0  0
   37.3140   32.8770   40.8170 H   0  0  0  0  0  0  0  0  0  0  0  0
   36.9380   24.8370   42.1910 C   0  0  0  0  0  3  0  0  0  0  0  0
   36.6040   24.0940   40.9470 C   0  0  0  0  0  2  0  0  0  0  0  0
   38.0350   24.0810   41.4700 C   0  0  0  0  0  2  0  0  0  0  0  0
  1  2  1  0  0  0  0
  2  3  2  0  0  0  0
  2  6  1  0  0  0  0
  3  7  1  0  0  0  0
  4 17  1  0  0  0  0
  4  3  1  0  0  0  0
  5  1  2  0  0  0  0
  5  4  1  0  0  0  0
  8 13  2  0  0  0  0
  8  9  1  0  0  0  0
  9 10  2  0  0  0  0
 10 11  1  0  0  0  0
 10  1  1  0  0  0  0
 12 16  1  0  0  0  0
 12 11  2  0  0  0  0
 13 12  1  0  0  0  0
 14  8  1  0  0  0  0
 15  9  1  0  0  0  0
 18 19  1  0  0  0  0
 18 17  1  0  0  0  0
 19 17  1  0  0  0  0
M  END
>  <minimizedAffinity>
-4.00329924

$$$$

 OpenBabel03252508273D

 19 21  0  0  0  0  0  0  0  0999 V2000
   36.7950   28.4070   40.8640 C   0  0  0  0  0  0  0  0  0  0  0  0
   35.6820   29.2020   40.8350 C   0  0  0  0  0  0  0  0  0  0  0  0
   36.0290   30.5270   40.7160 C   0  0  0  0  0  0  0  0  0  0  0  0
   37.3720   30.5230   40.6720 N   0  0  0  0  0  0  0  0  0  0  0  0
   37.8390   29.2780   40.7590 N   0  0  0  0  0  0  0  0  0  0  0  0
   34.6300   28.8890   40.8940 H   0  0  0  0  0  0  0  0  0  0  0  0
   35.3800   31.4110   40.6640 H   0  0  0  0  0  0  0  0  0  0  0  0
   37.2050   24.8870   42.1210 C   0  0  0  0  0  0  0  0  0  0  0  0
   37.2030   26.3100   42.1500 C   0  0  0  0  0  0  0  0  0  0  0  0
   36.8410   26.9550   40.9790 C   0  0  0  0  0  0  0  0  0  0  0  0
   36.5110   26.2170   39.8820 N   0  0  0  0  0  0  0  0  0  0  0  0
   36.5200   24.8700   39.8790 C   0  0  0  0  0  0  0  0  0  0  0  0
   36.8690   24.2200   41.0050 N   0  0  0  0  0  0  0  0  0  0  0  0
   37.5020   24.4820   43.0800 H   0  0  0  0  0  0  0  0  0  0  0  0
   37.4520   26.9170   42.9840 H   0  0  0  0  0  0  0  0  0  0  0  0
   36.2570   24.2880   39.0070 H   0  0  0  0  0  0  0  0  0  0  0  0
   38.1740   31.7460   40.5470 C   0  0  0  0  0  3  0  0  0  0  0  0
   38.5740   32.1960   39.1870 C   0  0  0  0  0  2  0  0  0  0  0  0
   37.4940   32.9590   39.9440 C   0  0  0  0  0  2  0  0  0  0  0  0
  1 10  1  0  0  0  0
  2  1  1  0  0  0  0
  2  6  1  0  0  0  0
  3  2  2  0  0  0  0
  4  3  1  0  0  0  0
  4  5  1  0  0  0  0
  5  1  2  0  0  0  0
  7  3  1  0  0  0  0
  8  9  1  0  0  0  0
  8 14  1  0  0  0  0
  9 15  1  0  0  0  0
 10  9  2  0  0  0  0
 11 10  1  0  0  0  0
 12 11  2  0  0  0  0
 12 13  1  0  0  0  0
 13  8  2  0  0  0  0
 16 12  1  0  0  0  0
 17  4  1  0  0  0  0
 18 19  1  0  0  0  0
 18 17  1  0  0  0  0
 19 17  1  0  0  0  0
M  END
>  <minimizedAffinity>
-3.86290097

$$$$

 OpenBabel03252508273D

 19 21  0  0  0  0  0  0  0  0999 V2000
   37.4630   27.2810   41.7320 C   0  0  0  0  0  0  0  0  0  0  0  0
   37.8450   27.9880   42.8410 C   0  0  0  0  0  0  0  0  0  0  0  0
   37.4750   29.3080   42.7310 C   0  0  0  0  0  0  0  0  0  0  0  0
   36.8630   29.3910   41.5390 N   0  0  0  0  0  0  0  0  0  0  0  0
   36.8480   28.2020   40.9370 N   0  0  0  0  0  0  0  0  0  0  0  0
   38.3740   27.6140   43.7280 H   0  0  0  0  0  0  0  0  0  0  0  0
   37.6300   30.1320   43.4410 H   0  0  0  0  0  0  0  0  0  0  0  0
   38.9060   23.8170   41.5170 C   0  0  0  0  0  0  0  0  0  0  0  0
   38.8360   25.2020   41.8310 C   0  0  0  0  0  0  0  0  0  0  0  0
   37.6720   25.8630   41.4750 C   0  0  0  0  0  0  0  0  0  0  0  0
   36.6720   25.1730   40.8580 N   0  0  0  0  0  0  0  0  0  0  0  0
   36.7610   23.8590   40.5710 C   0  0  0  0  0  0  0  0  0  0  0  0
   37.8840   23.1950   40.9070 N   0  0  0  0  0  0  0  0  0  0  0  0
   39.8520   23.3960   41.8340 H   0  0  0  0  0  0  0  0  0  0  0  0
   39.5920   25.7730   42.3100 H   0  0  0  0  0  0  0  0  0  0  0  0
   35.9650   23.3150   40.0820 H   0  0  0  0  0  0  0  0  0  0  0  0
   36.3010   30.6400   41.0100 C   0  0  0  0  0  3  0  0  0  0  0  0
   37.2370   31.7110   40.5740 C   0  0  0  0  0  2  0  0  0  0  0  0
   36.4770   30.9050   39.5280 C   0  0  0  0  0  2  0  0  0  0  0  0
  1  2  1  0  0  0  0
  2  6  1  0  0  0  0
  3  2  2  0  0  0  0
  3  7  1  0  0  0  0
  4  3  1  0  0  0  0
  5  4  1  0  0  0  0
  5  1  2  0  0  0  0
  8  9  1  0  0  0  0
  8 14  1  0  0  0  0
  9 15  1  0  0  0  0
 10  1  1  0  0  0  0
 10  9  2  0  0  0  0
 11 10  1  0  0  0  0
 12 11  2  0  0  0  0
 12 13  1  0  0  0  0
 13  8  2  0  0  0  0
 16 12  1  0  0  0  0
 17  4  1  0  0  0  0
 18 17  1  0  0  0  0
 19 18  1  0  0  0  0
 19 17  1  0  0  0  0
M  END
>  <minimizedAffinity>
-3.82711482

$$$$

 OpenBabel03252508273D

 19 21  0  0  0  0  0  0  0  0999 V2000
   38.2820   31.0740   40.9570 C   0  0  0  0  0  0  0  0  0  0  0  0
   37.7460   31.5470   39.7890 C   0  0  0  0  0  0  0  0  0  0  0  0
   38.3870   32.6950   39.3850 C   0  0  0  0  0  0  0  0  0  0  0  0
   39.3200   32.9110   40.3270 N   0  0  0  0  0  0  0  0  0  0  0  0
   39.2700   31.9620   41.2620 N   0  0  0  0  0  0  0  0  0  0  0  0
   36.9200   31.1170   39.2050 H   0  0  0  0  0  0  0  0  0  0  0  0
   38.2010   33.3170   38.4990 H   0  0  0  0  0  0  0  0  0  0  0  0
   38.0330   28.2790   43.4580 C   0  0  0  0  0  0  0  0  0  0  0  0
   38.5350   29.4560   42.8370 C   0  0  0  0  0  0  0  0  0  0  0  0
   37.8770   29.8860   41.6960 C   0  0  0  0  0  0  0  0  0  0  0  0
   36.8070   29.1800   41.2340 N   0  0  0  0  0  0  0  0  0  0  0  0
   36.3500   28.0670   41.8390 C   0  0  0  0  0  0  0  0  0  0  0  0
   36.9730   27.6290   42.9500 N   0  0  0  0  0  0  0  0  0  0  0  0
   38.6140   28.0270   44.3360 H   0  0  0  0  0  0  0  0  0  0  0  0
   39.3630   30.0310   43.1670 H   0  0  0  0  0  0  0  0  0  0  0  0
   35.5000   27.5100   41.4700 H   0  0  0  0  0  0  0  0  0  0  0  0
   40.2460   34.0490   40.2920 C   0  0  0  0  0  3  0  0  0  0  0  0
   41.6990   33.7880   40.4730 C   0  0  0  0  0  2  0  0  0  0  0  0
   41.1670   34.1540   39.0930 C   0  0  0  0  0  2  0  0  0  0  0  0
  1  5  2  0  0  0  0
  1 10  1  0  0  0  0
  2  1  1  0  0  0  0
  3  2  2  0  0  0  0
  3  4  1  0  0  0  0
  4  5  1  0  0  0  0
  6  2  1  0  0  0  0
  7  3  1  0  0  0  0
  8 14  1  0  0  0  0
  9 15  1  0  0  0  0
  9  8  2  0  0  0  0
 10  9  1  0  0  0  0
 11 10  2  0  0  0  0
 11 12  1  0  0  0  0
 12 13  2  0  0  0  0
 13  8  1  0  0  0  0
 16 12  1  0  0  0  0
 17  4  1  0  0  0  0
 17 18  1  0  0  0  0
 19 17  1  0  0  0  0
 19 18  1  0  0  0  0
M  END
>  <minimizedAffinity>
-3.80550218

$$$$

 OpenBabel03252508273D

 19 21  0  0  0  0  0  0  0  0999 V2000
   36.9560   29.3890   39.4230 C   0  0  0  0  0  0  0  0  0  0  0  0
   36.4560   30.5280   39.9930 C   0  0  0  0  0  0  0  0  0  0  0  0
   36.5360   30.4670   41.3640 C   0  0  0  0  0  0  0  0  0  0  0  0
   37.0930   29.2710   41.6170 N   0  0  0  0  0  0  0  0  0  0  0  0
   37.3470   28.6220   40.4800 N   0  0  0  0  0  0  0  0  0  0  0  0
   36.0350   31.4060   39.4830 H   0  0  0  0  0  0  0  0  0  0  0  0
   36.2250   31.2100   42.1100 H   0  0  0  0  0  0  0  0  0  0  0  0
   36.3100   29.1200   35.7290 C   0  0  0  0  0  0  0  0  0  0  0  0
   36.0970   29.4960   37.0840 C   0  0  0  0  0  0  0  0  0  0  0  0
   37.0460   29.0780   38.0020 C   0  0  0  0  0  0  0  0  0  0  0  0
   38.1130   28.3460   37.5760 N   0  0  0  0  0  0  0  0  0  0  0  0
   38.2940   28.0020   36.2860 C   0  0  0  0  0  0  0  0  0  0  0  0
   37.3840   28.3960   35.3750 N   0  0  0  0  0  0  0  0  0  0  0  0
   35.5150   29.4920   35.0950 H   0  0  0  0  0  0  0  0  0  0  0  0
   35.2800   30.0640   37.4530 H   0  0  0  0  0  0  0  0  0  0  0  0
   39.1430   27.4210   35.9510 H   0  0  0  0  0  0  0  0  0  0  0  0
   37.3680   28.7850   42.9750 C   0  0  0  0  0  3  0  0  0  0  0  0
   36.7110   27.5290   43.4260 C   0  0  0  0  0  2  0  0  0  0  0  0
   38.2010   27.5260   43.1040 C   0  0  0  0  0  2  0  0  0  0  0  0
  1  2  1  0  0  0  0
  1  5  2  0  0  0  0
  2  3  2  0  0  0  0
  3  4  1  0  0  0  0
  3  7  1  0  0  0  0
  4 17  1  0  0  0  0
  5  4  1  0  0  0  0
  6  2  1  0  0  0  0
  8  9  1  0  0  0  0
  9 15  1  0  0  0  0
  9 10  2  0  0  0  0
 10  1  1  0  0  0  0
 11 10  1  0  0  0  0
 12 11  2  0  0  0  0
 13  8  2  0  0  0  0
 13 12  1  0  0  0  0
 14  8  1  0  0  0  0
 16 12  1  0  0  0  0
 17 19  1  0  0  0  0
 17 18  1  0  0  0  0
 19 18  1  0  0  0  0
M  END
>  <minimizedAffinity>
-3.77046132

$$$$

 OpenBabel03252508273D

 19 21  0  0  0  0  0  0  0  0999 V2000
   38.5430   30.6810   40.3580 C   0  0  0  0  0  0  0  0  0  0  0  0
   37.1930   30.9050   40.3870 C   0  0  0  0  0  0  0  0  0  0  0  0
   36.6130   30.2640   41.4560 C   0  0  0  0  0  0  0  0  0  0  0  0
   37.6340   29.6480   42.0760 N   0  0  0  0  0  0  0  0  0  0  0  0
   38.7800   29.8850   41.4390 N   0  0  0  0  0  0  0  0  0  0  0  0
   36.5950   31.5020   39.6850 H   0  0  0  0  0  0  0  0  0  0  0  0
   35.5590   30.2420   41.7620 H   0  0  0  0  0  0  0  0  0  0  0  0
   40.8020   32.8800   38.3100 C   0  0  0  0  0  0  0  0  0  0  0  0
   39.8550   32.5250   39.3100 C   0  0  0  0  0  0  0  0  0  0  0  0
   39.5020   31.1880   39.3840 C   0  0  0  0  0  0  0  0  0  0  0  0
   40.0640   30.2970   38.5200 N   0  0  0  0  0  0  0  0  0  0  0  0
   40.9600   30.6570   37.5810 C   0  0  0  0  0  0  0  0  0  0  0  0
   41.3190   31.9520   37.4880 N   0  0  0  0  0  0  0  0  0  0  0  0
   41.0090   33.9430   38.3330 H   0  0  0  0  0  0  0  0  0  0  0  0
   39.3970   33.1890   39.9990 H   0  0  0  0  0  0  0  0  0  0  0  0
   41.4050   29.9480   36.8970 H   0  0  0  0  0  0  0  0  0  0  0  0
   37.4630   28.8360   43.2870 C   0  0  0  0  0  3  0  0  0  0  0  0
   36.7380   27.5420   43.1780 C   0  0  0  0  0  2  0  0  0  0  0  0
   38.2500   27.5430   43.3690 C   0  0  0  0  0  2  0  0  0  0  0  0
  1  2  1  0  0  0  0
  1  5  2  0  0  0  0
  2  3  2  0  0  0  0
  3  7  1  0  0  0  0
  3  4  1  0  0  0  0
  4 17  1  0  0  0  0
  5  4  1  0  0  0  0
  6  2  1  0  0  0  0
  8 14  1  0  0  0  0
  8  9  1  0  0  0  0
  9 10  2  0  0  0  0
  9 15  1  0  0  0  0
 10  1  1  0  0  0  0
 11 10  1  0  0  0  0
 12 11  2  0  0  0  0
 13 12  1  0  0  0  0
 13  8  2  0  0  0  0
 16 12  1  0  0  0  0
 17 19  1  0  0  0  0
 18 17  1  0  0  0  0
 18 19  1  0  0  0  0
M  END
>  <minimizedAffinity>
-3.75893974

$$$$
