
 OpenBabel03252508143D

 31 34  0  0  1  0  0  0  0  0999 V2000
   47.1450   31.0470   46.7450 C   0  0  0  0  0  0  0  0  0  0  0  0
   46.3970   30.2500   46.5540 H   0  0  0  0  0  0  0  0  0  0  0  0
   48.1750   30.6870   46.7260 H   0  0  0  0  0  0  0  0  0  0  0  0
   46.8050   31.6670   48.0790 C   0  0  1  0  0  0  0  0  0  0  0  0
   46.2120   30.7560   49.0950 C   0  0  0  0  0  0  0  0  0  0  0  0
   47.5600   31.2540   49.2860 C   0  0  1  0  0  0  0  0  0  0  0  0
   46.4780   32.7280   48.0670 H   0  0  0  0  0  0  0  0  0  0  0  0
   46.0460   29.6920   48.8210 H   0  0  0  0  0  0  0  0  0  0  0  0
   45.3660   31.1560   49.7140 H   0  0  0  0  0  0  0  0  0  0  0  0
   47.6620   32.0280   50.1080 H   0  0  0  0  0  0  0  0  0  0  0  0
   48.7990   30.4650   49.0980 C   0  0  0  0  0  0  0  0  0  0  0  0
   49.6340   30.2660   50.3890 C   0  0  0  0  0  0  0  0  0  0  0  0
   50.1260   31.1980   49.3510 C   0  0  0  0  0  0  0  0  0  0  0  0
   48.8280   29.6350   48.3620 H   0  0  0  0  0  0  0  0  0  0  0  0
   49.1740   30.5880   51.3310 H   0  0  0  0  0  0  0  0  0  0  0  0
   50.1480   29.2740   50.4390 H   0  0  0  0  0  0  0  0  0  0  0  0
   50.0190   32.2820   49.6360 H   0  0  0  0  0  0  0  0  0  0  0  0
   50.9810   30.8980   48.7320 H   0  0  0  0  0  0  0  0  0  0  0  0
   46.1760   33.0560   45.9450 C   0  0  0  0  0  3  0  0  0  0  0  0
   46.9120   32.0610   45.6320 C   0  0  0  0  0  3  0  0  0  0  0  0
   44.5910   35.8120   44.0850 C   0  0  0  0  0  0  0  0  0  0  0  0
   45.3780   35.9250   42.9460 C   0  0  0  0  0  0  0  0  0  0  0  0
   46.4490   35.0540   42.8480 C   0  0  0  0  0  0  0  0  0  0  0  0
   46.6570   34.1720   43.8350 N   0  0  0  0  0  0  0  0  0  0  0  0
   45.8930   34.0670   44.9300 C   0  0  0  0  0  0  0  0  0  0  0  0
   44.8670   34.8990   45.0310 N   0  0  0  0  0  0  0  0  0  0  0  0
   43.7510   36.4870   44.1730 H   0  0  0  0  0  0  0  0  0  0  0  0
   45.1890   36.6370   42.1750 H   0  0  0  0  0  0  0  0  0  0  0  0
   47.3480   35.1190   41.6430 C   0  0  0  0  0  3  0  0  0  0  0  0
   48.2190   33.8340   41.4960 C   0  0  0  0  0  2  0  0  0  0  0  0
   47.1460   34.2280   40.4990 C   0  0  0  0  0  2  0  0  0  0  0  0
  1  4  1  0  0  0  0
  2  1  1  0  0  0  0
  3  1  1  0  0  0  0
  4  7  1  6  0  0  0
  4  5  1  0  0  0  0
  4  6  1  0  0  0  0
  5  6  1  0  0  0  0
  5  9  1  0  0  0  0
  6 10  1  1  0  0  0
  8  5  1  0  0  0  0
 11  6  1  0  0  0  0
 11 13  1  0  0  0  0
 11 12  1  0  0  0  0
 12 16  1  0  0  0  0
 12 15  1  0  0  0  0
 13 17  1  0  0  0  0
 13 12  1  0  0  0  0
 14 11  1  0  0  0  0
 18 13  1  0  0  0  0
 20 19  2  0  0  0  0
 20  1  1  0  0  0  0
 21 27  1  0  0  0  0
 21 26  1  0  0  0  0
 22 21  2  0  0  0  0
 23 22  1  0  0  0  0
 23 24  2  0  0  0  0
 24 25  1  0  0  0  0
 25 26  2  0  0  0  0
 25 19  1  0  0  0  0
 28 22  1  0  0  0  0
 29 23  1  0  0  0  0
 30 29  1  0  0  0  0
 31 30  1  0  0  0  0
 31 29  1  0  0  0  0
M  END
>  <minimizedAffinity>
-5.07255125

>  <minimizedRMSD>
0.836256146

$$$$
