
 OpenBabel03242510243D

 32 35  0  0  1  0  0  0  0  0999 V2000
   37.2590   31.0980   37.8520 C   0  0  1  0  0  0  0  0  0  0  0  0
   37.9940   29.9810   37.4310 C   0  0  0  0  0  0  0  0  0  0  0  0
   36.9770   29.8600   38.6100 C   0  0  1  0  0  0  0  0  0  0  0  0
   36.4490   31.5570   37.2450 H   0  0  0  0  0  0  0  0  0  0  0  0
   39.0380   29.6890   37.6550 H   0  0  0  0  0  0  0  0  0  0  0  0
   37.6530   29.4430   36.4940 H   0  0  0  0  0  0  0  0  0  0  0  0
   36.1180   29.2300   38.3430 H   0  0  0  0  0  0  0  0  0  0  0  0
   39.4430   32.2570   38.6820 C   0  0  0  0  0  0  0  0  0  0  0  0
   38.0130   32.1970   38.6230 C   0  0  0  0  0  0  0  0  0  0  0  0
   37.3060   33.1600   39.3130 C   0  0  0  0  0  0  0  0  0  0  0  0
   37.9820   34.1010   40.0040 N   0  0  0  0  0  0  0  0  0  0  0  0
   39.3420   34.1440   40.0520 C   0  0  0  0  0  0  0  0  0  0  0  0
   40.0870   33.1840   39.3640 N   0  0  0  0  0  0  0  0  0  0  0  0
   39.9780   31.5130   38.1220 H   0  0  0  0  0  0  0  0  0  0  0  0
   36.2240   33.1770   39.3110 H   0  0  0  0  0  0  0  0  0  0  0  0
   39.8770   34.9000   40.6080 H   0  0  0  0  0  0  0  0  0  0  0  0
   37.6190   29.7220   39.8680 N   0  0  0  0  0  0  0  0  0  0  0  0
   36.9530   29.8540   41.0810 C   0  0  0  0  0  0  0  0  0  0  0  0
   36.0780   30.6740   41.4560 O   0  0  0  0  0  0  0  0  0  0  0  0
   38.6340   29.5150   40.0070 H   0  0  0  0  0  0  0  0  0  0  0  0
   37.2700   28.8770   42.2040 C   0  0  2  0  0  0  0  0  0  0  0  0
   38.5400   29.2040   43.0710 C   0  0  0  0  0  0  0  0  0  0  0  0
   38.4490   28.0160   42.1560 C   0  0  1  0  0  0  0  0  0  0  0  0
   36.4370   28.6050   42.8840 H   0  0  0  0  0  0  0  0  0  0  0  0
   39.1190   30.0770   42.6960 H   0  0  0  0  0  0  0  0  0  0  0  0
   38.5100   28.9830   44.1320 H   0  0  0  0  0  0  0  0  0  0  0  0
   38.9160   27.9840   41.1440 H   0  0  0  0  0  0  0  0  0  0  0  0
   38.3570   26.6600   42.8100 C   0  0  0  0  0  0  0  0  0  0  0  0
   39.1510   26.3270   43.6800 O   0  0  0  0  0  0  0  0  0  0  0  0
   37.2860   25.6950   42.3990 C   0  0  0  0  0  3  0  0  0  0  0  0
   37.0230   25.4150   40.9730 C   0  0  0  0  0  2  0  0  0  0  0  0
   37.8180   24.4180   41.7810 C   0  0  0  0  0  2  0  0  0  0  0  0
  1  4  1  6  0  0  0
  1  3  1  0  0  0  0
  1  9  1  0  0  0  0
  2  5  1  0  0  0  0
  2  1  1  0  0  0  0
  2  3  1  0  0  0  0
  3  7  1  6  0  0  0
  3 17  1  0  0  0  0
  6  2  1  0  0  0  0
  8 13  1  0  0  0  0
  9  8  2  0  0  0  0
  9 10  1  0  0  0  0
 10 11  2  0  0  0  0
 11 12  1  0  0  0  0
 12 16  1  0  0  0  0
 13 12  2  0  0  0  0
 14  8  1  0  0  0  0
 15 10  1  0  0  0  0
 17 20  1  0  0  0  0
 17 18  1  0  0  0  0
 18 19  2  0  0  0  0
 18 21  1  0  0  0  0
 21 24  1  1  0  0  0
 21 22  1  0  0  0  0
 22 26  1  0  0  0  0
 23 27  1  6  0  0  0
 23 21  1  0  0  0  0
 23 28  1  0  0  0  0
 23 22  1  0  0  0  0
 25 22  1  0  0  0  0
 28 29  2  0  0  0  0
 30 28  1  0  0  0  0
 31 32  1  0  0  0  0
 31 30  1  0  0  0  0
 32 30  1  0  0  0  0
M  END
>  <minimizedAffinity>
-5.00669384

$$$$

 OpenBabel03242510243D

 32 35  0  0  1  0  0  0  0  0999 V2000
   37.3180   31.3240   38.0000 C   0  0  1  0  0  0  0  0  0  0  0  0
   37.9410   30.1810   37.4820 C   0  0  0  0  0  0  0  0  0  0  0  0
   36.9580   30.0670   38.6900 C   0  0  1  0  0  0  0  0  0  0  0  0
   36.5300   31.8880   37.4550 H   0  0  0  0  0  0  0  0  0  0  0  0
   38.9630   29.7900   37.6470 H   0  0  0  0  0  0  0  0  0  0  0  0
   37.5250   29.7350   36.5280 H   0  0  0  0  0  0  0  0  0  0  0  0
   36.0400   29.5290   38.4180 H   0  0  0  0  0  0  0  0  0  0  0  0
   37.6320   33.2730   39.7060 C   0  0  0  0  0  0  0  0  0  0  0  0
   38.1880   32.3050   38.8080 C   0  0  0  0  0  0  0  0  0  0  0  0
   39.5600   32.2880   38.6600 C   0  0  0  0  0  0  0  0  0  0  0  0
   40.3060   33.1690   39.3560 N   0  0  0  0  0  0  0  0  0  0  0  0
   39.7630   34.0850   40.2060 C   0  0  0  0  0  0  0  0  0  0  0  0
   38.3770   34.1280   40.3780 N   0  0  0  0  0  0  0  0  0  0  0  0
   36.5660   33.2580   39.8260 H   0  0  0  0  0  0  0  0  0  0  0  0
   40.0490   31.5830   38.0000 H   0  0  0  0  0  0  0  0  0  0  0  0
   40.3660   34.7880   40.7600 H   0  0  0  0  0  0  0  0  0  0  0  0
   37.6280   29.7940   39.9110 N   0  0  0  0  0  0  0  0  0  0  0  0
   36.9900   29.7980   41.1460 C   0  0  0  0  0  0  0  0  0  0  0  0
   36.1280   30.5760   41.6260 O   0  0  0  0  0  0  0  0  0  0  0  0
   38.6440   29.5710   40.0040 H   0  0  0  0  0  0  0  0  0  0  0  0
   37.3280   28.7070   42.1520 C   0  0  2  0  0  0  0  0  0  0  0  0
   38.3920   29.0770   43.2470 C   0  0  0  0  0  0  0  0  0  0  0  0
   38.6390   28.0630   42.1670 C   0  0  1  0  0  0  0  0  0  0  0  0
   36.4750   28.1960   42.6440 H   0  0  0  0  0  0  0  0  0  0  0  0
   38.8490   30.0810   43.0990 H   0  0  0  0  0  0  0  0  0  0  0  0
   38.2640   28.6770   44.2470 H   0  0  0  0  0  0  0  0  0  0  0  0
   39.2330   28.2780   41.2480 H   0  0  0  0  0  0  0  0  0  0  0  0
   38.7080   26.6180   42.5940 C   0  0  0  0  0  0  0  0  0  0  0  0
   39.1790   26.3070   43.6800 O   0  0  0  0  0  0  0  0  0  0  0  0
   38.2000   25.5380   41.6880 C   0  0  0  0  0  3  0  0  0  0  0  0
   38.1130   24.1380   42.1500 C   0  0  0  0  0  2  0  0  0  0  0  0
   36.8570   24.9730   42.1030 C   0  0  0  0  0  2  0  0  0  0  0  0
  1  4  1  6  0  0  0
  1  3  1  0  0  0  0
  1  9  1  0  0  0  0
  2  5  1  0  0  0  0
  2  1  1  0  0  0  0
  2  3  1  0  0  0  0
  3  7  1  6  0  0  0
  3 17  1  0  0  0  0
  6  2  1  0  0  0  0
  8 14  1  0  0  0  0
  8 13  1  0  0  0  0
  9  8  2  0  0  0  0
 10  9  1  0  0  0  0
 10 11  2  0  0  0  0
 11 12  1  0  0  0  0
 12 13  2  0  0  0  0
 12 16  1  0  0  0  0
 15 10  1  0  0  0  0
 17 20  1  0  0  0  0
 17 18  1  0  0  0  0
 18 19  2  0  0  0  0
 18 21  1  0  0  0  0
 21 23  1  0  0  0  0
 21 24  1  1  0  0  0
 21 22  1  0  0  0  0
 22 26  1  0  0  0  0
 23 27  1  6  0  0  0
 23 28  1  0  0  0  0
 23 22  1  0  0  0  0
 25 22  1  0  0  0  0
 28 29  2  0  0  0  0
 30 32  1  0  0  0  0
 30 31  1  0  0  0  0
 30 28  1  0  0  0  0
 32 31  1  0  0  0  0
M  END
>  <minimizedAffinity>
-4.95106363

$$$$

 OpenBabel03242510243D

 32 35  0  0  1  0  0  0  0  0999 V2000
   35.7310   30.0910   40.1340 C   0  0  1  0  0  0  0  0  0  0  0  0
   35.4510   28.8640   39.5180 C   0  0  0  0  0  0  0  0  0  0  0  0
   35.7760   28.9270   41.0440 C   0  0  1  0  0  0  0  0  0  0  0  0
   34.9640   30.8790   40.2990 H   0  0  0  0  0  0  0  0  0  0  0  0
   36.0990   28.2080   38.9070 H   0  0  0  0  0  0  0  0  0  0  0  0
   34.3660   28.6120   39.3060 H   0  0  0  0  0  0  0  0  0  0  0  0
   34.9010   28.6690   41.6570 H   0  0  0  0  0  0  0  0  0  0  0  0
   37.8920   30.3690   38.6990 C   0  0  0  0  0  0  0  0  0  0  0  0
   37.0890   30.7490   39.8230 C   0  0  0  0  0  0  0  0  0  0  0  0
   37.5850   31.7280   40.6580 C   0  0  0  0  0  0  0  0  0  0  0  0
   38.7860   32.2770   40.3860 N   0  0  0  0  0  0  0  0  0  0  0  0
   39.5400   31.9040   39.3150 C   0  0  0  0  0  0  0  0  0  0  0  0
   39.0660   30.9160   38.4490 N   0  0  0  0  0  0  0  0  0  0  0  0
   37.4820   29.6210   38.0480 H   0  0  0  0  0  0  0  0  0  0  0  0
   37.0310   32.0660   41.5250 H   0  0  0  0  0  0  0  0  0  0  0  0
   40.5010   32.3470   39.1030 H   0  0  0  0  0  0  0  0  0  0  0  0
   37.0590   28.4020   41.3460 N   0  0  0  0  0  0  0  0  0  0  0  0
   37.5990   28.4030   42.6280 C   0  0  0  0  0  0  0  0  0  0  0  0
   37.5880   29.2820   43.5260 O   0  0  0  0  0  0  0  0  0  0  0  0
   37.7140   27.9740   40.6540 H   0  0  0  0  0  0  0  0  0  0  0  0
   38.3440   27.1680   43.1140 C   0  0  2  0  0  0  0  0  0  0  0  0
   39.9120   27.2210   43.0170 C   0  0  0  0  0  0  0  0  0  0  0  0
   39.0660   26.2990   42.1860 C   0  0  1  0  0  0  0  0  0  0  0  0
   38.0630   26.7710   44.1100 H   0  0  0  0  0  0  0  0  0  0  0  0
   40.2940   28.1360   42.5120 H   0  0  0  0  0  0  0  0  0  0  0  0
   40.4920   26.7470   43.8020 H   0  0  0  0  0  0  0  0  0  0  0  0
   38.8060   26.4990   41.1200 H   0  0  0  0  0  0  0  0  0  0  0  0
   39.1390   24.8290   42.5140 C   0  0  0  0  0  0  0  0  0  0  0  0
   40.1600   24.3400   42.9790 O   0  0  0  0  0  0  0  0  0  0  0  0
   37.9570   23.9410   42.2700 C   0  0  0  0  0  3  0  0  0  0  0  0
   36.8400   24.3840   41.4100 C   0  0  0  0  0  2  0  0  0  0  0  0
   37.8620   23.4260   40.8470 C   0  0  0  0  0  2  0  0  0  0  0  0
  1  4  1  1  0  0  0
  1  3  1  0  0  0  0
  2  1  1  0  0  0  0
  2  3  1  0  0  0  0
  3 17  1  0  0  0  0
  3  7  1  1  0  0  0
  5  2  1  0  0  0  0
  6  2  1  0  0  0  0
  8  9  1  0  0  0  0
  9  1  1  0  0  0  0
  9 10  2  0  0  0  0
 10 15  1  0  0  0  0
 11 10  1  0  0  0  0
 12 11  2  0  0  0  0
 13  8  2  0  0  0  0
 13 12  1  0  0  0  0
 14  8  1  0  0  0  0
 16 12  1  0  0  0  0
 17 18  1  0  0  0  0
 18 21  1  0  0  0  0
 18 19  2  0  0  0  0
 20 17  1  0  0  0  0
 21 24  1  1  0  0  0
 22 21  1  0  0  0  0
 22 26  1  0  0  0  0
 23 27  1  6  0  0  0
 23 28  1  0  0  0  0
 23 22  1  0  0  0  0
 23 21  1  0  0  0  0
 25 22  1  0  0  0  0
 28 29  2  0  0  0  0
 30 28  1  0  0  0  0
 31 30  1  0  0  0  0
 32 31  1  0  0  0  0
 32 30  1  0  0  0  0
M  END
>  <minimizedAffinity>
-4.77611971

$$$$

 OpenBabel03242510243D

 32 35  0  0  1  0  0  0  0  0999 V2000
   38.0410   31.5910   40.1260 C   0  0  1  0  0  0  0  0  0  0  0  0
   37.2220   30.8240   39.2850 C   0  0  0  0  0  0  0  0  0  0  0  0
   36.6870   31.3330   40.6610 C   0  0  1  0  0  0  0  0  0  0  0  0
   38.3420   32.6350   39.8960 H   0  0  0  0  0  0  0  0  0  0  0  0
   37.1920   29.7300   39.1240 H   0  0  0  0  0  0  0  0  0  0  0  0
   36.7370   31.3410   38.4020 H   0  0  0  0  0  0  0  0  0  0  0  0
   35.8900   32.0800   40.5370 H   0  0  0  0  0  0  0  0  0  0  0  0
   39.7600   31.3480   42.0740 C   0  0  0  0  0  0  0  0  0  0  0  0
   39.1930   30.8680   40.8490 C   0  0  0  0  0  0  0  0  0  0  0  0
   39.7370   29.7240   40.3020 C   0  0  0  0  0  0  0  0  0  0  0  0
   40.7620   29.1170   40.9340 N   0  0  0  0  0  0  0  0  0  0  0  0
   41.2910   29.5860   42.0980 C   0  0  0  0  0  0  0  0  0  0  0  0
   40.7630   30.7420   42.6780 N   0  0  0  0  0  0  0  0  0  0  0  0
   39.3120   32.2270   42.4970 H   0  0  0  0  0  0  0  0  0  0  0  0
   39.3580   29.3030   39.3790 H   0  0  0  0  0  0  0  0  0  0  0  0
   42.1120   29.0960   42.5990 H   0  0  0  0  0  0  0  0  0  0  0  0
   36.5650   30.2890   41.6150 N   0  0  0  0  0  0  0  0  0  0  0  0
   36.0050   29.0510   41.3190 C   0  0  0  0  0  0  0  0  0  0  0  0
   34.9930   28.7440   40.6400 O   0  0  0  0  0  0  0  0  0  0  0  0
   36.8720   30.3440   42.6110 H   0  0  0  0  0  0  0  0  0  0  0  0
   36.6680   27.7950   41.8660 C   0  0  2  0  0  0  0  0  0  0  0  0
   36.3660   27.4490   43.3700 C   0  0  0  0  0  0  0  0  0  0  0  0
   37.7220   27.8660   42.8760 C   0  0  1  0  0  0  0  0  0  0  0  0
   36.5680   26.8700   41.2620 H   0  0  0  0  0  0  0  0  0  0  0  0
   35.7660   28.2270   43.8910 H   0  0  0  0  0  0  0  0  0  0  0  0
   36.2690   26.4050   43.6480 H   0  0  0  0  0  0  0  0  0  0  0  0
   38.1290   28.8980   42.9980 H   0  0  0  0  0  0  0  0  0  0  0  0
   38.7940   26.8050   42.8500 C   0  0  0  0  0  0  0  0  0  0  0  0
   39.6990   26.8080   43.6740 O   0  0  0  0  0  0  0  0  0  0  0  0
   38.7640   25.7280   41.8090 C   0  0  0  0  0  3  0  0  0  0  0  0
   39.6180   24.5290   41.9330 C   0  0  0  0  0  2  0  0  0  0  0  0
   38.1560   24.4270   42.2920 C   0  0  0  0  0  2  0  0  0  0  0  0
  1  4  1  6  0  0  0
  1  3  1  0  0  0  0
  1  9  1  0  0  0  0
  2  1  1  0  0  0  0
  2  3  1  0  0  0  0
  3  7  1  1  0  0  0
  3 17  1  0  0  0  0
  5  2  1  0  0  0  0
  6  2  1  0  0  0  0
  8 14  1  0  0  0  0
  8 13  1  0  0  0  0
  9  8  2  0  0  0  0
 10  9  1  0  0  0  0
 10 11  2  0  0  0  0
 11 12  1  0  0  0  0
 12 16  1  0  0  0  0
 12 13  2  0  0  0  0
 15 10  1  0  0  0  0
 17 20  1  0  0  0  0
 18 17  1  0  0  0  0
 18 21  1  0  0  0  0
 19 18  2  0  0  0  0
 21 24  1  6  0  0  0
 21 23  1  0  0  0  0
 21 22  1  0  0  0  0
 22 26  1  0  0  0  0
 22 25  1  0  0  0  0
 23 27  1  1  0  0  0
 23 22  1  0  0  0  0
 28 23  1  0  0  0  0
 28 29  2  0  0  0  0
 30 31  1  0  0  0  0
 30 32  1  0  0  0  0
 30 28  1  0  0  0  0
 31 32  1  0  0  0  0
M  END
>  <minimizedAffinity>
-4.76147842

$$$$

 OpenBabel03242510243D

 32 35  0  0  1  0  0  0  0  0999 V2000
   37.4300   31.9660   39.0150 C   0  0  1  0  0  0  0  0  0  0  0  0
   37.5300   32.6360   40.2420 C   0  0  0  0  0  0  0  0  0  0  0  0
   38.7710   31.9080   39.6350 C   0  0  1  0  0  0  0  0  0  0  0  0
   37.3050   32.4910   38.0430 H   0  0  0  0  0  0  0  0  0  0  0  0
   37.2240   32.3150   41.2560 H   0  0  0  0  0  0  0  0  0  0  0  0
   37.6250   33.7650   40.2250 H   0  0  0  0  0  0  0  0  0  0  0  0
   39.5530   32.6200   39.3340 H   0  0  0  0  0  0  0  0  0  0  0  0
   35.8730   30.1790   40.1030 C   0  0  0  0  0  0  0  0  0  0  0  0
   36.6480   30.6400   38.9900 C   0  0  0  0  0  0  0  0  0  0  0  0
   36.6990   29.8330   37.8720 C   0  0  0  0  0  0  0  0  0  0  0  0
   36.0290   28.6630   37.8750 N   0  0  0  0  0  0  0  0  0  0  0  0
   35.2970   28.2370   38.9420 C   0  0  0  0  0  0  0  0  0  0  0  0
   35.2240   29.0310   40.0890 N   0  0  0  0  0  0  0  0  0  0  0  0
   35.8260   30.8280   40.9560 H   0  0  0  0  0  0  0  0  0  0  0  0
   37.2650   30.1190   36.9940 H   0  0  0  0  0  0  0  0  0  0  0  0
   34.7630   27.2980   38.9380 H   0  0  0  0  0  0  0  0  0  0  0  0
   39.1000   30.7200   40.3370 N   0  0  0  0  0  0  0  0  0  0  0  0
   39.4100   30.6980   41.6920 C   0  0  0  0  0  0  0  0  0  0  0  0
   40.1090   31.4750   42.3900 O   0  0  0  0  0  0  0  0  0  0  0  0
   39.1430   29.7640   39.9170 H   0  0  0  0  0  0  0  0  0  0  0  0
   38.8470   29.5800   42.5580 C   0  0  2  0  0  0  0  0  0  0  0  0
   39.8060   28.3650   42.8330 C   0  0  0  0  0  0  0  0  0  0  0  0
   38.5570   28.2590   42.0050 C   0  0  1  0  0  0  0  0  0  0  0  0
   38.3670   29.8770   43.5130 H   0  0  0  0  0  0  0  0  0  0  0  0
   40.7670   28.4250   42.2770 H   0  0  0  0  0  0  0  0  0  0  0  0
   39.7650   27.8870   43.8060 H   0  0  0  0  0  0  0  0  0  0  0  0
   38.5590   28.2510   40.8890 H   0  0  0  0  0  0  0  0  0  0  0  0
   37.4090   27.4840   42.6010 C   0  0  0  0  0  0  0  0  0  0  0  0
   36.9280   27.8050   43.6790 O   0  0  0  0  0  0  0  0  0  0  0  0
   36.8400   26.3010   41.8770 C   0  0  0  0  0  3  0  0  0  0  0  0
   37.5960   25.6380   40.7950 C   0  0  0  0  0  2  0  0  0  0  0  0
   37.5650   25.0020   42.1640 C   0  0  0  0  0  2  0  0  0  0  0  0
  1  4  1  6  0  0  0
  1  3  1  0  0  0  0
  1  2  1  0  0  0  0
  2  5  1  0  0  0  0
  3  7  1  6  0  0  0
  3  2  1  0  0  0  0
  3 17  1  0  0  0  0
  6  2  1  0  0  0  0
  8 14  1  0  0  0  0
  9  1  1  0  0  0  0
  9  8  2  0  0  0  0
 10 11  2  0  0  0  0
 10  9  1  0  0  0  0
 11 12  1  0  0  0  0
 12 13  2  0  0  0  0
 13  8  1  0  0  0  0
 15 10  1  0  0  0  0
 16 12  1  0  0  0  0
 17 18  1  0  0  0  0
 18 19  2  0  0  0  0
 18 21  1  0  0  0  0
 20 17  1  0  0  0  0
 21 22  1  0  0  0  0
 21 24  1  1  0  0  0
 22 26  1  0  0  0  0
 23 27  1  6  0  0  0
 23 21  1  0  0  0  0
 23 28  1  0  0  0  0
 23 22  1  0  0  0  0
 25 22  1  0  0  0  0
 28 29  2  0  0  0  0
 30 32  1  0  0  0  0
 30 28  1  0  0  0  0
 31 30  1  0  0  0  0
 31 32  1  0  0  0  0
M  END
>  <minimizedAffinity>
-4.62732553

$$$$

 OpenBabel03242510243D

 32 35  0  0  1  0  0  0  0  0999 V2000
   38.2700   32.6550   39.3710 C   0  0  1  0  0  0  0  0  0  0  0  0
   38.6180   33.2010   40.6140 C   0  0  0  0  0  0  0  0  0  0  0  0
   39.6360   32.3180   39.8240 C   0  0  1  0  0  0  0  0  0  0  0  0
   38.1390   33.2660   38.4520 H   0  0  0  0  0  0  0  0  0  0  0  0
   38.3690   32.8620   41.6370 H   0  0  0  0  0  0  0  0  0  0  0  0
   38.9130   34.2950   40.6490 H   0  0  0  0  0  0  0  0  0  0  0  0
   40.4970   32.9050   39.4730 H   0  0  0  0  0  0  0  0  0  0  0  0
   37.0200   30.6850   38.2030 C   0  0  0  0  0  0  0  0  0  0  0  0
   37.2630   31.4900   39.3640 C   0  0  0  0  0  0  0  0  0  0  0  0
   36.5330   31.2050   40.5000 C   0  0  0  0  0  0  0  0  0  0  0  0
   35.6370   30.1980   40.4700 N   0  0  0  0  0  0  0  0  0  0  0  0
   35.4170   29.4420   39.3580 C   0  0  0  0  0  0  0  0  0  0  0  0
   36.1390   29.7040   38.1920 N   0  0  0  0  0  0  0  0  0  0  0  0
   37.6110   30.9060   37.3350 H   0  0  0  0  0  0  0  0  0  0  0  0
   36.6660   31.7720   41.4130 H   0  0  0  0  0  0  0  0  0  0  0  0
   34.6980   28.6370   39.3410 H   0  0  0  0  0  0  0  0  0  0  0  0
   39.8170   31.0410   40.4140 N   0  0  0  0  0  0  0  0  0  0  0  0
   40.1650   30.8620   41.7490 C   0  0  0  0  0  0  0  0  0  0  0  0
   40.9880   31.4740   42.4750 O   0  0  0  0  0  0  0  0  0  0  0  0
   39.7130   30.1280   39.9180 H   0  0  0  0  0  0  0  0  0  0  0  0
   39.4790   29.7630   42.5470 C   0  0  2  0  0  0  0  0  0  0  0  0
   40.1430   28.3390   42.4810 C   0  0  0  0  0  0  0  0  0  0  0  0
   38.7990   28.6510   41.8850 C   0  0  1  0  0  0  0  0  0  0  0  0
   39.2290   29.9890   43.6030 H   0  0  0  0  0  0  0  0  0  0  0  0
   40.9990   28.2830   41.7730 H   0  0  0  0  0  0  0  0  0  0  0  0
   40.1290   27.7230   43.3740 H   0  0  0  0  0  0  0  0  0  0  0  0
   38.6390   28.8330   40.7970 H   0  0  0  0  0  0  0  0  0  0  0  0
   37.5960   28.0540   42.5710 C   0  0  0  0  0  0  0  0  0  0  0  0
   37.2490   28.4410   43.6790 O   0  0  0  0  0  0  0  0  0  0  0  0
   36.8070   26.9700   41.9030 C   0  0  0  0  0  3  0  0  0  0  0  0
   37.3890   26.1740   40.8030 C   0  0  0  0  0  2  0  0  0  0  0  0
   37.3220   25.5730   42.1860 C   0  0  0  0  0  2  0  0  0  0  0  0
  1  4  1  6  0  0  0
  1  3  1  0  0  0  0
  1  2  1  0  0  0  0
  2  6  1  0  0  0  0
  2  5  1  0  0  0  0
  3  7  1  6  0  0  0
  3 17  1  0  0  0  0
  3  2  1  0  0  0  0
  8  9  1  0  0  0  0
  9  1  1  0  0  0  0
  9 10  2  0  0  0  0
 10 15  1  0  0  0  0
 11 10  1  0  0  0  0
 12 11  2  0  0  0  0
 13  8  2  0  0  0  0
 13 12  1  0  0  0  0
 14  8  1  0  0  0  0
 16 12  1  0  0  0  0
 17 18  1  0  0  0  0
 18 19  2  0  0  0  0
 18 21  1  0  0  0  0
 20 17  1  0  0  0  0
 21 24  1  1  0  0  0
 22 21  1  0  0  0  0
 22 26  1  0  0  0  0
 23 27  1  6  0  0  0
 23 22  1  0  0  0  0
 23 21  1  0  0  0  0
 23 28  1  0  0  0  0
 25 22  1  0  0  0  0
 28 29  2  0  0  0  0
 30 32  1  0  0  0  0
 30 28  1  0  0  0  0
 31 30  1  0  0  0  0
 31 32  1  0  0  0  0
M  END
>  <minimizedAffinity>
-4.62713051

$$$$

 OpenBabel03242510243D

 32 35  0  0  1  0  0  0  0  0999 V2000
   37.9570   24.7710   42.1770 C   0  0  1  0  0  0  0  0  0  0  0  0
   36.7300   24.3110   41.6780 C   0  0  0  0  0  0  0  0  0  0  0  0
   37.9470   24.5160   40.7200 C   0  0  1  0  0  0  0  0  0  0  0  0
   38.6170   24.1590   42.8290 H   0  0  0  0  0  0  0  0  0  0  0  0
   35.8100   24.8690   41.4240 H   0  0  0  0  0  0  0  0  0  0  0  0
   36.4690   23.2200   41.8360 H   0  0  0  0  0  0  0  0  0  0  0  0
   38.3160   23.5600   40.3230 H   0  0  0  0  0  0  0  0  0  0  0  0
   39.2860   26.9620   42.6630 C   0  0  0  0  0  0  0  0  0  0  0  0
   38.0450   26.2500   42.5950 C   0  0  0  0  0  0  0  0  0  0  0  0
   36.8990   26.9340   42.9490 C   0  0  0  0  0  0  0  0  0  0  0  0
   36.9960   28.2210   43.3370 N   0  0  0  0  0  0  0  0  0  0  0  0
   38.1840   28.8850   43.3970 C   0  0  0  0  0  0  0  0  0  0  0  0
   39.3630   28.2220   43.0450 N   0  0  0  0  0  0  0  0  0  0  0  0
   40.1650   26.4230   42.3640 H   0  0  0  0  0  0  0  0  0  0  0  0
   35.9270   26.4590   42.9200 H   0  0  0  0  0  0  0  0  0  0  0  0
   38.2550   29.9160   43.7090 H   0  0  0  0  0  0  0  0  0  0  0  0
   37.7870   25.6440   39.8750 N   0  0  0  0  0  0  0  0  0  0  0  0
   36.6870   25.8220   39.0440 C   0  0  0  0  0  0  0  0  0  0  0  0
   36.0630   25.0090   38.3170 O   0  0  0  0  0  0  0  0  0  0  0  0
   38.4650   26.4350   39.7920 H   0  0  0  0  0  0  0  0  0  0  0  0
   36.0620   27.2060   38.9370 C   0  0  2  0  0  0  0  0  0  0  0  0
   36.8670   28.2680   38.1040 C   0  0  0  0  0  0  0  0  0  0  0  0
   36.6640   28.3670   39.5890 C   0  0  1  0  0  0  0  0  0  0  0  0
   34.9960   27.2540   38.6380 H   0  0  0  0  0  0  0  0  0  0  0  0
   37.8600   27.9030   37.7620 H   0  0  0  0  0  0  0  0  0  0  0  0
   36.3110   28.9820   37.5060 H   0  0  0  0  0  0  0  0  0  0  0  0
   37.4430   28.0840   40.3350 H   0  0  0  0  0  0  0  0  0  0  0  0
   35.7410   29.4550   40.0790 C   0  0  0  0  0  0  0  0  0  0  0  0
   34.5260   29.3200   40.0220 O   0  0  0  0  0  0  0  0  0  0  0  0
   36.3040   30.7240   40.6440 C   0  0  0  0  0  3  0  0  0  0  0  0
   37.7450   31.0280   40.5390 C   0  0  0  0  0  2  0  0  0  0  0  0
   36.7840   31.7020   39.5900 C   0  0  0  0  0  2  0  0  0  0  0  0
  1  9  1  0  0  0  0
  1  4  1  1  0  0  0
  2  6  1  0  0  0  0
  2  1  1  0  0  0  0
  3  7  1  6  0  0  0
  3  2  1  0  0  0  0
  3  1  1  0  0  0  0
  5  2  1  0  0  0  0
  8 13  1  0  0  0  0
  9  8  2  0  0  0  0
  9 10  1  0  0  0  0
 10 11  2  0  0  0  0
 11 12  1  0  0  0  0
 12 16  1  0  0  0  0
 13 12  2  0  0  0  0
 14  8  1  0  0  0  0
 15 10  1  0  0  0  0
 17  3  1  0  0  0  0
 18 17  1  0  0  0  0
 19 18  2  0  0  0  0
 20 17  1  0  0  0  0
 21 24  1  6  0  0  0
 21 18  1  0  0  0  0
 21 23  1  0  0  0  0
 22 21  1  0  0  0  0
 22 23  1  0  0  0  0
 23 28  1  0  0  0  0
 23 27  1  1  0  0  0
 25 22  1  0  0  0  0
 26 22  1  0  0  0  0
 28 30  1  0  0  0  0
 29 28  2  0  0  0  0
 31 30  1  0  0  0  0
 32 31  1  0  0  0  0
 32 30  1  0  0  0  0
M  END
>  <minimizedAffinity>
-4.56945992

$$$$

 OpenBabel03242510243D

 32 35  0  0  1  0  0  0  0  0999 V2000
   38.3290   27.7850   43.0560 C   0  0  1  0  0  0  0  0  0  0  0  0
   38.8030   28.9820   42.5040 C   0  0  0  0  0  0  0  0  0  0  0  0
   37.3380   28.8820   43.0370 C   0  0  1  0  0  0  0  0  0  0  0  0
   38.6760   27.3850   44.0340 H   0  0  0  0  0  0  0  0  0  0  0  0
   38.9170   29.2830   41.4450 H   0  0  0  0  0  0  0  0  0  0  0  0
   39.4650   29.6380   43.1470 H   0  0  0  0  0  0  0  0  0  0  0  0
   37.1870   29.5070   43.9280 H   0  0  0  0  0  0  0  0  0  0  0  0
   38.6720   26.5140   40.8040 C   0  0  0  0  0  0  0  0  0  0  0  0
   38.0510   26.6170   42.0910 C   0  0  0  0  0  0  0  0  0  0  0  0
   37.1530   25.6320   42.4450 C   0  0  0  0  0  0  0  0  0  0  0  0
   36.9010   24.6300   41.5780 N   0  0  0  0  0  0  0  0  0  0  0  0
   37.4990   24.5450   40.3570 C   0  0  0  0  0  0  0  0  0  0  0  0
   38.4140   25.5270   39.9680 N   0  0  0  0  0  0  0  0  0  0  0  0
   39.3840   27.2760   40.5520 H   0  0  0  0  0  0  0  0  0  0  0  0
   36.6470   25.6460   43.4030 H   0  0  0  0  0  0  0  0  0  0  0  0
   37.2930   23.7400   39.6680 H   0  0  0  0  0  0  0  0  0  0  0  0
   36.3810   28.8600   41.9910 N   0  0  0  0  0  0  0  0  0  0  0  0
   36.2360   29.8920   41.0700 C   0  0  0  0  0  0  0  0  0  0  0  0
   36.2550   31.1400   41.2210 O   0  0  0  0  0  0  0  0  0  0  0  0
   35.7020   28.0870   41.8110 H   0  0  0  0  0  0  0  0  0  0  0  0
   36.0170   29.5460   39.6050 C   0  0  2  0  0  0  0  0  0  0  0  0
   34.5740   29.0580   39.2150 C   0  0  0  0  0  0  0  0  0  0  0  0
   35.7840   28.1690   39.1730 C   0  0  1  0  0  0  0  0  0  0  0  0
   36.3540   30.2910   38.8560 H   0  0  0  0  0  0  0  0  0  0  0  0
   33.8970   28.9350   40.0890 H   0  0  0  0  0  0  0  0  0  0  0  0
   34.1740   29.3530   38.2500 H   0  0  0  0  0  0  0  0  0  0  0  0
   36.0260   27.4240   39.9670 H   0  0  0  0  0  0  0  0  0  0  0  0
   36.2850   27.7660   37.8080 C   0  0  0  0  0  0  0  0  0  0  0  0
   36.2290   26.6010   37.4380 O   0  0  0  0  0  0  0  0  0  0  0  0
   36.8640   28.7930   36.8830 C   0  0  0  0  0  3  0  0  0  0  0  0
   37.1250   28.4760   35.4640 C   0  0  0  0  0  2  0  0  0  0  0  0
   35.8950   29.2750   35.8220 C   0  0  0  0  0  2  0  0  0  0  0  0
  1  4  1  1  0  0  0
  2  3  1  0  0  0  0
  2  1  1  0  0  0  0
  2  6  1  0  0  0  0
  3  1  1  0  0  0  0
  3  7  1  1  0  0  0
  5  2  1  0  0  0  0
  8  9  1  0  0  0  0
  9 10  2  0  0  0  0
  9  1  1  0  0  0  0
 10 15  1  0  0  0  0
 11 10  1  0  0  0  0
 12 11  2  0  0  0  0
 13 12  1  0  0  0  0
 13  8  2  0  0  0  0
 14  8  1  0  0  0  0
 16 12  1  0  0  0  0
 17  3  1  0  0  0  0
 18 19  2  0  0  0  0
 18 17  1  0  0  0  0
 20 17  1  0  0  0  0
 21 24  1  6  0  0  0
 21 18  1  0  0  0  0
 22 21  1  0  0  0  0
 22 25  1  0  0  0  0
 23 22  1  0  0  0  0
 23 21  1  0  0  0  0
 23 27  1  1  0  0  0
 26 22  1  0  0  0  0
 28 23  1  0  0  0  0
 29 28  2  0  0  0  0
 30 28  1  0  0  0  0
 31 32  1  0  0  0  0
 31 30  1  0  0  0  0
 32 30  1  0  0  0  0
M  END
>  <minimizedAffinity>
-4.52766609

$$$$

 OpenBabel03242510243D

 32 35  0  0  1  0  0  0  0  0999 V2000
   37.8630   31.9790   39.6670 C   0  0  1  0  0  0  0  0  0  0  0  0
   38.3640   32.0910   40.9710 C   0  0  0  0  0  0  0  0  0  0  0  0
   39.2340   31.4540   39.8410 C   0  0  1  0  0  0  0  0  0  0  0  0
   37.6980   32.8530   39.0010 H   0  0  0  0  0  0  0  0  0  0  0  0
   38.1830   31.4600   41.8620 H   0  0  0  0  0  0  0  0  0  0  0  0
   38.7470   33.1040   41.3080 H   0  0  0  0  0  0  0  0  0  0  0  0
   40.1030   32.0800   39.5940 H   0  0  0  0  0  0  0  0  0  0  0  0
   35.9860   30.3540   40.4690 C   0  0  0  0  0  0  0  0  0  0  0  0
   36.7700   30.9230   39.4140 C   0  0  0  0  0  0  0  0  0  0  0  0
   36.5360   30.4710   38.1320 C   0  0  0  0  0  0  0  0  0  0  0  0
   35.5930   29.5280   37.9300 N   0  0  0  0  0  0  0  0  0  0  0  0
   34.8560   28.9950   38.9440 C   0  0  0  0  0  0  0  0  0  0  0  0
   35.0680   29.4320   40.2540 N   0  0  0  0  0  0  0  0  0  0  0  0
   36.1660   30.7320   41.4570 H   0  0  0  0  0  0  0  0  0  0  0  0
   37.0910   30.8570   37.2860 H   0  0  0  0  0  0  0  0  0  0  0  0
   34.1030   28.2400   38.7750 H   0  0  0  0  0  0  0  0  0  0  0  0
   39.3660   30.0490   39.9870 N   0  0  0  0  0  0  0  0  0  0  0  0
   39.7580   29.4410   41.1750 C   0  0  0  0  0  0  0  0  0  0  0  0
   40.6430   29.7560   42.0090 O   0  0  0  0  0  0  0  0  0  0  0  0
   39.1910   29.3460   39.2350 H   0  0  0  0  0  0  0  0  0  0  0  0
   39.0440   28.1730   41.6220 C   0  0  2  0  0  0  0  0  0  0  0  0
   38.2390   28.2680   42.9680 C   0  0  0  0  0  0  0  0  0  0  0  0
   39.4760   27.4320   42.8050 C   0  0  1  0  0  0  0  0  0  0  0  0
   38.4160   27.6570   40.8680 H   0  0  0  0  0  0  0  0  0  0  0  0
   38.3630   29.2430   43.4910 H   0  0  0  0  0  0  0  0  0  0  0  0
   37.3080   27.7180   43.0510 H   0  0  0  0  0  0  0  0  0  0  0  0
   40.4820   27.7490   43.1660 H   0  0  0  0  0  0  0  0  0  0  0  0
   39.2900   25.9350   42.8040 C   0  0  0  0  0  0  0  0  0  0  0  0
   39.7880   25.2410   43.6790 O   0  0  0  0  0  0  0  0  0  0  0  0
   38.4890   25.2750   41.7230 C   0  0  0  0  0  3  0  0  0  0  0  0
   38.1300   23.8450   41.8100 C   0  0  0  0  0  2  0  0  0  0  0  0
   37.0890   24.8830   42.1520 C   0  0  0  0  0  2  0  0  0  0  0  0
  1  4  1  6  0  0  0
  1  3  1  0  0  0  0
  1  2  1  0  0  0  0
  2  6  1  0  0  0  0
  2  5  1  0  0  0  0
  3  7  1  6  0  0  0
  3 17  1  0  0  0  0
  3  2  1  0  0  0  0
  8 14  1  0  0  0  0
  9  1  1  0  0  0  0
  9  8  2  0  0  0  0
 10  9  1  0  0  0  0
 11 10  2  0  0  0  0
 11 12  1  0  0  0  0
 12 13  2  0  0  0  0
 13  8  1  0  0  0  0
 15 10  1  0  0  0  0
 16 12  1  0  0  0  0
 17 18  1  0  0  0  0
 18 21  1  0  0  0  0
 18 19  2  0  0  0  0
 20 17  1  0  0  0  0
 21 24  1  6  0  0  0
 21 23  1  0  0  0  0
 21 22  1  0  0  0  0
 22 26  1  0  0  0  0
 22 25  1  0  0  0  0
 23 22  1  0  0  0  0
 23 27  1  1  0  0  0
 28 23  1  0  0  0  0
 28 29  2  0  0  0  0
 30 31  1  0  0  0  0
 30 32  1  0  0  0  0
 30 28  1  0  0  0  0
 31 32  1  0  0  0  0
M  END
>  <minimizedAffinity>
-4.5182004

$$$$
