
 OpenBabel03242519313D

 42 45  0  0  0  0  0  0  0  0999 V2000
   47.9000   33.8630   42.8430 C   0  0  0  0  0  0  0  0  0  0  0  0
   48.5720   35.1000   42.6500 C   0  0  0  0  0  0  0  0  0  0  0  0
   49.9370   35.1200   42.3360 C   0  0  0  0  0  0  0  0  0  0  0  0
   50.5550   33.9030   42.2320 N   0  0  0  0  0  0  0  0  0  0  0  0
   49.8700   32.7330   42.4260 C   0  0  0  0  0  0  0  0  0  0  0  0
   48.5730   32.7190   42.7240 N   0  0  0  0  0  0  0  0  0  0  0  0
   48.1370   36.0590   42.7200 H   0  0  0  0  0  0  0  0  0  0  0  0
   50.4760   36.0300   42.1840 H   0  0  0  0  0  0  0  0  0  0  0  0
   46.4800   33.9820   43.1700 C   0  0  0  0  0  0  0  0  0  0  0  0
   45.7600   34.9810   42.4200 C   0  0  0  0  0  0  0  0  0  0  0  0
   45.2900   36.1310   43.2090 C   0  0  0  0  0  0  0  0  0  0  0  0
   44.4530   35.6880   44.4080 C   0  0  0  0  0  0  0  0  0  0  0  0
   44.9730   34.4640   45.0870 C   0  0  0  0  0  0  0  0  0  0  0  0
   46.4300   34.2210   44.7170 C   0  0  0  0  0  0  0  0  0  0  0  0
   46.0290   32.9480   43.0990 H   0  0  0  0  0  0  0  0  0  0  0  0
   46.3060   35.3670   41.5320 H   0  0  0  0  0  0  0  0  0  0  0  0
   44.8400   34.5020   41.9700 H   0  0  0  0  0  0  0  0  0  0  0  0
   46.0310   36.8650   43.5380 H   0  0  0  0  0  0  0  0  0  0  0  0
   44.5730   36.7150   42.5610 H   0  0  0  0  0  0  0  0  0  0  0  0
   44.3860   36.5010   45.1660 H   0  0  0  0  0  0  0  0  0  0  0  0
   43.4050   35.5120   44.0660 H   0  0  0  0  0  0  0  0  0  0  0  0
   44.4090   33.5850   44.6820 H   0  0  0  0  0  0  0  0  0  0  0  0
   44.8550   34.4320   46.1660 H   0  0  0  0  0  0  0  0  0  0  0  0
   46.9690   35.1490   44.9140 H   0  0  0  0  0  0  0  0  0  0  0  0
   46.8080   33.3250   45.2280 H   0  0  0  0  0  0  0  0  0  0  0  0
   50.6980   31.5410   42.2790 C   0  0  0  0  0  0  0  0  0  0  0  0
   51.0920   31.1580   41.0560 N   0  0  0  0  0  0  0  0  0  0  0  0
   51.8450   30.0340   41.1580 C   0  0  0  0  0  0  0  0  0  0  0  0
   51.9100   29.7300   42.4690 N   0  0  0  0  0  0  0  0  0  0  0  0
   51.2170   30.6370   43.1610 N   0  0  0  0  0  0  0  0  0  0  0  0
   52.2930   29.5060   40.3380 H   0  0  0  0  0  0  0  0  0  0  0  0
   52.6160   28.6340   43.0820 C   0  0  0  0  0  0  0  0  0  0  0  0
   51.9060   27.7800   43.2210 H   0  0  0  0  0  0  0  0  0  0  0  0
   53.4360   28.2440   42.4940 H   0  0  0  0  0  0  0  0  0  0  0  0
   53.0690   29.0210   44.4180 C   0  0  0  0  0  0  0  0  0  0  0  0
   52.8200   28.5820   45.6420 C   0  0  0  0  0  0  0  0  0  0  0  0
   53.4710   29.0730   46.9490 C   0  0  0  0  0  0  0  0  0  0  0  0
   54.2310   28.3100   47.1970 H   0  0  0  0  0  0  0  0  0  0  0  0
   52.6970   29.0700   47.7190 H   0  0  0  0  0  0  0  0  0  0  0  0
   54.0510   30.4420   46.7830 C   0  0  0  0  0  0  0  0  0  0  0  0
   53.7010   31.5620   47.6720 C   0  0  0  0  0  0  0  0  0  0  0  0
   55.1040   31.0010   47.6410 C   0  0  0  0  0  0  0  0  0  0  0  0
  1  9  1  0  0  0  0
  2  7  1  0  0  0  0
  2  1  2  0  0  0  0
  3  2  1  0  0  0  0
  4  3  2  0  0  0  0
  4  5  1  0  0  0  0
  5  6  2  0  0  0  0
  6  1  1  0  0  0  0
  8  3  1  0  0  0  0
  9 14  1  0  0  0  0
 10  9  1  0  0  0  0
 10 11  1  0  0  0  0
 11 18  1  0  0  0  0
 11 12  1  0  0  0  0
 12 13  1  0  0  0  0
 12 20  1  0  0  0  0
 13 23  1  0  0  0  0
 14 24  1  0  0  0  0
 14 13  1  0  0  0  0
 14 25  1  0  0  0  0
 15  9  1  0  0  0  0
 16 10  1  0  0  0  0
 17 10  1  0  0  0  0
 19 11  1  0  0  0  0
 21 12  1  0  0  0  0
 22 13  1  0  0  0  0
 26  5  1  0  0  0  0
 26 30  2  0  0  0  0
 27 28  2  0  0  0  0
 27 26  1  0  0  0  0
 28 29  1  0  0  0  0
 29 32  1  0  0  0  0
 29 30  1  0  0  0  0
 31 28  1  0  0  0  0
 32 33  1  0  0  0  0
 32 35  1  0  0  0  0
 34 32  1  0  0  0  0
 35 36  2  0  0  0  0
 36 37  1  0  0  0  0
 37 38  1  0  0  0  0
 37 39  1  0  0  0  0
 40 37  1  0  0  0  0
 40 42  1  0  0  0  0
 40 41  1  0  0  0  0
 42 41  1  0  0  0  0
M  END
>  <minimizedAffinity>
-4.03456736

>  <minimizedRMSD>
1.19963753

$$$$
