
 OpenBabel03242510223D

 32 35  0  0  1  0  0  0  0  0999 V2000
   46.3160   32.1210   44.5260 C   0  0  1  0  0  0  0  0  0  0  0  0
   46.4560   31.3690   43.3520 C   0  0  0  0  0  0  0  0  0  0  0  0
   47.6820   32.1200   43.9600 C   0  0  1  0  0  0  0  0  0  0  0  0
   46.1440   31.6650   45.5250 H   0  0  0  0  0  0  0  0  0  0  0  0
   46.1970   31.6230   42.3070 H   0  0  0  0  0  0  0  0  0  0  0  0
   46.5330   30.2420   43.4500 H   0  0  0  0  0  0  0  0  0  0  0  0
   48.4400   31.4200   44.3420 H   0  0  0  0  0  0  0  0  0  0  0  0
   45.0680   33.9800   43.1870 C   0  0  0  0  0  0  0  0  0  0  0  0
   45.5540   33.4560   44.4290 C   0  0  0  0  0  0  0  0  0  0  0  0
   45.3390   34.2080   45.5650 C   0  0  0  0  0  0  0  0  0  0  0  0
   44.6920   35.3870   45.4600 N   0  0  0  0  0  0  0  0  0  0  0  0
   44.2370   35.8730   44.2720 C   0  0  0  0  0  0  0  0  0  0  0  0
   44.4380   35.1350   43.1030 N   0  0  0  0  0  0  0  0  0  0  0  0
   45.2250   33.3730   42.3170 H   0  0  0  0  0  0  0  0  0  0  0  0
   45.6780   33.8730   46.5380 H   0  0  0  0  0  0  0  0  0  0  0  0
   43.7200   36.8180   44.1940 H   0  0  0  0  0  0  0  0  0  0  0  0
   48.0570   33.2540   43.1940 N   0  0  0  0  0  0  0  0  0  0  0  0
   49.2270   33.3120   42.4450 C   0  0  0  0  0  0  0  0  0  0  0  0
   50.3930   32.9230   42.7050 O   0  0  0  0  0  0  0  0  0  0  0  0
   47.5080   34.1390   43.1200 H   0  0  0  0  0  0  0  0  0  0  0  0
   49.1810   33.9350   41.0570 C   0  0  2  0  0  0  0  0  0  0  0  0
   48.6900   35.4260   40.9800 C   0  0  0  0  0  0  0  0  0  0  0  0
   47.9130   34.2720   40.4140 C   0  0  1  0  0  0  0  0  0  0  0  0
   50.0870   33.8260   40.4270 H   0  0  0  0  0  0  0  0  0  0  0  0
   48.3410   35.8280   41.9570 H   0  0  0  0  0  0  0  0  0  0  0  0
   49.1520   36.0830   40.2520 H   0  0  0  0  0  0  0  0  0  0  0  0
   47.0360   33.8120   40.9270 H   0  0  0  0  0  0  0  0  0  0  0  0
   47.8390   34.1740   38.9100 C   0  0  0  0  0  0  0  0  0  0  0  0
   48.5820   34.8390   38.2020 O   0  0  0  0  0  0  0  0  0  0  0  0
   46.8470   33.2570   38.2620 C   0  0  0  0  0  3  0  0  0  0  0  0
   46.9040   32.9800   36.8120 C   0  0  0  0  0  2  0  0  0  0  0  0
   47.4460   31.9530   37.7760 C   0  0  0  0  0  2  0  0  0  0  0  0
  1  4  1  1  0  0  0
  2  6  1  0  0  0  0
  2  3  1  0  0  0  0
  2  1  1  0  0  0  0
  3  7  1  1  0  0  0
  3  1  1  0  0  0  0
  5  2  1  0  0  0  0
  8  9  1  0  0  0  0
  9  1  1  0  0  0  0
  9 10  2  0  0  0  0
 10 15  1  0  0  0  0
 11 10  1  0  0  0  0
 12 11  2  0  0  0  0
 13  8  2  0  0  0  0
 13 12  1  0  0  0  0
 14  8  1  0  0  0  0
 16 12  1  0  0  0  0
 17  3  1  0  0  0  0
 18 19  2  0  0  0  0
 18 17  1  0  0  0  0
 20 17  1  0  0  0  0
 21 24  1  6  0  0  0
 21 18  1  0  0  0  0
 22 21  1  0  0  0  0
 22 25  1  0  0  0  0
 23 27  1  1  0  0  0
 23 22  1  0  0  0  0
 23 21  1  0  0  0  0
 26 22  1  0  0  0  0
 28 23  1  0  0  0  0
 29 28  2  0  0  0  0
 30 28  1  0  0  0  0
 31 32  1  0  0  0  0
 31 30  1  0  0  0  0
 32 30  1  0  0  0  0
M  END
>  <minimizedAffinity>
-4.52099133

>  <minimizedRMSD>
0.28670156

$$$$
