
 OpenBabel03252509313D

 21 22  0  0  0  0  0  0  0  0999 V2000
   46.2450   32.9330   42.9990 C   0  0  0  0  0  0  0  0  0  0  0  0
   46.6140   33.7760   42.3700 H   0  0  0  0  0  0  0  0  0  0  0  0
   45.3750   32.4840   42.4540 H   0  0  0  0  0  0  0  0  0  0  0  0
   45.4810   33.3390   46.6360 C   0  0  0  0  0  0  0  0  0  0  0  0
   45.9650   32.7900   45.4420 C   0  0  0  0  0  0  0  0  0  0  0  0
   45.7500   33.4850   44.2570 C   0  0  0  0  0  0  0  0  0  0  0  0
   45.0680   34.6830   44.3060 N   0  0  0  0  0  0  0  0  0  0  0  0
   44.6170   35.1790   45.4800 C   0  0  0  0  0  0  0  0  0  0  0  0
   44.8170   34.5220   46.6260 N   0  0  0  0  0  0  0  0  0  0  0  0
   45.7010   32.7230   47.4990 H   0  0  0  0  0  0  0  0  0  0  0  0
   46.4960   31.8590   45.4040 H   0  0  0  0  0  0  0  0  0  0  0  0
   44.0800   36.1170   45.5370 H   0  0  0  0  0  0  0  0  0  0  0  0
   47.2340   31.9780   43.2300 O   0  0  0  0  0  0  0  0  0  0  0  0
   47.7480   30.9730   40.8670 O   0  0  0  0  0  0  0  0  0  0  0  0
   48.2530   31.9790   41.8790 P   0  0  2  0  0  0  0  0  0  0  0  0
   49.8090   31.6500   42.4120 O   0  0  0  0  0  0  0  0  0  0  0  0
   49.8810   30.6840   42.5970 H   0  0  0  0  0  0  0  0  0  0  0  0
   48.1710   33.5050   41.1710 O   0  0  0  0  0  0  0  0  0  0  0  0
   49.3030   34.2600   41.3480 C   0  0  0  0  0  3  0  0  0  0  0  0
   49.3780   35.0150   42.6530 C   0  0  0  0  0  2  0  0  0  0  0  0
   49.0130   35.7590   41.4180 C   0  0  0  0  0  2  0  0  0  0  0  0
  1 13  1  0  0  0  0
  1  6  1  0  0  0  0
  2  1  1  0  0  0  0
  3  1  1  0  0  0  0
  4 10  1  0  0  0  0
  5  4  2  0  0  0  0
  6  7  2  0  0  0  0
  6  5  1  0  0  0  0
  7  8  1  0  0  0  0
  8 12  1  0  0  0  0
  8  9  2  0  0  0  0
  9  4  1  0  0  0  0
 11  5  1  0  0  0  0
 15 14  2  6  0  0  0
 15 16  1  0  0  0  0
 15 13  1  0  0  0  0
 16 17  1  0  0  0  0
 18 19  1  0  0  0  0
 18 15  1  0  0  0  0
 19 21  1  0  0  0  0
 19 20  1  0  0  0  0
 21 20  1  0  0  0  0
M  END
>  <minimizedAffinity>
-3.2080338

>  <minimizedRMSD>
2.08309078

$$$$
