
 OpenBabel03252508503D

 22 24  0  0  0  0  0  0  0  0999 V2000
   45.8980   34.0570   41.0620 C   0  0  0  0  0  0  0  0  0  0  0  0
   46.4800   34.7640   42.1090 C   0  0  0  0  0  0  0  0  0  0  0  0
   47.8020   35.2050   41.9310 C   0  0  0  0  0  0  0  0  0  0  0  0
   48.4240   34.9150   40.7510 N   0  0  0  0  0  0  0  0  0  0  0  0
   47.8090   34.2260   39.7700 C   0  0  0  0  0  0  0  0  0  0  0  0
   46.5410   33.7880   39.9080 N   0  0  0  0  0  0  0  0  0  0  0  0
   48.2710   35.7560   42.7380 H   0  0  0  0  0  0  0  0  0  0  0  0
   48.3530   34.0220   38.8470 H   0  0  0  0  0  0  0  0  0  0  0  0
   45.7300   35.0200   43.3270 C   0  0  0  0  0  0  0  0  0  0  0  0
   45.0370   36.1920   43.5510 C   0  0  0  0  0  0  0  0  0  0  0  0
   44.4860   36.0120   44.8000 C   0  0  0  0  0  0  0  0  0  0  0  0
   44.8220   34.8060   45.3090 N   0  0  0  0  0  0  0  0  0  0  0  0
   45.5730   34.2280   44.4010 N   0  0  0  0  0  0  0  0  0  0  0  0
   44.9470   37.0530   42.8950 H   0  0  0  0  0  0  0  0  0  0  0  0
   43.8600   36.7670   45.2960 H   0  0  0  0  0  0  0  0  0  0  0  0
   44.5360   34.4120   46.2480 H   0  0  0  0  0  0  0  0  0  0  0  0
   44.5910   33.6170   41.2270 O   0  0  0  0  0  0  0  0  0  0  0  0
   43.4630   34.2600   40.7930 C   0  0  0  0  0  0  0  0  0  0  0  0
   43.3260   35.4790   40.4560 O   0  0  0  0  0  0  0  0  0  0  0  0
   42.0240   33.8670   40.5410 C   0  0  0  0  0  3  0  0  0  0  0  0
   41.7480   32.5780   39.8150 C   0  0  0  0  0  2  0  0  0  0  0  0
   41.4270   32.7470   41.2680 C   0  0  0  0  0  2  0  0  0  0  0  0
  1 17  1  0  0  0  0
  1  2  1  0  0  0  0
  2  9  1  0  0  0  0
  3  2  2  0  0  0  0
  3  7  1  0  0  0  0
  4  3  1  0  0  0  0
  5  6  1  0  0  0  0
  5  4  2  0  0  0  0
  6  1  2  0  0  0  0
  8  5  1  0  0  0  0
  9 10  1  0  0  0  0
  9 13  2  0  0  0  0
 10 11  2  0  0  0  0
 11 15  1  0  0  0  0
 11 12  1  0  0  0  0
 12 16  1  0  0  0  0
 13 12  1  0  0  0  0
 14 10  1  0  0  0  0
 18 17  1  0  0  0  0
 19 18  2  0  0  0  0
 20 18  1  0  0  0  0
 20 22  1  0  0  0  0
 21 20  1  0  0  0  0
 21 22  1  0  0  0  0
M  END
>  <minimizedAffinity>
-4.6197629

>  <minimizedRMSD>
1.11151111

$$$$
