
 OpenBabel03252509323D

 21 22  0  0  0  0  0  0  0  0999 V2000
   37.0050   31.1050   38.8920 C   0  0  0  0  0  0  0  0  0  0  0  0
   37.0370   30.9760   37.7860 H   0  0  0  0  0  0  0  0  0  0  0  0
   35.9870   31.5040   39.1380 H   0  0  0  0  0  0  0  0  0  0  0  0
   40.2330   32.9610   39.2270 C   0  0  0  0  0  0  0  0  0  0  0  0
   39.3100   31.9740   38.8600 C   0  0  0  0  0  0  0  0  0  0  0  0
   37.9860   32.1200   39.2620 C   0  0  0  0  0  0  0  0  0  0  0  0
   37.6390   33.2290   40.0050 N   0  0  0  0  0  0  0  0  0  0  0  0
   38.5620   34.1600   40.3390 C   0  0  0  0  0  0  0  0  0  0  0  0
   39.8370   34.0320   39.9590 N   0  0  0  0  0  0  0  0  0  0  0  0
   41.2320   32.7540   38.8650 H   0  0  0  0  0  0  0  0  0  0  0  0
   39.5800   31.1120   38.2810 H   0  0  0  0  0  0  0  0  0  0  0  0
   38.3070   35.0370   40.9210 H   0  0  0  0  0  0  0  0  0  0  0  0
   37.2470   29.9100   39.5690 O   0  0  0  0  0  0  0  0  0  0  0  0
   34.7610   29.1320   39.8410 O   0  0  0  0  0  0  0  0  0  0  0  0
   35.9440   29.6620   40.6210 P   0  0  2  0  0  0  0  0  0  0  0  0
   35.6240   31.1180   41.3900 O   0  0  0  0  0  0  0  0  0  0  0  0
   35.1420   31.7060   40.7620 H   0  0  0  0  0  0  0  0  0  0  0  0
   36.3960   28.4820   41.7350 O   0  0  0  0  0  0  0  0  0  0  0  0
   37.2650   28.9300   42.6960 C   0  0  0  0  0  3  0  0  0  0  0  0
   38.6450   28.3220   42.6540 C   0  0  0  0  0  2  0  0  0  0  0  0
   37.6820   27.8370   43.6780 C   0  0  0  0  0  2  0  0  0  0  0  0
  1  3  1  0  0  0  0
  1  6  1  0  0  0  0
  1 13  1  0  0  0  0
  2  1  1  0  0  0  0
  4  9  1  0  0  0  0
  5  4  2  0  0  0  0
  5  6  1  0  0  0  0
  6  7  2  0  0  0  0
  7  8  1  0  0  0  0
  8 12  1  0  0  0  0
  9  8  2  0  0  0  0
 10  4  1  0  0  0  0
 11  5  1  0  0  0  0
 13 15  1  0  0  0  0
 15 14  2  6  0  0  0
 15 16  1  0  0  0  0
 15 18  1  0  0  0  0
 17 16  1  0  0  0  0
 18 19  1  0  0  0  0
 19 21  1  0  0  0  0
 20 19  1  0  0  0  0
 20 21  1  0  0  0  0
M  END
>  <minimizedAffinity>
-4.40288496

$$$$

 OpenBabel03252509323D

 21 22  0  0  0  0  0  0  0  0999 V2000
   36.9430   28.1730   42.7620 C   0  0  0  0  0  0  0  0  0  0  0  0
   37.5060   29.0420   43.1740 H   0  0  0  0  0  0  0  0  0  0  0  0
   36.0700   28.0040   43.4430 H   0  0  0  0  0  0  0  0  0  0  0  0
   39.8010   25.9180   43.6130 C   0  0  0  0  0  0  0  0  0  0  0  0
   38.9930   27.0590   43.5560 C   0  0  0  0  0  0  0  0  0  0  0  0
   37.8040   26.9960   42.8360 C   0  0  0  0  0  0  0  0  0  0  0  0
   37.4720   25.8130   42.2090 N   0  0  0  0  0  0  0  0  0  0  0  0
   38.2810   24.7320   42.2890 C   0  0  0  0  0  0  0  0  0  0  0  0
   39.4260   24.7800   42.9770 N   0  0  0  0  0  0  0  0  0  0  0  0
   40.7000   26.0710   44.1960 H   0  0  0  0  0  0  0  0  0  0  0  0
   39.2510   27.9790   44.0450 H   0  0  0  0  0  0  0  0  0  0  0  0
   38.0370   23.7960   41.8030 H   0  0  0  0  0  0  0  0  0  0  0  0
   36.5170   28.3940   41.4530 O   0  0  0  0  0  0  0  0  0  0  0  0
   38.1550   30.4070   41.8040 O   0  0  0  0  0  0  0  0  0  0  0  0
   36.8950   30.0000   41.0720 P   0  0  2  0  0  0  0  0  0  0  0  0
   35.5680   30.9450   41.4720 O   0  0  0  0  0  0  0  0  0  0  0  0
   35.5540   31.0700   42.4500 H   0  0  0  0  0  0  0  0  0  0  0  0
   37.2120   30.0790   39.4200 O   0  0  0  0  0  0  0  0  0  0  0  0
   38.0100   31.1340   39.0580 C   0  0  0  0  0  3  0  0  0  0  0  0
   37.2850   32.4310   38.7930 C   0  0  0  0  0  2  0  0  0  0  0  0
   37.7440   31.6200   37.6340 C   0  0  0  0  0  2  0  0  0  0  0  0
  1  6  1  0  0  0  0
  1  2  1  0  0  0  0
  1  3  1  0  0  0  0
  4 10  1  0  0  0  0
  5  4  1  0  0  0  0
  5 11  1  0  0  0  0
  6  5  2  0  0  0  0
  7  8  2  0  0  0  0
  7  6  1  0  0  0  0
  8  9  1  0  0  0  0
  9  4  2  0  0  0  0
 12  8  1  0  0  0  0
 13  1  1  0  0  0  0
 15 13  1  0  0  0  0
 15 16  1  0  0  0  0
 15 14  2  1  0  0  0
 16 17  1  0  0  0  0
 18 15  1  0  0  0  0
 19 18  1  0  0  0  0
 20 19  1  0  0  0  0
 21 20  1  0  0  0  0
 21 19  1  0  0  0  0
M  END
>  <minimizedAffinity>
-4.39661741

$$$$

 OpenBabel03252509323D

 21 22  0  0  0  0  0  0  0  0999 V2000
   39.3600   31.1030   40.4300 C   0  0  0  0  0  0  0  0  0  0  0  0
   39.3150   29.9910   40.3810 H   0  0  0  0  0  0  0  0  0  0  0  0
   39.4910   31.4650   39.3780 H   0  0  0  0  0  0  0  0  0  0  0  0
   41.9830   31.2110   43.0920 C   0  0  0  0  0  0  0  0  0  0  0  0
   40.8350   30.8330   42.3850 C   0  0  0  0  0  0  0  0  0  0  0  0
   40.5500   31.4790   41.1860 C   0  0  0  0  0  0  0  0  0  0  0  0
   41.4080   32.4650   40.7460 N   0  0  0  0  0  0  0  0  0  0  0  0
   42.5070   32.8010   41.4590 C   0  0  0  0  0  0  0  0  0  0  0  0
   42.7930   32.1880   42.6120 N   0  0  0  0  0  0  0  0  0  0  0  0
   42.1140   30.6490   44.0070 H   0  0  0  0  0  0  0  0  0  0  0  0
   40.1680   30.0660   42.7270 H   0  0  0  0  0  0  0  0  0  0  0  0
   43.1920   33.5720   41.1280 H   0  0  0  0  0  0  0  0  0  0  0  0
   38.2130   31.6510   41.0040 O   0  0  0  0  0  0  0  0  0  0  0  0
   37.2180   29.4300   40.0370 O   0  0  0  0  0  0  0  0  0  0  0  0
   37.1040   30.3860   41.2040 P   0  0  2  0  0  0  0  0  0  0  0  0
   35.5780   31.0650   41.3500 O   0  0  0  0  0  0  0  0  0  0  0  0
   35.2670   31.3370   40.4550 H   0  0  0  0  0  0  0  0  0  0  0  0
   37.5250   29.5460   42.6010 O   0  0  0  0  0  0  0  0  0  0  0  0
   37.5430   28.1830   42.4440 C   0  0  0  0  0  3  0  0  0  0  0  0
   36.6140   27.4150   43.3510 C   0  0  0  0  0  2  0  0  0  0  0  0
   38.0640   27.4490   43.6780 C   0  0  0  0  0  2  0  0  0  0  0  0
  1 13  1  0  0  0  0
  1  6  1  0  0  0  0
  2  1  1  0  0  0  0
  3  1  1  0  0  0  0
  4 10  1  0  0  0  0
  5 11  1  0  0  0  0
  5  4  2  0  0  0  0
  6  5  1  0  0  0  0
  7  6  2  0  0  0  0
  7  8  1  0  0  0  0
  8  9  2  0  0  0  0
  9  4  1  0  0  0  0
 12  8  1  0  0  0  0
 13 15  1  0  0  0  0
 15 14  2  6  0  0  0
 15 16  1  0  0  0  0
 15 18  1  0  0  0  0
 17 16  1  0  0  0  0
 19 18  1  0  0  0  0
 19 20  1  0  0  0  0
 19 21  1  0  0  0  0
 20 21  1  0  0  0  0
M  END
>  <minimizedAffinity>
-4.1577878

$$$$

 OpenBabel03252509323D

 21 22  0  0  0  0  0  0  0  0999 V2000
   37.9670   29.2680   40.1920 C   0  0  0  0  0  0  0  0  0  0  0  0
   38.5180   28.8940   39.2990 H   0  0  0  0  0  0  0  0  0  0  0  0
   36.8990   28.9550   40.0630 H   0  0  0  0  0  0  0  0  0  0  0  0
   37.2070   32.8310   39.3540 C   0  0  0  0  0  0  0  0  0  0  0  0
   37.1450   31.4330   39.3500 C   0  0  0  0  0  0  0  0  0  0  0  0
   38.0110   30.7270   40.1790 C   0  0  0  0  0  0  0  0  0  0  0  0
   38.8940   31.4330   40.9690 N   0  0  0  0  0  0  0  0  0  0  0  0
   38.9220   32.7850   40.9440 C   0  0  0  0  0  0  0  0  0  0  0  0
   38.0950   33.4750   40.1520 N   0  0  0  0  0  0  0  0  0  0  0  0
   36.4940   33.2830   38.6770 H   0  0  0  0  0  0  0  0  0  0  0  0
   36.4590   30.8830   38.7350 H   0  0  0  0  0  0  0  0  0  0  0  0
   39.6070   33.3560   41.5580 H   0  0  0  0  0  0  0  0  0  0  0  0
   38.4910   28.7650   41.3820 O   0  0  0  0  0  0  0  0  0  0  0  0
   35.9140   28.3200   41.5090 O   0  0  0  0  0  0  0  0  0  0  0  0
   37.1800   28.2760   42.3360 P   0  0  2  0  0  0  0  0  0  0  0  0
   37.1240   29.2780   43.6790 O   0  0  0  0  0  0  0  0  0  0  0  0
   36.7400   30.1450   43.4090 H   0  0  0  0  0  0  0  0  0  0  0  0
   37.4410   26.6750   42.7910 O   0  0  0  0  0  0  0  0  0  0  0  0
   37.6150   25.8190   41.7330 C   0  0  0  0  0  3  0  0  0  0  0  0
   36.8350   24.5310   41.8100 C   0  0  0  0  0  2  0  0  0  0  0  0
   38.2860   24.5070   42.1340 C   0  0  0  0  0  2  0  0  0  0  0  0
  1 13  1  0  0  0  0
  2  1  1  0  0  0  0
  3  1  1  0  0  0  0
  4  9  1  0  0  0  0
  5  4  2  0  0  0  0
  5  6  1  0  0  0  0
  6  1  1  0  0  0  0
  6  7  2  0  0  0  0
  8  7  1  0  0  0  0
  8 12  1  0  0  0  0
  9  8  2  0  0  0  0
 10  4  1  0  0  0  0
 11  5  1  0  0  0  0
 13 15  1  0  0  0  0
 15 14  2  6  0  0  0
 15 18  1  0  0  0  0
 15 16  1  0  0  0  0
 17 16  1  0  0  0  0
 19 20  1  0  0  0  0
 19 21  1  0  0  0  0
 19 18  1  0  0  0  0
 20 21  1  0  0  0  0
M  END
>  <minimizedAffinity>
-4.14882565

$$$$

 OpenBabel03252509323D

 21 22  0  0  0  0  0  0  0  0999 V2000
   37.9590   29.5780   39.1020 C   0  0  0  0  0  0  0  0  0  0  0  0
   38.1110   28.9380   40.0010 H   0  0  0  0  0  0  0  0  0  0  0  0
   38.1010   28.9160   38.2100 H   0  0  0  0  0  0  0  0  0  0  0  0
   40.6960   31.8730   40.2080 C   0  0  0  0  0  0  0  0  0  0  0  0
   39.6920   30.8980   40.2540 C   0  0  0  0  0  0  0  0  0  0  0  0
   39.0100   30.5910   39.0800 C   0  0  0  0  0  0  0  0  0  0  0  0
   39.3510   31.2590   37.9230 N   0  0  0  0  0  0  0  0  0  0  0  0
   40.3280   32.1940   37.9210 C   0  0  0  0  0  0  0  0  0  0  0  0
   40.9900   32.4990   39.0420 N   0  0  0  0  0  0  0  0  0  0  0  0
   41.1630   32.0360   41.1710 H   0  0  0  0  0  0  0  0  0  0  0  0
   39.4270   30.3780   41.1540 H   0  0  0  0  0  0  0  0  0  0  0  0
   40.6090   32.7280   37.0220 H   0  0  0  0  0  0  0  0  0  0  0  0
   36.6970   30.1710   39.0860 O   0  0  0  0  0  0  0  0  0  0  0  0
   34.6530   28.9910   40.2200 O   0  0  0  0  0  0  0  0  0  0  0  0
   35.9280   29.7440   40.5320 P   0  0  2  0  0  0  0  0  0  0  0  0
   35.6630   31.1510   41.4040 O   0  0  0  0  0  0  0  0  0  0  0  0
   34.8920   31.6250   41.0110 H   0  0  0  0  0  0  0  0  0  0  0  0
   36.9490   28.7000   41.3720 O   0  0  0  0  0  0  0  0  0  0  0  0
   37.3030   29.1530   42.6170 C   0  0  0  0  0  3  0  0  0  0  0  0
   38.5990   28.6050   43.1590 C   0  0  0  0  0  2  0  0  0  0  0  0
   37.3190   28.0470   43.6700 C   0  0  0  0  0  2  0  0  0  0  0  0
  1  2  1  0  0  0  0
  3  1  1  0  0  0  0
  4  5  1  0  0  0  0
  4 10  1  0  0  0  0
  5 11  1  0  0  0  0
  6  1  1  0  0  0  0
  6  5  2  0  0  0  0
  7  6  1  0  0  0  0
  8  7  2  0  0  0  0
  8  9  1  0  0  0  0
  9  4  2  0  0  0  0
 12  8  1  0  0  0  0
 13  1  1  0  0  0  0
 13 15  1  0  0  0  0
 15 14  2  6  0  0  0
 15 18  1  0  0  0  0
 15 16  1  0  0  0  0
 17 16  1  0  0  0  0
 18 19  1  0  0  0  0
 19 20  1  0  0  0  0
 19 21  1  0  0  0  0
 20 21  1  0  0  0  0
M  END
>  <minimizedAffinity>
-4.00838757

$$$$

 OpenBabel03252509323D

 21 22  0  0  0  0  0  0  0  0999 V2000
   35.8280   29.6050   40.9040 C   0  0  0  0  0  0  0  0  0  0  0  0
   34.7520   29.4090   41.1170 H   0  0  0  0  0  0  0  0  0  0  0  0
   35.9640   29.4800   39.7990 H   0  0  0  0  0  0  0  0  0  0  0  0
   37.5590   26.3690   41.6200 C   0  0  0  0  0  0  0  0  0  0  0  0
   36.7960   27.3400   40.9600 C   0  0  0  0  0  0  0  0  0  0  0  0
   36.6190   28.5760   41.5720 C   0  0  0  0  0  0  0  0  0  0  0  0
   37.2020   28.7940   42.8030 N   0  0  0  0  0  0  0  0  0  0  0  0
   37.9320   27.8300   43.4080 C   0  0  0  0  0  0  0  0  0  0  0  0
   38.1090   26.6380   42.8310 N   0  0  0  0  0  0  0  0  0  0  0  0
   37.6360   25.4460   41.0610 H   0  0  0  0  0  0  0  0  0  0  0  0
   36.3440   27.1700   40.0020 H   0  0  0  0  0  0  0  0  0  0  0  0
   38.3970   27.9830   44.3740 H   0  0  0  0  0  0  0  0  0  0  0  0
   36.2220   30.8790   41.3120 O   0  0  0  0  0  0  0  0  0  0  0  0
   38.5520   31.1910   40.1580 O   0  0  0  0  0  0  0  0  0  0  0  0
   37.0910   31.5650   40.0310 P   0  0  2  0  0  0  0  0  0  0  0  0
   36.8300   33.2210   40.0670 O   0  0  0  0  0  0  0  0  0  0  0  0
   37.3800   33.6110   40.7870 H   0  0  0  0  0  0  0  0  0  0  0  0
   36.5120   30.8970   38.5980 O   0  0  0  0  0  0  0  0  0  0  0  0
   37.4900   30.6390   37.6710 C   0  0  0  0  0  3  0  0  0  0  0  0
   36.9970   30.1920   36.3180 C   0  0  0  0  0  2  0  0  0  0  0  0
   37.5400   29.1700   37.2520 C   0  0  0  0  0  2  0  0  0  0  0  0
  1  2  1  0  0  0  0
  1 13  1  0  0  0  0
  1  6  1  0  0  0  0
  3  1  1  0  0  0  0
  4  9  1  0  0  0  0
  5  6  1  0  0  0  0
  5  4  2  0  0  0  0
  6  7  2  0  0  0  0
  7  8  1  0  0  0  0
  8 12  1  0  0  0  0
  9  8  2  0  0  0  0
 10  4  1  0  0  0  0
 11  5  1  0  0  0  0
 15 16  1  0  0  0  0
 15 14  2  1  0  0  0
 15 13  1  0  0  0  0
 16 17  1  0  0  0  0
 18 15  1  0  0  0  0
 19 18  1  0  0  0  0
 20 21  1  0  0  0  0
 20 19  1  0  0  0  0
 21 19  1  0  0  0  0
M  END
>  <minimizedAffinity>
-4.00494909

$$$$

 OpenBabel03252509323D

 21 22  0  0  0  0  0  0  0  0999 V2000
   37.7050   30.7590   41.1520 C   0  0  0  0  0  0  0  0  0  0  0  0
   36.9660   30.6910   40.3210 H   0  0  0  0  0  0  0  0  0  0  0  0
   37.1250   31.0120   42.0760 H   0  0  0  0  0  0  0  0  0  0  0  0
   40.8270   32.7380   40.5930 C   0  0  0  0  0  0  0  0  0  0  0  0
   39.9820   31.6560   40.8670 C   0  0  0  0  0  0  0  0  0  0  0  0
   38.6070   31.8710   40.8690 C   0  0  0  0  0  0  0  0  0  0  0  0
   38.1350   33.1390   40.6030 N   0  0  0  0  0  0  0  0  0  0  0  0
   38.9860   34.1580   40.3430 C   0  0  0  0  0  0  0  0  0  0  0  0
   40.3080   33.9660   40.3370 N   0  0  0  0  0  0  0  0  0  0  0  0
   41.8750   32.4670   40.6140 H   0  0  0  0  0  0  0  0  0  0  0  0
   40.3490   30.6700   41.0730 H   0  0  0  0  0  0  0  0  0  0  0  0
   38.6330   35.1600   40.1310 H   0  0  0  0  0  0  0  0  0  0  0  0
   38.4170   29.5720   41.3210 O   0  0  0  0  0  0  0  0  0  0  0  0
   36.1960   28.1880   41.4010 O   0  0  0  0  0  0  0  0  0  0  0  0
   37.4300   28.5220   42.2100 P   0  0  2  0  0  0  0  0  0  0  0  0
   37.0770   29.2680   43.6700 O   0  0  0  0  0  0  0  0  0  0  0  0
   36.3860   29.9550   43.5140 H   0  0  0  0  0  0  0  0  0  0  0  0
   38.2860   27.0930   42.4570 O   0  0  0  0  0  0  0  0  0  0  0  0
   38.9970   27.0690   43.6300 C   0  0  0  0  0  3  0  0  0  0  0  0
   40.4720   27.3590   43.4970 C   0  0  0  0  0  2  0  0  0  0  0  0
   40.0350   25.9480   43.6730 C   0  0  0  0  0  2  0  0  0  0  0  0
  1 13  1  0  0  0  0
  1  3  1  0  0  0  0
  2  1  1  0  0  0  0
  4 10  1  0  0  0  0
  4  5  1  0  0  0  0
  5  6  2  0  0  0  0
  5 11  1  0  0  0  0
  6  1  1  0  0  0  0
  7  6  1  0  0  0  0
  8  7  2  0  0  0  0
  9  8  1  0  0  0  0
  9  4  2  0  0  0  0
 12  8  1  0  0  0  0
 13 15  1  0  0  0  0
 15 14  2  6  0  0  0
 15 18  1  0  0  0  0
 15 16  1  0  0  0  0
 17 16  1  0  0  0  0
 18 19  1  0  0  0  0
 19 21  1  0  0  0  0
 20 19  1  0  0  0  0
 20 21  1  0  0  0  0
M  END
>  <minimizedAffinity>
-3.98064685

$$$$

 OpenBabel03252509323D

 21 22  0  0  0  0  0  0  0  0999 V2000
   39.5560   30.7750   41.3710 C   0  0  0  0  0  0  0  0  0  0  0  0
   39.4970   30.4870   40.2970 H   0  0  0  0  0  0  0  0  0  0  0  0
   40.6420   30.9250   41.6030 H   0  0  0  0  0  0  0  0  0  0  0  0
   39.4800   27.5670   43.2900 C   0  0  0  0  0  0  0  0  0  0  0  0
   39.9610   28.6340   42.5220 C   0  0  0  0  0  0  0  0  0  0  0  0
   39.0790   29.6510   42.1720 C   0  0  0  0  0  0  0  0  0  0  0  0
   37.7690   29.5660   42.5950 N   0  0  0  0  0  0  0  0  0  0  0  0
   37.3440   28.5180   43.3360 C   0  0  0  0  0  0  0  0  0  0  0  0
   38.1810   27.5340   43.6790 N   0  0  0  0  0  0  0  0  0  0  0  0
   40.2430   26.8310   43.5080 H   0  0  0  0  0  0  0  0  0  0  0  0
   40.9800   28.7000   42.1930 H   0  0  0  0  0  0  0  0  0  0  0  0
   36.3200   28.4350   43.6770 H   0  0  0  0  0  0  0  0  0  0  0  0
   38.8240   31.9290   41.6490 O   0  0  0  0  0  0  0  0  0  0  0  0
   39.6500   33.6920   39.8970 O   0  0  0  0  0  0  0  0  0  0  0  0
   38.5380   32.7030   40.1700 P   0  0  2  0  0  0  0  0  0  0  0  0
   37.0250   33.4220   40.2560 O   0  0  0  0  0  0  0  0  0  0  0  0
   37.0980   34.2460   40.7940 H   0  0  0  0  0  0  0  0  0  0  0  0
   38.5800   31.5350   38.9580 O   0  0  0  0  0  0  0  0  0  0  0  0
   37.3910   31.3870   38.2890 C   0  0  0  0  0  3  0  0  0  0  0  0
   36.5770   30.1780   38.6770 C   0  0  0  0  0  2  0  0  0  0  0  0
   37.3540   30.1380   37.4100 C   0  0  0  0  0  2  0  0  0  0  0  0
  1  3  1  0  0  0  0
  1 13  1  0  0  0  0
  1  6  1  0  0  0  0
  2  1  1  0  0  0  0
  4 10  1  0  0  0  0
  4  9  1  0  0  0  0
  5  4  2  0  0  0  0
  6  5  1  0  0  0  0
  6  7  2  0  0  0  0
  7  8  1  0  0  0  0
  8 12  1  0  0  0  0
  8  9  2  0  0  0  0
 11  5  1  0  0  0  0
 15 14  2  6  0  0  0
 15 16  1  0  0  0  0
 15 13  1  0  0  0  0
 16 17  1  0  0  0  0
 18 15  1  0  0  0  0
 19 20  1  0  0  0  0
 19 18  1  0  0  0  0
 21 19  1  0  0  0  0
 21 20  1  0  0  0  0
M  END
>  <minimizedAffinity>
-3.91350579

$$$$

 OpenBabel03252509323D

 21 22  0  0  0  0  0  0  0  0999 V2000
   36.4590   27.5030   39.8300 C   0  0  0  0  0  0  0  0  0  0  0  0
   35.8170   27.2880   38.9450 H   0  0  0  0  0  0  0  0  0  0  0  0
   37.3870   27.9940   39.4400 H   0  0  0  0  0  0  0  0  0  0  0  0
   36.8270   23.8330   40.4380 C   0  0  0  0  0  0  0  0  0  0  0  0
   36.4450   25.0400   39.8390 C   0  0  0  0  0  0  0  0  0  0  0  0
   36.8440   26.2320   40.4350 C   0  0  0  0  0  0  0  0  0  0  0  0
   37.5960   26.1760   41.5890 N   0  0  0  0  0  0  0  0  0  0  0  0
   37.9440   24.9890   42.1370 C   0  0  0  0  0  0  0  0  0  0  0  0
   37.5670   23.8360   41.5740 N   0  0  0  0  0  0  0  0  0  0  0  0
   36.4680   22.9660   39.8980 H   0  0  0  0  0  0  0  0  0  0  0  0
   35.8610   25.0830   38.9410 H   0  0  0  0  0  0  0  0  0  0  0  0
   38.5340   24.9260   43.0420 H   0  0  0  0  0  0  0  0  0  0  0  0
   35.8170   28.3220   40.7590 O   0  0  0  0  0  0  0  0  0  0  0  0
   37.9240   29.7550   41.3630 O   0  0  0  0  0  0  0  0  0  0  0  0
   36.5700   29.8360   40.6920 P   0  0  2  0  0  0  0  0  0  0  0  0
   35.5440   30.9490   41.4150 O   0  0  0  0  0  0  0  0  0  0  0  0
   35.6060   30.8440   42.3940 H   0  0  0  0  0  0  0  0  0  0  0  0
   36.8220   30.2170   39.0710 O   0  0  0  0  0  0  0  0  0  0  0  0
   37.8300   31.1250   38.8650 C   0  0  0  0  0  3  0  0  0  0  0  0
   37.3870   32.5600   38.7200 C   0  0  0  0  0  2  0  0  0  0  0  0
   37.7530   31.7980   37.4960 C   0  0  0  0  0  2  0  0  0  0  0  0
  1  6  1  0  0  0  0
  1 13  1  0  0  0  0
  2  1  1  0  0  0  0
  3  1  1  0  0  0  0
  4  9  1  0  0  0  0
  5  6  1  0  0  0  0
  5  4  2  0  0  0  0
  6  7  2  0  0  0  0
  7  8  1  0  0  0  0
  8 12  1  0  0  0  0
  9  8  2  0  0  0  0
 10  4  1  0  0  0  0
 11  5  1  0  0  0  0
 15 13  1  0  0  0  0
 15 14  2  1  0  0  0
 15 16  1  0  0  0  0
 16 17  1  0  0  0  0
 18 15  1  0  0  0  0
 19 18  1  0  0  0  0
 20 19  1  0  0  0  0
 21 20  1  0  0  0  0
 21 19  1  0  0  0  0
M  END
>  <minimizedAffinity>
-3.88320708

$$$$
