
 OpenBabel03252500393D

 15 16  0  0  0  0  0  0  0  0999 V2000
   46.3500   34.4480   43.5690 C   0  0  0  0  0  0  0  0  0  0  0  0
   45.5820   35.5780   43.2940 C   0  0  0  0  0  0  0  0  0  0  0  0
   44.6650   36.0220   44.2590 C   0  0  0  0  0  0  0  0  0  0  0  0
   44.5830   35.3180   45.4110 N   0  0  0  0  0  0  0  0  0  0  0  0
   45.3550   34.2110   45.6460 C   0  0  0  0  0  0  0  0  0  0  0  0
   46.2390   33.7720   44.7280 N   0  0  0  0  0  0  0  0  0  0  0  0
   45.6340   36.1520   42.3810 H   0  0  0  0  0  0  0  0  0  0  0  0
   44.0550   36.8820   44.0950 H   0  0  0  0  0  0  0  0  0  0  0  0
   45.1740   33.7670   46.5980 H   0  0  0  0  0  0  0  0  0  0  0  0
   47.3180   33.9980   42.5220 C   0  0  0  0  0  0  0  0  0  0  0  0
   46.8780   33.0860   42.0730 H   0  0  0  0  0  0  0  0  0  0  0  0
   48.2580   33.7150   43.0630 H   0  0  0  0  0  0  0  0  0  0  0  0
   47.5260   35.0980   41.5170 C   0  0  0  0  0  0  0  0  0  0  0  0
   48.9260   35.6720   41.5030 C   0  0  0  0  0  0  0  0  0  0  0  0
   48.3780   34.8790   40.3290 C   0  0  0  0  0  0  0  0  0  0  0  0
  1  6  1  0  0  0  0
  2  1  2  0  0  0  0
  2  3  1  0  0  0  0
  3  4  2  0  0  0  0
  4  5  1  0  0  0  0
  5  9  1  0  0  0  0
  6  5  2  0  0  0  0
  7  2  1  0  0  0  0
  8  3  1  0  0  0  0
 10 12  1  0  0  0  0
 10  1  1  0  0  0  0
 11 10  1  0  0  0  0
 13 10  1  0  0  0  0
 14 13  1  0  0  0  0
 15 14  1  0  0  0  0
 15 13  1  0  0  0  0
M  END
>  <minimizedAffinity>
-4.13856125

>  <minimizedRMSD>
3.89704609

$$$$
