
 OpenBabel03252509313D

 21 22  0  0  0  0  0  0  0  0999 V2000
   46.7650   31.9550   43.6960 C   0  0  0  0  0  0  0  0  0  0  0  0
   46.5080   32.4460   42.7300 H   0  0  0  0  0  0  0  0  0  0  0  0
   46.3000   30.9360   43.6710 H   0  0  0  0  0  0  0  0  0  0  0  0
   45.5060   32.9270   47.0790 C   0  0  0  0  0  0  0  0  0  0  0  0
   46.1170   32.1850   46.0620 C   0  0  0  0  0  0  0  0  0  0  0  0
   46.1340   32.7100   44.7740 C   0  0  0  0  0  0  0  0  0  0  0  0
   45.5480   33.9390   44.5530 N   0  0  0  0  0  0  0  0  0  0  0  0
   44.9680   34.6250   45.5630 C   0  0  0  0  0  0  0  0  0  0  0  0
   44.9440   34.1320   46.8050 N   0  0  0  0  0  0  0  0  0  0  0  0
   45.5470   32.4320   48.0410 H   0  0  0  0  0  0  0  0  0  0  0  0
   46.5730   31.2290   46.2340 H   0  0  0  0  0  0  0  0  0  0  0  0
   44.5030   35.5910   45.4080 H   0  0  0  0  0  0  0  0  0  0  0  0
   48.1430   31.8670   43.8920 O   0  0  0  0  0  0  0  0  0  0  0  0
   50.2710   32.3150   42.4320 O   0  0  0  0  0  0  0  0  0  0  0  0
   48.8760   32.8320   42.7090 P   0  0  2  0  0  0  0  0  0  0  0  0
   48.8590   34.4160   43.2600 O   0  0  0  0  0  0  0  0  0  0  0  0
   49.5690   34.5220   43.9360 H   0  0  0  0  0  0  0  0  0  0  0  0
   47.9810   32.6800   41.2900 O   0  0  0  0  0  0  0  0  0  0  0  0
   47.6350   33.8790   40.7210 C   0  0  0  0  0  3  0  0  0  0  0  0
   46.1760   34.2520   40.8350 C   0  0  0  0  0  2  0  0  0  0  0  0
   46.6800   33.7240   39.5400 C   0  0  0  0  0  2  0  0  0  0  0  0
  1 13  1  0  0  0  0
  1  6  1  0  0  0  0
  2  1  1  0  0  0  0
  3  1  1  0  0  0  0
  4 10  1  0  0  0  0
  5 11  1  0  0  0  0
  5  4  2  0  0  0  0
  6  5  1  0  0  0  0
  7  6  2  0  0  0  0
  7  8  1  0  0  0  0
  8  9  2  0  0  0  0
  9  4  1  0  0  0  0
 12  8  1  0  0  0  0
 15 14  2  6  0  0  0
 15 16  1  0  0  0  0
 15 13  1  0  0  0  0
 16 17  1  0  0  0  0
 18 15  1  0  0  0  0
 19 20  1  0  0  0  0
 19 18  1  0  0  0  0
 21 19  1  0  0  0  0
 21 20  1  0  0  0  0
M  END
>  <minimizedAffinity>
-3.00875831

>  <minimizedRMSD>
2.64077258

$$$$
