
 OpenBabel03252507153D

 23 25  0  0  0  0  0  0  0  0999 V2000
   44.9060   35.9890   43.6620 C   0  0  0  0  0  0  0  0  0  0  0  0
   45.6050   34.8360   43.2290 C   0  0  0  0  0  0  0  0  0  0  0  0
   45.8130   33.8330   44.1470 C   0  0  0  0  0  0  0  0  0  0  0  0
   45.3570   33.9700   45.4070 N   0  0  0  0  0  0  0  0  0  0  0  0
   44.6840   35.0920   45.8100 C   0  0  0  0  0  0  0  0  0  0  0  0
   44.4800   36.0670   44.9230 N   0  0  0  0  0  0  0  0  0  0  0  0
   44.7140   36.8140   42.9770 H   0  0  0  0  0  0  0  0  0  0  0  0
   44.3830   35.0500   46.8560 H   0  0  0  0  0  0  0  0  0  0  0  0
   46.5300   32.6400   43.7140 C   0  0  0  0  0  0  0  0  0  0  0  0
   45.8330   31.4890   43.3990 C   0  0  0  0  0  0  0  0  0  0  0  0
   46.5380   30.3810   42.9940 C   0  0  0  0  0  0  0  0  0  0  0  0
   47.9310   30.3570   42.8840 C   0  0  0  0  0  0  0  0  0  0  0  0
   48.5690   31.5330   43.2120 C   0  0  0  0  0  0  0  0  0  0  0  0
   47.8720   32.6190   43.6100 N   0  0  0  0  0  0  0  0  0  0  0  0
   44.7550   31.4660   43.4700 H   0  0  0  0  0  0  0  0  0  0  0  0
   45.9880   29.4800   42.7470 H   0  0  0  0  0  0  0  0  0  0  0  0
   48.4860   29.4840   42.5650 H   0  0  0  0  0  0  0  0  0  0  0  0
   49.6590   31.5440   43.1360 H   0  0  0  0  0  0  0  0  0  0  0  0
   46.0610   34.7530   41.8760 C   0  0  0  0  0  0  0  0  0  0  0  0
   47.2850   34.9820   41.6570 O   0  0  0  0  0  0  0  0  0  0  0  0
   45.1710   34.4160   40.7380 C   0  0  0  0  0  3  0  0  0  0  0  0
   45.4080   33.1240   40.0080 C   0  0  0  0  0  2  0  0  0  0  0  0
   44.2260   33.2280   40.8690 C   0  0  0  0  0  2  0  0  0  0  0  0
  1  6  1  0  0  0  0
  2  1  2  0  0  0  0
  2  3  1  0  0  0  0
  3  4  2  0  0  0  0
  4  5  1  0  0  0  0
  5  8  1  0  0  0  0
  6  5  2  0  0  0  0
  7  1  1  0  0  0  0
  9  3  1  0  0  0  0
 10 15  1  0  0  0  0
 10  9  2  0  0  0  0
 11 10  1  0  0  0  0
 12 11  2  0  0  0  0
 12 13  1  0  0  0  0
 13 14  2  0  0  0  0
 14  9  1  0  0  0  0
 16 11  1  0  0  0  0
 17 12  1  0  0  0  0
 18 13  1  0  0  0  0
 19  2  1  0  0  0  0
 20 19  2  0  0  0  0
 21 23  1  0  0  0  0
 21 19  1  0  0  0  0
 22 21  1  0  0  0  0
 22 23  1  0  0  0  0
M  END
>  <minimizedAffinity>
-3.82254934

>  <minimizedRMSD>
0.508290172

$$$$
