
 OpenBabel03252509083D

 35 38  0  0  0  0  0  0  0  0999 V2000
   45.3850   35.3200   43.2370 Cl  0  0  0  0  0  0  0  0  0  0  0  0
   45.2110   34.5590   41.6780 C   0  0  0  0  0  0  0  0  0  0  0  0
   46.2820   34.1490   40.9660 C   0  0  0  0  0  0  0  0  0  0  0  0
   46.0450   33.5640   39.7350 C   0  0  0  0  0  0  0  0  0  0  0  0
   44.7770   33.3980   39.2360 C   0  0  0  0  0  0  0  0  0  0  0  0
   43.7080   33.8140   39.9610 C   0  0  0  0  0  0  0  0  0  0  0  0
   43.9320   34.3980   41.1920 C   0  0  0  0  0  0  0  0  0  0  0  0
   44.6460   32.9380   38.2690 H   0  0  0  0  0  0  0  0  0  0  0  0
   42.7020   33.7010   39.6060 H   0  0  0  0  0  0  0  0  0  0  0  0
   43.0750   34.7270   41.7680 H   0  0  0  0  0  0  0  0  0  0  0  0
   47.6340   31.8080   38.9320 C   0  0  0  0  0  0  0  0  0  0  0  0
   47.1770   33.0900   38.9420 C   0  0  0  0  0  0  0  0  0  0  0  0
   47.8080   34.0350   38.1540 C   0  0  0  0  0  0  0  0  0  0  0  0
   48.8810   33.6790   37.3700 C   0  0  0  0  0  0  0  0  0  0  0  0
   49.3610   32.3770   37.3430 C   0  0  0  0  0  0  0  0  0  0  0  0
   48.7200   31.4350   38.1410 C   0  0  0  0  0  0  0  0  0  0  0  0
   47.4740   35.0540   38.1400 H   0  0  0  0  0  0  0  0  0  0  0  0
   49.3510   34.4340   36.7690 H   0  0  0  0  0  0  0  0  0  0  0  0
   50.1930   32.1010   36.7350 H   0  0  0  0  0  0  0  0  0  0  0  0
   49.1050   30.4370   38.1070 H   0  0  0  0  0  0  0  0  0  0  0  0
   46.8890   30.6040   39.8380 S   0  0  0  0  0  0  0  0  0  0  0  0
   45.6360   30.0540   39.2040 O   0  0  0  0  0  0  0  0  0  0  0  0
   47.8760   29.3990   39.7740 O   0  0  0  0  0  0  0  0  0  0  0  0
   46.5860   30.6400   41.5170 C   0  0  0  0  0  3  0  0  0  0  0  0
   45.9290   29.3140   41.9860 C   0  0  0  0  0  2  0  0  0  0  0  0
   47.1900   29.7500   42.5550 C   0  0  0  0  0  2  0  0  0  0  0  0
   49.5780   35.7450   41.9280 C   0  0  0  0  0  0  0  0  0  0  0  0
   48.2980   35.5590   41.3940 C   0  0  0  0  0  0  0  0  0  0  0  0
   47.6160   34.3530   41.5200 C   0  0  0  0  0  0  0  0  0  0  0  0
   48.2760   33.4000   42.1840 N   0  0  0  0  0  0  0  0  0  0  0  0
   49.4990   33.5670   42.6990 C   0  0  0  0  0  0  0  0  0  0  0  0
   50.1440   34.7290   42.5720 N   0  0  0  0  0  0  0  0  0  0  0  0
   50.0360   36.7200   41.7830 H   0  0  0  0  0  0  0  0  0  0  0  0
   47.8110   36.3700   40.8630 H   0  0  0  0  0  0  0  0  0  0  0  0
   50.0190   32.7780   43.2380 H   0  0  0  0  0  0  0  0  0  0  0  0
  2  1  1  0  0  0  0
  3 29  1  0  0  0  0
  3  2  2  0  0  0  0
  4  3  1  0  0  0  0
  5  4  2  0  0  0  0
  5  6  1  0  0  0  0
  6  7  2  0  0  0  0
  7  2  1  0  0  0  0
  7 10  1  0  0  0  0
  8  5  1  0  0  0  0
  9  6  1  0  0  0  0
 11 12  1  0  0  0  0
 11 21  1  0  0  0  0
 12  4  1  0  0  0  0
 13 12  2  0  0  0  0
 14 13  1  0  0  0  0
 15 14  2  0  0  0  0
 15 16  1  0  0  0  0
 16 11  2  0  0  0  0
 17 13  1  0  0  0  0
 18 14  1  0  0  0  0
 19 15  1  0  0  0  0
 20 16  1  0  0  0  0
 21 24  1  0  0  0  0
 22 21  2  0  0  0  0
 23 21  2  0  0  0  0
 24 25  1  0  0  0  0
 24 26  1  0  0  0  0
 25 26  1  0  0  0  0
 27 32  1  0  0  0  0
 28 29  1  0  0  0  0
 28 27  2  0  0  0  0
 29 30  2  0  0  0  0
 30 31  1  0  0  0  0
 31 35  1  0  0  0  0
 32 31  2  0  0  0  0
 33 27  1  0  0  0  0
 34 28  1  0  0  0  0
M  END
>  <minimizedAffinity>
-4.41727352

>  <minimizedRMSD>
0.746797383

$$$$
