
 OpenBabel03252505483D

 23 25  0  0  1  0  0  0  0  0999 V2000
   36.8550   28.5670   41.8620 C   0  0  0  0  0  0  0  0  0  0  0  0
   35.7150   28.5630   41.0080 C   0  0  0  0  0  0  0  0  0  0  0  0
   35.4120   29.6630   40.2020 C   0  0  0  0  0  0  0  0  0  0  0  0
   36.2730   30.7200   40.2930 N   0  0  0  0  0  0  0  0  0  0  0  0
   37.3590   30.6770   41.1310 C   0  0  0  0  0  0  0  0  0  0  0  0
   37.6480   29.6390   41.8940 N   0  0  0  0  0  0  0  0  0  0  0  0
   35.0860   27.6840   40.9980 H   0  0  0  0  0  0  0  0  0  0  0  0
   34.5600   29.6720   39.5570 H   0  0  0  0  0  0  0  0  0  0  0  0
   37.1020   27.3790   42.6950 C   0  0  1  0  0  0  0  0  0  0  0  0
   38.0470   26.3570   41.9630 C   0  0  1  0  0  0  0  0  0  0  0  0
   38.3400   27.0300   43.2840 C   0  0  0  0  0  0  0  0  0  0  0  0
   36.1430   26.9030   43.0400 H   0  0  0  0  0  0  0  0  0  0  0  0
   38.5500   26.6890   41.0580 H   0  0  0  0  0  0  0  0  0  0  0  0
   39.2530   27.6770   43.2510 H   0  0  0  0  0  0  0  0  0  0  0  0
   38.3550   26.3960   44.1980 H   0  0  0  0  0  0  0  0  0  0  0  0
   37.6040   24.9200   42.0930 C   0  0  0  0  0  0  0  0  0  0  0  0
   36.3510   24.7780   42.6100 F   0  0  0  0  0  0  0  0  0  0  0  0
   37.6090   24.3340   40.8090 F   0  0  0  0  0  0  0  0  0  0  0  0
   38.5310   24.1810   42.8130 F   0  0  0  0  0  0  0  0  0  0  0  0
   38.1330   31.8440   41.1010 O   0  0  0  0  0  0  0  0  0  0  0  0
   38.2890   32.6160   39.9470 C   0  0  0  0  0  3  0  0  0  0  0  0
   39.5400   33.3170   39.6220 C   0  0  0  0  0  2  0  0  0  0  0  0
   38.4230   34.1090   40.1660 C   0  0  0  0  0  2  0  0  0  0  0  0
  1  6  1  0  0  0  0
  1  9  1  0  0  0  0
  2  1  2  0  0  0  0
  3  4  2  0  0  0  0
  3  2  1  0  0  0  0
  4  5  1  0  0  0  0
  5  6  2  0  0  0  0
  7  2  1  0  0  0  0
  8  3  1  0  0  0  0
  9 12  1  1  0  0  0
  9 11  1  0  0  0  0
 10 13  1  6  0  0  0
 10 16  1  0  0  0  0
 10  9  1  0  0  0  0
 10 11  1  0  0  0  0
 11 15  1  0  0  0  0
 14 11  1  0  0  0  0
 16 17  1  0  0  0  0
 16 19  1  0  0  0  0
 18 16  1  0  0  0  0
 20  5  1  0  0  0  0
 21 23  1  0  0  0  0
 21 20  1  0  0  0  0
 22 21  1  0  0  0  0
 22 23  1  0  0  0  0
M  END
>  <minimizedAffinity>
-4.80773497

$$$$

 OpenBabel03252505483D

 23 25  0  0  1  0  0  0  0  0999 V2000
   39.4040   29.4480   42.6270 C   0  0  0  0  0  0  0  0  0  0  0  0
   40.8250   29.3850   42.6840 C   0  0  0  0  0  0  0  0  0  0  0  0
   41.6170   30.3540   42.0630 C   0  0  0  0  0  0  0  0  0  0  0  0
   40.9380   31.3460   41.4120 N   0  0  0  0  0  0  0  0  0  0  0  0
   39.5670   31.3640   41.3850 C   0  0  0  0  0  0  0  0  0  0  0  0
   38.8160   30.4490   41.9710 N   0  0  0  0  0  0  0  0  0  0  0  0
   41.2820   28.5650   43.2210 H   0  0  0  0  0  0  0  0  0  0  0  0
   42.6850   30.3190   42.0990 H   0  0  0  0  0  0  0  0  0  0  0  0
   38.6350   28.3820   43.2900 C   0  0  1  0  0  0  0  0  0  0  0  0
   38.4250   27.1520   42.3330 C   0  0  1  0  0  0  0  0  0  0  0  0
   39.1380   27.1150   43.6650 C   0  0  0  0  0  0  0  0  0  0  0  0
   37.6640   28.7660   43.7120 H   0  0  0  0  0  0  0  0  0  0  0  0
   38.9950   27.1250   41.4080 H   0  0  0  0  0  0  0  0  0  0  0  0
   40.2140   26.8170   43.5760 H   0  0  0  0  0  0  0  0  0  0  0  0
   38.6570   26.5560   44.4970 H   0  0  0  0  0  0  0  0  0  0  0  0
   37.0270   26.5850   42.3720 C   0  0  0  0  0  0  0  0  0  0  0  0
   36.2700   27.0620   43.4000 F   0  0  0  0  0  0  0  0  0  0  0  0
   36.3760   26.9210   41.1660 F   0  0  0  0  0  0  0  0  0  0  0  0
   37.0570   25.1970   42.3720 F   0  0  0  0  0  0  0  0  0  0  0  0
   39.0370   32.4470   40.6730 O   0  0  0  0  0  0  0  0  0  0  0  0
   37.6820   32.5410   40.3430 C   0  0  0  0  0  3  0  0  0  0  0  0
   37.1850   32.3640   38.9700 C   0  0  0  0  0  2  0  0  0  0  0  0
   37.2920   33.7360   39.4980 C   0  0  0  0  0  2  0  0  0  0  0  0
  1  2  1  0  0  0  0
  1  9  1  0  0  0  0
  2  7  1  0  0  0  0
  3  8  1  0  0  0  0
  3  2  2  0  0  0  0
  4  3  1  0  0  0  0
  5  4  2  0  0  0  0
  5  6  1  0  0  0  0
  6  1  2  0  0  0  0
  9 11  1  0  0  0  0
  9 12  1  1  0  0  0
 10 13  1  6  0  0  0
 10 16  1  0  0  0  0
 10  9  1  0  0  0  0
 10 11  1  0  0  0  0
 11 15  1  0  0  0  0
 14 11  1  0  0  0  0
 16 17  1  0  0  0  0
 18 16  1  0  0  0  0
 19 16  1  0  0  0  0
 20  5  1  0  0  0  0
 21 20  1  0  0  0  0
 22 23  1  0  0  0  0
 22 21  1  0  0  0  0
 23 21  1  0  0  0  0
M  END
>  <minimizedAffinity>
-4.68651676

$$$$

 OpenBabel03252505483D

 23 25  0  0  1  0  0  0  0  0999 V2000
   36.8300   28.3350   42.0140 C   0  0  0  0  0  0  0  0  0  0  0  0
   37.5160   29.5760   42.1330 C   0  0  0  0  0  0  0  0  0  0  0  0
   37.1170   30.6970   41.4000 C   0  0  0  0  0  0  0  0  0  0  0  0
   36.0400   30.5140   40.5780 N   0  0  0  0  0  0  0  0  0  0  0  0
   35.4110   29.2980   40.4970 C   0  0  0  0  0  0  0  0  0  0  0  0
   35.7860   28.2370   41.1880 N   0  0  0  0  0  0  0  0  0  0  0  0
   38.3590   29.6330   42.8070 H   0  0  0  0  0  0  0  0  0  0  0  0
   37.6220   31.6350   41.4820 H   0  0  0  0  0  0  0  0  0  0  0  0
   37.3180   27.1930   42.8040 C   0  0  1  0  0  0  0  0  0  0  0  0
   38.1780   26.2160   41.9210 C   0  0  1  0  0  0  0  0  0  0  0  0
   38.6670   26.9470   43.1490 C   0  0  0  0  0  0  0  0  0  0  0  0
   36.4790   26.6620   43.3350 H   0  0  0  0  0  0  0  0  0  0  0  0
   38.4740   26.5530   40.9300 H   0  0  0  0  0  0  0  0  0  0  0  0
   39.5080   27.6530   42.9310 H   0  0  0  0  0  0  0  0  0  0  0  0
   38.9020   26.3440   44.0540 H   0  0  0  0  0  0  0  0  0  0  0  0
   37.8730   24.7560   42.1580 C   0  0  0  0  0  0  0  0  0  0  0  0
   36.5790   24.5170   42.5110 F   0  0  0  0  0  0  0  0  0  0  0  0
   38.1330   24.0480   40.9650 F   0  0  0  0  0  0  0  0  0  0  0  0
   38.7550   24.2120   43.0810 F   0  0  0  0  0  0  0  0  0  0  0  0
   34.3300   29.2870   39.6070 O   0  0  0  0  0  0  0  0  0  0  0  0
   34.3380   28.5480   38.4210 C   0  0  0  0  0  3  0  0  0  0  0  0
   34.7370   29.1240   37.1270 C   0  0  0  0  0  2  0  0  0  0  0  0
   33.2990   28.9430   37.3920 C   0  0  0  0  0  2  0  0  0  0  0  0
  1  2  1  0  0  0  0
  1  9  1  0  0  0  0
  2  7  1  0  0  0  0
  3  8  1  0  0  0  0
  3  2  2  0  0  0  0
  4  3  1  0  0  0  0
  5  4  2  0  0  0  0
  5  6  1  0  0  0  0
  6  1  2  0  0  0  0
  9 11  1  0  0  0  0
  9 12  1  1  0  0  0
 10 13  1  6  0  0  0
 10 16  1  0  0  0  0
 10  9  1  0  0  0  0
 10 11  1  0  0  0  0
 11 15  1  0  0  0  0
 14 11  1  0  0  0  0
 16 17  1  0  0  0  0
 16 19  1  0  0  0  0
 18 16  1  0  0  0  0
 20  5  1  0  0  0  0
 21 20  1  0  0  0  0
 22 23  1  0  0  0  0
 22 21  1  0  0  0  0
 23 21  1  0  0  0  0
M  END
>  <minimizedAffinity>
-4.66596031

$$$$

 OpenBabel03252505483D

 23 25  0  0  1  0  0  0  0  0999 V2000
   37.9050   28.8900   41.7870 C   0  0  0  0  0  0  0  0  0  0  0  0
   38.5570   29.5590   42.8620 C   0  0  0  0  0  0  0  0  0  0  0  0
   39.4480   30.6090   42.6250 C   0  0  0  0  0  0  0  0  0  0  0  0
   39.6400   30.9390   41.3130 N   0  0  0  0  0  0  0  0  0  0  0  0
   38.9880   30.2650   40.3120 C   0  0  0  0  0  0  0  0  0  0  0  0
   38.1460   29.2710   40.5320 N   0  0  0  0  0  0  0  0  0  0  0  0
   38.3470   29.2330   43.8710 H   0  0  0  0  0  0  0  0  0  0  0  0
   39.9430   31.1200   43.4220 H   0  0  0  0  0  0  0  0  0  0  0  0
   36.9930   27.7810   42.1110 C   0  0  1  0  0  0  0  0  0  0  0  0
   37.7890   26.5010   42.5580 C   0  0  1  0  0  0  0  0  0  0  0  0
   36.7780   27.2420   43.4010 C   0  0  0  0  0  0  0  0  0  0  0  0
   36.2780   27.5670   41.2680 H   0  0  0  0  0  0  0  0  0  0  0  0
   38.8520   26.6090   42.7610 H   0  0  0  0  0  0  0  0  0  0  0  0
   37.2170   27.6670   44.3380 H   0  0  0  0  0  0  0  0  0  0  0  0
   35.8170   26.7300   43.6300 H   0  0  0  0  0  0  0  0  0  0  0  0
   37.2650   25.2190   41.9580 C   0  0  0  0  0  0  0  0  0  0  0  0
   36.9390   25.3250   40.6390 F   0  0  0  0  0  0  0  0  0  0  0  0
   38.2650   24.2300   42.0760 F   0  0  0  0  0  0  0  0  0  0  0  0
   36.2020   24.7250   42.7010 F   0  0  0  0  0  0  0  0  0  0  0  0
   39.3030   30.7300   39.0290 O   0  0  0  0  0  0  0  0  0  0  0  0
   38.7350   31.8860   38.4860 C   0  0  0  0  0  3  0  0  0  0  0  0
   37.3100   32.2180   38.6350 C   0  0  0  0  0  2  0  0  0  0  0  0
   37.7630   31.6680   37.3450 C   0  0  0  0  0  2  0  0  0  0  0  0
  1  9  1  0  0  0  0
  1  2  1  0  0  0  0
  2  7  1  0  0  0  0
  3  2  2  0  0  0  0
  3  8  1  0  0  0  0
  4  3  1  0  0  0  0
  5  6  1  0  0  0  0
  5  4  2  0  0  0  0
  6  1  2  0  0  0  0
  9 12  1  6  0  0  0
  9 10  1  0  0  0  0
  9 11  1  0  0  0  0
 10 13  1  1  0  0  0
 10 11  1  0  0  0  0
 11 15  1  0  0  0  0
 11 14  1  0  0  0  0
 16 18  1  0  0  0  0
 16 10  1  0  0  0  0
 16 19  1  0  0  0  0
 17 16  1  0  0  0  0
 20  5  1  0  0  0  0
 21 22  1  0  0  0  0
 21 20  1  0  0  0  0
 23 21  1  0  0  0  0
 23 22  1  0  0  0  0
M  END
>  <minimizedAffinity>
-4.60202742

$$$$

 OpenBabel03252505483D

 23 25  0  0  1  0  0  0  0  0999 V2000
   37.4470   26.7660   42.3370 C   0  0  0  0  0  0  0  0  0  0  0  0
   38.7040   26.9230   42.9880 C   0  0  0  0  0  0  0  0  0  0  0  0
   39.2480   28.1900   43.2120 C   0  0  0  0  0  0  0  0  0  0  0  0
   38.4980   29.2440   42.7700 N   0  0  0  0  0  0  0  0  0  0  0  0
   37.2930   29.0420   42.1490 C   0  0  0  0  0  0  0  0  0  0  0  0
   36.7750   27.8460   41.9350 N   0  0  0  0  0  0  0  0  0  0  0  0
   39.2320   26.0340   43.3050 H   0  0  0  0  0  0  0  0  0  0  0  0
   40.1900   28.3220   43.7000 H   0  0  0  0  0  0  0  0  0  0  0  0
   36.9440   25.4000   42.1190 C   0  0  1  0  0  0  0  0  0  0  0  0
   37.4120   24.8360   40.7270 C   0  0  1  0  0  0  0  0  0  0  0  0
   37.7350   24.2280   42.0720 C   0  0  0  0  0  0  0  0  0  0  0  0
   35.8280   25.3380   42.2510 H   0  0  0  0  0  0  0  0  0  0  0  0
   38.1710   25.3930   40.1830 H   0  0  0  0  0  0  0  0  0  0  0  0
   38.8340   24.2060   42.2890 H   0  0  0  0  0  0  0  0  0  0  0  0
   37.2790   23.2460   42.3230 H   0  0  0  0  0  0  0  0  0  0  0  0
   36.3270   24.1080   39.9720 C   0  0  0  0  0  0  0  0  0  0  0  0
   35.3450   23.6050   40.7720 F   0  0  0  0  0  0  0  0  0  0  0  0
   35.7280   25.0130   39.0700 F   0  0  0  0  0  0  0  0  0  0  0  0
   36.8690   23.1210   39.1610 F   0  0  0  0  0  0  0  0  0  0  0  0
   36.6600   30.2290   41.7590 O   0  0  0  0  0  0  0  0  0  0  0  0
   36.3710   30.5260   40.4240 C   0  0  0  0  0  3  0  0  0  0  0  0
   37.4030   30.5600   39.3760 C   0  0  0  0  0  2  0  0  0  0  0  0
   36.9150   31.8430   39.9110 C   0  0  0  0  0  2  0  0  0  0  0  0
  1  2  1  0  0  0  0
  2  3  2  0  0  0  0
  2  7  1  0  0  0  0
  3  8  1  0  0  0  0
  4  3  1  0  0  0  0
  5  4  2  0  0  0  0
  6  5  1  0  0  0  0
  6  1  2  0  0  0  0
  9 12  1  1  0  0  0
  9  1  1  0  0  0  0
 10 13  1  6  0  0  0
 10 11  1  0  0  0  0
 10  9  1  0  0  0  0
 11  9  1  0  0  0  0
 11 14  1  0  0  0  0
 11 15  1  0  0  0  0
 16 10  1  0  0  0  0
 16 17  1  0  0  0  0
 18 16  1  0  0  0  0
 19 16  1  0  0  0  0
 20  5  1  0  0  0  0
 21 20  1  0  0  0  0
 22 23  1  0  0  0  0
 22 21  1  0  0  0  0
 23 21  1  0  0  0  0
M  END
>  <minimizedAffinity>
-4.4957509

$$$$

 OpenBabel03252505483D

 23 25  0  0  1  0  0  0  0  0999 V2000
   37.3580   29.1610   41.9300 C   0  0  0  0  0  0  0  0  0  0  0  0
   38.5050   29.2660   42.7670 C   0  0  0  0  0  0  0  0  0  0  0  0
   39.0940   28.1320   43.3320 C   0  0  0  0  0  0  0  0  0  0  0  0
   38.4990   26.9400   43.0250 N   0  0  0  0  0  0  0  0  0  0  0  0
   37.3950   26.8900   42.2130 C   0  0  0  0  0  0  0  0  0  0  0  0
   36.8360   27.9600   41.6780 N   0  0  0  0  0  0  0  0  0  0  0  0
   38.9120   30.2490   42.9580 H   0  0  0  0  0  0  0  0  0  0  0  0
   39.9560   28.1970   43.9610 H   0  0  0  0  0  0  0  0  0  0  0  0
   36.7810   30.4000   41.3840 C   0  0  1  0  0  0  0  0  0  0  0  0
   37.4520   30.7860   40.0150 C   0  0  1  0  0  0  0  0  0  0  0  0
   35.9840   30.4950   40.2200 C   0  0  0  0  0  0  0  0  0  0  0  0
   36.8170   31.2430   42.1300 H   0  0  0  0  0  0  0  0  0  0  0  0
   38.0940   30.0490   39.5390 H   0  0  0  0  0  0  0  0  0  0  0  0
   35.6280   29.6110   39.6320 H   0  0  0  0  0  0  0  0  0  0  0  0
   35.2660   31.3370   40.1110 H   0  0  0  0  0  0  0  0  0  0  0  0
   37.7730   32.2560   39.8890 C   0  0  0  0  0  0  0  0  0  0  0  0
   38.2270   32.8190   41.0440 F   0  0  0  0  0  0  0  0  0  0  0  0
   38.7780   32.4100   38.9100 F   0  0  0  0  0  0  0  0  0  0  0  0
   36.6870   32.9550   39.3820 F   0  0  0  0  0  0  0  0  0  0  0  0
   36.9140   25.5910   42.0060 O   0  0  0  0  0  0  0  0  0  0  0  0
   37.0710   24.9140   40.7940 C   0  0  0  0  0  3  0  0  0  0  0  0
   36.1540   23.8530   40.3500 C   0  0  0  0  0  2  0  0  0  0  0  0
   37.4610   23.4540   40.9010 C   0  0  0  0  0  2  0  0  0  0  0  0
  1  2  1  0  0  0  0
  2  7  1  0  0  0  0
  2  3  2  0  0  0  0
  3  8  1  0  0  0  0
  4  3  1  0  0  0  0
  5  4  2  0  0  0  0
  6  1  2  0  0  0  0
  6  5  1  0  0  0  0
  9  1  1  0  0  0  0
  9 12  1  1  0  0  0
 10 13  1  6  0  0  0
 10 11  1  0  0  0  0
 10  9  1  0  0  0  0
 11  9  1  0  0  0  0
 14 11  1  0  0  0  0
 15 11  1  0  0  0  0
 16 10  1  0  0  0  0
 16 17  1  0  0  0  0
 18 16  1  0  0  0  0
 19 16  1  0  0  0  0
 20  5  1  0  0  0  0
 21 23  1  0  0  0  0
 21 20  1  0  0  0  0
 22 21  1  0  0  0  0
 22 23  1  0  0  0  0
M  END
>  <minimizedAffinity>
-4.44475603

$$$$

 OpenBabel03252505483D

 23 25  0  0  1  0  0  0  0  0999 V2000
   38.3050   28.3550   39.6370 C   0  0  0  0  0  0  0  0  0  0  0  0
   38.1960   28.2890   38.2190 C   0  0  0  0  0  0  0  0  0  0  0  0
   38.4570   29.4050   37.4200 C   0  0  0  0  0  0  0  0  0  0  0  0
   38.8170   30.5410   38.0900 N   0  0  0  0  0  0  0  0  0  0  0  0
   38.9090   30.5570   39.4580 C   0  0  0  0  0  0  0  0  0  0  0  0
   38.6620   29.5030   40.2160 N   0  0  0  0  0  0  0  0  0  0  0  0
   37.9040   27.3490   37.7710 H   0  0  0  0  0  0  0  0  0  0  0  0
   38.3800   29.3680   36.3550 H   0  0  0  0  0  0  0  0  0  0  0  0
   37.9980   27.1440   40.4140 C   0  0  1  0  0  0  0  0  0  0  0  0
   36.7550   27.3690   41.3520 C   0  0  1  0  0  0  0  0  0  0  0  0
   36.8500   26.3330   40.2570 C   0  0  0  0  0  0  0  0  0  0  0  0
   38.8970   26.7700   40.9790 H   0  0  0  0  0  0  0  0  0  0  0  0
   36.1620   28.2680   41.2030 H   0  0  0  0  0  0  0  0  0  0  0  0
   36.0870   26.4780   39.4500 H   0  0  0  0  0  0  0  0  0  0  0  0
   36.8880   25.2620   40.5550 H   0  0  0  0  0  0  0  0  0  0  0  0
   36.9340   26.8080   42.7420 C   0  0  0  0  0  0  0  0  0  0  0  0
   38.1580   27.0660   43.2830 F   0  0  0  0  0  0  0  0  0  0  0  0
   35.9600   27.3870   43.5840 F   0  0  0  0  0  0  0  0  0  0  0  0
   36.6490   25.4510   42.7670 F   0  0  0  0  0  0  0  0  0  0  0  0
   39.2870   31.8000   39.9780 O   0  0  0  0  0  0  0  0  0  0  0  0
   38.3720   32.6880   40.5510 C   0  0  0  0  0  3  0  0  0  0  0  0
   37.5660   33.6250   39.7530 C   0  0  0  0  0  2  0  0  0  0  0  0
   38.7390   34.1550   40.4700 C   0  0  0  0  0  2  0  0  0  0  0  0
  1  6  1  0  0  0  0
  1  9  1  0  0  0  0
  2  1  2  0  0  0  0
  3  4  2  0  0  0  0
  3  2  1  0  0  0  0
  4  5  1  0  0  0  0
  5 20  1  0  0  0  0
  5  6  2  0  0  0  0
  7  2  1  0  0  0  0
  8  3  1  0  0  0  0
  9 12  1  1  0  0  0
  9 10  1  0  0  0  0
 10 13  1  6  0  0  0
 10 16  1  0  0  0  0
 11  9  1  0  0  0  0
 11 15  1  0  0  0  0
 11 10  1  0  0  0  0
 14 11  1  0  0  0  0
 16 19  1  0  0  0  0
 16 17  1  0  0  0  0
 16 18  1  0  0  0  0
 20 21  1  0  0  0  0
 22 23  1  0  0  0  0
 22 21  1  0  0  0  0
 23 21  1  0  0  0  0
M  END
>  <minimizedAffinity>
-4.35820055

$$$$

 OpenBabel03252505483D

 23 25  0  0  1  0  0  0  0  0999 V2000
   39.0520   28.0250   42.9360 C   0  0  0  0  0  0  0  0  0  0  0  0
   37.7980   27.3520   42.9560 C   0  0  0  0  0  0  0  0  0  0  0  0
   36.6450   27.9530   42.4450 C   0  0  0  0  0  0  0  0  0  0  0  0
   36.8100   29.2100   41.9340 N   0  0  0  0  0  0  0  0  0  0  0  0
   38.0390   29.8190   41.9350 C   0  0  0  0  0  0  0  0  0  0  0  0
   39.1300   29.2530   42.4190 N   0  0  0  0  0  0  0  0  0  0  0  0
   37.7560   26.3580   43.3810 H   0  0  0  0  0  0  0  0  0  0  0  0
   35.6980   27.4580   42.4540 H   0  0  0  0  0  0  0  0  0  0  0  0
   40.2190   27.3360   43.5080 C   0  0  1  0  0  0  0  0  0  0  0  0
   41.1570   26.7710   42.3780 C   0  0  1  0  0  0  0  0  0  0  0  0
   41.5590   27.7810   43.4270 C   0  0  0  0  0  0  0  0  0  0  0  0
   39.9170   26.5440   44.2480 H   0  0  0  0  0  0  0  0  0  0  0  0
   40.9700   27.0910   41.3560 H   0  0  0  0  0  0  0  0  0  0  0  0
   41.8670   28.7660   42.9910 H   0  0  0  0  0  0  0  0  0  0  0  0
   42.2920   27.4640   44.2010 H   0  0  0  0  0  0  0  0  0  0  0  0
   41.6600   25.3740   42.6500 C   0  0  0  0  0  0  0  0  0  0  0  0
   42.5490   25.3020   43.6800 F   0  0  0  0  0  0  0  0  0  0  0  0
   40.5550   24.5590   42.9760 F   0  0  0  0  0  0  0  0  0  0  0  0
   42.1800   24.8050   41.4960 F   0  0  0  0  0  0  0  0  0  0  0  0
   38.0270   31.1030   41.3770 O   0  0  0  0  0  0  0  0  0  0  0  0
   36.9930   31.5560   40.5530 C   0  0  0  0  0  3  0  0  0  0  0  0
   37.0090   31.3900   39.0920 C   0  0  0  0  0  2  0  0  0  0  0  0
   37.3380   32.7170   39.6430 C   0  0  0  0  0  2  0  0  0  0  0  0
  1  2  1  0  0  0  0
  1  9  1  0  0  0  0
  2  7  1  0  0  0  0
  3  8  1  0  0  0  0
  3  2  2  0  0  0  0
  4  5  2  0  0  0  0
  4  3  1  0  0  0  0
  5  6  1  0  0  0  0
  6  1  2  0  0  0  0
  9 12  1  1  0  0  0
 10 13  1  6  0  0  0
 10 16  1  0  0  0  0
 10 11  1  0  0  0  0
 10  9  1  0  0  0  0
 11  9  1  0  0  0  0
 11 15  1  0  0  0  0
 14 11  1  0  0  0  0
 16 18  1  0  0  0  0
 16 17  1  0  0  0  0
 19 16  1  0  0  0  0
 20  5  1  0  0  0  0
 21 20  1  0  0  0  0
 22 23  1  0  0  0  0
 22 21  1  0  0  0  0
 23 21  1  0  0  0  0
M  END
>  <minimizedAffinity>
-4.35178804

$$$$

 OpenBabel03252505483D

 23 25  0  0  1  0  0  0  0  0999 V2000
   36.6810   28.7910   40.6640 C   0  0  0  0  0  0  0  0  0  0  0  0
   35.8310   28.7800   39.5220 C   0  0  0  0  0  0  0  0  0  0  0  0
   35.9530   29.7470   38.5200 C   0  0  0  0  0  0  0  0  0  0  0  0
   36.9300   30.6830   38.7160 N   0  0  0  0  0  0  0  0  0  0  0  0
   37.7250   30.6520   39.8340 C   0  0  0  0  0  0  0  0  0  0  0  0
   37.6120   29.7400   40.7820 N   0  0  0  0  0  0  0  0  0  0  0  0
   35.0830   28.0030   39.4460 H   0  0  0  0  0  0  0  0  0  0  0  0
   35.3230   29.7490   37.6580 H   0  0  0  0  0  0  0  0  0  0  0  0
   36.4820   27.7520   41.6870 C   0  0  1  0  0  0  0  0  0  0  0  0
   37.6190   26.6670   41.6240 C   0  0  1  0  0  0  0  0  0  0  0  0
   37.3070   27.5400   42.8160 C   0  0  0  0  0  0  0  0  0  0  0  0
   35.4540   27.2970   41.6280 H   0  0  0  0  0  0  0  0  0  0  0  0
   38.4890   26.8780   41.0060 H   0  0  0  0  0  0  0  0  0  0  0  0
   38.1580   28.2080   43.1040 H   0  0  0  0  0  0  0  0  0  0  0  0
   36.8840   27.0510   43.7220 H   0  0  0  0  0  0  0  0  0  0  0  0
   37.1140   25.2500   41.7530 C   0  0  0  0  0  0  0  0  0  0  0  0
   36.4470   24.8040   40.6510 F   0  0  0  0  0  0  0  0  0  0  0  0
   38.2210   24.4000   41.9610 F   0  0  0  0  0  0  0  0  0  0  0  0
   36.3460   25.1030   42.8990 F   0  0  0  0  0  0  0  0  0  0  0  0
   38.6700   31.6840   39.8750 O   0  0  0  0  0  0  0  0  0  0  0  0
   38.4650   32.8660   40.5930 C   0  0  0  0  0  3  0  0  0  0  0  0
   38.0010   34.1100   39.9620 C   0  0  0  0  0  2  0  0  0  0  0  0
   39.4320   33.9930   40.2960 C   0  0  0  0  0  2  0  0  0  0  0  0
  1  6  1  0  0  0  0
  1  9  1  0  0  0  0
  2  1  2  0  0  0  0
  3  4  2  0  0  0  0
  3  2  1  0  0  0  0
  4  5  1  0  0  0  0
  5 20  1  0  0  0  0
  5  6  2  0  0  0  0
  7  2  1  0  0  0  0
  8  3  1  0  0  0  0
  9 12  1  1  0  0  0
  9 11  1  0  0  0  0
 10 13  1  6  0  0  0
 10  9  1  0  0  0  0
 10 16  1  0  0  0  0
 10 11  1  0  0  0  0
 11 14  1  0  0  0  0
 11 15  1  0  0  0  0
 16 18  1  0  0  0  0
 16 19  1  0  0  0  0
 17 16  1  0  0  0  0
 20 21  1  0  0  0  0
 22 23  1  0  0  0  0
 22 21  1  0  0  0  0
 23 21  1  0  0  0  0
M  END
>  <minimizedAffinity>
-4.32450199

$$$$
