
 OpenBabel03252508503D

 22 24  0  0  0  0  0  0  0  0999 V2000
   45.7930   34.2350   41.0370 C   0  0  0  0  0  0  0  0  0  0  0  0
   46.4270   34.8020   42.1370 C   0  0  0  0  0  0  0  0  0  0  0  0
   47.8000   35.0780   42.0170 C   0  0  0  0  0  0  0  0  0  0  0  0
   48.4160   34.7750   40.8370 N   0  0  0  0  0  0  0  0  0  0  0  0
   47.7500   34.2260   39.8040 C   0  0  0  0  0  0  0  0  0  0  0  0
   46.4320   33.9480   39.8860 N   0  0  0  0  0  0  0  0  0  0  0  0
   48.3090   35.5200   42.8650 H   0  0  0  0  0  0  0  0  0  0  0  0
   48.2920   34.0040   38.8830 H   0  0  0  0  0  0  0  0  0  0  0  0
   45.6780   35.0860   43.3490 C   0  0  0  0  0  0  0  0  0  0  0  0
   45.0840   36.3070   43.5980 C   0  0  0  0  0  0  0  0  0  0  0  0
   44.4950   36.1380   44.8310 C   0  0  0  0  0  0  0  0  0  0  0  0
   44.7160   34.8930   45.3080 N   0  0  0  0  0  0  0  0  0  0  0  0
   45.4320   34.2790   44.3950 N   0  0  0  0  0  0  0  0  0  0  0  0
   45.0820   37.1920   42.9670 H   0  0  0  0  0  0  0  0  0  0  0  0
   43.9260   36.9290   45.3400 H   0  0  0  0  0  0  0  0  0  0  0  0
   44.3780   34.4970   46.2290 H   0  0  0  0  0  0  0  0  0  0  0  0
   44.4360   33.9580   41.1440 O   0  0  0  0  0  0  0  0  0  0  0  0
   43.4170   34.7110   40.6280 C   0  0  0  0  0  0  0  0  0  0  0  0
   42.7280   35.6130   41.2040 O   0  0  0  0  0  0  0  0  0  0  0  0
   42.7180   34.8120   39.2910 C   0  0  0  0  0  3  0  0  0  0  0  0
   42.1790   33.5540   38.6640 C   0  0  0  0  0  2  0  0  0  0  0  0
   41.2710   34.6180   39.1980 C   0  0  0  0  0  2  0  0  0  0  0  0
  1 17  1  0  0  0  0
  1  2  1  0  0  0  0
  2  9  1  0  0  0  0
  3  2  2  0  0  0  0
  3  7  1  0  0  0  0
  4  3  1  0  0  0  0
  5  6  1  0  0  0  0
  5  4  2  0  0  0  0
  6  1  2  0  0  0  0
  8  5  1  0  0  0  0
  9 10  1  0  0  0  0
  9 13  2  0  0  0  0
 10 11  2  0  0  0  0
 11 12  1  0  0  0  0
 11 15  1  0  0  0  0
 12 16  1  0  0  0  0
 13 12  1  0  0  0  0
 14 10  1  0  0  0  0
 18 17  1  0  0  0  0
 18 19  2  0  0  0  0
 20 18  1  0  0  0  0
 21 22  1  0  0  0  0
 21 20  1  0  0  0  0
 22 20  1  0  0  0  0
M  END
>  <minimizedAffinity>
-4.783216

>  <minimizedRMSD>
0.861739278

$$$$
