
 OpenBabel03252503013D

 24 25  0  0  0  0  0  0  0  0999 V2000
   43.2610   35.4550   41.5960 C   0  0  0  0  0  0  0  0  0  0  0  0
   44.3400   35.5460   41.2850 H   0  0  0  0  0  0  0  0  0  0  0  0
   42.6770   36.2640   41.1120 H   0  0  0  0  0  0  0  0  0  0  0  0
   43.2620   35.6170   43.0600 N   0  0  0  0  0  0  0  0  0  0  0  0
   42.5850   36.3390   43.3750 H   0  0  0  0  0  0  0  0  0  0  0  0
   44.8480   35.9280   43.6550 S   0  0  0  0  0  0  0  0  0  0  0  0
   45.8870   35.6710   42.6200 O   0  0  0  0  0  0  0  0  0  0  0  0
   46.3540   36.4240   42.1680 H   0  0  0  0  0  0  0  0  0  0  0  0
   44.8600   37.3840   44.0600 O   0  0  0  0  0  0  0  0  0  0  0  0
   44.4110   38.0490   43.4520 H   0  0  0  0  0  0  0  0  0  0  0  0
   45.1010   35.0550   45.0560 O   0  0  0  0  0  0  0  0  0  0  0  0
   45.4010   33.7280   44.8300 C   0  0  0  0  0  3  0  0  0  0  0  0
   46.0050   33.0180   46.0230 C   0  0  0  0  0  2  0  0  0  0  0  0
   46.8430   33.3070   44.8250 C   0  0  0  0  0  2  0  0  0  0  0  0
   42.7240   33.7940   41.2240 S   0  0  0  0  0  0  0  0  0  0  0  0
   40.0730   32.9700   41.3020 C   0  0  0  0  0  0  0  0  0  0  0  0
   40.9900   33.8200   40.6980 C   0  0  0  0  0  0  0  0  0  0  0  0
   40.6050   34.6970   39.6920 C   0  0  0  0  0  0  0  0  0  0  0  0
   39.2790   34.6770   39.3310 N   0  0  0  0  0  0  0  0  0  0  0  0
   38.4420   33.8400   39.9440 C   0  0  0  0  0  0  0  0  0  0  0  0
   38.7780   32.9980   40.9000 N   0  0  0  0  0  0  0  0  0  0  0  0
   40.3840   32.2910   42.0850 H   0  0  0  0  0  0  0  0  0  0  0  0
   41.3200   35.3720   39.2100 H   0  0  0  0  0  0  0  0  0  0  0  0
   37.4290   33.9450   39.5440 H   0  0  0  0  0  0  0  0  0  0  0  0
  1  4  1  0  0  0  0
  2  1  1  0  0  0  0
  3  1  1  0  0  0  0
  4  5  1  0  0  0  0
  4  6  1  0  0  0  0
  6  9  1  0  0  0  0
  6 11  1  0  0  0  0
  7  6  1  0  0  0  0
  8  7  1  0  0  0  0
 10  9  1  0  0  0  0
 12 11  1  0  0  0  0
 12 13  1  0  0  0  0
 14 12  1  0  0  0  0
 14 13  1  0  0  0  0
 15  1  1  0  0  0  0
 16 22  1  0  0  0  0
 17 15  1  0  0  0  0
 17 16  2  0  0  0  0
 18 17  1  0  0  0  0
 19 18  2  0  0  0  0
 19 20  1  0  0  0  0
 20 21  2  0  0  0  0
 21 16  1  0  0  0  0
 23 18  1  0  0  0  0
 24 20  1  0  0  0  0
M  END
>  <minimizedAffinity>
-4.69938755

>  <minimizedRMSD>
1.3164475

$$$$
