
 OpenBabel03242523403D

 31 35  0  0  1  0  0  0  0  0999 V2000
   47.0070   32.1960   45.6320 C   0  0  2  0  0  0  0  0  0  0  0  0
   47.5490   31.0450   45.7140 N   0  0  2  0  0  0  0  0  0  0  0  0
   47.5520   29.8090   45.5010 C   0  0  0  0  0  0  0  0  0  0  0  0
   47.5700   29.6910   46.8680 N   0  0  0  0  0  0  0  0  0  0  0  0
   46.6450   30.5150   47.4610 C   0  0  0  0  0  0  0  0  0  0  0  0
   46.0660   30.0190   48.6670 C   0  0  0  0  0  0  0  0  0  0  0  0
   45.1150   30.7760   49.2330 C   0  0  0  0  0  0  0  0  0  0  0  0
   44.6760   31.9540   48.7470 C   0  0  0  0  0  0  0  0  0  0  0  0
   45.3290   32.3190   47.5650 C   0  0  0  0  0  0  0  0  0  0  0  0
   46.3280   31.7200   46.7970 C   0  0  1  0  0  0  0  0  0  0  0  0
   47.8030   32.8970   46.2130 H   0  0  0  0  0  0  0  0  0  0  0  0
   48.5620   31.2460   45.3030 H   0  0  0  0  0  0  0  0  0  0  0  0
   48.3850   29.1720   45.0650 H   0  0  0  0  0  0  0  0  0  0  0  0
   46.6570   29.3300   45.0480 H   0  0  0  0  0  0  0  0  0  0  0  0
   48.2290   29.0280   47.3970 H   0  0  0  0  0  0  0  0  0  0  0  0
   46.3640   29.0930   49.1160 H   0  0  0  0  0  0  0  0  0  0  0  0
   44.6780   30.3770   50.1670 H   0  0  0  0  0  0  0  0  0  0  0  0
   43.9290   32.4860   49.2430 H   0  0  0  0  0  0  0  0  0  0  0  0
   44.8760   33.2740   47.3000 H   0  0  0  0  0  0  0  0  0  0  0  0
   44.8740   35.1620   45.0330 C   0  0  0  0  0  0  0  0  0  0  0  0
   45.2690   35.3680   43.6960 C   0  0  0  0  0  0  0  0  0  0  0  0
   46.1820   34.4780   43.1600 C   0  0  0  0  0  0  0  0  0  0  0  0
   46.6150   33.4860   43.9730 N   0  0  0  0  0  0  0  0  0  0  0  0
   46.2240   33.3010   45.2650 C   0  0  0  0  0  0  0  0  0  0  0  0
   45.3920   34.1560   45.6690 N   0  0  0  0  0  0  0  0  0  0  0  0
   44.1600   35.7990   45.5610 H   0  0  0  0  0  0  0  0  0  0  0  0
   44.8330   36.2080   43.1780 H   0  0  0  0  0  0  0  0  0  0  0  0
   46.6880   34.7240   41.4910 S   0  0  0  0  0  0  0  0  0  0  0  0
   48.4650   34.7210   41.2440 C   0  0  0  0  0  0  0  0  0  0  0  0
   49.3530   34.9600   42.4110 C   0  0  0  0  0  0  0  0  0  0  0  0
   49.1230   36.0850   41.4200 C   0  0  0  0  0  0  0  0  0  0  0  0
  1  2  1  0  0  0  0
  1 11  1  1  0  0  0
  1 10  1  0  0  0  0
  2 12  1  1  0  0  0
  2 10  1  0  0  0  0
  3  2  1  0  0  0  0
  3  4  1  0  0  0  0
  4 15  1  0  0  0  0
  4  5  1  0  0  0  0
  5  6  2  0  0  0  0
  6 16  1  0  0  0  0
  6  7  1  0  0  0  0
  7 17  1  0  0  0  0
  8  7  2  0  0  0  0
  8 18  1  0  0  0  0
  9  8  1  0  0  0  0
 10  5  1  1  0  0  0
 10  9  1  0  0  0  0
 13  3  1  0  0  0  0
 14  3  1  0  0  0  0
 19  9  1  0  0  0  0
 20 26  1  0  0  0  0
 20 25  1  0  0  0  0
 21 20  2  0  0  0  0
 22 21  1  0  0  0  0
 22 23  2  0  0  0  0
 23 24  1  0  0  0  0
 24  1  1  0  0  0  0
 24 25  2  0  0  0  0
 27 21  1  0  0  0  0
 28 22  1  0  0  0  0
 29 31  1  0  0  0  0
 29 28  1  0  0  0  0
 29 30  1  0  0  0  0
 31 30  1  0  0  0  0
M  END
>  <minimizedAffinity>
-5.63161993

>  <minimizedRMSD>
1.43612027

$$$$
