
 OpenBabel03252501323D

 18 19  0  0  0  0  0  0  0  0999 V2000
   45.7470   34.5360   44.0530 C   0  0  0  0  0  0  0  0  0  0  0  0
   45.3270   34.3690   45.3590 C   0  0  0  0  0  0  0  0  0  0  0  0
   45.9730   33.3790   46.0900 C   0  0  0  0  0  0  0  0  0  0  0  0
   46.9400   32.6720   45.4860 N   0  0  0  0  0  0  0  0  0  0  0  0
   47.3230   32.8590   44.2190 C   0  0  0  0  0  0  0  0  0  0  0  0
   46.7190   33.8130   43.4720 N   0  0  0  0  0  0  0  0  0  0  0  0
   45.6340   33.2610   47.1090 H   0  0  0  0  0  0  0  0  0  0  0  0
   48.1160   32.2150   43.8640 H   0  0  0  0  0  0  0  0  0  0  0  0
   44.2650   34.8580   42.2640 C   0  0  0  0  0  0  0  0  0  0  0  0
   44.1680   33.6070   42.5360 O   0  0  0  0  0  0  0  0  0  0  0  0
   45.2050   35.5090   43.1210 N   0  0  0  0  0  0  0  0  0  0  0  0
   45.4110   36.5280   43.0260 H   0  0  0  0  0  0  0  0  0  0  0  0
   43.5240   35.5970   41.2060 C   0  0  0  0  0  3  0  0  0  0  0  0
   42.7760   34.8540   40.1640 C   0  0  0  0  0  2  0  0  0  0  0  0
   42.0140   35.5550   41.2230 C   0  0  0  0  0  2  0  0  0  0  0  0
   44.2860   35.2200   45.8180 N   0  0  0  0  0  0  0  0  0  0  0  0
   44.3110   36.1490   46.2720 H   0  0  0  0  0  0  0  0  0  0  0  0
   43.5180   34.5480   45.5200 H   0  0  0  0  0  0  0  0  0  0  0  0
  1  2  1  0  0  0  0
  2 16  1  0  0  0  0
  2  3  2  0  0  0  0
  3  7  1  0  0  0  0
  4  3  1  0  0  0  0
  5  4  2  0  0  0  0
  6  1  2  0  0  0  0
  6  5  1  0  0  0  0
  8  5  1  0  0  0  0
  9 10  2  0  0  0  0
  9 11  1  0  0  0  0
 11  1  1  0  0  0  0
 12 11  1  0  0  0  0
 13 15  1  0  0  0  0
 13  9  1  0  0  0  0
 14 13  1  0  0  0  0
 14 15  1  0  0  0  0
 16 17  1  0  0  0  0
 18 16  1  0  0  0  0
M  END
>  <minimizedAffinity>
-4.34599113

>  <minimizedRMSD>
1.24671352

$$$$
