
 OpenBabel03252503103D

 21 23  0  0  0  0  0  0  0  0999 V2000
   38.3450   29.6870   42.5230 C   0  0  0  0  0  0  0  0  0  0  0  0
   37.5930   29.6250   41.3380 C   0  0  0  0  0  0  0  0  0  0  0  0
   36.5970   28.6660   41.3090 C   0  0  0  0  0  0  0  0  0  0  0  0
   36.3610   27.8460   42.3460 N   0  0  0  0  0  0  0  0  0  0  0  0
   37.1150   27.9370   43.4840 C   0  0  0  0  0  0  0  0  0  0  0  0
   38.1040   28.8630   43.5590 N   0  0  0  0  0  0  0  0  0  0  0  0
   39.1450   30.3970   42.6540 H   0  0  0  0  0  0  0  0  0  0  0  0
   36.8770   27.2500   44.2830 H   0  0  0  0  0  0  0  0  0  0  0  0
   35.8200   28.5490   40.1580 C   0  0  0  0  0  0  0  0  0  0  0  0
   34.6720   29.1560   39.6930 C   0  0  0  0  0  0  0  0  0  0  0  0
   34.1070   28.8540   38.5240 C   0  0  0  0  0  0  0  0  0  0  0  0
   34.7480   27.8880   37.8050 C   0  0  0  0  0  0  0  0  0  0  0  0
   36.1920   27.4090   38.8340 S   0  0  0  0  0  0  0  0  0  0  0  0
   34.1080   29.9500   40.1550 H   0  0  0  0  0  0  0  0  0  0  0  0
   33.2480   29.1800   37.9770 H   0  0  0  0  0  0  0  0  0  0  0  0
   34.6440   27.3740   36.8760 H   0  0  0  0  0  0  0  0  0  0  0  0
   37.8850   30.5420   40.2940 C   0  0  0  0  0  0  0  0  0  0  0  0
   38.7470   30.1460   39.4280 O   0  0  0  0  0  0  0  0  0  0  0  0
   37.1600   31.8830   40.3210 C   0  0  0  0  0  3  0  0  0  0  0  0
   37.1780   32.7940   39.1860 C   0  0  0  0  0  2  0  0  0  0  0  0
   38.0560   33.1080   40.3160 C   0  0  0  0  0  2  0  0  0  0  0  0
  1  7  1  0  0  0  0
  1  6  1  0  0  0  0
  2  1  2  0  0  0  0
  3  2  1  0  0  0  0
  3  4  2  0  0  0  0
  4  5  1  0  0  0  0
  5  6  2  0  0  0  0
  5  8  1  0  0  0  0
  9  3  1  0  0  0  0
 10 14  1  0  0  0  0
 10  9  2  0  0  0  0
 11 10  1  0  0  0  0
 12 11  2  0  0  0  0
 12 13  1  0  0  0  0
 13  9  1  0  0  0  0
 15 11  1  0  0  0  0
 16 12  1  0  0  0  0
 17 19  1  0  0  0  0
 17  2  1  0  0  0  0
 18 17  2  0  0  0  0
 20 21  1  0  0  0  0
 20 19  1  0  0  0  0
 21 19  1  0  0  0  0
M  END
>  <minimizedAffinity>
-4.51576757

$$$$

 OpenBabel03252503103D

 21 23  0  0  1  0  0  0  0  0999 V2000
   35.8320   29.3470   41.0550 C   0  0  0  0  0  0  0  0  0  0  0  0
   36.4910   28.1740   41.4620 C   0  0  0  0  0  0  0  0  0  0  0  0
   36.6540   27.2090   40.4850 C   0  0  0  0  0  0  0  0  0  0  0  0
   36.2130   27.3800   39.2280 N   0  0  0  0  0  0  0  0  0  0  0  0
   35.5760   28.5370   38.8700 C   0  0  0  0  0  0  0  0  0  0  0  0
   35.3920   29.5130   39.7950 N   0  0  0  0  0  0  0  0  0  0  0  0
   35.6510   30.1640   41.7350 H   0  0  0  0  0  0  0  0  0  0  0  0
   35.2450   28.6140   37.8450 H   0  0  0  0  0  0  0  0  0  0  0  0
   37.2930   26.0190   40.8270 C   0  0  0  0  0  0  0  0  0  0  0  0
   36.9490   24.9080   41.5680 C   0  0  0  0  0  0  0  0  0  0  0  0
   37.7670   23.8710   41.7540 C   0  0  0  0  0  0  0  0  0  0  0  0
   38.9870   23.9820   41.1550 C   0  0  0  0  0  0  0  0  0  0  0  0
   38.9530   25.6120   40.3060 S   0  0  0  0  0  0  0  0  0  0  0  0
   36.0090   24.6970   42.0500 H   0  0  0  0  0  0  0  0  0  0  0  0
   37.7190   22.9360   42.2710 H   0  0  0  0  0  0  0  0  0  0  0  0
   39.8880   23.4210   41.0530 H   0  0  0  0  0  0  0  0  0  0  0  0
   36.9510   28.0780   42.8010 C   0  0  2  0  0  3  0  0  0  0  0  0
   36.1990   27.4110   43.6020 O   0  0  0  0  0  1  0  0  0  0  0  0
   38.2630   28.7750   43.1400 C   0  0  0  0  0  3  0  0  0  0  0  0
   39.3770   28.8230   42.2040 C   0  0  0  0  0  2  0  0  0  0  0  0
   39.4630   27.8590   43.3050 C   0  0  0  0  0  2  0  0  0  0  0  0
  1  2  1  0  0  0  0
  1  7  1  0  0  0  0
  2 17  1  0  0  0  0
  3  9  1  0  0  0  0
  3  2  2  0  0  0  0
  4  3  1  0  0  0  0
  5  4  2  0  0  0  0
  5  6  1  0  0  0  0
  6  1  2  0  0  0  0
  8  5  1  0  0  0  0
  9 10  2  0  0  0  0
 10 11  1  0  0  0  0
 10 14  1  0  0  0  0
 11 15  1  0  0  0  0
 12 11  2  0  0  0  0
 13  9  1  0  0  0  0
 13 12  1  0  0  0  0
 16 12  1  0  0  0  0
 17 19  1  0  0  0  0
 17 18  1  1  0  0  0
 19 21  1  0  0  0  0
 20 19  1  0  0  0  0
 20 21  1  0  0  0  0
M  END
>  <minimizedAffinity>
-4.33469486

$$$$

 OpenBabel03252503103D

 21 23  0  0  0  0  0  0  0  0999 V2000
   39.4170   32.2220   41.2060 C   0  0  0  0  0  0  0  0  0  0  0  0
   38.5180   31.1990   40.8600 C   0  0  0  0  0  0  0  0  0  0  0  0
   37.4200   31.5920   40.1170 C   0  0  0  0  0  0  0  0  0  0  0  0
   37.2240   32.8680   39.7460 N   0  0  0  0  0  0  0  0  0  0  0  0
   38.1230   33.8360   40.1020 C   0  0  0  0  0  0  0  0  0  0  0  0
   39.2170   33.4990   40.8320 N   0  0  0  0  0  0  0  0  0  0  0  0
   40.3060   32.0290   41.7840 H   0  0  0  0  0  0  0  0  0  0  0  0
   37.9100   34.8430   39.7740 H   0  0  0  0  0  0  0  0  0  0  0  0
   36.4870   30.6250   39.7480 C   0  0  0  0  0  0  0  0  0  0  0  0
   35.4480   29.9820   40.3880 C   0  0  0  0  0  0  0  0  0  0  0  0
   34.6820   29.0630   39.7990 C   0  0  0  0  0  0  0  0  0  0  0  0
   34.9970   28.7970   38.4990 C   0  0  0  0  0  0  0  0  0  0  0  0
   36.4240   29.8920   38.1210 S   0  0  0  0  0  0  0  0  0  0  0  0
   35.0890   30.1380   41.3930 H   0  0  0  0  0  0  0  0  0  0  0  0
   33.8520   28.4540   40.0860 H   0  0  0  0  0  0  0  0  0  0  0  0
   34.6630   28.1710   37.7020 H   0  0  0  0  0  0  0  0  0  0  0  0
   38.8060   29.8700   41.2670 C   0  0  0  0  0  0  0  0  0  0  0  0
   39.2530   29.0910   40.3480 O   0  0  0  0  0  0  0  0  0  0  0  0
   38.5480   29.5150   42.7270 C   0  0  0  0  0  3  0  0  0  0  0  0
   38.8640   28.2030   43.2700 C   0  0  0  0  0  2  0  0  0  0  0  0
   37.4590   28.4840   42.9640 C   0  0  0  0  0  2  0  0  0  0  0  0
  1  7  1  0  0  0  0
  2  1  1  0  0  0  0
  2 17  1  0  0  0  0
  3  2  2  0  0  0  0
  4  5  2  0  0  0  0
  4  3  1  0  0  0  0
  5  6  1  0  0  0  0
  6  1  2  0  0  0  0
  8  5  1  0  0  0  0
  9  3  1  0  0  0  0
  9 10  2  0  0  0  0
 10 14  1  0  0  0  0
 11 15  1  0  0  0  0
 11 10  1  0  0  0  0
 12 11  2  0  0  0  0
 13 12  1  0  0  0  0
 13  9  1  0  0  0  0
 16 12  1  0  0  0  0
 17 19  1  0  0  0  0
 18 17  2  0  0  0  0
 19 21  1  0  0  0  0
 19 20  1  0  0  0  0
 21 20  1  0  0  0  0
M  END
>  <minimizedAffinity>
-4.3308301

$$$$

 OpenBabel03252503103D

 21 23  0  0  0  0  0  0  0  0999 V2000
   39.2920   28.1210   42.9880 C   0  0  0  0  0  0  0  0  0  0  0  0
   38.1220   28.0060   42.2190 C   0  0  0  0  0  0  0  0  0  0  0  0
   37.9370   28.9840   41.2590 C   0  0  0  0  0  0  0  0  0  0  0  0
   38.8180   29.9790   41.0700 N   0  0  0  0  0  0  0  0  0  0  0  0
   39.9470   30.0580   41.8390 C   0  0  0  0  0  0  0  0  0  0  0  0
   40.1720   29.1210   42.7950 N   0  0  0  0  0  0  0  0  0  0  0  0
   39.5360   27.4140   43.7640 H   0  0  0  0  0  0  0  0  0  0  0  0
   40.6170   30.8810   41.6390 H   0  0  0  0  0  0  0  0  0  0  0  0
   36.7910   28.9300   40.4680 C   0  0  0  0  0  0  0  0  0  0  0  0
   35.4810   29.3330   40.6240 C   0  0  0  0  0  0  0  0  0  0  0  0
   34.5450   29.1580   39.6910 C   0  0  0  0  0  0  0  0  0  0  0  0
   34.9740   28.5420   38.5510 C   0  0  0  0  0  0  0  0  0  0  0  0
   36.7600   28.2120   38.8320 S   0  0  0  0  0  0  0  0  0  0  0  0
   35.0430   29.8570   41.4580 H   0  0  0  0  0  0  0  0  0  0  0  0
   33.5040   29.3800   39.5920 H   0  0  0  0  0  0  0  0  0  0  0  0
   34.5820   28.2250   37.6110 H   0  0  0  0  0  0  0  0  0  0  0  0
   37.2510   26.9110   42.4600 C   0  0  0  0  0  0  0  0  0  0  0  0
   36.3880   27.0810   43.3970 O   0  0  0  0  0  0  0  0  0  0  0  0
   37.4390   25.6680   41.5990 C   0  0  0  0  0  3  0  0  0  0  0  0
   36.7770   24.4090   41.9050 C   0  0  0  0  0  2  0  0  0  0  0  0
   38.1940   24.5270   42.2570 C   0  0  0  0  0  2  0  0  0  0  0  0
  1  7  1  0  0  0  0
  2 17  1  0  0  0  0
  2  1  2  0  0  0  0
  3  2  1  0  0  0  0
  4  3  2  0  0  0  0
  4  5  1  0  0  0  0
  5  6  2  0  0  0  0
  6  1  1  0  0  0  0
  8  5  1  0  0  0  0
  9 10  2  0  0  0  0
  9  3  1  0  0  0  0
 10 14  1  0  0  0  0
 11 10  1  0  0  0  0
 12 13  1  0  0  0  0
 12 11  2  0  0  0  0
 13  9  1  0  0  0  0
 15 11  1  0  0  0  0
 16 12  1  0  0  0  0
 17 18  2  0  0  0  0
 19 20  1  0  0  0  0
 19 21  1  0  0  0  0
 19 17  1  0  0  0  0
 20 21  1  0  0  0  0
M  END
>  <minimizedAffinity>
-4.24221182

$$$$

 OpenBabel03252503103D

 21 23  0  0  0  0  0  0  0  0999 V2000
   37.0280   24.9210   41.8570 C   0  0  0  0  0  0  0  0  0  0  0  0
   37.0040   26.3160   41.6900 C   0  0  0  0  0  0  0  0  0  0  0  0
   36.6200   26.7630   40.4400 C   0  0  0  0  0  0  0  0  0  0  0  0
   36.2890   25.9210   39.4470 N   0  0  0  0  0  0  0  0  0  0  0  0
   36.3240   24.5680   39.6490 C   0  0  0  0  0  0  0  0  0  0  0  0
   36.6950   24.0810   40.8600 N   0  0  0  0  0  0  0  0  0  0  0  0
   37.3130   24.4630   42.7910 H   0  0  0  0  0  0  0  0  0  0  0  0
   36.0460   23.9440   38.8130 H   0  0  0  0  0  0  0  0  0  0  0  0
   36.5830   28.1370   40.2080 C   0  0  0  0  0  0  0  0  0  0  0  0
   35.6940   29.1490   40.5010 C   0  0  0  0  0  0  0  0  0  0  0  0
   35.8920   30.4210   40.1540 C   0  0  0  0  0  0  0  0  0  0  0  0
   37.0520   30.6610   39.4780 C   0  0  0  0  0  0  0  0  0  0  0  0
   37.8700   29.0210   39.3410 S   0  0  0  0  0  0  0  0  0  0  0  0
   34.7730   29.0830   41.0590 H   0  0  0  0  0  0  0  0  0  0  0  0
   35.3630   31.3430   40.2690 H   0  0  0  0  0  0  0  0  0  0  0  0
   37.5740   31.4810   39.0390 H   0  0  0  0  0  0  0  0  0  0  0  0
   37.3430   27.1420   42.7940 C   0  0  0  0  0  0  0  0  0  0  0  0
   36.4150   27.3170   43.6640 O   0  0  0  0  0  0  0  0  0  0  0  0
   38.7490   27.7300   42.8200 C   0  0  0  0  0  3  0  0  0  0  0  0
   39.8820   27.0500   42.2110 C   0  0  0  0  0  2  0  0  0  0  0  0
   39.7560   26.9740   43.6690 C   0  0  0  0  0  2  0  0  0  0  0  0
  1  7  1  0  0  0  0
  2  1  1  0  0  0  0
  2 17  1  0  0  0  0
  3  2  2  0  0  0  0
  4  5  2  0  0  0  0
  4  3  1  0  0  0  0
  5  6  1  0  0  0  0
  6  1  2  0  0  0  0
  8  5  1  0  0  0  0
  9  3  1  0  0  0  0
  9 10  2  0  0  0  0
 10 14  1  0  0  0  0
 11 15  1  0  0  0  0
 11 10  1  0  0  0  0
 12 11  2  0  0  0  0
 13 12  1  0  0  0  0
 13  9  1  0  0  0  0
 16 12  1  0  0  0  0
 17 19  1  0  0  0  0
 17 18  2  0  0  0  0
 19 21  1  0  0  0  0
 20 19  1  0  0  0  0
 20 21  1  0  0  0  0
M  END
>  <minimizedAffinity>
-4.19423389

$$$$

 OpenBabel03252503103D

 21 23  0  0  0  0  0  0  0  0999 V2000
   37.3620   33.1810   39.7650 C   0  0  0  0  0  0  0  0  0  0  0  0
   37.5740   31.8900   40.2760 C   0  0  0  0  0  0  0  0  0  0  0  0
   38.7740   31.6940   40.9330 C   0  0  0  0  0  0  0  0  0  0  0  0
   39.6810   32.6740   41.0770 N   0  0  0  0  0  0  0  0  0  0  0  0
   39.4390   33.9200   40.5660 C   0  0  0  0  0  0  0  0  0  0  0  0
   38.2740   34.1600   39.9130 N   0  0  0  0  0  0  0  0  0  0  0  0
   36.4610   33.4450   39.2350 H   0  0  0  0  0  0  0  0  0  0  0  0
   40.2060   34.6650   40.7150 H   0  0  0  0  0  0  0  0  0  0  0  0
   39.0470   30.4320   41.4570 C   0  0  0  0  0  0  0  0  0  0  0  0
   38.7680   29.7900   42.6450 C   0  0  0  0  0  0  0  0  0  0  0  0
   39.1570   28.5430   42.9120 C   0  0  0  0  0  0  0  0  0  0  0  0
   39.8620   27.9320   41.9170 C   0  0  0  0  0  0  0  0  0  0  0  0
   39.9640   29.1800   40.5720 S   0  0  0  0  0  0  0  0  0  0  0  0
   38.1920   30.1580   43.4780 H   0  0  0  0  0  0  0  0  0  0  0  0
   39.0600   27.8650   43.7340 H   0  0  0  0  0  0  0  0  0  0  0  0
   40.3350   26.9960   41.7230 H   0  0  0  0  0  0  0  0  0  0  0  0
   36.5570   30.9130   40.1060 C   0  0  0  0  0  0  0  0  0  0  0  0
   35.7790   30.7380   41.1130 O   0  0  0  0  0  0  0  0  0  0  0  0
   36.5080   30.1830   38.7690 C   0  0  0  0  0  3  0  0  0  0  0  0
   35.4100   29.2970   38.4130 C   0  0  0  0  0  2  0  0  0  0  0  0
   36.6640   28.6740   38.8450 C   0  0  0  0  0  2  0  0  0  0  0  0
  1  6  2  0  0  0  0
  1  2  1  0  0  0  0
  2  3  2  0  0  0  0
  3  4  1  0  0  0  0
  3  9  1  0  0  0  0
  5  8  1  0  0  0  0
  5  4  2  0  0  0  0
  6  5  1  0  0  0  0
  7  1  1  0  0  0  0
  9 10  2  0  0  0  0
 10 11  1  0  0  0  0
 10 14  1  0  0  0  0
 11 15  1  0  0  0  0
 12 11  2  0  0  0  0
 13  9  1  0  0  0  0
 13 12  1  0  0  0  0
 16 12  1  0  0  0  0
 17  2  1  0  0  0  0
 17 18  2  0  0  0  0
 19 21  1  0  0  0  0
 19 17  1  0  0  0  0
 20 19  1  0  0  0  0
 20 21  1  0  0  0  0
M  END
>  <minimizedAffinity>
-4.16584301

$$$$

 OpenBabel03252503103D

 21 23  0  0  0  0  0  0  0  0999 V2000
   35.5900   29.4030   38.3420 C   0  0  0  0  0  0  0  0  0  0  0  0
   36.2270   29.3460   39.5930 C   0  0  0  0  0  0  0  0  0  0  0  0
   36.5270   28.0790   40.0560 C   0  0  0  0  0  0  0  0  0  0  0  0
   36.2300   26.9710   39.3560 N   0  0  0  0  0  0  0  0  0  0  0  0
   35.6090   27.0670   38.1410 C   0  0  0  0  0  0  0  0  0  0  0  0
   35.2950   28.2910   37.6450 N   0  0  0  0  0  0  0  0  0  0  0  0
   35.3110   30.3400   37.8860 H   0  0  0  0  0  0  0  0  0  0  0  0
   35.3970   26.1410   37.6280 H   0  0  0  0  0  0  0  0  0  0  0  0
   37.1530   27.9540   41.2940 C   0  0  0  0  0  0  0  0  0  0  0  0
   36.7180   27.7740   42.5910 C   0  0  0  0  0  0  0  0  0  0  0  0
   37.5430   27.6880   43.6340 C   0  0  0  0  0  0  0  0  0  0  0  0
   38.8700   27.7910   43.3320 C   0  0  0  0  0  0  0  0  0  0  0  0
   38.9250   28.0160   41.5090 S   0  0  0  0  0  0  0  0  0  0  0  0
   35.7060   27.6430   42.9390 H   0  0  0  0  0  0  0  0  0  0  0  0
   37.4390   27.5540   44.6900 H   0  0  0  0  0  0  0  0  0  0  0  0
   39.8120   27.7770   43.8310 H   0  0  0  0  0  0  0  0  0  0  0  0
   36.5320   30.5620   40.2600 C   0  0  0  0  0  0  0  0  0  0  0  0
   35.7980   30.8380   41.2780 O   0  0  0  0  0  0  0  0  0  0  0  0
   37.6750   31.3990   39.6990 C   0  0  0  0  0  3  0  0  0  0  0  0
   38.0410   32.6880   40.2670 C   0  0  0  0  0  2  0  0  0  0  0  0
   37.2630   32.6960   39.0260 C   0  0  0  0  0  2  0  0  0  0  0  0
  1  2  1  0  0  0  0
  2  3  2  0  0  0  0
  2 17  1  0  0  0  0
  3  9  1  0  0  0  0
  4  3  1  0  0  0  0
  5  4  2  0  0  0  0
  6  5  1  0  0  0  0
  6  1  2  0  0  0  0
  7  1  1  0  0  0  0
  8  5  1  0  0  0  0
  9 13  1  0  0  0  0
  9 10  2  0  0  0  0
 10 14  1  0  0  0  0
 10 11  1  0  0  0  0
 11 15  1  0  0  0  0
 12 11  2  0  0  0  0
 12 16  1  0  0  0  0
 13 12  1  0  0  0  0
 17 18  2  0  0  0  0
 19 17  1  0  0  0  0
 19 20  1  0  0  0  0
 21 19  1  0  0  0  0
 21 20  1  0  0  0  0
M  END
>  <minimizedAffinity>
-4.15670109

$$$$

 OpenBabel03252503103D

 21 23  0  0  0  0  0  0  0  0999 V2000
   35.8600   28.3080   40.1300 C   0  0  0  0  0  0  0  0  0  0  0  0
   37.0240   27.7840   40.7170 C   0  0  0  0  0  0  0  0  0  0  0  0
   37.7360   28.6570   41.5190 C   0  0  0  0  0  0  0  0  0  0  0  0
   37.3420   29.9240   41.7250 N   0  0  0  0  0  0  0  0  0  0  0  0
   36.2010   30.3980   41.1360 C   0  0  0  0  0  0  0  0  0  0  0  0
   35.4690   29.5780   40.3400 N   0  0  0  0  0  0  0  0  0  0  0  0
   35.2300   27.7150   39.4870 H   0  0  0  0  0  0  0  0  0  0  0  0
   35.9370   31.4250   41.3410 H   0  0  0  0  0  0  0  0  0  0  0  0
   38.9050   28.2010   42.1250 C   0  0  0  0  0  0  0  0  0  0  0  0
   39.2030   27.5820   43.3210 C   0  0  0  0  0  0  0  0  0  0  0  0
   40.4410   27.2410   43.6800 C   0  0  0  0  0  0  0  0  0  0  0  0
   41.4110   27.5490   42.7720 C   0  0  0  0  0  0  0  0  0  0  0  0
   40.5200   28.3450   41.3750 S   0  0  0  0  0  0  0  0  0  0  0  0
   38.5200   27.2600   44.0900 H   0  0  0  0  0  0  0  0  0  0  0  0
   40.8960   26.7710   44.5250 H   0  0  0  0  0  0  0  0  0  0  0  0
   42.4680   27.4600   42.6610 H   0  0  0  0  0  0  0  0  0  0  0  0
   37.3630   26.4270   40.4720 C   0  0  0  0  0  0  0  0  0  0  0  0
   37.9880   26.1990   39.3730 O   0  0  0  0  0  0  0  0  0  0  0  0
   36.9450   25.4040   41.5210 C   0  0  0  0  0  3  0  0  0  0  0  0
   37.7540   24.2320   41.8230 C   0  0  0  0  0  2  0  0  0  0  0  0
   36.5700   24.0340   40.9820 C   0  0  0  0  0  2  0  0  0  0  0  0
  1  6  2  0  0  0  0
  1  2  1  0  0  0  0
  2  3  2  0  0  0  0
  3  4  1  0  0  0  0
  3  9  1  0  0  0  0
  5  8  1  0  0  0  0
  5  4  2  0  0  0  0
  6  5  1  0  0  0  0
  7  1  1  0  0  0  0
  9 10  2  0  0  0  0
 10 11  1  0  0  0  0
 10 14  1  0  0  0  0
 11 15  1  0  0  0  0
 12 11  2  0  0  0  0
 13  9  1  0  0  0  0
 13 12  1  0  0  0  0
 16 12  1  0  0  0  0
 17  2  1  0  0  0  0
 17 19  1  0  0  0  0
 18 17  2  0  0  0  0
 19 20  1  0  0  0  0
 21 19  1  0  0  0  0
 21 20  1  0  0  0  0
M  END
>  <minimizedAffinity>
-4.15103436

$$$$

 OpenBabel03252503103D

 21 23  0  0  0  0  0  0  0  0999 V2000
   36.9460   27.0130   41.7220 C   0  0  0  0  0  0  0  0  0  0  0  0
   37.1010   28.1710   40.9410 C   0  0  0  0  0  0  0  0  0  0  0  0
   37.5080   29.3030   41.6230 C   0  0  0  0  0  0  0  0  0  0  0  0
   37.7400   29.2990   42.9460 N   0  0  0  0  0  0  0  0  0  0  0  0
   37.5780   28.1500   43.6720 C   0  0  0  0  0  0  0  0  0  0  0  0
   37.1800   27.0130   43.0470 N   0  0  0  0  0  0  0  0  0  0  0  0
   36.6330   26.0740   41.2930 H   0  0  0  0  0  0  0  0  0  0  0  0
   37.7810   28.2110   44.7310 H   0  0  0  0  0  0  0  0  0  0  0  0
   37.6730   30.4870   40.9070 C   0  0  0  0  0  0  0  0  0  0  0  0
   36.8540   31.5450   40.5730 C   0  0  0  0  0  0  0  0  0  0  0  0
   37.2630   32.5890   39.8520 C   0  0  0  0  0  0  0  0  0  0  0  0
   38.5690   32.5420   39.4590 C   0  0  0  0  0  0  0  0  0  0  0  0
   39.2150   30.9640   40.1420 S   0  0  0  0  0  0  0  0  0  0  0  0
   35.8260   31.7040   40.8590 H   0  0  0  0  0  0  0  0  0  0  0  0
   36.8230   33.4910   39.4840 H   0  0  0  0  0  0  0  0  0  0  0  0
   39.2630   33.1310   38.9030 H   0  0  0  0  0  0  0  0  0  0  0  0
   36.8610   28.0910   39.5440 C   0  0  0  0  0  0  0  0  0  0  0  0
   37.8750   27.7750   38.8220 O   0  0  0  0  0  0  0  0  0  0  0  0
   35.4480   28.3940   39.0610 C   0  0  0  0  0  3  0  0  0  0  0  0
   34.9730   27.9760   37.7500 C   0  0  0  0  0  2  0  0  0  0  0  0
   35.3510   29.3830   37.9120 C   0  0  0  0  0  2  0  0  0  0  0  0
  1  6  1  0  0  0  0
  2  3  1  0  0  0  0
  2  1  2  0  0  0  0
  3  4  2  0  0  0  0
  4  5  1  0  0  0  0
  5  8  1  0  0  0  0
  6  5  2  0  0  0  0
  7  1  1  0  0  0  0
  9  3  1  0  0  0  0
 10 14  1  0  0  0  0
 10  9  2  0  0  0  0
 11 10  1  0  0  0  0
 12 11  2  0  0  0  0
 12 13  1  0  0  0  0
 13  9  1  0  0  0  0
 15 11  1  0  0  0  0
 16 12  1  0  0  0  0
 17  2  1  0  0  0  0
 18 17  2  0  0  0  0
 19 17  1  0  0  0  0
 20 21  1  0  0  0  0
 20 19  1  0  0  0  0
 21 19  1  0  0  0  0
M  END
>  <minimizedAffinity>
-4.14977455

$$$$
