
 OpenBabel03252503343D

 16 17  0  0  0  0  0  0  0  0999 V2000
   44.4410   35.9710   44.8560 C   0  0  0  0  0  0  0  0  0  0  0  0
   45.0690   35.9460   43.5840 C   0  0  0  0  0  0  0  0  0  0  0  0
   45.9590   34.9020   43.3150 C   0  0  0  0  0  0  0  0  0  0  0  0
   46.1830   33.9760   44.2640 N   0  0  0  0  0  0  0  0  0  0  0  0
   45.5790   34.0070   45.4760 C   0  0  0  0  0  0  0  0  0  0  0  0
   44.7150   35.0030   45.7610 N   0  0  0  0  0  0  0  0  0  0  0  0
   43.7310   36.7660   45.1260 H   0  0  0  0  0  0  0  0  0  0  0  0
   44.8470   36.7180   42.8670 H   0  0  0  0  0  0  0  0  0  0  0  0
   45.8570   33.1960   46.1320 H   0  0  0  0  0  0  0  0  0  0  0  0
   46.1630   33.9350   41.0290 C   0  0  0  0  0  0  0  0  0  0  0  0
   45.1160   33.2790   41.3350 O   0  0  0  0  0  0  0  0  0  0  0  0
   46.6110   34.8320   42.0610 N   0  0  0  0  0  0  0  0  0  0  0  0
   47.4530   35.4370   41.8370 H   0  0  0  0  0  0  0  0  0  0  0  0
   46.9310   33.8620   39.7600 C   0  0  0  0  0  3  0  0  0  0  0  0
   48.2620   34.5510   39.6420 C   0  0  0  0  0  2  0  0  0  0  0  0
   48.2610   33.0800   39.8750 C   0  0  0  0  0  2  0  0  0  0  0  0
  1  7  1  0  0  0  0
  1  6  1  0  0  0  0
  2  1  2  0  0  0  0
  3  2  1  0  0  0  0
  3  4  2  0  0  0  0
  4  5  1  0  0  0  0
  5  6  2  0  0  0  0
  5  9  1  0  0  0  0
  8  2  1  0  0  0  0
 10 11  2  0  0  0  0
 10 12  1  0  0  0  0
 12  3  1  0  0  0  0
 13 12  1  0  0  0  0
 14 16  1  0  0  0  0
 14 10  1  0  0  0  0
 15 14  1  0  0  0  0
 15 16  1  0  0  0  0
M  END
>  <minimizedAffinity>
-3.82434011

>  <minimizedRMSD>
0.367584884

$$$$
