
 OpenBabel03252505473D

 23 25  0  0  1  0  0  0  0  0999 V2000
   46.0360   32.8080   44.2550 C   0  0  0  0  0  0  0  0  0  0  0  0
   46.8860   31.7860   43.7430 C   0  0  0  0  0  0  0  0  0  0  0  0
   47.6080   30.9510   44.5980 C   0  0  0  0  0  0  0  0  0  0  0  0
   47.4400   31.1830   45.9350 N   0  0  0  0  0  0  0  0  0  0  0  0
   46.6100   32.1790   46.3800 C   0  0  0  0  0  0  0  0  0  0  0  0
   45.9250   32.9710   45.5740 N   0  0  0  0  0  0  0  0  0  0  0  0
   46.9610   31.6720   42.6710 H   0  0  0  0  0  0  0  0  0  0  0  0
   48.2490   30.1800   44.2270 H   0  0  0  0  0  0  0  0  0  0  0  0
   45.3190   33.6610   43.2940 C   0  0  1  0  0  0  0  0  0  0  0  0
   45.9220   35.1130   43.2610 C   0  0  1  0  0  0  0  0  0  0  0  0
   45.8510   34.1670   42.0850 C   0  0  0  0  0  0  0  0  0  0  0  0
   44.2090   33.6630   43.4820 H   0  0  0  0  0  0  0  0  0  0  0  0
   46.8680   35.2820   43.7700 H   0  0  0  0  0  0  0  0  0  0  0  0
   46.8600   33.8950   41.6830 H   0  0  0  0  0  0  0  0  0  0  0  0
   45.1660   34.4280   41.2490 H   0  0  0  0  0  0  0  0  0  0  0  0
   44.8780   36.2040   43.2340 C   0  0  0  0  0  0  0  0  0  0  0  0
   45.4010   37.4620   43.2380 F   0  0  0  0  0  0  0  0  0  0  0  0
   44.1140   36.0580   42.0560 F   0  0  0  0  0  0  0  0  0  0  0  0
   43.9630   36.0360   44.2630 F   0  0  0  0  0  0  0  0  0  0  0  0
   46.5570   32.2790   47.7760 O   0  0  0  0  0  0  0  0  0  0  0  0
   46.3260   31.1760   48.6030 C   0  0  0  0  0  0  0  0  0  0  0  0
   45.1200   30.3420   48.4970 C   0  0  0  0  0  0  0  0  0  0  0  0
   45.1900   31.3230   49.5940 C   0  0  0  0  0  0  0  0  0  0  0  0
  1  6  1  0  0  0  0
  2  1  2  0  0  0  0
  2  3  1  0  0  0  0
  3  4  2  0  0  0  0
  4  5  1  0  0  0  0
  5 20  1  0  0  0  0
  6  5  2  0  0  0  0
  7  2  1  0  0  0  0
  8  3  1  0  0  0  0
  9 12  1  1  0  0  0
  9  1  1  0  0  0  0
 10  9  1  0  0  0  0
 10 13  1  1  0  0  0
 11 10  1  0  0  0  0
 11  9  1  0  0  0  0
 14 11  1  0  0  0  0
 15 11  1  0  0  0  0
 16 17  1  0  0  0  0
 16 10  1  0  0  0  0
 16 19  1  0  0  0  0
 18 16  1  0  0  0  0
 20 21  1  0  0  0  0
 21 23  1  0  0  0  0
 22 21  1  0  0  0  0
 22 23  1  0  0  0  0
M  END
>  <minimizedAffinity>
-4.63473845

>  <minimizedRMSD>
0.894117653

$$$$
