
 OpenBabel03242519103D

 41 44  0  0  1  0  0  0  0  0999 V2000
   47.5990   34.4190   42.3180 N   0  0  0  0  0  0  0  0  0  0  0  0
   47.6650   34.5770   40.8770 C   0  0  0  0  0  0  0  0  0  0  0  0
   48.2480   33.2420   40.5200 C   0  0  2  0  0  0  0  0  0  0  0  0
   49.3960   33.1150   41.5040 C   0  0  0  0  0  0  0  0  0  0  0  0
   48.8620   33.8470   42.7070 C   0  0  0  0  0  0  0  0  0  0  0  0
   48.2850   35.4280   40.5500 H   0  0  0  0  0  0  0  0  0  0  0  0
   46.6230   34.5970   40.5060 H   0  0  0  0  0  0  0  0  0  0  0  0
   47.4890   32.4730   40.6950 H   0  0  0  0  0  0  0  0  0  0  0  0
   49.4940   32.0350   41.7930 H   0  0  0  0  0  0  0  0  0  0  0  0
   50.3410   33.5200   41.1180 H   0  0  0  0  0  0  0  0  0  0  0  0
   48.8270   33.2430   43.6140 H   0  0  0  0  0  0  0  0  0  0  0  0
   49.5750   34.6960   42.9100 H   0  0  0  0  0  0  0  0  0  0  0  0
   44.7020   36.0070   44.0370 C   0  0  0  0  0  0  0  0  0  0  0  0
   45.6840   35.7820   43.0800 C   0  0  0  0  0  0  0  0  0  0  0  0
   46.5760   34.7270   43.2310 C   0  0  0  0  0  0  0  0  0  0  0  0
   46.4290   33.9600   44.3340 N   0  0  0  0  0  0  0  0  0  0  0  0
   45.4970   34.1530   45.2690 C   0  0  0  0  0  0  0  0  0  0  0  0
   44.6270   35.1940   45.1090 N   0  0  0  0  0  0  0  0  0  0  0  0
   43.9990   36.8280   43.9310 H   0  0  0  0  0  0  0  0  0  0  0  0
   45.7790   36.4200   42.1930 H   0  0  0  0  0  0  0  0  0  0  0  0
   45.4750   33.4860   46.0980 H   0  0  0  0  0  0  0  0  0  0  0  0
   48.8020   33.1940   39.2020 N   0  0  0  0  0  0  0  0  0  0  0  0
   49.8220   33.4590   39.0700 H   0  0  0  0  0  0  0  0  0  0  0  0
   48.9860   32.2120   36.9280 C   0  0  0  0  0  0  0  0  0  0  0  0
   48.2580   32.8490   37.9510 C   0  0  0  0  0  0  0  0  0  0  0  0
   46.9620   33.1080   37.6260 C   0  0  0  0  0  0  0  0  0  0  0  0
   46.3380   32.8100   36.4340 C   0  0  0  0  0  0  0  0  0  0  0  0
   47.0790   32.1880   35.4580 C   0  0  0  0  0  0  0  0  0  0  0  0
   48.4070   31.8960   35.7260 C   0  0  0  0  0  0  0  0  0  0  0  0
   46.3270   33.6000   38.3620 H   0  0  0  0  0  0  0  0  0  0  0  0
   45.3200   33.0270   36.2140 H   0  0  0  0  0  0  0  0  0  0  0  0
   46.6580   31.9250   34.5020 H   0  0  0  0  0  0  0  0  0  0  0  0
   49.5240   32.0060   33.5550 C   0  0  0  0  0  0  0  0  0  0  0  0
   49.2570   33.2550   33.4770 O   0  0  0  0  0  0  0  0  0  0  0  0
   49.1550   31.2460   34.6870 N   0  0  0  0  0  0  0  0  0  0  0  0
   49.4600   30.2500   34.6790 H   0  0  0  0  0  0  0  0  0  0  0  0
   50.2290   31.4140   32.4140 C   0  0  0  0  0  0  0  0  0  0  0  0
   49.5240   31.4860   31.0660 C   0  0  0  0  0  0  0  0  0  0  0  0
   49.7400   30.1790   31.7620 C   0  0  0  0  0  0  0  0  0  0  0  0
   51.4760   31.6500   37.4020 N   0  0  0  0  0  0  0  0  0  0  0  0
   50.3730   31.9010   37.1950 C   0  0  0  0  0  0  0  0  0  0  0  0
  1  5  1  0  0  0  0
  1 15  1  0  0  0  0
  2  1  1  0  0  0  0
  3  8  1  1  0  0  0
  3  2  1  0  0  0  0
  3  4  1  0  0  0  0
  4  9  1  0  0  0  0
  4  5  1  0  0  0  0
  5 12  1  0  0  0  0
  5 11  1  0  0  0  0
  6  2  1  0  0  0  0
  7  2  1  0  0  0  0
 10  4  1  0  0  0  0
 13 18  1  0  0  0  0
 14 15  1  0  0  0  0
 14 13  2  0  0  0  0
 15 16  2  0  0  0  0
 16 17  1  0  0  0  0
 17 21  1  0  0  0  0
 18 17  2  0  0  0  0
 19 13  1  0  0  0  0
 20 14  1  0  0  0  0
 22  3  1  0  0  0  0
 23 22  1  0  0  0  0
 24 41  1  0  0  0  0
 24 25  1  0  0  0  0
 25 22  1  0  0  0  0
 26 25  2  0  0  0  0
 26 30  1  0  0  0  0
 27 26  1  0  0  0  0
 28 29  1  0  0  0  0
 28 27  2  0  0  0  0
 29 24  2  0  0  0  0
 31 27  1  0  0  0  0
 32 28  1  0  0  0  0
 33 35  1  0  0  0  0
 34 33  2  0  0  0  0
 35 29  1  0  0  0  0
 36 35  1  0  0  0  0
 37 33  1  0  0  0  0
 38 39  1  0  0  0  0
 38 37  1  0  0  0  0
 39 37  1  0  0  0  0
 41 40  3  0  0  0  0
M  END
>  <minimizedAffinity>
-5.377388

>  <minimizedRMSD>
0.264497846

$$$$
