
 OpenBabel03252507123D

 22 23  0  0  0  0  0  0  0  0999 V2000
   36.8940   30.4640   40.8370 C   0  0  0  0  0  0  0  0  0  0  0  0
   38.1230   29.8180   40.8700 C   0  0  0  0  0  0  0  0  0  0  0  0
   39.2690   30.5730   40.5830 C   0  0  0  0  0  0  0  0  0  0  0  0
   39.1260   31.8860   40.2900 N   0  0  0  0  0  0  0  0  0  0  0  0
   37.9200   32.4770   40.2690 C   0  0  0  0  0  0  0  0  0  0  0  0
   36.8000   31.7580   40.5440 N   0  0  0  0  0  0  0  0  0  0  0  0
   40.1910   30.0120   40.6260 H   0  0  0  0  0  0  0  0  0  0  0  0
   37.8040   33.5170   40.0370 H   0  0  0  0  0  0  0  0  0  0  0  0
   34.8110   29.2880   40.1300 C   0  0  0  0  0  0  0  0  0  0  0  0
   35.3790   28.6590   39.1870 O   0  0  0  0  0  0  0  0  0  0  0  0
   35.5020   30.2210   41.0280 N   0  0  0  0  0  0  0  0  0  0  0  0
   33.7550   29.0580   40.1960 H   0  0  0  0  0  0  0  0  0  0  0  0
   34.8840   30.6280   41.7430 H   0  0  0  0  0  0  0  0  0  0  0  0
   38.1140   28.4810   41.1830 O   0  0  0  0  0  0  0  0  0  0  0  0
   39.3080   27.9550   43.4850 O   0  0  0  0  0  0  0  0  0  0  0  0
   37.9740   27.9410   42.8090 P   0  0  1  0  0  0  0  0  0  0  0  0
   36.9690   28.9870   43.6790 O   0  0  0  0  0  0  0  0  0  0  0  0
   37.1950   29.0270   44.6270 H   0  0  0  0  0  0  0  0  0  0  0  0
   37.3180   26.3880   42.8760 O   0  0  0  0  0  0  0  0  0  0  0  0
   37.5820   25.6140   41.7700 C   0  0  0  0  0  3  0  0  0  0  0  0
   36.7160   24.4550   41.4440 C   0  0  0  0  0  2  0  0  0  0  0  0
   38.0450   24.2020   42.0700 C   0  0  0  0  0  2  0  0  0  0  0  0
  1  2  1  0  0  0  0
  1 11  1  0  0  0  0
  2 14  1  0  0  0  0
  3  7  1  0  0  0  0
  3  2  2  0  0  0  0
  4  3  1  0  0  0  0
  5  4  2  0  0  0  0
  5  6  1  0  0  0  0
  6  1  2  0  0  0  0
  8  5  1  0  0  0  0
  9 12  1  0  0  0  0
  9 11  1  0  0  0  0
 10  9  2  0  0  0  0
 11 13  1  0  0  0  0
 14 16  1  0  0  0  0
 16 19  1  0  0  0  0
 16 15  2  1  0  0  0
 16 17  1  0  0  0  0
 17 18  1  0  0  0  0
 20 22  1  0  0  0  0
 20 19  1  0  0  0  0
 21 20  1  0  0  0  0
 21 22  1  0  0  0  0
M  END
>  <minimizedAffinity>
-4.72082281

$$$$

 OpenBabel03252507123D

 22 23  0  0  0  0  0  0  0  0999 V2000
   37.1090   31.9020   39.6440 C   0  0  0  0  0  0  0  0  0  0  0  0
   36.7480   30.5850   39.8990 C   0  0  0  0  0  0  0  0  0  0  0  0
   36.7050   29.6960   38.8160 C   0  0  0  0  0  0  0  0  0  0  0  0
   37.0130   30.1580   37.5820 N   0  0  0  0  0  0  0  0  0  0  0  0
   37.3570   31.4390   37.3740 C   0  0  0  0  0  0  0  0  0  0  0  0
   37.4040   32.3140   38.4140 N   0  0  0  0  0  0  0  0  0  0  0  0
   36.4180   28.6890   39.0810 H   0  0  0  0  0  0  0  0  0  0  0  0
   37.6020   31.8080   36.3990 H   0  0  0  0  0  0  0  0  0  0  0  0
   38.6530   33.5100   40.7640 C   0  0  0  0  0  0  0  0  0  0  0  0
   39.6770   32.7800   40.5980 O   0  0  0  0  0  0  0  0  0  0  0  0
   37.3060   33.1500   40.3040 N   0  0  0  0  0  0  0  0  0  0  0  0
   38.8870   34.4290   41.2840 H   0  0  0  0  0  0  0  0  0  0  0  0
   36.6010   33.8700   40.5140 H   0  0  0  0  0  0  0  0  0  0  0  0
   36.4620   30.2600   41.2020 O   0  0  0  0  0  0  0  0  0  0  0  0
   38.8050   30.1800   42.4280 O   0  0  0  0  0  0  0  0  0  0  0  0
   37.5720   29.3750   42.1710 P   0  0  1  0  0  0  0  0  0  0  0  0
   36.8800   29.0380   43.6780 O   0  0  0  0  0  0  0  0  0  0  0  0
   37.5420   28.9680   44.3900 H   0  0  0  0  0  0  0  0  0  0  0  0
   37.9880   27.9150   41.4350 O   0  0  0  0  0  0  0  0  0  0  0  0
   37.0010   26.9580   41.4790 C   0  0  0  0  0  3  0  0  0  0  0  0
   37.1960   25.7200   42.2730 C   0  0  0  0  0  2  0  0  0  0  0  0
   37.3430   25.6510   40.7920 C   0  0  0  0  0  2  0  0  0  0  0  0
  1  2  1  0  0  0  0
  1 11  1  0  0  0  0
  2 14  1  0  0  0  0
  3  7  1  0  0  0  0
  3  2  2  0  0  0  0
  4  3  1  0  0  0  0
  5  4  2  0  0  0  0
  5  6  1  0  0  0  0
  6  1  2  0  0  0  0
  8  5  1  0  0  0  0
  9 12  1  0  0  0  0
 10  9  2  0  0  0  0
 11 13  1  0  0  0  0
 11  9  1  0  0  0  0
 14 16  1  0  0  0  0
 16 15  2  1  0  0  0
 16 17  1  0  0  0  0
 17 18  1  0  0  0  0
 19 20  1  0  0  0  0
 19 16  1  0  0  0  0
 20 21  1  0  0  0  0
 22 20  1  0  0  0  0
 22 21  1  0  0  0  0
M  END
>  <minimizedAffinity>
-4.6898303

$$$$

 OpenBabel03252507123D

 22 23  0  0  0  0  0  0  0  0999 V2000
   38.4620   31.6490   38.5160 C   0  0  0  0  0  0  0  0  0  0  0  0
   38.2870   30.2950   38.7770 C   0  0  0  0  0  0  0  0  0  0  0  0
   39.3470   29.4280   38.4780 C   0  0  0  0  0  0  0  0  0  0  0  0
   40.4820   29.9440   37.9520 N   0  0  0  0  0  0  0  0  0  0  0  0
   40.6140   31.2590   37.7130 C   0  0  0  0  0  0  0  0  0  0  0  0
   39.5960   32.1130   37.9970 N   0  0  0  0  0  0  0  0  0  0  0  0
   39.1470   28.3910   38.7040 H   0  0  0  0  0  0  0  0  0  0  0  0
   41.5110   31.6700   37.2960 H   0  0  0  0  0  0  0  0  0  0  0  0
   37.8780   33.6720   39.8530 C   0  0  0  0  0  0  0  0  0  0  0  0
   38.5510   33.3080   40.8640 O   0  0  0  0  0  0  0  0  0  0  0  0
   37.7820   32.8980   38.6100 N   0  0  0  0  0  0  0  0  0  0  0  0
   37.3830   34.6210   40.0120 H   0  0  0  0  0  0  0  0  0  0  0  0
   37.2030   33.3550   37.8920 H   0  0  0  0  0  0  0  0  0  0  0  0
   37.0810   29.9170   39.3120 O   0  0  0  0  0  0  0  0  0  0  0  0
   38.0460   30.3280   41.7410 O   0  0  0  0  0  0  0  0  0  0  0  0
   36.7950   29.9660   41.0060 P   0  0  1  0  0  0  0  0  0  0  0  0
   35.6510   31.1610   41.3620 O   0  0  0  0  0  0  0  0  0  0  0  0
   35.7720   31.5480   42.2500 H   0  0  0  0  0  0  0  0  0  0  0  0
   36.2140   28.4850   41.5660 O   0  0  0  0  0  0  0  0  0  0  0  0
   37.0600   27.8370   42.4360 C   0  0  0  0  0  3  0  0  0  0  0  0
   36.9570   26.3700   42.6250 C   0  0  0  0  0  2  0  0  0  0  0  0
   36.3960   27.2680   43.6740 C   0  0  0  0  0  2  0  0  0  0  0  0
  1 11  1  0  0  0  0
  1  2  1  0  0  0  0
  2 14  1  0  0  0  0
  3  7  1  0  0  0  0
  3  2  2  0  0  0  0
  4  3  1  0  0  0  0
  5  4  2  0  0  0  0
  5  6  1  0  0  0  0
  6  1  2  0  0  0  0
  8  5  1  0  0  0  0
  9 12  1  0  0  0  0
  9 10  2  0  0  0  0
 11  9  1  0  0  0  0
 13 11  1  0  0  0  0
 14 16  1  0  0  0  0
 16 17  1  0  0  0  0
 16 19  1  0  0  0  0
 16 15  2  1  0  0  0
 17 18  1  0  0  0  0
 19 20  1  0  0  0  0
 20 21  1  0  0  0  0
 20 22  1  0  0  0  0
 21 22  1  0  0  0  0
M  END
>  <minimizedAffinity>
-4.68374252

$$$$

 OpenBabel03252507123D

 22 23  0  0  0  0  0  0  0  0999 V2000
   36.8510   30.7090   41.0730 C   0  0  0  0  0  0  0  0  0  0  0  0
   37.9950   30.4100   41.8040 C   0  0  0  0  0  0  0  0  0  0  0  0
   39.2100   30.9580   41.3710 C   0  0  0  0  0  0  0  0  0  0  0  0
   39.2150   31.7460   40.2720 N   0  0  0  0  0  0  0  0  0  0  0  0
   38.0890   32.0130   39.5910 C   0  0  0  0  0  0  0  0  0  0  0  0
   36.9020   31.4890   39.9970 N   0  0  0  0  0  0  0  0  0  0  0  0
   40.0590   30.6870   41.9820 H   0  0  0  0  0  0  0  0  0  0  0  0
   38.0890   32.6370   38.7200 H   0  0  0  0  0  0  0  0  0  0  0  0
   34.9490   29.2910   40.3030 C   0  0  0  0  0  0  0  0  0  0  0  0
   35.6930   28.4720   39.6830 O   0  0  0  0  0  0  0  0  0  0  0  0
   35.4490   30.4540   41.0460 N   0  0  0  0  0  0  0  0  0  0  0  0
   33.9010   29.0330   40.2190 H   0  0  0  0  0  0  0  0  0  0  0  0
   34.7010   30.9980   41.4970 H   0  0  0  0  0  0  0  0  0  0  0  0
   37.8370   29.5960   42.8980 O   0  0  0  0  0  0  0  0  0  0  0  0
   36.4670   27.3540   43.2100 O   0  0  0  0  0  0  0  0  0  0  0  0
   37.7850   27.8850   42.7440 P   0  0  1  0  0  0  0  0  0  0  0  0
   37.9460   27.4480   41.1170 O   0  0  0  0  0  0  0  0  0  0  0  0
   37.4920   26.6110   40.9050 H   0  0  0  0  0  0  0  0  0  0  0  0
   39.0320   27.1610   43.6190 O   0  0  0  0  0  0  0  0  0  0  0  0
   39.8210   26.3090   42.8810 C   0  0  0  0  0  3  0  0  0  0  0  0
   39.6880   24.8400   43.0420 C   0  0  0  0  0  2  0  0  0  0  0  0
   40.8460   25.5280   43.6790 C   0  0  0  0  0  2  0  0  0  0  0  0
  1  2  1  0  0  0  0
  2 14  1  0  0  0  0
  3  2  2  0  0  0  0
  3  7  1  0  0  0  0
  4  3  1  0  0  0  0
  5  6  1  0  0  0  0
  5  4  2  0  0  0  0
  6  1  2  0  0  0  0
  8  5  1  0  0  0  0
  9 11  1  0  0  0  0
 10  9  2  0  0  0  0
 11  1  1  0  0  0  0
 11 13  1  0  0  0  0
 12  9  1  0  0  0  0
 16 14  1  0  0  0  0
 16 15  2  1  0  0  0
 16 19  1  0  0  0  0
 17 16  1  0  0  0  0
 18 17  1  0  0  0  0
 20 21  1  0  0  0  0
 20 19  1  0  0  0  0
 20 22  1  0  0  0  0
 21 22  1  0  0  0  0
M  END
>  <minimizedAffinity>
-4.30795622

$$$$

 OpenBabel03252507123D

 22 23  0  0  0  0  0  0  0  0999 V2000
   38.9630   31.9700   40.6560 C   0  0  0  0  0  0  0  0  0  0  0  0
   39.3240   30.6290   40.6120 C   0  0  0  0  0  0  0  0  0  0  0  0
   40.6850   30.3120   40.7310 C   0  0  0  0  0  0  0  0  0  0  0  0
   41.5770   31.3180   40.8810 N   0  0  0  0  0  0  0  0  0  0  0  0
   41.1910   32.6030   40.9190 C   0  0  0  0  0  0  0  0  0  0  0  0
   39.8750   32.9270   40.8050 N   0  0  0  0  0  0  0  0  0  0  0  0
   40.8970   29.2530   40.6890 H   0  0  0  0  0  0  0  0  0  0  0  0
   41.8940   33.4020   41.0370 H   0  0  0  0  0  0  0  0  0  0  0  0
   37.1050   32.9580   39.3170 C   0  0  0  0  0  0  0  0  0  0  0  0
   37.4320   32.3520   38.2510 O   0  0  0  0  0  0  0  0  0  0  0  0
   37.8200   32.8180   40.5910 N   0  0  0  0  0  0  0  0  0  0  0  0
   36.2380   33.5900   39.1780 H   0  0  0  0  0  0  0  0  0  0  0  0
   37.4040   33.3740   41.3520 H   0  0  0  0  0  0  0  0  0  0  0  0
   38.3090   29.7170   40.4560 O   0  0  0  0  0  0  0  0  0  0  0  0
   37.8710   29.5430   43.0590 O   0  0  0  0  0  0  0  0  0  0  0  0
   37.2090   29.3710   41.7300 P   0  0  1  0  0  0  0  0  0  0  0  0
   35.9120   30.4570   41.6810 O   0  0  0  0  0  0  0  0  0  0  0  0
   35.5270   30.6240   42.5620 H   0  0  0  0  0  0  0  0  0  0  0  0
   36.6000   27.8040   41.5950 O   0  0  0  0  0  0  0  0  0  0  0  0
   37.0820   26.9270   42.5380 C   0  0  0  0  0  3  0  0  0  0  0  0
   38.3190   26.1510   42.2750 C   0  0  0  0  0  2  0  0  0  0  0  0
   37.0030   25.4620   42.1550 C   0  0  0  0  0  2  0  0  0  0  0  0
  1  6  1  0  0  0  0
  2  1  2  0  0  0  0
  2  3  1  0  0  0  0
  3  4  2  0  0  0  0
  4  5  1  0  0  0  0
  5  8  1  0  0  0  0
  6  5  2  0  0  0  0
  7  3  1  0  0  0  0
  9 11  1  0  0  0  0
 10  9  2  0  0  0  0
 11  1  1  0  0  0  0
 11 13  1  0  0  0  0
 12  9  1  0  0  0  0
 14  2  1  0  0  0  0
 14 16  1  0  0  0  0
 16 15  2  1  0  0  0
 17 16  1  0  0  0  0
 17 18  1  0  0  0  0
 19 16  1  0  0  0  0
 19 20  1  0  0  0  0
 21 20  1  0  0  0  0
 22 21  1  0  0  0  0
 22 20  1  0  0  0  0
M  END
>  <minimizedAffinity>
-4.27980757

$$$$

 OpenBabel03252507123D

 22 23  0  0  0  0  0  0  0  0999 V2000
   36.8960   29.5890   37.6910 C   0  0  0  0  0  0  0  0  0  0  0  0
   36.6340   28.9570   38.9000 C   0  0  0  0  0  0  0  0  0  0  0  0
   35.4550   28.2060   39.0050 C   0  0  0  0  0  0  0  0  0  0  0  0
   34.6330   28.1310   37.9320 N   0  0  0  0  0  0  0  0  0  0  0  0
   34.9200   28.7560   36.7790 C   0  0  0  0  0  0  0  0  0  0  0  0
   36.0590   29.4890   36.6620 N   0  0  0  0  0  0  0  0  0  0  0  0
   35.3110   27.7410   39.9690 H   0  0  0  0  0  0  0  0  0  0  0  0
   34.2720   28.6980   35.9280 H   0  0  0  0  0  0  0  0  0  0  0  0
   37.9410   31.8390   37.4280 C   0  0  0  0  0  0  0  0  0  0  0  0
   37.2030   32.3830   38.3040 O   0  0  0  0  0  0  0  0  0  0  0  0
   37.8640   30.4210   37.0560 N   0  0  0  0  0  0  0  0  0  0  0  0
   38.6360   32.5410   36.9860 H   0  0  0  0  0  0  0  0  0  0  0  0
   38.5510   30.1530   36.3370 H   0  0  0  0  0  0  0  0  0  0  0  0
   37.5590   29.1220   39.9010 O   0  0  0  0  0  0  0  0  0  0  0  0
   38.4540   31.2730   41.1550 O   0  0  0  0  0  0  0  0  0  0  0  0
   37.3340   30.2820   41.1490 P   0  0  1  0  0  0  0  0  0  0  0  0
   35.9080   31.1510   40.8780 O   0  0  0  0  0  0  0  0  0  0  0  0
   35.9460   32.0590   41.2340 H   0  0  0  0  0  0  0  0  0  0  0  0
   37.2280   29.5340   42.6580 O   0  0  0  0  0  0  0  0  0  0  0  0
   37.1710   28.1610   42.6050 C   0  0  0  0  0  3  0  0  0  0  0  0
   36.4830   27.4000   43.6770 C   0  0  0  0  0  2  0  0  0  0  0  0
   37.9720   27.4430   43.6740 C   0  0  0  0  0  2  0  0  0  0  0  0
  1  2  1  0  0  0  0
  2  3  2  0  0  0  0
  2 14  1  0  0  0  0
  3  7  1  0  0  0  0
  4  3  1  0  0  0  0
  5  4  2  0  0  0  0
  6  5  1  0  0  0  0
  6  1  2  0  0  0  0
  8  5  1  0  0  0  0
  9 10  2  0  0  0  0
 11  9  1  0  0  0  0
 11  1  1  0  0  0  0
 12  9  1  0  0  0  0
 13 11  1  0  0  0  0
 14 16  1  0  0  0  0
 16 15  2  1  0  0  0
 16 19  1  0  0  0  0
 17 16  1  0  0  0  0
 17 18  1  0  0  0  0
 20 19  1  0  0  0  0
 20 22  1  0  0  0  0
 20 21  1  0  0  0  0
 22 21  1  0  0  0  0
M  END
>  <minimizedAffinity>
-4.24864054

$$$$

 OpenBabel03252507123D

 22 23  0  0  0  0  0  0  0  0999 V2000
   37.6350   26.7410   42.3830 C   0  0  0  0  0  0  0  0  0  0  0  0
   37.3080   28.0900   42.3170 C   0  0  0  0  0  0  0  0  0  0  0  0
   38.2930   29.0220   42.6700 C   0  0  0  0  0  0  0  0  0  0  0  0
   39.5080   28.5690   43.0570 N   0  0  0  0  0  0  0  0  0  0  0  0
   39.7890   27.2570   43.1080 C   0  0  0  0  0  0  0  0  0  0  0  0
   38.8440   26.3410   42.7690 N   0  0  0  0  0  0  0  0  0  0  0  0
   37.9750   30.0520   42.5970 H   0  0  0  0  0  0  0  0  0  0  0  0
   40.7500   26.8960   43.4130 H   0  0  0  0  0  0  0  0  0  0  0  0
   36.9230   24.9650   40.7830 C   0  0  0  0  0  0  0  0  0  0  0  0
   37.2700   25.6250   39.7570 O   0  0  0  0  0  0  0  0  0  0  0  0
   37.0790   25.4480   42.1600 N   0  0  0  0  0  0  0  0  0  0  0  0
   36.4980   24.0040   40.5250 H   0  0  0  0  0  0  0  0  0  0  0  0
   36.7550   24.7720   42.8650 H   0  0  0  0  0  0  0  0  0  0  0  0
   36.0350   28.4010   41.9070 O   0  0  0  0  0  0  0  0  0  0  0  0
   36.5370   28.8330   39.3460 O   0  0  0  0  0  0  0  0  0  0  0  0
   35.7500   29.3540   40.5060 P   0  0  1  0  0  0  0  0  0  0  0  0
   34.1160   29.2660   40.0720 O   0  0  0  0  0  0  0  0  0  0  0  0
   33.9740   29.3750   39.1130 H   0  0  0  0  0  0  0  0  0  0  0  0
   36.1450   30.9700   40.7830 O   0  0  0  0  0  0  0  0  0  0  0  0
   37.1920   31.4350   40.0210 C   0  0  0  0  0  3  0  0  0  0  0  0
   38.1290   32.4430   40.5750 C   0  0  0  0  0  2  0  0  0  0  0  0
   37.0890   32.8890   39.6060 C   0  0  0  0  0  2  0  0  0  0  0  0
  1  6  1  0  0  0  0
  2  1  2  0  0  0  0
  2  3  1  0  0  0  0
  3  4  2  0  0  0  0
  4  5  1  0  0  0  0
  5  8  1  0  0  0  0
  6  5  2  0  0  0  0
  7  3  1  0  0  0  0
  9 11  1  0  0  0  0
 10  9  2  0  0  0  0
 11  1  1  0  0  0  0
 11 13  1  0  0  0  0
 12  9  1  0  0  0  0
 14  2  1  0  0  0  0
 16 15  2  6  0  0  0
 16 19  1  0  0  0  0
 16 14  1  0  0  0  0
 17 16  1  0  0  0  0
 18 17  1  0  0  0  0
 20 21  1  0  0  0  0
 20 19  1  0  0  0  0
 22 20  1  0  0  0  0
 22 21  1  0  0  0  0
M  END
>  <minimizedAffinity>
-4.22322893

$$$$

 OpenBabel03252507123D

 22 23  0  0  0  0  0  0  0  0999 V2000
   36.6310   30.1320   38.9330 C   0  0  0  0  0  0  0  0  0  0  0  0
   36.6920   30.8990   40.0900 C   0  0  0  0  0  0  0  0  0  0  0  0
   37.1530   32.2180   39.9780 C   0  0  0  0  0  0  0  0  0  0  0  0
   37.5150   32.6800   38.7590 N   0  0  0  0  0  0  0  0  0  0  0  0
   37.4420   31.9080   37.6620 C   0  0  0  0  0  0  0  0  0  0  0  0
   36.9980   30.6270   37.7540 N   0  0  0  0  0  0  0  0  0  0  0  0
   37.1760   32.7590   40.9130 H   0  0  0  0  0  0  0  0  0  0  0  0
   37.7280   32.2710   36.6960 H   0  0  0  0  0  0  0  0  0  0  0  0
   34.8790   28.3870   38.6050 C   0  0  0  0  0  0  0  0  0  0  0  0
   33.9490   29.1030   39.0860 O   0  0  0  0  0  0  0  0  0  0  0  0
   36.2720   28.8290   38.4780 N   0  0  0  0  0  0  0  0  0  0  0  0
   34.5250   27.4120   38.2980 H   0  0  0  0  0  0  0  0  0  0  0  0
   36.8850   28.1200   38.0520 H   0  0  0  0  0  0  0  0  0  0  0  0
   36.2920   30.2960   41.2570 O   0  0  0  0  0  0  0  0  0  0  0  0
   38.6930   29.3110   41.7710 O   0  0  0  0  0  0  0  0  0  0  0  0
   37.2360   29.0690   42.0030 P   0  0  1  0  0  0  0  0  0  0  0  0
   36.9930   29.0950   43.6780 O   0  0  0  0  0  0  0  0  0  0  0  0
   37.7720   28.7850   44.1770 H   0  0  0  0  0  0  0  0  0  0  0  0
   36.8120   27.5430   41.4240 O   0  0  0  0  0  0  0  0  0  0  0  0
   36.9640   26.5280   42.3400 C   0  0  0  0  0  3  0  0  0  0  0  0
   38.2700   25.8400   42.4850 C   0  0  0  0  0  2  0  0  0  0  0  0
   37.1760   25.1510   41.7440 C   0  0  0  0  0  2  0  0  0  0  0  0
  1  2  1  0  0  0  0
  2 14  1  0  0  0  0
  3  2  2  0  0  0  0
  3  7  1  0  0  0  0
  4  3  1  0  0  0  0
  5  6  1  0  0  0  0
  5  4  2  0  0  0  0
  6  1  2  0  0  0  0
  8  5  1  0  0  0  0
  9 10  2  0  0  0  0
 11  9  1  0  0  0  0
 11  1  1  0  0  0  0
 12  9  1  0  0  0  0
 13 11  1  0  0  0  0
 14 16  1  0  0  0  0
 16 15  2  6  0  0  0
 16 17  1  0  0  0  0
 17 18  1  0  0  0  0
 19 16  1  0  0  0  0
 19 20  1  0  0  0  0
 20 21  1  0  0  0  0
 22 20  1  0  0  0  0
 22 21  1  0  0  0  0
M  END
>  <minimizedAffinity>
-4.15987206

$$$$

 OpenBabel03252507123D

 22 23  0  0  0  0  0  0  0  0999 V2000
   37.9130   27.4970   41.0560 C   0  0  0  0  0  0  0  0  0  0  0  0
   37.5310   28.5020   40.1750 C   0  0  0  0  0  0  0  0  0  0  0  0
   36.6470   28.1640   39.1400 C   0  0  0  0  0  0  0  0  0  0  0  0
   36.2110   26.8870   39.0470 N   0  0  0  0  0  0  0  0  0  0  0  0
   36.6030   25.9430   39.9170 C   0  0  0  0  0  0  0  0  0  0  0  0
   37.4600   26.2530   40.9260 N   0  0  0  0  0  0  0  0  0  0  0  0
   36.3900   28.9890   38.4920 H   0  0  0  0  0  0  0  0  0  0  0  0
   36.2600   24.9300   39.8460 H   0  0  0  0  0  0  0  0  0  0  0  0
   38.3860   27.9530   43.4620 C   0  0  0  0  0  0  0  0  0  0  0  0
   37.3910   28.7280   43.6030 O   0  0  0  0  0  0  0  0  0  0  0  0
   38.7250   27.2750   42.2060 N   0  0  0  0  0  0  0  0  0  0  0  0
   38.9560   27.8510   44.3760 H   0  0  0  0  0  0  0  0  0  0  0  0
   39.5580   26.6750   42.2820 H   0  0  0  0  0  0  0  0  0  0  0  0
   38.0540   29.7520   40.3940 O   0  0  0  0  0  0  0  0  0  0  0  0
   36.5740   31.3860   38.9310 O   0  0  0  0  0  0  0  0  0  0  0  0
   37.0720   31.1610   40.3220 P   0  0  1  0  0  0  0  0  0  0  0  0
   35.7110   30.9650   41.3080 O   0  0  0  0  0  0  0  0  0  0  0  0
   34.9380   31.4660   40.9870 H   0  0  0  0  0  0  0  0  0  0  0  0
   37.9240   32.5190   40.8490 O   0  0  0  0  0  0  0  0  0  0  0  0
   38.4680   33.2730   39.8360 C   0  0  0  0  0  3  0  0  0  0  0  0
   39.8390   32.9900   39.3460 C   0  0  0  0  0  2  0  0  0  0  0  0
   39.6280   34.1590   40.2450 C   0  0  0  0  0  2  0  0  0  0  0  0
  1 11  1  0  0  0  0
  2 14  1  0  0  0  0
  2  1  2  0  0  0  0
  3  2  1  0  0  0  0
  4  3  2  0  0  0  0
  4  5  1  0  0  0  0
  5  6  2  0  0  0  0
  6  1  1  0  0  0  0
  7  3  1  0  0  0  0
  8  5  1  0  0  0  0
  9 10  2  0  0  0  0
  9 12  1  0  0  0  0
 11 13  1  0  0  0  0
 11  9  1  0  0  0  0
 16 15  2  6  0  0  0
 16 14  1  0  0  0  0
 16 19  1  0  0  0  0
 16 17  1  0  0  0  0
 18 17  1  0  0  0  0
 20 22  1  0  0  0  0
 20 19  1  0  0  0  0
 21 20  1  0  0  0  0
 21 22  1  0  0  0  0
M  END
>  <minimizedAffinity>
-4.14482164

$$$$
