
 OpenBabel03252509263D

 24 26  0  0  1  0  0  0  0  0999 V2000
   46.5440   35.0460   41.9360 C   0  0  1  0  0  0  0  0  0  0  0  0
   48.0780   35.2940   41.9400 C   0  0  0  0  0  0  0  0  0  0  0  0
   47.3430   34.0520   41.3500 C   0  0  2  0  0  0  0  0  0  0  0  0
   45.9720   35.7930   41.3580 H   0  0  0  0  0  0  0  0  0  0  0  0
   48.3870   36.0580   41.2300 H   0  0  0  0  0  0  0  0  0  0  0  0
   48.6370   35.1470   42.8670 H   0  0  0  0  0  0  0  0  0  0  0  0
   47.6300   33.1000   41.8940 H   0  0  0  0  0  0  0  0  0  0  0  0
   44.6310   35.4440   45.1370 C   0  0  0  0  0  0  0  0  0  0  0  0
   45.1030   35.7310   43.8290 C   0  0  0  0  0  0  0  0  0  0  0  0
   46.0410   34.8780   43.3500 C   0  0  0  0  0  0  0  0  0  0  0  0
   46.5040   33.8050   44.0940 N   0  0  0  0  0  0  0  0  0  0  0  0
   46.0290   33.5690   45.3340 C   0  0  0  0  0  0  0  0  0  0  0  0
   45.0880   34.3940   45.8550 N   0  0  0  0  0  0  0  0  0  0  0  0
   43.8810   36.1070   45.5450 H   0  0  0  0  0  0  0  0  0  0  0  0
   46.4670   32.7030   45.8120 H   0  0  0  0  0  0  0  0  0  0  0  0
   44.6610   36.8430   43.0960 N   0  0  0  0  0  0  0  0  0  0  0  0
   45.2940   37.3750   42.4590 H   0  0  0  0  0  0  0  0  0  0  0  0
   43.6610   37.1760   43.1700 H   0  0  0  0  0  0  0  0  0  0  0  0
   47.3740   33.8360   39.8570 C   0  0  0  0  0  0  0  0  0  0  0  0
   46.3310   33.9060   39.5050 H   0  0  0  0  0  0  0  0  0  0  0  0
   47.9020   34.7000   39.4080 H   0  0  0  0  0  0  0  0  0  0  0  0
   47.9610   32.5110   39.4510 C   0  0  0  0  0  3  0  0  0  0  0  0
   49.3450   32.1320   39.7030 C   0  0  0  0  0  2  0  0  0  0  0  0
   48.9960   32.6420   38.3150 C   0  0  0  0  0  2  0  0  0  0  0  0
  1  4  1  6  0  0  0
  1  2  1  0  0  0  0
  1 10  1  0  0  0  0
  2  6  1  0  0  0  0
  3  7  1  1  0  0  0
  3  1  1  0  0  0  0
  3  2  1  0  0  0  0
  5  2  1  0  0  0  0
  8 14  1  0  0  0  0
  8 13  1  0  0  0  0
  9  8  2  0  0  0  0
 10  9  1  0  0  0  0
 10 11  2  0  0  0  0
 11 12  1  0  0  0  0
 12 15  1  0  0  0  0
 12 13  2  0  0  0  0
 16 18  1  0  0  0  0
 16  9  1  0  0  0  0
 17 16  1  0  0  0  0
 19  3  1  0  0  0  0
 20 19  1  0  0  0  0
 21 19  1  0  0  0  0
 22 23  1  0  0  0  0
 22 19  1  0  0  0  0
 24 22  1  0  0  0  0
 24 23  1  0  0  0  0
M  END
>  <minimizedAffinity>
-4.32168627

>  <minimizedRMSD>
0.436667919

$$$$
