
 OpenBabel03252507483D

 37 39  0  0  0  0  0  0  0  0999 V2000
   47.4620   34.2170   40.5000 C   0  0  0  0  0  0  0  0  0  0  0  0
   46.7510   33.5980   39.9570 H   0  0  0  0  0  0  0  0  0  0  0  0
   47.7570   35.0560   39.8090 H   0  0  0  0  0  0  0  0  0  0  0  0
   48.7180   33.5050   40.8200 C   0  0  0  0  0  0  0  0  0  0  0  0
   49.0860   32.4730   39.9630 C   0  0  0  0  0  0  0  0  0  0  0  0
   50.2380   31.7500   40.1760 C   0  0  0  0  0  0  0  0  0  0  0  0
   51.0020   32.0930   41.2640 N   0  0  0  0  0  0  0  0  0  0  0  0
   50.6110   33.1090   42.0790 C   0  0  0  0  0  0  0  0  0  0  0  0
   49.4910   33.7840   41.8410 N   0  0  0  0  0  0  0  0  0  0  0  0
   50.4750   30.9640   39.4860 H   0  0  0  0  0  0  0  0  0  0  0  0
   51.2760   33.3040   42.9060 H   0  0  0  0  0  0  0  0  0  0  0  0
   48.0430   32.0590   38.5420 S   0  0  0  0  0  0  0  0  0  0  0  0
   48.5670   32.9970   37.1030 C   0  0  0  0  0  0  0  0  0  0  0  0
   49.6370   32.7120   36.8920 H   0  0  0  0  0  0  0  0  0  0  0  0
   48.5500   34.0800   37.2090 H   0  0  0  0  0  0  0  0  0  0  0  0
   47.7820   32.5330   35.8970 C   0  0  0  0  0  0  0  0  0  0  0  0
   47.4710   31.4850   36.0130 H   0  0  0  0  0  0  0  0  0  0  0  0
   46.9450   33.2490   35.7550 H   0  0  0  0  0  0  0  0  0  0  0  0
   48.6950   32.7240   34.6970 C   0  0  0  0  0  0  0  0  0  0  0  0
   48.0600   32.4280   33.3470 C   0  0  0  0  0  0  0  0  0  0  0  0
   49.1820   31.5910   33.9110 C   0  0  0  0  0  0  0  0  0  0  0  0
   46.8030   34.8150   41.6900 C   0  0  0  0  0  0  0  0  0  0  0  0
   47.1290   34.3180   42.6520 H   0  0  0  0  0  0  0  0  0  0  0  0
   47.1320   35.8850   41.8150 H   0  0  0  0  0  0  0  0  0  0  0  0
   45.3130   34.8530   41.5930 C   0  0  0  0  0  0  0  0  0  0  0  0
   44.5510   35.5500   42.5710 C   0  0  0  0  0  0  0  0  0  0  0  0
   42.8210   35.2980   42.0070 S   0  0  0  0  0  0  0  0  0  0  0  0
   43.4170   34.2800   40.5240 C   0  0  0  0  0  0  0  0  0  0  0  0
   44.5510   34.3100   40.6890 N   0  0  0  0  0  0  0  0  0  0  0  0
   44.9570   36.0960   43.4430 H   0  0  0  0  0  0  0  0  0  0  0  0
   42.5470   33.7250   39.5910 O   0  0  0  0  0  0  0  0  0  0  0  0
   40.6360   34.0340   37.7780 O   0  0  0  0  0  0  0  0  0  0  0  0
   41.6620   34.7900   38.6140 P   0  0  0  0  0  0  0  0  0  0  0  0
   40.8360   35.8590   39.6420 O   0  0  0  0  0  0  0  0  0  0  0  0
   41.4740   36.5390   39.9800 H   0  0  0  0  0  0  0  0  0  0  0  0
   42.7240   35.6970   37.6400 O   0  0  0  0  0  0  0  0  0  0  0  0
   42.9020   36.5640   38.0840 H   0  0  0  0  0  0  0  0  0  0  0  0
  1  4  1  0  0  0  0
  1 22  1  0  0  0  0
  2  1  1  0  0  0  0
  3  1  1  0  0  0  0
  4  9  1  0  0  0  0
  5  6  1  0  0  0  0
  5  4  2  0  0  0  0
  6  7  2  0  0  0  0
  7  8  1  0  0  0  0
  8 11  1  0  0  0  0
  9  8  2  0  0  0  0
 10  6  1  0  0  0  0
 12  5  1  0  0  0  0
 13 15  1  0  0  0  0
 13 12  1  0  0  0  0
 14 13  1  0  0  0  0
 16 17  1  0  0  0  0
 16 13  1  0  0  0  0
 18 16  1  0  0  0  0
 19 16  1  0  0  0  0
 20 21  1  0  0  0  0
 20 19  1  0  0  0  0
 21 19  1  0  0  0  0
 22 24  1  0  0  0  0
 22 23  1  0  0  0  0
 25 22  1  0  0  0  0
 25 26  2  0  0  0  0
 26 30  1  0  0  0  0
 27 26  1  0  0  0  0
 28 29  2  0  0  0  0
 28 27  1  0  0  0  0
 29 25  1  0  0  0  0
 31 28  1  0  0  0  0
 32 33  2  0  0  0  0
 33 31  1  0  0  0  0
 33 34  1  0  0  0  0
 34 35  1  0  0  0  0
 36 37  1  0  0  0  0
 36 33  1  0  0  0  0
M  END
>  <minimizedAffinity>
-4.58272219

>  <minimizedRMSD>
1.14742231

$$$$
