
 OpenBabel03252501123D

 14 15  0  0  0  0  0  0  0  0999 V2000
   37.3290   32.5840   39.6970 C   0  0  0  0  0  0  0  0  0  0  0  0
   36.8630   31.4290   40.3270 C   0  0  0  0  0  0  0  0  0  0  0  0
   37.6970   30.7560   41.2070 C   0  0  0  0  0  0  0  0  0  0  0  0
   38.9430   31.2510   41.4210 N   0  0  0  0  0  0  0  0  0  0  0  0
   39.3760   32.3780   40.7960 C   0  0  0  0  0  0  0  0  0  0  0  0
   38.5650   33.0420   39.9340 N   0  0  0  0  0  0  0  0  0  0  0  0
   36.7400   33.1650   38.9990 H   0  0  0  0  0  0  0  0  0  0  0  0
   35.8410   31.1720   40.0440 H   0  0  0  0  0  0  0  0  0  0  0  0
   40.3790   32.5900   41.1050 H   0  0  0  0  0  0  0  0  0  0  0  0
   37.1440   29.5710   41.8200 C   0  0  0  0  0  0  0  0  0  0  0  0
   36.1850   28.9030   41.3320 O   0  0  0  0  0  0  0  0  0  0  0  0
   37.7030   29.0540   43.1120 C   0  0  0  0  0  3  0  0  0  0  0  0
   37.2110   27.7880   43.6800 C   0  0  0  0  0  2  0  0  0  0  0  0
   38.4990   27.7810   42.9350 C   0  0  0  0  0  2  0  0  0  0  0  0
  1  6  2  0  0  0  0
  1  2  1  0  0  0  0
  2  3  2  0  0  0  0
  3  4  1  0  0  0  0
  3 10  1  0  0  0  0
  5  9  1  0  0  0  0
  5  4  2  0  0  0  0
  6  5  1  0  0  0  0
  7  1  1  0  0  0  0
  8  2  1  0  0  0  0
 10 12  1  0  0  0  0
 11 10  2  0  0  0  0
 12 13  1  0  0  0  0
 14 12  1  0  0  0  0
 14 13  1  0  0  0  0
M  END
>  <minimizedAffinity>
-3.58526206

$$$$

 OpenBabel03252501123D

 14 15  0  0  0  0  0  0  0  0999 V2000
   35.8400   30.2040   40.3500 C   0  0  0  0  0  0  0  0  0  0  0  0
   35.8330   29.0000   41.0570 C   0  0  0  0  0  0  0  0  0  0  0  0
   36.9180   28.6810   41.8570 C   0  0  0  0  0  0  0  0  0  0  0  0
   37.9540   29.5580   41.9220 N   0  0  0  0  0  0  0  0  0  0  0  0
   37.9390   30.7250   41.2240 C   0  0  0  0  0  0  0  0  0  0  0  0
   36.8800   31.0440   40.4390 N   0  0  0  0  0  0  0  0  0  0  0  0
   35.0330   30.5260   39.7050 H   0  0  0  0  0  0  0  0  0  0  0  0
   34.9270   28.4150   40.8930 H   0  0  0  0  0  0  0  0  0  0  0  0
   38.8440   31.2630   41.4170 H   0  0  0  0  0  0  0  0  0  0  0  0
   36.8380   27.4200   42.5580 C   0  0  0  0  0  0  0  0  0  0  0  0
   36.1340   27.2290   43.5930 O   0  0  0  0  0  0  0  0  0  0  0  0
   37.6130   26.2320   42.0730 C   0  0  0  0  0  3  0  0  0  0  0  0
   37.0540   24.8770   42.2040 C   0  0  0  0  0  2  0  0  0  0  0  0
   36.9650   25.5590   40.8850 C   0  0  0  0  0  2  0  0  0  0  0  0
  1  6  2  0  0  0  0
  1  2  1  0  0  0  0
  2  3  2  0  0  0  0
  3  4  1  0  0  0  0
  3 10  1  0  0  0  0
  5  9  1  0  0  0  0
  5  4  2  0  0  0  0
  6  5  1  0  0  0  0
  7  1  1  0  0  0  0
  8  2  1  0  0  0  0
 10 11  2  0  0  0  0
 12 13  1  0  0  0  0
 12 10  1  0  0  0  0
 14 12  1  0  0  0  0
 14 13  1  0  0  0  0
M  END
>  <minimizedAffinity>
-3.56955433

$$$$

 OpenBabel03252501123D

 14 15  0  0  0  0  0  0  0  0999 V2000
   38.4120   28.4290   43.2990 C   0  0  0  0  0  0  0  0  0  0  0  0
   38.6000   29.6440   42.6380 C   0  0  0  0  0  0  0  0  0  0  0  0
   37.6920   30.0290   41.6640 C   0  0  0  0  0  0  0  0  0  0  0  0
   36.6500   29.2030   41.3890 N   0  0  0  0  0  0  0  0  0  0  0  0
   36.4870   28.0240   42.0460 C   0  0  0  0  0  0  0  0  0  0  0  0
   37.3710   27.6400   43.0000 N   0  0  0  0  0  0  0  0  0  0  0  0
   39.0740   28.0570   44.0700 H   0  0  0  0  0  0  0  0  0  0  0  0
   39.4840   30.1830   42.9810 H   0  0  0  0  0  0  0  0  0  0  0  0
   35.6090   27.5330   41.6780 H   0  0  0  0  0  0  0  0  0  0  0  0
   37.9520   31.2980   41.0250 C   0  0  0  0  0  0  0  0  0  0  0  0
   39.0310   31.9490   41.1560 O   0  0  0  0  0  0  0  0  0  0  0  0
   36.9180   31.9300   40.1430 C   0  0  0  0  0  3  0  0  0  0  0  0
   37.2820   33.0450   39.2530 C   0  0  0  0  0  2  0  0  0  0  0  0
   37.1730   31.6780   38.6740 C   0  0  0  0  0  2  0  0  0  0  0  0
  1  7  1  0  0  0  0
  2  8  1  0  0  0  0
  2  1  2  0  0  0  0
  3  2  1  0  0  0  0
  4  3  2  0  0  0  0
  4  5  1  0  0  0  0
  5  6  2  0  0  0  0
  6  1  1  0  0  0  0
  9  5  1  0  0  0  0
 10 11  2  0  0  0  0
 10  3  1  0  0  0  0
 12 10  1  0  0  0  0
 13 12  1  0  0  0  0
 14 13  1  0  0  0  0
 14 12  1  0  0  0  0
M  END
>  <minimizedAffinity>
-3.53646016

$$$$

 OpenBabel03252501123D

 14 15  0  0  0  0  0  0  0  0999 V2000
   39.9870   25.6220   43.6670 C   0  0  0  0  0  0  0  0  0  0  0  0
   39.2460   26.7930   43.4990 C   0  0  0  0  0  0  0  0  0  0  0  0
   38.0700   26.7480   42.7670 C   0  0  0  0  0  0  0  0  0  0  0  0
   37.6820   25.5580   42.2390 N   0  0  0  0  0  0  0  0  0  0  0  0
   38.4200   24.4290   42.4160 C   0  0  0  0  0  0  0  0  0  0  0  0
   39.5730   24.4660   43.1310 N   0  0  0  0  0  0  0  0  0  0  0  0
   40.9130   25.5730   44.2240 H   0  0  0  0  0  0  0  0  0  0  0  0
   39.6980   27.6570   43.9880 H   0  0  0  0  0  0  0  0  0  0  0  0
   37.9390   23.6110   41.9210 H   0  0  0  0  0  0  0  0  0  0  0  0
   37.3590   27.9980   42.6360 C   0  0  0  0  0  0  0  0  0  0  0  0
   37.6440   29.0460   43.2870 O   0  0  0  0  0  0  0  0  0  0  0  0
   36.2060   28.1200   41.6850 C   0  0  0  0  0  3  0  0  0  0  0  0
   35.8990   29.4130   41.0530 C   0  0  0  0  0  2  0  0  0  0  0  0
   36.6470   28.3960   40.2660 C   0  0  0  0  0  2  0  0  0  0  0  0
  1  7  1  0  0  0  0
  2  1  1  0  0  0  0
  2  8  1  0  0  0  0
  3  2  2  0  0  0  0
  4  5  2  0  0  0  0
  4  3  1  0  0  0  0
  5  6  1  0  0  0  0
  6  1  2  0  0  0  0
  9  5  1  0  0  0  0
 10  3  1  0  0  0  0
 10 11  2  0  0  0  0
 12 10  1  0  0  0  0
 13 12  1  0  0  0  0
 14 13  1  0  0  0  0
 14 12  1  0  0  0  0
M  END
>  <minimizedAffinity>
-3.48807383

$$$$

 OpenBabel03252501123D

 14 15  0  0  0  0  0  0  0  0999 V2000
   37.6380   26.2230   41.2200 C   0  0  0  0  0  0  0  0  0  0  0  0
   36.8800   27.2560   40.6650 C   0  0  0  0  0  0  0  0  0  0  0  0
   36.5260   28.3360   41.4590 C   0  0  0  0  0  0  0  0  0  0  0  0
   36.9330   28.3450   42.7550 N   0  0  0  0  0  0  0  0  0  0  0  0
   37.6710   27.3280   43.2740 C   0  0  0  0  0  0  0  0  0  0  0  0
   38.0210   26.2680   42.5030 N   0  0  0  0  0  0  0  0  0  0  0  0
   37.9540   25.3480   40.6680 H   0  0  0  0  0  0  0  0  0  0  0  0
   36.6390   27.0900   39.6140 H   0  0  0  0  0  0  0  0  0  0  0  0
   37.8830   27.5350   44.3030 H   0  0  0  0  0  0  0  0  0  0  0  0
   35.7430   29.3640   40.8150 C   0  0  0  0  0  0  0  0  0  0  0  0
   34.6460   29.1500   40.2200 O   0  0  0  0  0  0  0  0  0  0  0  0
   36.2090   30.7890   40.8220 C   0  0  0  0  0  3  0  0  0  0  0  0
   37.6450   31.1010   40.7330 C   0  0  0  0  0  2  0  0  0  0  0  0
   36.8140   31.2100   39.5020 C   0  0  0  0  0  2  0  0  0  0  0  0
  1  6  1  0  0  0  0
  2  1  2  0  0  0  0
  2  3  1  0  0  0  0
  3  4  2  0  0  0  0
  4  5  1  0  0  0  0
  5  9  1  0  0  0  0
  6  5  2  0  0  0  0
  7  1  1  0  0  0  0
  8  2  1  0  0  0  0
 10 12  1  0  0  0  0
 10  3  1  0  0  0  0
 11 10  2  0  0  0  0
 13 12  1  0  0  0  0
 14 13  1  0  0  0  0
 14 12  1  0  0  0  0
M  END
>  <minimizedAffinity>
-3.34656239

$$$$

 OpenBabel03252501123D

 14 15  0  0  0  0  0  0  0  0999 V2000
   37.7930   29.5140   39.0350 C   0  0  0  0  0  0  0  0  0  0  0  0
   38.3420   29.3740   40.3110 C   0  0  0  0  0  0  0  0  0  0  0  0
   37.5980   29.7640   41.4130 C   0  0  0  0  0  0  0  0  0  0  0  0
   36.3550   30.2710   41.2060 N   0  0  0  0  0  0  0  0  0  0  0  0
   35.8400   30.3980   39.9540 C   0  0  0  0  0  0  0  0  0  0  0  0
   36.5630   30.0190   38.8710 N   0  0  0  0  0  0  0  0  0  0  0  0
   38.3080   29.2340   38.1260 H   0  0  0  0  0  0  0  0  0  0  0  0
   39.3480   28.9500   40.2970 H   0  0  0  0  0  0  0  0  0  0  0  0
   34.8560   30.8150   40.0180 H   0  0  0  0  0  0  0  0  0  0  0  0
   38.2330   29.5880   42.6980 C   0  0  0  0  0  0  0  0  0  0  0  0
   39.2500   30.2370   43.0800 O   0  0  0  0  0  0  0  0  0  0  0  0
   37.6950   28.5900   43.6800 C   0  0  0  0  0  3  0  0  0  0  0  0
   36.9670   27.4010   43.2060 C   0  0  0  0  0  2  0  0  0  0  0  0
   38.3960   27.2530   43.5940 C   0  0  0  0  0  2  0  0  0  0  0  0
  1  2  1  0  0  0  0
  2  3  2  0  0  0  0
  3 10  1  0  0  0  0
  4  3  1  0  0  0  0
  5  9  1  0  0  0  0
  5  4  2  0  0  0  0
  6  1  2  0  0  0  0
  6  5  1  0  0  0  0
  7  1  1  0  0  0  0
  8  2  1  0  0  0  0
 10 11  2  0  0  0  0
 10 12  1  0  0  0  0
 13 14  1  0  0  0  0
 13 12  1  0  0  0  0
 14 12  1  0  0  0  0
M  END
>  <minimizedAffinity>
-3.32353115

$$$$

 OpenBabel03252501123D

 14 15  0  0  0  0  0  0  0  0999 V2000
   36.9140   29.2790   39.2450 C   0  0  0  0  0  0  0  0  0  0  0  0
   37.2180   28.2700   40.1600 C   0  0  0  0  0  0  0  0  0  0  0  0
   37.1910   28.5560   41.5160 C   0  0  0  0  0  0  0  0  0  0  0  0
   36.8660   29.8170   41.9030 N   0  0  0  0  0  0  0  0  0  0  0  0
   36.5730   30.7850   40.9940 C   0  0  0  0  0  0  0  0  0  0  0  0
   36.5980   30.5110   39.6660 N   0  0  0  0  0  0  0  0  0  0  0  0
   36.9130   29.1370   38.1730 H   0  0  0  0  0  0  0  0  0  0  0  0
   37.4550   27.3180   39.6810 H   0  0  0  0  0  0  0  0  0  0  0  0
   36.3470   31.6950   41.5090 H   0  0  0  0  0  0  0  0  0  0  0  0
   37.5160   27.4610   42.4000 C   0  0  0  0  0  0  0  0  0  0  0  0
   36.9910   26.3110   42.3260 O   0  0  0  0  0  0  0  0  0  0  0  0
   38.5320   27.6400   43.4870 C   0  0  0  0  0  3  0  0  0  0  0  0
   39.5980   26.6430   43.6800 C   0  0  0  0  0  2  0  0  0  0  0  0
   39.9210   27.9000   42.9500 C   0  0  0  0  0  2  0  0  0  0  0  0
  1  6  2  0  0  0  0
  1  2  1  0  0  0  0
  2  3  2  0  0  0  0
  3  4  1  0  0  0  0
  3 10  1  0  0  0  0
  5  9  1  0  0  0  0
  5  4  2  0  0  0  0
  6  5  1  0  0  0  0
  7  1  1  0  0  0  0
  8  2  1  0  0  0  0
 10 12  1  0  0  0  0
 11 10  2  0  0  0  0
 12 13  1  0  0  0  0
 14 12  1  0  0  0  0
 14 13  1  0  0  0  0
M  END
>  <minimizedAffinity>
-3.27760863

$$$$

 OpenBabel03252501123D

 14 15  0  0  0  0  0  0  0  0999 V2000
   39.2350   28.4960   42.8330 C   0  0  0  0  0  0  0  0  0  0  0  0
   38.5110   29.3180   41.9670 C   0  0  0  0  0  0  0  0  0  0  0  0
   37.1500   29.1070   41.8160 C   0  0  0  0  0  0  0  0  0  0  0  0
   36.5700   28.1010   42.5220 N   0  0  0  0  0  0  0  0  0  0  0  0
   37.2950   27.3130   43.3600 C   0  0  0  0  0  0  0  0  0  0  0  0
   38.6280   27.5140   43.5120 N   0  0  0  0  0  0  0  0  0  0  0  0
   40.2980   28.5960   43.0070 H   0  0  0  0  0  0  0  0  0  0  0  0
   39.1300   30.0750   41.4820 H   0  0  0  0  0  0  0  0  0  0  0  0
   36.6480   26.5900   43.8120 H   0  0  0  0  0  0  0  0  0  0  0  0
   36.4700   29.9970   40.9040 C   0  0  0  0  0  0  0  0  0  0  0  0
   36.1100   31.1740   41.2000 O   0  0  0  0  0  0  0  0  0  0  0  0
   36.1470   29.5520   39.5090 C   0  0  0  0  0  3  0  0  0  0  0  0
   35.9140   28.1270   39.2200 C   0  0  0  0  0  2  0  0  0  0  0  0
   34.7360   29.0230   39.3780 C   0  0  0  0  0  2  0  0  0  0  0  0
  1  7  1  0  0  0  0
  1  6  1  0  0  0  0
  2  1  2  0  0  0  0
  3  2  1  0  0  0  0
  3  4  2  0  0  0  0
  4  5  1  0  0  0  0
  5  6  2  0  0  0  0
  5  9  1  0  0  0  0
  8  2  1  0  0  0  0
 10 11  2  0  0  0  0
 10  3  1  0  0  0  0
 12 10  1  0  0  0  0
 13 14  1  0  0  0  0
 13 12  1  0  0  0  0
 14 12  1  0  0  0  0
M  END
>  <minimizedAffinity>
-3.27142549

$$$$

 OpenBabel03252501123D

 14 15  0  0  0  0  0  0  0  0999 V2000
   37.2290   24.8610   42.1370 C   0  0  0  0  0  0  0  0  0  0  0  0
   37.1920   26.2350   42.3810 C   0  0  0  0  0  0  0  0  0  0  0  0
   36.8560   27.0950   41.3480 C   0  0  0  0  0  0  0  0  0  0  0  0
   36.5740   26.5640   40.1310 N   0  0  0  0  0  0  0  0  0  0  0  0
   36.6160   25.2220   39.9160 C   0  0  0  0  0  0  0  0  0  0  0  0
   36.9440   24.3740   40.9220 N   0  0  0  0  0  0  0  0  0  0  0  0
   37.4810   24.1250   42.8890 H   0  0  0  0  0  0  0  0  0  0  0  0
   37.4440   26.4910   43.4120 H   0  0  0  0  0  0  0  0  0  0  0  0
   36.3620   25.0200   38.8960 H   0  0  0  0  0  0  0  0  0  0  0  0
   36.8390   28.5020   41.6780 C   0  0  0  0  0  0  0  0  0  0  0  0
   37.5380   29.0220   42.5960 O   0  0  0  0  0  0  0  0  0  0  0  0
   35.9600   29.4480   40.9180 C   0  0  0  0  0  3  0  0  0  0  0  0
   36.2350   30.8940   40.9350 C   0  0  0  0  0  2  0  0  0  0  0  0
   36.6730   30.1010   39.7550 C   0  0  0  0  0  2  0  0  0  0  0  0
  1  2  1  0  0  0  0
  1  7  1  0  0  0  0
  2  8  1  0  0  0  0
  3 10  1  0  0  0  0
  3  2  2  0  0  0  0
  4  3  1  0  0  0  0
  5  4  2  0  0  0  0
  5  6  1  0  0  0  0
  6  1  2  0  0  0  0
  9  5  1  0  0  0  0
 10 11  2  0  0  0  0
 12 13  1  0  0  0  0
 12 10  1  0  0  0  0
 14 12  1  0  0  0  0
 14 13  1  0  0  0  0
M  END
>  <minimizedAffinity>
-3.24750352

$$$$
