
 OpenBabel03252507153D

 23 25  0  0  0  0  0  0  0  0999 V2000
   44.9020   36.0270   43.4310 C   0  0  0  0  0  0  0  0  0  0  0  0
   45.5660   34.8340   43.0550 C   0  0  0  0  0  0  0  0  0  0  0  0
   45.7660   33.8820   44.0290 C   0  0  0  0  0  0  0  0  0  0  0  0
   45.3350   34.1040   45.2850 N   0  0  0  0  0  0  0  0  0  0  0  0
   44.6960   35.2650   45.6310 C   0  0  0  0  0  0  0  0  0  0  0  0
   44.5000   36.1900   44.6910 N   0  0  0  0  0  0  0  0  0  0  0  0
   44.7180   36.8150   42.7010 H   0  0  0  0  0  0  0  0  0  0  0  0
   44.4120   35.2920   46.6830 H   0  0  0  0  0  0  0  0  0  0  0  0
   46.4480   32.6480   43.6560 C   0  0  0  0  0  0  0  0  0  0  0  0
   45.7150   31.5180   43.3480 C   0  0  0  0  0  0  0  0  0  0  0  0
   46.3870   30.3700   43.0010 C   0  0  0  0  0  0  0  0  0  0  0  0
   47.7800   30.2860   42.9430 C   0  0  0  0  0  0  0  0  0  0  0  0
   48.4550   31.4440   43.2600 C   0  0  0  0  0  0  0  0  0  0  0  0
   47.7900   32.5700   43.6020 N   0  0  0  0  0  0  0  0  0  0  0  0
   44.6350   31.5410   43.3810 H   0  0  0  0  0  0  0  0  0  0  0  0
   45.8080   29.4850   42.7600 H   0  0  0  0  0  0  0  0  0  0  0  0
   48.3090   29.3820   42.6700 H   0  0  0  0  0  0  0  0  0  0  0  0
   49.5470   31.4080   43.2240 H   0  0  0  0  0  0  0  0  0  0  0  0
   45.9970   34.6600   41.7030 C   0  0  0  0  0  0  0  0  0  0  0  0
   47.2290   34.8110   41.4580 O   0  0  0  0  0  0  0  0  0  0  0  0
   45.0740   34.3160   40.5950 C   0  0  0  0  0  3  0  0  0  0  0  0
   45.3100   33.0360   39.8420 C   0  0  0  0  0  2  0  0  0  0  0  0
   44.1590   33.1070   40.7460 C   0  0  0  0  0  2  0  0  0  0  0  0
  1  6  1  0  0  0  0
  2  1  2  0  0  0  0
  2  3  1  0  0  0  0
  3  4  2  0  0  0  0
  4  5  1  0  0  0  0
  5  8  1  0  0  0  0
  6  5  2  0  0  0  0
  7  1  1  0  0  0  0
  9  3  1  0  0  0  0
 10 15  1  0  0  0  0
 10  9  2  0  0  0  0
 11 10  1  0  0  0  0
 12 11  2  0  0  0  0
 12 13  1  0  0  0  0
 13 14  2  0  0  0  0
 14  9  1  0  0  0  0
 16 11  1  0  0  0  0
 17 12  1  0  0  0  0
 18 13  1  0  0  0  0
 19  2  1  0  0  0  0
 20 19  2  0  0  0  0
 21 23  1  0  0  0  0
 21 19  1  0  0  0  0
 22 21  1  0  0  0  0
 22 23  1  0  0  0  0
M  END
>  <minimizedAffinity>
-3.81334066

>  <minimizedRMSD>
0.50493592

$$$$
