
 OpenBabel03252508433D

 25 27  0  0  0  0  0  0  0  0999 V2000
   44.4430   33.4000   41.9870 C   0  0  0  0  0  0  0  0  0  0  0  0
   45.3310   33.3970   40.9330 C   0  0  0  0  0  0  0  0  0  0  0  0
   44.8800   33.5680   39.6480 C   0  0  0  0  0  0  0  0  0  0  0  0
   43.5220   33.7390   39.4410 C   0  0  0  0  0  0  0  0  0  0  0  0
   42.6120   33.7470   40.4540 C   0  0  0  0  0  0  0  0  0  0  0  0
   43.1180   33.5700   41.7500 C   0  0  0  0  0  0  0  0  0  0  0  0
   45.5680   33.5680   38.8000 H   0  0  0  0  0  0  0  0  0  0  0  0
   43.2120   33.8710   38.4120 H   0  0  0  0  0  0  0  0  0  0  0  0
   41.5520   33.8750   40.2630 H   0  0  0  0  0  0  0  0  0  0  0  0
   42.4030   33.5780   42.5590 H   0  0  0  0  0  0  0  0  0  0  0  0
   45.7300   33.9060   45.5060 C   0  0  0  0  0  0  0  0  0  0  0  0
   45.1770   34.2160   44.2490 C   0  0  0  0  0  0  0  0  0  0  0  0
   45.0010   33.2090   43.3190 C   0  0  0  0  0  0  0  0  0  0  0  0
   45.3850   31.9860   43.7080 N   0  0  0  0  0  0  0  0  0  0  0  0
   45.9150   31.6700   44.9020 C   0  0  0  0  0  0  0  0  0  0  0  0
   46.0870   32.6460   45.8070 N   0  0  0  0  0  0  0  0  0  0  0  0
   45.8740   34.7020   46.2440 H   0  0  0  0  0  0  0  0  0  0  0  0
   44.8820   35.2070   43.9880 H   0  0  0  0  0  0  0  0  0  0  0  0
   46.1530   30.6190   45.0100 H   0  0  0  0  0  0  0  0  0  0  0  0
   46.7980   33.2020   41.1890 C   0  0  0  0  0  0  0  0  0  0  0  0
   47.2080   32.3470   40.6320 H   0  0  0  0  0  0  0  0  0  0  0  0
   46.9150   32.9870   42.2620 H   0  0  0  0  0  0  0  0  0  0  0  0
   47.4890   34.5110   40.9050 C   0  0  0  0  0  3  0  0  0  0  0  0
   47.8240   35.4410   41.9970 C   0  0  0  0  0  2  0  0  0  0  0  0
   48.9090   34.6670   41.2850 C   0  0  0  0  0  2  0  0  0  0  0  0
  1 13  1  0  0  0  0
  2 20  1  0  0  0  0
  2  1  2  0  0  0  0
  3  2  1  0  0  0  0
  4  3  2  0  0  0  0
  4  5  1  0  0  0  0
  5  6  2  0  0  0  0
  6  1  1  0  0  0  0
  6 10  1  0  0  0  0
  7  3  1  0  0  0  0
  8  4  1  0  0  0  0
  9  5  1  0  0  0  0
 11 16  1  0  0  0  0
 11 17  1  0  0  0  0
 12 11  2  0  0  0  0
 13 14  2  0  0  0  0
 13 12  1  0  0  0  0
 14 15  1  0  0  0  0
 15 19  1  0  0  0  0
 15 16  2  0  0  0  0
 18 12  1  0  0  0  0
 20 22  1  0  0  0  0
 21 20  1  0  0  0  0
 23 20  1  0  0  0  0
 23 25  1  0  0  0  0
 23 24  1  0  0  0  0
 25 24  1  0  0  0  0
M  END
>  <minimizedAffinity>
-3.63533354

>  <minimizedRMSD>
3.06331754

$$$$
