
 OpenBabel03242510183D

 23 25  0  0  1  0  0  0  0  0999 V2000
   36.0930   29.5750   39.6460 C   0  0  1  0  0  0  0  0  0  0  0  0
   36.4400   28.1920   39.7720 C   0  0  0  0  0  0  0  0  0  0  0  0
   35.6960   28.8500   40.9060 C   0  0  1  0  0  0  0  0  0  0  0  0
   35.2880   29.9110   38.9690 H   0  0  0  0  0  0  0  0  0  0  0  0
   37.4790   27.8830   40.0360 H   0  0  0  0  0  0  0  0  0  0  0  0
   35.9400   27.4230   39.1640 H   0  0  0  0  0  0  0  0  0  0  0  0
   34.7080   28.4300   41.0360 H   0  0  0  0  0  0  0  0  0  0  0  0
   36.9150   31.9660   40.1340 C   0  0  0  0  0  0  0  0  0  0  0  0
   37.1930   30.6180   39.7780 C   0  0  0  0  0  0  0  0  0  0  0  0
   38.4940   30.2570   39.5440 C   0  0  0  0  0  0  0  0  0  0  0  0
   39.4670   31.1940   39.6610 N   0  0  0  0  0  0  0  0  0  0  0  0
   39.2130   32.4730   39.9990 C   0  0  0  0  0  0  0  0  0  0  0  0
   37.9050   32.8660   40.2400 N   0  0  0  0  0  0  0  0  0  0  0  0
   35.9000   32.2310   40.3110 H   0  0  0  0  0  0  0  0  0  0  0  0
   38.7280   29.2360   39.2700 H   0  0  0  0  0  0  0  0  0  0  0  0
   40.0830   33.1110   40.0550 H   0  0  0  0  0  0  0  0  0  0  0  0
   36.4360   29.1890   42.0800 N   0  0  0  0  0  0  0  0  0  0  0  0
   36.9440   28.2290   42.9570 C   0  0  0  0  0  0  0  0  0  0  0  0
   36.3400   27.2370   43.4900 O   0  0  0  0  0  0  0  0  0  0  0  0
   36.6700   30.1820   42.3930 H   0  0  0  0  0  0  0  0  0  0  0  0
   38.3830   28.2300   43.4330 C   0  0  0  0  0  3  0  0  0  0  0  0
   39.4470   27.7680   42.4140 C   0  0  0  0  0  2  0  0  0  0  0  0
   39.0940   26.9420   43.6190 C   0  0  0  0  0  2  0  0  0  0  0  0
  1  4  1  6  0  0  0
  1  2  1  0  0  0  0
  1  9  1  0  0  0  0
  1  3  1  0  0  0  0
  2  5  1  0  0  0  0
  2  3  1  0  0  0  0
  3  7  1  1  0  0  0
  3 17  1  0  0  0  0
  6  2  1  0  0  0  0
  8 13  1  0  0  0  0
  8 14  1  0  0  0  0
  9  8  2  0  0  0  0
 10 11  2  0  0  0  0
 10  9  1  0  0  0  0
 11 12  1  0  0  0  0
 12 16  1  0  0  0  0
 12 13  2  0  0  0  0
 15 10  1  0  0  0  0
 17 20  1  0  0  0  0
 17 18  1  0  0  0  0
 18 21  1  0  0  0  0
 18 19  2  0  0  0  0
 21 23  1  0  0  0  0
 22 21  1  0  0  0  0
 22 23  1  0  0  0  0
M  END
>  <minimizedAffinity>
-4.34780598

$$$$

 OpenBabel03242510183D

 23 25  0  0  1  0  0  0  0  0999 V2000
   38.1760   27.3310   43.1580 C   0  0  1  0  0  0  0  0  0  0  0  0
   38.7180   28.5860   42.7340 C   0  0  0  0  0  0  0  0  0  0  0  0
   37.2620   28.5290   43.1260 C   0  0  1  0  0  0  0  0  0  0  0  0
   38.4220   26.8960   44.1420 H   0  0  0  0  0  0  0  0  0  0  0  0
   38.8840   28.8040   41.6530 H   0  0  0  0  0  0  0  0  0  0  0  0
   39.4310   29.1390   43.3640 H   0  0  0  0  0  0  0  0  0  0  0  0
   37.0600   29.1170   44.0100 H   0  0  0  0  0  0  0  0  0  0  0  0
   36.9850   25.2080   42.3160 C   0  0  0  0  0  0  0  0  0  0  0  0
   37.9250   26.2550   42.1110 C   0  0  0  0  0  0  0  0  0  0  0  0
   38.6250   26.2850   40.9340 C   0  0  0  0  0  0  0  0  0  0  0  0
   38.3970   25.3200   40.0090 N   0  0  0  0  0  0  0  0  0  0  0  0
   37.5080   24.3260   40.1940 C   0  0  0  0  0  0  0  0  0  0  0  0
   36.7860   24.2700   41.3770 N   0  0  0  0  0  0  0  0  0  0  0  0
   36.4500   25.1970   43.2360 H   0  0  0  0  0  0  0  0  0  0  0  0
   39.3480   27.0720   40.7570 H   0  0  0  0  0  0  0  0  0  0  0  0
   37.4290   23.6270   39.3740 H   0  0  0  0  0  0  0  0  0  0  0  0
   36.2900   28.5440   42.0780 N   0  0  0  0  0  0  0  0  0  0  0  0
   36.2190   29.5650   41.1280 C   0  0  0  0  0  0  0  0  0  0  0  0
   36.1990   30.8280   41.3160 O   0  0  0  0  0  0  0  0  0  0  0  0
   35.5460   27.7970   41.9210 H   0  0  0  0  0  0  0  0  0  0  0  0
   36.1490   29.2970   39.6390 C   0  0  0  0  0  3  0  0  0  0  0  0
   34.7550   28.9730   39.0600 C   0  0  0  0  0  2  0  0  0  0  0  0
   35.8350   27.9320   39.1530 C   0  0  0  0  0  2  0  0  0  0  0  0
  1  4  1  1  0  0  0
  2  3  1  0  0  0  0
  2  1  1  0  0  0  0
  2  6  1  0  0  0  0
  3  1  1  0  0  0  0
  3  7  1  1  0  0  0
  5  2  1  0  0  0  0
  8 14  1  0  0  0  0
  9  8  1  0  0  0  0
  9  1  1  0  0  0  0
 10  9  2  0  0  0  0
 11 12  2  0  0  0  0
 11 10  1  0  0  0  0
 12 13  1  0  0  0  0
 13  8  2  0  0  0  0
 15 10  1  0  0  0  0
 16 12  1  0  0  0  0
 17  3  1  0  0  0  0
 18 19  2  0  0  0  0
 18 17  1  0  0  0  0
 20 17  1  0  0  0  0
 21 18  1  0  0  0  0
 22 23  1  0  0  0  0
 22 21  1  0  0  0  0
 23 21  1  0  0  0  0
M  END
>  <minimizedAffinity>
-4.2107501

$$$$

 OpenBabel03242510183D

 23 25  0  0  1  0  0  0  0  0999 V2000
   39.3650   30.0640   42.9280 C   0  0  1  0  0  0  0  0  0  0  0  0
   40.5370   30.3030   42.1400 C   0  0  0  0  0  0  0  0  0  0  0  0
   39.2660   31.0260   41.7720 C   0  0  1  0  0  0  0  0  0  0  0  0
   39.2620   30.4720   43.9490 H   0  0  0  0  0  0  0  0  0  0  0  0
   40.8720   29.5650   41.3730 H   0  0  0  0  0  0  0  0  0  0  0  0
   41.3890   30.8680   42.5450 H   0  0  0  0  0  0  0  0  0  0  0  0
   39.3570   32.0940   41.9090 H   0  0  0  0  0  0  0  0  0  0  0  0
   37.3160   28.5400   43.2510 C   0  0  0  0  0  0  0  0  0  0  0  0
   38.6410   28.7360   42.7740 C   0  0  0  0  0  0  0  0  0  0  0  0
   39.2770   27.6890   42.1600 C   0  0  0  0  0  0  0  0  0  0  0  0
   38.6240   26.5080   42.0300 N   0  0  0  0  0  0  0  0  0  0  0  0
   37.3690   26.3130   42.4780 C   0  0  0  0  0  0  0  0  0  0  0  0
   36.7010   27.3560   43.1040 N   0  0  0  0  0  0  0  0  0  0  0  0
   36.8350   29.3610   43.7260 H   0  0  0  0  0  0  0  0  0  0  0  0
   40.2870   27.8150   41.7910 H   0  0  0  0  0  0  0  0  0  0  0  0
   36.9720   25.3240   42.3070 H   0  0  0  0  0  0  0  0  0  0  0  0
   38.5390   30.5600   40.6340 N   0  0  0  0  0  0  0  0  0  0  0  0
   37.2610   31.0210   40.3110 C   0  0  0  0  0  0  0  0  0  0  0  0
   36.2350   31.1170   41.0660 O   0  0  0  0  0  0  0  0  0  0  0  0
   38.8920   29.8350   39.9350 H   0  0  0  0  0  0  0  0  0  0  0  0
   36.8880   31.5050   38.9250 C   0  0  0  0  0  3  0  0  0  0  0  0
   36.8790   30.4440   37.8030 C   0  0  0  0  0  2  0  0  0  0  0  0
   37.9150   31.5310   37.8560 C   0  0  0  0  0  2  0  0  0  0  0  0
  1  4  1  1  0  0  0
  2  6  1  0  0  0  0
  2  1  1  0  0  0  0
  3  7  1  1  0  0  0
  3  2  1  0  0  0  0
  3  1  1  0  0  0  0
  5  2  1  0  0  0  0
  8 14  1  0  0  0  0
  9  1  1  0  0  0  0
  9  8  2  0  0  0  0
 10  9  1  0  0  0  0
 11 10  2  0  0  0  0
 11 12  1  0  0  0  0
 12 13  2  0  0  0  0
 13  8  1  0  0  0  0
 15 10  1  0  0  0  0
 16 12  1  0  0  0  0
 17  3  1  0  0  0  0
 18 17  1  0  0  0  0
 18 19  2  0  0  0  0
 20 17  1  0  0  0  0
 21 18  1  0  0  0  0
 22 23  1  0  0  0  0
 22 21  1  0  0  0  0
 23 21  1  0  0  0  0
M  END
>  <minimizedAffinity>
-4.09300518

$$$$

 OpenBabel03242510183D

 23 25  0  0  1  0  0  0  0  0999 V2000
   37.7000   28.4290   43.6590 C   0  0  1  0  0  0  0  0  0  0  0  0
   36.6320   27.5130   43.3920 C   0  0  0  0  0  0  0  0  0  0  0  0
   38.0500   27.0330   43.2120 C   0  0  1  0  0  0  0  0  0  0  0  0
   37.9670   28.7230   44.6890 H   0  0  0  0  0  0  0  0  0  0  0  0
   36.0520   27.5700   42.4410 H   0  0  0  0  0  0  0  0  0  0  0  0
   36.0170   27.1040   44.2080 H   0  0  0  0  0  0  0  0  0  0  0  0
   38.3040   26.2550   43.9170 H   0  0  0  0  0  0  0  0  0  0  0  0
   36.9850   29.9710   41.7240 C   0  0  0  0  0  0  0  0  0  0  0  0
   37.9640   29.5500   42.6650 C   0  0  0  0  0  0  0  0  0  0  0  0
   39.1830   30.1780   42.6670 C   0  0  0  0  0  0  0  0  0  0  0  0
   39.4100   31.1740   41.7760 N   0  0  0  0  0  0  0  0  0  0  0  0
   38.4880   31.5790   40.8810 C   0  0  0  0  0  0  0  0  0  0  0  0
   37.2460   30.9610   40.8570 N   0  0  0  0  0  0  0  0  0  0  0  0
   36.0440   29.4730   41.7340 H   0  0  0  0  0  0  0  0  0  0  0  0
   39.9440   29.8730   43.3740 H   0  0  0  0  0  0  0  0  0  0  0  0
   38.8040   32.3820   40.2320 H   0  0  0  0  0  0  0  0  0  0  0  0
   38.5480   26.9130   41.8780 N   0  0  0  0  0  0  0  0  0  0  0  0
   38.0770   25.9530   40.9790 C   0  0  0  0  0  0  0  0  0  0  0  0
   37.9340   24.6960   41.1580 O   0  0  0  0  0  0  0  0  0  0  0  0
   39.3040   27.5290   41.4470 H   0  0  0  0  0  0  0  0  0  0  0  0
   37.6400   26.2920   39.5690 C   0  0  0  0  0  3  0  0  0  0  0  0
   36.3660   27.1530   39.4290 C   0  0  0  0  0  2  0  0  0  0  0  0
   36.3910   25.7060   39.0260 C   0  0  0  0  0  2  0  0  0  0  0  0
  1  4  1  1  0  0  0
  2  1  1  0  0  0  0
  2  6  1  0  0  0  0
  3  2  1  0  0  0  0
  3  1  1  0  0  0  0
  3  7  1  1  0  0  0
  5  2  1  0  0  0  0
  8 14  1  0  0  0  0
  8  9  1  0  0  0  0
  9 10  2  0  0  0  0
  9  1  1  0  0  0  0
 10 15  1  0  0  0  0
 11 10  1  0  0  0  0
 12 11  2  0  0  0  0
 13 12  1  0  0  0  0
 13  8  2  0  0  0  0
 16 12  1  0  0  0  0
 17  3  1  0  0  0  0
 18 19  2  0  0  0  0
 18 17  1  0  0  0  0
 20 17  1  0  0  0  0
 21 18  1  0  0  0  0
 22 21  1  0  0  0  0
 23 22  1  0  0  0  0
 23 21  1  0  0  0  0
M  END
>  <minimizedAffinity>
-4.08548069

$$$$

 OpenBabel03242510183D

 23 25  0  0  1  0  0  0  0  0999 V2000
   37.1090   30.9340   38.1160 C   0  0  1  0  0  0  0  0  0  0  0  0
   37.7340   29.8480   37.4230 C   0  0  0  0  0  0  0  0  0  0  0  0
   37.0930   29.5710   38.7590 C   0  0  1  0  0  0  0  0  0  0  0  0
   36.1460   31.3570   37.7800 H   0  0  0  0  0  0  0  0  0  0  0  0
   38.8440   29.7300   37.4240 H   0  0  0  0  0  0  0  0  0  0  0  0
   37.2920   29.4280   36.5070 H   0  0  0  0  0  0  0  0  0  0  0  0
   36.2450   28.9070   38.6680 H   0  0  0  0  0  0  0  0  0  0  0  0
   37.4800   32.9180   39.7150 C   0  0  0  0  0  0  0  0  0  0  0  0
   37.9920   31.9860   38.7710 C   0  0  0  0  0  0  0  0  0  0  0  0
   39.3210   32.0470   38.4450 C   0  0  0  0  0  0  0  0  0  0  0  0
   40.0990   32.9900   39.0310 N   0  0  0  0  0  0  0  0  0  0  0  0
   39.6240   33.8760   39.9270 C   0  0  0  0  0  0  0  0  0  0  0  0
   38.2820   33.8380   40.2750 N   0  0  0  0  0  0  0  0  0  0  0  0
   36.4460   32.8590   39.9570 H   0  0  0  0  0  0  0  0  0  0  0  0
   39.7320   31.3480   37.7270 H   0  0  0  0  0  0  0  0  0  0  0  0
   40.3550   34.5700   40.3130 H   0  0  0  0  0  0  0  0  0  0  0  0
   37.9520   29.4040   39.8890 N   0  0  0  0  0  0  0  0  0  0  0  0
   37.4730   29.3330   41.1990 C   0  0  0  0  0  0  0  0  0  0  0  0
   36.6590   30.1170   41.7930 O   0  0  0  0  0  0  0  0  0  0  0  0
   39.0140   29.3180   39.8440 H   0  0  0  0  0  0  0  0  0  0  0  0
   37.8820   28.2390   42.1640 C   0  0  0  0  0  3  0  0  0  0  0  0
   37.0780   26.9220   42.0960 C   0  0  0  0  0  2  0  0  0  0  0  0
   36.9690   27.8560   43.2680 C   0  0  0  0  0  2  0  0  0  0  0  0
  1  4  1  6  0  0  0
  1  3  1  0  0  0  0
  1  9  1  0  0  0  0
  2  5  1  0  0  0  0
  2  1  1  0  0  0  0
  2  3  1  0  0  0  0
  3  7  1  1  0  0  0
  3 17  1  0  0  0  0
  6  2  1  0  0  0  0
  8 14  1  0  0  0  0
  8 13  1  0  0  0  0
  9  8  2  0  0  0  0
 10  9  1  0  0  0  0
 10 11  2  0  0  0  0
 11 12  1  0  0  0  0
 12 13  2  0  0  0  0
 12 16  1  0  0  0  0
 15 10  1  0  0  0  0
 17 18  1  0  0  0  0
 18 19  2  0  0  0  0
 18 21  1  0  0  0  0
 20 17  1  0  0  0  0
 21 23  1  0  0  0  0
 22 21  1  0  0  0  0
 22 23  1  0  0  0  0
M  END
>  <minimizedAffinity>
-4.07963896

$$$$

 OpenBabel03242510183D

 23 25  0  0  1  0  0  0  0  0999 V2000
   37.2100   30.6380   38.1580 C   0  0  1  0  0  0  0  0  0  0  0  0
   37.9350   29.5550   37.5650 C   0  0  0  0  0  0  0  0  0  0  0  0
   37.2490   29.3190   38.8870 C   0  0  1  0  0  0  0  0  0  0  0  0
   36.2400   30.9760   37.7540 H   0  0  0  0  0  0  0  0  0  0  0  0
   39.0480   29.5100   37.6220 H   0  0  0  0  0  0  0  0  0  0  0  0
   37.5640   29.0510   36.6600 H   0  0  0  0  0  0  0  0  0  0  0  0
   36.4500   28.5960   38.8020 H   0  0  0  0  0  0  0  0  0  0  0  0
   39.3850   31.9590   38.5520 C   0  0  0  0  0  0  0  0  0  0  0  0
   37.9930   31.7840   38.7810 C   0  0  0  0  0  0  0  0  0  0  0  0
   37.3460   32.6780   39.5930 C   0  0  0  0  0  0  0  0  0  0  0  0
   38.0520   33.6950   40.1460 N   0  0  0  0  0  0  0  0  0  0  0  0
   39.3710   33.8690   39.9330 C   0  0  0  0  0  0  0  0  0  0  0  0
   40.0520   32.9780   39.1170 N   0  0  0  0  0  0  0  0  0  0  0  0
   39.8740   31.2560   37.9200 H   0  0  0  0  0  0  0  0  0  0  0  0
   36.2860   32.5630   39.7830 H   0  0  0  0  0  0  0  0  0  0  0  0
   39.8050   34.7200   40.4370 H   0  0  0  0  0  0  0  0  0  0  0  0
   38.0620   29.2790   40.0610 N   0  0  0  0  0  0  0  0  0  0  0  0
   37.5270   29.2740   41.3510 C   0  0  0  0  0  0  0  0  0  0  0  0
   36.6460   30.0520   41.8520 O   0  0  0  0  0  0  0  0  0  0  0  0
   39.1280   29.2480   40.0690 H   0  0  0  0  0  0  0  0  0  0  0  0
   37.9460   28.2740   42.4100 C   0  0  0  0  0  3  0  0  0  0  0  0
   37.2590   26.8920   42.3650 C   0  0  0  0  0  2  0  0  0  0  0  0
   36.9830   27.8770   43.4650 C   0  0  0  0  0  2  0  0  0  0  0  0
  1  4  1  6  0  0  0
  1  9  1  0  0  0  0
  1  3  1  0  0  0  0
  2  5  1  0  0  0  0
  2  1  1  0  0  0  0
  2  3  1  0  0  0  0
  3  7  1  6  0  0  0
  3 17  1  0  0  0  0
  6  2  1  0  0  0  0
  8  9  2  0  0  0  0
  8 13  1  0  0  0  0
  9 10  1  0  0  0  0
 10 15  1  0  0  0  0
 10 11  2  0  0  0  0
 12 11  1  0  0  0  0
 12 16  1  0  0  0  0
 13 12  2  0  0  0  0
 14  8  1  0  0  0  0
 17 20  1  0  0  0  0
 17 18  1  0  0  0  0
 18 19  2  0  0  0  0
 18 21  1  0  0  0  0
 21 23  1  0  0  0  0
 22 21  1  0  0  0  0
 22 23  1  0  0  0  0
M  END
>  <minimizedAffinity>
-4.05758715

$$$$

 OpenBabel03242510183D

 23 25  0  0  1  0  0  0  0  0999 V2000
   36.8260   27.2350   43.0820 C   0  0  1  0  0  0  0  0  0  0  0  0
   37.5430   28.4040   43.4960 C   0  0  0  0  0  0  0  0  0  0  0  0
   36.7540   28.4640   42.2120 C   0  0  1  0  0  0  0  0  0  0  0  0
   35.9030   26.9110   43.5930 H   0  0  0  0  0  0  0  0  0  0  0  0
   38.6460   28.4820   43.3500 H   0  0  0  0  0  0  0  0  0  0  0  0
   37.2150   28.9930   44.3660 H   0  0  0  0  0  0  0  0  0  0  0  0
   35.9320   29.1630   42.2770 H   0  0  0  0  0  0  0  0  0  0  0  0
   39.0250   25.9660   42.6560 C   0  0  0  0  0  0  0  0  0  0  0  0
   37.6120   26.0550   42.5310 C   0  0  0  0  0  0  0  0  0  0  0  0
   36.9460   25.0430   41.8890 C   0  0  0  0  0  0  0  0  0  0  0  0
   37.6550   23.9970   41.4000 N   0  0  0  0  0  0  0  0  0  0  0  0
   38.9940   23.9040   41.5140 C   0  0  0  0  0  0  0  0  0  0  0  0
   39.6940   24.9140   42.1570 N   0  0  0  0  0  0  0  0  0  0  0  0
   39.5290   26.7590   43.1550 H   0  0  0  0  0  0  0  0  0  0  0  0
   35.8700   25.0910   41.7820 H   0  0  0  0  0  0  0  0  0  0  0  0
   39.4280   23.0170   41.0780 H   0  0  0  0  0  0  0  0  0  0  0  0
   37.4790   28.4000   40.9820 N   0  0  0  0  0  0  0  0  0  0  0  0
   36.8510   28.3220   39.7380 C   0  0  0  0  0  0  0  0  0  0  0  0
   35.9240   27.5280   39.3610 O   0  0  0  0  0  0  0  0  0  0  0  0
   38.5420   28.4090   40.8950 H   0  0  0  0  0  0  0  0  0  0  0  0
   37.2060   29.2320   38.5790 C   0  0  0  0  0  3  0  0  0  0  0  0
   36.7330   30.6980   38.6830 C   0  0  0  0  0  2  0  0  0  0  0  0
   36.1340   29.7420   37.6910 C   0  0  0  0  0  2  0  0  0  0  0  0
  1  2  1  0  0  0  0
  1  4  1  1  0  0  0
  2  6  1  0  0  0  0
  3  7  1  1  0  0  0
  3  1  1  0  0  0  0
  3  2  1  0  0  0  0
  5  2  1  0  0  0  0
  8 14  1  0  0  0  0
  9  8  1  0  0  0  0
  9  1  1  0  0  0  0
 10  9  2  0  0  0  0
 11 12  2  0  0  0  0
 11 10  1  0  0  0  0
 12 13  1  0  0  0  0
 13  8  2  0  0  0  0
 15 10  1  0  0  0  0
 16 12  1  0  0  0  0
 17  3  1  0  0  0  0
 18 17  1  0  0  0  0
 19 18  2  0  0  0  0
 20 17  1  0  0  0  0
 21 22  1  0  0  0  0
 21 18  1  0  0  0  0
 23 21  1  0  0  0  0
 23 22  1  0  0  0  0
M  END
>  <minimizedAffinity>
-3.99734473

$$$$

 OpenBabel03242510183D

 23 25  0  0  1  0  0  0  0  0999 V2000
   37.3400   32.3360   38.8820 C   0  0  1  0  0  0  0  0  0  0  0  0
   37.5800   33.2680   39.9430 C   0  0  0  0  0  0  0  0  0  0  0  0
   38.7620   32.5650   39.3250 C   0  0  1  0  0  0  0  0  0  0  0  0
   37.0540   32.6730   37.8700 H   0  0  0  0  0  0  0  0  0  0  0  0
   37.3950   32.9860   41.0070 H   0  0  0  0  0  0  0  0  0  0  0  0
   37.4460   34.3490   39.7910 H   0  0  0  0  0  0  0  0  0  0  0  0
   39.4160   33.2550   38.8100 H   0  0  0  0  0  0  0  0  0  0  0  0
   36.1400   30.7210   40.4900 C   0  0  0  0  0  0  0  0  0  0  0  0
   36.7290   30.9850   39.2230 C   0  0  0  0  0  0  0  0  0  0  0  0
   36.7450   29.9840   38.2870 C   0  0  0  0  0  0  0  0  0  0  0  0
   36.2010   28.7830   38.6000 N   0  0  0  0  0  0  0  0  0  0  0  0
   35.6400   28.5240   39.7980 C   0  0  0  0  0  0  0  0  0  0  0  0
   35.6110   29.5190   40.7640 N   0  0  0  0  0  0  0  0  0  0  0  0
   36.1360   31.5080   41.2060 H   0  0  0  0  0  0  0  0  0  0  0  0
   37.1890   30.1630   37.3160 H   0  0  0  0  0  0  0  0  0  0  0  0
   35.2460   27.5250   39.9100 H   0  0  0  0  0  0  0  0  0  0  0  0
   39.3640   31.5000   40.0620 N   0  0  0  0  0  0  0  0  0  0  0  0
   40.2530   31.7190   41.1170 C   0  0  0  0  0  0  0  0  0  0  0  0
   41.2850   32.4720   41.1460 O   0  0  0  0  0  0  0  0  0  0  0  0
   39.1970   30.4620   39.8880 H   0  0  0  0  0  0  0  0  0  0  0  0
   40.1080   31.0480   42.4670 C   0  0  0  0  0  3  0  0  0  0  0  0
   40.4940   29.5550   42.5410 C   0  0  0  0  0  2  0  0  0  0  0  0
   39.0670   30.0110   42.6620 C   0  0  0  0  0  2  0  0  0  0  0  0
  1  4  1  6  0  0  0
  1  9  1  0  0  0  0
  1  3  1  0  0  0  0
  1  2  1  0  0  0  0
  2  5  1  0  0  0  0
  3  7  1  6  0  0  0
  3  2  1  0  0  0  0
  3 17  1  0  0  0  0
  6  2  1  0  0  0  0
  8 13  1  0  0  0  0
  8 14  1  0  0  0  0
  9  8  2  0  0  0  0
 10 11  2  0  0  0  0
 10  9  1  0  0  0  0
 11 12  1  0  0  0  0
 12 16  1  0  0  0  0
 12 13  2  0  0  0  0
 15 10  1  0  0  0  0
 17 18  1  0  0  0  0
 18 19  2  0  0  0  0
 18 21  1  0  0  0  0
 20 17  1  0  0  0  0
 21 22  1  0  0  0  0
 21 23  1  0  0  0  0
 22 23  1  0  0  0  0
M  END
>  <minimizedAffinity>
-3.96581912

$$$$

 OpenBabel03242510183D

 23 25  0  0  1  0  0  0  0  0999 V2000
   36.1310   28.1910   40.0820 C   0  0  1  0  0  0  0  0  0  0  0  0
   34.9930   29.0280   40.3160 C   0  0  0  0  0  0  0  0  0  0  0  0
   36.1060   29.5590   39.4490 C   0  0  1  0  0  0  0  0  0  0  0  0
   36.0770   27.3130   39.4150 H   0  0  0  0  0  0  0  0  0  0  0  0
   34.8730   29.5770   41.2800 H   0  0  0  0  0  0  0  0  0  0  0  0
   34.0150   28.7960   39.8690 H   0  0  0  0  0  0  0  0  0  0  0  0
   35.7840   29.7100   38.4290 H   0  0  0  0  0  0  0  0  0  0  0  0
   38.4760   27.6040   40.9680 C   0  0  0  0  0  0  0  0  0  0  0  0
   37.1270   27.9820   41.2120 C   0  0  0  0  0  0  0  0  0  0  0  0
   36.7210   28.1560   42.5090 C   0  0  0  0  0  0  0  0  0  0  0  0
   37.6150   27.9650   43.5100 N   0  0  0  0  0  0  0  0  0  0  0  0
   38.8950   27.6080   43.2880 C   0  0  0  0  0  0  0  0  0  0  0  0
   39.3340   27.4230   41.9860 N   0  0  0  0  0  0  0  0  0  0  0  0
   38.7770   27.4710   39.9570 H   0  0  0  0  0  0  0  0  0  0  0  0
   35.6970   28.4420   42.7180 H   0  0  0  0  0  0  0  0  0  0  0  0
   39.4950   27.4890   44.1780 H   0  0  0  0  0  0  0  0  0  0  0  0
   36.9910   30.5260   40.0190 N   0  0  0  0  0  0  0  0  0  0  0  0
   38.1160   31.0090   39.3470 C   0  0  0  0  0  0  0  0  0  0  0  0
   39.0380   30.3490   38.7590 O   0  0  0  0  0  0  0  0  0  0  0  0
   36.8810   30.9640   40.9850 H   0  0  0  0  0  0  0  0  0  0  0  0
   38.4220   32.4870   39.2150 C   0  0  0  0  0  3  0  0  0  0  0  0
   38.6260   33.2700   40.5290 C   0  0  0  0  0  2  0  0  0  0  0  0
   37.4200   33.4860   39.6590 C   0  0  0  0  0  2  0  0  0  0  0  0
  1  4  1  6  0  0  0
  1  2  1  0  0  0  0
  1  9  1  0  0  0  0
  2  5  1  0  0  0  0
  3  7  1  6  0  0  0
  3 17  1  0  0  0  0
  3  1  1  0  0  0  0
  3  2  1  0  0  0  0
  6  2  1  0  0  0  0
  8  9  2  0  0  0  0
  8 13  1  0  0  0  0
  9 10  1  0  0  0  0
 10 15  1  0  0  0  0
 10 11  2  0  0  0  0
 12 11  1  0  0  0  0
 12 16  1  0  0  0  0
 13 12  2  0  0  0  0
 14  8  1  0  0  0  0
 17 20  1  0  0  0  0
 18 17  1  0  0  0  0
 19 18  2  0  0  0  0
 21 18  1  0  0  0  0
 21 23  1  0  0  0  0
 21 22  1  0  0  0  0
 23 22  1  0  0  0  0
M  END
>  <minimizedAffinity>
-3.95673013

$$$$
