
 OpenBabel03252509083D

 35 38  0  0  0  0  0  0  0  0999 V2000
   45.3740   35.4040   43.2350 Cl  0  0  0  0  0  0  0  0  0  0  0  0
   45.1910   34.6230   41.6870 C   0  0  0  0  0  0  0  0  0  0  0  0
   46.2570   34.1850   40.9840 C   0  0  0  0  0  0  0  0  0  0  0  0
   46.0130   33.5860   39.7610 C   0  0  0  0  0  0  0  0  0  0  0  0
   44.7440   33.4320   39.2620 C   0  0  0  0  0  0  0  0  0  0  0  0
   43.6800   33.8750   39.9780 C   0  0  0  0  0  0  0  0  0  0  0  0
   43.9110   34.4740   41.2010 C   0  0  0  0  0  0  0  0  0  0  0  0
   44.6080   32.9600   38.3020 H   0  0  0  0  0  0  0  0  0  0  0  0
   42.6730   33.7730   39.6230 H   0  0  0  0  0  0  0  0  0  0  0  0
   43.0570   34.8250   41.7700 H   0  0  0  0  0  0  0  0  0  0  0  0
   47.5760   31.7930   38.9870 C   0  0  0  0  0  0  0  0  0  0  0  0
   47.1390   33.0830   38.9780 C   0  0  0  0  0  0  0  0  0  0  0  0
   47.7870   34.0050   38.1770 C   0  0  0  0  0  0  0  0  0  0  0  0
   48.8560   33.6220   37.4010 C   0  0  0  0  0  0  0  0  0  0  0  0
   49.3150   32.3110   37.3950 C   0  0  0  0  0  0  0  0  0  0  0  0
   48.6580   31.3910   38.2040 C   0  0  0  0  0  0  0  0  0  0  0  0
   47.4680   35.0300   38.1480 H   0  0  0  0  0  0  0  0  0  0  0  0
   49.3380   34.3600   36.7900 H   0  0  0  0  0  0  0  0  0  0  0  0
   50.1430   32.0140   36.7920 H   0  0  0  0  0  0  0  0  0  0  0  0
   49.0260   30.3870   38.1860 H   0  0  0  0  0  0  0  0  0  0  0  0
   46.8100   30.6150   39.9090 S   0  0  0  0  0  0  0  0  0  0  0  0
   45.4790   30.1780   39.3510 O   0  0  0  0  0  0  0  0  0  0  0  0
   47.6990   29.3460   39.7390 O   0  0  0  0  0  0  0  0  0  0  0  0
   46.6290   30.6140   41.6060 C   0  0  0  0  0  3  0  0  0  0  0  0
   45.1500   30.8640   42.0030 C   0  0  0  0  0  2  0  0  0  0  0  0
   45.8270   29.6510   42.4210 C   0  0  0  0  0  2  0  0  0  0  0  0
   49.5750   35.7450   41.9290 C   0  0  0  0  0  0  0  0  0  0  0  0
   48.2940   35.5710   41.3950 C   0  0  0  0  0  0  0  0  0  0  0  0
   47.5930   34.3770   41.5370 C   0  0  0  0  0  0  0  0  0  0  0  0
   48.2370   33.4240   42.2170 N   0  0  0  0  0  0  0  0  0  0  0  0
   49.4610   33.5800   42.7310 C   0  0  0  0  0  0  0  0  0  0  0  0
   50.1240   34.7300   42.5890 N   0  0  0  0  0  0  0  0  0  0  0  0
   50.0490   36.7110   41.7710 H   0  0  0  0  0  0  0  0  0  0  0  0
   47.8200   36.3810   40.8520 H   0  0  0  0  0  0  0  0  0  0  0  0
   49.9690   32.7910   43.2820 H   0  0  0  0  0  0  0  0  0  0  0  0
  2  1  1  0  0  0  0
  3 29  1  0  0  0  0
  3  2  2  0  0  0  0
  4  3  1  0  0  0  0
  5  4  2  0  0  0  0
  5  6  1  0  0  0  0
  6  7  2  0  0  0  0
  7  2  1  0  0  0  0
  7 10  1  0  0  0  0
  8  5  1  0  0  0  0
  9  6  1  0  0  0  0
 11 21  1  0  0  0  0
 12 11  1  0  0  0  0
 12  4  1  0  0  0  0
 13 12  2  0  0  0  0
 14 13  1  0  0  0  0
 15 14  2  0  0  0  0
 15 16  1  0  0  0  0
 16 11  2  0  0  0  0
 17 13  1  0  0  0  0
 18 14  1  0  0  0  0
 19 15  1  0  0  0  0
 20 16  1  0  0  0  0
 21 24  1  0  0  0  0
 22 21  2  0  0  0  0
 23 21  2  0  0  0  0
 24 25  1  0  0  0  0
 24 26  1  0  0  0  0
 25 26  1  0  0  0  0
 27 32  1  0  0  0  0
 28 29  1  0  0  0  0
 28 27  2  0  0  0  0
 29 30  2  0  0  0  0
 30 31  1  0  0  0  0
 31 35  1  0  0  0  0
 32 31  2  0  0  0  0
 33 27  1  0  0  0  0
 34 28  1  0  0  0  0
M  END
>  <minimizedAffinity>
-4.45054626

>  <minimizedRMSD>
0.694718361

$$$$
