
 OpenBabel03252501213D

 26 27  0  0  0  0  0  0  0  0999 V2000
   44.8780   35.9360   43.1080 C   0  0  0  0  0  0  0  0  0  0  0  0
   45.2460   36.2180   42.1340 H   0  0  0  0  0  0  0  0  0  0  0  0
   43.8320   35.5470   42.9290 H   0  0  0  0  0  0  0  0  0  0  0  0
   45.2030   34.4500   45.0360 C   0  0  0  0  0  0  0  0  0  0  0  0
   45.6030   34.8760   43.7770 C   0  0  0  0  0  0  0  0  0  0  0  0
   46.7100   34.2230   43.2390 C   0  0  0  0  0  0  0  0  0  0  0  0
   47.3390   33.2280   43.9410 N   0  0  0  0  0  0  0  0  0  0  0  0
   46.9040   32.8610   45.1580 C   0  0  0  0  0  0  0  0  0  0  0  0
   45.8260   33.4700   45.7210 N   0  0  0  0  0  0  0  0  0  0  0  0
   44.3330   34.9460   45.4870 H   0  0  0  0  0  0  0  0  0  0  0  0
   47.3880   32.0760   45.7280 H   0  0  0  0  0  0  0  0  0  0  0  0
   47.1190   34.6880   41.9050 C   0  0  0  0  0  0  0  0  0  0  0  0
   48.0500   33.8080   41.3810 F   0  0  0  0  0  0  0  0  0  0  0  0
   47.7290   35.8910   42.0600 F   0  0  0  0  0  0  0  0  0  0  0  0
   46.0750   34.6860   41.0250 F   0  0  0  0  0  0  0  0  0  0  0  0
   44.7060   37.0790   44.0170 N   0  0  0  0  0  0  0  0  0  0  0  0
   43.7490   37.4810   43.9720 H   0  0  0  0  0  0  0  0  0  0  0  0
   45.6980   38.0550   43.6160 C   0  0  0  0  0  0  0  0  0  0  0  0
   46.5630   37.9620   44.3020 H   0  0  0  0  0  0  0  0  0  0  0  0
   46.0710   37.9070   42.5900 H   0  0  0  0  0  0  0  0  0  0  0  0
   45.1920   39.4760   43.7320 C   0  0  0  0  0  0  0  0  0  0  0  0
   44.0810   39.4310   43.6150 H   0  0  0  0  0  0  0  0  0  0  0  0
   45.5630   40.0200   42.8540 H   0  0  0  0  0  0  0  0  0  0  0  0
   45.6390   40.1570   44.9840 C   0  0  0  0  0  0  0  0  0  0  0  0
   44.9880   40.0100   46.2850 C   0  0  0  0  0  0  0  0  0  0  0  0
   44.6210   41.2280   45.4700 C   0  0  0  0  0  0  0  0  0  0  0  0
  1  5  1  0  0  0  0
  1 16  1  0  0  0  0
  2  1  1  0  0  0  0
  3  1  1  0  0  0  0
  4 10  1  0  0  0  0
  4  9  1  0  0  0  0
  5  4  2  0  0  0  0
  6  5  1  0  0  0  0
  6  7  2  0  0  0  0
  7  8  1  0  0  0  0
  8  9  2  0  0  0  0
  8 11  1  0  0  0  0
 12 14  1  0  0  0  0
 12  6  1  0  0  0  0
 13 12  1  0  0  0  0
 15 12  1  0  0  0  0
 17 16  1  0  0  0  0
 18 21  1  0  0  0  0
 18 16  1  0  0  0  0
 18 19  1  0  0  0  0
 20 18  1  0  0  0  0
 21 24  1  0  0  0  0
 22 21  1  0  0  0  0
 23 21  1  0  0  0  0
 24 26  1  0  0  0  0
 24 25  1  0  0  0  0
 26 25  1  0  0  0  0
M  END
>  <minimizedAffinity>
-3.99668241

>  <minimizedRMSD>
0.770179451

$$$$
