
 OpenBabel03252508013D

 23 25  0  0  1  0  0  0  0  0999 V2000
   37.2450   26.9880   41.6290 C   0  0  0  0  0  0  0  0  0  0  0  0
   37.1710   26.9940   43.0560 C   0  0  0  0  0  0  0  0  0  0  0  0
   37.4110   28.2190   43.6710 C   0  0  0  0  0  0  0  0  0  0  0  0
   37.6930   29.3030   42.8980 N   0  0  0  0  0  0  0  0  0  0  0  0
   37.7470   29.2200   41.5350 C   0  0  0  0  0  0  0  0  0  0  0  0
   37.5300   28.0940   40.8890 N   0  0  0  0  0  0  0  0  0  0  0  0
   36.9410   26.0760   43.5760 H   0  0  0  0  0  0  0  0  0  0  0  0
   37.3660   28.2670   44.7460 H   0  0  0  0  0  0  0  0  0  0  0  0
   38.0530   30.4630   40.7660 C   0  0  1  0  0  0  0  0  0  0  0  0
   37.3320   30.7090   39.4590 C   0  0  0  0  0  0  0  0  0  0  0  0
   36.9560   31.4500   40.7120 C   0  0  1  0  0  0  0  0  0  0  0  0
   39.0880   30.8530   40.8540 H   0  0  0  0  0  0  0  0  0  0  0  0
   37.8690   31.2600   38.6620 H   0  0  0  0  0  0  0  0  0  0  0  0
   36.7240   29.8620   39.1010 H   0  0  0  0  0  0  0  0  0  0  0  0
   37.0870   32.5300   40.6610 H   0  0  0  0  0  0  0  0  0  0  0  0
   35.6250   31.0670   41.1980 N   0  0  0  0  0  0  0  0  0  0  0  0
   35.2610   31.8020   41.8640 H   0  0  0  0  0  0  0  0  0  0  0  0
   34.9680   31.0740   40.3880 H   0  0  0  0  0  0  0  0  0  0  0  0
   36.9800   25.7130   40.9990 C   0  0  0  0  0  0  0  0  0  0  0  0
   36.4600   25.6090   39.8310 O   0  0  0  0  0  0  0  0  0  0  0  0
   37.3240   24.4600   41.7300 C   0  0  0  0  0  3  0  0  0  0  0  0
   37.7200   23.2480   40.9710 C   0  0  0  0  0  2  0  0  0  0  0  0
   38.7910   23.9810   41.6690 C   0  0  0  0  0  2  0  0  0  0  0  0
  1  2  1  0  0  0  0
  2  7  1  0  0  0  0
  2  3  2  0  0  0  0
  3  8  1  0  0  0  0
  4  3  1  0  0  0  0
  5  4  2  0  0  0  0
  6  5  1  0  0  0  0
  6  1  2  0  0  0  0
  9 12  1  1  0  0  0
  9  5  1  0  0  0  0
 10 11  1  0  0  0  0
 10  9  1  0  0  0  0
 11 15  1  1  0  0  0
 11  9  1  0  0  0  0
 11 16  1  0  0  0  0
 13 10  1  0  0  0  0
 14 10  1  0  0  0  0
 16 17  1  0  0  0  0
 18 16  1  0  0  0  0
 19  1  1  0  0  0  0
 19 21  1  0  0  0  0
 20 19  2  0  0  0  0
 22 23  1  0  0  0  0
 22 21  1  0  0  0  0
 23 21  1  0  0  0  0
M  END
>  <minimizedAffinity>
-4.81318808

$$$$

 OpenBabel03252508013D

 23 25  0  0  1  0  0  0  0  0999 V2000
   37.8600   28.4840   42.1240 C   0  0  0  0  0  0  0  0  0  0  0  0
   38.6850   29.1490   43.0820 C   0  0  0  0  0  0  0  0  0  0  0  0
   39.2710   30.3380   42.6590 C   0  0  0  0  0  0  0  0  0  0  0  0
   39.0290   30.7800   41.3950 N   0  0  0  0  0  0  0  0  0  0  0  0
   38.2280   30.0880   40.5310 C   0  0  0  0  0  0  0  0  0  0  0  0
   37.6420   28.9580   40.8660 N   0  0  0  0  0  0  0  0  0  0  0  0
   38.8120   28.7110   44.0620 H   0  0  0  0  0  0  0  0  0  0  0  0
   39.9010   30.8700   43.3520 H   0  0  0  0  0  0  0  0  0  0  0  0
   38.0100   30.6540   39.1660 C   0  0  1  0  0  0  0  0  0  0  0  0
   36.5960   30.7840   38.6470 C   0  0  0  0  0  0  0  0  0  0  0  0
   37.3630   31.9810   39.1360 C   0  0  1  0  0  0  0  0  0  0  0  0
   38.8070   30.4570   38.4200 H   0  0  0  0  0  0  0  0  0  0  0  0
   36.4270   30.6760   37.5580 H   0  0  0  0  0  0  0  0  0  0  0  0
   35.8260   30.3110   39.2790 H   0  0  0  0  0  0  0  0  0  0  0  0
   37.5410   32.7480   38.3840 H   0  0  0  0  0  0  0  0  0  0  0  0
   36.7950   32.5280   40.3750 N   0  0  0  0  0  0  0  0  0  0  0  0
   37.1360   33.5180   40.5180 H   0  0  0  0  0  0  0  0  0  0  0  0
   35.7620   32.6030   40.2550 H   0  0  0  0  0  0  0  0  0  0  0  0
   37.2440   27.2570   42.5780 C   0  0  0  0  0  0  0  0  0  0  0  0
   36.2850   27.2340   43.4290 O   0  0  0  0  0  0  0  0  0  0  0  0
   37.7380   25.9580   42.0390 C   0  0  0  0  0  3  0  0  0  0  0  0
   36.8920   24.7440   42.1500 C   0  0  0  0  0  2  0  0  0  0  0  0
   36.9970   25.3670   40.8190 C   0  0  0  0  0  2  0  0  0  0  0  0
  1 19  1  0  0  0  0
  1  2  1  0  0  0  0
  2  7  1  0  0  0  0
  3  2  2  0  0  0  0
  3  8  1  0  0  0  0
  4  3  1  0  0  0  0
  5  6  1  0  0  0  0
  5  4  2  0  0  0  0
  6  1  2  0  0  0  0
  9 12  1  6  0  0  0
  9  5  1  0  0  0  0
 10 11  1  0  0  0  0
 10  9  1  0  0  0  0
 10 14  1  0  0  0  0
 11 15  1  6  0  0  0
 11  9  1  0  0  0  0
 11 16  1  0  0  0  0
 13 10  1  0  0  0  0
 16 17  1  0  0  0  0
 18 16  1  0  0  0  0
 19 20  2  0  0  0  0
 21 22  1  0  0  0  0
 21 19  1  0  0  0  0
 23 21  1  0  0  0  0
 23 22  1  0  0  0  0
M  END
>  <minimizedAffinity>
-4.63792801

$$$$

 OpenBabel03252508013D

 23 25  0  0  1  0  0  0  0  0999 V2000
   37.3190   26.8470   41.8100 C   0  0  0  0  0  0  0  0  0  0  0  0
   37.3380   27.1370   43.2090 C   0  0  0  0  0  0  0  0  0  0  0  0
   37.5000   28.4760   43.5490 C   0  0  0  0  0  0  0  0  0  0  0  0
   37.6280   29.4000   42.5570 N   0  0  0  0  0  0  0  0  0  0  0  0
   37.6010   29.0460   41.2370 C   0  0  0  0  0  0  0  0  0  0  0  0
   37.4510   27.7990   40.8460 N   0  0  0  0  0  0  0  0  0  0  0  0
   37.2280   26.3280   43.9170 H   0  0  0  0  0  0  0  0  0  0  0  0
   37.5200   28.7380   44.5940 H   0  0  0  0  0  0  0  0  0  0  0  0
   37.7390   30.1270   40.2160 C   0  0  1  0  0  0  0  0  0  0  0  0
   36.6500   30.2960   39.1810 C   0  0  0  0  0  0  0  0  0  0  0  0
   36.7730   31.2360   40.3470 C   0  0  1  0  0  0  0  0  0  0  0  0
   38.7740   30.3840   39.9090 H   0  0  0  0  0  0  0  0  0  0  0  0
   36.9360   30.6630   38.1760 H   0  0  0  0  0  0  0  0  0  0  0  0
   35.8880   29.4990   39.1780 H   0  0  0  0  0  0  0  0  0  0  0  0
   36.9700   32.2740   40.0790 H   0  0  0  0  0  0  0  0  0  0  0  0
   35.6510   31.1000   41.2830 N   0  0  0  0  0  0  0  0  0  0  0  0
   35.5910   31.9570   41.8990 H   0  0  0  0  0  0  0  0  0  0  0  0
   34.7660   31.0900   40.7320 H   0  0  0  0  0  0  0  0  0  0  0  0
   37.1350   25.4540   41.4660 C   0  0  0  0  0  0  0  0  0  0  0  0
   36.7890   24.5660   42.3250 O   0  0  0  0  0  0  0  0  0  0  0  0
   37.3550   25.0220   40.0560 C   0  0  0  0  0  3  0  0  0  0  0  0
   36.9810   23.6490   39.6390 C   0  0  0  0  0  2  0  0  0  0  0  0
   36.1030   24.7460   39.1950 C   0  0  0  0  0  2  0  0  0  0  0  0
  1  2  1  0  0  0  0
  2  3  2  0  0  0  0
  2  7  1  0  0  0  0
  3  8  1  0  0  0  0
  4  3  1  0  0  0  0
  5  4  2  0  0  0  0
  6  5  1  0  0  0  0
  6  1  2  0  0  0  0
  9 12  1  6  0  0  0
  9 11  1  0  0  0  0
  9  5  1  0  0  0  0
 10  9  1  0  0  0  0
 10 11  1  0  0  0  0
 11 15  1  6  0  0  0
 11 16  1  0  0  0  0
 13 10  1  0  0  0  0
 14 10  1  0  0  0  0
 16 17  1  0  0  0  0
 18 16  1  0  0  0  0
 19  1  1  0  0  0  0
 19 20  2  0  0  0  0
 21 19  1  0  0  0  0
 22 21  1  0  0  0  0
 23 22  1  0  0  0  0
 23 21  1  0  0  0  0
M  END
>  <minimizedAffinity>
-4.59433413

$$$$

 OpenBabel03252508013D

 23 25  0  0  1  0  0  0  0  0999 V2000
   38.4780   27.3460   41.4930 C   0  0  0  0  0  0  0  0  0  0  0  0
   38.5030   27.5870   42.9020 C   0  0  0  0  0  0  0  0  0  0  0  0
   38.3250   28.9100   43.2950 C   0  0  0  0  0  0  0  0  0  0  0  0
   38.1430   29.8640   42.3410 N   0  0  0  0  0  0  0  0  0  0  0  0
   38.1320   29.5570   41.0100 C   0  0  0  0  0  0  0  0  0  0  0  0
   38.2940   28.3280   40.5690 N   0  0  0  0  0  0  0  0  0  0  0  0
   38.6560   26.7570   43.5760 H   0  0  0  0  0  0  0  0  0  0  0  0
   38.3380   29.1350   44.3480 H   0  0  0  0  0  0  0  0  0  0  0  0
   37.9160   30.6670   40.0340 C   0  0  1  0  0  0  0  0  0  0  0  0
   36.7630   30.5680   39.0600 C   0  0  0  0  0  0  0  0  0  0  0  0
   36.6970   31.4700   40.2610 C   0  0  1  0  0  0  0  0  0  0  0  0
   38.8240   31.2040   39.6910 H   0  0  0  0  0  0  0  0  0  0  0  0
   36.8830   31.0300   38.0600 H   0  0  0  0  0  0  0  0  0  0  0  0
   36.2440   29.5950   39.0560 H   0  0  0  0  0  0  0  0  0  0  0  0
   36.5930   32.5300   40.0320 H   0  0  0  0  0  0  0  0  0  0  0  0
   35.7080   31.0060   41.2410 N   0  0  0  0  0  0  0  0  0  0  0  0
   35.4560   31.7950   41.8980 H   0  0  0  0  0  0  0  0  0  0  0  0
   34.8280   30.7750   40.7330 H   0  0  0  0  0  0  0  0  0  0  0  0
   38.6500   25.9660   41.0960 C   0  0  0  0  0  0  0  0  0  0  0  0
   39.8030   25.4170   40.9690 O   0  0  0  0  0  0  0  0  0  0  0  0
   37.4420   25.1370   40.8200 C   0  0  0  0  0  3  0  0  0  0  0  0
   37.5180   23.6600   40.9380 C   0  0  0  0  0  2  0  0  0  0  0  0
   36.8120   24.3820   42.0120 C   0  0  0  0  0  2  0  0  0  0  0  0
  1  2  1  0  0  0  0
  2  3  2  0  0  0  0
  2  7  1  0  0  0  0
  3  8  1  0  0  0  0
  4  3  1  0  0  0  0
  5  4  2  0  0  0  0
  6  5  1  0  0  0  0
  6  1  2  0  0  0  0
  9 12  1  6  0  0  0
  9 11  1  0  0  0  0
  9  5  1  0  0  0  0
 10  9  1  0  0  0  0
 10 11  1  0  0  0  0
 11 15  1  6  0  0  0
 11 16  1  0  0  0  0
 13 10  1  0  0  0  0
 14 10  1  0  0  0  0
 16 17  1  0  0  0  0
 18 16  1  0  0  0  0
 19  1  1  0  0  0  0
 20 19  2  0  0  0  0
 21 22  1  0  0  0  0
 21 19  1  0  0  0  0
 21 23  1  0  0  0  0
 22 23  1  0  0  0  0
M  END
>  <minimizedAffinity>
-4.52157164

$$$$

 OpenBabel03252508013D

 23 25  0  0  1  0  0  0  0  0999 V2000
   37.9150   30.6700   40.7580 C   0  0  0  0  0  0  0  0  0  0  0  0
   36.9220   31.6860   40.5970 C   0  0  0  0  0  0  0  0  0  0  0  0
   37.3100   32.8040   39.8660 C   0  0  0  0  0  0  0  0  0  0  0  0
   38.5740   32.8590   39.3640 N   0  0  0  0  0  0  0  0  0  0  0  0
   39.4720   31.8470   39.5600 C   0  0  0  0  0  0  0  0  0  0  0  0
   39.1710   30.7620   40.2420 N   0  0  0  0  0  0  0  0  0  0  0  0
   35.9460   31.5430   41.0380 H   0  0  0  0  0  0  0  0  0  0  0  0
   36.5920   33.5930   39.7220 H   0  0  0  0  0  0  0  0  0  0  0  0
   40.8340   31.9890   38.9650 C   0  0  1  0  0  0  0  0  0  0  0  0
   41.3160   30.9400   37.9880 C   0  0  0  0  0  0  0  0  0  0  0  0
   40.8550   32.2920   37.5200 C   0  0  1  0  0  0  0  0  0  0  0  0
   41.5990   32.4790   39.6010 H   0  0  0  0  0  0  0  0  0  0  0  0
   42.3990   30.7140   37.9580 H   0  0  0  0  0  0  0  0  0  0  0  0
   40.6600   30.0580   37.8970 H   0  0  0  0  0  0  0  0  0  0  0  0
   41.6160   32.8850   37.0150 H   0  0  0  0  0  0  0  0  0  0  0  0
   39.6050   32.2110   36.7540 N   0  0  0  0  0  0  0  0  0  0  0  0
   39.4760   33.0910   36.1830 H   0  0  0  0  0  0  0  0  0  0  0  0
   39.6970   31.4390   36.0590 H   0  0  0  0  0  0  0  0  0  0  0  0
   37.4970   29.5060   41.5080 C   0  0  0  0  0  0  0  0  0  0  0  0
   36.6940   28.6250   41.0350 O   0  0  0  0  0  0  0  0  0  0  0  0
   38.0190   29.3120   42.8920 C   0  0  0  0  0  3  0  0  0  0  0  0
   37.7060   28.0640   43.6290 C   0  0  0  0  0  2  0  0  0  0  0  0
   39.0750   28.2050   43.1040 C   0  0  0  0  0  2  0  0  0  0  0  0
  1 19  1  0  0  0  0
  2  1  1  0  0  0  0
  2  7  1  0  0  0  0
  3  2  2  0  0  0  0
  4  5  2  0  0  0  0
  4  3  1  0  0  0  0
  5  6  1  0  0  0  0
  6  1  2  0  0  0  0
  8  3  1  0  0  0  0
  9  5  1  0  0  0  0
  9 12  1  1  0  0  0
 10  9  1  0  0  0  0
 11 15  1  6  0  0  0
 11 10  1  0  0  0  0
 11  9  1  0  0  0  0
 13 10  1  0  0  0  0
 14 10  1  0  0  0  0
 16 11  1  0  0  0  0
 17 16  1  0  0  0  0
 18 16  1  0  0  0  0
 19 21  1  0  0  0  0
 20 19  2  0  0  0  0
 21 23  1  0  0  0  0
 21 22  1  0  0  0  0
 23 22  1  0  0  0  0
M  END
>  <minimizedAffinity>
-4.50625753

$$$$

 OpenBabel03252508013D

 23 25  0  0  1  0  0  0  0  0999 V2000
   38.1450   29.5510   41.6920 C   0  0  0  0  0  0  0  0  0  0  0  0
   39.2190   29.6470   42.6300 C   0  0  0  0  0  0  0  0  0  0  0  0
   40.0780   30.7280   42.4610 C   0  0  0  0  0  0  0  0  0  0  0  0
   39.8480   31.6020   41.4430 N   0  0  0  0  0  0  0  0  0  0  0  0
   38.7980   31.4440   40.5820 C   0  0  0  0  0  0  0  0  0  0  0  0
   37.9480   30.4450   40.6840 N   0  0  0  0  0  0  0  0  0  0  0  0
   39.3120   28.8980   43.4030 H   0  0  0  0  0  0  0  0  0  0  0  0
   40.9010   30.8380   43.1470 H   0  0  0  0  0  0  0  0  0  0  0  0
   38.6180   32.4560   39.4990 C   0  0  1  0  0  0  0  0  0  0  0  0
   37.3550   33.2880   39.4820 C   0  0  0  0  0  0  0  0  0  0  0  0
   38.6640   33.8630   39.9460 C   0  0  1  0  0  0  0  0  0  0  0  0
   39.0790   32.2160   38.5200 H   0  0  0  0  0  0  0  0  0  0  0  0
   36.9560   33.6120   38.5000 H   0  0  0  0  0  0  0  0  0  0  0  0
   36.5860   32.9770   40.2090 H   0  0  0  0  0  0  0  0  0  0  0  0
   39.0340   34.6980   39.3510 H   0  0  0  0  0  0  0  0  0  0  0  0
   38.6550   34.1570   41.3840 N   0  0  0  0  0  0  0  0  0  0  0  0
   39.4350   34.8320   41.6170 H   0  0  0  0  0  0  0  0  0  0  0  0
   37.7720   34.6640   41.6080 H   0  0  0  0  0  0  0  0  0  0  0  0
   37.2500   28.4310   41.8840 C   0  0  0  0  0  0  0  0  0  0  0  0
   36.0090   28.4680   41.5620 O   0  0  0  0  0  0  0  0  0  0  0  0
   37.7840   27.1740   42.4830 C   0  0  0  0  0  3  0  0  0  0  0  0
   36.9720   25.9330   42.4370 C   0  0  0  0  0  2  0  0  0  0  0  0
   38.1210   26.0150   41.5180 C   0  0  0  0  0  2  0  0  0  0  0  0
  1 19  1  0  0  0  0
  1  2  1  0  0  0  0
  2  7  1  0  0  0  0
  3  2  2  0  0  0  0
  3  8  1  0  0  0  0
  4  3  1  0  0  0  0
  5  6  1  0  0  0  0
  5  4  2  0  0  0  0
  6  1  2  0  0  0  0
  9 12  1  6  0  0  0
  9 11  1  0  0  0  0
  9  5  1  0  0  0  0
 10  9  1  0  0  0  0
 10 11  1  0  0  0  0
 10 14  1  0  0  0  0
 11 15  1  6  0  0  0
 11 16  1  0  0  0  0
 13 10  1  0  0  0  0
 16 18  1  0  0  0  0
 16 17  1  0  0  0  0
 19 21  1  0  0  0  0
 20 19  2  0  0  0  0
 22 21  1  0  0  0  0
 23 22  1  0  0  0  0
 23 21  1  0  0  0  0
M  END
>  <minimizedAffinity>
-4.473176

$$$$

 OpenBabel03252508013D

 23 25  0  0  1  0  0  0  0  0999 V2000
   37.6470   29.1820   40.5330 C   0  0  0  0  0  0  0  0  0  0  0  0
   38.2530   28.4780   39.4470 C   0  0  0  0  0  0  0  0  0  0  0  0
   39.3100   29.1250   38.8170 C   0  0  0  0  0  0  0  0  0  0  0  0
   39.6910   30.3540   39.2610 N   0  0  0  0  0  0  0  0  0  0  0  0
   39.0630   30.9680   40.3080 C   0  0  0  0  0  0  0  0  0  0  0  0
   38.0560   30.4120   40.9480 N   0  0  0  0  0  0  0  0  0  0  0  0
   37.8720   27.5040   39.1730 H   0  0  0  0  0  0  0  0  0  0  0  0
   39.7940   28.6280   37.9930 H   0  0  0  0  0  0  0  0  0  0  0  0
   39.5540   32.3120   40.7340 C   0  0  1  0  0  0  0  0  0  0  0  0
   39.5730   33.4360   39.7220 C   0  0  0  0  0  0  0  0  0  0  0  0
   38.5200   33.3650   40.7940 C   0  0  1  0  0  0  0  0  0  0  0  0
   40.3400   32.3230   41.5160 H   0  0  0  0  0  0  0  0  0  0  0  0
   40.3640   34.2070   39.8110 H   0  0  0  0  0  0  0  0  0  0  0  0
   39.3450   33.1310   38.6870 H   0  0  0  0  0  0  0  0  0  0  0  0
   38.5190   34.2030   41.4900 H   0  0  0  0  0  0  0  0  0  0  0  0
   37.1890   33.0920   40.2380 N   0  0  0  0  0  0  0  0  0  0  0  0
   36.4460   33.3570   40.9420 H   0  0  0  0  0  0  0  0  0  0  0  0
   37.0400   33.7250   39.4230 H   0  0  0  0  0  0  0  0  0  0  0  0
   36.5580   28.4940   41.1900 C   0  0  0  0  0  0  0  0  0  0  0  0
   35.3260   28.7960   40.9960 O   0  0  0  0  0  0  0  0  0  0  0  0
   36.8700   27.3840   42.1360 C   0  0  0  0  0  3  0  0  0  0  0  0
   38.0720   27.4690   43.0010 C   0  0  0  0  0  2  0  0  0  0  0  0
   36.7660   27.6880   43.6470 C   0  0  0  0  0  2  0  0  0  0  0  0
  1  6  1  0  0  0  0
  1 19  1  0  0  0  0
  2  1  2  0  0  0  0
  3  4  2  0  0  0  0
  3  2  1  0  0  0  0
  4  5  1  0  0  0  0
  5  9  1  0  0  0  0
  5  6  2  0  0  0  0
  7  2  1  0  0  0  0
  8  3  1  0  0  0  0
  9 11  1  0  0  0  0
  9 12  1  1  0  0  0
 10 13  1  0  0  0  0
 10  9  1  0  0  0  0
 10 11  1  0  0  0  0
 11 15  1  1  0  0  0
 14 10  1  0  0  0  0
 16 11  1  0  0  0  0
 16 17  1  0  0  0  0
 18 16  1  0  0  0  0
 19 21  1  0  0  0  0
 20 19  2  0  0  0  0
 21 22  1  0  0  0  0
 21 23  1  0  0  0  0
 22 23  1  0  0  0  0
M  END
>  <minimizedAffinity>
-4.34123611

$$$$

 OpenBabel03252508013D

 23 25  0  0  1  0  0  0  0  0999 V2000
   37.5730   30.3820   40.2670 C   0  0  0  0  0  0  0  0  0  0  0  0
   36.1920   30.5590   39.9420 C   0  0  0  0  0  0  0  0  0  0  0  0
   35.3520   29.4960   40.2570 C   0  0  0  0  0  0  0  0  0  0  0  0
   35.8820   28.3850   40.8380 N   0  0  0  0  0  0  0  0  0  0  0  0
   37.2160   28.2860   41.1180 C   0  0  0  0  0  0  0  0  0  0  0  0
   38.0660   29.2540   40.8470 N   0  0  0  0  0  0  0  0  0  0  0  0
   35.8750   31.4830   39.4800 H   0  0  0  0  0  0  0  0  0  0  0  0
   34.3040   29.5900   40.0280 H   0  0  0  0  0  0  0  0  0  0  0  0
   37.7080   27.0330   41.7650 C   0  0  1  0  0  0  0  0  0  0  0  0
   38.4650   27.1350   43.0710 C   0  0  0  0  0  0  0  0  0  0  0  0
   37.0330   26.6770   43.0300 C   0  0  1  0  0  0  0  0  0  0  0  0
   37.9850   26.2040   41.0830 H   0  0  0  0  0  0  0  0  0  0  0  0
   39.2520   26.3840   43.2780 H   0  0  0  0  0  0  0  0  0  0  0  0
   38.7190   28.1630   43.3790 H   0  0  0  0  0  0  0  0  0  0  0  0
   36.8680   25.6620   43.3870 H   0  0  0  0  0  0  0  0  0  0  0  0
   36.1280   27.6490   43.6560 N   0  0  0  0  0  0  0  0  0  0  0  0
   35.2110   27.1810   43.8960 H   0  0  0  0  0  0  0  0  0  0  0  0
   36.5410   27.9390   44.5680 H   0  0  0  0  0  0  0  0  0  0  0  0
   38.4350   31.4980   39.9480 C   0  0  0  0  0  0  0  0  0  0  0  0
   39.4470   31.3950   39.1670 O   0  0  0  0  0  0  0  0  0  0  0  0
   38.1430   32.8310   40.5490 C   0  0  0  0  0  3  0  0  0  0  0  0
   38.8950   34.0260   40.0930 C   0  0  0  0  0  2  0  0  0  0  0  0
   37.5010   33.8970   39.6340 C   0  0  0  0  0  2  0  0  0  0  0  0
  1  6  1  0  0  0  0
  2  3  1  0  0  0  0
  2  1  2  0  0  0  0
  3  4  2  0  0  0  0
  4  5  1  0  0  0  0
  5  9  1  0  0  0  0
  6  5  2  0  0  0  0
  7  2  1  0  0  0  0
  8  3  1  0  0  0  0
  9 12  1  6  0  0  0
  9 11  1  0  0  0  0
  9 10  1  0  0  0  0
 10 13  1  0  0  0  0
 10 14  1  0  0  0  0
 11 10  1  0  0  0  0
 11 15  1  1  0  0  0
 11 16  1  0  0  0  0
 16 17  1  0  0  0  0
 16 18  1  0  0  0  0
 19  1  1  0  0  0  0
 19 21  1  0  0  0  0
 20 19  2  0  0  0  0
 22 21  1  0  0  0  0
 23 22  1  0  0  0  0
 23 21  1  0  0  0  0
M  END
>  <minimizedAffinity>
-4.26351357

$$$$

 OpenBabel03252508013D

 23 25  0  0  1  0  0  0  0  0999 V2000
   37.0660   28.7600   41.4960 C   0  0  0  0  0  0  0  0  0  0  0  0
   38.0120   29.2470   42.4490 C   0  0  0  0  0  0  0  0  0  0  0  0
   38.5290   28.3010   43.3290 C   0  0  0  0  0  0  0  0  0  0  0  0
   38.1130   27.0090   43.2310 N   0  0  0  0  0  0  0  0  0  0  0  0
   37.2010   26.6170   42.2910 C   0  0  0  0  0  0  0  0  0  0  0  0
   36.6730   27.4580   41.4280 N   0  0  0  0  0  0  0  0  0  0  0  0
   38.2740   30.2950   42.4440 H   0  0  0  0  0  0  0  0  0  0  0  0
   39.2460   28.6270   44.0640 H   0  0  0  0  0  0  0  0  0  0  0  0
   36.8100   25.1760   42.2490 C   0  0  1  0  0  0  0  0  0  0  0  0
   36.9480   24.4200   40.9470 C   0  0  0  0  0  0  0  0  0  0  0  0
   37.9290   24.2300   42.0700 C   0  0  1  0  0  0  0  0  0  0  0  0
   35.9870   24.8710   42.9270 H   0  0  0  0  0  0  0  0  0  0  0  0
   36.2260   23.6070   40.7350 H   0  0  0  0  0  0  0  0  0  0  0  0
   37.2030   25.0450   40.0750 H   0  0  0  0  0  0  0  0  0  0  0  0
   37.9680   23.2200   42.4770 H   0  0  0  0  0  0  0  0  0  0  0  0
   39.2590   24.7510   41.7310 N   0  0  0  0  0  0  0  0  0  0  0  0
   39.9830   24.3350   42.3780 H   0  0  0  0  0  0  0  0  0  0  0  0
   39.5090   24.4130   40.7770 H   0  0  0  0  0  0  0  0  0  0  0  0
   36.5450   29.7480   40.5770 C   0  0  0  0  0  0  0  0  0  0  0  0
   35.3000   29.8320   40.2770 O   0  0  0  0  0  0  0  0  0  0  0  0
   37.4880   30.7150   39.9450 C   0  0  0  0  0  3  0  0  0  0  0  0
   36.9760   31.7230   38.9840 C   0  0  0  0  0  2  0  0  0  0  0  0
   37.3400   32.2040   40.3280 C   0  0  0  0  0  2  0  0  0  0  0  0
  1  2  1  0  0  0  0
  2  3  2  0  0  0  0
  3  8  1  0  0  0  0
  4  3  1  0  0  0  0
  5  4  2  0  0  0  0
  6  1  2  0  0  0  0
  6  5  1  0  0  0  0
  7  2  1  0  0  0  0
  9  5  1  0  0  0  0
  9 12  1  1  0  0  0
 10 11  1  0  0  0  0
 10  9  1  0  0  0  0
 11  9  1  0  0  0  0
 11 15  1  1  0  0  0
 13 10  1  0  0  0  0
 14 10  1  0  0  0  0
 16 11  1  0  0  0  0
 16 17  1  0  0  0  0
 18 16  1  0  0  0  0
 19  1  1  0  0  0  0
 20 19  2  0  0  0  0
 21 23  1  0  0  0  0
 21 19  1  0  0  0  0
 22 21  1  0  0  0  0
 22 23  1  0  0  0  0
M  END
>  <minimizedAffinity>
-4.24908543

$$$$
