
 OpenBabel03252509003D

 39 41  0  0  1  0  0  0  0  0999 V2000
   46.5600   34.6020   43.5500 N   0  0  0  0  0  0  0  0  0  0  0  0
   46.0450   35.5470   42.6220 C   0  0  0  0  0  0  0  0  0  0  0  0
   44.5390   35.6690   42.6000 C   0  0  0  0  0  0  0  0  0  0  0  0
   43.8790   35.4560   43.9360 C   0  0  0  0  0  0  0  0  0  0  0  0
   44.8920   35.2480   45.0340 C   0  0  0  0  0  0  0  0  0  0  0  0
   45.7420   34.0350   44.5150 C   0  0  2  0  0  0  0  0  0  0  0  0
   46.4150   36.5530   42.9370 H   0  0  0  0  0  0  0  0  0  0  0  0
   46.3740   35.4310   41.5880 H   0  0  0  0  0  0  0  0  0  0  0  0
   44.1660   34.9630   41.8260 H   0  0  0  0  0  0  0  0  0  0  0  0
   44.2810   36.6800   42.2140 H   0  0  0  0  0  0  0  0  0  0  0  0
   43.2380   34.5630   43.8520 H   0  0  0  0  0  0  0  0  0  0  0  0
   43.2710   36.3520   44.2150 H   0  0  0  0  0  0  0  0  0  0  0  0
   45.5730   36.0930   45.1350 H   0  0  0  0  0  0  0  0  0  0  0  0
   44.3530   34.9570   45.9380 H   0  0  0  0  0  0  0  0  0  0  0  0
   45.0080   33.2670   44.2120 H   0  0  0  0  0  0  0  0  0  0  0  0
   47.6730   33.8450   43.0580 C   0  0  0  0  0  0  0  0  0  0  0  0
   48.3720   34.5360   42.5560 H   0  0  0  0  0  0  0  0  0  0  0  0
   48.1750   33.3790   43.9400 H   0  0  0  0  0  0  0  0  0  0  0  0
   47.1710   32.7500   42.1790 C   0  0  0  0  0  0  0  0  0  0  0  0
   47.3310   31.7320   42.5550 H   0  0  0  0  0  0  0  0  0  0  0  0
   46.0680   32.8460   42.0290 H   0  0  0  0  0  0  0  0  0  0  0  0
   49.2670   32.1040   39.1240 C   0  0  0  0  0  0  0  0  0  0  0  0
   48.6960   31.9740   40.4030 C   0  0  0  0  0  0  0  0  0  0  0  0
   47.7670   32.9010   40.8250 C   0  0  0  0  0  0  0  0  0  0  0  0
   47.4520   33.8910   39.9830 N   0  0  0  0  0  0  0  0  0  0  0  0
   48.0050   34.0070   38.7600 C   0  0  0  0  0  0  0  0  0  0  0  0
   48.9140   33.1200   38.3200 N   0  0  0  0  0  0  0  0  0  0  0  0
   49.9960   31.3780   38.7920 H   0  0  0  0  0  0  0  0  0  0  0  0
   49.0020   31.1420   41.0280 H   0  0  0  0  0  0  0  0  0  0  0  0
   47.7390   34.8140   38.0930 H   0  0  0  0  0  0  0  0  0  0  0  0
   46.4660   33.6940   45.6570 O   0  0  0  0  0  0  0  0  0  0  0  0
   45.6660   31.2570   44.9660 O   0  0  0  0  0  0  0  0  0  0  0  0
   46.2470   32.0910   46.1110 P   0  0  2  0  0  0  0  0  0  0  0  0
   45.0240   32.1000   47.3060 O   0  0  0  0  0  0  0  0  0  0  0  0
   45.2240   32.7800   47.9910 H   0  0  0  0  0  0  0  0  0  0  0  0
   47.6170   31.4200   46.7650 O   0  0  0  0  0  0  0  0  0  0  0  0
   47.4270   30.5620   47.8170 C   0  0  0  0  0  3  0  0  0  0  0  0
   48.4990   29.6790   48.3250 C   0  0  0  0  0  2  0  0  0  0  0  0
   48.2210   30.9380   49.0740 C   0  0  0  0  0  2  0  0  0  0  0  0
  1  6  1  0  0  0  0
  2  7  1  0  0  0  0
  2  1  1  0  0  0  0
  3  2  1  0  0  0  0
  3  4  1  0  0  0  0
  4 12  1  0  0  0  0
  4  5  1  0  0  0  0
  5 13  1  0  0  0  0
  5 14  1  0  0  0  0
  6 15  1  6  0  0  0
  6  5  1  0  0  0  0
  6 31  1  0  0  0  0
  8  2  1  0  0  0  0
  9  3  1  0  0  0  0
 10  3  1  0  0  0  0
 11  4  1  0  0  0  0
 16  1  1  0  0  0  0
 16 18  1  0  0  0  0
 17 16  1  0  0  0  0
 19 20  1  0  0  0  0
 19 16  1  0  0  0  0
 21 19  1  0  0  0  0
 22 23  1  0  0  0  0
 23 24  2  0  0  0  0
 23 29  1  0  0  0  0
 24 19  1  0  0  0  0
 25 24  1  0  0  0  0
 26 25  2  0  0  0  0
 27 26  1  0  0  0  0
 27 22  2  0  0  0  0
 28 22  1  0  0  0  0
 30 26  1  0  0  0  0
 31 33  1  0  0  0  0
 33 32  2  6  0  0  0
 33 36  1  0  0  0  0
 33 34  1  0  0  0  0
 34 35  1  0  0  0  0
 36 37  1  0  0  0  0
 37 38  1  0  0  0  0
 37 39  1  0  0  0  0
 38 39  1  0  0  0  0
M  END
>  <minimizedAffinity>
-4.29084635

>  <minimizedRMSD>
1.22107983

$$$$
