
 OpenBabel03252509003D

 39 41  0  0  1  0  0  0  0  0999 V2000
   46.7640   34.3740   43.4420 N   0  0  0  0  0  0  0  0  0  0  0  0
   46.5050   35.0320   42.2090 C   0  0  0  0  0  0  0  0  0  0  0  0
   45.0470   35.1210   41.8230 C   0  0  0  0  0  0  0  0  0  0  0  0
   44.1040   35.2600   42.9880 C   0  0  0  0  0  0  0  0  0  0  0  0
   44.8440   35.3660   44.2980 C   0  0  0  0  0  0  0  0  0  0  0  0
   45.7310   34.0710   44.3150 C   0  0  2  0  0  0  0  0  0  0  0  0
   46.8430   36.0900   42.3240 H   0  0  0  0  0  0  0  0  0  0  0  0
   47.0450   34.6510   41.3410 H   0  0  0  0  0  0  0  0  0  0  0  0
   44.8200   34.2300   41.1980 H   0  0  0  0  0  0  0  0  0  0  0  0
   44.9260   35.9900   41.1390 H   0  0  0  0  0  0  0  0  0  0  0  0
   43.4570   34.3680   43.0000 H   0  0  0  0  0  0  0  0  0  0  0  0
   43.4910   36.1900   42.8810 H   0  0  0  0  0  0  0  0  0  0  0  0
   45.5240   36.2170   44.3220 H   0  0  0  0  0  0  0  0  0  0  0  0
   44.1090   35.3160   45.1040 H   0  0  0  0  0  0  0  0  0  0  0  0
   45.0470   33.2390   44.0690 H   0  0  0  0  0  0  0  0  0  0  0  0
   47.9220   33.5300   43.4240 C   0  0  0  0  0  0  0  0  0  0  0  0
   48.7920   34.1350   43.1180 H   0  0  0  0  0  0  0  0  0  0  0  0
   48.0760   33.1520   44.4630 H   0  0  0  0  0  0  0  0  0  0  0  0
   47.6610   32.3580   42.5390 C   0  0  0  0  0  0  0  0  0  0  0  0
   47.3520   31.4380   43.0520 H   0  0  0  0  0  0  0  0  0  0  0  0
   46.8410   32.5900   41.8170 H   0  0  0  0  0  0  0  0  0  0  0  0
   51.2480   32.1970   41.4220 C   0  0  0  0  0  0  0  0  0  0  0  0
   50.1030   32.4320   42.2050 C   0  0  0  0  0  0  0  0  0  0  0  0
   48.8620   32.1040   41.7010 C   0  0  0  0  0  0  0  0  0  0  0  0
   48.8110   31.5700   40.4750 N   0  0  0  0  0  0  0  0  0  0  0  0
   49.9140   31.3490   39.7330 C   0  0  0  0  0  0  0  0  0  0  0  0
   51.1380   31.6590   40.1970 N   0  0  0  0  0  0  0  0  0  0  0  0
   52.2210   32.4540   41.8160 H   0  0  0  0  0  0  0  0  0  0  0  0
   50.2260   32.8680   43.1910 H   0  0  0  0  0  0  0  0  0  0  0  0
   49.8550   30.9170   38.7460 H   0  0  0  0  0  0  0  0  0  0  0  0
   46.1730   34.0550   45.6380 O   0  0  0  0  0  0  0  0  0  0  0  0
   45.6600   31.4700   45.3090 O   0  0  0  0  0  0  0  0  0  0  0  0
   46.1330   32.5200   46.3190 P   0  0  2  0  0  0  0  0  0  0  0  0
   44.9080   32.5610   47.5100 O   0  0  0  0  0  0  0  0  0  0  0  0
   45.0240   33.3510   48.0890 H   0  0  0  0  0  0  0  0  0  0  0  0
   47.5660   32.1080   47.0500 O   0  0  0  0  0  0  0  0  0  0  0  0
   47.5510   32.0550   48.4200 C   0  0  0  0  0  3  0  0  0  0  0  0
   47.5780   30.7760   49.1650 C   0  0  0  0  0  2  0  0  0  0  0  0
   48.8560   31.5340   49.0340 C   0  0  0  0  0  2  0  0  0  0  0  0
  1  6  1  0  0  0  0
  2  7  1  0  0  0  0
  2  1  1  0  0  0  0
  3  2  1  0  0  0  0
  3  4  1  0  0  0  0
  4 11  1  0  0  0  0
  4  5  1  0  0  0  0
  5  6  1  0  0  0  0
  5 13  1  0  0  0  0
  5 14  1  0  0  0  0
  6 15  1  6  0  0  0
  6 31  1  0  0  0  0
  8  2  1  0  0  0  0
  9  3  1  0  0  0  0
 10  3  1  0  0  0  0
 12  4  1  0  0  0  0
 16  1  1  0  0  0  0
 16 18  1  0  0  0  0
 17 16  1  0  0  0  0
 19 20  1  0  0  0  0
 19 16  1  0  0  0  0
 21 19  1  0  0  0  0
 22 28  1  0  0  0  0
 22 23  1  0  0  0  0
 23 29  1  0  0  0  0
 24 23  2  0  0  0  0
 24 19  1  0  0  0  0
 25 24  1  0  0  0  0
 26 27  1  0  0  0  0
 26 25  2  0  0  0  0
 27 22  2  0  0  0  0
 30 26  1  0  0  0  0
 31 33  1  0  0  0  0
 33 32  2  6  0  0  0
 33 36  1  0  0  0  0
 33 34  1  0  0  0  0
 34 35  1  0  0  0  0
 36 37  1  0  0  0  0
 37 39  1  0  0  0  0
 37 38  1  0  0  0  0
 39 38  1  0  0  0  0
M  END
>  <minimizedAffinity>
-4.62586308

>  <minimizedRMSD>
2.31884813

$$$$
