
 OpenBabel03242522483D

 35 38  0  0  0  0  0  0  0  0999 V2000
   37.3330   28.0540   42.8610 C   0  0  0  0  0  0  0  0  0  0  0  0
   38.0660   28.4940   41.7440 C   0  0  0  0  0  0  0  0  0  0  0  0
   38.3920   27.5560   40.7390 C   0  0  0  0  0  0  0  0  0  0  0  0
   37.9640   26.2800   40.9290 N   0  0  0  0  0  0  0  0  0  0  0  0
   37.2660   25.8860   42.0040 C   0  0  0  0  0  0  0  0  0  0  0  0
   36.9560   26.7800   42.9590 N   0  0  0  0  0  0  0  0  0  0  0  0
   37.0070   28.9860   43.8650 N   0  0  0  0  0  0  0  0  0  0  0  0
   38.9480   27.8560   39.8760 H   0  0  0  0  0  0  0  0  0  0  0  0
   36.0990   28.9120   44.3570 H   0  0  0  0  0  0  0  0  0  0  0  0
   37.5830   29.7870   44.2070 H   0  0  0  0  0  0  0  0  0  0  0  0
   38.5050   29.8630   41.5740 C   0  0  0  0  0  0  0  0  0  0  0  0
   39.6240   30.4820   42.0690 C   0  0  0  0  0  0  0  0  0  0  0  0
   39.8790   31.8130   41.7970 C   0  0  0  0  0  0  0  0  0  0  0  0
   39.0240   32.5730   41.0210 C   0  0  0  0  0  0  0  0  0  0  0  0
   39.3510   33.8520   40.8110 N   0  0  0  0  0  0  0  0  0  0  0  0
   38.5190   34.6340   40.0430 C   0  0  0  0  0  0  0  0  0  0  0  0
   37.3910   34.0290   39.5400 C   0  0  0  0  0  0  0  0  0  0  0  0
   37.0360   32.7130   39.7440 C   0  0  0  0  0  0  0  0  0  0  0  0
   37.8900   31.9510   40.5200 C   0  0  0  0  0  0  0  0  0  0  0  0
   37.6260   30.6170   40.7870 C   0  0  0  0  0  0  0  0  0  0  0  0
   40.2550   29.8380   42.6670 H   0  0  0  0  0  0  0  0  0  0  0  0
   40.7890   32.2390   42.2240 H   0  0  0  0  0  0  0  0  0  0  0  0
   38.7530   35.6740   39.8530 H   0  0  0  0  0  0  0  0  0  0  0  0
   36.7070   34.6100   38.9280 H   0  0  0  0  0  0  0  0  0  0  0  0
   36.1370   32.2750   39.3280 H   0  0  0  0  0  0  0  0  0  0  0  0
   36.7080   30.2400   40.3390 H   0  0  0  0  0  0  0  0  0  0  0  0
   36.8590   24.4570   42.0840 C   0  0  0  0  0  0  0  0  0  0  0  0
   35.7880   24.4090   42.4380 H   0  0  0  0  0  0  0  0  0  0  0  0
   37.4750   23.8930   42.7920 H   0  0  0  0  0  0  0  0  0  0  0  0
   36.8700   23.8440   40.6710 C   0  0  0  0  0  0  0  0  0  0  0  0
   35.8720   23.3880   40.5320 H   0  0  0  0  0  0  0  0  0  0  0  0
   37.0520   24.6950   39.9710 H   0  0  0  0  0  0  0  0  0  0  0  0
   37.9400   22.7940   40.5840 C   0  0  0  0  0  3  0  0  0  0  0  0
   38.5130   22.6260   39.1740 C   0  0  0  0  0  2  0  0  0  0  0  0
   37.7280   21.5530   39.8010 C   0  0  0  0  0  2  0  0  0  0  0  0
  1  6  1  0  0  0  0
  1  7  1  0  0  0  0
  2  1  2  0  0  0  0
  3  4  2  0  0  0  0
  3  2  1  0  0  0  0
  4  5  1  0  0  0  0
  5 27  1  0  0  0  0
  5  6  2  0  0  0  0
  7 10  1  0  0  0  0
  7  9  1  0  0  0  0
  8  3  1  0  0  0  0
 11  2  1  0  0  0  0
 11 12  1  0  0  0  0
 12 21  1  0  0  0  0
 13 12  2  0  0  0  0
 13 22  1  0  0  0  0
 14 13  1  0  0  0  0
 15 14  1  0  0  0  0
 16 15  2  0  0  0  0
 17 18  2  0  0  0  0
 17 16  1  0  0  0  0
 18 19  1  0  0  0  0
 19 20  1  0  0  0  0
 19 14  2  0  0  0  0
 20 11  2  0  0  0  0
 23 16  1  0  0  0  0
 24 17  1  0  0  0  0
 25 18  1  0  0  0  0
 26 20  1  0  0  0  0
 27 28  1  0  0  0  0
 27 29  1  0  0  0  0
 30 27  1  0  0  0  0
 31 30  1  0  0  0  0
 32 30  1  0  0  0  0
 33 30  1  0  0  0  0
 34 35  1  0  0  0  0
 34 33  1  0  0  0  0
 35 33  1  0  0  0  0
M  END
>  <minimizedAffinity>
-6.04011774

$$$$

 OpenBabel03242522483D

 35 38  0  0  0  0  0  0  0  0999 V2000
   37.1630   31.3360   41.0140 C   0  0  0  0  0  0  0  0  0  0  0  0
   38.1130   30.3540   41.3500 C   0  0  0  0  0  0  0  0  0  0  0  0
   39.4820   30.6980   41.3070 C   0  0  0  0  0  0  0  0  0  0  0  0
   39.7840   31.9720   40.9390 N   0  0  0  0  0  0  0  0  0  0  0  0
   38.8590   32.8900   40.6240 C   0  0  0  0  0  0  0  0  0  0  0  0
   37.5560   32.5610   40.6660 N   0  0  0  0  0  0  0  0  0  0  0  0
   35.7970   30.9980   41.0560 N   0  0  0  0  0  0  0  0  0  0  0  0
   40.2320   29.9760   41.5550 H   0  0  0  0  0  0  0  0  0  0  0  0
   35.1040   31.7020   41.3620 H   0  0  0  0  0  0  0  0  0  0  0  0
   35.3560   30.0850   40.8060 H   0  0  0  0  0  0  0  0  0  0  0  0
   37.7550   29.0070   41.7380 C   0  0  0  0  0  0  0  0  0  0  0  0
   37.4870   28.5070   42.9870 C   0  0  0  0  0  0  0  0  0  0  0  0
   37.1580   27.1760   43.1640 C   0  0  0  0  0  0  0  0  0  0  0  0
   37.0860   26.2970   42.1000 C   0  0  0  0  0  0  0  0  0  0  0  0
   36.7610   25.0280   42.3670 N   0  0  0  0  0  0  0  0  0  0  0  0
   36.6810   24.1300   41.3270 C   0  0  0  0  0  0  0  0  0  0  0  0
   36.9470   24.6140   40.0680 C   0  0  0  0  0  0  0  0  0  0  0  0
   37.2840   25.9180   39.7720 C   0  0  0  0  0  0  0  0  0  0  0  0
   37.3570   26.7980   40.8350 C   0  0  0  0  0  0  0  0  0  0  0  0
   37.6870   28.1320   40.6470 C   0  0  0  0  0  0  0  0  0  0  0  0
   37.5580   29.2400   43.7790 H   0  0  0  0  0  0  0  0  0  0  0  0
   36.9580   26.8480   44.1860 H   0  0  0  0  0  0  0  0  0  0  0  0
   36.4210   23.0940   41.5070 H   0  0  0  0  0  0  0  0  0  0  0  0
   36.8950   23.9380   39.2190 H   0  0  0  0  0  0  0  0  0  0  0  0
   37.4850   26.2580   38.7640 H   0  0  0  0  0  0  0  0  0  0  0  0
   37.8770   28.4080   39.6120 H   0  0  0  0  0  0  0  0  0  0  0  0
   39.3290   34.2480   40.2410 C   0  0  0  0  0  0  0  0  0  0  0  0
   39.1000   34.9580   41.0870 H   0  0  0  0  0  0  0  0  0  0  0  0
   38.8250   34.6180   39.3410 H   0  0  0  0  0  0  0  0  0  0  0  0
   40.8620   34.2350   40.0960 C   0  0  0  0  0  0  0  0  0  0  0  0
   41.2000   35.2500   40.3790 H   0  0  0  0  0  0  0  0  0  0  0  0
   41.2280   33.4500   40.8020 H   0  0  0  0  0  0  0  0  0  0  0  0
   41.2340   33.9400   38.6710 C   0  0  0  0  0  3  0  0  0  0  0  0
   42.6040   33.2720   38.5270 C   0  0  0  0  0  2  0  0  0  0  0  0
   42.3720   34.6330   38.0220 C   0  0  0  0  0  2  0  0  0  0  0  0
  1  7  1  0  0  0  0
  1  2  1  0  0  0  0
  2 11  1  0  0  0  0
  3  2  2  0  0  0  0
  3  8  1  0  0  0  0
  4  3  1  0  0  0  0
  5  6  1  0  0  0  0
  5  4  2  0  0  0  0
  6  1  2  0  0  0  0
  7  9  1  0  0  0  0
 10  7  1  0  0  0  0
 11 12  1  0  0  0  0
 12 13  2  0  0  0  0
 12 21  1  0  0  0  0
 13 22  1  0  0  0  0
 14 15  1  0  0  0  0
 14 13  1  0  0  0  0
 16 23  1  0  0  0  0
 16 15  2  0  0  0  0
 17 16  1  0  0  0  0
 18 17  2  0  0  0  0
 18 19  1  0  0  0  0
 19 14  2  0  0  0  0
 20 19  1  0  0  0  0
 20 11  2  0  0  0  0
 24 17  1  0  0  0  0
 25 18  1  0  0  0  0
 26 20  1  0  0  0  0
 27  5  1  0  0  0  0
 27 28  1  0  0  0  0
 29 27  1  0  0  0  0
 30 27  1  0  0  0  0
 30 31  1  0  0  0  0
 30 32  1  0  0  0  0
 33 30  1  0  0  0  0
 34 33  1  0  0  0  0
 35 34  1  0  0  0  0
 35 33  1  0  0  0  0
M  END
>  <minimizedAffinity>
-5.89976168

$$$$

 OpenBabel03242522483D

 35 38  0  0  0  0  0  0  0  0999 V2000
   37.2690   28.2710   42.6420 C   0  0  0  0  0  0  0  0  0  0  0  0
   37.4620   28.7140   41.3220 C   0  0  0  0  0  0  0  0  0  0  0  0
   37.4740   27.7560   40.2840 C   0  0  0  0  0  0  0  0  0  0  0  0
   37.2950   26.4570   40.6460 N   0  0  0  0  0  0  0  0  0  0  0  0
   37.1130   26.0610   41.9130 C   0  0  0  0  0  0  0  0  0  0  0  0
   37.1010   26.9750   42.9000 N   0  0  0  0  0  0  0  0  0  0  0  0
   37.2560   29.2230   43.6800 N   0  0  0  0  0  0  0  0  0  0  0  0
   37.6180   28.0580   39.2680 H   0  0  0  0  0  0  0  0  0  0  0  0
   36.6230   29.0920   44.4870 H   0  0  0  0  0  0  0  0  0  0  0  0
   37.8280   30.0930   43.7570 H   0  0  0  0  0  0  0  0  0  0  0  0
   37.6480   30.1070   40.9730 C   0  0  0  0  0  0  0  0  0  0  0  0
   36.7160   31.0350   40.5860 C   0  0  0  0  0  0  0  0  0  0  0  0
   37.0880   32.3330   40.2900 C   0  0  0  0  0  0  0  0  0  0  0  0
   38.4030   32.7500   40.3700 C   0  0  0  0  0  0  0  0  0  0  0  0
   38.6690   34.0240   40.0650 N   0  0  0  0  0  0  0  0  0  0  0  0
   39.9700   34.4670   40.1350 C   0  0  0  0  0  0  0  0  0  0  0  0
   40.9170   33.5490   40.5210 C   0  0  0  0  0  0  0  0  0  0  0  0
   40.6640   32.2310   40.8410 C   0  0  0  0  0  0  0  0  0  0  0  0
   39.3490   31.8140   40.7610 C   0  0  0  0  0  0  0  0  0  0  0  0
   38.9860   30.5090   41.0600 C   0  0  0  0  0  0  0  0  0  0  0  0
   35.7050   30.6530   40.5420 H   0  0  0  0  0  0  0  0  0  0  0  0
   36.2930   33.0180   39.9880 H   0  0  0  0  0  0  0  0  0  0  0  0
   40.2210   35.4930   39.8950 H   0  0  0  0  0  0  0  0  0  0  0  0
   41.9570   33.8570   40.5900 H   0  0  0  0  0  0  0  0  0  0  0  0
   41.4420   31.5400   41.1410 H   0  0  0  0  0  0  0  0  0  0  0  0
   39.8140   29.8670   41.3540 H   0  0  0  0  0  0  0  0  0  0  0  0
   36.9260   24.6070   42.1680 C   0  0  0  0  0  0  0  0  0  0  0  0
   35.9090   24.4520   42.6300 H   0  0  0  0  0  0  0  0  0  0  0  0
   37.6770   24.2120   42.8610 H   0  0  0  0  0  0  0  0  0  0  0  0
   36.9060   23.8540   40.8250 C   0  0  0  0  0  0  0  0  0  0  0  0
   35.9720   23.2600   40.8260 H   0  0  0  0  0  0  0  0  0  0  0  0
   36.9120   24.6410   40.0330 H   0  0  0  0  0  0  0  0  0  0  0  0
   38.1000   22.9460   40.7360 C   0  0  0  0  0  3  0  0  0  0  0  0
   38.6910   22.8560   39.3270 C   0  0  0  0  0  2  0  0  0  0  0  0
   38.0460   21.6910   39.9490 C   0  0  0  0  0  2  0  0  0  0  0  0
  1  6  1  0  0  0  0
  1  7  1  0  0  0  0
  2  1  2  0  0  0  0
  3  4  2  0  0  0  0
  3  2  1  0  0  0  0
  4  5  1  0  0  0  0
  5 27  1  0  0  0  0
  5  6  2  0  0  0  0
  7 10  1  0  0  0  0
  7  9  1  0  0  0  0
  8  3  1  0  0  0  0
 11 20  1  0  0  0  0
 11  2  1  0  0  0  0
 12 11  2  0  0  0  0
 13 14  2  0  0  0  0
 13 12  1  0  0  0  0
 14 19  1  0  0  0  0
 15 16  2  0  0  0  0
 15 14  1  0  0  0  0
 16 17  1  0  0  0  0
 17 24  1  0  0  0  0
 17 18  2  0  0  0  0
 18 25  1  0  0  0  0
 19 18  1  0  0  0  0
 19 20  2  0  0  0  0
 20 26  1  0  0  0  0
 21 12  1  0  0  0  0
 22 13  1  0  0  0  0
 23 16  1  0  0  0  0
 27 28  1  0  0  0  0
 27 29  1  0  0  0  0
 30 31  1  0  0  0  0
 30 27  1  0  0  0  0
 32 30  1  0  0  0  0
 33 30  1  0  0  0  0
 34 35  1  0  0  0  0
 34 33  1  0  0  0  0
 35 33  1  0  0  0  0
M  END
>  <minimizedAffinity>
-5.89370489

$$$$

 OpenBabel03242522483D

 35 38  0  0  0  0  0  0  0  0999 V2000
   37.1250   30.5350   41.1920 C   0  0  0  0  0  0  0  0  0  0  0  0
   38.5280   30.6330   41.1750 C   0  0  0  0  0  0  0  0  0  0  0  0
   39.2850   29.5680   41.7120 C   0  0  0  0  0  0  0  0  0  0  0  0
   38.5890   28.5110   42.2110 N   0  0  0  0  0  0  0  0  0  0  0  0
   37.2500   28.4430   42.2150 C   0  0  0  0  0  0  0  0  0  0  0  0
   36.5320   29.4580   41.7030 N   0  0  0  0  0  0  0  0  0  0  0  0
   36.3670   31.5950   40.6570 N   0  0  0  0  0  0  0  0  0  0  0  0
   40.3540   29.6090   41.7160 H   0  0  0  0  0  0  0  0  0  0  0  0
   35.4870   31.3910   40.1530 H   0  0  0  0  0  0  0  0  0  0  0  0
   36.5770   32.6170   40.6990 H   0  0  0  0  0  0  0  0  0  0  0  0
   39.2360   31.7740   40.6330 C   0  0  0  0  0  0  0  0  0  0  0  0
   39.1870   33.0880   41.0220 C   0  0  0  0  0  0  0  0  0  0  0  0
   39.9440   34.0480   40.3770 C   0  0  0  0  0  0  0  0  0  0  0  0
   40.7770   33.7290   39.3210 C   0  0  0  0  0  0  0  0  0  0  0  0
   41.4710   34.7240   38.7580 N   0  0  0  0  0  0  0  0  0  0  0  0
   42.3080   34.4360   37.7050 C   0  0  0  0  0  0  0  0  0  0  0  0
   42.3690   33.1230   37.3010 C   0  0  0  0  0  0  0  0  0  0  0  0
   41.6620   32.0840   37.8680 C   0  0  0  0  0  0  0  0  0  0  0  0
   40.8290   32.4010   38.9240 C   0  0  0  0  0  0  0  0  0  0  0  0
   40.0730   31.4310   39.5650 C   0  0  0  0  0  0  0  0  0  0  0  0
   38.5200   33.2770   41.8520 H   0  0  0  0  0  0  0  0  0  0  0  0
   39.8550   35.0740   40.7410 H   0  0  0  0  0  0  0  0  0  0  0  0
   42.8850   35.2170   37.2250 H   0  0  0  0  0  0  0  0  0  0  0  0
   43.0180   32.8530   36.4730 H   0  0  0  0  0  0  0  0  0  0  0  0
   41.7390   31.0620   37.5190 H   0  0  0  0  0  0  0  0  0  0  0  0
   40.1970   30.4260   39.1650 H   0  0  0  0  0  0  0  0  0  0  0  0
   36.6180   27.2260   42.7920 C   0  0  0  0  0  0  0  0  0  0  0  0
   35.7380   26.9400   42.1460 H   0  0  0  0  0  0  0  0  0  0  0  0
   36.2500   27.3970   43.8090 H   0  0  0  0  0  0  0  0  0  0  0  0
   37.6080   26.0500   42.7110 C   0  0  0  0  0  0  0  0  0  0  0  0
   38.4030   26.3720   42.0110 H   0  0  0  0  0  0  0  0  0  0  0  0
   37.9890   25.9010   43.7510 H   0  0  0  0  0  0  0  0  0  0  0  0
   36.9070   24.8330   42.1790 C   0  0  0  0  0  3  0  0  0  0  0  0
   37.8340   23.8840   41.4150 C   0  0  0  0  0  2  0  0  0  0  0  0
   36.7630   24.6130   40.7200 C   0  0  0  0  0  2  0  0  0  0  0  0
  1  6  1  0  0  0  0
  2  1  2  0  0  0  0
  2  3  1  0  0  0  0
  3  8  1  0  0  0  0
  3  4  2  0  0  0  0
  4  5  1  0  0  0  0
  5 27  1  0  0  0  0
  6  5  2  0  0  0  0
  7 10  1  0  0  0  0
  7  1  1  0  0  0  0
  9  7  1  0  0  0  0
 11 12  1  0  0  0  0
 11  2  1  0  0  0  0
 12 21  1  0  0  0  0
 13 22  1  0  0  0  0
 13 12  2  0  0  0  0
 14 13  1  0  0  0  0
 15 14  2  0  0  0  0
 16 15  1  0  0  0  0
 17 16  2  0  0  0  0
 17 18  1  0  0  0  0
 18 19  2  0  0  0  0
 19 14  1  0  0  0  0
 19 20  1  0  0  0  0
 20 11  2  0  0  0  0
 23 16  1  0  0  0  0
 24 17  1  0  0  0  0
 25 18  1  0  0  0  0
 26 20  1  0  0  0  0
 27 29  1  0  0  0  0
 28 27  1  0  0  0  0
 30 27  1  0  0  0  0
 30 32  1  0  0  0  0
 31 30  1  0  0  0  0
 33 30  1  0  0  0  0
 34 33  1  0  0  0  0
 35 34  1  0  0  0  0
 35 33  1  0  0  0  0
M  END
>  <minimizedAffinity>
-5.81161499

$$$$

 OpenBabel03242522483D

 35 38  0  0  0  0  0  0  0  0999 V2000
   36.9850   31.2200   40.5580 C   0  0  0  0  0  0  0  0  0  0  0  0
   37.7300   30.2280   39.8960 C   0  0  0  0  0  0  0  0  0  0  0  0
   38.9570   30.5930   39.2990 C   0  0  0  0  0  0  0  0  0  0  0  0
   39.3320   31.8950   39.4120 N   0  0  0  0  0  0  0  0  0  0  0  0
   38.6020   32.8220   40.0490 C   0  0  0  0  0  0  0  0  0  0  0  0
   37.4340   32.4730   40.6170 N   0  0  0  0  0  0  0  0  0  0  0  0
   35.7610   30.8610   41.1550 N   0  0  0  0  0  0  0  0  0  0  0  0
   39.5500   29.8640   38.7870 H   0  0  0  0  0  0  0  0  0  0  0  0
   35.4730   31.3090   42.0420 H   0  0  0  0  0  0  0  0  0  0  0  0
   35.0600   30.1670   40.8110 H   0  0  0  0  0  0  0  0  0  0  0  0
   37.3010   28.8490   39.7960 C   0  0  0  0  0  0  0  0  0  0  0  0
   36.6400   28.2200   38.7720 C   0  0  0  0  0  0  0  0  0  0  0  0
   36.3100   26.8800   38.8580 C   0  0  0  0  0  0  0  0  0  0  0  0
   36.6280   26.1220   39.9690 C   0  0  0  0  0  0  0  0  0  0  0  0
   36.2680   24.8350   39.9640 N   0  0  0  0  0  0  0  0  0  0  0  0
   36.5710   24.0550   41.0560 C   0  0  0  0  0  0  0  0  0  0  0  0
   37.2340   24.6710   42.0920 C   0  0  0  0  0  0  0  0  0  0  0  0
   37.6130   25.9960   42.1180 C   0  0  0  0  0  0  0  0  0  0  0  0
   37.2950   26.7550   41.0070 C   0  0  0  0  0  0  0  0  0  0  0  0
   37.6310   28.0990   40.9310 C   0  0  0  0  0  0  0  0  0  0  0  0
   36.4190   28.8620   37.9310 H   0  0  0  0  0  0  0  0  0  0  0  0
   35.7840   26.4450   38.0050 H   0  0  0  0  0  0  0  0  0  0  0  0
   36.2950   23.0080   41.0860 H   0  0  0  0  0  0  0  0  0  0  0  0
   37.4920   24.0910   42.9740 H   0  0  0  0  0  0  0  0  0  0  0  0
   38.1340   26.4420   42.9560 H   0  0  0  0  0  0  0  0  0  0  0  0
   38.1530   28.4840   41.8050 H   0  0  0  0  0  0  0  0  0  0  0  0
   39.1320   34.2110   40.0990 C   0  0  0  0  0  0  0  0  0  0  0  0
   39.2240   34.5210   41.1800 H   0  0  0  0  0  0  0  0  0  0  0  0
   38.4660   34.9230   39.5990 H   0  0  0  0  0  0  0  0  0  0  0  0
   40.5600   34.2330   39.5250 C   0  0  0  0  0  0  0  0  0  0  0  0
   40.6970   33.2580   39.0180 H   0  0  0  0  0  0  0  0  0  0  0  0
   40.5890   35.0930   38.8130 H   0  0  0  0  0  0  0  0  0  0  0  0
   41.5530   34.3820   40.6410 C   0  0  0  0  0  3  0  0  0  0  0  0
   43.0020   34.1650   40.1990 C   0  0  0  0  0  2  0  0  0  0  0  0
   42.3460   33.2230   41.1170 C   0  0  0  0  0  2  0  0  0  0  0  0
  1  6  1  0  0  0  0
  1  7  1  0  0  0  0
  2  1  2  0  0  0  0
  3  4  2  0  0  0  0
  3  2  1  0  0  0  0
  4  5  1  0  0  0  0
  5 27  1  0  0  0  0
  5  6  2  0  0  0  0
  7  9  1  0  0  0  0
  8  3  1  0  0  0  0
 10  7  1  0  0  0  0
 11  2  1  0  0  0  0
 11 20  1  0  0  0  0
 12 13  1  0  0  0  0
 12 11  2  0  0  0  0
 13 14  2  0  0  0  0
 14 19  1  0  0  0  0
 15 14  1  0  0  0  0
 15 16  2  0  0  0  0
 16 23  1  0  0  0  0
 16 17  1  0  0  0  0
 17 18  2  0  0  0  0
 17 24  1  0  0  0  0
 18 25  1  0  0  0  0
 19 18  1  0  0  0  0
 20 19  2  0  0  0  0
 20 26  1  0  0  0  0
 21 12  1  0  0  0  0
 22 13  1  0  0  0  0
 27 28  1  0  0  0  0
 29 27  1  0  0  0  0
 30 27  1  0  0  0  0
 30 33  1  0  0  0  0
 31 30  1  0  0  0  0
 32 30  1  0  0  0  0
 33 35  1  0  0  0  0
 34 33  1  0  0  0  0
 34 35  1  0  0  0  0
M  END
>  <minimizedAffinity>
-5.63726139

$$$$

 OpenBabel03242522483D

 35 38  0  0  0  0  0  0  0  0999 V2000
   37.2070   28.5050   42.1560 C   0  0  0  0  0  0  0  0  0  0  0  0
   37.5170   29.0250   40.8870 C   0  0  0  0  0  0  0  0  0  0  0  0
   37.5780   28.1370   39.7900 C   0  0  0  0  0  0  0  0  0  0  0  0
   37.3260   26.8260   40.0480 N   0  0  0  0  0  0  0  0  0  0  0  0
   37.0310   26.3550   41.2680 C   0  0  0  0  0  0  0  0  0  0  0  0
   36.9740   27.2030   42.3110 N   0  0  0  0  0  0  0  0  0  0  0  0
   37.1450   29.3870   43.2520 N   0  0  0  0  0  0  0  0  0  0  0  0
   37.8120   28.4990   38.8110 H   0  0  0  0  0  0  0  0  0  0  0  0
   36.4460   29.2290   43.9980 H   0  0  0  0  0  0  0  0  0  0  0  0
   37.7400   30.2270   43.4320 H   0  0  0  0  0  0  0  0  0  0  0  0
   37.7800   30.4290   40.6490 C   0  0  0  0  0  0  0  0  0  0  0  0
   36.9050   31.4270   40.3030 C   0  0  0  0  0  0  0  0  0  0  0  0
   37.3450   32.7240   40.1160 C   0  0  0  0  0  0  0  0  0  0  0  0
   38.6740   33.0700   40.2690 C   0  0  0  0  0  0  0  0  0  0  0  0
   39.0080   34.3490   40.0680 N   0  0  0  0  0  0  0  0  0  0  0  0
   40.3240   34.7230   40.2130 C   0  0  0  0  0  0  0  0  0  0  0  0
   41.2150   33.7340   40.5600 C   0  0  0  0  0  0  0  0  0  0  0  0
   40.8920   32.4110   40.7710 C   0  0  0  0  0  0  0  0  0  0  0  0
   39.5620   32.0640   40.6190 C   0  0  0  0  0  0  0  0  0  0  0  0
   39.1310   30.7600   40.8080 C   0  0  0  0  0  0  0  0  0  0  0  0
   35.8800   31.0970   40.1980 H   0  0  0  0  0  0  0  0  0  0  0  0
   36.5930   33.4670   39.8420 H   0  0  0  0  0  0  0  0  0  0  0  0
   40.6300   35.7500   40.0580 H   0  0  0  0  0  0  0  0  0  0  0  0
   42.2650   33.9870   40.6840 H   0  0  0  0  0  0  0  0  0  0  0  0
   41.6260   31.6630   41.0440 H   0  0  0  0  0  0  0  0  0  0  0  0
   39.9180   30.0590   41.0800 H   0  0  0  0  0  0  0  0  0  0  0  0
   36.7750   24.8970   41.4070 C   0  0  0  0  0  0  0  0  0  0  0  0
   37.0100   24.3960   40.4240 H   0  0  0  0  0  0  0  0  0  0  0  0
   35.7290   24.6850   41.6540 H   0  0  0  0  0  0  0  0  0  0  0  0
   37.7560   24.3030   42.4350 C   0  0  0  0  0  0  0  0  0  0  0  0
   37.7070   24.9690   43.3190 H   0  0  0  0  0  0  0  0  0  0  0  0
   37.3820   23.2740   42.6540 H   0  0  0  0  0  0  0  0  0  0  0  0
   39.1450   24.2970   41.8650 C   0  0  0  0  0  3  0  0  0  0  0  0
   40.2410   24.3240   42.9330 C   0  0  0  0  0  2  0  0  0  0  0  0
   40.0430   25.4660   42.0290 C   0  0  0  0  0  2  0  0  0  0  0  0
  1  6  1  0  0  0  0
  1  7  1  0  0  0  0
  2  1  2  0  0  0  0
  3  4  2  0  0  0  0
  3  2  1  0  0  0  0
  4  5  1  0  0  0  0
  5 27  1  0  0  0  0
  5  6  2  0  0  0  0
  7 10  1  0  0  0  0
  7  9  1  0  0  0  0
  8  3  1  0  0  0  0
 11 20  1  0  0  0  0
 11  2  1  0  0  0  0
 12 11  2  0  0  0  0
 13 14  2  0  0  0  0
 13 12  1  0  0  0  0
 14 19  1  0  0  0  0
 15 16  2  0  0  0  0
 15 14  1  0  0  0  0
 16 17  1  0  0  0  0
 17 24  1  0  0  0  0
 17 18  2  0  0  0  0
 18 25  1  0  0  0  0
 19 18  1  0  0  0  0
 19 20  2  0  0  0  0
 20 26  1  0  0  0  0
 21 12  1  0  0  0  0
 22 13  1  0  0  0  0
 23 16  1  0  0  0  0
 27 29  1  0  0  0  0
 27 30  1  0  0  0  0
 28 27  1  0  0  0  0
 30 32  1  0  0  0  0
 30 31  1  0  0  0  0
 33 35  1  0  0  0  0
 33 30  1  0  0  0  0
 33 34  1  0  0  0  0
 35 34  1  0  0  0  0
M  END
>  <minimizedAffinity>
-5.60904741

$$$$

 OpenBabel03242522483D

 35 38  0  0  0  0  0  0  0  0999 V2000
   35.4900   29.2470   37.1210 C   0  0  0  0  0  0  0  0  0  0  0  0
   34.9160   29.1930   38.4030 C   0  0  0  0  0  0  0  0  0  0  0  0
   33.5130   29.0760   38.5100 C   0  0  0  0  0  0  0  0  0  0  0  0
   32.8110   29.0230   37.3460 N   0  0  0  0  0  0  0  0  0  0  0  0
   33.3830   29.0760   36.1350 C   0  0  0  0  0  0  0  0  0  0  0  0
   34.7200   29.1870   36.0350 N   0  0  0  0  0  0  0  0  0  0  0  0
   36.8890   29.3640   37.0100 N   0  0  0  0  0  0  0  0  0  0  0  0
   33.0420   29.0320   39.4700 H   0  0  0  0  0  0  0  0  0  0  0  0
   37.3840   28.8820   36.2390 H   0  0  0  0  0  0  0  0  0  0  0  0
   37.5380   29.8980   37.6300 H   0  0  0  0  0  0  0  0  0  0  0  0
   35.6950   29.2510   39.6220 C   0  0  0  0  0  0  0  0  0  0  0  0
   36.0930   30.3470   40.3440 C   0  0  0  0  0  0  0  0  0  0  0  0
   36.8420   30.2040   41.4980 C   0  0  0  0  0  0  0  0  0  0  0  0
   37.2190   28.9610   41.9700 C   0  0  0  0  0  0  0  0  0  0  0  0
   37.9420   28.9190   43.0940 N   0  0  0  0  0  0  0  0  0  0  0  0
   38.3320   27.6960   43.5890 C   0  0  0  0  0  0  0  0  0  0  0  0
   37.9420   26.5860   42.8760 C   0  0  0  0  0  0  0  0  0  0  0  0
   37.1960   26.6070   41.7170 C   0  0  0  0  0  0  0  0  0  0  0  0
   36.8190   27.8500   41.2430 C   0  0  0  0  0  0  0  0  0  0  0  0
   36.0680   27.9830   40.0850 C   0  0  0  0  0  0  0  0  0  0  0  0
   35.7690   31.2910   39.9270 H   0  0  0  0  0  0  0  0  0  0  0  0
   37.1230   31.1200   42.0210 H   0  0  0  0  0  0  0  0  0  0  0  0
   38.9190   27.6250   44.4960 H   0  0  0  0  0  0  0  0  0  0  0  0
   38.2290   25.6010   43.2320 H   0  0  0  0  0  0  0  0  0  0  0  0
   36.9090   25.7080   41.1860 H   0  0  0  0  0  0  0  0  0  0  0  0
   35.8130   27.0420   39.6010 H   0  0  0  0  0  0  0  0  0  0  0  0
   32.4960   29.0060   34.9430 C   0  0  0  0  0  0  0  0  0  0  0  0
   31.5080   28.5610   35.2570 H   0  0  0  0  0  0  0  0  0  0  0  0
   32.9170   28.3730   34.1540 H   0  0  0  0  0  0  0  0  0  0  0  0
   32.1860   30.4320   34.4530 C   0  0  0  0  0  0  0  0  0  0  0  0
   32.9690   31.0790   34.8930 H   0  0  0  0  0  0  0  0  0  0  0  0
   32.2430   30.3910   33.3380 H   0  0  0  0  0  0  0  0  0  0  0  0
   30.8290   30.8520   34.9400 C   0  0  0  0  0  3  0  0  0  0  0  0
   30.5930   32.3620   34.8570 C   0  0  0  0  0  2  0  0  0  0  0  0
   30.6790   31.6840   36.1580 C   0  0  0  0  0  2  0  0  0  0  0  0
  1  2  1  0  0  0  0
  2  3  2  0  0  0  0
  2 11  1  0  0  0  0
  3  8  1  0  0  0  0
  4  3  1  0  0  0  0
  5  4  2  0  0  0  0
  6  5  1  0  0  0  0
  6  1  2  0  0  0  0
  7  1  1  0  0  0  0
  7 10  1  0  0  0  0
  9  7  1  0  0  0  0
 11 20  2  0  0  0  0
 11 12  1  0  0  0  0
 12 13  2  0  0  0  0
 13 14  1  0  0  0  0
 13 22  1  0  0  0  0
 14 15  1  0  0  0  0
 15 16  2  0  0  0  0
 16 23  1  0  0  0  0
 17 24  1  0  0  0  0
 17 16  1  0  0  0  0
 18 17  2  0  0  0  0
 19 18  1  0  0  0  0
 19 14  2  0  0  0  0
 20 19  1  0  0  0  0
 21 12  1  0  0  0  0
 25 18  1  0  0  0  0
 26 20  1  0  0  0  0
 27 28  1  0  0  0  0
 27  5  1  0  0  0  0
 29 27  1  0  0  0  0
 30 31  1  0  0  0  0
 30 33  1  0  0  0  0
 30 27  1  0  0  0  0
 32 30  1  0  0  0  0
 33 35  1  0  0  0  0
 34 33  1  0  0  0  0
 34 35  1  0  0  0  0
M  END
>  <minimizedAffinity>
-5.50376511

$$$$

 OpenBabel03242522483D

 35 38  0  0  0  0  0  0  0  0999 V2000
   37.8240   28.2060   42.6460 C   0  0  0  0  0  0  0  0  0  0  0  0
   39.0350   28.2940   41.9380 C   0  0  0  0  0  0  0  0  0  0  0  0
   39.5250   27.1360   41.2950 C   0  0  0  0  0  0  0  0  0  0  0  0
   38.7760   26.0060   41.4090 N   0  0  0  0  0  0  0  0  0  0  0  0
   37.6230   25.9500   42.0900 C   0  0  0  0  0  0  0  0  0  0  0  0
   37.1580   27.0540   42.7020 N   0  0  0  0  0  0  0  0  0  0  0  0
   37.3310   29.3580   43.2890 N   0  0  0  0  0  0  0  0  0  0  0  0
   40.4440   27.1660   40.7480 H   0  0  0  0  0  0  0  0  0  0  0  0
   36.3120   29.5290   43.3250 H   0  0  0  0  0  0  0  0  0  0  0  0
   37.8790   30.1090   43.7640 H   0  0  0  0  0  0  0  0  0  0  0  0
   39.8070   29.5140   41.8370 C   0  0  0  0  0  0  0  0  0  0  0  0
   40.7810   29.9950   42.6740 C   0  0  0  0  0  0  0  0  0  0  0  0
   41.4150   31.1950   42.4100 C   0  0  0  0  0  0  0  0  0  0  0  0
   41.0970   31.9570   41.3020 C   0  0  0  0  0  0  0  0  0  0  0  0
   41.7620   33.1040   41.1280 N   0  0  0  0  0  0  0  0  0  0  0  0
   41.4670   33.8840   40.0340 C   0  0  0  0  0  0  0  0  0  0  0  0
   40.4910   33.4170   39.1840 C   0  0  0  0  0  0  0  0  0  0  0  0
   39.7950   32.2380   39.3450 C   0  0  0  0  0  0  0  0  0  0  0  0
   40.1120   31.4750   40.4530 C   0  0  0  0  0  0  0  0  0  0  0  0
   39.4700   30.2720   40.7090 C   0  0  0  0  0  0  0  0  0  0  0  0
   40.9870   29.3570   43.5220 H   0  0  0  0  0  0  0  0  0  0  0  0
   42.1810   31.5160   43.1190 H   0  0  0  0  0  0  0  0  0  0  0  0
   41.9860   34.8190   39.8620 H   0  0  0  0  0  0  0  0  0  0  0  0
   40.2280   34.0020   38.3080 H   0  0  0  0  0  0  0  0  0  0  0  0
   39.0330   31.9070   38.6510 H   0  0  0  0  0  0  0  0  0  0  0  0
   38.7170   29.9980   39.9730 H   0  0  0  0  0  0  0  0  0  0  0  0
   36.9030   24.6490   42.1320 C   0  0  0  0  0  0  0  0  0  0  0  0
   35.8210   24.8460   42.3820 H   0  0  0  0  0  0  0  0  0  0  0  0
   37.3110   23.9780   42.8960 H   0  0  0  0  0  0  0  0  0  0  0  0
   36.9090   24.0170   40.7280 C   0  0  0  0  0  0  0  0  0  0  0  0
   35.8770   23.6580   40.5540 H   0  0  0  0  0  0  0  0  0  0  0  0
   37.2000   24.8370   40.0270 H   0  0  0  0  0  0  0  0  0  0  0  0
   37.8740   22.8660   40.6940 C   0  0  0  0  0  3  0  0  0  0  0  0
   38.5430   22.6750   39.3310 C   0  0  0  0  0  2  0  0  0  0  0  0
   37.6060   21.6720   39.8580 C   0  0  0  0  0  2  0  0  0  0  0  0
  1  6  1  0  0  0  0
  1  7  1  0  0  0  0
  2  1  2  0  0  0  0
  3  4  2  0  0  0  0
  3  2  1  0  0  0  0
  4  5  1  0  0  0  0
  5 27  1  0  0  0  0
  5  6  2  0  0  0  0
  7  9  1  0  0  0  0
  7 10  1  0  0  0  0
  8  3  1  0  0  0  0
 11  2  1  0  0  0  0
 11 12  1  0  0  0  0
 12 21  1  0  0  0  0
 13 12  2  0  0  0  0
 13 22  1  0  0  0  0
 14 13  1  0  0  0  0
 15 14  1  0  0  0  0
 16 15  2  0  0  0  0
 17 18  2  0  0  0  0
 17 16  1  0  0  0  0
 18 19  1  0  0  0  0
 19 20  1  0  0  0  0
 19 14  2  0  0  0  0
 20 11  2  0  0  0  0
 23 16  1  0  0  0  0
 24 17  1  0  0  0  0
 25 18  1  0  0  0  0
 26 20  1  0  0  0  0
 27 28  1  0  0  0  0
 27 29  1  0  0  0  0
 30 27  1  0  0  0  0
 31 30  1  0  0  0  0
 32 30  1  0  0  0  0
 33 30  1  0  0  0  0
 34 35  1  0  0  0  0
 34 33  1  0  0  0  0
 35 33  1  0  0  0  0
M  END
>  <minimizedAffinity>
-5.20335245

$$$$

 OpenBabel03242522483D

 35 38  0  0  0  0  0  0  0  0999 V2000
   36.5780   27.1490   40.3140 C   0  0  0  0  0  0  0  0  0  0  0  0
   36.2050   28.4190   39.8400 C   0  0  0  0  0  0  0  0  0  0  0  0
   36.3580   29.5310   40.6980 C   0  0  0  0  0  0  0  0  0  0  0  0
   36.8630   29.2860   41.9360 N   0  0  0  0  0  0  0  0  0  0  0  0
   37.2120   28.0640   42.3640 C   0  0  0  0  0  0  0  0  0  0  0  0
   37.0660   27.0070   41.5450 N   0  0  0  0  0  0  0  0  0  0  0  0
   36.4280   26.0380   39.4620 N   0  0  0  0  0  0  0  0  0  0  0  0
   36.0840   30.5120   40.3700 H   0  0  0  0  0  0  0  0  0  0  0  0
   37.1220   25.2720   39.4910 H   0  0  0  0  0  0  0  0  0  0  0  0
   35.6710   25.8650   38.7640 H   0  0  0  0  0  0  0  0  0  0  0  0
   35.6710   28.6440   38.5130 C   0  0  0  0  0  0  0  0  0  0  0  0
   36.3290   28.6910   37.3110 C   0  0  0  0  0  0  0  0  0  0  0  0
   35.6410   28.9190   36.1330 C   0  0  0  0  0  0  0  0  0  0  0  0
   34.2720   29.1090   36.1160 C   0  0  0  0  0  0  0  0  0  0  0  0
   33.6930   29.3230   34.9300 N   0  0  0  0  0  0  0  0  0  0  0  0
   32.3310   29.5160   34.8810 C   0  0  0  0  0  0  0  0  0  0  0  0
   31.6560   29.4720   36.0780 C   0  0  0  0  0  0  0  0  0  0  0  0
   32.2340   29.2520   37.3100 C   0  0  0  0  0  0  0  0  0  0  0  0
   33.6030   29.0620   37.3290 C   0  0  0  0  0  0  0  0  0  0  0  0
   34.2840   28.8340   38.5160 C   0  0  0  0  0  0  0  0  0  0  0  0
   37.3970   28.5350   37.3870 H   0  0  0  0  0  0  0  0  0  0  0  0
   36.2300   28.9430   35.2140 H   0  0  0  0  0  0  0  0  0  0  0  0
   31.8290   29.6920   33.9380 H   0  0  0  0  0  0  0  0  0  0  0  0
   30.5790   29.6190   36.0850 H   0  0  0  0  0  0  0  0  0  0  0  0
   31.6640   29.2250   38.2310 H   0  0  0  0  0  0  0  0  0  0  0  0
   33.6530   28.8190   39.4020 H   0  0  0  0  0  0  0  0  0  0  0  0
   37.7540   27.9380   43.7430 C   0  0  0  0  0  0  0  0  0  0  0  0
   36.9460   27.5180   44.4090 H   0  0  0  0  0  0  0  0  0  0  0  0
   38.0620   28.9060   44.1530 H   0  0  0  0  0  0  0  0  0  0  0  0
   38.8940   26.9040   43.7500 C   0  0  0  0  0  0  0  0  0  0  0  0
   38.9420   26.5130   44.7850 H   0  0  0  0  0  0  0  0  0  0  0  0
   38.6000   26.1200   43.0110 H   0  0  0  0  0  0  0  0  0  0  0  0
   40.1890   27.5740   43.3870 C   0  0  0  0  0  3  0  0  0  0  0  0
   41.1950   26.6320   42.7200 C   0  0  0  0  0  2  0  0  0  0  0  0
   41.4580   27.1940   44.0530 C   0  0  0  0  0  2  0  0  0  0  0  0
  1  6  1  0  0  0  0
  2  1  2  0  0  0  0
  2  3  1  0  0  0  0
  3  4  2  0  0  0  0
  4  5  1  0  0  0  0
  5 27  1  0  0  0  0
  6  5  2  0  0  0  0
  7  9  1  0  0  0  0
  7  1  1  0  0  0  0
  8  3  1  0  0  0  0
 10  7  1  0  0  0  0
 11 20  1  0  0  0  0
 11  2  1  0  0  0  0
 12 21  1  0  0  0  0
 12 11  2  0  0  0  0
 13 12  1  0  0  0  0
 14 13  2  0  0  0  0
 14 19  1  0  0  0  0
 15 14  1  0  0  0  0
 16 15  2  0  0  0  0
 16 17  1  0  0  0  0
 17 24  1  0  0  0  0
 17 18  2  0  0  0  0
 18 19  1  0  0  0  0
 18 25  1  0  0  0  0
 19 20  2  0  0  0  0
 20 26  1  0  0  0  0
 22 13  1  0  0  0  0
 23 16  1  0  0  0  0
 27 30  1  0  0  0  0
 27 29  1  0  0  0  0
 27 28  1  0  0  0  0
 30 31  1  0  0  0  0
 32 30  1  0  0  0  0
 33 30  1  0  0  0  0
 33 35  1  0  0  0  0
 34 33  1  0  0  0  0
 34 35  1  0  0  0  0
M  END
>  <minimizedAffinity>
-5.19608784

$$$$
