
 OpenBabel03252509003D

 39 41  0  0  1  0  0  0  0  0999 V2000
   46.7070   34.3860   43.4500 N   0  0  0  0  0  0  0  0  0  0  0  0
   46.4180   34.9020   42.1580 C   0  0  0  0  0  0  0  0  0  0  0  0
   44.9540   34.9030   41.7800 C   0  0  0  0  0  0  0  0  0  0  0  0
   44.0150   35.1330   42.9340 C   0  0  0  0  0  0  0  0  0  0  0  0
   44.7610   35.4000   44.2180 C   0  0  0  0  0  0  0  0  0  0  0  0
   45.6910   34.1440   44.3620 C   0  0  2  0  0  0  0  0  0  0  0  0
   46.7200   35.9770   42.1570 H   0  0  0  0  0  0  0  0  0  0  0  0
   46.9640   34.4490   41.3290 H   0  0  0  0  0  0  0  0  0  0  0  0
   44.7530   33.9440   41.2540 H   0  0  0  0  0  0  0  0  0  0  0  0
   44.7990   35.6900   41.0100 H   0  0  0  0  0  0  0  0  0  0  0  0
   43.3990   34.2260   43.0470 H   0  0  0  0  0  0  0  0  0  0  0  0
   43.3710   36.0250   42.7360 H   0  0  0  0  0  0  0  0  0  0  0  0
   45.4120   36.2710   44.1450 H   0  0  0  0  0  0  0  0  0  0  0  0
   44.0340   35.4120   45.0320 H   0  0  0  0  0  0  0  0  0  0  0  0
   45.0340   33.2690   44.2120 H   0  0  0  0  0  0  0  0  0  0  0  0
   47.8930   33.5840   43.5090 C   0  0  0  0  0  0  0  0  0  0  0  0
   48.7430   34.1900   43.1540 H   0  0  0  0  0  0  0  0  0  0  0  0
   48.0530   33.3030   44.5780 H   0  0  0  0  0  0  0  0  0  0  0  0
   47.6760   32.3310   42.7290 C   0  0  0  0  0  0  0  0  0  0  0  0
   47.4770   31.4320   43.3250 H   0  0  0  0  0  0  0  0  0  0  0  0
   46.7960   32.4430   42.0500 H   0  0  0  0  0  0  0  0  0  0  0  0
   51.2120   32.2040   41.4580 C   0  0  0  0  0  0  0  0  0  0  0  0
   50.1020   32.4100   42.2970 C   0  0  0  0  0  0  0  0  0  0  0  0
   48.8400   32.1090   41.8310 C   0  0  0  0  0  0  0  0  0  0  0  0
   48.7350   31.6300   40.5860 N   0  0  0  0  0  0  0  0  0  0  0  0
   49.8050   31.4370   39.7900 C   0  0  0  0  0  0  0  0  0  0  0  0
   51.0480   31.7210   40.2160 N   0  0  0  0  0  0  0  0  0  0  0  0
   52.2030   32.4390   41.8220 H   0  0  0  0  0  0  0  0  0  0  0  0
   50.2680   32.8010   43.2950 H   0  0  0  0  0  0  0  0  0  0  0  0
   49.7020   31.0500   38.7880 H   0  0  0  0  0  0  0  0  0  0  0  0
   46.1430   34.2830   45.6740 O   0  0  0  0  0  0  0  0  0  0  0  0
   45.7470   31.6560   45.6340 O   0  0  0  0  0  0  0  0  0  0  0  0
   46.0660   32.8470   46.5430 P   0  0  2  0  0  0  0  0  0  0  0  0
   44.7060   32.9870   47.5700 O   0  0  0  0  0  0  0  0  0  0  0  0
   44.7290   33.8490   48.0480 H   0  0  0  0  0  0  0  0  0  0  0  0
   47.4110   32.5960   47.4820 O   0  0  0  0  0  0  0  0  0  0  0  0
   47.2930   31.6480   48.4650 C   0  0  0  0  0  3  0  0  0  0  0  0
   47.8640   30.2900   48.3310 C   0  0  0  0  0  2  0  0  0  0  0  0
   48.6220   31.2860   49.1400 C   0  0  0  0  0  2  0  0  0  0  0  0
  1 16  1  0  0  0  0
  1  6  1  0  0  0  0
  2  1  1  0  0  0  0
  3  2  1  0  0  0  0
  3  4  1  0  0  0  0
  4 11  1  0  0  0  0
  4  5  1  0  0  0  0
  5  6  1  0  0  0  0
  5 14  1  0  0  0  0
  6 15  1  6  0  0  0
  6 31  1  0  0  0  0
  7  2  1  0  0  0  0
  8  2  1  0  0  0  0
  9  3  1  0  0  0  0
 10  3  1  0  0  0  0
 12  4  1  0  0  0  0
 13  5  1  0  0  0  0
 16 18  1  0  0  0  0
 17 16  1  0  0  0  0
 19 20  1  0  0  0  0
 19 16  1  0  0  0  0
 21 19  1  0  0  0  0
 22 28  1  0  0  0  0
 22 23  1  0  0  0  0
 23 29  1  0  0  0  0
 24 23  2  0  0  0  0
 24 19  1  0  0  0  0
 25 24  1  0  0  0  0
 26 27  1  0  0  0  0
 26 25  2  0  0  0  0
 27 22  2  0  0  0  0
 30 26  1  0  0  0  0
 31 33  1  0  0  0  0
 33 32  2  6  0  0  0
 33 36  1  0  0  0  0
 33 34  1  0  0  0  0
 34 35  1  0  0  0  0
 36 37  1  0  0  0  0
 37 39  1  0  0  0  0
 38 37  1  0  0  0  0
 38 39  1  0  0  0  0
M  END
>  <minimizedAffinity>
-4.68134737

>  <minimizedRMSD>
2.42781472

$$$$
