
 OpenBabel03252503013D

 24 25  0  0  0  0  0  0  0  0999 V2000
   43.3830   35.5480   41.3870 C   0  0  0  0  0  0  0  0  0  0  0  0
   44.4830   35.6800   41.1840 H   0  0  0  0  0  0  0  0  0  0  0  0
   42.8320   36.4140   40.9680 H   0  0  0  0  0  0  0  0  0  0  0  0
   43.2590   35.5120   42.8540 N   0  0  0  0  0  0  0  0  0  0  0  0
   42.5710   36.2070   43.2070 H   0  0  0  0  0  0  0  0  0  0  0  0
   44.7920   35.6890   43.6170 S   0  0  0  0  0  0  0  0  0  0  0  0
   45.9110   35.5770   42.6420 O   0  0  0  0  0  0  0  0  0  0  0  0
   46.4210   36.3820   42.3550 H   0  0  0  0  0  0  0  0  0  0  0  0
   44.7840   37.0620   44.2500 O   0  0  0  0  0  0  0  0  0  0  0  0
   44.3940   37.8250   43.7220 H   0  0  0  0  0  0  0  0  0  0  0  0
   44.9200   34.5990   44.8760 O   0  0  0  0  0  0  0  0  0  0  0  0
   46.1020   33.8910   44.8720 C   0  0  0  0  0  3  0  0  0  0  0  0
   45.9230   32.3890   44.9290 C   0  0  0  0  0  2  0  0  0  0  0  0
   46.4850   33.1180   46.1020 C   0  0  0  0  0  2  0  0  0  0  0  0
   42.8990   33.9520   40.7530 S   0  0  0  0  0  0  0  0  0  0  0  0
   40.2680   33.1880   41.2150 C   0  0  0  0  0  0  0  0  0  0  0  0
   41.1170   33.9460   40.4190 C   0  0  0  0  0  0  0  0  0  0  0  0
   40.6280   34.7050   39.3640 C   0  0  0  0  0  0  0  0  0  0  0  0
   39.2710   34.6660   39.1540 N   0  0  0  0  0  0  0  0  0  0  0  0
   38.5020   33.9210   39.9480 C   0  0  0  0  0  0  0  0  0  0  0  0
   38.9380   33.1910   40.9550 N   0  0  0  0  0  0  0  0  0  0  0  0
   40.6610   32.6000   42.0340 H   0  0  0  0  0  0  0  0  0  0  0  0
   41.2890   35.3070   38.7300 H   0  0  0  0  0  0  0  0  0  0  0  0
   37.4510   33.9960   39.6510 H   0  0  0  0  0  0  0  0  0  0  0  0
  1  4  1  0  0  0  0
  2  1  1  0  0  0  0
  3  1  1  0  0  0  0
  4  5  1  0  0  0  0
  4  6  1  0  0  0  0
  6  9  1  0  0  0  0
  6 11  1  0  0  0  0
  7  6  1  0  0  0  0
  8  7  1  0  0  0  0
 10  9  1  0  0  0  0
 12 11  1  0  0  0  0
 12 13  1  0  0  0  0
 12 14  1  0  0  0  0
 13 14  1  0  0  0  0
 15  1  1  0  0  0  0
 16 22  1  0  0  0  0
 17 15  1  0  0  0  0
 17 16  2  0  0  0  0
 18 17  1  0  0  0  0
 19 18  2  0  0  0  0
 19 20  1  0  0  0  0
 20 21  2  0  0  0  0
 21 16  1  0  0  0  0
 23 18  1  0  0  0  0
 24 20  1  0  0  0  0
M  END
>  <minimizedAffinity>
-4.58250141

>  <minimizedRMSD>
1.70001793

$$$$
