
 OpenBabel03252509293D

 15 16  0  0  0  0  0  0  0  0999 V2000
   44.5060   36.0360   44.6060 C   0  0  0  0  0  0  0  0  0  0  0  0
   45.1710   35.9790   43.3680 C   0  0  0  0  0  0  0  0  0  0  0  0
   46.0410   34.9140   43.1710 C   0  0  0  0  0  0  0  0  0  0  0  0
   46.2080   33.9950   44.1570 N   0  0  0  0  0  0  0  0  0  0  0  0
   45.5500   34.0860   45.3330 C   0  0  0  0  0  0  0  0  0  0  0  0
   44.7030   35.1120   45.5410 N   0  0  0  0  0  0  0  0  0  0  0  0
   43.8140   36.8430   44.8210 H   0  0  0  0  0  0  0  0  0  0  0  0
   44.9610   36.7560   42.6700 H   0  0  0  0  0  0  0  0  0  0  0  0
   45.6540   33.3780   46.1410 H   0  0  0  0  0  0  0  0  0  0  0  0
   46.7300   34.8610   41.8810 C   0  0  0  0  0  0  0  0  0  0  0  0
   47.1230   35.8620   41.6230 H   0  0  0  0  0  0  0  0  0  0  0  0
   45.9420   34.6540   41.1100 H   0  0  0  0  0  0  0  0  0  0  0  0
   47.7870   33.7970   41.8890 C   0  0  0  0  0  3  0  0  0  0  0  0
   47.5090   32.6310   40.9660 C   0  0  0  0  0  2  0  0  0  0  0  0
   48.6770   33.5730   40.7290 C   0  0  0  0  0  2  0  0  0  0  0  0
  1  7  1  0  0  0  0
  1  6  1  0  0  0  0
  2  1  2  0  0  0  0
  3  2  1  0  0  0  0
  3  4  2  0  0  0  0
  4  5  1  0  0  0  0
  5  6  2  0  0  0  0
  5  9  1  0  0  0  0
  8  2  1  0  0  0  0
 10 13  1  0  0  0  0
 10  3  1  0  0  0  0
 11 10  1  0  0  0  0
 12 10  1  0  0  0  0
 14 13  1  0  0  0  0
 15 14  1  0  0  0  0
 15 13  1  0  0  0  0
M  END
>  <minimizedAffinity>
-3.32664442

>  <minimizedRMSD>
0.187203795

$$$$
