
 OpenBabel03252501323D

 18 19  0  0  0  0  0  0  0  0999 V2000
   45.6970   34.4900   44.3670 C   0  0  0  0  0  0  0  0  0  0  0  0
   45.3010   34.2940   45.6760 C   0  0  0  0  0  0  0  0  0  0  0  0
   45.9370   33.2670   46.3630 C   0  0  0  0  0  0  0  0  0  0  0  0
   46.8720   32.5540   45.7170 N   0  0  0  0  0  0  0  0  0  0  0  0
   47.2320   32.7700   44.4470 C   0  0  0  0  0  0  0  0  0  0  0  0
   46.6370   33.7600   43.7430 N   0  0  0  0  0  0  0  0  0  0  0  0
   45.6170   33.1260   47.3850 H   0  0  0  0  0  0  0  0  0  0  0  0
   48.0000   32.1170   44.0560 H   0  0  0  0  0  0  0  0  0  0  0  0
   44.3030   34.8770   42.5210 C   0  0  0  0  0  0  0  0  0  0  0  0
   44.2510   33.6060   42.6970 O   0  0  0  0  0  0  0  0  0  0  0  0
   45.1600   35.5040   43.4760 N   0  0  0  0  0  0  0  0  0  0  0  0
   45.3210   36.5350   43.4670 H   0  0  0  0  0  0  0  0  0  0  0  0
   43.5850   35.6580   41.4770 C   0  0  0  0  0  3  0  0  0  0  0  0
   42.9980   34.9670   40.3030 C   0  0  0  0  0  2  0  0  0  0  0  0
   42.0900   35.4870   41.3520 C   0  0  0  0  0  2  0  0  0  0  0  0
   44.2920   35.1570   46.1840 N   0  0  0  0  0  0  0  0  0  0  0  0
   44.3510   36.0710   46.6640 H   0  0  0  0  0  0  0  0  0  0  0  0
   43.5010   34.5130   45.8830 H   0  0  0  0  0  0  0  0  0  0  0  0
  1  2  1  0  0  0  0
  2 16  1  0  0  0  0
  2  3  2  0  0  0  0
  3  7  1  0  0  0  0
  4  3  1  0  0  0  0
  5  4  2  0  0  0  0
  6  1  2  0  0  0  0
  6  5  1  0  0  0  0
  8  5  1  0  0  0  0
  9 10  2  0  0  0  0
  9 11  1  0  0  0  0
 11  1  1  0  0  0  0
 12 11  1  0  0  0  0
 13  9  1  0  0  0  0
 14 15  1  0  0  0  0
 14 13  1  0  0  0  0
 15 13  1  0  0  0  0
 16 17  1  0  0  0  0
 18 16  1  0  0  0  0
M  END
>  <minimizedAffinity>
-4.45281839

>  <minimizedRMSD>
1.07214296

$$$$
