
 OpenBabel03252509293D

 15 16  0  0  0  0  0  0  0  0999 V2000
   44.4980   36.0090   44.8180 C   0  0  0  0  0  0  0  0  0  0  0  0
   45.0130   36.0490   43.5090 C   0  0  0  0  0  0  0  0  0  0  0  0
   45.8350   34.9980   43.1250 C   0  0  0  0  0  0  0  0  0  0  0  0
   46.1000   33.9990   44.0050 N   0  0  0  0  0  0  0  0  0  0  0  0
   45.5860   33.9960   45.2540 C   0  0  0  0  0  0  0  0  0  0  0  0
   44.7870   35.0080   45.6440 N   0  0  0  0  0  0  0  0  0  0  0  0
   43.8500   36.8000   45.1780 H   0  0  0  0  0  0  0  0  0  0  0  0
   44.7360   36.8840   42.9070 H   0  0  0  0  0  0  0  0  0  0  0  0
   45.7720   33.2230   45.9830 H   0  0  0  0  0  0  0  0  0  0  0  0
   46.3670   35.0470   41.7620 C   0  0  0  0  0  0  0  0  0  0  0  0
   46.1250   36.0220   41.2990 H   0  0  0  0  0  0  0  0  0  0  0  0
   45.7860   34.2940   41.1680 H   0  0  0  0  0  0  0  0  0  0  0  0
   47.8350   34.7410   41.7570 C   0  0  0  0  0  3  0  0  0  0  0  0
   48.5060   34.9100   40.4110 C   0  0  0  0  0  2  0  0  0  0  0  0
   48.8510   35.8020   41.5920 C   0  0  0  0  0  2  0  0  0  0  0  0
  1  7  1  0  0  0  0
  1  6  1  0  0  0  0
  2  1  2  0  0  0  0
  3  2  1  0  0  0  0
  3  4  2  0  0  0  0
  4  5  1  0  0  0  0
  5  6  2  0  0  0  0
  5  9  1  0  0  0  0
  8  2  1  0  0  0  0
 10  3  1  0  0  0  0
 11 10  1  0  0  0  0
 12 10  1  0  0  0  0
 13 10  1  0  0  0  0
 14 15  1  0  0  0  0
 14 13  1  0  0  0  0
 15 13  1  0  0  0  0
M  END
>  <minimizedAffinity>
-4.1672821

>  <minimizedRMSD>
1.10983729

$$$$
