
 OpenBabel03242515293D

 26 28  0  0  0  0  0  0  0  0999 V2000
   36.9540   32.0280   40.2780 C   0  0  0  0  0  0  0  0  0  0  0  0
   36.0070   32.1780   39.7700 H   0  0  0  0  0  0  0  0  0  0  0  0
   36.9570   32.7740   41.1270 H   0  0  0  0  0  0  0  0  0  0  0  0
   38.1360   32.2100   39.4640 N   0  0  0  0  0  0  0  0  0  0  0  0
   38.3610   31.4230   38.4210 C   0  0  0  0  0  0  0  0  0  0  0  0
   39.5160   31.6520   37.6800 C   0  0  0  0  0  0  0  0  0  0  0  0
   40.3980   32.6500   38.0040 C   0  0  0  0  0  0  0  0  0  0  0  0
   41.4180   32.8090   37.3050 O   0  0  0  0  0  0  0  0  0  0  0  0
   40.1350   33.4290   39.0710 N   0  0  0  0  0  0  0  0  0  0  0  0
   39.0150   33.2190   39.8020 C   0  0  0  0  0  0  0  0  0  0  0  0
   38.8330   33.9870   40.7860 O   0  0  0  0  0  0  0  0  0  0  0  0
   37.6380   30.6530   38.2070 H   0  0  0  0  0  0  0  0  0  0  0  0
   39.6470   30.9700   36.8330 H   0  0  0  0  0  0  0  0  0  0  0  0
   40.8180   34.1830   39.3020 H   0  0  0  0  0  0  0  0  0  0  0  0
   35.9980   29.7980   40.6120 C   0  0  0  0  0  0  0  0  0  0  0  0
   37.0260   30.7060   40.9120 C   0  0  0  0  0  0  0  0  0  0  0  0
   37.9980   30.2670   41.7740 C   0  0  0  0  0  0  0  0  0  0  0  0
   37.9340   29.0240   42.2860 N   0  0  0  0  0  0  0  0  0  0  0  0
   36.9150   28.1910   41.9590 C   0  0  0  0  0  0  0  0  0  0  0  0
   35.9140   28.5550   41.1100 N   0  0  0  0  0  0  0  0  0  0  0  0
   35.2000   30.1020   39.9290 H   0  0  0  0  0  0  0  0  0  0  0  0
   38.7980   30.9630   42.0120 H   0  0  0  0  0  0  0  0  0  0  0  0
   36.8460   26.9070   42.4890 O   0  0  0  0  0  0  0  0  0  0  0  0
   37.5850   25.8190   42.0340 C   0  0  0  0  0  3  0  0  0  0  0  0
   36.9500   25.0830   40.8440 C   0  0  0  0  0  2  0  0  0  0  0  0
   36.9510   24.4340   42.1790 C   0  0  0  0  0  2  0  0  0  0  0  0
  1 16  1  0  0  0  0
  1  3  1  0  0  0  0
  2  1  1  0  0  0  0
  4 10  1  0  0  0  0
  4  1  1  0  0  0  0
  5  4  1  0  0  0  0
  6  7  1  0  0  0  0
  6  5  2  0  0  0  0
  7  9  1  0  0  0  0
  8  7  2  0  0  0  0
  9 14  1  0  0  0  0
  9 10  1  0  0  0  0
 10 11  2  0  0  0  0
 12  5  1  0  0  0  0
 13  6  1  0  0  0  0
 15 16  2  0  0  0  0
 15 20  1  0  0  0  0
 16 17  1  0  0  0  0
 17 22  1  0  0  0  0
 17 18  2  0  0  0  0
 19 18  1  0  0  0  0
 19 23  1  0  0  0  0
 20 19  2  0  0  0  0
 21 15  1  0  0  0  0
 24 26  1  0  0  0  0
 24 23  1  0  0  0  0
 25 24  1  0  0  0  0
 25 26  1  0  0  0  0
M  END
>  <minimizedAffinity>
-4.83574581

$$$$

 OpenBabel03242515293D

 26 28  0  0  0  0  0  0  0  0999 V2000
   36.9680   31.6970   39.2600 C   0  0  0  0  0  0  0  0  0  0  0  0
   36.1590   31.6660   38.5350 H   0  0  0  0  0  0  0  0  0  0  0  0
   36.6790   32.5090   39.9900 H   0  0  0  0  0  0  0  0  0  0  0  0
   38.2810   31.9700   38.7190 N   0  0  0  0  0  0  0  0  0  0  0  0
   39.2830   32.3000   39.5210 C   0  0  0  0  0  0  0  0  0  0  0  0
   40.5200   32.5500   38.9360 C   0  0  0  0  0  0  0  0  0  0  0  0
   40.7110   32.4620   37.5820 C   0  0  0  0  0  0  0  0  0  0  0  0
   41.8420   32.6980   37.1110 O   0  0  0  0  0  0  0  0  0  0  0  0
   39.6690   32.1250   36.7980 N   0  0  0  0  0  0  0  0  0  0  0  0
   38.4590   31.8770   37.3520 C   0  0  0  0  0  0  0  0  0  0  0  0
   37.5290   31.5660   36.5590 O   0  0  0  0  0  0  0  0  0  0  0  0
   39.0830   32.3560   40.5790 H   0  0  0  0  0  0  0  0  0  0  0  0
   41.3070   32.8180   39.6490 H   0  0  0  0  0  0  0  0  0  0  0  0
   39.8330   32.0630   35.7700 H   0  0  0  0  0  0  0  0  0  0  0  0
   37.2800   29.2690   39.3460 C   0  0  0  0  0  0  0  0  0  0  0  0
   37.0370   30.4610   40.0480 C   0  0  0  0  0  0  0  0  0  0  0  0
   36.8860   30.3510   41.4060 C   0  0  0  0  0  0  0  0  0  0  0  0
   36.9710   29.1460   42.0000 N   0  0  0  0  0  0  0  0  0  0  0  0
   37.2080   28.0280   41.2680 C   0  0  0  0  0  0  0  0  0  0  0  0
   37.3690   28.0570   39.9160 N   0  0  0  0  0  0  0  0  0  0  0  0
   37.4090   29.3060   38.2610 H   0  0  0  0  0  0  0  0  0  0  0  0
   36.6980   31.2680   41.9580 H   0  0  0  0  0  0  0  0  0  0  0  0
   37.2940   26.7820   41.8790 O   0  0  0  0  0  0  0  0  0  0  0  0
   37.5760   25.5910   41.2170 C   0  0  0  0  0  3  0  0  0  0  0  0
   36.8100   24.3750   41.7620 C   0  0  0  0  0  2  0  0  0  0  0  0
   38.2670   24.4900   42.0240 C   0  0  0  0  0  2  0  0  0  0  0  0
  1  3  1  0  0  0  0
  1 16  1  0  0  0  0
  2  1  1  0  0  0  0
  4  1  1  0  0  0  0
  4  5  1  0  0  0  0
  5 12  1  0  0  0  0
  6  5  2  0  0  0  0
  6 13  1  0  0  0  0
  7  6  1  0  0  0  0
  8  7  2  0  0  0  0
  9 10  1  0  0  0  0
  9  7  1  0  0  0  0
 10  4  1  0  0  0  0
 11 10  2  0  0  0  0
 14  9  1  0  0  0  0
 15 20  2  0  0  0  0
 15 16  1  0  0  0  0
 16 17  2  0  0  0  0
 17 22  1  0  0  0  0
 17 18  1  0  0  0  0
 19 23  1  0  0  0  0
 19 18  2  0  0  0  0
 20 19  1  0  0  0  0
 21 15  1  0  0  0  0
 24 25  1  0  0  0  0
 24 23  1  0  0  0  0
 24 26  1  0  0  0  0
 25 26  1  0  0  0  0
M  END
>  <minimizedAffinity>
-4.81724691

$$$$

 OpenBabel03242515293D

 26 28  0  0  0  0  0  0  0  0999 V2000
   38.8870   26.9650   43.5320 C   0  0  0  0  0  0  0  0  0  0  0  0
   39.8010   26.8440   44.1050 H   0  0  0  0  0  0  0  0  0  0  0  0
   38.0920   27.2180   44.2930 H   0  0  0  0  0  0  0  0  0  0  0  0
   38.4770   25.8130   42.7600 N   0  0  0  0  0  0  0  0  0  0  0  0
   37.2590   25.7520   42.2400 C   0  0  0  0  0  0  0  0  0  0  0  0
   36.9280   24.6150   41.5080 C   0  0  0  0  0  0  0  0  0  0  0  0
   37.8180   23.5890   41.3240 C   0  0  0  0  0  0  0  0  0  0  0  0
   37.4670   22.5940   40.6600 O   0  0  0  0  0  0  0  0  0  0  0  0
   39.0460   23.6870   41.8680 N   0  0  0  0  0  0  0  0  0  0  0  0
   39.3830   24.7870   42.5820 C   0  0  0  0  0  0  0  0  0  0  0  0
   40.5500   24.8110   43.0610 O   0  0  0  0  0  0  0  0  0  0  0  0
   36.5960   26.5840   42.4130 H   0  0  0  0  0  0  0  0  0  0  0  0
   35.9100   24.6230   41.1050 H   0  0  0  0  0  0  0  0  0  0  0  0
   39.7090   22.8970   41.7170 H   0  0  0  0  0  0  0  0  0  0  0  0
   37.9740   29.1140   42.7910 C   0  0  0  0  0  0  0  0  0  0  0  0
   38.9590   28.1240   42.6350 C   0  0  0  0  0  0  0  0  0  0  0  0
   39.8920   28.3390   41.6540 C   0  0  0  0  0  0  0  0  0  0  0  0
   39.8340   29.4520   40.8980 N   0  0  0  0  0  0  0  0  0  0  0  0
   38.8580   30.3730   41.0960 C   0  0  0  0  0  0  0  0  0  0  0  0
   37.8960   30.2300   42.0500 N   0  0  0  0  0  0  0  0  0  0  0  0
   37.2090   28.9880   43.5610 H   0  0  0  0  0  0  0  0  0  0  0  0
   40.6580   27.5790   41.5260 H   0  0  0  0  0  0  0  0  0  0  0  0
   38.7940   31.5220   40.3160 O   0  0  0  0  0  0  0  0  0  0  0  0
   38.0070   32.6340   40.6010 C   0  0  0  0  0  3  0  0  0  0  0  0
   37.2850   33.2220   39.3780 C   0  0  0  0  0  2  0  0  0  0  0  0
   38.4250   33.9660   39.9720 C   0  0  0  0  0  2  0  0  0  0  0  0
  1  2  1  0  0  0  0
  1  3  1  0  0  0  0
  4  1  1  0  0  0  0
  5 12  1  0  0  0  0
  5  4  1  0  0  0  0
  6  5  2  0  0  0  0
  7  6  1  0  0  0  0
  7  9  1  0  0  0  0
  8  7  2  0  0  0  0
  9 10  1  0  0  0  0
 10  4  1  0  0  0  0
 10 11  2  0  0  0  0
 13  6  1  0  0  0  0
 14  9  1  0  0  0  0
 15 21  1  0  0  0  0
 16 15  1  0  0  0  0
 16  1  1  0  0  0  0
 17 16  2  0  0  0  0
 18 19  2  0  0  0  0
 18 17  1  0  0  0  0
 19 20  1  0  0  0  0
 20 15  2  0  0  0  0
 22 17  1  0  0  0  0
 23 24  1  0  0  0  0
 23 19  1  0  0  0  0
 25 26  1  0  0  0  0
 25 24  1  0  0  0  0
 26 24  1  0  0  0  0
M  END
>  <minimizedAffinity>
-4.79859924

$$$$

 OpenBabel03242515293D

 26 28  0  0  0  0  0  0  0  0999 V2000
   39.0960   26.7950   43.6800 C   0  0  0  0  0  0  0  0  0  0  0  0
   38.8110   27.1610   44.6620 H   0  0  0  0  0  0  0  0  0  0  0  0
   38.4670   25.8710   43.5140 H   0  0  0  0  0  0  0  0  0  0  0  0
   40.4950   26.4700   43.5160 N   0  0  0  0  0  0  0  0  0  0  0  0
   41.4260   27.4000   43.6800 C   0  0  0  0  0  0  0  0  0  0  0  0
   42.7530   27.0200   43.5070 C   0  0  0  0  0  0  0  0  0  0  0  0
   43.1010   25.7360   43.1800 C   0  0  0  0  0  0  0  0  0  0  0  0
   44.3070   25.4510   43.0370 O   0  0  0  0  0  0  0  0  0  0  0  0
   42.1280   24.8180   43.0220 N   0  0  0  0  0  0  0  0  0  0  0  0
   40.8320   25.1710   43.1880 C   0  0  0  0  0  0  0  0  0  0  0  0
   39.9740   24.2600   43.0250 O   0  0  0  0  0  0  0  0  0  0  0  0
   41.1010   28.3950   43.9360 H   0  0  0  0  0  0  0  0  0  0  0  0
   43.4730   27.8310   43.6550 H   0  0  0  0  0  0  0  0  0  0  0  0
   42.4130   23.8450   42.7740 H   0  0  0  0  0  0  0  0  0  0  0  0
   38.1860   28.9720   43.0220 C   0  0  0  0  0  0  0  0  0  0  0  0
   38.7100   27.7320   42.6190 C   0  0  0  0  0  0  0  0  0  0  0  0
   38.8050   27.5190   41.2680 C   0  0  0  0  0  0  0  0  0  0  0  0
   38.4070   28.4720   40.4040 N   0  0  0  0  0  0  0  0  0  0  0  0
   37.9090   29.6510   40.8530 C   0  0  0  0  0  0  0  0  0  0  0  0
   37.7830   29.9360   42.1800 N   0  0  0  0  0  0  0  0  0  0  0  0
   38.0910   29.1890   44.0890 H   0  0  0  0  0  0  0  0  0  0  0  0
   39.2090   26.5630   40.9470 H   0  0  0  0  0  0  0  0  0  0  0  0
   37.4950   30.6350   39.9630 O   0  0  0  0  0  0  0  0  0  0  0  0
   37.1050   31.9210   40.3250 C   0  0  0  0  0  3  0  0  0  0  0  0
   37.2440   32.9580   39.2000 C   0  0  0  0  0  2  0  0  0  0  0  0
   38.1880   33.0010   40.3440 C   0  0  0  0  0  2  0  0  0  0  0  0
  1  2  1  0  0  0  0
  3  1  1  0  0  0  0
  4  1  1  0  0  0  0
  4  5  1  0  0  0  0
  5 12  1  0  0  0  0
  6 13  1  0  0  0  0
  6  5  2  0  0  0  0
  7  6  1  0  0  0  0
  8  7  2  0  0  0  0
  9  7  1  0  0  0  0
  9 10  1  0  0  0  0
 10  4  1  0  0  0  0
 11 10  2  0  0  0  0
 14  9  1  0  0  0  0
 15 21  1  0  0  0  0
 16 15  1  0  0  0  0
 16  1  1  0  0  0  0
 17 16  2  0  0  0  0
 18 19  2  0  0  0  0
 18 17  1  0  0  0  0
 19 20  1  0  0  0  0
 20 15  2  0  0  0  0
 22 17  1  0  0  0  0
 23 24  1  0  0  0  0
 23 19  1  0  0  0  0
 24 26  1  0  0  0  0
 25 24  1  0  0  0  0
 25 26  1  0  0  0  0
M  END
>  <minimizedAffinity>
-4.7420373

$$$$

 OpenBabel03242515293D

 26 28  0  0  0  0  0  0  0  0999 V2000
   38.2670   26.6430   42.9920 C   0  0  0  0  0  0  0  0  0  0  0  0
   39.0450   26.8080   43.7300 H   0  0  0  0  0  0  0  0  0  0  0  0
   37.3800   26.2600   43.5770 H   0  0  0  0  0  0  0  0  0  0  0  0
   38.5960   25.7110   41.9360 N   0  0  0  0  0  0  0  0  0  0  0  0
   39.7040   25.8640   41.2250 C   0  0  0  0  0  0  0  0  0  0  0  0
   39.9610   24.9330   40.2240 C   0  0  0  0  0  0  0  0  0  0  0  0
   39.1080   23.8900   39.9710 C   0  0  0  0  0  0  0  0  0  0  0  0
   39.3870   23.0840   39.0600 O   0  0  0  0  0  0  0  0  0  0  0  0
   37.9910   23.7670   40.7130 N   0  0  0  0  0  0  0  0  0  0  0  0
   37.7280   24.6650   41.6910 C   0  0  0  0  0  0  0  0  0  0  0  0
   36.6650   24.4880   42.3470 O   0  0  0  0  0  0  0  0  0  0  0  0
   40.3420   26.7000   41.4630 H   0  0  0  0  0  0  0  0  0  0  0  0
   40.8900   25.1120   39.6730 H   0  0  0  0  0  0  0  0  0  0  0  0
   37.3550   22.9670   40.5060 H   0  0  0  0  0  0  0  0  0  0  0  0
   38.6500   29.0230   42.5580 C   0  0  0  0  0  0  0  0  0  0  0  0
   37.8240   27.9010   42.3800 C   0  0  0  0  0  0  0  0  0  0  0  0
   36.6790   28.0950   41.6500 C   0  0  0  0  0  0  0  0  0  0  0  0
   36.3950   29.3110   41.1490 N   0  0  0  0  0  0  0  0  0  0  0  0
   37.2330   30.3590   41.3550 C   0  0  0  0  0  0  0  0  0  0  0  0
   38.3880   30.2450   42.0680 N   0  0  0  0  0  0  0  0  0  0  0  0
   39.5750   28.9190   43.1320 H   0  0  0  0  0  0  0  0  0  0  0  0
   36.0340   27.2330   41.5070 H   0  0  0  0  0  0  0  0  0  0  0  0
   36.9410   31.6170   40.8400 O   0  0  0  0  0  0  0  0  0  0  0  0
   37.6750   32.2590   39.8470 C   0  0  0  0  0  3  0  0  0  0  0  0
   38.3690   33.5470   40.3160 C   0  0  0  0  0  2  0  0  0  0  0  0
   37.1960   33.6460   39.4120 C   0  0  0  0  0  2  0  0  0  0  0  0
  1  3  1  0  0  0  0
  1  2  1  0  0  0  0
  4  1  1  0  0  0  0
  5 12  1  0  0  0  0
  5  4  1  0  0  0  0
  6  5  2  0  0  0  0
  7  6  1  0  0  0  0
  7  9  1  0  0  0  0
  8  7  2  0  0  0  0
  9 10  1  0  0  0  0
 10  4  1  0  0  0  0
 10 11  2  0  0  0  0
 13  6  1  0  0  0  0
 14  9  1  0  0  0  0
 15 21  1  0  0  0  0
 16 15  1  0  0  0  0
 16  1  1  0  0  0  0
 17 16  2  0  0  0  0
 18 19  2  0  0  0  0
 18 17  1  0  0  0  0
 19 20  1  0  0  0  0
 20 15  2  0  0  0  0
 22 17  1  0  0  0  0
 23 19  1  0  0  0  0
 24 25  1  0  0  0  0
 24 23  1  0  0  0  0
 26 24  1  0  0  0  0
 26 25  1  0  0  0  0
M  END
>  <minimizedAffinity>
-4.44474888

$$$$

 OpenBabel03242515293D

 26 28  0  0  0  0  0  0  0  0999 V2000
   38.3350   29.2330   42.9470 C   0  0  0  0  0  0  0  0  0  0  0  0
   37.8120   29.3090   43.8960 H   0  0  0  0  0  0  0  0  0  0  0  0
   39.4300   29.3390   43.2030 H   0  0  0  0  0  0  0  0  0  0  0  0
   37.9680   30.2170   41.9520 N   0  0  0  0  0  0  0  0  0  0  0  0
   36.7400   30.2440   41.4540 C   0  0  0  0  0  0  0  0  0  0  0  0
   36.4540   31.2160   40.5010 C   0  0  0  0  0  0  0  0  0  0  0  0
   37.3960   32.1190   40.0820 C   0  0  0  0  0  0  0  0  0  0  0  0
   37.0850   32.9680   39.2240 O   0  0  0  0  0  0  0  0  0  0  0  0
   38.6340   32.0600   40.6110 N   0  0  0  0  0  0  0  0  0  0  0  0
   38.9280   31.1210   41.5400 C   0  0  0  0  0  0  0  0  0  0  0  0
   40.1060   31.1260   41.9920 O   0  0  0  0  0  0  0  0  0  0  0  0
   36.0350   29.5130   41.8150 H   0  0  0  0  0  0  0  0  0  0  0  0
   35.4250   31.1870   40.1270 H   0  0  0  0  0  0  0  0  0  0  0  0
   39.3370   32.7560   40.2800 H   0  0  0  0  0  0  0  0  0  0  0  0
   37.2130   27.0570   42.9040 C   0  0  0  0  0  0  0  0  0  0  0  0
   38.1940   27.8990   42.3540 C   0  0  0  0  0  0  0  0  0  0  0  0
   38.9270   27.3860   41.3150 C   0  0  0  0  0  0  0  0  0  0  0  0
   38.6920   26.1370   40.8740 N   0  0  0  0  0  0  0  0  0  0  0  0
   37.7300   25.3700   41.4460 C   0  0  0  0  0  0  0  0  0  0  0  0
   36.9600   25.8080   42.4810 N   0  0  0  0  0  0  0  0  0  0  0  0
   36.6020   27.4200   43.7340 H   0  0  0  0  0  0  0  0  0  0  0  0
   39.6880   28.0300   40.8830 H   0  0  0  0  0  0  0  0  0  0  0  0
   37.4860   24.0780   40.9930 O   0  0  0  0  0  0  0  0  0  0  0  0
   38.4690   23.1730   40.6020 C   0  0  0  0  0  3  0  0  0  0  0  0
   38.4000   22.7750   39.1200 C   0  0  0  0  0  2  0  0  0  0  0  0
   38.0040   21.7860   40.1540 C   0  0  0  0  0  2  0  0  0  0  0  0
  1  3  1  0  0  0  0
  1  2  1  0  0  0  0
  4  1  1  0  0  0  0
  5 12  1  0  0  0  0
  5  4  1  0  0  0  0
  6  5  2  0  0  0  0
  7  6  1  0  0  0  0
  7  9  1  0  0  0  0
  8  7  2  0  0  0  0
  9 10  1  0  0  0  0
 10  4  1  0  0  0  0
 10 11  2  0  0  0  0
 13  6  1  0  0  0  0
 14  9  1  0  0  0  0
 15 21  1  0  0  0  0
 16 15  2  0  0  0  0
 16  1  1  0  0  0  0
 17 16  1  0  0  0  0
 18 17  2  0  0  0  0
 18 19  1  0  0  0  0
 19 20  2  0  0  0  0
 20 15  1  0  0  0  0
 22 17  1  0  0  0  0
 23 19  1  0  0  0  0
 24 23  1  0  0  0  0
 25 26  1  0  0  0  0
 25 24  1  0  0  0  0
 26 24  1  0  0  0  0
M  END
>  <minimizedAffinity>
-4.43603468

$$$$

 OpenBabel03242515293D

 26 28  0  0  0  0  0  0  0  0999 V2000
   36.7430   31.3370   40.7430 C   0  0  0  0  0  0  0  0  0  0  0  0
   36.5460   32.1570   41.4260 H   0  0  0  0  0  0  0  0  0  0  0  0
   35.8200   31.2610   40.0960 H   0  0  0  0  0  0  0  0  0  0  0  0
   37.0100   30.0580   41.3640 N   0  0  0  0  0  0  0  0  0  0  0  0
   38.0830   29.8910   42.1250 C   0  0  0  0  0  0  0  0  0  0  0  0
   38.2800   28.6360   42.6920 C   0  0  0  0  0  0  0  0  0  0  0  0
   37.4070   27.6010   42.4820 C   0  0  0  0  0  0  0  0  0  0  0  0
   37.6330   26.4970   43.0150 O   0  0  0  0  0  0  0  0  0  0  0  0
   36.3280   27.8090   41.7030 N   0  0  0  0  0  0  0  0  0  0  0  0
   36.1210   29.0240   41.1440 C   0  0  0  0  0  0  0  0  0  0  0  0
   35.0900   29.1470   40.4270 O   0  0  0  0  0  0  0  0  0  0  0  0
   38.7400   30.7350   42.2600 H   0  0  0  0  0  0  0  0  0  0  0  0
   39.1820   28.5600   43.3090 H   0  0  0  0  0  0  0  0  0  0  0  0
   35.6740   27.0100   41.5550 H   0  0  0  0  0  0  0  0  0  0  0  0
   37.9390   30.8730   38.6570 C   0  0  0  0  0  0  0  0  0  0  0  0
   37.8460   31.6460   39.8260 C   0  0  0  0  0  0  0  0  0  0  0  0
   38.8000   32.6160   39.9960 C   0  0  0  0  0  0  0  0  0  0  0  0
   39.7620   32.7870   39.0700 N   0  0  0  0  0  0  0  0  0  0  0  0
   39.8010   32.0090   37.9590 C   0  0  0  0  0  0  0  0  0  0  0  0
   38.8890   31.0260   37.7200 N   0  0  0  0  0  0  0  0  0  0  0  0
   37.2010   30.0880   38.4760 H   0  0  0  0  0  0  0  0  0  0  0  0
   38.7350   33.2190   40.8970 H   0  0  0  0  0  0  0  0  0  0  0  0
   40.7940   32.1820   37.0020 O   0  0  0  0  0  0  0  0  0  0  0  0
   42.1540   31.9820   37.2220 C   0  0  0  0  0  3  0  0  0  0  0  0
   42.7450   30.7910   36.4520 C   0  0  0  0  0  2  0  0  0  0  0  0
   42.5650   30.6840   37.9220 C   0  0  0  0  0  2  0  0  0  0  0  0
  1  4  1  0  0  0  0
  1  2  1  0  0  0  0
  3  1  1  0  0  0  0
  4  5  1  0  0  0  0
  5 12  1  0  0  0  0
  5  6  2  0  0  0  0
  6 13  1  0  0  0  0
  7  6  1  0  0  0  0
  7  8  2  0  0  0  0
  9  7  1  0  0  0  0
 10  4  1  0  0  0  0
 10  9  1  0  0  0  0
 11 10  2  0  0  0  0
 14  9  1  0  0  0  0
 15 16  1  0  0  0  0
 16 17  2  0  0  0  0
 16  1  1  0  0  0  0
 17 22  1  0  0  0  0
 18 17  1  0  0  0  0
 19 18  2  0  0  0  0
 20 19  1  0  0  0  0
 20 15  2  0  0  0  0
 21 15  1  0  0  0  0
 23 24  1  0  0  0  0
 23 19  1  0  0  0  0
 24 26  1  0  0  0  0
 25 24  1  0  0  0  0
 25 26  1  0  0  0  0
M  END
>  <minimizedAffinity>
-4.41991758

$$$$

 OpenBabel03242515293D

 26 28  0  0  0  0  0  0  0  0999 V2000
   37.7110   28.9250   43.4520 C   0  0  0  0  0  0  0  0  0  0  0  0
   36.6510   29.1010   43.6090 H   0  0  0  0  0  0  0  0  0  0  0  0
   38.1860   29.0500   44.4700 H   0  0  0  0  0  0  0  0  0  0  0  0
   38.3560   29.8030   42.5010 N   0  0  0  0  0  0  0  0  0  0  0  0
   39.6580   30.0420   42.5820 C   0  0  0  0  0  0  0  0  0  0  0  0
   40.2150   30.8960   41.6360 C   0  0  0  0  0  0  0  0  0  0  0  0
   39.4600   31.4760   40.6510 C   0  0  0  0  0  0  0  0  0  0  0  0
   40.0120   32.2350   39.8290 O   0  0  0  0  0  0  0  0  0  0  0  0
   38.1410   31.2100   40.6000 N   0  0  0  0  0  0  0  0  0  0  0  0
   37.5830   30.3800   41.5130 C   0  0  0  0  0  0  0  0  0  0  0  0
   36.3430   30.1750   41.4050 O   0  0  0  0  0  0  0  0  0  0  0  0
   40.2090   29.5620   43.3750 H   0  0  0  0  0  0  0  0  0  0  0  0
   41.2920   31.0550   41.7560 H   0  0  0  0  0  0  0  0  0  0  0  0
   37.5820   31.6600   39.8430 H   0  0  0  0  0  0  0  0  0  0  0  0
   36.9940   26.8900   42.2940 C   0  0  0  0  0  0  0  0  0  0  0  0
   37.9790   27.5370   43.0590 C   0  0  0  0  0  0  0  0  0  0  0  0
   39.0950   26.8020   43.3660 C   0  0  0  0  0  0  0  0  0  0  0  0
   39.2050   25.5300   42.9400 N   0  0  0  0  0  0  0  0  0  0  0  0
   38.2200   24.9580   42.2030 C   0  0  0  0  0  0  0  0  0  0  0  0
   37.0820   25.6230   41.8580 N   0  0  0  0  0  0  0  0  0  0  0  0
   36.0860   27.4340   42.0220 H   0  0  0  0  0  0  0  0  0  0  0  0
   39.8620   27.2950   43.9580 H   0  0  0  0  0  0  0  0  0  0  0  0
   38.3310   23.6440   41.7640 O   0  0  0  0  0  0  0  0  0  0  0  0
   37.6660   23.1160   40.6610 C   0  0  0  0  0  3  0  0  0  0  0  0
   38.3150   21.8470   40.0870 C   0  0  0  0  0  2  0  0  0  0  0  0
   38.4150   23.1180   39.3260 C   0  0  0  0  0  2  0  0  0  0  0  0
  1  2  1  0  0  0  0
  1  3  1  0  0  0  0
  4  5  1  0  0  0  0
  4  1  1  0  0  0  0
  5 12  1  0  0  0  0
  6 13  1  0  0  0  0
  6  5  2  0  0  0  0
  7  6  1  0  0  0  0
  8  7  2  0  0  0  0
  9  7  1  0  0  0  0
  9 10  1  0  0  0  0
 10  4  1  0  0  0  0
 11 10  2  0  0  0  0
 14  9  1  0  0  0  0
 15 16  1  0  0  0  0
 16 17  2  0  0  0  0
 16  1  1  0  0  0  0
 17 22  1  0  0  0  0
 18 17  1  0  0  0  0
 19 18  2  0  0  0  0
 20 19  1  0  0  0  0
 20 15  2  0  0  0  0
 21 15  1  0  0  0  0
 23 19  1  0  0  0  0
 24 23  1  0  0  0  0
 25 24  1  0  0  0  0
 26 25  1  0  0  0  0
 26 24  1  0  0  0  0
M  END
>  <minimizedAffinity>
-4.38202524

$$$$

 OpenBabel03242515293D

 26 28  0  0  0  0  0  0  0  0999 V2000
   36.2350   30.2440   39.3140 C   0  0  0  0  0  0  0  0  0  0  0  0
   35.8900   30.0400   38.3040 H   0  0  0  0  0  0  0  0  0  0  0  0
   35.3070   30.5300   39.8910 H   0  0  0  0  0  0  0  0  0  0  0  0
   37.2280   31.2890   39.4350 N   0  0  0  0  0  0  0  0  0  0  0  0
   37.4520   31.8700   40.6060 C   0  0  0  0  0  0  0  0  0  0  0  0
   38.4200   32.8680   40.6530 C   0  0  0  0  0  0  0  0  0  0  0  0
   39.1240   33.2470   39.5400 C   0  0  0  0  0  0  0  0  0  0  0  0
   39.9800   34.1480   39.6410 O   0  0  0  0  0  0  0  0  0  0  0  0
   38.8680   32.6340   38.3680 N   0  0  0  0  0  0  0  0  0  0  0  0
   37.9290   31.6610   38.3060 C   0  0  0  0  0  0  0  0  0  0  0  0
   37.7430   31.1300   37.1760 O   0  0  0  0  0  0  0  0  0  0  0  0
   36.8730   31.5370   41.4520 H   0  0  0  0  0  0  0  0  0  0  0  0
   38.5600   33.3090   41.6460 H   0  0  0  0  0  0  0  0  0  0  0  0
   39.4130   32.9360   37.5320 H   0  0  0  0  0  0  0  0  0  0  0  0
   36.1740   28.6800   41.1970 C   0  0  0  0  0  0  0  0  0  0  0  0
   36.7500   29.0350   39.9660 C   0  0  0  0  0  0  0  0  0  0  0  0
   37.7420   28.2140   39.4960 C   0  0  0  0  0  0  0  0  0  0  0  0
   38.1190   27.1350   40.2060 N   0  0  0  0  0  0  0  0  0  0  0  0
   37.5260   26.8430   41.3900 C   0  0  0  0  0  0  0  0  0  0  0  0
   36.5330   27.6090   41.9230 N   0  0  0  0  0  0  0  0  0  0  0  0
   35.3780   29.3030   41.6140 H   0  0  0  0  0  0  0  0  0  0  0  0
   38.1930   28.4810   38.5440 H   0  0  0  0  0  0  0  0  0  0  0  0
   37.9150   25.7290   42.1270 O   0  0  0  0  0  0  0  0  0  0  0  0
   39.0540   24.9700   41.8780 C   0  0  0  0  0  3  0  0  0  0  0  0
   39.6680   24.3300   43.1330 C   0  0  0  0  0  2  0  0  0  0  0  0
   40.3700   25.4650   42.4820 C   0  0  0  0  0  2  0  0  0  0  0  0
  1  4  1  0  0  0  0
  1  3  1  0  0  0  0
  1 16  1  0  0  0  0
  2  1  1  0  0  0  0
  4  5  1  0  0  0  0
  5  6  2  0  0  0  0
  5 12  1  0  0  0  0
  6 13  1  0  0  0  0
  7  8  2  0  0  0  0
  7  6  1  0  0  0  0
  9  7  1  0  0  0  0
 10  9  1  0  0  0  0
 10  4  1  0  0  0  0
 11 10  2  0  0  0  0
 14  9  1  0  0  0  0
 15 21  1  0  0  0  0
 15 20  1  0  0  0  0
 16 15  2  0  0  0  0
 17 16  1  0  0  0  0
 17 18  2  0  0  0  0
 18 19  1  0  0  0  0
 19 20  2  0  0  0  0
 19 23  1  0  0  0  0
 22 17  1  0  0  0  0
 24 23  1  0  0  0  0
 24 26  1  0  0  0  0
 24 25  1  0  0  0  0
 26 25  1  0  0  0  0
M  END
>  <minimizedAffinity>
-4.37480164

$$$$
