
 OpenBabel03252501223D

 27 28  0  0  0  0  0  0  0  0999 V2000
   36.3790   30.9180   41.0300 C   0  0  0  0  0  0  0  0  0  0  0  0
   37.2820   31.5200   41.0310 H   0  0  0  0  0  0  0  0  0  0  0  0
   35.5340   31.6110   41.2710 H   0  0  0  0  0  0  0  0  0  0  0  0
   35.1710   29.1360   39.8720 C   0  0  0  0  0  0  0  0  0  0  0  0
   36.0420   30.2140   39.8070 C   0  0  0  0  0  0  0  0  0  0  0  0
   36.5310   30.5500   38.5660 C   0  0  0  0  0  0  0  0  0  0  0  0
   36.1450   29.8220   37.4620 N   0  0  0  0  0  0  0  0  0  0  0  0
   35.3100   28.7830   37.5650 C   0  0  0  0  0  0  0  0  0  0  0  0
   34.8010   28.4350   38.7940 N   0  0  0  0  0  0  0  0  0  0  0  0
   34.7560   28.8440   40.8270 H   0  0  0  0  0  0  0  0  0  0  0  0
   34.9500   28.3130   36.6720 H   0  0  0  0  0  0  0  0  0  0  0  0
   37.4380   31.7050   38.5290 C   0  0  0  0  0  0  0  0  0  0  0  0
   37.7760   31.9730   37.2090 F   0  0  0  0  0  0  0  0  0  0  0  0
   38.5860   31.3080   39.1620 F   0  0  0  0  0  0  0  0  0  0  0  0
   36.8480   32.8210   39.0010 F   0  0  0  0  0  0  0  0  0  0  0  0
   36.4590   29.9900   42.1550 N   0  0  0  0  0  0  0  0  0  0  0  0
   35.9310   29.1070   41.9720 H   0  0  0  0  0  0  0  0  0  0  0  0
   37.8590   29.6980   42.3450 C   0  0  0  0  0  0  0  0  0  0  0  0
   38.4690   30.5750   42.6020 H   0  0  0  0  0  0  0  0  0  0  0  0
   38.2380   29.3260   41.3600 H   0  0  0  0  0  0  0  0  0  0  0  0
   38.0930   28.6090   43.3590 C   0  0  0  0  0  0  0  0  0  0  0  0
   39.1070   28.2120   43.2000 H   0  0  0  0  0  0  0  0  0  0  0  0
   37.9930   29.0740   44.3660 H   0  0  0  0  0  0  0  0  0  0  0  0
   36.8460   27.3100   43.0890 S   0  0  0  0  0  0  0  0  0  0  0  0
   37.6250   26.0290   42.0860 C   0  0  0  0  0  3  0  0  0  0  0  0
   36.9950   25.5090   40.8610 C   0  0  0  0  0  2  0  0  0  0  0  0
   36.9330   24.6680   42.0660 C   0  0  0  0  0  2  0  0  0  0  0  0
  1  2  1  0  0  0  0
  1  3  1  0  0  0  0
  1 16  1  0  0  0  0
  4 10  1  0  0  0  0
  5  4  1  0  0  0  0
  5  1  1  0  0  0  0
  6  5  2  0  0  0  0
  7  8  2  0  0  0  0
  7  6  1  0  0  0  0
  8  9  1  0  0  0  0
  9  4  2  0  0  0  0
 11  8  1  0  0  0  0
 12  6  1  0  0  0  0
 12 15  1  0  0  0  0
 12 14  1  0  0  0  0
 13 12  1  0  0  0  0
 16 18  1  0  0  0  0
 17 16  1  0  0  0  0
 18 19  1  0  0  0  0
 18 21  1  0  0  0  0
 20 18  1  0  0  0  0
 21 23  1  0  0  0  0
 22 21  1  0  0  0  0
 24 21  1  0  0  0  0
 25 24  1  0  0  0  0
 26 27  1  0  0  0  0
 26 25  1  0  0  0  0
 27 25  1  0  0  0  0
M  END
>  <minimizedAffinity>
-4.44535351

$$$$

 OpenBabel03252501223D

 27 28  0  0  0  0  0  0  0  0999 V2000
   36.7770   27.9220   42.9770 C   0  0  0  0  0  0  0  0  0  0  0  0
   35.9590   27.7530   43.6690 H   0  0  0  0  0  0  0  0  0  0  0  0
   37.6190   27.2650   43.3110 H   0  0  0  0  0  0  0  0  0  0  0  0
   35.9060   28.6240   40.8030 C   0  0  0  0  0  0  0  0  0  0  0  0
   36.5350   27.6550   41.5710 C   0  0  0  0  0  0  0  0  0  0  0  0
   36.8970   26.4900   40.9370 C   0  0  0  0  0  0  0  0  0  0  0  0
   36.6290   26.3340   39.5950 N   0  0  0  0  0  0  0  0  0  0  0  0
   36.0130   27.2870   38.8880 C   0  0  0  0  0  0  0  0  0  0  0  0
   35.6500   28.4640   39.4990 N   0  0  0  0  0  0  0  0  0  0  0  0
   35.6140   29.5590   41.2600 H   0  0  0  0  0  0  0  0  0  0  0  0
   35.9210   27.1710   37.8260 H   0  0  0  0  0  0  0  0  0  0  0  0
   37.5750   25.4910   41.7740 C   0  0  0  0  0  0  0  0  0  0  0  0
   38.0190   24.4510   40.9690 F   0  0  0  0  0  0  0  0  0  0  0  0
   36.6140   24.9740   42.6020 F   0  0  0  0  0  0  0  0  0  0  0  0
   38.6710   25.9990   42.3720 F   0  0  0  0  0  0  0  0  0  0  0  0
   37.2480   29.2920   43.1690 N   0  0  0  0  0  0  0  0  0  0  0  0
   36.9890   29.6660   44.1100 H   0  0  0  0  0  0  0  0  0  0  0  0
   38.6840   29.2530   43.0320 C   0  0  0  0  0  0  0  0  0  0  0  0
   39.0500   28.4430   42.3860 H   0  0  0  0  0  0  0  0  0  0  0  0
   39.0910   29.0510   44.0550 H   0  0  0  0  0  0  0  0  0  0  0  0
   39.2600   30.5640   42.5670 C   0  0  0  0  0  0  0  0  0  0  0  0
   38.7490   31.3700   43.1140 H   0  0  0  0  0  0  0  0  0  0  0  0
   40.3480   30.5430   42.7980 H   0  0  0  0  0  0  0  0  0  0  0  0
   38.9520   30.7110   40.7780 S   0  0  0  0  0  0  0  0  0  0  0  0
   37.5670   31.8480   40.5700 C   0  0  0  0  0  3  0  0  0  0  0  0
   37.0980   32.2670   39.2400 C   0  0  0  0  0  2  0  0  0  0  0  0
   37.9000   33.2290   40.0110 C   0  0  0  0  0  2  0  0  0  0  0  0
  1 16  1  0  0  0  0
  1  3  1  0  0  0  0
  1  2  1  0  0  0  0
  4 10  1  0  0  0  0
  4  5  1  0  0  0  0
  5  1  1  0  0  0  0
  6  5  2  0  0  0  0
  6 12  1  0  0  0  0
  7  6  1  0  0  0  0
  8  9  1  0  0  0  0
  8  7  2  0  0  0  0
  9  4  2  0  0  0  0
 11  8  1  0  0  0  0
 12 15  1  0  0  0  0
 12 14  1  0  0  0  0
 13 12  1  0  0  0  0
 16 17  1  0  0  0  0
 18 16  1  0  0  0  0
 18 20  1  0  0  0  0
 19 18  1  0  0  0  0
 21 23  1  0  0  0  0
 21 18  1  0  0  0  0
 21 22  1  0  0  0  0
 24 21  1  0  0  0  0
 25 24  1  0  0  0  0
 26 27  1  0  0  0  0
 26 25  1  0  0  0  0
 27 25  1  0  0  0  0
M  END
>  <minimizedAffinity>
-4.2866931

$$$$

 OpenBabel03252501223D

 27 28  0  0  0  0  0  0  0  0999 V2000
   38.6220   30.4270   40.0020 C   0  0  0  0  0  0  0  0  0  0  0  0
   37.5460   30.4370   39.8650 H   0  0  0  0  0  0  0  0  0  0  0  0
   39.0520   29.8920   39.1180 H   0  0  0  0  0  0  0  0  0  0  0  0
   40.6200   31.7300   40.5390 C   0  0  0  0  0  0  0  0  0  0  0  0
   39.2970   31.7060   40.1210 C   0  0  0  0  0  0  0  0  0  0  0  0
   38.7070   32.9160   39.8370 C   0  0  0  0  0  0  0  0  0  0  0  0
   39.4360   34.0770   39.9740 N   0  0  0  0  0  0  0  0  0  0  0  0
   40.7070   34.0610   40.3880 C   0  0  0  0  0  0  0  0  0  0  0  0
   41.3200   32.8630   40.6680 N   0  0  0  0  0  0  0  0  0  0  0  0
   41.1240   30.8000   40.7620 H   0  0  0  0  0  0  0  0  0  0  0  0
   41.2700   34.9740   40.3770 H   0  0  0  0  0  0  0  0  0  0  0  0
   37.3120   32.8550   39.3820 C   0  0  0  0  0  0  0  0  0  0  0  0
   36.8310   34.1480   39.2200 F   0  0  0  0  0  0  0  0  0  0  0  0
   36.6020   32.2900   40.4090 F   0  0  0  0  0  0  0  0  0  0  0  0
   37.2030   32.2590   38.1780 F   0  0  0  0  0  0  0  0  0  0  0  0
   38.9170   29.5790   41.1540 N   0  0  0  0  0  0  0  0  0  0  0  0
   39.7710   29.8970   41.6660 H   0  0  0  0  0  0  0  0  0  0  0  0
   37.7660   29.6520   42.0220 C   0  0  0  0  0  0  0  0  0  0  0  0
   36.8240   29.3540   41.5420 H   0  0  0  0  0  0  0  0  0  0  0  0
   37.6520   30.7300   42.3000 H   0  0  0  0  0  0  0  0  0  0  0  0
   37.9480   28.8720   43.2970 C   0  0  0  0  0  0  0  0  0  0  0  0
   38.9770   28.4830   43.3110 H   0  0  0  0  0  0  0  0  0  0  0  0
   37.7700   29.5770   44.1390 H   0  0  0  0  0  0  0  0  0  0  0  0
   36.7460   27.5040   43.2960 S   0  0  0  0  0  0  0  0  0  0  0  0
   37.2570   26.3510   42.0060 C   0  0  0  0  0  3  0  0  0  0  0  0
   36.9740   24.9090   42.0960 C   0  0  0  0  0  2  0  0  0  0  0  0
   38.3470   25.3510   42.3820 C   0  0  0  0  0  2  0  0  0  0  0  0
  1  5  1  0  0  0  0
  1 16  1  0  0  0  0
  2  1  1  0  0  0  0
  3  1  1  0  0  0  0
  4  9  1  0  0  0  0
  4 10  1  0  0  0  0
  5  4  2  0  0  0  0
  6  7  2  0  0  0  0
  6  5  1  0  0  0  0
  7  8  1  0  0  0  0
  8  9  2  0  0  0  0
 11  8  1  0  0  0  0
 12  6  1  0  0  0  0
 12 14  1  0  0  0  0
 13 12  1  0  0  0  0
 15 12  1  0  0  0  0
 16 17  1  0  0  0  0
 16 18  1  0  0  0  0
 18 20  1  0  0  0  0
 18 21  1  0  0  0  0
 19 18  1  0  0  0  0
 21 22  1  0  0  0  0
 21 23  1  0  0  0  0
 24 21  1  0  0  0  0
 25 26  1  0  0  0  0
 25 27  1  0  0  0  0
 25 24  1  0  0  0  0
 26 27  1  0  0  0  0
M  END
>  <minimizedAffinity>
-4.25572872

$$$$

 OpenBabel03252501223D

 27 28  0  0  0  0  0  0  0  0999 V2000
   38.4040   28.6690   43.2100 C   0  0  0  0  0  0  0  0  0  0  0  0
   37.4150   28.7150   42.7670 H   0  0  0  0  0  0  0  0  0  0  0  0
   38.2890   28.9760   44.2800 H   0  0  0  0  0  0  0  0  0  0  0  0
   40.4370   27.3480   43.5290 C   0  0  0  0  0  0  0  0  0  0  0  0
   39.0930   27.3920   43.1850 C   0  0  0  0  0  0  0  0  0  0  0  0
   38.4940   26.2020   42.8430 C   0  0  0  0  0  0  0  0  0  0  0  0
   39.2340   25.0400   42.8570 N   0  0  0  0  0  0  0  0  0  0  0  0
   40.5290   25.0380   43.1860 C   0  0  0  0  0  0  0  0  0  0  0  0
   41.1470   26.2140   43.5400 N   0  0  0  0  0  0  0  0  0  0  0  0
   40.9430   28.2600   43.8140 H   0  0  0  0  0  0  0  0  0  0  0  0
   41.0400   24.1000   43.2890 H   0  0  0  0  0  0  0  0  0  0  0  0
   37.0680   26.2800   42.5000 C   0  0  0  0  0  0  0  0  0  0  0  0
   36.5450   24.9950   42.4440 F   0  0  0  0  0  0  0  0  0  0  0  0
   37.0110   26.7910   41.2300 F   0  0  0  0  0  0  0  0  0  0  0  0
   36.3610   26.9350   43.4420 F   0  0  0  0  0  0  0  0  0  0  0  0
   39.2210   29.7090   42.5890 N   0  0  0  0  0  0  0  0  0  0  0  0
   40.0860   29.3180   42.1520 H   0  0  0  0  0  0  0  0  0  0  0  0
   38.3960   30.3290   41.5800 C   0  0  0  0  0  0  0  0  0  0  0  0
   38.6970   30.0960   40.5500 H   0  0  0  0  0  0  0  0  0  0  0  0
   38.5250   31.4340   41.7060 H   0  0  0  0  0  0  0  0  0  0  0  0
   36.9320   30.0210   41.7570 C   0  0  0  0  0  0  0  0  0  0  0  0
   36.8440   28.9770   42.0900 H   0  0  0  0  0  0  0  0  0  0  0  0
   36.5400   30.7260   42.5230 H   0  0  0  0  0  0  0  0  0  0  0  0
   36.1110   30.2500   40.1470 S   0  0  0  0  0  0  0  0  0  0  0  0
   37.4120   30.3920   38.9040 C   0  0  0  0  0  3  0  0  0  0  0  0
   37.5280   31.5710   38.0320 C   0  0  0  0  0  2  0  0  0  0  0  0
   36.9640   30.3460   37.4460 C   0  0  0  0  0  2  0  0  0  0  0  0
  1  3  1  0  0  0  0
  2  1  1  0  0  0  0
  4  9  1  0  0  0  0
  4 10  1  0  0  0  0
  5  1  1  0  0  0  0
  5  4  2  0  0  0  0
  6  7  2  0  0  0  0
  6  5  1  0  0  0  0
  7  8  1  0  0  0  0
  8 11  1  0  0  0  0
  8  9  2  0  0  0  0
 12  6  1  0  0  0  0
 12 15  1  0  0  0  0
 13 12  1  0  0  0  0
 14 12  1  0  0  0  0
 16  1  1  0  0  0  0
 17 16  1  0  0  0  0
 18 20  1  0  0  0  0
 18 21  1  0  0  0  0
 18 16  1  0  0  0  0
 19 18  1  0  0  0  0
 21 22  1  0  0  0  0
 21 23  1  0  0  0  0
 24 21  1  0  0  0  0
 25 24  1  0  0  0  0
 26 25  1  0  0  0  0
 27 26  1  0  0  0  0
 27 25  1  0  0  0  0
M  END
>  <minimizedAffinity>
-4.25440931

$$$$

 OpenBabel03252501223D

 27 28  0  0  0  0  0  0  0  0999 V2000
   36.6480   27.3350   42.9300 C   0  0  0  0  0  0  0  0  0  0  0  0
   35.9300   26.7860   42.3300 H   0  0  0  0  0  0  0  0  0  0  0  0
   36.2520   27.3370   43.9770 H   0  0  0  0  0  0  0  0  0  0  0  0
   38.9860   27.6060   43.5900 C   0  0  0  0  0  0  0  0  0  0  0  0
   38.0110   26.8390   42.9700 C   0  0  0  0  0  0  0  0  0  0  0  0
   38.4070   25.6380   42.4300 C   0  0  0  0  0  0  0  0  0  0  0  0
   39.7260   25.2520   42.5250 N   0  0  0  0  0  0  0  0  0  0  0  0
   40.6400   26.0220   43.1230 C   0  0  0  0  0  0  0  0  0  0  0  0
   40.2650   27.2220   43.6780 N   0  0  0  0  0  0  0  0  0  0  0  0
   38.7140   28.5530   44.0360 H   0  0  0  0  0  0  0  0  0  0  0  0
   41.6300   25.6370   43.2720 H   0  0  0  0  0  0  0  0  0  0  0  0
   37.3480   24.8420   41.7940 C   0  0  0  0  0  0  0  0  0  0  0  0
   37.8500   23.5840   41.4870 F   0  0  0  0  0  0  0  0  0  0  0  0
   37.0680   25.4630   40.6060 F   0  0  0  0  0  0  0  0  0  0  0  0
   36.3070   24.6390   42.6260 F   0  0  0  0  0  0  0  0  0  0  0  0
   36.6180   28.7300   42.4970 N   0  0  0  0  0  0  0  0  0  0  0  0
   37.5410   29.2020   42.6340 H   0  0  0  0  0  0  0  0  0  0  0  0
   36.2750   28.7150   41.0950 C   0  0  0  0  0  0  0  0  0  0  0  0
   35.3150   29.1970   40.8640 H   0  0  0  0  0  0  0  0  0  0  0  0
   36.1660   27.6380   40.8100 H   0  0  0  0  0  0  0  0  0  0  0  0
   37.3540   29.3050   40.2260 C   0  0  0  0  0  0  0  0  0  0  0  0
   38.1320   28.5400   40.0880 H   0  0  0  0  0  0  0  0  0  0  0  0
   36.8800   29.5810   39.2580 H   0  0  0  0  0  0  0  0  0  0  0  0
   38.0340   30.7610   41.0840 S   0  0  0  0  0  0  0  0  0  0  0  0
   38.3640   32.0110   39.8260 C   0  0  0  0  0  3  0  0  0  0  0  0
   38.3590   33.4490   40.1390 C   0  0  0  0  0  2  0  0  0  0  0  0
   37.1910   32.9040   39.4330 C   0  0  0  0  0  2  0  0  0  0  0  0
  1  5  1  0  0  0  0
  1  3  1  0  0  0  0
  2  1  1  0  0  0  0
  4  9  1  0  0  0  0
  4 10  1  0  0  0  0
  5  4  2  0  0  0  0
  6  7  2  0  0  0  0
  6  5  1  0  0  0  0
  7  8  1  0  0  0  0
  8 11  1  0  0  0  0
  8  9  2  0  0  0  0
 12  6  1  0  0  0  0
 12 15  1  0  0  0  0
 13 12  1  0  0  0  0
 14 12  1  0  0  0  0
 16 17  1  0  0  0  0
 16  1  1  0  0  0  0
 18 16  1  0  0  0  0
 19 18  1  0  0  0  0
 20 18  1  0  0  0  0
 21 24  1  0  0  0  0
 21 18  1  0  0  0  0
 22 21  1  0  0  0  0
 23 21  1  0  0  0  0
 25 26  1  0  0  0  0
 25 24  1  0  0  0  0
 27 25  1  0  0  0  0
 27 26  1  0  0  0  0
M  END
>  <minimizedAffinity>
-4.24558258

$$$$

 OpenBabel03252501223D

 27 28  0  0  0  0  0  0  0  0999 V2000
   37.9170   29.2590   41.6210 C   0  0  0  0  0  0  0  0  0  0  0  0
   37.5300   28.3960   41.0890 H   0  0  0  0  0  0  0  0  0  0  0  0
   38.9980   29.0500   41.8250 H   0  0  0  0  0  0  0  0  0  0  0  0
   38.6810   31.5680   41.3690 C   0  0  0  0  0  0  0  0  0  0  0  0
   37.8300   30.5500   40.9640 C   0  0  0  0  0  0  0  0  0  0  0  0
   36.9490   30.8360   39.9460 C   0  0  0  0  0  0  0  0  0  0  0  0
   36.9480   32.0920   39.3810 N   0  0  0  0  0  0  0  0  0  0  0  0
   37.7780   33.0510   39.8040 C   0  0  0  0  0  0  0  0  0  0  0  0
   38.6730   32.7850   40.8130 N   0  0  0  0  0  0  0  0  0  0  0  0
   39.3950   31.3820   42.1590 H   0  0  0  0  0  0  0  0  0  0  0  0
   37.8200   33.9780   39.2670 H   0  0  0  0  0  0  0  0  0  0  0  0
   36.0730   29.7320   39.5300 C   0  0  0  0  0  0  0  0  0  0  0  0
   35.5080   30.0420   38.3010 F   0  0  0  0  0  0  0  0  0  0  0  0
   35.0510   29.6940   40.4420 F   0  0  0  0  0  0  0  0  0  0  0  0
   36.7610   28.5870   39.3510 F   0  0  0  0  0  0  0  0  0  0  0  0
   37.2720   29.3020   42.9310 N   0  0  0  0  0  0  0  0  0  0  0  0
   36.2310   29.2300   42.8570 H   0  0  0  0  0  0  0  0  0  0  0  0
   37.7910   28.1820   43.6800 C   0  0  0  0  0  0  0  0  0  0  0  0
   37.1580   27.2850   43.6400 H   0  0  0  0  0  0  0  0  0  0  0  0
   37.8160   28.5060   44.7500 H   0  0  0  0  0  0  0  0  0  0  0  0
   39.1980   27.8210   43.2830 C   0  0  0  0  0  0  0  0  0  0  0  0
   39.3920   28.2570   42.2920 H   0  0  0  0  0  0  0  0  0  0  0  0
   39.8750   28.2500   44.0550 H   0  0  0  0  0  0  0  0  0  0  0  0
   39.3150   26.0050   43.2170 S   0  0  0  0  0  0  0  0  0  0  0  0
   38.2580   25.4540   41.8620 C   0  0  0  0  0  3  0  0  0  0  0  0
   36.9480   24.8280   42.1020 C   0  0  0  0  0  2  0  0  0  0  0  0
   38.0620   23.9470   41.7230 C   0  0  0  0  0  2  0  0  0  0  0  0
  1  3  1  0  0  0  0
  1 16  1  0  0  0  0
  2  1  1  0  0  0  0
  4 10  1  0  0  0  0
  5  4  1  0  0  0  0
  5  1  1  0  0  0  0
  6  5  2  0  0  0  0
  7  8  2  0  0  0  0
  7  6  1  0  0  0  0
  8  9  1  0  0  0  0
  9  4  2  0  0  0  0
 11  8  1  0  0  0  0
 12  6  1  0  0  0  0
 12 14  1  0  0  0  0
 13 12  1  0  0  0  0
 15 12  1  0  0  0  0
 16 18  1  0  0  0  0
 17 16  1  0  0  0  0
 18 20  1  0  0  0  0
 19 18  1  0  0  0  0
 21 18  1  0  0  0  0
 21 23  1  0  0  0  0
 22 21  1  0  0  0  0
 24 21  1  0  0  0  0
 25 26  1  0  0  0  0
 25 24  1  0  0  0  0
 27 25  1  0  0  0  0
 27 26  1  0  0  0  0
M  END
>  <minimizedAffinity>
-4.18611813

$$$$

 OpenBabel03252501223D

 27 28  0  0  0  0  0  0  0  0999 V2000
   37.5670   29.7930   40.8290 C   0  0  0  0  0  0  0  0  0  0  0  0
   37.2780   29.2330   39.9460 H   0  0  0  0  0  0  0  0  0  0  0  0
   38.4580   29.2710   41.2600 H   0  0  0  0  0  0  0  0  0  0  0  0
   37.0680   32.0040   39.9120 C   0  0  0  0  0  0  0  0  0  0  0  0
   37.9130   31.1920   40.6550 C   0  0  0  0  0  0  0  0  0  0  0  0
   39.0360   31.7780   41.1900 C   0  0  0  0  0  0  0  0  0  0  0  0
   39.2720   33.1180   40.9730 N   0  0  0  0  0  0  0  0  0  0  0  0
   38.4400   33.8680   40.2440 C   0  0  0  0  0  0  0  0  0  0  0  0
   37.3060   33.3050   39.7080 N   0  0  0  0  0  0  0  0  0  0  0  0
   36.1690   31.5850   39.4830 H   0  0  0  0  0  0  0  0  0  0  0  0
   38.6020   34.9260   40.1910 H   0  0  0  0  0  0  0  0  0  0  0  0
   39.9010   30.8960   41.9840 C   0  0  0  0  0  0  0  0  0  0  0  0
   39.2640   30.5950   43.1810 F   0  0  0  0  0  0  0  0  0  0  0  0
   41.0120   31.6330   42.2960 F   0  0  0  0  0  0  0  0  0  0  0  0
   40.1170   29.7180   41.3650 F   0  0  0  0  0  0  0  0  0  0  0  0
   36.5060   29.6430   41.8210 N   0  0  0  0  0  0  0  0  0  0  0  0
   35.5680   29.8920   41.4310 H   0  0  0  0  0  0  0  0  0  0  0  0
   36.5190   28.2580   42.2270 C   0  0  0  0  0  0  0  0  0  0  0  0
   36.8160   27.5610   41.4310 H   0  0  0  0  0  0  0  0  0  0  0  0
   35.4640   28.0010   42.4960 H   0  0  0  0  0  0  0  0  0  0  0  0
   37.3690   28.0180   43.4470 C   0  0  0  0  0  0  0  0  0  0  0  0
   37.8450   28.9710   43.7200 H   0  0  0  0  0  0  0  0  0  0  0  0
   36.6900   27.6590   44.2520 H   0  0  0  0  0  0  0  0  0  0  0  0
   38.6280   26.7730   43.0200 S   0  0  0  0  0  0  0  0  0  0  0  0
   37.9090   25.7040   41.7570 C   0  0  0  0  0  3  0  0  0  0  0  0
   36.9750   24.6180   42.0970 C   0  0  0  0  0  2  0  0  0  0  0  0
   38.3580   24.2460   41.7660 C   0  0  0  0  0  2  0  0  0  0  0  0
  1  3  1  0  0  0  0
  1 16  1  0  0  0  0
  2  1  1  0  0  0  0
  4  5  1  0  0  0  0
  5  1  1  0  0  0  0
  5  6  2  0  0  0  0
  6 12  1  0  0  0  0
  7  6  1  0  0  0  0
  8  7  2  0  0  0  0
  9  4  2  0  0  0  0
  9  8  1  0  0  0  0
 10  4  1  0  0  0  0
 11  8  1  0  0  0  0
 12 14  1  0  0  0  0
 12 13  1  0  0  0  0
 15 12  1  0  0  0  0
 16 18  1  0  0  0  0
 17 16  1  0  0  0  0
 18 20  1  0  0  0  0
 18 21  1  0  0  0  0
 19 18  1  0  0  0  0
 21 22  1  0  0  0  0
 21 23  1  0  0  0  0
 24 21  1  0  0  0  0
 25 27  1  0  0  0  0
 25 26  1  0  0  0  0
 25 24  1  0  0  0  0
 27 26  1  0  0  0  0
M  END
>  <minimizedAffinity>
-4.16396618

$$$$

 OpenBabel03252501223D

 27 28  0  0  0  0  0  0  0  0999 V2000
   38.7590   27.9320   40.7110 C   0  0  0  0  0  0  0  0  0  0  0  0
   38.4920   28.7530   41.3690 H   0  0  0  0  0  0  0  0  0  0  0  0
   39.8770   27.9110   40.6660 H   0  0  0  0  0  0  0  0  0  0  0  0
   38.8690   25.5040   40.4450 C   0  0  0  0  0  0  0  0  0  0  0  0
   38.3030   26.6040   41.0740 C   0  0  0  0  0  0  0  0  0  0  0  0
   37.3350   26.3560   42.0200 C   0  0  0  0  0  0  0  0  0  0  0  0
   36.9750   25.0560   42.2990 N   0  0  0  0  0  0  0  0  0  0  0  0
   37.5360   24.0210   41.6660 C   0  0  0  0  0  0  0  0  0  0  0  0
   38.5130   24.2450   40.7240 N   0  0  0  0  0  0  0  0  0  0  0  0
   39.6400   25.6550   39.7030 H   0  0  0  0  0  0  0  0  0  0  0  0
   37.3070   23.0250   41.9880 H   0  0  0  0  0  0  0  0  0  0  0  0
   36.7660   27.5390   42.6790 C   0  0  0  0  0  0  0  0  0  0  0  0
   35.8960   27.1270   43.6790 F   0  0  0  0  0  0  0  0  0  0  0  0
   36.0120   28.1770   41.7300 F   0  0  0  0  0  0  0  0  0  0  0  0
   37.7160   28.2780   43.2860 F   0  0  0  0  0  0  0  0  0  0  0  0
   38.3190   28.2790   39.3620 N   0  0  0  0  0  0  0  0  0  0  0  0
   37.3000   28.0880   39.2220 H   0  0  0  0  0  0  0  0  0  0  0  0
   38.5840   29.6880   39.1950 C   0  0  0  0  0  0  0  0  0  0  0  0
   37.7070   30.3300   39.3520 H   0  0  0  0  0  0  0  0  0  0  0  0
   38.8890   29.8240   38.1270 H   0  0  0  0  0  0  0  0  0  0  0  0
   39.7220   30.1710   40.0550 C   0  0  0  0  0  0  0  0  0  0  0  0
   39.4840   29.9220   41.1000 H   0  0  0  0  0  0  0  0  0  0  0  0
   40.6390   29.6430   39.7110 H   0  0  0  0  0  0  0  0  0  0  0  0
   39.8610   31.9740   39.8430 S   0  0  0  0  0  0  0  0  0  0  0  0
   38.2880   32.6920   40.3590 C   0  0  0  0  0  3  0  0  0  0  0  0
   37.2580   33.0890   39.3850 C   0  0  0  0  0  2  0  0  0  0  0  0
   38.0600   34.1570   39.9990 C   0  0  0  0  0  2  0  0  0  0  0  0
  1  5  1  0  0  0  0
  1  2  1  0  0  0  0
  3  1  1  0  0  0  0
  4  9  2  0  0  0  0
  4  5  1  0  0  0  0
  5  6  2  0  0  0  0
  6  7  1  0  0  0  0
  6 12  1  0  0  0  0
  8 11  1  0  0  0  0
  8  7  2  0  0  0  0
  9  8  1  0  0  0  0
 10  4  1  0  0  0  0
 12 15  1  0  0  0  0
 12 13  1  0  0  0  0
 14 12  1  0  0  0  0
 16  1  1  0  0  0  0
 17 16  1  0  0  0  0
 18 19  1  0  0  0  0
 18 16  1  0  0  0  0
 18 21  1  0  0  0  0
 20 18  1  0  0  0  0
 21 22  1  0  0  0  0
 23 21  1  0  0  0  0
 24 21  1  0  0  0  0
 24 25  1  0  0  0  0
 26 27  1  0  0  0  0
 26 25  1  0  0  0  0
 27 25  1  0  0  0  0
M  END
>  <minimizedAffinity>
-4.00341511

$$$$

 OpenBabel03252501223D

 27 28  0  0  0  0  0  0  0  0999 V2000
   37.7020   29.7730   40.9280 C   0  0  0  0  0  0  0  0  0  0  0  0
   37.5430   29.1310   40.0670 H   0  0  0  0  0  0  0  0  0  0  0  0
   38.5720   29.3450   41.4880 H   0  0  0  0  0  0  0  0  0  0  0  0
   37.0850   31.9090   39.9110 C   0  0  0  0  0  0  0  0  0  0  0  0
   37.9780   31.1750   40.6790 C   0  0  0  0  0  0  0  0  0  0  0  0
   39.0800   31.8400   41.1650 C   0  0  0  0  0  0  0  0  0  0  0  0
   39.2500   33.1760   40.8790 N   0  0  0  0  0  0  0  0  0  0  0  0
   38.3720   33.8490   40.1270 C   0  0  0  0  0  0  0  0  0  0  0  0
   37.2590   33.2080   39.6380 N   0  0  0  0  0  0  0  0  0  0  0  0
   36.2010   31.4280   39.5180 H   0  0  0  0  0  0  0  0  0  0  0  0
   38.4840   34.9100   40.0180 H   0  0  0  0  0  0  0  0  0  0  0  0
   39.9970   31.0390   41.9870 C   0  0  0  0  0  0  0  0  0  0  0  0
   41.0590   31.8380   42.3900 F   0  0  0  0  0  0  0  0  0  0  0  0
   40.5120   30.0780   41.1570 F   0  0  0  0  0  0  0  0  0  0  0  0
   39.4050   30.6020   43.1170 F   0  0  0  0  0  0  0  0  0  0  0  0
   36.5520   29.6220   41.8160 N   0  0  0  0  0  0  0  0  0  0  0  0
   35.6620   29.9280   41.3590 H   0  0  0  0  0  0  0  0  0  0  0  0
   36.4770   28.2220   42.1550 C   0  0  0  0  0  0  0  0  0  0  0  0
   35.4850   27.8960   42.4970 H   0  0  0  0  0  0  0  0  0  0  0  0
   37.1750   28.0700   43.0160 H   0  0  0  0  0  0  0  0  0  0  0  0
   36.9390   27.3270   41.0340 C   0  0  0  0  0  0  0  0  0  0  0  0
   36.0460   26.9200   40.5380 H   0  0  0  0  0  0  0  0  0  0  0  0
   37.5380   27.9570   40.3390 H   0  0  0  0  0  0  0  0  0  0  0  0
   37.9350   25.9860   41.7590 S   0  0  0  0  0  0  0  0  0  0  0  0
   38.7190   26.6510   43.2420 C   0  0  0  0  0  3  0  0  0  0  0  0
   40.0000   27.3730   43.1870 C   0  0  0  0  0  2  0  0  0  0  0  0
   40.0230   25.9860   43.6750 C   0  0  0  0  0  2  0  0  0  0  0  0
  1  3  1  0  0  0  0
  1 16  1  0  0  0  0
  2  1  1  0  0  0  0
  4  5  1  0  0  0  0
  5  1  1  0  0  0  0
  5  6  2  0  0  0  0
  6 12  1  0  0  0  0
  7  6  1  0  0  0  0
  8  7  2  0  0  0  0
  9  4  2  0  0  0  0
  9  8  1  0  0  0  0
 10  4  1  0  0  0  0
 11  8  1  0  0  0  0
 12 13  1  0  0  0  0
 12 15  1  0  0  0  0
 14 12  1  0  0  0  0
 16 18  1  0  0  0  0
 17 16  1  0  0  0  0
 18 19  1  0  0  0  0
 18 20  1  0  0  0  0
 21 24  1  0  0  0  0
 21 18  1  0  0  0  0
 22 21  1  0  0  0  0
 23 21  1  0  0  0  0
 24 25  1  0  0  0  0
 25 27  1  0  0  0  0
 26 25  1  0  0  0  0
 26 27  1  0  0  0  0
M  END
>  <minimizedAffinity>
-3.99568844

$$$$
