
 OpenBabel03242517593D

 18 19  0  0  0  0  0  0  0  0999 V2000
   36.5320   31.0920   40.8910 C   0  0  0  0  0  0  0  0  0  0  0  0
   36.1290   29.9730   40.1440 C   0  0  0  0  0  0  0  0  0  0  0  0
   36.3360   30.0090   38.7630 C   0  0  0  0  0  0  0  0  0  0  0  0
   36.9120   31.1230   38.2440 N   0  0  0  0  0  0  0  0  0  0  0  0
   37.2870   32.1780   38.9940 C   0  0  0  0  0  0  0  0  0  0  0  0
   37.0940   32.1610   40.3360 N   0  0  0  0  0  0  0  0  0  0  0  0
   36.4110   31.1550   41.9740 H   0  0  0  0  0  0  0  0  0  0  0  0
   36.0460   29.1880   38.1570 H   0  0  0  0  0  0  0  0  0  0  0  0
   37.7400   33.0300   38.5200 H   0  0  0  0  0  0  0  0  0  0  0  0
   35.5160   28.8310   40.8290 C   0  0  0  0  0  0  0  0  0  0  0  0
   35.0470   29.2360   41.7750 H   0  0  0  0  0  0  0  0  0  0  0  0
   34.7950   28.3440   40.1780 H   0  0  0  0  0  0  0  0  0  0  0  0
   36.6160   27.8630   41.2130 C   0  0  0  0  0  0  0  0  0  0  0  0
   36.4640   26.8850   40.7170 H   0  0  0  0  0  0  0  0  0  0  0  0
   37.5960   28.2280   40.8360 H   0  0  0  0  0  0  0  0  0  0  0  0
   36.6770   27.7030   42.7150 C   0  0  0  0  0  3  0  0  0  0  0  0
   37.5020   28.5940   43.5480 C   0  0  0  0  0  2  0  0  0  0  0  0
   37.9820   27.1920   43.2590 C   0  0  0  0  0  2  0  0  0  0  0  0
  1  7  1  0  0  0  0
  2 10  1  0  0  0  0
  2  1  2  0  0  0  0
  3  2  1  0  0  0  0
  4  3  2  0  0  0  0
  4  5  1  0  0  0  0
  5  6  2  0  0  0  0
  6  1  1  0  0  0  0
  8  3  1  0  0  0  0
  9  5  1  0  0  0  0
 10 13  1  0  0  0  0
 10 11  1  0  0  0  0
 12 10  1  0  0  0  0
 13 16  1  0  0  0  0
 14 13  1  0  0  0  0
 15 13  1  0  0  0  0
 16 18  1  0  0  0  0
 16 17  1  0  0  0  0
 18 17  1  0  0  0  0
M  END
>  <minimizedAffinity>
-3.75187254

$$$$

 OpenBabel03242517593D

 18 19  0  0  0  0  0  0  0  0999 V2000
   36.3600   29.7290   39.0030 C   0  0  0  0  0  0  0  0  0  0  0  0
   36.2360   29.7640   40.4020 C   0  0  0  0  0  0  0  0  0  0  0  0
   36.5620   30.9590   41.0500 C   0  0  0  0  0  0  0  0  0  0  0  0
   36.9750   31.9970   40.2810 N   0  0  0  0  0  0  0  0  0  0  0  0
   37.0820   31.9260   38.9390 C   0  0  0  0  0  0  0  0  0  0  0  0
   36.7700   30.7750   38.2930 N   0  0  0  0  0  0  0  0  0  0  0  0
   36.1280   28.8420   38.4110 H   0  0  0  0  0  0  0  0  0  0  0  0
   36.4850   31.0320   42.1060 H   0  0  0  0  0  0  0  0  0  0  0  0
   37.4160   32.7860   38.3880 H   0  0  0  0  0  0  0  0  0  0  0  0
   35.7770   28.5690   41.1160 C   0  0  0  0  0  0  0  0  0  0  0  0
   35.5730   28.8880   42.1810 H   0  0  0  0  0  0  0  0  0  0  0  0
   34.9010   28.1520   40.6270 H   0  0  0  0  0  0  0  0  0  0  0  0
   36.9060   27.5600   41.1240 C   0  0  0  0  0  0  0  0  0  0  0  0
   36.7540   26.8000   40.3330 H   0  0  0  0  0  0  0  0  0  0  0  0
   37.8660   28.0570   40.8660 H   0  0  0  0  0  0  0  0  0  0  0  0
   37.0210   26.9080   42.4830 C   0  0  0  0  0  3  0  0  0  0  0  0
   36.4070   27.5110   43.6780 C   0  0  0  0  0  2  0  0  0  0  0  0
   37.8990   27.6220   43.4720 C   0  0  0  0  0  2  0  0  0  0  0  0
  1  2  1  0  0  0  0
  2  3  2  0  0  0  0
  2 10  1  0  0  0  0
  3  8  1  0  0  0  0
  4  3  1  0  0  0  0
  5  4  2  0  0  0  0
  6  5  1  0  0  0  0
  6  1  2  0  0  0  0
  7  1  1  0  0  0  0
  9  5  1  0  0  0  0
 10 13  1  0  0  0  0
 10 11  1  0  0  0  0
 12 10  1  0  0  0  0
 13 16  1  0  0  0  0
 14 13  1  0  0  0  0
 15 13  1  0  0  0  0
 16 18  1  0  0  0  0
 16 17  1  0  0  0  0
 18 17  1  0  0  0  0
M  END
>  <minimizedAffinity>
-3.70724034

$$$$

 OpenBabel03242517593D

 18 19  0  0  0  0  0  0  0  0999 V2000
   39.1810   29.7950   42.7660 C   0  0  0  0  0  0  0  0  0  0  0  0
   37.8680   29.2990   42.7390 C   0  0  0  0  0  0  0  0  0  0  0  0
   36.9880   29.8490   41.8020 C   0  0  0  0  0  0  0  0  0  0  0  0
   37.4680   30.8220   40.9870 N   0  0  0  0  0  0  0  0  0  0  0  0
   38.7370   31.2730   41.0430 C   0  0  0  0  0  0  0  0  0  0  0  0
   39.6040   30.7510   41.9450 N   0  0  0  0  0  0  0  0  0  0  0  0
   39.9380   29.4280   43.4610 H   0  0  0  0  0  0  0  0  0  0  0  0
   35.9850   29.5060   41.7450 H   0  0  0  0  0  0  0  0  0  0  0  0
   39.0530   32.0470   40.3670 H   0  0  0  0  0  0  0  0  0  0  0  0
   37.4760   28.2430   43.6760 C   0  0  0  0  0  0  0  0  0  0  0  0
   38.4300   27.7340   44.0070 H   0  0  0  0  0  0  0  0  0  0  0  0
   36.9160   28.6650   44.5060 H   0  0  0  0  0  0  0  0  0  0  0  0
   36.6280   27.2350   42.9290 C   0  0  0  0  0  0  0  0  0  0  0  0
   35.8920   26.7650   43.6090 H   0  0  0  0  0  0  0  0  0  0  0  0
   36.0170   27.7490   42.1540 H   0  0  0  0  0  0  0  0  0  0  0  0
   37.5030   26.1910   42.2750 C   0  0  0  0  0  3  0  0  0  0  0  0
   37.1880   25.6520   40.9410 C   0  0  0  0  0  2  0  0  0  0  0  0
   36.9020   24.8180   42.1660 C   0  0  0  0  0  2  0  0  0  0  0  0
  1  7  1  0  0  0  0
  2  1  1  0  0  0  0
  2 10  1  0  0  0  0
  3  2  2  0  0  0  0
  4  5  2  0  0  0  0
  4  3  1  0  0  0  0
  5  6  1  0  0  0  0
  6  1  2  0  0  0  0
  8  3  1  0  0  0  0
  9  5  1  0  0  0  0
 10 11  1  0  0  0  0
 10 12  1  0  0  0  0
 13 14  1  0  0  0  0
 13 10  1  0  0  0  0
 15 13  1  0  0  0  0
 16 13  1  0  0  0  0
 17 18  1  0  0  0  0
 17 16  1  0  0  0  0
 18 16  1  0  0  0  0
M  END
>  <minimizedAffinity>
-3.68846798

$$$$

 OpenBabel03242517593D

 18 19  0  0  0  0  0  0  0  0999 V2000
   38.9190   31.1800   41.4910 C   0  0  0  0  0  0  0  0  0  0  0  0
   37.6080   30.7180   41.2840 C   0  0  0  0  0  0  0  0  0  0  0  0
   36.7680   31.4980   40.4840 C   0  0  0  0  0  0  0  0  0  0  0  0
   37.2790   32.6440   39.9670 N   0  0  0  0  0  0  0  0  0  0  0  0
   38.5440   33.0540   40.1890 C   0  0  0  0  0  0  0  0  0  0  0  0
   39.3740   32.3110   40.9610 N   0  0  0  0  0  0  0  0  0  0  0  0
   39.6460   30.6400   42.1000 H   0  0  0  0  0  0  0  0  0  0  0  0
   35.7690   31.1910   40.3000 H   0  0  0  0  0  0  0  0  0  0  0  0
   38.8870   33.9730   39.7480 H   0  0  0  0  0  0  0  0  0  0  0  0
   37.1790   29.4610   41.9020 C   0  0  0  0  0  0  0  0  0  0  0  0
   36.1490   29.6460   42.3280 H   0  0  0  0  0  0  0  0  0  0  0  0
   37.1930   28.6580   41.1700 H   0  0  0  0  0  0  0  0  0  0  0  0
   38.1240   29.1480   43.0440 C   0  0  0  0  0  0  0  0  0  0  0  0
   39.1770   29.2320   42.7120 H   0  0  0  0  0  0  0  0  0  0  0  0
   38.0140   29.9050   43.8500 H   0  0  0  0  0  0  0  0  0  0  0  0
   37.8420   27.7710   43.5990 C   0  0  0  0  0  3  0  0  0  0  0  0
   37.3490   26.6820   42.7390 C   0  0  0  0  0  2  0  0  0  0  0  0
   36.3900   27.3850   43.6690 C   0  0  0  0  0  2  0  0  0  0  0  0
  1  7  1  0  0  0  0
  2  1  1  0  0  0  0
  2 10  1  0  0  0  0
  3  2  2  0  0  0  0
  4  5  2  0  0  0  0
  4  3  1  0  0  0  0
  5  6  1  0  0  0  0
  6  1  2  0  0  0  0
  8  3  1  0  0  0  0
  9  5  1  0  0  0  0
 10 11  1  0  0  0  0
 10 13  1  0  0  0  0
 12 10  1  0  0  0  0
 13 16  1  0  0  0  0
 13 15  1  0  0  0  0
 14 13  1  0  0  0  0
 16 18  1  0  0  0  0
 17 16  1  0  0  0  0
 17 18  1  0  0  0  0
M  END
>  <minimizedAffinity>
-3.64113116

$$$$

 OpenBabel03242517593D

 18 19  0  0  0  0  0  0  0  0999 V2000
   35.7680   28.5710   41.1560 C   0  0  0  0  0  0  0  0  0  0  0  0
   36.7260   28.3730   42.1640 C   0  0  0  0  0  0  0  0  0  0  0  0
   37.6720   29.3830   42.3630 C   0  0  0  0  0  0  0  0  0  0  0  0
   37.5940   30.4810   41.5690 N   0  0  0  0  0  0  0  0  0  0  0  0
   36.6590   30.6350   40.6110 C   0  0  0  0  0  0  0  0  0  0  0  0
   35.7330   29.6660   40.4030 N   0  0  0  0  0  0  0  0  0  0  0  0
   34.9910   27.8390   40.9280 H   0  0  0  0  0  0  0  0  0  0  0  0
   38.4160   29.2780   43.1120 H   0  0  0  0  0  0  0  0  0  0  0  0
   36.6530   31.5300   40.0160 H   0  0  0  0  0  0  0  0  0  0  0  0
   36.6990   27.1390   42.9530 C   0  0  0  0  0  0  0  0  0  0  0  0
   37.0700   27.4080   43.9870 H   0  0  0  0  0  0  0  0  0  0  0  0
   35.6970   26.7200   42.9620 H   0  0  0  0  0  0  0  0  0  0  0  0
   37.6740   26.1590   42.3330 C   0  0  0  0  0  0  0  0  0  0  0  0
   38.0760   26.5590   41.3820 H   0  0  0  0  0  0  0  0  0  0  0  0
   38.5610   26.0330   42.9910 H   0  0  0  0  0  0  0  0  0  0  0  0
   37.0090   24.8190   42.1160 C   0  0  0  0  0  3  0  0  0  0  0  0
   37.6980   23.7250   41.4120 C   0  0  0  0  0  2  0  0  0  0  0  0
   36.6250   24.5090   40.6960 C   0  0  0  0  0  2  0  0  0  0  0  0
  1  2  1  0  0  0  0
  2  3  2  0  0  0  0
  2 10  1  0  0  0  0
  3  8  1  0  0  0  0
  4  3  1  0  0  0  0
  5  4  2  0  0  0  0
  6  5  1  0  0  0  0
  6  1  2  0  0  0  0
  7  1  1  0  0  0  0
  9  5  1  0  0  0  0
 10 12  1  0  0  0  0
 10 11  1  0  0  0  0
 13 10  1  0  0  0  0
 13 15  1  0  0  0  0
 14 13  1  0  0  0  0
 16 13  1  0  0  0  0
 17 16  1  0  0  0  0
 18 17  1  0  0  0  0
 18 16  1  0  0  0  0
M  END
>  <minimizedAffinity>
-3.63950968

$$$$

 OpenBabel03242517593D

 18 19  0  0  0  0  0  0  0  0999 V2000
   37.8380   25.5110   42.2180 C   0  0  0  0  0  0  0  0  0  0  0  0
   37.9250   26.7260   42.9170 C   0  0  0  0  0  0  0  0  0  0  0  0
   39.0770   26.9550   43.6750 C   0  0  0  0  0  0  0  0  0  0  0  0
   40.0270   25.9860   43.6800 N   0  0  0  0  0  0  0  0  0  0  0  0
   39.9080   24.8310   42.9950 C   0  0  0  0  0  0  0  0  0  0  0  0
   38.7980   24.5920   42.2540 N   0  0  0  0  0  0  0  0  0  0  0  0
   36.9780   25.2440   41.6010 H   0  0  0  0  0  0  0  0  0  0  0  0
   39.1880   27.8580   44.2210 H   0  0  0  0  0  0  0  0  0  0  0  0
   40.6990   24.1040   43.0410 H   0  0  0  0  0  0  0  0  0  0  0  0
   36.8250   27.6900   42.8270 C   0  0  0  0  0  0  0  0  0  0  0  0
   36.1920   27.3770   41.9450 H   0  0  0  0  0  0  0  0  0  0  0  0
   36.2670   27.7110   43.7590 H   0  0  0  0  0  0  0  0  0  0  0  0
   37.4140   29.0550   42.5360 C   0  0  0  0  0  0  0  0  0  0  0  0
   37.0750   29.7930   43.2890 H   0  0  0  0  0  0  0  0  0  0  0  0
   38.5200   29.0250   42.6400 H   0  0  0  0  0  0  0  0  0  0  0  0
   37.0470   29.5010   41.1400 C   0  0  0  0  0  3  0  0  0  0  0  0
   36.2220   30.6990   40.9090 C   0  0  0  0  0  2  0  0  0  0  0  0
   35.6020   29.3300   40.7640 C   0  0  0  0  0  2  0  0  0  0  0  0
  1  6  2  0  0  0  0
  1  2  1  0  0  0  0
  2  3  2  0  0  0  0
  3  4  1  0  0  0  0
  3  8  1  0  0  0  0
  5  9  1  0  0  0  0
  5  4  2  0  0  0  0
  6  5  1  0  0  0  0
  7  1  1  0  0  0  0
 10  2  1  0  0  0  0
 10 12  1  0  0  0  0
 11 10  1  0  0  0  0
 13 15  1  0  0  0  0
 13 10  1  0  0  0  0
 13 14  1  0  0  0  0
 16 13  1  0  0  0  0
 17 16  1  0  0  0  0
 18 17  1  0  0  0  0
 18 16  1  0  0  0  0
M  END
>  <minimizedAffinity>
-3.55493498

$$$$

 OpenBabel03242517593D

 18 19  0  0  0  0  0  0  0  0999 V2000
   37.7390   29.5860   42.3770 C   0  0  0  0  0  0  0  0  0  0  0  0
   36.7560   28.9480   41.6030 C   0  0  0  0  0  0  0  0  0  0  0  0
   36.5380   27.5860   41.8300 C   0  0  0  0  0  0  0  0  0  0  0  0
   37.2920   26.9800   42.7820 N   0  0  0  0  0  0  0  0  0  0  0  0
   38.2270   27.6270   43.5060 C   0  0  0  0  0  0  0  0  0  0  0  0
   38.4520   28.9480   43.3000 N   0  0  0  0  0  0  0  0  0  0  0  0
   37.9800   30.6450   42.2710 H   0  0  0  0  0  0  0  0  0  0  0  0
   35.8060   27.0610   41.2690 H   0  0  0  0  0  0  0  0  0  0  0  0
   38.7900   27.0870   44.2460 H   0  0  0  0  0  0  0  0  0  0  0  0
   36.0100   29.7200   40.6050 C   0  0  0  0  0  0  0  0  0  0  0  0
   36.3540   29.3550   39.5920 H   0  0  0  0  0  0  0  0  0  0  0  0
   34.9410   29.5950   40.7560 H   0  0  0  0  0  0  0  0  0  0  0  0
   36.3950   31.1770   40.7490 C   0  0  0  0  0  0  0  0  0  0  0  0
   35.5460   31.7660   41.1480 H   0  0  0  0  0  0  0  0  0  0  0  0
   37.2020   31.2870   41.5040 H   0  0  0  0  0  0  0  0  0  0  0  0
   36.8610   31.7330   39.4230 C   0  0  0  0  0  3  0  0  0  0  0  0
   38.2760   32.0630   39.1840 C   0  0  0  0  0  2  0  0  0  0  0  0
   37.2860   33.1740   39.4380 C   0  0  0  0  0  2  0  0  0  0  0  0
  1  6  1  0  0  0  0
  2  3  1  0  0  0  0
  2  1  2  0  0  0  0
  3  4  2  0  0  0  0
  4  5  1  0  0  0  0
  5  9  1  0  0  0  0
  6  5  2  0  0  0  0
  7  1  1  0  0  0  0
  8  3  1  0  0  0  0
 10 13  1  0  0  0  0
 10 12  1  0  0  0  0
 10  2  1  0  0  0  0
 11 10  1  0  0  0  0
 13 14  1  0  0  0  0
 13 15  1  0  0  0  0
 16 18  1  0  0  0  0
 16 13  1  0  0  0  0
 17 16  1  0  0  0  0
 17 18  1  0  0  0  0
M  END
>  <minimizedAffinity>
-3.51553679

$$$$

 OpenBabel03242517593D

 18 19  0  0  0  0  0  0  0  0999 V2000
   38.7840   26.0470   41.5610 C   0  0  0  0  0  0  0  0  0  0  0  0
   37.5150   25.8330   42.1250 C   0  0  0  0  0  0  0  0  0  0  0  0
   36.9440   24.5660   41.9700 C   0  0  0  0  0  0  0  0  0  0  0  0
   37.6580   23.6360   41.2860 N   0  0  0  0  0  0  0  0  0  0  0  0
   38.8750   23.8790   40.7600 C   0  0  0  0  0  0  0  0  0  0  0  0
   39.4440   25.1010   40.9000 N   0  0  0  0  0  0  0  0  0  0  0  0
   39.3080   27.0010   41.6300 H   0  0  0  0  0  0  0  0  0  0  0  0
   35.9870   24.3580   42.3770 H   0  0  0  0  0  0  0  0  0  0  0  0
   39.3880   23.0970   40.2290 H   0  0  0  0  0  0  0  0  0  0  0  0
   36.8500   26.9250   42.8400 C   0  0  0  0  0  0  0  0  0  0  0  0
   36.4660   27.6400   42.0530 H   0  0  0  0  0  0  0  0  0  0  0  0
   36.0580   26.5330   43.4730 H   0  0  0  0  0  0  0  0  0  0  0  0
   37.8860   27.6440   43.6780 C   0  0  0  0  0  0  0  0  0  0  0  0
   37.7340   27.4290   44.7540 H   0  0  0  0  0  0  0  0  0  0  0  0
   38.9020   27.2550   43.4470 H   0  0  0  0  0  0  0  0  0  0  0  0
   37.8410   29.1310   43.4130 C   0  0  0  0  0  3  0  0  0  0  0  0
   37.6890   29.6630   42.0480 C   0  0  0  0  0  2  0  0  0  0  0  0
   39.0430   29.7020   42.7150 C   0  0  0  0  0  2  0  0  0  0  0  0
  1  7  1  0  0  0  0
  1  2  1  0  0  0  0
  2 10  1  0  0  0  0
  3  2  2  0  0  0  0
  3  8  1  0  0  0  0
  4  3  1  0  0  0  0
  5  6  1  0  0  0  0
  5  4  2  0  0  0  0
  6  1  2  0  0  0  0
  9  5  1  0  0  0  0
 10 12  1  0  0  0  0
 10 13  1  0  0  0  0
 11 10  1  0  0  0  0
 13 14  1  0  0  0  0
 15 13  1  0  0  0  0
 16 13  1  0  0  0  0
 17 18  1  0  0  0  0
 17 16  1  0  0  0  0
 18 16  1  0  0  0  0
M  END
>  <minimizedAffinity>
-3.4330709

$$$$

 OpenBabel03242517593D

 18 19  0  0  0  0  0  0  0  0999 V2000
   36.8180   26.3910   40.2590 C   0  0  0  0  0  0  0  0  0  0  0  0
   37.0610   25.5430   41.3530 C   0  0  0  0  0  0  0  0  0  0  0  0
   36.7300   24.1930   41.2100 C   0  0  0  0  0  0  0  0  0  0  0  0
   36.1990   23.7990   40.0240 N   0  0  0  0  0  0  0  0  0  0  0  0
   35.9800   24.6430   38.9970 C   0  0  0  0  0  0  0  0  0  0  0  0
   36.2950   25.9560   39.1170 N   0  0  0  0  0  0  0  0  0  0  0  0
   37.0430   27.4590   40.2770 H   0  0  0  0  0  0  0  0  0  0  0  0
   36.8950   23.5150   42.0090 H   0  0  0  0  0  0  0  0  0  0  0  0
   35.5560   24.2660   38.0830 H   0  0  0  0  0  0  0  0  0  0  0  0
   37.6410   26.0970   42.5800 C   0  0  0  0  0  0  0  0  0  0  0  0
   37.6620   25.2550   43.3340 H   0  0  0  0  0  0  0  0  0  0  0  0
   38.6270   26.5060   42.3780 H   0  0  0  0  0  0  0  0  0  0  0  0
   36.7160   27.1810   43.0940 C   0  0  0  0  0  0  0  0  0  0  0  0
   35.9970   27.4830   42.3080 H   0  0  0  0  0  0  0  0  0  0  0  0
   36.0890   26.7880   43.9230 H   0  0  0  0  0  0  0  0  0  0  0  0
   37.5150   28.3680   43.5800 C   0  0  0  0  0  3  0  0  0  0  0  0
   37.9210   29.4470   42.6650 C   0  0  0  0  0  2  0  0  0  0  0  0
   38.9410   28.4270   43.1080 C   0  0  0  0  0  2  0  0  0  0  0  0
  1  7  1  0  0  0  0
  1  2  1  0  0  0  0
  2 10  1  0  0  0  0
  3  2  2  0  0  0  0
  3  8  1  0  0  0  0
  4  3  1  0  0  0  0
  5  6  1  0  0  0  0
  5  4  2  0  0  0  0
  6  1  2  0  0  0  0
  9  5  1  0  0  0  0
 10 13  1  0  0  0  0
 10 11  1  0  0  0  0
 12 10  1  0  0  0  0
 13 16  1  0  0  0  0
 13 15  1  0  0  0  0
 14 13  1  0  0  0  0
 17 18  1  0  0  0  0
 17 16  1  0  0  0  0
 18 16  1  0  0  0  0
M  END
>  <minimizedAffinity>
-3.36192727

$$$$
