
 OpenBabel03252508153D

 31 34  0  0  1  0  0  0  0  0999 V2000
   45.8370   30.7070   46.7990 C   0  0  0  0  0  0  0  0  0  0  0  0
   44.8680   30.1980   46.6140 H   0  0  0  0  0  0  0  0  0  0  0  0
   46.6790   30.0170   46.8730 H   0  0  0  0  0  0  0  0  0  0  0  0
   45.6790   31.5170   48.0640 C   0  0  1  0  0  0  0  0  0  0  0  0
   45.5310   30.7430   49.3270 C   0  0  0  0  0  0  0  0  0  0  0  0
   46.7530   31.4850   49.0860 C   0  0  1  0  0  0  0  0  0  0  0  0
   45.1440   32.4850   47.9730 H   0  0  0  0  0  0  0  0  0  0  0  0
   45.5350   29.6340   49.2720 H   0  0  0  0  0  0  0  0  0  0  0  0
   44.7790   31.1150   50.0720 H   0  0  0  0  0  0  0  0  0  0  0  0
   46.8710   32.4150   49.7250 H   0  0  0  0  0  0  0  0  0  0  0  0
   48.0560   30.8900   48.7100 C   0  0  0  0  0  0  0  0  0  0  0  0
   48.9550   30.5040   49.9140 C   0  0  0  0  0  0  0  0  0  0  0  0
   49.3130   31.6850   49.0980 C   0  0  0  0  0  0  0  0  0  0  0  0
   48.1390   30.2460   47.8110 H   0  0  0  0  0  0  0  0  0  0  0  0
   48.5010   30.5650   50.9110 H   0  0  0  0  0  0  0  0  0  0  0  0
   49.5660   29.5840   49.7370 H   0  0  0  0  0  0  0  0  0  0  0  0
   49.1100   32.6650   49.6150 H   0  0  0  0  0  0  0  0  0  0  0  0
   50.1690   31.6180   48.4150 H   0  0  0  0  0  0  0  0  0  0  0  0
   45.8270   32.8790   45.8540 C   0  0  0  0  0  0  0  0  0  0  0  0
   46.0110   31.6400   45.6080 C   0  0  0  0  0  0  0  0  0  0  0  0
   45.1350   35.5980   43.4690 C   0  0  0  0  0  0  0  0  0  0  0  0
   46.2520   35.5960   42.6450 C   0  0  0  0  0  0  0  0  0  0  0  0
   47.2310   34.6610   42.9380 C   0  0  0  0  0  0  0  0  0  0  0  0
   47.0440   33.8330   43.9730 N   0  0  0  0  0  0  0  0  0  0  0  0
   45.9620   33.8390   44.7630 C   0  0  0  0  0  0  0  0  0  0  0  0
   45.0220   34.7320   44.4900 N   0  0  0  0  0  0  0  0  0  0  0  0
   44.3630   36.3250   43.2510 H   0  0  0  0  0  0  0  0  0  0  0  0
   46.3760   36.2690   41.8270 H   0  0  0  0  0  0  0  0  0  0  0  0
   48.4730   34.6000   42.0900 C   0  0  0  0  0  0  0  0  0  0  0  0
   48.1450   34.7080   40.5700 C   0  0  0  0  0  0  0  0  0  0  0  0
   48.9280   35.7640   41.3270 C   0  0  0  0  0  0  0  0  0  0  0  0
  1  3  1  0  0  0  0
  1  4  1  0  0  0  0
  2  1  1  0  0  0  0
  4  7  1  6  0  0  0
  4  6  1  0  0  0  0
  4  5  1  0  0  0  0
  5  9  1  0  0  0  0
  6  5  1  0  0  0  0
  6 10  1  1  0  0  0
  8  5  1  0  0  0  0
 11  6  1  0  0  0  0
 11 13  1  0  0  0  0
 11 12  1  0  0  0  0
 12 15  1  0  0  0  0
 13 17  1  0  0  0  0
 13 12  1  0  0  0  0
 14 11  1  0  0  0  0
 16 12  1  0  0  0  0
 18 13  1  0  0  0  0
 20 19  2  0  0  0  0
 20  1  1  0  0  0  0
 21 26  1  0  0  0  0
 22 23  1  0  0  0  0
 22 21  2  0  0  0  0
 23 24  2  0  0  0  0
 24 25  1  0  0  0  0
 25 19  1  0  0  0  0
 26 25  2  0  0  0  0
 27 21  1  0  0  0  0
 28 22  1  0  0  0  0
 29 23  1  0  0  0  0
 30 31  1  0  0  0  0
 30 29  1  0  0  0  0
 31 29  1  0  0  0  0
M  END
>  <minimizedAffinity>
-5.37038994

>  <minimizedRMSD>
1.27276444

$$$$
