
 OpenBabel03252504423D

 39 42  0  0  0  0  0  0  0  0999 V2000
   46.3810   32.1870   47.7480 C   0  0  0  0  0  0  0  0  0  0  0  0
   45.9170   31.8130   48.9740 C   0  0  0  0  0  0  0  0  0  0  0  0
   46.9010   31.1310   49.5610 N   0  0  0  0  0  0  0  0  0  0  0  0
   47.9710   31.0540   48.7630 C   0  0  0  0  0  0  0  0  0  0  0  0
   47.6330   31.7220   47.6230 N   0  0  0  0  0  0  0  0  0  0  0  0
   49.2450   30.4440   48.9380 N   0  0  0  0  0  0  0  0  0  0  0  0
   50.3010   31.2680   49.5720 C   0  0  0  0  0  0  0  0  0  0  0  0
   50.4030   30.7260   50.9970 C   0  0  0  0  0  0  0  0  0  0  0  0
   50.5000   29.2250   50.9800 C   0  0  0  0  0  0  0  0  0  0  0  0
   50.8510   28.7470   49.5800 C   0  0  0  0  0  0  0  0  0  0  0  0
   49.7510   29.1470   48.6210 C   0  0  0  0  0  0  0  0  0  0  0  0
   44.9330   32.0310   49.3900 H   0  0  0  0  0  0  0  0  0  0  0  0
   46.8810   30.6960   50.5140 H   0  0  0  0  0  0  0  0  0  0  0  0
   51.2450   31.1800   49.0230 H   0  0  0  0  0  0  0  0  0  0  0  0
   49.9760   32.3230   49.6640 H   0  0  0  0  0  0  0  0  0  0  0  0
   49.5080   31.0090   51.5540 H   0  0  0  0  0  0  0  0  0  0  0  0
   51.3290   31.1470   51.4630 H   0  0  0  0  0  0  0  0  0  0  0  0
   49.5310   28.7430   51.2240 H   0  0  0  0  0  0  0  0  0  0  0  0
   51.2750   28.8270   51.6820 H   0  0  0  0  0  0  0  0  0  0  0  0
   50.9690   27.6490   49.5860 H   0  0  0  0  0  0  0  0  0  0  0  0
   51.8060   29.2350   49.3090 H   0  0  0  0  0  0  0  0  0  0  0  0
   50.1090   29.0830   47.5700 H   0  0  0  0  0  0  0  0  0  0  0  0
   48.9390   28.3810   48.7770 H   0  0  0  0  0  0  0  0  0  0  0  0
   45.6390   32.9770   46.7220 C   0  0  0  0  0  0  0  0  0  0  0  0
   45.3170   33.9430   47.1740 H   0  0  0  0  0  0  0  0  0  0  0  0
   44.7290   32.4180   46.3980 H   0  0  0  0  0  0  0  0  0  0  0  0
   46.0640   33.8450   44.4520 C   0  0  0  0  0  3  0  0  0  0  0  0
   46.5000   33.2760   45.5590 C   0  0  0  0  0  3  0  0  0  0  0  0
   47.0290   34.0770   43.3830 C   0  0  0  0  0  0  0  0  0  0  0  0
   46.7500   34.9680   42.3100 C   0  0  0  0  0  0  0  0  0  0  0  0
   47.7180   35.1250   41.3400 C   0  0  0  0  0  0  0  0  0  0  0  0
   48.8770   34.4430   41.4310 N   0  0  0  0  0  0  0  0  0  0  0  0
   49.1180   33.6040   42.4570 C   0  0  0  0  0  0  0  0  0  0  0  0
   48.2260   33.4210   43.4080 N   0  0  0  0  0  0  0  0  0  0  0  0
   45.7970   35.4700   42.3200 H   0  0  0  0  0  0  0  0  0  0  0  0
   47.4770   35.8070   40.5380 H   0  0  0  0  0  0  0  0  0  0  0  0
   50.4110   32.8760   42.5120 C   0  0  0  0  0  3  0  0  0  0  0  0
   50.9070   32.1620   41.2870 C   0  0  0  0  0  2  0  0  0  0  0  0
   50.4740   31.4050   42.5140 C   0  0  0  0  0  2  0  0  0  0  0  0
  1  2  2  0  0  0  0
  2 12  1  0  0  0  0
  2  3  1  0  0  0  0
  3 13  1  0  0  0  0
  4  6  1  0  0  0  0
  4  3  1  0  0  0  0
  5  1  1  0  0  0  0
  5  4  2  0  0  0  0
  6  7  1  0  0  0  0
  7 15  1  0  0  0  0
  7  8  1  0  0  0  0
  8 17  1  0  0  0  0
  8 16  1  0  0  0  0
  9  8  1  0  0  0  0
  9 18  1  0  0  0  0
  9 19  1  0  0  0  0
 10 20  1  0  0  0  0
 10  9  1  0  0  0  0
 11 23  1  0  0  0  0
 11  6  1  0  0  0  0
 11 10  1  0  0  0  0
 14  7  1  0  0  0  0
 21 10  1  0  0  0  0
 22 11  1  0  0  0  0
 24 25  1  0  0  0  0
 24  1  1  0  0  0  0
 26 24  1  0  0  0  0
 27 28  2  0  0  0  0
 28 24  1  0  0  0  0
 29 34  1  0  0  0  0
 29 27  1  0  0  0  0
 30 35  1  0  0  0  0
 30 29  2  0  0  0  0
 31 32  2  0  0  0  0
 31 30  1  0  0  0  0
 32 33  1  0  0  0  0
 33 37  1  0  0  0  0
 33 34  2  0  0  0  0
 36 31  1  0  0  0  0
 37 39  1  0  0  0  0
 38 37  1  0  0  0  0
 38 39  1  0  0  0  0
M  END
>  <minimizedAffinity>
-5.84511137

>  <minimizedRMSD>
0.254843056

$$$$
