
 OpenBabel03242511503D

 19 21  0  0  1  0  0  0  0  0999 V2000
   47.4940   34.0900   42.4320 C   0  0  1  0  0  0  0  0  0  0  0  0
   48.0770   35.0830   41.5280 C   0  0  1  0  0  0  0  0  0  0  0  0
   48.9130   34.5530   42.6270 C   0  0  0  0  0  0  0  0  0  0  0  0
   47.3720   33.0300   42.1730 H   0  0  0  0  0  0  0  0  0  0  0  0
   47.7770   36.1610   41.6740 H   0  0  0  0  0  0  0  0  0  0  0  0
   49.6870   33.8010   42.4350 H   0  0  0  0  0  0  0  0  0  0  0  0
   49.0730   35.1620   43.5230 H   0  0  0  0  0  0  0  0  0  0  0  0
   45.6530   35.6720   43.1640 C   0  0  0  0  0  0  0  0  0  0  0  0
   46.4570   34.5300   43.4230 C   0  0  0  0  0  0  0  0  0  0  0  0
   46.2700   33.8350   44.6180 C   0  0  0  0  0  0  0  0  0  0  0  0
   45.3170   34.3030   45.4700 N   0  0  0  0  0  0  0  0  0  0  0  0
   44.5720   35.3800   45.2060 C   0  0  0  0  0  0  0  0  0  0  0  0
   44.7320   36.0790   44.0470 N   0  0  0  0  0  0  0  0  0  0  0  0
   45.8630   36.1610   42.2070 H   0  0  0  0  0  0  0  0  0  0  0  0
   46.8490   32.9730   44.8530 H   0  0  0  0  0  0  0  0  0  0  0  0
   43.8160   35.7380   45.8990 H   0  0  0  0  0  0  0  0  0  0  0  0
   48.2360   34.6770   40.1100 C   0  0  0  0  0  0  0  0  0  0  0  0
   48.4860   33.1490   39.9220 C   0  0  0  0  0  0  0  0  0  0  0  0
   47.1770   33.7210   39.5900 C   0  0  0  0  0  0  0  0  0  0  0  0
  1  4  1  6  0  0  0
  1  3  1  0  0  0  0
  1  9  1  0  0  0  0
  2  5  1  1  0  0  0
  2  1  1  0  0  0  0
  2  3  1  0  0  0  0
  3  7  1  0  0  0  0
  6  3  1  0  0  0  0
  8  9  2  0  0  0  0
  8 13  1  0  0  0  0
  9 10  1  0  0  0  0
 10 15  1  0  0  0  0
 10 11  2  0  0  0  0
 12 11  1  0  0  0  0
 12 16  1  0  0  0  0
 13 12  2  0  0  0  0
 14  8  1  0  0  0  0
 17  2  1  0  0  0  0
 18 17  1  0  0  0  0
 19 18  1  0  0  0  0
 19 17  1  0  0  0  0
M  END
>  <minimizedAffinity>
-4.29462814

>  <minimizedRMSD>
1.21058047

$$$$
