
 OpenBabel03252504423D

 39 42  0  0  0  0  0  0  0  0999 V2000
   46.3810   32.1860   47.7490 C   0  0  0  0  0  0  0  0  0  0  0  0
   45.9160   31.8120   48.9740 C   0  0  0  0  0  0  0  0  0  0  0  0
   46.9000   31.1290   49.5610 N   0  0  0  0  0  0  0  0  0  0  0  0
   47.9710   31.0530   48.7630 C   0  0  0  0  0  0  0  0  0  0  0  0
   47.6330   31.7220   47.6240 N   0  0  0  0  0  0  0  0  0  0  0  0
   49.2450   30.4430   48.9390 N   0  0  0  0  0  0  0  0  0  0  0  0
   50.3010   31.2670   49.5730 C   0  0  0  0  0  0  0  0  0  0  0  0
   50.4030   30.7250   50.9980 C   0  0  0  0  0  0  0  0  0  0  0  0
   50.5000   29.2230   50.9800 C   0  0  0  0  0  0  0  0  0  0  0  0
   50.8510   28.7460   49.5790 C   0  0  0  0  0  0  0  0  0  0  0  0
   49.7510   29.1470   48.6200 C   0  0  0  0  0  0  0  0  0  0  0  0
   44.9330   32.0290   49.3900 H   0  0  0  0  0  0  0  0  0  0  0  0
   46.8810   30.6950   50.5140 H   0  0  0  0  0  0  0  0  0  0  0  0
   51.2440   31.1800   49.0240 H   0  0  0  0  0  0  0  0  0  0  0  0
   49.9750   32.3220   49.6660 H   0  0  0  0  0  0  0  0  0  0  0  0
   49.5070   31.0070   51.5550 H   0  0  0  0  0  0  0  0  0  0  0  0
   51.3280   31.1460   51.4640 H   0  0  0  0  0  0  0  0  0  0  0  0
   49.5300   28.7420   51.2240 H   0  0  0  0  0  0  0  0  0  0  0  0
   51.2750   28.8250   51.6820 H   0  0  0  0  0  0  0  0  0  0  0  0
   50.9700   27.6490   49.5850 H   0  0  0  0  0  0  0  0  0  0  0  0
   51.8070   29.2350   49.3090 H   0  0  0  0  0  0  0  0  0  0  0  0
   50.1100   29.0840   47.5700 H   0  0  0  0  0  0  0  0  0  0  0  0
   48.9400   28.3810   48.7760 H   0  0  0  0  0  0  0  0  0  0  0  0
   45.6390   32.9770   46.7230 C   0  0  0  0  0  0  0  0  0  0  0  0
   45.3150   33.9420   47.1770 H   0  0  0  0  0  0  0  0  0  0  0  0
   44.7300   32.4170   46.3970 H   0  0  0  0  0  0  0  0  0  0  0  0
   46.0620   33.8320   44.4480 C   0  0  0  0  0  3  0  0  0  0  0  0
   46.5010   33.2800   45.5620 C   0  0  0  0  0  3  0  0  0  0  0  0
   47.0280   34.0690   43.3820 C   0  0  0  0  0  0  0  0  0  0  0  0
   46.7510   34.9660   42.3120 C   0  0  0  0  0  0  0  0  0  0  0  0
   47.7200   35.1280   41.3450 C   0  0  0  0  0  0  0  0  0  0  0  0
   48.8790   34.4460   41.4350 N   0  0  0  0  0  0  0  0  0  0  0  0
   49.1190   33.6020   42.4570 C   0  0  0  0  0  0  0  0  0  0  0  0
   48.2250   33.4140   43.4050 N   0  0  0  0  0  0  0  0  0  0  0  0
   45.7970   35.4670   42.3230 H   0  0  0  0  0  0  0  0  0  0  0  0
   47.4800   35.8150   40.5460 H   0  0  0  0  0  0  0  0  0  0  0  0
   50.4130   32.8750   42.5100 C   0  0  0  0  0  3  0  0  0  0  0  0
   50.9050   32.1600   41.2840 C   0  0  0  0  0  2  0  0  0  0  0  0
   50.4760   31.4040   42.5140 C   0  0  0  0  0  2  0  0  0  0  0  0
  1  2  2  0  0  0  0
  2 12  1  0  0  0  0
  2  3  1  0  0  0  0
  3 13  1  0  0  0  0
  4  6  1  0  0  0  0
  4  3  1  0  0  0  0
  5  1  1  0  0  0  0
  5  4  2  0  0  0  0
  6  7  1  0  0  0  0
  7 15  1  0  0  0  0
  7  8  1  0  0  0  0
  8 17  1  0  0  0  0
  8 16  1  0  0  0  0
  9  8  1  0  0  0  0
  9 18  1  0  0  0  0
  9 19  1  0  0  0  0
 10 20  1  0  0  0  0
 10  9  1  0  0  0  0
 11 23  1  0  0  0  0
 11  6  1  0  0  0  0
 11 10  1  0  0  0  0
 14  7  1  0  0  0  0
 21 10  1  0  0  0  0
 22 11  1  0  0  0  0
 24 25  1  0  0  0  0
 24  1  1  0  0  0  0
 26 24  1  0  0  0  0
 27 28  2  0  0  0  0
 28 24  1  0  0  0  0
 29 34  1  0  0  0  0
 29 27  1  0  0  0  0
 30 35  1  0  0  0  0
 30 29  2  0  0  0  0
 31 32  2  0  0  0  0
 31 30  1  0  0  0  0
 32 33  1  0  0  0  0
 33 37  1  0  0  0  0
 33 34  2  0  0  0  0
 36 31  1  0  0  0  0
 37 39  1  0  0  0  0
 38 37  1  0  0  0  0
 38 39  1  0  0  0  0
M  END
>  <minimizedAffinity>
-5.84888887

>  <minimizedRMSD>
0.379140556

$$$$
