
 OpenBabel03242512253D

 14 15  0  0  0  0  0  0  0  0999 V2000
   36.6530   31.0790   40.5790 C   0  0  0  0  0  0  0  0  0  0  0  0
   36.1380   30.2790   39.5280 C   0  0  0  0  0  0  0  0  0  0  0  0
   36.0500   28.8910   39.7230 C   0  0  0  0  0  0  0  0  0  0  0  0
   36.4770   28.4060   40.9360 N   0  0  0  0  0  0  0  0  0  0  0  0
   36.9570   29.1910   41.9050 C   0  0  0  0  0  0  0  0  0  0  0  0
   37.0420   30.5080   41.7200 N   0  0  0  0  0  0  0  0  0  0  0  0
   36.7420   32.4910   40.3790 N   0  0  0  0  0  0  0  0  0  0  0  0
   35.8110   30.7010   38.5840 H   0  0  0  0  0  0  0  0  0  0  0  0
   35.6610   28.2380   38.9450 H   0  0  0  0  0  0  0  0  0  0  0  0
   36.0470   32.9510   41.0120 H   0  0  0  0  0  0  0  0  0  0  0  0
   37.3560   33.0500   39.7410 H   0  0  0  0  0  0  0  0  0  0  0  0
   37.3990   28.5750   43.1930 C   0  0  0  0  0  3  0  0  0  0  0  0
   38.0100   27.2370   43.2140 C   0  0  0  0  0  2  0  0  0  0  0  0
   36.5770   27.4070   43.6800 C   0  0  0  0  0  2  0  0  0  0  0  0
  1  6  1  0  0  0  0
  2  3  1  0  0  0  0
  2  1  2  0  0  0  0
  3  4  2  0  0  0  0
  4  5  1  0  0  0  0
  5 12  1  0  0  0  0
  6  5  2  0  0  0  0
  7  1  1  0  0  0  0
  7 10  1  0  0  0  0
  8  2  1  0  0  0  0
  9  3  1  0  0  0  0
 11  7  1  0  0  0  0
 12 13  1  0  0  0  0
 12 14  1  0  0  0  0
 13 14  1  0  0  0  0
M  END
>  <minimizedAffinity>
-3.93206263

$$$$

 OpenBabel03242512253D

 14 15  0  0  0  0  0  0  0  0999 V2000
   36.4440   29.7530   41.4220 C   0  0  0  0  0  0  0  0  0  0  0  0
   35.9650   28.7060   40.5950 C   0  0  0  0  0  0  0  0  0  0  0  0
   36.5740   27.4440   40.6870 C   0  0  0  0  0  0  0  0  0  0  0  0
   37.6060   27.3170   41.5860 N   0  0  0  0  0  0  0  0  0  0  0  0
   38.0320   28.3270   42.3510 C   0  0  0  0  0  0  0  0  0  0  0  0
   37.4540   29.5250   42.2630 N   0  0  0  0  0  0  0  0  0  0  0  0
   35.8230   31.0360   41.3270 N   0  0  0  0  0  0  0  0  0  0  0  0
   35.1470   28.8470   39.8970 H   0  0  0  0  0  0  0  0  0  0  0  0
   36.2390   26.6120   40.0720 H   0  0  0  0  0  0  0  0  0  0  0  0
   35.3070   31.2120   42.2200 H   0  0  0  0  0  0  0  0  0  0  0  0
   35.8280   31.7370   40.5490 H   0  0  0  0  0  0  0  0  0  0  0  0
   39.1620   28.0970   43.3020 C   0  0  0  0  0  3  0  0  0  0  0  0
   40.4060   27.4560   42.8480 C   0  0  0  0  0  2  0  0  0  0  0  0
   39.4210   26.6590   43.6800 C   0  0  0  0  0  2  0  0  0  0  0  0
  1  6  1  0  0  0  0
  2  3  1  0  0  0  0
  2  1  2  0  0  0  0
  3  4  2  0  0  0  0
  4  5  1  0  0  0  0
  5 12  1  0  0  0  0
  6  5  2  0  0  0  0
  7  1  1  0  0  0  0
  7 10  1  0  0  0  0
  8  2  1  0  0  0  0
  9  3  1  0  0  0  0
 11  7  1  0  0  0  0
 12 14  1  0  0  0  0
 13 12  1  0  0  0  0
 13 14  1  0  0  0  0
M  END
>  <minimizedAffinity>
-3.88659906

$$$$

 OpenBabel03242512253D

 14 15  0  0  0  0  0  0  0  0999 V2000
   35.9730   29.5170   40.8920 C   0  0  0  0  0  0  0  0  0  0  0  0
   35.7130   29.1350   39.5520 C   0  0  0  0  0  0  0  0  0  0  0  0
   35.9950   27.8150   39.1620 C   0  0  0  0  0  0  0  0  0  0  0  0
   36.5100   26.9810   40.1250 N   0  0  0  0  0  0  0  0  0  0  0  0
   36.7430   27.3750   41.3810 C   0  0  0  0  0  0  0  0  0  0  0  0
   36.4760   28.6280   41.7500 N   0  0  0  0  0  0  0  0  0  0  0  0
   35.6850   30.8590   41.2860 N   0  0  0  0  0  0  0  0  0  0  0  0
   35.3050   29.8250   38.8210 H   0  0  0  0  0  0  0  0  0  0  0  0
   35.8110   27.4780   38.1440 H   0  0  0  0  0  0  0  0  0  0  0  0
   34.8800   30.8340   41.9530 H   0  0  0  0  0  0  0  0  0  0  0  0
   36.1410   31.7610   41.0100 H   0  0  0  0  0  0  0  0  0  0  0  0
   37.3060   26.3980   42.3610 C   0  0  0  0  0  3  0  0  0  0  0  0
   38.3860   25.4800   41.9690 C   0  0  0  0  0  2  0  0  0  0  0  0
   36.9740   24.9480   42.1090 C   0  0  0  0  0  2  0  0  0  0  0  0
  1  7  1  0  0  0  0
  1  6  1  0  0  0  0
  2  1  2  0  0  0  0
  3  2  1  0  0  0  0
  3  4  2  0  0  0  0
  4  5  1  0  0  0  0
  5  6  2  0  0  0  0
  5 12  1  0  0  0  0
  7 10  1  0  0  0  0
  8  2  1  0  0  0  0
  9  3  1  0  0  0  0
 11  7  1  0  0  0  0
 13 14  1  0  0  0  0
 13 12  1  0  0  0  0
 14 12  1  0  0  0  0
M  END
>  <minimizedAffinity>
-3.88558936

$$$$

 OpenBabel03242512253D

 14 15  0  0  0  0  0  0  0  0999 V2000
   37.2700   28.7210   42.5120 C   0  0  0  0  0  0  0  0  0  0  0  0
   38.5740   28.8510   43.0530 C   0  0  0  0  0  0  0  0  0  0  0  0
   39.3150   27.6860   43.3080 C   0  0  0  0  0  0  0  0  0  0  0  0
   38.7110   26.4880   43.0090 N   0  0  0  0  0  0  0  0  0  0  0  0
   37.4790   26.4020   42.4990 C   0  0  0  0  0  0  0  0  0  0  0  0
   36.7750   27.5080   42.2580 N   0  0  0  0  0  0  0  0  0  0  0  0
   36.5180   29.9070   42.2530 N   0  0  0  0  0  0  0  0  0  0  0  0
   39.0160   29.8170   43.2750 H   0  0  0  0  0  0  0  0  0  0  0  0
   40.3190   27.7390   43.7230 H   0  0  0  0  0  0  0  0  0  0  0  0
   36.4200   30.0080   41.2160 H   0  0  0  0  0  0  0  0  0  0  0  0
   36.1020   30.6070   42.9130 H   0  0  0  0  0  0  0  0  0  0  0  0
   36.9010   25.0560   42.2060 C   0  0  0  0  0  3  0  0  0  0  0  0
   37.7470   23.9760   41.6760 C   0  0  0  0  0  2  0  0  0  0  0  0
   36.7890   24.6920   40.7460 C   0  0  0  0  0  2  0  0  0  0  0  0
  1  2  1  0  0  0  0
  2  8  1  0  0  0  0
  2  3  2  0  0  0  0
  3  9  1  0  0  0  0
  4  3  1  0  0  0  0
  5  4  2  0  0  0  0
  6  5  1  0  0  0  0
  6  1  2  0  0  0  0
  7  1  1  0  0  0  0
  7 11  1  0  0  0  0
 10  7  1  0  0  0  0
 12  5  1  0  0  0  0
 13 12  1  0  0  0  0
 14 13  1  0  0  0  0
 14 12  1  0  0  0  0
M  END
>  <minimizedAffinity>
-3.81684303

$$$$

 OpenBabel03242512253D

 14 15  0  0  0  0  0  0  0  0999 V2000
   37.3700   29.3390   42.4740 C   0  0  0  0  0  0  0  0  0  0  0  0
   38.6970   29.6070   42.8930 C   0  0  0  0  0  0  0  0  0  0  0  0
   39.4120   30.6290   42.2470 C   0  0  0  0  0  0  0  0  0  0  0  0
   38.7600   31.3030   41.2430 N   0  0  0  0  0  0  0  0  0  0  0  0
   37.5060   31.0240   40.8740 C   0  0  0  0  0  0  0  0  0  0  0  0
   36.8280   30.0530   41.4860 N   0  0  0  0  0  0  0  0  0  0  0  0
   36.6440   28.2990   43.1320 N   0  0  0  0  0  0  0  0  0  0  0  0
   39.1770   29.0510   43.6910 H   0  0  0  0  0  0  0  0  0  0  0  0
   40.4330   30.8690   42.5360 H   0  0  0  0  0  0  0  0  0  0  0  0
   35.8730   28.7420   43.6830 H   0  0  0  0  0  0  0  0  0  0  0  0
   36.7860   27.2610   43.1240 H   0  0  0  0  0  0  0  0  0  0  0  0
   36.8760   31.8090   39.7700 C   0  0  0  0  0  3  0  0  0  0  0  0
   37.6330   32.1260   38.5490 C   0  0  0  0  0  2  0  0  0  0  0  0
   37.3990   33.2120   39.5800 C   0  0  0  0  0  2  0  0  0  0  0  0
  1  2  1  0  0  0  0
  1  7  1  0  0  0  0
  2  8  1  0  0  0  0
  3  9  1  0  0  0  0
  3  2  2  0  0  0  0
  4  3  1  0  0  0  0
  5  4  2  0  0  0  0
  5  6  1  0  0  0  0
  6  1  2  0  0  0  0
  7 10  1  0  0  0  0
 11  7  1  0  0  0  0
 12  5  1  0  0  0  0
 13 14  1  0  0  0  0
 13 12  1  0  0  0  0
 14 12  1  0  0  0  0
M  END
>  <minimizedAffinity>
-3.70233464

$$$$

 OpenBabel03242512253D

 14 15  0  0  0  0  0  0  0  0999 V2000
   39.3210   31.2430   41.8180 C   0  0  0  0  0  0  0  0  0  0  0  0
   38.3160   31.6170   40.8900 C   0  0  0  0  0  0  0  0  0  0  0  0
   37.1120   30.8940   40.8770 C   0  0  0  0  0  0  0  0  0  0  0  0
   36.9970   29.8620   41.7780 N   0  0  0  0  0  0  0  0  0  0  0  0
   37.9650   29.5380   42.6390 C   0  0  0  0  0  0  0  0  0  0  0  0
   39.1090   30.2230   42.6520 N   0  0  0  0  0  0  0  0  0  0  0  0
   40.5440   31.9800   41.8300 N   0  0  0  0  0  0  0  0  0  0  0  0
   38.4450   32.4380   40.1940 H   0  0  0  0  0  0  0  0  0  0  0  0
   36.3130   31.1450   40.1820 H   0  0  0  0  0  0  0  0  0  0  0  0
   40.5890   32.5170   42.7270 H   0  0  0  0  0  0  0  0  0  0  0  0
   41.3130   32.0340   41.1200 H   0  0  0  0  0  0  0  0  0  0  0  0
   37.7530   28.4000   43.5840 C   0  0  0  0  0  3  0  0  0  0  0  0
   38.0890   27.0230   43.1880 C   0  0  0  0  0  2  0  0  0  0  0  0
   36.6350   27.4500   43.2280 C   0  0  0  0  0  2  0  0  0  0  0  0
  1  7  1  0  0  0  0
  1  6  1  0  0  0  0
  2  1  2  0  0  0  0
  3  2  1  0  0  0  0
  3  4  2  0  0  0  0
  4  5  1  0  0  0  0
  5  6  2  0  0  0  0
  5 12  1  0  0  0  0
  7 10  1  0  0  0  0
  8  2  1  0  0  0  0
  9  3  1  0  0  0  0
 11  7  1  0  0  0  0
 13 14  1  0  0  0  0
 13 12  1  0  0  0  0
 14 12  1  0  0  0  0
M  END
>  <minimizedAffinity>
-3.70059657

$$$$

 OpenBabel03242512253D

 14 15  0  0  0  0  0  0  0  0999 V2000
   38.7710   24.5070   42.2670 C   0  0  0  0  0  0  0  0  0  0  0  0
   39.9840   24.7020   42.9730 C   0  0  0  0  0  0  0  0  0  0  0  0
   40.1640   25.9030   43.6800 C   0  0  0  0  0  0  0  0  0  0  0  0
   39.1350   26.8110   43.6330 N   0  0  0  0  0  0  0  0  0  0  0  0
   38.0020   26.5930   42.9570 C   0  0  0  0  0  0  0  0  0  0  0  0
   37.8320   25.4540   42.2850 N   0  0  0  0  0  0  0  0  0  0  0  0
   38.5890   23.2850   41.5490 N   0  0  0  0  0  0  0  0  0  0  0  0
   40.7740   23.9590   42.9850 H   0  0  0  0  0  0  0  0  0  0  0  0
   41.0800   26.0950   44.2350 H   0  0  0  0  0  0  0  0  0  0  0  0
   37.8410   22.7350   42.0320 H   0  0  0  0  0  0  0  0  0  0  0  0
   39.0690   22.9230   40.6920 H   0  0  0  0  0  0  0  0  0  0  0  0
   36.9350   27.6390   42.9610 C   0  0  0  0  0  3  0  0  0  0  0  0
   36.4460   28.2180   41.7000 C   0  0  0  0  0  2  0  0  0  0  0  0
   37.3770   29.0300   42.5790 C   0  0  0  0  0  2  0  0  0  0  0  0
  1  6  2  0  0  0  0
  1  2  1  0  0  0  0
  2  8  1  0  0  0  0
  2  3  2  0  0  0  0
  3  9  1  0  0  0  0
  4  3  1  0  0  0  0
  5 12  1  0  0  0  0
  5  4  2  0  0  0  0
  6  5  1  0  0  0  0
  7 10  1  0  0  0  0
  7  1  1  0  0  0  0
 11  7  1  0  0  0  0
 13 14  1  0  0  0  0
 13 12  1  0  0  0  0
 14 12  1  0  0  0  0
M  END
>  <minimizedAffinity>
-3.66125727

$$$$

 OpenBabel03242512253D

 14 15  0  0  0  0  0  0  0  0999 V2000
   36.9840   28.1000   42.6200 C   0  0  0  0  0  0  0  0  0  0  0  0
   36.6080   28.5500   41.3300 C   0  0  0  0  0  0  0  0  0  0  0  0
   36.5310   27.6120   40.2870 C   0  0  0  0  0  0  0  0  0  0  0  0
   36.8320   26.3090   40.6010 N   0  0  0  0  0  0  0  0  0  0  0  0
   37.1830   25.9190   41.8310 C   0  0  0  0  0  0  0  0  0  0  0  0
   37.2570   26.8090   42.8200 N   0  0  0  0  0  0  0  0  0  0  0  0
   37.0610   29.0550   43.6800 N   0  0  0  0  0  0  0  0  0  0  0  0
   36.3780   29.5900   41.1220 H   0  0  0  0  0  0  0  0  0  0  0  0
   36.2470   27.9130   39.2810 H   0  0  0  0  0  0  0  0  0  0  0  0
   36.2900   28.8500   44.3560 H   0  0  0  0  0  0  0  0  0  0  0  0
   37.7290   29.8480   43.8330 H   0  0  0  0  0  0  0  0  0  0  0  0
   37.4930   24.4790   42.0810 C   0  0  0  0  0  3  0  0  0  0  0  0
   38.6550   23.8400   41.4430 C   0  0  0  0  0  2  0  0  0  0  0  0
   37.2640   23.5460   40.9180 C   0  0  0  0  0  2  0  0  0  0  0  0
  1  6  1  0  0  0  0
  1  7  1  0  0  0  0
  2  1  2  0  0  0  0
  3  4  2  0  0  0  0
  3  2  1  0  0  0  0
  4  5  1  0  0  0  0
  5 12  1  0  0  0  0
  5  6  2  0  0  0  0
  7 11  1  0  0  0  0
  7 10  1  0  0  0  0
  8  2  1  0  0  0  0
  9  3  1  0  0  0  0
 13 12  1  0  0  0  0
 14 13  1  0  0  0  0
 14 12  1  0  0  0  0
M  END
>  <minimizedAffinity>
-3.64134336

$$$$

 OpenBabel03242512253D

 14 15  0  0  0  0  0  0  0  0999 V2000
   37.0600   32.0660   39.8320 C   0  0  0  0  0  0  0  0  0  0  0  0
   37.0650   31.4220   38.5690 C   0  0  0  0  0  0  0  0  0  0  0  0
   37.1250   30.0200   38.5300 C   0  0  0  0  0  0  0  0  0  0  0  0
   37.1750   29.3660   39.7380 N   0  0  0  0  0  0  0  0  0  0  0  0
   37.1680   30.0060   40.9120 C   0  0  0  0  0  0  0  0  0  0  0  0
   37.1120   31.3370   40.9490 N   0  0  0  0  0  0  0  0  0  0  0  0
   36.9980   33.4920   39.8700 N   0  0  0  0  0  0  0  0  0  0  0  0
   37.0240   31.9750   37.6370 H   0  0  0  0  0  0  0  0  0  0  0  0
   37.1320   29.4840   37.5830 H   0  0  0  0  0  0  0  0  0  0  0  0
   36.0670   33.7650   40.2620 H   0  0  0  0  0  0  0  0  0  0  0  0
   37.7030   34.2110   39.5810 H   0  0  0  0  0  0  0  0  0  0  0  0
   37.2250   29.2130   42.1770 C   0  0  0  0  0  3  0  0  0  0  0  0
   38.3680   29.3440   43.0930 C   0  0  0  0  0  2  0  0  0  0  0  0
   38.2580   28.1130   42.2170 C   0  0  0  0  0  2  0  0  0  0  0  0
  1  7  1  0  0  0  0
  1  6  1  0  0  0  0
  2  1  2  0  0  0  0
  3  2  1  0  0  0  0
  3  4  2  0  0  0  0
  4  5  1  0  0  0  0
  5  6  2  0  0  0  0
  5 12  1  0  0  0  0
  7 10  1  0  0  0  0
  8  2  1  0  0  0  0
  9  3  1  0  0  0  0
 11  7  1  0  0  0  0
 12 14  1  0  0  0  0
 12 13  1  0  0  0  0
 14 13  1  0  0  0  0
M  END
>  <minimizedAffinity>
-3.53936768

$$$$
