
 OpenBabel03252509213D

 19 21  0  0  0  0  0  0  0  0999 V2000
   44.5200   35.3740   44.5210 C   0  0  0  0  0  0  0  0  0  0  0  0
   45.2540   34.7430   43.4860 C   0  0  0  0  0  0  0  0  0  0  0  0
   46.1110   33.7290   43.9150 C   0  0  0  0  0  0  0  0  0  0  0  0
   46.2110   33.3890   45.2520 N   0  0  0  0  0  0  0  0  0  0  0  0
   45.4830   34.0290   46.1840 C   0  0  0  0  0  0  0  0  0  0  0  0
   44.6470   35.0120   45.8130 N   0  0  0  0  0  0  0  0  0  0  0  0
   43.8520   36.1570   44.2390 H   0  0  0  0  0  0  0  0  0  0  0  0
   45.6900   33.6320   47.1660 H   0  0  0  0  0  0  0  0  0  0  0  0
   46.8540   32.9650   42.8440 C   0  0  0  0  0  0  0  0  0  0  0  0
   48.3430   33.3340   42.8360 C   0  0  0  0  0  0  0  0  0  0  0  0
   47.7760   31.9430   43.2690 C   0  0  0  0  0  0  0  0  0  0  0  0
   46.4530   33.1710   41.8400 H   0  0  0  0  0  0  0  0  0  0  0  0
   48.8810   33.3620   41.8830 H   0  0  0  0  0  0  0  0  0  0  0  0
   48.7080   33.9720   43.6400 H   0  0  0  0  0  0  0  0  0  0  0  0
   48.0340   31.1280   42.5360 H   0  0  0  0  0  0  0  0  0  0  0  0
   47.9860   31.6890   44.3150 H   0  0  0  0  0  0  0  0  0  0  0  0
   45.1490   35.1020   42.0650 C   0  0  0  0  0  3  0  0  0  0  0  0
   44.0730   34.3380   41.3200 C   0  0  0  0  0  2  0  0  0  0  0  0
   43.9630   35.8240   41.5420 C   0  0  0  0  0  2  0  0  0  0  0  0
  1  6  1  0  0  0  0
  2  3  1  0  0  0  0
  2  1  2  0  0  0  0
  3  4  2  0  0  0  0
  4  5  1  0  0  0  0
  5  8  1  0  0  0  0
  6  5  2  0  0  0  0
  7  1  1  0  0  0  0
  9 11  1  0  0  0  0
  9  3  1  0  0  0  0
 10  9  1  0  0  0  0
 10 11  1  0  0  0  0
 10 14  1  0  0  0  0
 11 16  1  0  0  0  0
 12  9  1  0  0  0  0
 13 10  1  0  0  0  0
 15 11  1  0  0  0  0
 17  2  1  0  0  0  0
 18 19  1  0  0  0  0
 18 17  1  0  0  0  0
 19 17  1  0  0  0  0
M  END
>  <minimizedAffinity>
-3.39410496

>  <minimizedRMSD>
1.74466217

$$$$
