
 OpenBabel03252506183D

 17 18  0  0  0  0  0  0  0  0999 V2000
   44.8250   35.7530   43.7000 C   0  0  0  0  0  0  0  0  0  0  0  0
   44.2610   35.6070   42.4070 C   0  0  0  0  0  0  0  0  0  0  0  0
   44.2180   34.3190   41.8480 C   0  0  0  0  0  0  0  0  0  0  0  0
   44.7210   33.2800   42.5790 N   0  0  0  0  0  0  0  0  0  0  0  0
   45.2560   33.4600   43.8190 C   0  0  0  0  0  0  0  0  0  0  0  0
   45.2950   34.6990   44.3520 N   0  0  0  0  0  0  0  0  0  0  0  0
   43.8600   36.4310   41.8240 H   0  0  0  0  0  0  0  0  0  0  0  0
   43.7990   34.1550   40.8690 H   0  0  0  0  0  0  0  0  0  0  0  0
   45.8030   32.3460   44.6190 C   0  0  0  0  0  0  0  0  0  0  0  0
   47.2760   32.0510   44.4710 C   0  0  0  0  0  0  0  0  0  0  0  0
   46.7890   32.7120   45.7400 C   0  0  0  0  0  0  0  0  0  0  0  0
   44.8610   37.0950   44.2610 C   0  0  0  0  0  0  0  0  0  0  0  0
   45.3660   38.0830   43.5150 C   0  0  0  0  0  0  0  0  0  0  0  0
   45.4350   39.4750   44.0150 C   0  0  0  0  0  0  0  0  0  0  0  0
   46.2900   39.6500   44.7000 H   0  0  0  0  0  0  0  0  0  0  0  0
   45.5210   40.1690   43.1570 H   0  0  0  0  0  0  0  0  0  0  0  0
   44.4660   39.7330   44.5160 H   0  0  0  0  0  0  0  0  0  0  0  0
  1 12  1  0  0  0  0
  1  6  1  0  0  0  0
  2  1  2  0  0  0  0
  3  2  1  0  0  0  0
  3  4  2  0  0  0  0
  4  5  1  0  0  0  0
  5  6  2  0  0  0  0
  5  9  1  0  0  0  0
  7  2  1  0  0  0  0
  8  3  1  0  0  0  0
  9 11  1  0  0  0  0
 10  9  1  0  0  0  0
 10 11  1  0  0  0  0
 13 14  1  0  0  0  0
 13 12  2  0  0  0  0
 14 17  1  0  0  0  0
 14 15  1  0  0  0  0
 16 14  1  0  0  0  0
M  END
>  <minimizedAffinity>
-3.00214553

>  <minimizedRMSD>
0.388272166

$$$$
