
 OpenBabel03252505593D

 30 32  0  0  0  0  0  0  0  0999 V2000
   37.1220   30.3710   38.1950 C   0  0  0  0  0  0  0  0  0  0  0  0
   37.9000   29.6160   37.9130 H   0  0  0  0  0  0  0  0  0  0  0  0
   36.7040   30.8500   37.2840 H   0  0  0  0  0  0  0  0  0  0  0  0
   37.6320   31.4230   39.0720 C   0  0  0  0  0  0  0  0  0  0  0  0
   37.3020   32.7730   39.1320 C   0  0  0  0  0  0  0  0  0  0  0  0
   37.9440   33.5410   40.0640 C   0  0  0  0  0  0  0  0  0  0  0  0
   38.8560   33.0430   40.8980 N   0  0  0  0  0  0  0  0  0  0  0  0
   39.1640   31.7400   40.8290 C   0  0  0  0  0  0  0  0  0  0  0  0
   38.5600   30.9160   39.9200 N   0  0  0  0  0  0  0  0  0  0  0  0
   36.5560   33.0330   38.4040 H   0  0  0  0  0  0  0  0  0  0  0  0
   37.6420   34.5900   40.0610 H   0  0  0  0  0  0  0  0  0  0  0  0
   40.1950   31.2800   41.8050 C   0  0  0  0  0  0  0  0  0  0  0  0
   39.6910   31.2510   43.0810 F   0  0  0  0  0  0  0  0  0  0  0  0
   41.3070   32.1160   41.7550 F   0  0  0  0  0  0  0  0  0  0  0  0
   40.6410   30.0060   41.5030 F   0  0  0  0  0  0  0  0  0  0  0  0
   36.0920   29.6940   38.8830 O   0  0  0  0  0  0  0  0  0  0  0  0
   36.5290   26.2100   39.4330 C   0  0  0  0  0  0  0  0  0  0  0  0
   36.8380   26.1150   40.7890 C   0  0  0  0  0  0  0  0  0  0  0  0
   36.8860   27.3180   41.4960 C   0  0  0  0  0  0  0  0  0  0  0  0
   36.6440   28.4810   40.8770 N   0  0  0  0  0  0  0  0  0  0  0  0
   36.3510   28.5170   39.5690 C   0  0  0  0  0  0  0  0  0  0  0  0
   36.2930   27.3960   38.8550 N   0  0  0  0  0  0  0  0  0  0  0  0
   36.4740   25.3160   38.8210 H   0  0  0  0  0  0  0  0  0  0  0  0
   37.0940   24.7910   41.4070 C   0  0  0  0  0  0  0  0  0  0  0  0
   38.4740   24.7450   41.5350 F   0  0  0  0  0  0  0  0  0  0  0  0
   36.7120   23.8340   40.4580 F   0  0  0  0  0  0  0  0  0  0  0  0
   36.4300   24.6690   42.5730 F   0  0  0  0  0  0  0  0  0  0  0  0
   37.2140   27.2720   42.9510 C   0  0  0  0  0  3  0  0  0  0  0  0
   37.5950   28.5130   43.6790 C   0  0  0  0  0  2  0  0  0  0  0  0
   38.7040   27.6280   43.2390 C   0  0  0  0  0  2  0  0  0  0  0  0
  1 16  1  0  0  0  0
  1  4  1  0  0  0  0
  2  1  1  0  0  0  0
  3  1  1  0  0  0  0
  4  5  2  0  0  0  0
  4  9  1  0  0  0  0
  5  6  1  0  0  0  0
  6  7  2  0  0  0  0
  8  7  1  0  0  0  0
  8 12  1  0  0  0  0
  9  8  2  0  0  0  0
 10  5  1  0  0  0  0
 11  6  1  0  0  0  0
 12 13  1  0  0  0  0
 14 12  1  0  0  0  0
 15 12  1  0  0  0  0
 16 21  1  0  0  0  0
 17 18  1  0  0  0  0
 18 24  1  0  0  0  0
 18 19  2  0  0  0  0
 19 28  1  0  0  0  0
 20 19  1  0  0  0  0
 21 20  2  0  0  0  0
 22 17  2  0  0  0  0
 22 21  1  0  0  0  0
 23 17  1  0  0  0  0
 24 25  1  0  0  0  0
 24 27  1  0  0  0  0
 26 24  1  0  0  0  0
 28 30  1  0  0  0  0
 28 29  1  0  0  0  0
 30 29  1  0  0  0  0
M  END
>  <minimizedAffinity>
-5.63948393

$$$$

 OpenBabel03252505593D

 30 32  0  0  0  0  0  0  0  0999 V2000
   37.7140   28.1320   43.5600 C   0  0  0  0  0  0  0  0  0  0  0  0
   37.3600   28.1770   44.6210 H   0  0  0  0  0  0  0  0  0  0  0  0
   36.8590   28.2640   42.8630 H   0  0  0  0  0  0  0  0  0  0  0  0
   38.3840   26.8760   43.2290 C   0  0  0  0  0  0  0  0  0  0  0  0
   39.6290   26.3970   43.6230 C   0  0  0  0  0  0  0  0  0  0  0  0
   40.0120   25.1700   43.1570 C   0  0  0  0  0  0  0  0  0  0  0  0
   39.2420   24.4360   42.3550 N   0  0  0  0  0  0  0  0  0  0  0  0
   38.0450   24.9100   41.9830 C   0  0  0  0  0  0  0  0  0  0  0  0
   37.6010   26.1300   42.4120 N   0  0  0  0  0  0  0  0  0  0  0  0
   40.1370   27.0910   44.2660 H   0  0  0  0  0  0  0  0  0  0  0  0
   40.9980   24.8500   43.5020 H   0  0  0  0  0  0  0  0  0  0  0  0
   37.2590   24.0130   41.0850 C   0  0  0  0  0  0  0  0  0  0  0  0
   37.7750   22.7410   41.0800 F   0  0  0  0  0  0  0  0  0  0  0  0
   37.2500   24.5240   39.7900 F   0  0  0  0  0  0  0  0  0  0  0  0
   35.9400   23.9280   41.4890 F   0  0  0  0  0  0  0  0  0  0  0  0
   38.6400   29.1810   43.3680 O   0  0  0  0  0  0  0  0  0  0  0  0
   39.3590   31.9310   41.2360 C   0  0  0  0  0  0  0  0  0  0  0  0
   38.3520   31.8870   40.2710 C   0  0  0  0  0  0  0  0  0  0  0  0
   37.4190   30.8570   40.4020 C   0  0  0  0  0  0  0  0  0  0  0  0
   37.5120   29.9780   41.4080 N   0  0  0  0  0  0  0  0  0  0  0  0
   38.5000   30.0650   42.3090 C   0  0  0  0  0  0  0  0  0  0  0  0
   39.4130   31.0300   42.2250 N   0  0  0  0  0  0  0  0  0  0  0  0
   40.1190   32.7040   41.1970 H   0  0  0  0  0  0  0  0  0  0  0  0
   38.3130   32.8960   39.1840 C   0  0  0  0  0  0  0  0  0  0  0  0
   39.2730   33.8240   39.5580 F   0  0  0  0  0  0  0  0  0  0  0  0
   37.0580   33.5110   39.2640 F   0  0  0  0  0  0  0  0  0  0  0  0
   38.5420   32.3210   37.9870 F   0  0  0  0  0  0  0  0  0  0  0  0
   36.3210   30.7640   39.3940 C   0  0  0  0  0  3  0  0  0  0  0  0
   35.4820   29.5380   39.3030 C   0  0  0  0  0  2  0  0  0  0  0  0
   36.5880   29.6670   38.3200 C   0  0  0  0  0  2  0  0  0  0  0  0
  1  2  1  0  0  0  0
  3  1  1  0  0  0  0
  4  1  1  0  0  0  0
  4  5  1  0  0  0  0
  5 10  1  0  0  0  0
  6 11  1  0  0  0  0
  6  5  2  0  0  0  0
  7  6  1  0  0  0  0
  8  7  2  0  0  0  0
  8  9  1  0  0  0  0
  9  4  2  0  0  0  0
 12 15  1  0  0  0  0
 12  8  1  0  0  0  0
 13 12  1  0  0  0  0
 14 12  1  0  0  0  0
 16  1  1  0  0  0  0
 17 22  1  0  0  0  0
 18 19  1  0  0  0  0
 18 17  2  0  0  0  0
 19 20  2  0  0  0  0
 20 21  1  0  0  0  0
 21 16  1  0  0  0  0
 22 21  2  0  0  0  0
 23 17  1  0  0  0  0
 24 26  1  0  0  0  0
 24 25  1  0  0  0  0
 24 18  1  0  0  0  0
 27 24  1  0  0  0  0
 28 19  1  0  0  0  0
 29 28  1  0  0  0  0
 30 29  1  0  0  0  0
 30 28  1  0  0  0  0
M  END
>  <minimizedAffinity>
-5.60225534

$$$$

 OpenBabel03252505593D

 30 32  0  0  0  0  0  0  0  0999 V2000
   36.8450   30.0210   37.9410 C   0  0  0  0  0  0  0  0  0  0  0  0
   37.5690   29.2250   37.6320 H   0  0  0  0  0  0  0  0  0  0  0  0
   36.2990   30.4090   37.0540 H   0  0  0  0  0  0  0  0  0  0  0  0
   37.4830   31.1500   38.6150 C   0  0  0  0  0  0  0  0  0  0  0  0
   36.9930   31.9880   39.6110 C   0  0  0  0  0  0  0  0  0  0  0  0
   37.8170   32.9790   40.0680 C   0  0  0  0  0  0  0  0  0  0  0  0
   39.0500   33.1590   39.5950 N   0  0  0  0  0  0  0  0  0  0  0  0
   39.5090   32.3450   38.6350 C   0  0  0  0  0  0  0  0  0  0  0  0
   38.7360   31.3330   38.1340 N   0  0  0  0  0  0  0  0  0  0  0  0
   35.9900   31.7260   39.8940 H   0  0  0  0  0  0  0  0  0  0  0  0
   37.3750   33.6020   40.8480 H   0  0  0  0  0  0  0  0  0  0  0  0
   40.9000   32.6280   38.1740 C   0  0  0  0  0  0  0  0  0  0  0  0
   41.2380   33.9400   38.3960 F   0  0  0  0  0  0  0  0  0  0  0  0
   41.0240   32.3320   36.8190 F   0  0  0  0  0  0  0  0  0  0  0  0
   41.8210   31.8410   38.8400 F   0  0  0  0  0  0  0  0  0  0  0  0
   35.9240   29.4420   38.8410 O   0  0  0  0  0  0  0  0  0  0  0  0
   36.6020   26.0160   39.5010 C   0  0  0  0  0  0  0  0  0  0  0  0
   36.8980   25.9840   40.8640 C   0  0  0  0  0  0  0  0  0  0  0  0
   36.8500   27.2080   41.5340 C   0  0  0  0  0  0  0  0  0  0  0  0
   36.5330   28.3310   40.8770 N   0  0  0  0  0  0  0  0  0  0  0  0
   36.2570   28.3070   39.5650 C   0  0  0  0  0  0  0  0  0  0  0  0
   36.2900   27.1640   38.8850 N   0  0  0  0  0  0  0  0  0  0  0  0
   36.6200   25.1030   38.9160 H   0  0  0  0  0  0  0  0  0  0  0  0
   37.2410   24.7000   41.5240 C   0  0  0  0  0  0  0  0  0  0  0  0
   36.8550   23.7390   40.6030 F   0  0  0  0  0  0  0  0  0  0  0  0
   36.4010   24.5970   42.6400 F   0  0  0  0  0  0  0  0  0  0  0  0
   38.5490   24.6600   41.8440 F   0  0  0  0  0  0  0  0  0  0  0  0
   37.1600   27.2290   42.9940 C   0  0  0  0  0  3  0  0  0  0  0  0
   37.4890   28.5090   43.6780 C   0  0  0  0  0  2  0  0  0  0  0  0
   38.6330   27.6470   43.2850 C   0  0  0  0  0  2  0  0  0  0  0  0
  1  4  1  0  0  0  0
  1 16  1  0  0  0  0
  2  1  1  0  0  0  0
  3  1  1  0  0  0  0
  4  5  1  0  0  0  0
  5 10  1  0  0  0  0
  5  6  2  0  0  0  0
  6 11  1  0  0  0  0
  7  6  1  0  0  0  0
  8  7  2  0  0  0  0
  9  4  2  0  0  0  0
  9  8  1  0  0  0  0
 12 13  1  0  0  0  0
 12  8  1  0  0  0  0
 12 15  1  0  0  0  0
 14 12  1  0  0  0  0
 16 21  1  0  0  0  0
 17 18  1  0  0  0  0
 18 24  1  0  0  0  0
 18 19  2  0  0  0  0
 19 28  1  0  0  0  0
 20 19  1  0  0  0  0
 21 20  2  0  0  0  0
 22 17  2  0  0  0  0
 22 21  1  0  0  0  0
 23 17  1  0  0  0  0
 24 27  1  0  0  0  0
 24 26  1  0  0  0  0
 25 24  1  0  0  0  0
 28 30  1  0  0  0  0
 28 29  1  0  0  0  0
 30 29  1  0  0  0  0
M  END
>  <minimizedAffinity>
-5.58572102

$$$$

 OpenBabel03252505593D

 30 32  0  0  0  0  0  0  0  0999 V2000
   37.5980   28.0040   43.6800 C   0  0  0  0  0  0  0  0  0  0  0  0
   38.2670   28.8280   44.0370 H   0  0  0  0  0  0  0  0  0  0  0  0
   36.8680   27.7310   44.4710 H   0  0  0  0  0  0  0  0  0  0  0  0
   38.3270   26.7970   43.2940 C   0  0  0  0  0  0  0  0  0  0  0  0
   39.5880   26.3550   43.6800 C   0  0  0  0  0  0  0  0  0  0  0  0
   40.0310   25.1710   43.1570 C   0  0  0  0  0  0  0  0  0  0  0  0
   39.3040   24.4460   42.3080 N   0  0  0  0  0  0  0  0  0  0  0  0
   38.0910   24.8850   41.9440 C   0  0  0  0  0  0  0  0  0  0  0  0
   37.5870   26.0610   42.4300 N   0  0  0  0  0  0  0  0  0  0  0  0
   40.0570   27.0360   44.3650 H   0  0  0  0  0  0  0  0  0  0  0  0
   41.0260   24.8780   43.4980 H   0  0  0  0  0  0  0  0  0  0  0  0
   37.3560   24.0030   40.9910 C   0  0  0  0  0  0  0  0  0  0  0  0
   37.5800   24.3820   39.6910 F   0  0  0  0  0  0  0  0  0  0  0  0
   35.9910   24.0360   41.2640 F   0  0  0  0  0  0  0  0  0  0  0  0
   37.7550   22.6850   41.1160 F   0  0  0  0  0  0  0  0  0  0  0  0
   36.9040   28.4730   42.5430 O   0  0  0  0  0  0  0  0  0  0  0  0
   36.6780   31.5450   40.7710 C   0  0  0  0  0  0  0  0  0  0  0  0
   38.0060   31.9000   40.5340 C   0  0  0  0  0  0  0  0  0  0  0  0
   38.9750   31.0200   41.0200 C   0  0  0  0  0  0  0  0  0  0  0  0
   38.6170   29.9070   41.6720 N   0  0  0  0  0  0  0  0  0  0  0  0
   37.3250   29.6120   41.8750 C   0  0  0  0  0  0  0  0  0  0  0  0
   36.3660   30.4200   41.4300 N   0  0  0  0  0  0  0  0  0  0  0  0
   35.8710   32.1810   40.4230 H   0  0  0  0  0  0  0  0  0  0  0  0
   38.3260   33.1510   39.8030 C   0  0  0  0  0  0  0  0  0  0  0  0
   38.8680   33.9760   40.7760 F   0  0  0  0  0  0  0  0  0  0  0  0
   37.1000   33.6960   39.4020 F   0  0  0  0  0  0  0  0  0  0  0  0
   39.1540   32.9030   38.7690 F   0  0  0  0  0  0  0  0  0  0  0  0
   40.4120   31.3540   40.7930 C   0  0  0  0  0  3  0  0  0  0  0  0
   41.4820   30.4060   41.2060 C   0  0  0  0  0  2  0  0  0  0  0  0
   41.1990   31.5390   42.1250 C   0  0  0  0  0  2  0  0  0  0  0  0
  1  2  1  0  0  0  0
  1  3  1  0  0  0  0
  4  1  1  0  0  0  0
  4  5  1  0  0  0  0
  5 10  1  0  0  0  0
  6 11  1  0  0  0  0
  6  5  2  0  0  0  0
  7  6  1  0  0  0  0
  8  7  2  0  0  0  0
  8  9  1  0  0  0  0
  9  4  2  0  0  0  0
 12 15  1  0  0  0  0
 12 14  1  0  0  0  0
 12  8  1  0  0  0  0
 13 12  1  0  0  0  0
 16  1  1  0  0  0  0
 17 22  1  0  0  0  0
 18 17  2  0  0  0  0
 18 19  1  0  0  0  0
 19 20  2  0  0  0  0
 20 21  1  0  0  0  0
 21 16  1  0  0  0  0
 22 21  2  0  0  0  0
 23 17  1  0  0  0  0
 24 18  1  0  0  0  0
 24 25  1  0  0  0  0
 26 24  1  0  0  0  0
 27 24  1  0  0  0  0
 28 19  1  0  0  0  0
 28 29  1  0  0  0  0
 28 30  1  0  0  0  0
 29 30  1  0  0  0  0
M  END
>  <minimizedAffinity>
-5.55525398

$$$$

 OpenBabel03252505593D

 30 32  0  0  0  0  0  0  0  0999 V2000
   40.2290   30.7530   42.6710 C   0  0  0  0  0  0  0  0  0  0  0  0
   40.5010   31.2700   43.6270 H   0  0  0  0  0  0  0  0  0  0  0  0
   40.9500   29.9350   42.4580 H   0  0  0  0  0  0  0  0  0  0  0  0
   40.2030   31.6510   41.5180 C   0  0  0  0  0  0  0  0  0  0  0  0
   41.2400   32.3430   40.9020 C   0  0  0  0  0  0  0  0  0  0  0  0
   40.9280   33.1240   39.8240 C   0  0  0  0  0  0  0  0  0  0  0  0
   39.6850   33.2390   39.3580 N   0  0  0  0  0  0  0  0  0  0  0  0
   38.6950   32.5670   39.9630 C   0  0  0  0  0  0  0  0  0  0  0  0
   38.9380   31.7680   41.0450 N   0  0  0  0  0  0  0  0  0  0  0  0
   42.1830   32.1570   41.3810 H   0  0  0  0  0  0  0  0  0  0  0  0
   41.7840   33.6400   39.3840 H   0  0  0  0  0  0  0  0  0  0  0  0
   37.3410   32.7610   39.3660 C   0  0  0  0  0  0  0  0  0  0  0  0
   36.9180   34.0600   39.5060 F   0  0  0  0  0  0  0  0  0  0  0  0
   36.4260   31.9000   39.9670 F   0  0  0  0  0  0  0  0  0  0  0  0
   37.3380   32.4650   38.0160 F   0  0  0  0  0  0  0  0  0  0  0  0
   38.9360   30.2090   42.8260 O   0  0  0  0  0  0  0  0  0  0  0  0
   37.1310   27.1600   42.5460 C   0  0  0  0  0  0  0  0  0  0  0  0
   38.1190   26.1970   42.3450 C   0  0  0  0  0  0  0  0  0  0  0  0
   39.4350   26.6610   42.3120 C   0  0  0  0  0  0  0  0  0  0  0  0
   39.7010   27.9650   42.4690 N   0  0  0  0  0  0  0  0  0  0  0  0
   38.7130   28.8510   42.6590 C   0  0  0  0  0  0  0  0  0  0  0  0
   37.4430   28.4540   42.6980 N   0  0  0  0  0  0  0  0  0  0  0  0
   36.0860   26.8720   42.5830 H   0  0  0  0  0  0  0  0  0  0  0  0
   37.7490   24.7690   42.1800 C   0  0  0  0  0  0  0  0  0  0  0  0
   37.8420   24.5580   40.8130 F   0  0  0  0  0  0  0  0  0  0  0  0
   36.4010   24.6680   42.5460 F   0  0  0  0  0  0  0  0  0  0  0  0
   38.5540   23.9770   42.9140 F   0  0  0  0  0  0  0  0  0  0  0  0
   40.5310   25.6700   42.0990 C   0  0  0  0  0  3  0  0  0  0  0  0
   41.8950   26.1240   41.7110 C   0  0  0  0  0  2  0  0  0  0  0  0
   41.0180   25.6280   40.6190 C   0  0  0  0  0  2  0  0  0  0  0  0
  1 16  1  0  0  0  0
  1  2  1  0  0  0  0
  3  1  1  0  0  0  0
  4  1  1  0  0  0  0
  5 10  1  0  0  0  0
  5  4  2  0  0  0  0
  6  5  1  0  0  0  0
  7  6  2  0  0  0  0
  7  8  1  0  0  0  0
  8  9  2  0  0  0  0
  9  4  1  0  0  0  0
 11  6  1  0  0  0  0
 12 13  1  0  0  0  0
 12  8  1  0  0  0  0
 12 14  1  0  0  0  0
 15 12  1  0  0  0  0
 17 23  1  0  0  0  0
 17 22  1  0  0  0  0
 18 17  2  0  0  0  0
 19 18  1  0  0  0  0
 19 20  2  0  0  0  0
 20 21  1  0  0  0  0
 21 22  2  0  0  0  0
 21 16  1  0  0  0  0
 24 18  1  0  0  0  0
 24 26  1  0  0  0  0
 24 27  1  0  0  0  0
 25 24  1  0  0  0  0
 28 19  1  0  0  0  0
 29 28  1  0  0  0  0
 30 29  1  0  0  0  0
 30 28  1  0  0  0  0
M  END
>  <minimizedAffinity>
-5.50155258

$$$$

 OpenBabel03252505593D

 30 32  0  0  0  0  0  0  0  0999 V2000
   36.7230   29.4800   37.5370 C   0  0  0  0  0  0  0  0  0  0  0  0
   36.8760   28.5420   36.9440 H   0  0  0  0  0  0  0  0  0  0  0  0
   36.1580   30.2260   36.9370 H   0  0  0  0  0  0  0  0  0  0  0  0
   37.9750   30.0970   37.9720 C   0  0  0  0  0  0  0  0  0  0  0  0
   39.2890   29.6920   37.7640 C   0  0  0  0  0  0  0  0  0  0  0  0
   40.2820   30.4700   38.2910 C   0  0  0  0  0  0  0  0  0  0  0  0
   40.0310   31.5810   38.9830 N   0  0  0  0  0  0  0  0  0  0  0  0
   38.7600   31.9590   39.1770 C   0  0  0  0  0  0  0  0  0  0  0  0
   37.7190   31.2260   38.6760 N   0  0  0  0  0  0  0  0  0  0  0  0
   39.3410   28.7850   37.1920 H   0  0  0  0  0  0  0  0  0  0  0  0
   41.2900   30.1000   38.0940 H   0  0  0  0  0  0  0  0  0  0  0  0
   38.5840   33.2150   39.9630 C   0  0  0  0  0  0  0  0  0  0  0  0
   37.3190   33.7250   39.8070 F   0  0  0  0  0  0  0  0  0  0  0  0
   39.5260   34.1610   39.5680 F   0  0  0  0  0  0  0  0  0  0  0  0
   38.7820   32.9950   41.3140 F   0  0  0  0  0  0  0  0  0  0  0  0
   35.9800   29.1470   38.6900 O   0  0  0  0  0  0  0  0  0  0  0  0
   36.7710   25.7800   39.5080 C   0  0  0  0  0  0  0  0  0  0  0  0
   37.0170   25.8120   40.8810 C   0  0  0  0  0  0  0  0  0  0  0  0
   36.8940   27.0570   41.5000 C   0  0  0  0  0  0  0  0  0  0  0  0
   36.5570   28.1410   40.7880 N   0  0  0  0  0  0  0  0  0  0  0  0
   36.3320   28.0560   39.4700 C   0  0  0  0  0  0  0  0  0  0  0  0
   36.4360   26.8900   38.8360 N   0  0  0  0  0  0  0  0  0  0  0  0
   36.8480   24.8470   38.9610 H   0  0  0  0  0  0  0  0  0  0  0  0
   37.3860   24.5700   41.6030 C   0  0  0  0  0  0  0  0  0  0  0  0
   37.1510   23.5650   40.6770 F   0  0  0  0  0  0  0  0  0  0  0  0
   36.4580   24.4300   42.6430 F   0  0  0  0  0  0  0  0  0  0  0  0
   38.6600   24.6290   42.0390 F   0  0  0  0  0  0  0  0  0  0  0  0
   37.1470   27.1460   42.9680 C   0  0  0  0  0  3  0  0  0  0  0  0
   37.3180   28.4700   43.6270 C   0  0  0  0  0  2  0  0  0  0  0  0
   38.5580   27.7210   43.2970 C   0  0  0  0  0  2  0  0  0  0  0  0
  1  4  1  0  0  0  0
  1 16  1  0  0  0  0
  2  1  1  0  0  0  0
  3  1  1  0  0  0  0
  4  9  1  0  0  0  0
  5  4  2  0  0  0  0
  5  6  1  0  0  0  0
  6  7  2  0  0  0  0
  7  8  1  0  0  0  0
  8 12  1  0  0  0  0
  9  8  2  0  0  0  0
 10  5  1  0  0  0  0
 11  6  1  0  0  0  0
 12 15  1  0  0  0  0
 13 12  1  0  0  0  0
 14 12  1  0  0  0  0
 16 21  1  0  0  0  0
 17 18  1  0  0  0  0
 18 19  2  0  0  0  0
 18 24  1  0  0  0  0
 19 28  1  0  0  0  0
 20 19  1  0  0  0  0
 21 20  2  0  0  0  0
 22 21  1  0  0  0  0
 22 17  2  0  0  0  0
 23 17  1  0  0  0  0
 24 27  1  0  0  0  0
 24 26  1  0  0  0  0
 25 24  1  0  0  0  0
 28 30  1  0  0  0  0
 28 29  1  0  0  0  0
 30 29  1  0  0  0  0
M  END
>  <minimizedAffinity>
-5.41396809

$$$$

 OpenBabel03252505593D

 30 32  0  0  0  0  0  0  0  0999 V2000
   36.4090   30.8210   40.5160 C   0  0  0  0  0  0  0  0  0  0  0  0
   36.3830   30.1550   39.6160 H   0  0  0  0  0  0  0  0  0  0  0  0
   35.4510   31.3750   40.6120 H   0  0  0  0  0  0  0  0  0  0  0  0
   37.4980   31.7940   40.4810 C   0  0  0  0  0  0  0  0  0  0  0  0
   37.5320   33.0780   39.9470 C   0  0  0  0  0  0  0  0  0  0  0  0
   38.7010   33.7790   40.0560 C   0  0  0  0  0  0  0  0  0  0  0  0
   39.7850   33.2770   40.6450 N   0  0  0  0  0  0  0  0  0  0  0  0
   39.7400   32.0380   41.1540 C   0  0  0  0  0  0  0  0  0  0  0  0
   38.6020   31.2820   41.0800 N   0  0  0  0  0  0  0  0  0  0  0  0
   36.5910   33.3500   39.5060 H   0  0  0  0  0  0  0  0  0  0  0  0
   38.6630   34.7790   39.6180 H   0  0  0  0  0  0  0  0  0  0  0  0
   41.0030   31.5680   41.7930 C   0  0  0  0  0  0  0  0  0  0  0  0
   41.9630   32.5490   41.7760 F   0  0  0  0  0  0  0  0  0  0  0  0
   41.4770   30.4340   41.1380 F   0  0  0  0  0  0  0  0  0  0  0  0
   40.7970   31.2080   43.1120 F   0  0  0  0  0  0  0  0  0  0  0  0
   36.5930   30.0040   41.6530 O   0  0  0  0  0  0  0  0  0  0  0  0
   37.3040   26.6490   42.5860 C   0  0  0  0  0  0  0  0  0  0  0  0
   37.0760   25.9160   41.4210 C   0  0  0  0  0  0  0  0  0  0  0  0
   36.6650   26.6470   40.3040 C   0  0  0  0  0  0  0  0  0  0  0  0
   36.5090   27.9740   40.3790 N   0  0  0  0  0  0  0  0  0  0  0  0
   36.7400   28.6320   41.5240 C   0  0  0  0  0  0  0  0  0  0  0  0
   37.1340   27.9780   42.6150 N   0  0  0  0  0  0  0  0  0  0  0  0
   37.6240   26.1490   43.4930 H   0  0  0  0  0  0  0  0  0  0  0  0
   37.2710   24.4460   41.4130 C   0  0  0  0  0  0  0  0  0  0  0  0
   35.9880   23.9410   41.2670 F   0  0  0  0  0  0  0  0  0  0  0  0
   37.7320   24.1040   42.6910 F   0  0  0  0  0  0  0  0  0  0  0  0
   38.1200   24.0800   40.4330 F   0  0  0  0  0  0  0  0  0  0  0  0
   36.4070   25.9090   39.0320 C   0  0  0  0  0  3  0  0  0  0  0  0
   37.1320   26.2780   37.7850 C   0  0  0  0  0  2  0  0  0  0  0  0
   35.7550   26.8110   37.9410 C   0  0  0  0  0  2  0  0  0  0  0  0
  1  3  1  0  0  0  0
  1 16  1  0  0  0  0
  2  1  1  0  0  0  0
  4  1  1  0  0  0  0
  4  9  1  0  0  0  0
  5  6  1  0  0  0  0
  5  4  2  0  0  0  0
  6  7  2  0  0  0  0
  7  8  1  0  0  0  0
  8 12  1  0  0  0  0
  9  8  2  0  0  0  0
 10  5  1  0  0  0  0
 11  6  1  0  0  0  0
 12 15  1  0  0  0  0
 13 12  1  0  0  0  0
 14 12  1  0  0  0  0
 17 22  1  0  0  0  0
 17 23  1  0  0  0  0
 18 17  2  0  0  0  0
 19 20  2  0  0  0  0
 19 18  1  0  0  0  0
 20 21  1  0  0  0  0
 21 16  1  0  0  0  0
 21 22  2  0  0  0  0
 24 18  1  0  0  0  0
 24 26  1  0  0  0  0
 25 24  1  0  0  0  0
 27 24  1  0  0  0  0
 28 19  1  0  0  0  0
 29 30  1  0  0  0  0
 29 28  1  0  0  0  0
 30 28  1  0  0  0  0
M  END
>  <minimizedAffinity>
-5.3781724

$$$$

 OpenBabel03252505593D

 30 32  0  0  0  0  0  0  0  0999 V2000
   39.8950   30.8090   41.8630 C   0  0  0  0  0  0  0  0  0  0  0  0
   40.5620   31.4120   42.5300 H   0  0  0  0  0  0  0  0  0  0  0  0
   40.4970   30.0950   41.2610 H   0  0  0  0  0  0  0  0  0  0  0  0
   39.1030   31.6270   40.9470 C   0  0  0  0  0  0  0  0  0  0  0  0
   38.7900   32.9800   41.0030 C   0  0  0  0  0  0  0  0  0  0  0  0
   38.0190   33.4940   39.9960 C   0  0  0  0  0  0  0  0  0  0  0  0
   37.5720   32.7500   38.9860 N   0  0  0  0  0  0  0  0  0  0  0  0
   37.8810   31.4470   38.9450 C   0  0  0  0  0  0  0  0  0  0  0  0
   38.6470   30.8690   39.9200 N   0  0  0  0  0  0  0  0  0  0  0  0
   39.2160   33.4530   41.8680 H   0  0  0  0  0  0  0  0  0  0  0  0
   37.8080   34.5610   40.0970 H   0  0  0  0  0  0  0  0  0  0  0  0
   37.3330   30.7010   37.7740 C   0  0  0  0  0  0  0  0  0  0  0  0
   37.3490   31.4760   36.6410 F   0  0  0  0  0  0  0  0  0  0  0  0
   36.0320   30.2820   38.0410 F   0  0  0  0  0  0  0  0  0  0  0  0
   38.0720   29.5620   37.5120 F   0  0  0  0  0  0  0  0  0  0  0  0
   39.0010   30.0880   42.6840 O   0  0  0  0  0  0  0  0  0  0  0  0
   39.5710   26.6360   43.3060 C   0  0  0  0  0  0  0  0  0  0  0  0
   38.7200   25.9840   42.4140 C   0  0  0  0  0  0  0  0  0  0  0  0
   37.9450   26.8030   41.5910 C   0  0  0  0  0  0  0  0  0  0  0  0
   38.0360   28.1360   41.6790 N   0  0  0  0  0  0  0  0  0  0  0  0
   38.8700   28.7130   42.5560 C   0  0  0  0  0  0  0  0  0  0  0  0
   39.6290   27.9730   43.3600 N   0  0  0  0  0  0  0  0  0  0  0  0
   40.2030   26.0630   43.9760 H   0  0  0  0  0  0  0  0  0  0  0  0
   38.6730   24.5010   42.3730 C   0  0  0  0  0  0  0  0  0  0  0  0
   37.3510   24.2020   42.6620 F   0  0  0  0  0  0  0  0  0  0  0  0
   39.4640   24.0540   43.4380 F   0  0  0  0  0  0  0  0  0  0  0  0
   39.0920   24.0410   41.1780 F   0  0  0  0  0  0  0  0  0  0  0  0
   37.0170   26.1550   40.6180 C   0  0  0  0  0  3  0  0  0  0  0  0
   37.3490   26.1170   39.1680 C   0  0  0  0  0  2  0  0  0  0  0  0
   36.4030   27.1730   39.6100 C   0  0  0  0  0  2  0  0  0  0  0  0
  1  2  1  0  0  0  0
  1 16  1  0  0  0  0
  3  1  1  0  0  0  0
  4  5  1  0  0  0  0
  4  1  1  0  0  0  0
  5 10  1  0  0  0  0
  6 11  1  0  0  0  0
  6  5  2  0  0  0  0
  7  6  1  0  0  0  0
  8  7  2  0  0  0  0
  8  9  1  0  0  0  0
  9  4  2  0  0  0  0
 12 14  1  0  0  0  0
 12  8  1  0  0  0  0
 13 12  1  0  0  0  0
 15 12  1  0  0  0  0
 17 22  1  0  0  0  0
 17 23  1  0  0  0  0
 18 17  2  0  0  0  0
 19 20  2  0  0  0  0
 19 18  1  0  0  0  0
 20 21  1  0  0  0  0
 21 16  1  0  0  0  0
 21 22  2  0  0  0  0
 24 18  1  0  0  0  0
 24 25  1  0  0  0  0
 24 26  1  0  0  0  0
 27 24  1  0  0  0  0
 28 19  1  0  0  0  0
 29 30  1  0  0  0  0
 29 28  1  0  0  0  0
 30 28  1  0  0  0  0
M  END
>  <minimizedAffinity>
-5.34292746

$$$$

 OpenBabel03252505593D

 30 32  0  0  0  0  0  0  0  0999 V2000
   37.8770   28.8970   37.6230 C   0  0  0  0  0  0  0  0  0  0  0  0
   38.3270   29.5010   36.7940 H   0  0  0  0  0  0  0  0  0  0  0  0
   37.0980   28.2140   37.2220 H   0  0  0  0  0  0  0  0  0  0  0  0
   37.2720   29.7180   38.6690 C   0  0  0  0  0  0  0  0  0  0  0  0
   36.1590   29.4710   39.4660 C   0  0  0  0  0  0  0  0  0  0  0  0
   35.8080   30.4260   40.3790 C   0  0  0  0  0  0  0  0  0  0  0  0
   36.4890   31.5620   40.5240 N   0  0  0  0  0  0  0  0  0  0  0  0
   37.5590   31.7880   39.7490 C   0  0  0  0  0  0  0  0  0  0  0  0
   37.9640   30.8740   38.8160 N   0  0  0  0  0  0  0  0  0  0  0  0
   35.7110   28.5210   39.2410 H   0  0  0  0  0  0  0  0  0  0  0  0
   34.9280   30.1740   40.9730 H   0  0  0  0  0  0  0  0  0  0  0  0
   38.2530   33.0880   39.9890 C   0  0  0  0  0  0  0  0  0  0  0  0
   39.3430   33.2270   39.1660 F   0  0  0  0  0  0  0  0  0  0  0  0
   38.6520   33.1780   41.3190 F   0  0  0  0  0  0  0  0  0  0  0  0
   37.4110   34.1590   39.7510 F   0  0  0  0  0  0  0  0  0  0  0  0
   38.9100   28.1360   38.2120 O   0  0  0  0  0  0  0  0  0  0  0  0
   37.9570   24.9940   39.5750 C   0  0  0  0  0  0  0  0  0  0  0  0
   38.0280   25.1860   40.9540 C   0  0  0  0  0  0  0  0  0  0  0  0
   38.4220   26.4550   41.3810 C   0  0  0  0  0  0  0  0  0  0  0  0
   38.7090   27.4140   40.4900 N   0  0  0  0  0  0  0  0  0  0  0  0
   38.6250   27.1770   39.1730 C   0  0  0  0  0  0  0  0  0  0  0  0
   38.2530   25.9830   38.7200 N   0  0  0  0  0  0  0  0  0  0  0  0
   37.6580   24.0330   39.1710 H   0  0  0  0  0  0  0  0  0  0  0  0
   37.6960   24.0760   41.8810 C   0  0  0  0  0  0  0  0  0  0  0  0
   36.5650   24.5250   42.5450 F   0  0  0  0  0  0  0  0  0  0  0  0
   38.7460   24.0070   42.8050 F   0  0  0  0  0  0  0  0  0  0  0  0
   37.5140   22.9240   41.2040 F   0  0  0  0  0  0  0  0  0  0  0  0
   38.5150   26.7120   42.8480 C   0  0  0  0  0  3  0  0  0  0  0  0
   38.9370   28.0470   43.3560 C   0  0  0  0  0  2  0  0  0  0  0  0
   39.9770   26.9870   43.3150 C   0  0  0  0  0  2  0  0  0  0  0  0
  1 16  1  0  0  0  0
  1  4  1  0  0  0  0
  2  1  1  0  0  0  0
  3  1  1  0  0  0  0
  4  9  2  0  0  0  0
  4  5  1  0  0  0  0
  5  6  2  0  0  0  0
  6  7  1  0  0  0  0
  6 11  1  0  0  0  0
  8 12  1  0  0  0  0
  8  7  2  0  0  0  0
  9  8  1  0  0  0  0
 10  5  1  0  0  0  0
 12 14  1  0  0  0  0
 13 12  1  0  0  0  0
 15 12  1  0  0  0  0
 16 21  1  0  0  0  0
 17 18  1  0  0  0  0
 18 19  2  0  0  0  0
 18 24  1  0  0  0  0
 19 28  1  0  0  0  0
 20 19  1  0  0  0  0
 21 20  2  0  0  0  0
 22 21  1  0  0  0  0
 22 17  2  0  0  0  0
 23 17  1  0  0  0  0
 24 25  1  0  0  0  0
 24 26  1  0  0  0  0
 27 24  1  0  0  0  0
 28 30  1  0  0  0  0
 28 29  1  0  0  0  0
 30 29  1  0  0  0  0
M  END
>  <minimizedAffinity>
-5.2170043

$$$$
