
 OpenBabel03252509183D

 35 38  0  0  1  0  0  0  0  0999 V2000
   50.2780   30.6980   41.8830 C   0  0  1  0  0  0  0  0  0  0  0  0
   50.6570   31.4820   40.6740 C   0  0  0  0  0  0  0  0  0  0  0  0
   52.1250   31.6650   40.4690 C   0  0  0  0  0  0  0  0  0  0  0  0
   52.9290   30.4240   40.7570 C   0  0  0  0  0  0  0  0  0  0  0  0
   52.4900   29.7090   42.0140 C   0  0  0  0  0  0  0  0  0  0  0  0
   51.5220   30.5970   42.7930 C   0  0  2  0  0  0  0  0  0  0  0  0
   50.0670   29.6340   41.6300 H   0  0  0  0  0  0  0  0  0  0  0  0
   50.2230   30.9930   39.7750 H   0  0  0  0  0  0  0  0  0  0  0  0
   50.2060   32.5180   40.6770 H   0  0  0  0  0  0  0  0  0  0  0  0
   52.2680   31.8810   39.3810 H   0  0  0  0  0  0  0  0  0  0  0  0
   52.4640   32.5630   41.0140 H   0  0  0  0  0  0  0  0  0  0  0  0
   53.9870   30.7630   40.9370 H   0  0  0  0  0  0  0  0  0  0  0  0
   52.9800   29.7520   39.8780 H   0  0  0  0  0  0  0  0  0  0  0  0
   53.3280   29.3750   42.6360 H   0  0  0  0  0  0  0  0  0  0  0  0
   51.8990   28.8080   41.7020 H   0  0  0  0  0  0  0  0  0  0  0  0
   51.9400   31.5840   43.0030 H   0  0  0  0  0  0  0  0  0  0  0  0
   47.2430   32.8920   43.5580 C   0  0  0  0  0  0  0  0  0  0  0  0
   47.1110   31.5160   43.8010 C   0  0  0  0  0  0  0  0  0  0  0  0
   48.0490   30.6920   43.3030 C   0  0  0  0  0  0  0  0  0  0  0  0
   49.1280   31.2170   42.5620 C   0  0  0  0  0  0  0  0  0  0  0  0
   48.7870   33.0080   42.5710 S   0  0  0  0  0  0  0  0  0  0  0  0
   46.2840   31.1170   44.3680 H   0  0  0  0  0  0  0  0  0  0  0  0
   48.1200   29.6190   43.3830 H   0  0  0  0  0  0  0  0  0  0  0  0
   44.8450   34.9830   45.4870 C   0  0  0  0  0  0  0  0  0  0  0  0
   44.6080   36.0100   44.5380 C   0  0  0  0  0  0  0  0  0  0  0  0
   45.2760   35.9400   43.2890 C   0  0  0  0  0  0  0  0  0  0  0  0
   46.1060   34.8840   43.0830 N   0  0  0  0  0  0  0  0  0  0  0  0
   46.3030   33.9200   44.0280 C   0  0  0  0  0  0  0  0  0  0  0  0
   45.6750   33.9660   45.2290 N   0  0  0  0  0  0  0  0  0  0  0  0
   44.3480   35.0220   46.4360 H   0  0  0  0  0  0  0  0  0  0  0  0
   43.9370   36.8330   44.7470 H   0  0  0  0  0  0  0  0  0  0  0  0
   45.1180   36.6950   42.5570 H   0  0  0  0  0  0  0  0  0  0  0  0
   51.0990   29.8350   44.0310 C   0  0  0  0  0  3  0  0  0  0  0  0
   51.1390   28.3530   43.9400 C   0  0  0  0  0  2  0  0  0  0  0  0
   52.1600   29.1120   44.7710 C   0  0  0  0  0  2  0  0  0  0  0  0
  1  7  1  6  0  0  0
  1 20  1  0  0  0  0
  1  6  1  0  0  0  0
  2  9  1  0  0  0  0
  2  1  1  0  0  0  0
  3  2  1  0  0  0  0
  3  4  1  0  0  0  0
  3 11  1  0  0  0  0
  4 12  1  0  0  0  0
  4  5  1  0  0  0  0
  5 14  1  0  0  0  0
  5  6  1  0  0  0  0
  6 16  1  1  0  0  0
  6 33  1  0  0  0  0
  8  2  1  0  0  0  0
 10  3  1  0  0  0  0
 13  4  1  0  0  0  0
 15  5  1  0  0  0  0
 17 18  2  0  0  0  0
 17 28  1  0  0  0  0
 18 22  1  0  0  0  0
 19 23  1  0  0  0  0
 19 18  1  0  0  0  0
 20 21  1  0  0  0  0
 20 19  2  0  0  0  0
 21 17  1  0  0  0  0
 24 30  1  0  0  0  0
 25 31  1  0  0  0  0
 25 24  2  0  0  0  0
 26 25  1  0  0  0  0
 27 26  2  0  0  0  0
 27 28  1  0  0  0  0
 28 29  2  0  0  0  0
 29 24  1  0  0  0  0
 32 26  1  0  0  0  0
 33 35  1  0  0  0  0
 34 33  1  0  0  0  0
 34 35  1  0  0  0  0
M  END
>  <minimizedAffinity>
-4.08061552

>  <minimizedRMSD>
6.02302504

$$$$
