
 OpenBabel03252505223D

 22 24  0  0  0  0  0  0  0  0999 V2000
   38.8630   30.4280   42.3830 F   0  0  0  0  0  0  0  0  0  0  0  0
   37.7990   30.1570   41.5770 C   0  0  0  0  0  0  0  0  0  0  0  0
   37.6440   30.9210   40.4420 C   0  0  0  0  0  0  0  0  0  0  0  0
   36.5730   30.6580   39.6180 C   0  0  0  0  0  0  0  0  0  0  0  0
   35.6830   29.6540   39.9320 C   0  0  0  0  0  0  0  0  0  0  0  0
   35.8230   28.8870   41.0560 C   0  0  0  0  0  0  0  0  0  0  0  0
   36.9060   29.1550   41.8860 C   0  0  0  0  0  0  0  0  0  0  0  0
   36.4540   31.2720   38.7140 H   0  0  0  0  0  0  0  0  0  0  0  0
   34.8370   29.4520   39.2770 H   0  0  0  0  0  0  0  0  0  0  0  0
   35.1350   28.0860   41.3300 H   0  0  0  0  0  0  0  0  0  0  0  0
   39.3560   34.1610   40.4250 C   0  0  0  0  0  0  0  0  0  0  0  0
   40.4290   33.9440   39.5350 C   0  0  0  0  0  0  0  0  0  0  0  0
   40.5330   32.6740   38.9600 C   0  0  0  0  0  0  0  0  0  0  0  0
   39.6080   31.7250   39.2830 N   0  0  0  0  0  0  0  0  0  0  0  0
   38.6020   31.9770   40.1370 C   0  0  0  0  0  0  0  0  0  0  0  0
   38.4760   33.1810   40.7020 N   0  0  0  0  0  0  0  0  0  0  0  0
   39.2800   35.1500   40.8690 H   0  0  0  0  0  0  0  0  0  0  0  0
   41.1300   34.7590   39.3280 H   0  0  0  0  0  0  0  0  0  0  0  0
   41.3490   32.4860   38.2740 H   0  0  0  0  0  0  0  0  0  0  0  0
   37.1760   28.3970   43.1360 C   0  0  0  0  0  3  0  0  0  0  0  0
   36.5820   27.0410   43.3220 C   0  0  0  0  0  2  0  0  0  0  0  0
   38.0640   27.2180   43.1600 C   0  0  0  0  0  2  0  0  0  0  0  0
  2  7  1  0  0  0  0
  2  1  1  0  0  0  0
  3  2  2  0  0  0  0
  4  5  2  0  0  0  0
  4  3  1  0  0  0  0
  5  6  1  0  0  0  0
  6 10  1  0  0  0  0
  6  7  2  0  0  0  0
  7 20  1  0  0  0  0
  8  4  1  0  0  0  0
  9  5  1  0  0  0  0
 11 16  1  0  0  0  0
 11 17  1  0  0  0  0
 12 11  2  0  0  0  0
 13 14  2  0  0  0  0
 13 12  1  0  0  0  0
 14 15  1  0  0  0  0
 15  3  1  0  0  0  0
 15 16  2  0  0  0  0
 18 12  1  0  0  0  0
 19 13  1  0  0  0  0
 20 22  1  0  0  0  0
 20 21  1  0  0  0  0
 22 21  1  0  0  0  0
M  END
>  <minimizedAffinity>
-4.94464016

$$$$

 OpenBabel03252505223D

 22 24  0  0  0  0  0  0  0  0999 V2000
   37.6850   28.3270   39.6840 F   0  0  0  0  0  0  0  0  0  0  0  0
   37.4910   28.0890   41.0110 C   0  0  0  0  0  0  0  0  0  0  0  0
   37.6350   29.1480   41.8790 C   0  0  0  0  0  0  0  0  0  0  0  0
   37.4410   28.9220   43.2230 C   0  0  0  0  0  0  0  0  0  0  0  0
   37.1130   27.6630   43.6780 C   0  0  0  0  0  0  0  0  0  0  0  0
   36.9670   26.6020   42.8270 C   0  0  0  0  0  0  0  0  0  0  0  0
   37.1630   26.8330   41.4700 C   0  0  0  0  0  0  0  0  0  0  0  0
   37.5580   29.7710   43.9120 H   0  0  0  0  0  0  0  0  0  0  0  0
   36.9630   27.4910   44.7420 H   0  0  0  0  0  0  0  0  0  0  0  0
   36.7080   25.5950   43.1580 H   0  0  0  0  0  0  0  0  0  0  0  0
   37.3750   32.4310   40.2720 C   0  0  0  0  0  0  0  0  0  0  0  0
   38.6770   32.9550   40.4170 C   0  0  0  0  0  0  0  0  0  0  0  0
   39.6170   32.1540   41.0720 C   0  0  0  0  0  0  0  0  0  0  0  0
   39.2360   30.9270   41.5300 N   0  0  0  0  0  0  0  0  0  0  0  0
   37.9830   30.4690   41.3680 C   0  0  0  0  0  0  0  0  0  0  0  0
   37.0630   31.2120   40.7470 N   0  0  0  0  0  0  0  0  0  0  0  0
   36.6480   33.0580   39.7620 H   0  0  0  0  0  0  0  0  0  0  0  0
   38.9040   33.9500   40.0210 H   0  0  0  0  0  0  0  0  0  0  0  0
   40.6220   32.5370   41.1940 H   0  0  0  0  0  0  0  0  0  0  0  0
   37.0350   25.7690   40.4400 C   0  0  0  0  0  3  0  0  0  0  0  0
   38.0650   24.6930   40.3560 C   0  0  0  0  0  2  0  0  0  0  0  0
   36.6610   24.3840   40.7880 C   0  0  0  0  0  2  0  0  0  0  0  0
  1  2  1  0  0  0  0
  2  7  2  0  0  0  0
  2  3  1  0  0  0  0
  3  4  2  0  0  0  0
  4  5  1  0  0  0  0
  4  8  1  0  0  0  0
  5  9  1  0  0  0  0
  6 10  1  0  0  0  0
  6  5  2  0  0  0  0
  7  6  1  0  0  0  0
 11 12  2  0  0  0  0
 11 16  1  0  0  0  0
 12 13  1  0  0  0  0
 13 19  1  0  0  0  0
 13 14  2  0  0  0  0
 15 14  1  0  0  0  0
 15  3  1  0  0  0  0
 16 15  2  0  0  0  0
 17 11  1  0  0  0  0
 18 12  1  0  0  0  0
 20 22  1  0  0  0  0
 20  7  1  0  0  0  0
 21 20  1  0  0  0  0
 21 22  1  0  0  0  0
M  END
>  <minimizedAffinity>
-4.76754618

$$$$

 OpenBabel03252505223D

 22 24  0  0  0  0  0  0  0  0999 V2000
   36.5440   27.5820   40.5190 F   0  0  0  0  0  0  0  0  0  0  0  0
   37.5330   27.6610   41.4520 C   0  0  0  0  0  0  0  0  0  0  0  0
   38.2610   28.8280   41.5180 C   0  0  0  0  0  0  0  0  0  0  0  0
   39.2630   28.9210   42.4560 C   0  0  0  0  0  0  0  0  0  0  0  0
   39.5260   27.8660   43.3020 C   0  0  0  0  0  0  0  0  0  0  0  0
   38.8130   26.7000   43.2480 C   0  0  0  0  0  0  0  0  0  0  0  0
   37.8000   26.6090   42.3000 C   0  0  0  0  0  0  0  0  0  0  0  0
   39.8410   29.8550   42.5040 H   0  0  0  0  0  0  0  0  0  0  0  0
   40.3220   27.9450   44.0410 H   0  0  0  0  0  0  0  0  0  0  0  0
   38.9980   25.8480   43.9050 H   0  0  0  0  0  0  0  0  0  0  0  0
   38.1050   30.8950   38.4960 C   0  0  0  0  0  0  0  0  0  0  0  0
   37.3730   32.0230   38.9240 C   0  0  0  0  0  0  0  0  0  0  0  0
   36.9490   32.0380   40.2560 C   0  0  0  0  0  0  0  0  0  0  0  0
   37.2590   30.9820   41.0610 N   0  0  0  0  0  0  0  0  0  0  0  0
   37.9590   29.9280   40.6090 C   0  0  0  0  0  0  0  0  0  0  0  0
   38.3780   29.8850   39.3410 N   0  0  0  0  0  0  0  0  0  0  0  0
   38.4320   30.8880   37.4590 H   0  0  0  0  0  0  0  0  0  0  0  0
   37.1640   32.8310   38.2150 H   0  0  0  0  0  0  0  0  0  0  0  0
   36.3860   32.8950   40.6060 H   0  0  0  0  0  0  0  0  0  0  0  0
   36.9490   25.4010   42.1360 C   0  0  0  0  0  3  0  0  0  0  0  0
   37.0300   24.6050   40.8760 C   0  0  0  0  0  2  0  0  0  0  0  0
   37.5120   24.0360   42.1800 C   0  0  0  0  0  2  0  0  0  0  0  0
  1  2  1  0  0  0  0
  2  3  2  0  0  0  0
  2  7  1  0  0  0  0
  3  4  1  0  0  0  0
  4  8  1  0  0  0  0
  4  5  2  0  0  0  0
  5  9  1  0  0  0  0
  6  5  1  0  0  0  0
  6 10  1  0  0  0  0
  7  6  2  0  0  0  0
 11 12  2  0  0  0  0
 11 16  1  0  0  0  0
 12 13  1  0  0  0  0
 13 19  1  0  0  0  0
 13 14  2  0  0  0  0
 15 14  1  0  0  0  0
 15  3  1  0  0  0  0
 16 15  2  0  0  0  0
 17 11  1  0  0  0  0
 18 12  1  0  0  0  0
 20 22  1  0  0  0  0
 20  7  1  0  0  0  0
 21 20  1  0  0  0  0
 21 22  1  0  0  0  0
M  END
>  <minimizedAffinity>
-4.58585358

$$$$

 OpenBabel03252505223D

 22 24  0  0  0  0  0  0  0  0999 V2000
   36.5150   26.8940   39.8040 F   0  0  0  0  0  0  0  0  0  0  0  0
   37.0440   27.1850   41.0250 C   0  0  0  0  0  0  0  0  0  0  0  0
   37.8480   26.2370   41.6170 C   0  0  0  0  0  0  0  0  0  0  0  0
   38.3890   26.5180   42.8510 C   0  0  0  0  0  0  0  0  0  0  0  0
   38.1260   27.7200   43.4700 C   0  0  0  0  0  0  0  0  0  0  0  0
   37.3290   28.6710   42.8940 C   0  0  0  0  0  0  0  0  0  0  0  0
   36.7840   28.3850   41.6470 C   0  0  0  0  0  0  0  0  0  0  0  0
   39.0290   25.7570   43.3200 H   0  0  0  0  0  0  0  0  0  0  0  0
   38.5560   27.9360   44.4470 H   0  0  0  0  0  0  0  0  0  0  0  0
   37.1030   29.6320   43.3600 H   0  0  0  0  0  0  0  0  0  0  0  0
   37.5770   22.7360   40.5650 C   0  0  0  0  0  0  0  0  0  0  0  0
   38.6320   22.6050   39.6370 C   0  0  0  0  0  0  0  0  0  0  0  0
   39.4140   23.7390   39.3980 C   0  0  0  0  0  0  0  0  0  0  0  0
   39.1240   24.8940   40.0620 N   0  0  0  0  0  0  0  0  0  0  0  0
   38.1080   24.9730   40.9380 C   0  0  0  0  0  0  0  0  0  0  0  0
   37.3430   23.9060   41.1870 N   0  0  0  0  0  0  0  0  0  0  0  0
   36.9710   21.8520   40.7480 H   0  0  0  0  0  0  0  0  0  0  0  0
   38.7990   21.6420   39.1450 H   0  0  0  0  0  0  0  0  0  0  0  0
   40.2290   23.6600   38.6900 H   0  0  0  0  0  0  0  0  0  0  0  0
   35.9030   29.3300   40.9110 C   0  0  0  0  0  3  0  0  0  0  0  0
   36.1610   30.7970   40.9930 C   0  0  0  0  0  2  0  0  0  0  0  0
   36.3610   30.0490   39.7060 C   0  0  0  0  0  2  0  0  0  0  0  0
  1  2  1  0  0  0  0
  2  3  2  0  0  0  0
  2  7  1  0  0  0  0
  3  4  1  0  0  0  0
  4  8  1  0  0  0  0
  4  5  2  0  0  0  0
  5  9  1  0  0  0  0
  6 10  1  0  0  0  0
  6  5  1  0  0  0  0
  7  6  2  0  0  0  0
 11 17  1  0  0  0  0
 11 16  1  0  0  0  0
 12 11  2  0  0  0  0
 13 12  1  0  0  0  0
 13 14  2  0  0  0  0
 14 15  1  0  0  0  0
 15 16  2  0  0  0  0
 15  3  1  0  0  0  0
 18 12  1  0  0  0  0
 19 13  1  0  0  0  0
 20 21  1  0  0  0  0
 20  7  1  0  0  0  0
 22 20  1  0  0  0  0
 22 21  1  0  0  0  0
M  END
>  <minimizedAffinity>
-4.52370405

$$$$

 OpenBabel03252505223D

 22 24  0  0  0  0  0  0  0  0999 V2000
   39.9080   29.2290   41.2420 F   0  0  0  0  0  0  0  0  0  0  0  0
   38.8000   28.6450   41.7770 C   0  0  0  0  0  0  0  0  0  0  0  0
   37.5700   29.1010   41.3580 C   0  0  0  0  0  0  0  0  0  0  0  0
   36.4410   28.5200   41.8900 C   0  0  0  0  0  0  0  0  0  0  0  0
   36.5510   27.5100   42.8210 C   0  0  0  0  0  0  0  0  0  0  0  0
   37.7650   27.0480   43.2480 C   0  0  0  0  0  0  0  0  0  0  0  0
   38.9040   27.6360   42.7080 C   0  0  0  0  0  0  0  0  0  0  0  0
   35.4620   28.8890   41.5520 H   0  0  0  0  0  0  0  0  0  0  0  0
   35.6540   27.0560   43.2400 H   0  0  0  0  0  0  0  0  0  0  0  0
   37.8830   26.2490   43.9820 H   0  0  0  0  0  0  0  0  0  0  0  0
   37.3110   32.4380   39.8660 C   0  0  0  0  0  0  0  0  0  0  0  0
   37.3280   32.1660   38.4810 C   0  0  0  0  0  0  0  0  0  0  0  0
   37.4280   30.8250   38.0980 C   0  0  0  0  0  0  0  0  0  0  0  0
   37.5050   29.8650   39.0640 N   0  0  0  0  0  0  0  0  0  0  0  0
   37.4860   30.1720   40.3720 C   0  0  0  0  0  0  0  0  0  0  0  0
   37.3900   31.4440   40.7690 N   0  0  0  0  0  0  0  0  0  0  0  0
   37.2330   33.4820   40.1590 H   0  0  0  0  0  0  0  0  0  0  0  0
   37.2630   32.9940   37.7690 H   0  0  0  0  0  0  0  0  0  0  0  0
   37.4420   30.5930   37.0410 H   0  0  0  0  0  0  0  0  0  0  0  0
   40.2830   27.2270   43.0830 C   0  0  0  0  0  3  0  0  0  0  0  0
   40.5190   25.8800   43.6790 C   0  0  0  0  0  2  0  0  0  0  0  0
   41.0380   26.2210   42.3110 C   0  0  0  0  0  2  0  0  0  0  0  0
  1  2  1  0  0  0  0
  2  7  1  0  0  0  0
  3  2  2  0  0  0  0
  3  4  1  0  0  0  0
  4  5  2  0  0  0  0
  5  9  1  0  0  0  0
  5  6  1  0  0  0  0
  6 10  1  0  0  0  0
  7 20  1  0  0  0  0
  7  6  2  0  0  0  0
  8  4  1  0  0  0  0
 11 17  1  0  0  0  0
 11 16  1  0  0  0  0
 12 11  2  0  0  0  0
 13 12  1  0  0  0  0
 13 14  2  0  0  0  0
 14 15  1  0  0  0  0
 15 16  2  0  0  0  0
 15  3  1  0  0  0  0
 18 12  1  0  0  0  0
 19 13  1  0  0  0  0
 20 21  1  0  0  0  0
 22 20  1  0  0  0  0
 22 21  1  0  0  0  0
M  END
>  <minimizedAffinity>
-4.48820543

$$$$

 OpenBabel03252505223D

 22 24  0  0  0  0  0  0  0  0999 V2000
   37.3790   31.0160   37.3910 F   0  0  0  0  0  0  0  0  0  0  0  0
   36.6010   30.4390   38.3490 C   0  0  0  0  0  0  0  0  0  0  0  0
   36.7790   30.8490   39.6520 C   0  0  0  0  0  0  0  0  0  0  0  0
   36.0000   30.2750   40.6300 C   0  0  0  0  0  0  0  0  0  0  0  0
   35.0680   29.3140   40.3040 C   0  0  0  0  0  0  0  0  0  0  0  0
   34.8810   28.8960   39.0150 C   0  0  0  0  0  0  0  0  0  0  0  0
   35.6690   29.4770   38.0290 C   0  0  0  0  0  0  0  0  0  0  0  0
   36.1470   30.6060   41.6680 H   0  0  0  0  0  0  0  0  0  0  0  0
   34.4560   28.8620   41.0830 H   0  0  0  0  0  0  0  0  0  0  0  0
   34.1510   28.1370   38.7270 H   0  0  0  0  0  0  0  0  0  0  0  0
   39.9400   32.4490   40.5910 C   0  0  0  0  0  0  0  0  0  0  0  0
   39.6200   33.8230   40.5550 C   0  0  0  0  0  0  0  0  0  0  0  0
   38.3100   34.1610   40.2030 C   0  0  0  0  0  0  0  0  0  0  0  0
   37.4230   33.1660   39.9190 N   0  0  0  0  0  0  0  0  0  0  0  0
   37.7730   31.8690   39.9660 C   0  0  0  0  0  0  0  0  0  0  0  0
   39.0170   31.5140   40.2990 N   0  0  0  0  0  0  0  0  0  0  0  0
   40.9600   32.1900   40.8640 H   0  0  0  0  0  0  0  0  0  0  0  0
   40.3900   34.5610   40.7960 H   0  0  0  0  0  0  0  0  0  0  0  0
   38.0430   35.2100   40.1700 H   0  0  0  0  0  0  0  0  0  0  0  0
   35.5660   29.1160   36.5910 C   0  0  0  0  0  3  0  0  0  0  0  0
   35.1090   27.7490   36.2030 C   0  0  0  0  0  2  0  0  0  0  0  0
   34.2630   28.9570   35.9150 C   0  0  0  0  0  2  0  0  0  0  0  0
  1  2  1  0  0  0  0
  2  3  1  0  0  0  0
  3 15  1  0  0  0  0
  3  4  2  0  0  0  0
  4  8  1  0  0  0  0
  5  4  1  0  0  0  0
  5  9  1  0  0  0  0
  6  5  2  0  0  0  0
  7  2  2  0  0  0  0
  7  6  1  0  0  0  0
 10  6  1  0  0  0  0
 11 17  1  0  0  0  0
 12 11  1  0  0  0  0
 12 18  1  0  0  0  0
 13 12  2  0  0  0  0
 14 15  2  0  0  0  0
 14 13  1  0  0  0  0
 15 16  1  0  0  0  0
 16 11  2  0  0  0  0
 19 13  1  0  0  0  0
 20  7  1  0  0  0  0
 21 20  1  0  0  0  0
 22 21  1  0  0  0  0
 22 20  1  0  0  0  0
M  END
>  <minimizedAffinity>
-4.44040871

$$$$

 OpenBabel03252505223D

 22 24  0  0  0  0  0  0  0  0999 V2000
   39.4920   29.8290   40.8730 F   0  0  0  0  0  0  0  0  0  0  0  0
   38.1420   29.6780   40.7880 C   0  0  0  0  0  0  0  0  0  0  0  0
   37.5920   28.5240   41.3000 C   0  0  0  0  0  0  0  0  0  0  0  0
   36.2280   28.3580   41.2200 C   0  0  0  0  0  0  0  0  0  0  0  0
   35.4410   29.3290   40.6400 C   0  0  0  0  0  0  0  0  0  0  0  0
   35.9730   30.4800   40.1260 C   0  0  0  0  0  0  0  0  0  0  0  0
   37.3510   30.6450   40.2080 C   0  0  0  0  0  0  0  0  0  0  0  0
   35.7950   27.4340   41.6300 H   0  0  0  0  0  0  0  0  0  0  0  0
   34.3630   29.1910   40.5780 H   0  0  0  0  0  0  0  0  0  0  0  0
   35.3750   31.2650   39.6610 H   0  0  0  0  0  0  0  0  0  0  0  0
   39.4010   25.3890   41.8750 C   0  0  0  0  0  0  0  0  0  0  0  0
   40.0780   25.6350   43.0890 C   0  0  0  0  0  0  0  0  0  0  0  0
   39.8890   26.8870   43.6800 C   0  0  0  0  0  0  0  0  0  0  0  0
   39.0750   27.7930   43.0650 N   0  0  0  0  0  0  0  0  0  0  0  0
   38.4510   27.5140   41.9090 C   0  0  0  0  0  0  0  0  0  0  0  0
   38.6110   26.3260   41.3200 N   0  0  0  0  0  0  0  0  0  0  0  0
   39.5510   24.4130   41.4190 H   0  0  0  0  0  0  0  0  0  0  0  0
   40.7140   24.8550   43.5180 H   0  0  0  0  0  0  0  0  0  0  0  0
   40.3990   27.0970   44.6120 H   0  0  0  0  0  0  0  0  0  0  0  0
   38.0550   31.8470   39.6910 C   0  0  0  0  0  3  0  0  0  0  0  0
   37.3170   33.1370   39.5590 C   0  0  0  0  0  2  0  0  0  0  0  0
   38.4190   32.9780   40.5670 C   0  0  0  0  0  2  0  0  0  0  0  0
  2  1  1  0  0  0  0
  2  3  1  0  0  0  0
  3 15  1  0  0  0  0
  4  3  2  0  0  0  0
  4  8  1  0  0  0  0
  5  4  1  0  0  0  0
  6  7  1  0  0  0  0
  6  5  2  0  0  0  0
  7  2  2  0  0  0  0
  9  5  1  0  0  0  0
 10  6  1  0  0  0  0
 11 12  1  0  0  0  0
 12 18  1  0  0  0  0
 12 13  2  0  0  0  0
 13 19  1  0  0  0  0
 14 13  1  0  0  0  0
 15 14  2  0  0  0  0
 16 11  2  0  0  0  0
 16 15  1  0  0  0  0
 17 11  1  0  0  0  0
 20  7  1  0  0  0  0
 20 22  1  0  0  0  0
 21 20  1  0  0  0  0
 21 22  1  0  0  0  0
M  END
>  <minimizedAffinity>
-4.41451406

$$$$

 OpenBabel03252505223D

 22 24  0  0  0  0  0  0  0  0999 V2000
   40.1120   30.1710   41.0790 F   0  0  0  0  0  0  0  0  0  0  0  0
   39.1110   30.9840   40.6420 C   0  0  0  0  0  0  0  0  0  0  0  0
   37.8140   30.5980   40.8970 C   0  0  0  0  0  0  0  0  0  0  0  0
   36.7920   31.4100   40.4620 C   0  0  0  0  0  0  0  0  0  0  0  0
   37.0710   32.5790   39.7870 C   0  0  0  0  0  0  0  0  0  0  0  0
   38.3530   32.9750   39.5250 C   0  0  0  0  0  0  0  0  0  0  0  0
   39.3840   32.1530   39.9670 C   0  0  0  0  0  0  0  0  0  0  0  0
   35.7590   31.0960   40.6680 H   0  0  0  0  0  0  0  0  0  0  0  0
   36.2580   33.2160   39.4440 H   0  0  0  0  0  0  0  0  0  0  0  0
   38.6040   33.8950   38.9940 H   0  0  0  0  0  0  0  0  0  0  0  0
   37.0110   27.0900   41.5930 C   0  0  0  0  0  0  0  0  0  0  0  0
   37.0580   27.0310   43.0020 C   0  0  0  0  0  0  0  0  0  0  0  0
   37.3690   28.2140   43.6790 C   0  0  0  0  0  0  0  0  0  0  0  0
   37.6070   29.3460   42.9570 N   0  0  0  0  0  0  0  0  0  0  0  0
   37.5510   29.3550   41.6140 C   0  0  0  0  0  0  0  0  0  0  0  0
   37.2560   28.2400   40.9390 N   0  0  0  0  0  0  0  0  0  0  0  0
   36.7690   26.1680   41.0710 H   0  0  0  0  0  0  0  0  0  0  0  0
   36.8550   26.0820   43.5080 H   0  0  0  0  0  0  0  0  0  0  0  0
   37.4110   28.1910   44.7610 H   0  0  0  0  0  0  0  0  0  0  0  0
   40.8210   32.4660   39.7500 C   0  0  0  0  0  3  0  0  0  0  0  0
   41.2230   33.8410   39.3310 C   0  0  0  0  0  2  0  0  0  0  0  0
   41.5880   33.3100   40.6870 C   0  0  0  0  0  2  0  0  0  0  0  0
  2  3  1  0  0  0  0
  2  1  1  0  0  0  0
  3 15  1  0  0  0  0
  4  8  1  0  0  0  0
  4  3  2  0  0  0  0
  5  4  1  0  0  0  0
  6  5  2  0  0  0  0
  6  7  1  0  0  0  0
  7  2  2  0  0  0  0
  9  5  1  0  0  0  0
 10  6  1  0  0  0  0
 11 12  1  0  0  0  0
 12 18  1  0  0  0  0
 12 13  2  0  0  0  0
 13 19  1  0  0  0  0
 14 13  1  0  0  0  0
 15 14  2  0  0  0  0
 16 11  2  0  0  0  0
 16 15  1  0  0  0  0
 17 11  1  0  0  0  0
 20  7  1  0  0  0  0
 20 22  1  0  0  0  0
 21 20  1  0  0  0  0
 21 22  1  0  0  0  0
M  END
>  <minimizedAffinity>
-4.36960125

$$$$

 OpenBabel03252505223D

 22 24  0  0  0  0  0  0  0  0999 V2000
   37.5960   26.1950   40.2620 F   0  0  0  0  0  0  0  0  0  0  0  0
   37.6850   27.0310   41.3330 C   0  0  0  0  0  0  0  0  0  0  0  0
   37.1930   28.3100   41.1900 C   0  0  0  0  0  0  0  0  0  0  0  0
   37.2750   29.1660   42.2650 C   0  0  0  0  0  0  0  0  0  0  0  0
   37.8390   28.7450   43.4490 C   0  0  0  0  0  0  0  0  0  0  0  0
   38.3330   27.4790   43.6060 C   0  0  0  0  0  0  0  0  0  0  0  0
   38.2480   26.6160   42.5190 C   0  0  0  0  0  0  0  0  0  0  0  0
   36.8810   30.1850   42.1440 H   0  0  0  0  0  0  0  0  0  0  0  0
   37.9030   29.4280   44.2950 H   0  0  0  0  0  0  0  0  0  0  0  0
   38.7850   27.1180   44.5310 H   0  0  0  0  0  0  0  0  0  0  0  0
   36.8130   29.7190   37.8280 C   0  0  0  0  0  0  0  0  0  0  0  0
   35.4480   29.5000   37.5480 C   0  0  0  0  0  0  0  0  0  0  0  0
   34.6900   28.8650   38.5360 C   0  0  0  0  0  0  0  0  0  0  0  0
   35.2960   28.4960   39.7010 N   0  0  0  0  0  0  0  0  0  0  0  0
   36.6010   28.7270   39.9240 C   0  0  0  0  0  0  0  0  0  0  0  0
   37.3520   29.3310   38.9990 N   0  0  0  0  0  0  0  0  0  0  0  0
   37.3990   30.2130   37.0570 H   0  0  0  0  0  0  0  0  0  0  0  0
   35.0370   29.8250   36.5880 H   0  0  0  0  0  0  0  0  0  0  0  0
   33.6400   28.6870   38.3410 H   0  0  0  0  0  0  0  0  0  0  0  0
   38.7450   25.2150   42.5550 C   0  0  0  0  0  3  0  0  0  0  0  0
   40.0190   24.8640   41.8630 C   0  0  0  0  0  2  0  0  0  0  0  0
   39.9170   24.8210   43.3610 C   0  0  0  0  0  2  0  0  0  0  0  0
  1  2  1  0  0  0  0
  2  7  1  0  0  0  0
  3  2  2  0  0  0  0
  3  4  1  0  0  0  0
  4  5  2  0  0  0  0
  5  6  1  0  0  0  0
  5  9  1  0  0  0  0
  6 10  1  0  0  0  0
  7 20  1  0  0  0  0
  7  6  2  0  0  0  0
  8  4  1  0  0  0  0
 11 16  1  0  0  0  0
 12 11  2  0  0  0  0
 12 13  1  0  0  0  0
 13 14  2  0  0  0  0
 14 15  1  0  0  0  0
 15  3  1  0  0  0  0
 16 15  2  0  0  0  0
 17 11  1  0  0  0  0
 18 12  1  0  0  0  0
 19 13  1  0  0  0  0
 20 22  1  0  0  0  0
 21 20  1  0  0  0  0
 21 22  1  0  0  0  0
M  END
>  <minimizedAffinity>
-4.35221004

$$$$
