
 OpenBabel03242520233D

 38 41  0  0  0  0  0  0  0  0999 V2000
   35.9590   28.4520   37.8180 C   0  0  0  0  0  0  0  0  0  0  0  0
   35.9920   29.2220   37.0470 H   0  0  0  0  0  0  0  0  0  0  0  0
   36.6990   27.6260   37.6420 H   0  0  0  0  0  0  0  0  0  0  0  0
   37.0140   28.7340   41.4460 C   0  0  0  0  0  0  0  0  0  0  0  0
   36.7540   28.1780   40.1680 C   0  0  0  0  0  0  0  0  0  0  0  0
   36.2380   28.9840   39.1730 C   0  0  0  0  0  0  0  0  0  0  0  0
   36.0080   30.2990   39.5070 N   0  0  0  0  0  0  0  0  0  0  0  0
   36.2770   30.7820   40.7560 C   0  0  0  0  0  0  0  0  0  0  0  0
   36.7750   30.0020   41.7120 N   0  0  0  0  0  0  0  0  0  0  0  0
   36.9470   27.1340   39.9360 H   0  0  0  0  0  0  0  0  0  0  0  0
   36.0790   31.8230   40.9700 H   0  0  0  0  0  0  0  0  0  0  0  0
   37.5640   27.8370   42.5120 C   0  0  0  0  0  0  0  0  0  0  0  0
   36.4400   27.4140   43.5320 C   0  0  0  0  0  0  0  0  0  0  0  0
   37.2190   26.4860   42.7040 C   0  0  0  0  0  0  0  0  0  0  0  0
   38.4520   28.2930   43.0160 H   0  0  0  0  0  0  0  0  0  0  0  0
   36.7470   27.4760   44.5960 H   0  0  0  0  0  0  0  0  0  0  0  0
   35.4190   27.7080   43.3050 H   0  0  0  0  0  0  0  0  0  0  0  0
   37.9470   25.7800   43.1430 H   0  0  0  0  0  0  0  0  0  0  0  0
   36.6120   25.9610   41.9100 H   0  0  0  0  0  0  0  0  0  0  0  0
   34.5920   27.7570   37.8140 C   0  0  0  0  0  0  0  0  0  0  0  0
   34.5500   27.1740   36.8820 H   0  0  0  0  0  0  0  0  0  0  0  0
   34.5120   27.0170   38.6470 H   0  0  0  0  0  0  0  0  0  0  0  0
   32.5340   28.7280   36.9280 C   0  0  0  0  0  0  0  0  0  0  0  0
   32.4680   27.9080   35.9720 O   0  0  0  0  0  0  0  0  0  0  0  0
   33.5010   28.6960   37.9600 N   0  0  0  0  0  0  0  0  0  0  0  0
   33.4880   29.2880   38.8020 H   0  0  0  0  0  0  0  0  0  0  0  0
   31.5350   29.8250   37.0090 C   0  0  0  0  0  0  0  0  0  0  0  0
   30.7500   29.9320   38.1550 C   0  0  0  0  0  0  0  0  0  0  0  0
   29.7920   30.9010   38.3510 C   0  0  0  0  0  0  0  0  0  0  0  0
   29.6170   31.8270   37.3130 C   0  0  0  0  0  0  0  0  0  0  0  0
   30.4220   31.6700   36.2020 C   0  0  0  0  0  0  0  0  0  0  0  0
   31.3470   30.7240   36.0300 N   0  0  0  0  0  0  0  0  0  0  0  0
   30.8710   29.2260   38.9670 H   0  0  0  0  0  0  0  0  0  0  0  0
   29.2060   30.9390   39.2660 H   0  0  0  0  0  0  0  0  0  0  0  0
   28.8810   32.5960   37.4270 H   0  0  0  0  0  0  0  0  0  0  0  0
   30.2480   32.6450   35.0940 C   0  0  0  0  0  3  0  0  0  0  0  0
   29.9840   32.1240   33.7230 C   0  0  0  0  0  2  0  0  0  0  0  0
   31.3790   32.6400   34.1000 C   0  0  0  0  0  2  0  0  0  0  0  0
  1  6  1  0  0  0  0
  2  1  1  0  0  0  0
  3  1  1  0  0  0  0
  4  9  1  0  0  0  0
  4 12  1  0  0  0  0
  5  4  2  0  0  0  0
  6  7  2  0  0  0  0
  6  5  1  0  0  0  0
  7  8  1  0  0  0  0
  8 11  1  0  0  0  0
  8  9  2  0  0  0  0
 10  5  1  0  0  0  0
 12 14  1  0  0  0  0
 12 15  1  0  0  0  0
 12 13  1  0  0  0  0
 13 16  1  0  0  0  0
 14 18  1  0  0  0  0
 14 13  1  0  0  0  0
 17 13  1  0  0  0  0
 19 14  1  0  0  0  0
 20  1  1  0  0  0  0
 20 25  1  0  0  0  0
 20 22  1  0  0  0  0
 21 20  1  0  0  0  0
 23 27  1  0  0  0  0
 23 25  1  0  0  0  0
 24 23  2  0  0  0  0
 25 26  1  0  0  0  0
 27 28  1  0  0  0  0
 28 29  2  0  0  0  0
 28 33  1  0  0  0  0
 29 34  1  0  0  0  0
 30 35  1  0  0  0  0
 30 29  1  0  0  0  0
 31 30  2  0  0  0  0
 32 31  1  0  0  0  0
 32 27  2  0  0  0  0
 36 31  1  0  0  0  0
 37 38  1  0  0  0  0
 37 36  1  0  0  0  0
 38 36  1  0  0  0  0
M  END
>  <minimizedAffinity>
-5.53687859

$$$$

 OpenBabel03242520233D

 38 41  0  0  0  0  0  0  0  0999 V2000
   36.4010   29.6590   36.9580 C   0  0  0  0  0  0  0  0  0  0  0  0
   35.4170   29.2800   36.6780 H   0  0  0  0  0  0  0  0  0  0  0  0
   36.7670   30.4710   36.2750 H   0  0  0  0  0  0  0  0  0  0  0  0
   37.1690   31.8470   39.9560 C   0  0  0  0  0  0  0  0  0  0  0  0
   37.1810   31.3400   38.6320 C   0  0  0  0  0  0  0  0  0  0  0  0
   36.4300   30.2210   38.3300 C   0  0  0  0  0  0  0  0  0  0  0  0
   35.7100   29.6690   39.3650 N   0  0  0  0  0  0  0  0  0  0  0  0
   35.7360   30.2000   40.6230 C   0  0  0  0  0  0  0  0  0  0  0  0
   36.4600   31.2780   40.9100 N   0  0  0  0  0  0  0  0  0  0  0  0
   37.7610   31.7990   37.8360 H   0  0  0  0  0  0  0  0  0  0  0  0
   35.1520   29.7290   41.4030 H   0  0  0  0  0  0  0  0  0  0  0  0
   38.0010   33.0540   40.2610 C   0  0  0  0  0  0  0  0  0  0  0  0
   39.3590   32.6490   40.9490 C   0  0  0  0  0  0  0  0  0  0  0  0
   39.2410   33.3640   39.6730 C   0  0  0  0  0  0  0  0  0  0  0  0
   37.4270   33.8090   40.8530 H   0  0  0  0  0  0  0  0  0  0  0  0
   39.6280   33.2750   41.8240 H   0  0  0  0  0  0  0  0  0  0  0  0
   39.5870   31.5890   41.0220 H   0  0  0  0  0  0  0  0  0  0  0  0
   39.5600   34.4170   39.5600 H   0  0  0  0  0  0  0  0  0  0  0  0
   39.5850   32.7660   38.7790 H   0  0  0  0  0  0  0  0  0  0  0  0
   37.4510   28.5470   36.8400 C   0  0  0  0  0  0  0  0  0  0  0  0
   37.1210   27.9050   36.0100 H   0  0  0  0  0  0  0  0  0  0  0  0
   38.4440   28.9600   36.5380 H   0  0  0  0  0  0  0  0  0  0  0  0
   36.8830   26.6520   38.2710 C   0  0  0  0  0  0  0  0  0  0  0  0
   36.1800   26.0950   37.3840 O   0  0  0  0  0  0  0  0  0  0  0  0
   37.6350   27.8360   38.0870 N   0  0  0  0  0  0  0  0  0  0  0  0
   38.3000   28.2270   38.7680 H   0  0  0  0  0  0  0  0  0  0  0  0
   36.9480   26.0480   39.6270 C   0  0  0  0  0  0  0  0  0  0  0  0
   36.5420   24.7260   39.7900 C   0  0  0  0  0  0  0  0  0  0  0  0
   36.5530   24.0530   40.9910 C   0  0  0  0  0  0  0  0  0  0  0  0
   37.0070   24.7710   42.1060 C   0  0  0  0  0  0  0  0  0  0  0  0
   37.3950   26.0780   41.8840 C   0  0  0  0  0  0  0  0  0  0  0  0
   37.3780   26.7140   40.7100 N   0  0  0  0  0  0  0  0  0  0  0  0
   36.1880   24.1550   38.9400 H   0  0  0  0  0  0  0  0  0  0  0  0
   36.2250   23.0190   41.0620 H   0  0  0  0  0  0  0  0  0  0  0  0
   37.0310   24.2830   43.0590 H   0  0  0  0  0  0  0  0  0  0  0  0
   37.8800   26.8510   43.0570 C   0  0  0  0  0  3  0  0  0  0  0  0
   37.0170   27.9400   43.5970 C   0  0  0  0  0  2  0  0  0  0  0  0
   38.2400   28.2770   42.7340 C   0  0  0  0  0  2  0  0  0  0  0  0
  1  6  1  0  0  0  0
  2  1  1  0  0  0  0
  3  1  1  0  0  0  0
  4 12  1  0  0  0  0
  4  9  1  0  0  0  0
  5  4  2  0  0  0  0
  6  5  1  0  0  0  0
  6  7  2  0  0  0  0
  7  8  1  0  0  0  0
  8  9  2  0  0  0  0
  8 11  1  0  0  0  0
 10  5  1  0  0  0  0
 12 15  1  0  0  0  0
 12 13  1  0  0  0  0
 13 17  1  0  0  0  0
 13 16  1  0  0  0  0
 14 12  1  0  0  0  0
 14 13  1  0  0  0  0
 18 14  1  0  0  0  0
 19 14  1  0  0  0  0
 20  1  1  0  0  0  0
 20 25  1  0  0  0  0
 21 20  1  0  0  0  0
 22 20  1  0  0  0  0
 23 27  1  0  0  0  0
 24 23  2  0  0  0  0
 25 23  1  0  0  0  0
 25 26  1  0  0  0  0
 27 28  2  0  0  0  0
 27 32  1  0  0  0  0
 28 29  1  0  0  0  0
 29 34  1  0  0  0  0
 29 30  2  0  0  0  0
 30 35  1  0  0  0  0
 31 30  1  0  0  0  0
 31 36  1  0  0  0  0
 32 31  2  0  0  0  0
 33 28  1  0  0  0  0
 36 37  1  0  0  0  0
 38 36  1  0  0  0  0
 38 37  1  0  0  0  0
M  END
>  <minimizedAffinity>
-5.35215282

$$$$

 OpenBabel03242520233D

 38 41  0  0  0  0  0  0  0  0999 V2000
   35.8840   28.4460   37.5740 C   0  0  0  0  0  0  0  0  0  0  0  0
   35.8870   28.9160   36.5900 H   0  0  0  0  0  0  0  0  0  0  0  0
   36.6430   27.6230   37.6670 H   0  0  0  0  0  0  0  0  0  0  0  0
   37.1670   31.4300   39.5270 C   0  0  0  0  0  0  0  0  0  0  0  0
   36.9290   30.5370   38.4510 C   0  0  0  0  0  0  0  0  0  0  0  0
   36.1700   29.4040   38.6690 C   0  0  0  0  0  0  0  0  0  0  0  0
   35.6920   29.2220   39.9460 N   0  0  0  0  0  0  0  0  0  0  0  0
   35.9540   30.1160   40.9460 C   0  0  0  0  0  0  0  0  0  0  0  0
   36.6850   31.2060   40.7330 N   0  0  0  0  0  0  0  0  0  0  0  0
   37.3210   30.7080   37.4530 H   0  0  0  0  0  0  0  0  0  0  0  0
   35.5550   29.9290   41.9340 H   0  0  0  0  0  0  0  0  0  0  0  0
   38.0020   32.6450   39.2690 C   0  0  0  0  0  0  0  0  0  0  0  0
   37.1380   33.9580   39.3660 C   0  0  0  0  0  0  0  0  0  0  0  0
   38.2990   33.6500   40.2090 C   0  0  0  0  0  0  0  0  0  0  0  0
   38.5560   32.5660   38.3010 H   0  0  0  0  0  0  0  0  0  0  0  0
   37.3220   34.6840   38.5480 H   0  0  0  0  0  0  0  0  0  0  0  0
   36.1090   33.8590   39.7030 H   0  0  0  0  0  0  0  0  0  0  0  0
   39.2420   34.2220   40.1390 H   0  0  0  0  0  0  0  0  0  0  0  0
   38.0430   33.4730   41.2940 H   0  0  0  0  0  0  0  0  0  0  0  0
   34.5350   27.7640   37.8320 C   0  0  0  0  0  0  0  0  0  0  0  0
   34.3940   27.0480   37.0100 H   0  0  0  0  0  0  0  0  0  0  0  0
   34.5610   27.1580   38.7710 H   0  0  0  0  0  0  0  0  0  0  0  0
   32.4800   28.7320   36.9370 C   0  0  0  0  0  0  0  0  0  0  0  0
   32.3970   27.8860   36.0060 O   0  0  0  0  0  0  0  0  0  0  0  0
   33.4570   28.7200   37.9610 N   0  0  0  0  0  0  0  0  0  0  0  0
   33.4580   29.3360   38.7850 H   0  0  0  0  0  0  0  0  0  0  0  0
   31.4950   29.8430   36.9950 C   0  0  0  0  0  0  0  0  0  0  0  0
   30.6750   29.9510   38.1150 C   0  0  0  0  0  0  0  0  0  0  0  0
   29.7230   30.9320   38.2880 C   0  0  0  0  0  0  0  0  0  0  0  0
   29.5950   31.8690   37.2530 C   0  0  0  0  0  0  0  0  0  0  0  0
   30.4340   31.7100   36.1680 C   0  0  0  0  0  0  0  0  0  0  0  0
   31.3510   30.7520   36.0170 N   0  0  0  0  0  0  0  0  0  0  0  0
   30.7590   29.2380   38.9250 H   0  0  0  0  0  0  0  0  0  0  0  0
   29.1090   30.9710   39.1840 H   0  0  0  0  0  0  0  0  0  0  0  0
   28.8660   32.6470   37.3500 H   0  0  0  0  0  0  0  0  0  0  0  0
   30.3100   32.6960   35.0620 C   0  0  0  0  0  3  0  0  0  0  0  0
   30.0390   32.1920   33.6870 C   0  0  0  0  0  2  0  0  0  0  0  0
   31.4480   32.6500   34.0800 C   0  0  0  0  0  2  0  0  0  0  0  0
  1  3  1  0  0  0  0
  1 20  1  0  0  0  0
  1  6  1  0  0  0  0
  2  1  1  0  0  0  0
  4  9  1  0  0  0  0
  5  6  1  0  0  0  0
  5  4  2  0  0  0  0
  6  7  2  0  0  0  0
  7  8  1  0  0  0  0
  8 11  1  0  0  0  0
  9  8  2  0  0  0  0
 10  5  1  0  0  0  0
 12 13  1  0  0  0  0
 12  4  1  0  0  0  0
 12 14  1  0  0  0  0
 13 17  1  0  0  0  0
 13 14  1  0  0  0  0
 14 19  1  0  0  0  0
 15 12  1  0  0  0  0
 16 13  1  0  0  0  0
 18 14  1  0  0  0  0
 20 25  1  0  0  0  0
 20 22  1  0  0  0  0
 21 20  1  0  0  0  0
 23 27  1  0  0  0  0
 23 25  1  0  0  0  0
 24 23  2  0  0  0  0
 25 26  1  0  0  0  0
 27 28  1  0  0  0  0
 28 29  2  0  0  0  0
 28 33  1  0  0  0  0
 29 34  1  0  0  0  0
 30 35  1  0  0  0  0
 30 29  1  0  0  0  0
 31 30  2  0  0  0  0
 32 31  1  0  0  0  0
 32 27  2  0  0  0  0
 36 31  1  0  0  0  0
 37 38  1  0  0  0  0
 37 36  1  0  0  0  0
 38 36  1  0  0  0  0
M  END
>  <minimizedAffinity>
-5.32093096

$$$$

 OpenBabel03242520233D

 38 41  0  0  0  0  0  0  0  0999 V2000
   38.0450   33.4500   39.9650 C   0  0  0  0  0  0  0  0  0  0  0  0
   38.1510   34.3470   39.3540 H   0  0  0  0  0  0  0  0  0  0  0  0
   37.1190   33.4620   40.6010 H   0  0  0  0  0  0  0  0  0  0  0  0
   36.8150   30.2710   38.3080 C   0  0  0  0  0  0  0  0  0  0  0  0
   36.8320   31.4450   39.1040 C   0  0  0  0  0  0  0  0  0  0  0  0
   37.9800   32.2090   39.1570 C   0  0  0  0  0  0  0  0  0  0  0  0
   39.0500   31.7600   38.4160 N   0  0  0  0  0  0  0  0  0  0  0  0
   38.9780   30.6200   37.6670 C   0  0  0  0  0  0  0  0  0  0  0  0
   37.8700   29.8870   37.6180 N   0  0  0  0  0  0  0  0  0  0  0  0
   35.9700   31.7730   39.6780 H   0  0  0  0  0  0  0  0  0  0  0  0
   39.8460   30.3080   37.1010 H   0  0  0  0  0  0  0  0  0  0  0  0
   35.5610   29.4530   38.2760 C   0  0  0  0  0  0  0  0  0  0  0  0
   35.7400   28.1090   39.0770 C   0  0  0  0  0  0  0  0  0  0  0  0
   34.7530   29.1500   39.3870 C   0  0  0  0  0  0  0  0  0  0  0  0
   35.2060   29.2860   37.2290 H   0  0  0  0  0  0  0  0  0  0  0  0
   35.3430   27.2140   38.5560 H   0  0  0  0  0  0  0  0  0  0  0  0
   36.6640   27.9750   39.6340 H   0  0  0  0  0  0  0  0  0  0  0  0
   33.6670   28.9830   39.2610 H   0  0  0  0  0  0  0  0  0  0  0  0
   34.9430   29.6860   40.3620 H   0  0  0  0  0  0  0  0  0  0  0  0
   39.2030   33.3490   40.9650 C   0  0  0  0  0  0  0  0  0  0  0  0
   40.1230   33.4950   40.3800 H   0  0  0  0  0  0  0  0  0  0  0  0
   39.1710   34.1840   41.7070 H   0  0  0  0  0  0  0  0  0  0  0  0
   40.3730   31.3500   41.7370 C   0  0  0  0  0  0  0  0  0  0  0  0
   41.4890   31.7410   41.2980 O   0  0  0  0  0  0  0  0  0  0  0  0
   39.1780   32.1060   41.7060 N   0  0  0  0  0  0  0  0  0  0  0  0
   38.2970   31.8400   42.1660 H   0  0  0  0  0  0  0  0  0  0  0  0
   40.2680   29.9960   42.3410 C   0  0  0  0  0  0  0  0  0  0  0  0
   41.4370   29.2800   42.5860 C   0  0  0  0  0  0  0  0  0  0  0  0
   41.4740   28.0190   43.1380 C   0  0  0  0  0  0  0  0  0  0  0  0
   40.2380   27.4440   43.4660 C   0  0  0  0  0  0  0  0  0  0  0  0
   39.1140   28.2010   43.2000 C   0  0  0  0  0  0  0  0  0  0  0  0
   39.0980   29.4230   42.6630 N   0  0  0  0  0  0  0  0  0  0  0  0
   42.4010   29.7080   42.3390 H   0  0  0  0  0  0  0  0  0  0  0  0
   42.4160   27.5050   43.3090 H   0  0  0  0  0  0  0  0  0  0  0  0
   40.2240   26.4650   43.8980 H   0  0  0  0  0  0  0  0  0  0  0  0
   37.7960   27.6040   43.5430 C   0  0  0  0  0  3  0  0  0  0  0  0
   37.2360   26.5530   42.6470 C   0  0  0  0  0  2  0  0  0  0  0  0
   36.6930   27.9860   42.5940 C   0  0  0  0  0  2  0  0  0  0  0  0
  1  3  1  0  0  0  0
  1 20  1  0  0  0  0
  2  1  1  0  0  0  0
  4  5  1  0  0  0  0
  5  6  2  0  0  0  0
  5 10  1  0  0  0  0
  6  1  1  0  0  0  0
  7  6  1  0  0  0  0
  8  7  2  0  0  0  0
  9  8  1  0  0  0  0
  9  4  2  0  0  0  0
 11  8  1  0  0  0  0
 12  4  1  0  0  0  0
 12 13  1  0  0  0  0
 12 14  1  0  0  0  0
 13 14  1  0  0  0  0
 13 17  1  0  0  0  0
 14 19  1  0  0  0  0
 15 12  1  0  0  0  0
 16 13  1  0  0  0  0
 18 14  1  0  0  0  0
 20 25  1  0  0  0  0
 20 22  1  0  0  0  0
 21 20  1  0  0  0  0
 23 27  1  0  0  0  0
 24 23  2  0  0  0  0
 25 23  1  0  0  0  0
 25 26  1  0  0  0  0
 27 28  2  0  0  0  0
 27 32  1  0  0  0  0
 28 29  1  0  0  0  0
 29 34  1  0  0  0  0
 29 30  2  0  0  0  0
 30 35  1  0  0  0  0
 31 30  1  0  0  0  0
 31 36  1  0  0  0  0
 32 31  2  0  0  0  0
 33 28  1  0  0  0  0
 37 36  1  0  0  0  0
 38 37  1  0  0  0  0
 38 36  1  0  0  0  0
M  END
>  <minimizedAffinity>
-5.28634834

$$$$

 OpenBabel03242520233D

 38 41  0  0  0  0  0  0  0  0999 V2000
   37.5630   27.9840   43.5850 C   0  0  0  0  0  0  0  0  0  0  0  0
   37.0480   27.9260   44.5440 H   0  0  0  0  0  0  0  0  0  0  0  0
   38.3670   28.7680   43.5670 H   0  0  0  0  0  0  0  0  0  0  0  0
   38.2560   24.5970   42.0320 C   0  0  0  0  0  0  0  0  0  0  0  0
   37.5890   25.8000   42.3750 C   0  0  0  0  0  0  0  0  0  0  0  0
   38.2150   26.7070   43.2050 C   0  0  0  0  0  0  0  0  0  0  0  0
   39.4720   26.3650   43.6500 N   0  0  0  0  0  0  0  0  0  0  0  0
   40.0690   25.1910   43.2880 C   0  0  0  0  0  0  0  0  0  0  0  0
   39.4620   24.3200   42.4870 N   0  0  0  0  0  0  0  0  0  0  0  0
   36.5950   26.0410   42.0080 H   0  0  0  0  0  0  0  0  0  0  0  0
   41.0580   24.9680   43.6630 H   0  0  0  0  0  0  0  0  0  0  0  0
   37.5520   23.6230   41.1390 C   0  0  0  0  0  0  0  0  0  0  0  0
   38.0390   23.7660   39.6480 C   0  0  0  0  0  0  0  0  0  0  0  0
   38.1560   22.5490   40.4610 C   0  0  0  0  0  0  0  0  0  0  0  0
   36.4410   23.7050   41.2380 H   0  0  0  0  0  0  0  0  0  0  0  0
   37.2200   23.7630   38.9010 H   0  0  0  0  0  0  0  0  0  0  0  0
   38.8710   24.4380   39.4530 H   0  0  0  0  0  0  0  0  0  0  0  0
   37.5780   21.6350   40.2320 H   0  0  0  0  0  0  0  0  0  0  0  0
   39.2190   22.2700   40.7190 H   0  0  0  0  0  0  0  0  0  0  0  0
   36.5840   28.4040   42.4820 C   0  0  0  0  0  0  0  0  0  0  0  0
   36.6020   27.5970   41.7350 H   0  0  0  0  0  0  0  0  0  0  0  0
   35.5360   28.4480   42.8670 H   0  0  0  0  0  0  0  0  0  0  0  0
   37.7330   29.7400   40.7910 C   0  0  0  0  0  0  0  0  0  0  0  0
   38.0950   28.7290   40.1290 O   0  0  0  0  0  0  0  0  0  0  0  0
   36.9020   29.7060   41.9360 N   0  0  0  0  0  0  0  0  0  0  0  0
   36.5100   30.5320   42.4070 H   0  0  0  0  0  0  0  0  0  0  0  0
   38.1970   31.0860   40.3660 C   0  0  0  0  0  0  0  0  0  0  0  0
   37.2690   32.1220   40.3000 C   0  0  0  0  0  0  0  0  0  0  0  0
   37.5710   33.4110   39.9210 C   0  0  0  0  0  0  0  0  0  0  0  0
   38.9080   33.6670   39.5860 C   0  0  0  0  0  0  0  0  0  0  0  0
   39.7820   32.6010   39.6690 C   0  0  0  0  0  0  0  0  0  0  0  0
   39.4700   31.3570   40.0390 N   0  0  0  0  0  0  0  0  0  0  0  0
   36.2320   31.9440   40.5560 H   0  0  0  0  0  0  0  0  0  0  0  0
   36.8070   34.1840   39.8870 H   0  0  0  0  0  0  0  0  0  0  0  0
   39.1840   34.6570   39.2850 H   0  0  0  0  0  0  0  0  0  0  0  0
   41.2030   32.8580   39.3170 C   0  0  0  0  0  3  0  0  0  0  0  0
   41.5510   34.1500   38.6610 C   0  0  0  0  0  2  0  0  0  0  0  0
   41.4690   32.8600   37.8360 C   0  0  0  0  0  2  0  0  0  0  0  0
  1  2  1  0  0  0  0
  3  1  1  0  0  0  0
  4  5  2  0  0  0  0
  4  9  1  0  0  0  0
  5  6  1  0  0  0  0
  6  1  1  0  0  0  0
  6  7  2  0  0  0  0
  8  7  1  0  0  0  0
  8 11  1  0  0  0  0
  9  8  2  0  0  0  0
 10  5  1  0  0  0  0
 12 15  1  0  0  0  0
 12  4  1  0  0  0  0
 13 14  1  0  0  0  0
 13 12  1  0  0  0  0
 14 19  1  0  0  0  0
 14 12  1  0  0  0  0
 16 13  1  0  0  0  0
 17 13  1  0  0  0  0
 18 14  1  0  0  0  0
 20 22  1  0  0  0  0
 20  1  1  0  0  0  0
 21 20  1  0  0  0  0
 23 25  1  0  0  0  0
 24 23  2  0  0  0  0
 25 26  1  0  0  0  0
 25 20  1  0  0  0  0
 27 23  1  0  0  0  0
 28 27  1  0  0  0  0
 28 33  1  0  0  0  0
 29 28  2  0  0  0  0
 30 31  2  0  0  0  0
 30 29  1  0  0  0  0
 31 32  1  0  0  0  0
 32 27  2  0  0  0  0
 34 29  1  0  0  0  0
 35 30  1  0  0  0  0
 36 31  1  0  0  0  0
 37 36  1  0  0  0  0
 38 37  1  0  0  0  0
 38 36  1  0  0  0  0
M  END
>  <minimizedAffinity>
-5.25200033

$$$$

 OpenBabel03242520233D

 38 41  0  0  0  0  0  0  0  0999 V2000
   37.3300   30.7280   37.4690 C   0  0  0  0  0  0  0  0  0  0  0  0
   36.8850   31.2900   36.6470 H   0  0  0  0  0  0  0  0  0  0  0  0
   38.2190   30.1190   37.1510 H   0  0  0  0  0  0  0  0  0  0  0  0
   39.3090   32.1380   40.3770 C   0  0  0  0  0  0  0  0  0  0  0  0
   38.8970   31.2690   39.3360 C   0  0  0  0  0  0  0  0  0  0  0  0
   37.7940   31.5990   38.5760 C   0  0  0  0  0  0  0  0  0  0  0  0
   37.1600   32.7780   38.8960 N   0  0  0  0  0  0  0  0  0  0  0  0
   37.6000   33.5790   39.9110 C   0  0  0  0  0  0  0  0  0  0  0  0
   38.6640   33.2570   40.6410 N   0  0  0  0  0  0  0  0  0  0  0  0
   39.4190   30.3430   39.1080 H   0  0  0  0  0  0  0  0  0  0  0  0
   37.0670   34.4960   40.1240 H   0  0  0  0  0  0  0  0  0  0  0  0
   40.5020   31.7520   41.1950 C   0  0  0  0  0  0  0  0  0  0  0  0
   40.0660   31.1300   42.5760 C   0  0  0  0  0  0  0  0  0  0  0  0
   40.8590   30.4390   41.5520 C   0  0  0  0  0  0  0  0  0  0  0  0
   41.2130   32.6060   41.3140 H   0  0  0  0  0  0  0  0  0  0  0  0
   40.6380   31.5110   43.4460 H   0  0  0  0  0  0  0  0  0  0  0  0
   39.0060   30.9510   42.7340 H   0  0  0  0  0  0  0  0  0  0  0  0
   41.9190   30.1710   41.7160 H   0  0  0  0  0  0  0  0  0  0  0  0
   40.3220   29.5750   41.0620 H   0  0  0  0  0  0  0  0  0  0  0  0
   36.3290   29.7020   38.0130 C   0  0  0  0  0  0  0  0  0  0  0  0
   35.4500   30.2780   38.3380 H   0  0  0  0  0  0  0  0  0  0  0  0
   35.9700   29.0190   37.2040 H   0  0  0  0  0  0  0  0  0  0  0  0
   36.1970   28.8030   40.2790 C   0  0  0  0  0  0  0  0  0  0  0  0
   35.0440   29.2750   40.4800 O   0  0  0  0  0  0  0  0  0  0  0  0
   36.9020   28.8790   39.0550 N   0  0  0  0  0  0  0  0  0  0  0  0
   37.7880   28.3950   38.8520 H   0  0  0  0  0  0  0  0  0  0  0  0
   36.8980   28.1090   41.3890 C   0  0  0  0  0  0  0  0  0  0  0  0
   37.2170   28.8340   42.5350 C   0  0  0  0  0  0  0  0  0  0  0  0
   37.8660   28.3070   43.6300 C   0  0  0  0  0  0  0  0  0  0  0  0
   38.2150   26.9510   43.5590 C   0  0  0  0  0  0  0  0  0  0  0  0
   37.8740   26.2860   42.3980 C   0  0  0  0  0  0  0  0  0  0  0  0
   37.2440   26.8120   41.3460 N   0  0  0  0  0  0  0  0  0  0  0  0
   36.9560   29.8820   42.6090 H   0  0  0  0  0  0  0  0  0  0  0  0
   38.0900   28.9180   44.5010 H   0  0  0  0  0  0  0  0  0  0  0  0
   38.7200   26.5050   44.3900 H   0  0  0  0  0  0  0  0  0  0  0  0
   38.2370   24.8470   42.3090 C   0  0  0  0  0  3  0  0  0  0  0  0
   39.5200   24.3980   42.9190 C   0  0  0  0  0  2  0  0  0  0  0  0
   39.4040   24.5730   41.3990 C   0  0  0  0  0  2  0  0  0  0  0  0
  1 20  1  0  0  0  0
  1  6  1  0  0  0  0
  2  1  1  0  0  0  0
  3  1  1  0  0  0  0
  4  9  1  0  0  0  0
  4 12  1  0  0  0  0
  5  4  2  0  0  0  0
  6  7  2  0  0  0  0
  6  5  1  0  0  0  0
  7  8  1  0  0  0  0
  8 11  1  0  0  0  0
  8  9  2  0  0  0  0
 10  5  1  0  0  0  0
 12 15  1  0  0  0  0
 12 14  1  0  0  0  0
 12 13  1  0  0  0  0
 13 17  1  0  0  0  0
 13 16  1  0  0  0  0
 14 18  1  0  0  0  0
 14 13  1  0  0  0  0
 19 14  1  0  0  0  0
 20 21  1  0  0  0  0
 20 25  1  0  0  0  0
 22 20  1  0  0  0  0
 23 24  2  0  0  0  0
 23 27  1  0  0  0  0
 25 23  1  0  0  0  0
 26 25  1  0  0  0  0
 27 28  1  0  0  0  0
 28 33  1  0  0  0  0
 28 29  2  0  0  0  0
 29 34  1  0  0  0  0
 30 29  1  0  0  0  0
 30 35  1  0  0  0  0
 31 30  2  0  0  0  0
 32 27  2  0  0  0  0
 32 31  1  0  0  0  0
 36 31  1  0  0  0  0
 36 37  1  0  0  0  0
 38 36  1  0  0  0  0
 38 37  1  0  0  0  0
M  END
>  <minimizedAffinity>
-5.21647024

$$$$

 OpenBabel03242520233D

 38 41  0  0  0  0  0  0  0  0999 V2000
   39.4580   30.6600   42.6210 C   0  0  0  0  0  0  0  0  0  0  0  0
   38.8170   31.4690   42.9730 H   0  0  0  0  0  0  0  0  0  0  0  0
   40.4700   30.6620   43.1080 H   0  0  0  0  0  0  0  0  0  0  0  0
   39.0760   26.9690   43.3890 C   0  0  0  0  0  0  0  0  0  0  0  0
   39.6780   28.2300   43.1490 C   0  0  0  0  0  0  0  0  0  0  0  0
   38.8770   29.3180   42.8680 C   0  0  0  0  0  0  0  0  0  0  0  0
   37.5200   29.0900   42.8400 N   0  0  0  0  0  0  0  0  0  0  0  0
   36.9940   27.8520   43.0780 C   0  0  0  0  0  0  0  0  0  0  0  0
   37.7690   26.8060   43.3490 N   0  0  0  0  0  0  0  0  0  0  0  0
   40.7540   28.3780   43.1780 H   0  0  0  0  0  0  0  0  0  0  0  0
   35.9200   27.7240   43.0450 H   0  0  0  0  0  0  0  0  0  0  0  0
   39.9670   25.8010   43.6800 C   0  0  0  0  0  0  0  0  0  0  0  0
   39.9530   24.7670   42.4910 C   0  0  0  0  0  0  0  0  0  0  0  0
   41.1430   25.4740   42.9800 C   0  0  0  0  0  0  0  0  0  0  0  0
   39.7180   25.3290   44.6620 H   0  0  0  0  0  0  0  0  0  0  0  0
   39.8620   23.7090   42.8110 H   0  0  0  0  0  0  0  0  0  0  0  0
   39.4190   25.0480   41.5870 H   0  0  0  0  0  0  0  0  0  0  0  0
   41.9690   24.9450   43.4900 H   0  0  0  0  0  0  0  0  0  0  0  0
   41.5670   26.2200   42.2470 H   0  0  0  0  0  0  0  0  0  0  0  0
   39.7450   30.8240   41.1230 C   0  0  0  0  0  0  0  0  0  0  0  0
   39.8250   31.9060   40.9460 H   0  0  0  0  0  0  0  0  0  0  0  0
   40.7390   30.3900   40.8530 H   0  0  0  0  0  0  0  0  0  0  0  0
   37.6490   30.9570   39.8780 C   0  0  0  0  0  0  0  0  0  0  0  0
   37.5470   32.2040   40.0360 O   0  0  0  0  0  0  0  0  0  0  0  0
   38.7470   30.1730   40.3020 N   0  0  0  0  0  0  0  0  0  0  0  0
   38.8890   29.1800   40.0720 H   0  0  0  0  0  0  0  0  0  0  0  0
   36.5510   30.2220   39.2000 C   0  0  0  0  0  0  0  0  0  0  0  0
   35.4610   29.7990   39.9570 C   0  0  0  0  0  0  0  0  0  0  0  0
   34.3830   29.1090   39.4480 C   0  0  0  0  0  0  0  0  0  0  0  0
   34.4120   28.8290   38.0750 C   0  0  0  0  0  0  0  0  0  0  0  0
   35.5170   29.2720   37.3770 C   0  0  0  0  0  0  0  0  0  0  0  0
   36.5540   29.9400   37.8870 N   0  0  0  0  0  0  0  0  0  0  0  0
   35.4220   30.0060   41.0190 H   0  0  0  0  0  0  0  0  0  0  0  0
   33.5580   28.8030   40.0850 H   0  0  0  0  0  0  0  0  0  0  0  0
   33.5920   28.2940   37.6410 H   0  0  0  0  0  0  0  0  0  0  0  0
   35.5610   28.9820   35.9190 C   0  0  0  0  0  3  0  0  0  0  0  0
   36.8550   28.5500   35.3180 C   0  0  0  0  0  2  0  0  0  0  0  0
   36.3530   29.9870   35.1260 C   0  0  0  0  0  2  0  0  0  0  0  0
  1  6  1  0  0  0  0
  1  2  1  0  0  0  0
  1  3  1  0  0  0  0
  4 12  1  0  0  0  0
  5 10  1  0  0  0  0
  5  4  2  0  0  0  0
  6  5  1  0  0  0  0
  7  6  2  0  0  0  0
  7  8  1  0  0  0  0
  8  9  2  0  0  0  0
  9  4  1  0  0  0  0
 11  8  1  0  0  0  0
 12 15  1  0  0  0  0
 13 16  1  0  0  0  0
 13 14  1  0  0  0  0
 13 12  1  0  0  0  0
 14 18  1  0  0  0  0
 14 12  1  0  0  0  0
 17 13  1  0  0  0  0
 19 14  1  0  0  0  0
 20  1  1  0  0  0  0
 21 20  1  0  0  0  0
 22 20  1  0  0  0  0
 23 24  2  0  0  0  0
 23 25  1  0  0  0  0
 25 20  1  0  0  0  0
 26 25  1  0  0  0  0
 27 23  1  0  0  0  0
 27 28  1  0  0  0  0
 28 33  1  0  0  0  0
 29 28  2  0  0  0  0
 29 34  1  0  0  0  0
 30 29  1  0  0  0  0
 31 32  1  0  0  0  0
 31 30  2  0  0  0  0
 32 27  2  0  0  0  0
 35 30  1  0  0  0  0
 36 31  1  0  0  0  0
 37 36  1  0  0  0  0
 38 37  1  0  0  0  0
 38 36  1  0  0  0  0
M  END
>  <minimizedAffinity>
-5.19066525

$$$$

 OpenBabel03242520233D

 38 41  0  0  0  0  0  0  0  0999 V2000
   38.0490   31.3690   37.6180 C   0  0  0  0  0  0  0  0  0  0  0  0
   37.7420   31.9350   36.7380 H   0  0  0  0  0  0  0  0  0  0  0  0
   38.5000   30.3730   37.3610 H   0  0  0  0  0  0  0  0  0  0  0  0
   41.3040   32.8570   38.8660 C   0  0  0  0  0  0  0  0  0  0  0  0
   40.3790   32.1530   38.0530 C   0  0  0  0  0  0  0  0  0  0  0  0
   39.0560   32.0840   38.4390 C   0  0  0  0  0  0  0  0  0  0  0  0
   38.7260   32.7190   39.6150 N   0  0  0  0  0  0  0  0  0  0  0  0
   39.6590   33.3830   40.3600 C   0  0  0  0  0  0  0  0  0  0  0  0
   40.9330   33.4480   39.9840 N   0  0  0  0  0  0  0  0  0  0  0  0
   40.6710   31.6610   37.1290 H   0  0  0  0  0  0  0  0  0  0  0  0
   39.3510   33.8670   41.2770 H   0  0  0  0  0  0  0  0  0  0  0  0
   42.7360   32.9090   38.4310 C   0  0  0  0  0  0  0  0  0  0  0  0
   43.0060   34.1600   37.5130 C   0  0  0  0  0  0  0  0  0  0  0  0
   43.6670   33.8980   38.7970 C   0  0  0  0  0  0  0  0  0  0  0  0
   43.0550   31.9490   37.9550 H   0  0  0  0  0  0  0  0  0  0  0  0
   43.6110   33.9380   36.6110 H   0  0  0  0  0  0  0  0  0  0  0  0
   42.1980   34.8770   37.3910 H   0  0  0  0  0  0  0  0  0  0  0  0
   44.7440   33.6560   38.8620 H   0  0  0  0  0  0  0  0  0  0  0  0
   43.3930   34.6300   39.6120 H   0  0  0  0  0  0  0  0  0  0  0  0
   36.8290   31.0340   38.4850 C   0  0  0  0  0  0  0  0  0  0  0  0
   36.5880   31.9520   39.0390 H   0  0  0  0  0  0  0  0  0  0  0  0
   35.9350   30.8080   37.8540 H   0  0  0  0  0  0  0  0  0  0  0  0
   36.6830   30.0030   40.6930 C   0  0  0  0  0  0  0  0  0  0  0  0
   36.0310   30.9650   41.1830 O   0  0  0  0  0  0  0  0  0  0  0  0
   37.0620   29.8870   39.3350 N   0  0  0  0  0  0  0  0  0  0  0  0
   37.4900   29.0530   38.9100 H   0  0  0  0  0  0  0  0  0  0  0  0
   37.1040   28.8890   41.5820 C   0  0  0  0  0  0  0  0  0  0  0  0
   37.7690   29.1930   42.7670 C   0  0  0  0  0  0  0  0  0  0  0  0
   38.2100   28.2540   43.6720 C   0  0  0  0  0  0  0  0  0  0  0  0
   37.9600   26.9120   43.3530 C   0  0  0  0  0  0  0  0  0  0  0  0
   37.3000   26.6720   42.1650 C   0  0  0  0  0  0  0  0  0  0  0  0
   36.8780   27.5960   41.2990 N   0  0  0  0  0  0  0  0  0  0  0  0
   37.9700   30.2240   43.0310 H   0  0  0  0  0  0  0  0  0  0  0  0
   38.7240   28.5460   44.5840 H   0  0  0  0  0  0  0  0  0  0  0  0
   38.2880   26.1510   44.0310 H   0  0  0  0  0  0  0  0  0  0  0  0
   37.0270   25.2530   41.8130 C   0  0  0  0  0  3  0  0  0  0  0  0
   38.0170   24.2160   42.2210 C   0  0  0  0  0  2  0  0  0  0  0  0
   37.9560   24.7000   40.7660 C   0  0  0  0  0  2  0  0  0  0  0  0
  1  6  1  0  0  0  0
  1 20  1  0  0  0  0
  2  1  1  0  0  0  0
  3  1  1  0  0  0  0
  4  9  1  0  0  0  0
  5  6  1  0  0  0  0
  5  4  2  0  0  0  0
  6  7  2  0  0  0  0
  7  8  1  0  0  0  0
  8 11  1  0  0  0  0
  9  8  2  0  0  0  0
 10  5  1  0  0  0  0
 12 14  1  0  0  0  0
 12  4  1  0  0  0  0
 13 12  1  0  0  0  0
 13 14  1  0  0  0  0
 14 18  1  0  0  0  0
 14 19  1  0  0  0  0
 15 12  1  0  0  0  0
 16 13  1  0  0  0  0
 17 13  1  0  0  0  0
 20 21  1  0  0  0  0
 20 25  1  0  0  0  0
 22 20  1  0  0  0  0
 23 24  2  0  0  0  0
 23 27  1  0  0  0  0
 25 23  1  0  0  0  0
 26 25  1  0  0  0  0
 27 28  1  0  0  0  0
 28 33  1  0  0  0  0
 28 29  2  0  0  0  0
 29 34  1  0  0  0  0
 30 29  1  0  0  0  0
 30 35  1  0  0  0  0
 31 30  2  0  0  0  0
 32 27  2  0  0  0  0
 32 31  1  0  0  0  0
 36 31  1  0  0  0  0
 36 37  1  0  0  0  0
 38 36  1  0  0  0  0
 38 37  1  0  0  0  0
M  END
>  <minimizedAffinity>
-5.16994762

$$$$

 OpenBabel03242520233D

 38 41  0  0  0  0  0  0  0  0999 V2000
   34.4960   28.2070   36.8530 C   0  0  0  0  0  0  0  0  0  0  0  0
   34.7510   27.1780   37.1080 H   0  0  0  0  0  0  0  0  0  0  0  0
   35.0050   28.5650   35.9180 H   0  0  0  0  0  0  0  0  0  0  0  0
   31.0100   29.6940   36.8260 C   0  0  0  0  0  0  0  0  0  0  0  0
   32.4000   29.5480   37.0630 C   0  0  0  0  0  0  0  0  0  0  0  0
   33.0420   28.4020   36.6380 C   0  0  0  0  0  0  0  0  0  0  0  0
   32.2620   27.4640   36.0010 N   0  0  0  0  0  0  0  0  0  0  0  0
   30.9250   27.6560   35.7990 C   0  0  0  0  0  0  0  0  0  0  0  0
   30.3110   28.7620   36.2100 N   0  0  0  0  0  0  0  0  0  0  0  0
   32.9890   30.3080   37.5700 H   0  0  0  0  0  0  0  0  0  0  0  0
   30.3550   26.8890   35.2930 H   0  0  0  0  0  0  0  0  0  0  0  0
   30.3340   30.9410   37.3070 C   0  0  0  0  0  0  0  0  0  0  0  0
   30.3860   32.0720   36.2120 C   0  0  0  0  0  0  0  0  0  0  0  0
   29.1570   31.4940   36.7690 C   0  0  0  0  0  0  0  0  0  0  0  0
   30.7440   31.2760   38.2910 H   0  0  0  0  0  0  0  0  0  0  0  0
   30.6640   33.0710   36.6050 H   0  0  0  0  0  0  0  0  0  0  0  0
   30.7830   31.8080   35.2350 H   0  0  0  0  0  0  0  0  0  0  0  0
   28.4720   32.0800   37.4080 H   0  0  0  0  0  0  0  0  0  0  0  0
   28.5590   30.8870   36.0280 H   0  0  0  0  0  0  0  0  0  0  0  0
   34.9820   29.1610   37.9510 C   0  0  0  0  0  0  0  0  0  0  0  0
   35.7410   29.8030   37.4820 H   0  0  0  0  0  0  0  0  0  0  0  0
   34.1620   29.8430   38.2860 H   0  0  0  0  0  0  0  0  0  0  0  0
   35.9300   29.2330   40.2000 C   0  0  0  0  0  0  0  0  0  0  0  0
   35.8270   30.4870   40.2860 O   0  0  0  0  0  0  0  0  0  0  0  0
   35.4620   28.4520   39.1170 N   0  0  0  0  0  0  0  0  0  0  0  0
   35.4370   27.4230   39.0970 H   0  0  0  0  0  0  0  0  0  0  0  0
   36.5890   28.4840   41.3020 C   0  0  0  0  0  0  0  0  0  0  0  0
   37.2760   29.2010   42.2790 C   0  0  0  0  0  0  0  0  0  0  0  0
   37.9270   28.6260   43.3480 C   0  0  0  0  0  0  0  0  0  0  0  0
   37.8790   27.2280   43.4310 C   0  0  0  0  0  0  0  0  0  0  0  0
   37.1850   26.5720   42.4340 C   0  0  0  0  0  0  0  0  0  0  0  0
   36.5590   27.1460   41.4040 N   0  0  0  0  0  0  0  0  0  0  0  0
   37.3240   30.2810   42.2310 H   0  0  0  0  0  0  0  0  0  0  0  0
   38.4480   29.2330   44.0840 H   0  0  0  0  0  0  0  0  0  0  0  0
   38.3730   26.7430   44.2470 H   0  0  0  0  0  0  0  0  0  0  0  0
   37.1250   25.0890   42.5090 C   0  0  0  0  0  3  0  0  0  0  0  0
   38.2180   24.2990   41.8760 C   0  0  0  0  0  2  0  0  0  0  0  0
   36.8540   24.4260   41.1860 C   0  0  0  0  0  2  0  0  0  0  0  0
  1  2  1  0  0  0  0
  1 20  1  0  0  0  0
  3  1  1  0  0  0  0
  4  5  1  0  0  0  0
  4 12  1  0  0  0  0
  5 10  1  0  0  0  0
  6  1  1  0  0  0  0
  6  5  2  0  0  0  0
  7  6  1  0  0  0  0
  8  7  2  0  0  0  0
  8  9  1  0  0  0  0
  9  4  2  0  0  0  0
 11  8  1  0  0  0  0
 12 15  1  0  0  0  0
 13 16  1  0  0  0  0
 13 14  1  0  0  0  0
 13 12  1  0  0  0  0
 14 12  1  0  0  0  0
 14 18  1  0  0  0  0
 17 13  1  0  0  0  0
 19 14  1  0  0  0  0
 20 22  1  0  0  0  0
 20 25  1  0  0  0  0
 21 20  1  0  0  0  0
 23 24  2  0  0  0  0
 23 27  1  0  0  0  0
 25 23  1  0  0  0  0
 26 25  1  0  0  0  0
 27 32  2  0  0  0  0
 27 28  1  0  0  0  0
 28 29  2  0  0  0  0
 29 30  1  0  0  0  0
 29 34  1  0  0  0  0
 30 35  1  0  0  0  0
 31 36  1  0  0  0  0
 31 30  2  0  0  0  0
 32 31  1  0  0  0  0
 33 28  1  0  0  0  0
 37 36  1  0  0  0  0
 38 37  1  0  0  0  0
 38 36  1  0  0  0  0
M  END
>  <minimizedAffinity>
-5.09119368

$$$$
