
 OpenBabel03252501433D

 39 42  0  0  0  0  0  0  0  0999 V2000
   36.8130   27.9050   40.0970 Cl  0  0  0  0  0  0  0  0  0  0  0  0
   37.8820   27.5880   41.4410 C   0  0  0  0  0  0  0  0  0  0  0  0
   38.3000   28.5760   42.3380 C   0  0  0  0  0  0  0  0  0  0  0  0
   39.1370   28.2780   43.3730 C   0  0  0  0  0  0  0  0  0  0  0  0
   39.6210   27.0010   43.6040 C   0  0  0  0  0  0  0  0  0  0  0  0
   39.2210   25.9780   42.7210 C   0  0  0  0  0  0  0  0  0  0  0  0
   39.7840   24.3310   42.9350 Cl  0  0  0  0  0  0  0  0  0  0  0  0
   38.3730   26.3250   41.6870 C   0  0  0  0  0  0  0  0  0  0  0  0
   39.4230   29.0850   44.0300 H   0  0  0  0  0  0  0  0  0  0  0  0
   40.2790   26.7460   44.4110 H   0  0  0  0  0  0  0  0  0  0  0  0
   36.2380   24.7470   42.3040 F   0  0  0  0  0  0  0  0  0  0  0  0
   36.8660   24.4910   41.1040 C   0  0  0  0  0  0  0  0  0  0  0  0
   37.9510   25.2720   40.7620 C   0  0  0  0  0  0  0  0  0  0  0  0
   38.5580   24.9800   39.5370 C   0  0  0  0  0  0  0  0  0  0  0  0
   38.0530   23.9510   38.7570 C   0  0  0  0  0  0  0  0  0  0  0  0
   36.9460   23.1960   39.1650 C   0  0  0  0  0  0  0  0  0  0  0  0
   36.3230   23.4630   40.3740 C   0  0  0  0  0  0  0  0  0  0  0  0
   39.4010   25.5870   39.2730 H   0  0  0  0  0  0  0  0  0  0  0  0
   38.5720   23.7780   37.8210 H   0  0  0  0  0  0  0  0  0  0  0  0
   36.5870   22.4000   38.5190 H   0  0  0  0  0  0  0  0  0  0  0  0
   35.4700   22.9040   40.7210 H   0  0  0  0  0  0  0  0  0  0  0  0
   37.8050   29.8690   42.0970 O   0  0  0  0  0  0  0  0  0  0  0  0
   38.6280   30.7590   41.4030 C   0  0  0  0  0  0  0  0  0  0  0  0
   39.8780   30.9880   41.6080 O   0  0  0  0  0  0  0  0  0  0  0  0
   38.1050   31.5430   40.3300 N   0  0  0  0  0  0  0  0  0  0  0  0
   37.1380   31.4720   39.9930 H   0  0  0  0  0  0  0  0  0  0  0  0
   39.1460   32.4160   39.8250 C   0  0  0  0  0  0  0  0  0  0  0  0
   39.4630   33.6510   40.2960 C   0  0  0  0  0  0  0  0  0  0  0  0
   40.4910   34.3170   39.6700 C   0  0  0  0  0  0  0  0  0  0  0  0
   41.1100   33.6970   38.6340 N   0  0  0  0  0  0  0  0  0  0  0  0
   40.7680   32.4760   38.1980 C   0  0  0  0  0  0  0  0  0  0  0  0
   39.7650   31.8070   38.7960 N   0  0  0  0  0  0  0  0  0  0  0  0
   40.7520   35.3000   40.0380 H   0  0  0  0  0  0  0  0  0  0  0  0
   38.7100   34.1370   41.3830 N   0  0  0  0  0  0  0  0  0  0  0  0
   39.0220   34.2820   42.3860 H   0  0  0  0  0  0  0  0  0  0  0  0
   37.7210   34.3780   41.1540 H   0  0  0  0  0  0  0  0  0  0  0  0
   41.5380   31.9090   37.0400 C   0  0  0  0  0  3  0  0  0  0  0  0
   42.9980   31.8960   37.0380 C   0  0  0  0  0  2  0  0  0  0  0  0
   42.2870   30.6320   37.3930 C   0  0  0  0  0  2  0  0  0  0  0  0
  1  2  1  0  0  0  0
  2  8  2  0  0  0  0
  2  3  1  0  0  0  0
  3  4  2  0  0  0  0
  4  5  1  0  0  0  0
  4  9  1  0  0  0  0
  5 10  1  0  0  0  0
  6  7  1  0  0  0  0
  6  5  2  0  0  0  0
  8  6  1  0  0  0  0
 12 11  1  0  0  0  0
 13 12  1  0  0  0  0
 13  8  1  0  0  0  0
 14 13  2  0  0  0  0
 15 16  2  0  0  0  0
 15 14  1  0  0  0  0
 16 17  1  0  0  0  0
 17 21  1  0  0  0  0
 17 12  2  0  0  0  0
 18 14  1  0  0  0  0
 19 15  1  0  0  0  0
 20 16  1  0  0  0  0
 22  3  1  0  0  0  0
 23 24  2  0  0  0  0
 23 22  1  0  0  0  0
 25 23  1  0  0  0  0
 26 25  1  0  0  0  0
 27 28  1  0  0  0  0
 27 25  1  0  0  0  0
 28 34  1  0  0  0  0
 29 33  1  0  0  0  0
 29 28  2  0  0  0  0
 30 29  1  0  0  0  0
 31 30  2  0  0  0  0
 31 32  1  0  0  0  0
 32 27  2  0  0  0  0
 34 35  1  0  0  0  0
 36 34  1  0  0  0  0
 37 39  1  0  0  0  0
 37 31  1  0  0  0  0
 38 37  1  0  0  0  0
 38 39  1  0  0  0  0
M  END
>  <minimizedAffinity>
-6.52507639

$$$$

 OpenBabel03252501433D

 39 42  0  0  0  0  0  0  0  0999 V2000
   36.9990   27.0280   39.5410 Cl  0  0  0  0  0  0  0  0  0  0  0  0
   37.7420   27.0380   41.1220 C   0  0  0  0  0  0  0  0  0  0  0  0
   37.7270   28.1500   41.9700 C   0  0  0  0  0  0  0  0  0  0  0  0
   38.3220   28.1080   43.1960 C   0  0  0  0  0  0  0  0  0  0  0  0
   38.9700   26.9830   43.6780 C   0  0  0  0  0  0  0  0  0  0  0  0
   39.0060   25.8410   42.8530 C   0  0  0  0  0  0  0  0  0  0  0  0
   39.8030   24.3720   43.3790 Cl  0  0  0  0  0  0  0  0  0  0  0  0
   38.3900   25.9290   41.6190 C   0  0  0  0  0  0  0  0  0  0  0  0
   38.2750   29.0000   43.8020 H   0  0  0  0  0  0  0  0  0  0  0  0
   39.4440   26.9290   44.6390 H   0  0  0  0  0  0  0  0  0  0  0  0
   36.3610   24.1120   41.7180 F   0  0  0  0  0  0  0  0  0  0  0  0
   37.3770   23.8500   40.8250 C   0  0  0  0  0  0  0  0  0  0  0  0
   38.4200   24.7510   40.7500 C   0  0  0  0  0  0  0  0  0  0  0  0
   39.4300   24.4490   39.8320 C   0  0  0  0  0  0  0  0  0  0  0  0
   39.3330   23.2950   39.0700 C   0  0  0  0  0  0  0  0  0  0  0  0
   38.2430   22.4220   39.1960 C   0  0  0  0  0  0  0  0  0  0  0  0
   37.2270   22.6960   40.0980 C   0  0  0  0  0  0  0  0  0  0  0  0
   40.2400   25.1490   39.7750 H   0  0  0  0  0  0  0  0  0  0  0  0
   40.1490   23.1210   38.3790 H   0  0  0  0  0  0  0  0  0  0  0  0
   38.2120   21.5300   38.5770 H   0  0  0  0  0  0  0  0  0  0  0  0
   36.3750   22.0490   40.2230 H   0  0  0  0  0  0  0  0  0  0  0  0
   37.0680   29.2880   41.4730 O   0  0  0  0  0  0  0  0  0  0  0  0
   37.8570   30.3330   40.9880 C   0  0  0  0  0  0  0  0  0  0  0  0
   38.3150   30.4760   39.7930 O   0  0  0  0  0  0  0  0  0  0  0  0
   38.2460   31.4060   41.8470 N   0  0  0  0  0  0  0  0  0  0  0  0
   37.9470   31.4870   42.8260 H   0  0  0  0  0  0  0  0  0  0  0  0
   39.1010   32.3180   41.1150 C   0  0  0  0  0  0  0  0  0  0  0  0
   38.6940   33.3400   40.3160 C   0  0  0  0  0  0  0  0  0  0  0  0
   39.6750   34.0910   39.7090 C   0  0  0  0  0  0  0  0  0  0  0  0
   40.9680   33.7600   39.9500 N   0  0  0  0  0  0  0  0  0  0  0  0
   41.3300   32.7430   40.7470 C   0  0  0  0  0  0  0  0  0  0  0  0
   40.3860   31.9960   41.3500 N   0  0  0  0  0  0  0  0  0  0  0  0
   39.3620   34.9070   39.0710 H   0  0  0  0  0  0  0  0  0  0  0  0
   37.3060   33.5380   40.1810 N   0  0  0  0  0  0  0  0  0  0  0  0
   36.7160   34.3340   40.5590 H   0  0  0  0  0  0  0  0  0  0  0  0
   36.8110   32.7970   39.6380 H   0  0  0  0  0  0  0  0  0  0  0  0
   42.7980   32.4860   40.9260 C   0  0  0  0  0  3  0  0  0  0  0  0
   43.7750   33.5630   40.7920 C   0  0  0  0  0  2  0  0  0  0  0  0
   43.3700   33.1510   42.1690 C   0  0  0  0  0  2  0  0  0  0  0  0
  1  2  1  0  0  0  0
  2  8  2  0  0  0  0
  2  3  1  0  0  0  0
  3  4  2  0  0  0  0
  4  5  1  0  0  0  0
  4  9  1  0  0  0  0
  5 10  1  0  0  0  0
  6  7  1  0  0  0  0
  6  5  2  0  0  0  0
  8  6  1  0  0  0  0
 12 11  1  0  0  0  0
 13 12  1  0  0  0  0
 13  8  1  0  0  0  0
 14 13  2  0  0  0  0
 15 16  2  0  0  0  0
 15 14  1  0  0  0  0
 16 17  1  0  0  0  0
 17 21  1  0  0  0  0
 17 12  2  0  0  0  0
 18 14  1  0  0  0  0
 19 15  1  0  0  0  0
 20 16  1  0  0  0  0
 22  3  1  0  0  0  0
 23 22  1  0  0  0  0
 23 25  1  0  0  0  0
 24 23  2  0  0  0  0
 25 26  1  0  0  0  0
 27 32  1  0  0  0  0
 27 25  1  0  0  0  0
 28 27  2  0  0  0  0
 29 30  2  0  0  0  0
 29 28  1  0  0  0  0
 30 31  1  0  0  0  0
 31 37  1  0  0  0  0
 31 32  2  0  0  0  0
 33 29  1  0  0  0  0
 34 28  1  0  0  0  0
 34 35  1  0  0  0  0
 36 34  1  0  0  0  0
 37 39  1  0  0  0  0
 38 37  1  0  0  0  0
 38 39  1  0  0  0  0
M  END
>  <minimizedAffinity>
-6.30264854

$$$$

 OpenBabel03252501433D

 39 42  0  0  0  0  0  0  0  0999 V2000
   38.9050   30.2670   42.1950 Cl  0  0  0  0  0  0  0  0  0  0  0  0
   37.9910   30.2880   40.7060 C   0  0  0  0  0  0  0  0  0  0  0  0
   37.7110   31.4580   39.9950 C   0  0  0  0  0  0  0  0  0  0  0  0
   36.9920   31.4230   38.8360 C   0  0  0  0  0  0  0  0  0  0  0  0
   36.4990   30.2480   38.2940 C   0  0  0  0  0  0  0  0  0  0  0  0
   36.7620   29.0460   38.9820 C   0  0  0  0  0  0  0  0  0  0  0  0
   36.1780   27.5100   38.3710 Cl  0  0  0  0  0  0  0  0  0  0  0  0
   37.4930   29.1300   40.1510 C   0  0  0  0  0  0  0  0  0  0  0  0
   36.8090   32.3610   38.3350 H   0  0  0  0  0  0  0  0  0  0  0  0
   35.9320   30.1970   37.3850 H   0  0  0  0  0  0  0  0  0  0  0  0
   35.8040   28.2950   42.1210 F   0  0  0  0  0  0  0  0  0  0  0  0
   36.8970   27.4950   41.8690 C   0  0  0  0  0  0  0  0  0  0  0  0
   37.7730   27.8890   40.8780 C   0  0  0  0  0  0  0  0  0  0  0  0
   38.8680   27.0500   40.6530 C   0  0  0  0  0  0  0  0  0  0  0  0
   39.0110   25.9010   41.4170 C   0  0  0  0  0  0  0  0  0  0  0  0
   38.0820   25.5600   42.4100 C   0  0  0  0  0  0  0  0  0  0  0  0
   36.9870   26.3730   42.6540 C   0  0  0  0  0  0  0  0  0  0  0  0
   39.5470   27.3570   39.8830 H   0  0  0  0  0  0  0  0  0  0  0  0
   39.8820   25.2960   41.1920 H   0  0  0  0  0  0  0  0  0  0  0  0
   38.2380   24.6500   42.9820 H   0  0  0  0  0  0  0  0  0  0  0  0
   36.2530   26.1430   43.4080 H   0  0  0  0  0  0  0  0  0  0  0  0
   38.2130   32.6470   40.5520 O   0  0  0  0  0  0  0  0  0  0  0  0
   39.4360   33.1220   40.0710 C   0  0  0  0  0  0  0  0  0  0  0  0
   39.7790   34.3480   39.8890 O   0  0  0  0  0  0  0  0  0  0  0  0
   40.4770   32.2110   39.7170 N   0  0  0  0  0  0  0  0  0  0  0  0
   40.4050   31.1930   39.8270 H   0  0  0  0  0  0  0  0  0  0  0  0
   41.6060   32.9560   39.1970 C   0  0  0  0  0  0  0  0  0  0  0  0
   41.8150   33.3060   37.9000 C   0  0  0  0  0  0  0  0  0  0  0  0
   42.9580   34.0170   37.6180 C   0  0  0  0  0  0  0  0  0  0  0  0
   43.7900   34.3160   38.6470 N   0  0  0  0  0  0  0  0  0  0  0  0
   43.5500   33.9520   39.9160 C   0  0  0  0  0  0  0  0  0  0  0  0
   42.4370   33.2560   40.2140 N   0  0  0  0  0  0  0  0  0  0  0  0
   43.1340   34.3020   36.5890 H   0  0  0  0  0  0  0  0  0  0  0  0
   40.8410   32.9090   36.9630 N   0  0  0  0  0  0  0  0  0  0  0  0
   40.1500   33.5170   36.4360 H   0  0  0  0  0  0  0  0  0  0  0  0
   40.8100   31.8840   36.7760 H   0  0  0  0  0  0  0  0  0  0  0  0
   44.5560   34.3490   40.9580 C   0  0  0  0  0  3  0  0  0  0  0  0
   44.5740   33.7100   42.2700 C   0  0  0  0  0  2  0  0  0  0  0  0
   45.5670   33.2520   41.2540 C   0  0  0  0  0  2  0  0  0  0  0  0
  2  1  1  0  0  0  0
  3 22  1  0  0  0  0
  3  2  2  0  0  0  0
  4  3  1  0  0  0  0
  5  4  2  0  0  0  0
  5  6  1  0  0  0  0
  6  8  2  0  0  0  0
  7  6  1  0  0  0  0
  8  2  1  0  0  0  0
  8 13  1  0  0  0  0
  9  4  1  0  0  0  0
 10  5  1  0  0  0  0
 12 11  1  0  0  0  0
 12 17  1  0  0  0  0
 13 12  2  0  0  0  0
 14 13  1  0  0  0  0
 14 15  2  0  0  0  0
 15 16  1  0  0  0  0
 16 17  2  0  0  0  0
 16 20  1  0  0  0  0
 17 21  1  0  0  0  0
 18 14  1  0  0  0  0
 19 15  1  0  0  0  0
 23 22  1  0  0  0  0
 24 23  2  0  0  0  0
 25 26  1  0  0  0  0
 25 23  1  0  0  0  0
 27 25  1  0  0  0  0
 27 32  1  0  0  0  0
 28 27  2  0  0  0  0
 29 28  1  0  0  0  0
 29 30  2  0  0  0  0
 30 31  1  0  0  0  0
 31 32  2  0  0  0  0
 31 37  1  0  0  0  0
 33 29  1  0  0  0  0
 34 28  1  0  0  0  0
 35 34  1  0  0  0  0
 36 34  1  0  0  0  0
 37 39  1  0  0  0  0
 37 38  1  0  0  0  0
 39 38  1  0  0  0  0
M  END
>  <minimizedAffinity>
-6.27582121

$$$$

 OpenBabel03252501433D

 39 42  0  0  0  0  0  0  0  0999 V2000
   36.9380   31.9760   38.7270 Cl  0  0  0  0  0  0  0  0  0  0  0  0
   37.4720   30.8050   39.9090 C   0  0  0  0  0  0  0  0  0  0  0  0
   38.2770   31.1320   41.0040 C   0  0  0  0  0  0  0  0  0  0  0  0
   38.6680   30.1810   41.9000 C   0  0  0  0  0  0  0  0  0  0  0  0
   38.3020   28.8500   41.7890 C   0  0  0  0  0  0  0  0  0  0  0  0
   37.4890   28.4810   40.6980 C   0  0  0  0  0  0  0  0  0  0  0  0
   36.9760   26.8190   40.4770 Cl  0  0  0  0  0  0  0  0  0  0  0  0
   37.1180   29.4770   39.8160 C   0  0  0  0  0  0  0  0  0  0  0  0
   39.2890   30.4980   42.7230 H   0  0  0  0  0  0  0  0  0  0  0  0
   38.5980   28.0860   42.4820 H   0  0  0  0  0  0  0  0  0  0  0  0
   34.4100   29.3540   40.1090 F   0  0  0  0  0  0  0  0  0  0  0  0
   34.9080   29.0550   38.8590 C   0  0  0  0  0  0  0  0  0  0  0  0
   36.2750   29.1070   38.6770 C   0  0  0  0  0  0  0  0  0  0  0  0
   36.7380   28.7970   37.3950 C   0  0  0  0  0  0  0  0  0  0  0  0
   35.8260   28.4630   36.4060 C   0  0  0  0  0  0  0  0  0  0  0  0
   34.4480   28.4290   36.6590 C   0  0  0  0  0  0  0  0  0  0  0  0
   33.9600   28.7320   37.9200 C   0  0  0  0  0  0  0  0  0  0  0  0
   37.8000   28.8380   37.2550 H   0  0  0  0  0  0  0  0  0  0  0  0
   36.2520   28.2330   35.4360 H   0  0  0  0  0  0  0  0  0  0  0  0
   33.7730   28.1610   35.8520 H   0  0  0  0  0  0  0  0  0  0  0  0
   32.9090   28.7160   38.1520 H   0  0  0  0  0  0  0  0  0  0  0  0
   38.6450   32.4850   41.1090 O   0  0  0  0  0  0  0  0  0  0  0  0
   39.7000   32.9330   40.3110 C   0  0  0  0  0  0  0  0  0  0  0  0
   39.9300   34.1390   39.9260 O   0  0  0  0  0  0  0  0  0  0  0  0
   40.6800   32.0150   39.8250 N   0  0  0  0  0  0  0  0  0  0  0  0
   40.6870   31.0150   40.0560 H   0  0  0  0  0  0  0  0  0  0  0  0
   41.6220   32.7240   38.9830 C   0  0  0  0  0  0  0  0  0  0  0  0
   41.4950   32.9620   37.6500 C   0  0  0  0  0  0  0  0  0  0  0  0
   42.5100   33.6580   37.0360 C   0  0  0  0  0  0  0  0  0  0  0  0
   43.5580   34.0560   37.8000 N   0  0  0  0  0  0  0  0  0  0  0  0
   43.6480   33.8020   39.1150 C   0  0  0  0  0  0  0  0  0  0  0  0
   42.6660   33.1220   39.7340 N   0  0  0  0  0  0  0  0  0  0  0  0
   42.4180   33.8540   35.9770 H   0  0  0  0  0  0  0  0  0  0  0  0
   40.3340   32.4730   37.0180 N   0  0  0  0  0  0  0  0  0  0  0  0
   39.5150   33.0240   36.6310 H   0  0  0  0  0  0  0  0  0  0  0  0
   40.2920   31.4340   36.9300 H   0  0  0  0  0  0  0  0  0  0  0  0
   44.8650   34.3000   39.8390 C   0  0  0  0  0  3  0  0  0  0  0  0
   45.2200   33.7880   41.1590 C   0  0  0  0  0  2  0  0  0  0  0  0
   45.9490   33.2420   39.9760 C   0  0  0  0  0  2  0  0  0  0  0  0
  1  2  1  0  0  0  0
  2  3  1  0  0  0  0
  3 22  1  0  0  0  0
  3  4  2  0  0  0  0
  4  9  1  0  0  0  0
  5  4  1  0  0  0  0
  5 10  1  0  0  0  0
  6  5  2  0  0  0  0
  7  6  1  0  0  0  0
  8  2  2  0  0  0  0
  8  6  1  0  0  0  0
 12 11  1  0  0  0  0
 13 12  1  0  0  0  0
 13  8  1  0  0  0  0
 14 13  2  0  0  0  0
 15 16  2  0  0  0  0
 15 14  1  0  0  0  0
 16 17  1  0  0  0  0
 17 21  1  0  0  0  0
 17 12  2  0  0  0  0
 18 14  1  0  0  0  0
 19 15  1  0  0  0  0
 20 16  1  0  0  0  0
 23 22  1  0  0  0  0
 24 23  2  0  0  0  0
 25 26  1  0  0  0  0
 25 23  1  0  0  0  0
 27 32  1  0  0  0  0
 27 25  1  0  0  0  0
 28 27  2  0  0  0  0
 29 28  1  0  0  0  0
 29 30  2  0  0  0  0
 30 31  1  0  0  0  0
 31 32  2  0  0  0  0
 31 37  1  0  0  0  0
 33 29  1  0  0  0  0
 34 28  1  0  0  0  0
 35 34  1  0  0  0  0
 36 34  1  0  0  0  0
 37 39  1  0  0  0  0
 37 38  1  0  0  0  0
 39 38  1  0  0  0  0
M  END
>  <minimizedAffinity>
-6.16434097

$$$$

 OpenBabel03252501433D

 39 42  0  0  0  0  0  0  0  0999 V2000
   37.7700   28.5710   42.2110 Cl  0  0  0  0  0  0  0  0  0  0  0  0
   36.8410   28.4190   40.7400 C   0  0  0  0  0  0  0  0  0  0  0  0
   36.2070   29.4980   40.1170 C   0  0  0  0  0  0  0  0  0  0  0  0
   35.4920   29.3280   38.9690 C   0  0  0  0  0  0  0  0  0  0  0  0
   35.3460   28.0980   38.3500 C   0  0  0  0  0  0  0  0  0  0  0  0
   35.9710   26.9840   38.9480 C   0  0  0  0  0  0  0  0  0  0  0  0
   35.8420   25.3880   38.2360 Cl  0  0  0  0  0  0  0  0  0  0  0  0
   36.6850   27.2040   40.1100 C   0  0  0  0  0  0  0  0  0  0  0  0
   35.0270   30.2020   38.5380 H   0  0  0  0  0  0  0  0  0  0  0  0
   34.7890   27.9420   37.4470 H   0  0  0  0  0  0  0  0  0  0  0  0
   39.2180   26.5080   39.3810 F   0  0  0  0  0  0  0  0  0  0  0  0
   38.6220   25.7310   40.3500 C   0  0  0  0  0  0  0  0  0  0  0  0
   37.3390   26.0560   40.7420 C   0  0  0  0  0  0  0  0  0  0  0  0
   36.7710   25.2430   41.7270 C   0  0  0  0  0  0  0  0  0  0  0  0
   37.5040   24.1850   42.2410 C   0  0  0  0  0  0  0  0  0  0  0  0
   38.8050   23.9100   41.7970 C   0  0  0  0  0  0  0  0  0  0  0  0
   39.3950   24.6990   40.8220 C   0  0  0  0  0  0  0  0  0  0  0  0
   35.7750   25.4960   42.0300 H   0  0  0  0  0  0  0  0  0  0  0  0
   37.0040   23.5950   43.0000 H   0  0  0  0  0  0  0  0  0  0  0  0
   39.3400   23.0700   42.2300 H   0  0  0  0  0  0  0  0  0  0  0  0
   40.3910   24.5180   40.4570 H   0  0  0  0  0  0  0  0  0  0  0  0
   36.3590   30.7440   40.7520 O   0  0  0  0  0  0  0  0  0  0  0  0
   37.4460   31.5350   40.3740 C   0  0  0  0  0  0  0  0  0  0  0  0
   37.5120   32.3460   39.3770 O   0  0  0  0  0  0  0  0  0  0  0  0
   38.6610   31.5020   41.1240 N   0  0  0  0  0  0  0  0  0  0  0  0
   38.7890   30.9420   41.9750 H   0  0  0  0  0  0  0  0  0  0  0  0
   39.6380   32.3640   40.4900 C   0  0  0  0  0  0  0  0  0  0  0  0
   39.7170   33.7160   40.6060 C   0  0  0  0  0  0  0  0  0  0  0  0
   40.7260   34.3480   39.9170 C   0  0  0  0  0  0  0  0  0  0  0  0
   41.5640   33.5810   39.1760 N   0  0  0  0  0  0  0  0  0  0  0  0
   41.4540   32.2470   39.0860 C   0  0  0  0  0  0  0  0  0  0  0  0
   40.4740   31.6100   39.7520 N   0  0  0  0  0  0  0  0  0  0  0  0
   40.7980   35.4240   40.0030 H   0  0  0  0  0  0  0  0  0  0  0  0
   38.7580   34.3480   41.4230 N   0  0  0  0  0  0  0  0  0  0  0  0
   38.9010   34.8150   42.3640 H   0  0  0  0  0  0  0  0  0  0  0  0
   37.7890   34.3480   41.0360 H   0  0  0  0  0  0  0  0  0  0  0  0
   42.4500   31.5220   38.2280 C   0  0  0  0  0  3  0  0  0  0  0  0
   42.4820   30.0630   38.1780 C   0  0  0  0  0  2  0  0  0  0  0  0
   41.8060   30.7890   37.0610 C   0  0  0  0  0  2  0  0  0  0  0  0
  2  1  1  0  0  0  0
  3  2  1  0  0  0  0
  3 22  1  0  0  0  0
  4  3  2  0  0  0  0
  5  6  2  0  0  0  0
  5  4  1  0  0  0  0
  6  8  1  0  0  0  0
  7  6  1  0  0  0  0
  8  2  2  0  0  0  0
  8 13  1  0  0  0  0
  9  4  1  0  0  0  0
 10  5  1  0  0  0  0
 11 12  1  0  0  0  0
 12 13  2  0  0  0  0
 12 17  1  0  0  0  0
 13 14  1  0  0  0  0
 14 18  1  0  0  0  0
 14 15  2  0  0  0  0
 15 19  1  0  0  0  0
 16 20  1  0  0  0  0
 16 15  1  0  0  0  0
 17 16  2  0  0  0  0
 21 17  1  0  0  0  0
 23 22  1  0  0  0  0
 23 25  1  0  0  0  0
 24 23  2  0  0  0  0
 25 26  1  0  0  0  0
 27 28  1  0  0  0  0
 27 25  1  0  0  0  0
 28 34  1  0  0  0  0
 29 33  1  0  0  0  0
 29 28  2  0  0  0  0
 30 29  1  0  0  0  0
 31 30  2  0  0  0  0
 31 32  1  0  0  0  0
 32 27  2  0  0  0  0
 34 35  1  0  0  0  0
 36 34  1  0  0  0  0
 37 31  1  0  0  0  0
 38 37  1  0  0  0  0
 39 38  1  0  0  0  0
 39 37  1  0  0  0  0
M  END
>  <minimizedAffinity>
-6.0858202

$$$$

 OpenBabel03252501433D

 39 42  0  0  0  0  0  0  0  0999 V2000
   37.1440   27.8090   39.3820 Cl  0  0  0  0  0  0  0  0  0  0  0  0
   38.1050   28.0810   40.8150 C   0  0  0  0  0  0  0  0  0  0  0  0
   38.4970   29.3520   41.2460 C   0  0  0  0  0  0  0  0  0  0  0  0
   39.2490   29.5130   42.3720 C   0  0  0  0  0  0  0  0  0  0  0  0
   39.6680   28.4490   43.1530 C   0  0  0  0  0  0  0  0  0  0  0  0
   39.2920   27.1510   42.7520 C   0  0  0  0  0  0  0  0  0  0  0  0
   39.7770   25.7440   43.6780 Cl  0  0  0  0  0  0  0  0  0  0  0  0
   38.5310   27.0360   41.6050 C   0  0  0  0  0  0  0  0  0  0  0  0
   39.5190   30.5200   42.6510 H   0  0  0  0  0  0  0  0  0  0  0  0
   40.2590   28.5520   44.0420 H   0  0  0  0  0  0  0  0  0  0  0  0
   40.1760   25.5820   39.9890 F   0  0  0  0  0  0  0  0  0  0  0  0
   38.9900   24.9840   40.3580 C   0  0  0  0  0  0  0  0  0  0  0  0
   38.1340   25.6940   41.1750 C   0  0  0  0  0  0  0  0  0  0  0  0
   36.9420   25.0520   41.5250 C   0  0  0  0  0  0  0  0  0  0  0  0
   36.6930   23.7750   41.0450 C   0  0  0  0  0  0  0  0  0  0  0  0
   37.6070   23.1100   40.2170 C   0  0  0  0  0  0  0  0  0  0  0  0
   38.7970   23.7220   39.8540 C   0  0  0  0  0  0  0  0  0  0  0  0
   36.2790   25.6040   42.1590 H   0  0  0  0  0  0  0  0  0  0  0  0
   35.7510   23.3360   41.3540 H   0  0  0  0  0  0  0  0  0  0  0  0
   37.3660   22.1110   39.8660 H   0  0  0  0  0  0  0  0  0  0  0  0
   39.5230   23.2430   39.2190 H   0  0  0  0  0  0  0  0  0  0  0  0
   38.0690   30.4270   40.4480 O   0  0  0  0  0  0  0  0  0  0  0  0
   39.0150   31.3940   40.1000 C   0  0  0  0  0  0  0  0  0  0  0  0
   38.9620   32.6580   40.3330 O   0  0  0  0  0  0  0  0  0  0  0  0
   40.2070   31.0230   39.4060 N   0  0  0  0  0  0  0  0  0  0  0  0
   40.4460   30.0540   39.1640 H   0  0  0  0  0  0  0  0  0  0  0  0
   40.9820   32.2130   39.1190 C   0  0  0  0  0  0  0  0  0  0  0  0
   41.0280   32.8810   37.9360 C   0  0  0  0  0  0  0  0  0  0  0  0
   41.8330   33.9950   37.8740 C   0  0  0  0  0  0  0  0  0  0  0  0
   42.5180   34.3450   38.9920 N   0  0  0  0  0  0  0  0  0  0  0  0
   42.4470   33.6590   40.1430 C   0  0  0  0  0  0  0  0  0  0  0  0
   41.6660   32.5660   40.2240 N   0  0  0  0  0  0  0  0  0  0  0  0
   41.8760   34.5350   36.9380 H   0  0  0  0  0  0  0  0  0  0  0  0
   40.2470   32.3720   36.8790 N   0  0  0  0  0  0  0  0  0  0  0  0
   39.3740   32.7910   36.4470 H   0  0  0  0  0  0  0  0  0  0  0  0
   40.5850   31.4670   36.4850 H   0  0  0  0  0  0  0  0  0  0  0  0
   43.2600   34.1560   41.3030 C   0  0  0  0  0  3  0  0  0  0  0  0
   43.6950   33.2520   42.3630 C   0  0  0  0  0  2  0  0  0  0  0  0
   44.6830   33.6190   41.3050 C   0  0  0  0  0  2  0  0  0  0  0  0
  1  2  1  0  0  0  0
  2  3  2  0  0  0  0
  2  8  1  0  0  0  0
  3  4  1  0  0  0  0
  4  9  1  0  0  0  0
  4  5  2  0  0  0  0
  5 10  1  0  0  0  0
  6  5  1  0  0  0  0
  6  7  1  0  0  0  0
  8  6  2  0  0  0  0
 11 12  1  0  0  0  0
 12 13  1  0  0  0  0
 13 14  2  0  0  0  0
 13  8  1  0  0  0  0
 14 18  1  0  0  0  0
 15 19  1  0  0  0  0
 15 14  1  0  0  0  0
 16 15  2  0  0  0  0
 17 16  1  0  0  0  0
 17 12  2  0  0  0  0
 20 16  1  0  0  0  0
 21 17  1  0  0  0  0
 22  3  1  0  0  0  0
 23 24  2  0  0  0  0
 23 22  1  0  0  0  0
 25 23  1  0  0  0  0
 26 25  1  0  0  0  0
 27 25  1  0  0  0  0
 27 32  1  0  0  0  0
 28 27  2  0  0  0  0
 29 28  1  0  0  0  0
 29 30  2  0  0  0  0
 30 31  1  0  0  0  0
 31 32  2  0  0  0  0
 31 37  1  0  0  0  0
 33 29  1  0  0  0  0
 34 28  1  0  0  0  0
 35 34  1  0  0  0  0
 36 34  1  0  0  0  0
 37 39  1  0  0  0  0
 37 38  1  0  0  0  0
 39 38  1  0  0  0  0
M  END
>  <minimizedAffinity>
-6.07479239

$$$$

 OpenBabel03252501433D

 39 42  0  0  0  0  0  0  0  0999 V2000
   39.3000   29.7320   42.6170 Cl  0  0  0  0  0  0  0  0  0  0  0  0
   38.3420   30.0720   41.1960 C   0  0  0  0  0  0  0  0  0  0  0  0
   38.1680   31.3580   40.6780 C   0  0  0  0  0  0  0  0  0  0  0  0
   37.4090   31.5720   39.5650 C   0  0  0  0  0  0  0  0  0  0  0  0
   36.7720   30.5500   38.8830 C   0  0  0  0  0  0  0  0  0  0  0  0
   36.9240   29.2370   39.3750 C   0  0  0  0  0  0  0  0  0  0  0  0
   36.1540   27.8800   38.5770 Cl  0  0  0  0  0  0  0  0  0  0  0  0
   37.7010   29.0680   40.5040 C   0  0  0  0  0  0  0  0  0  0  0  0
   37.3140   32.5890   39.2160 H   0  0  0  0  0  0  0  0  0  0  0  0
   36.1710   30.6950   38.0060 H   0  0  0  0  0  0  0  0  0  0  0  0
   35.9340   28.0870   42.3330 F   0  0  0  0  0  0  0  0  0  0  0  0
   36.9550   27.2440   41.9510 C   0  0  0  0  0  0  0  0  0  0  0  0
   37.8680   27.7100   41.0270 C   0  0  0  0  0  0  0  0  0  0  0  0
   38.8870   26.8240   40.6670 C   0  0  0  0  0  0  0  0  0  0  0  0
   38.9250   25.5630   41.2410 C   0  0  0  0  0  0  0  0  0  0  0  0
   37.9650   25.1530   42.1760 C   0  0  0  0  0  0  0  0  0  0  0  0
   36.9420   26.0100   42.5520 C   0  0  0  0  0  0  0  0  0  0  0  0
   39.5950   27.1870   39.9490 H   0  0  0  0  0  0  0  0  0  0  0  0
   39.7410   24.9270   40.9180 H   0  0  0  0  0  0  0  0  0  0  0  0
   38.0370   24.1550   42.5990 H   0  0  0  0  0  0  0  0  0  0  0  0
   36.1880   25.7300   43.2670 H   0  0  0  0  0  0  0  0  0  0  0  0
   38.8170   32.3910   41.3760 O   0  0  0  0  0  0  0  0  0  0  0  0
   40.0590   32.8160   40.8980 C   0  0  0  0  0  0  0  0  0  0  0  0
   40.2840   33.6750   39.9670 O   0  0  0  0  0  0  0  0  0  0  0  0
   41.2660   32.2870   41.4490 N   0  0  0  0  0  0  0  0  0  0  0  0
   41.2910   31.6170   42.2260 H   0  0  0  0  0  0  0  0  0  0  0  0
   42.3990   32.8470   40.7400 C   0  0  0  0  0  0  0  0  0  0  0  0
   43.2310   33.8240   41.1900 C   0  0  0  0  0  0  0  0  0  0  0  0
   44.2520   34.2140   40.3550 C   0  0  0  0  0  0  0  0  0  0  0  0
   44.3550   33.5990   39.1500 N   0  0  0  0  0  0  0  0  0  0  0  0
   43.5140   32.6370   38.7400 C   0  0  0  0  0  0  0  0  0  0  0  0
   42.5080   32.2420   39.5420 N   0  0  0  0  0  0  0  0  0  0  0  0
   44.9200   34.9900   40.7030 H   0  0  0  0  0  0  0  0  0  0  0  0
   42.9720   34.3490   42.4720 N   0  0  0  0  0  0  0  0  0  0  0  0
   43.5390   34.2260   43.3590 H   0  0  0  0  0  0  0  0  0  0  0  0
   42.1070   34.9290   42.5370 H   0  0  0  0  0  0  0  0  0  0  0  0
   43.7440   32.0420   37.3810 C   0  0  0  0  0  3  0  0  0  0  0  0
   45.0920   31.8780   36.8470 C   0  0  0  0  0  2  0  0  0  0  0  0
   44.4200   30.6810   37.4360 C   0  0  0  0  0  2  0  0  0  0  0  0
  2  1  1  0  0  0  0
  3  2  1  0  0  0  0
  3 22  1  0  0  0  0
  4  3  2  0  0  0  0
  5  6  2  0  0  0  0
  5  4  1  0  0  0  0
  6  8  1  0  0  0  0
  7  6  1  0  0  0  0
  8 13  1  0  0  0  0
  8  2  2  0  0  0  0
  9  4  1  0  0  0  0
 10  5  1  0  0  0  0
 12 11  1  0  0  0  0
 12 17  1  0  0  0  0
 13 12  2  0  0  0  0
 14 13  1  0  0  0  0
 14 15  2  0  0  0  0
 15 16  1  0  0  0  0
 16 17  2  0  0  0  0
 16 20  1  0  0  0  0
 17 21  1  0  0  0  0
 18 14  1  0  0  0  0
 19 15  1  0  0  0  0
 23 22  1  0  0  0  0
 23 25  1  0  0  0  0
 24 23  2  0  0  0  0
 25 26  1  0  0  0  0
 27 28  1  0  0  0  0
 27 25  1  0  0  0  0
 28 34  1  0  0  0  0
 29 33  1  0  0  0  0
 29 28  2  0  0  0  0
 30 29  1  0  0  0  0
 31 30  2  0  0  0  0
 31 32  1  0  0  0  0
 32 27  2  0  0  0  0
 34 36  1  0  0  0  0
 34 35  1  0  0  0  0
 37 39  1  0  0  0  0
 37 31  1  0  0  0  0
 38 37  1  0  0  0  0
 38 39  1  0  0  0  0
M  END
>  <minimizedAffinity>
-6.06687212

$$$$

 OpenBabel03252501433D

 39 42  0  0  0  0  0  0  0  0999 V2000
   35.1790   28.8550   40.2240 Cl  0  0  0  0  0  0  0  0  0  0  0  0
   36.1810   29.7730   39.1260 C   0  0  0  0  0  0  0  0  0  0  0  0
   37.1770   30.6570   39.5530 C   0  0  0  0  0  0  0  0  0  0  0  0
   37.9330   31.3520   38.6560 C   0  0  0  0  0  0  0  0  0  0  0  0
   37.7710   31.2330   37.2860 C   0  0  0  0  0  0  0  0  0  0  0  0
   36.7770   30.3510   36.8160 C   0  0  0  0  0  0  0  0  0  0  0  0
   36.5000   30.1350   35.0990 Cl  0  0  0  0  0  0  0  0  0  0  0  0
   36.0350   29.6680   37.7610 C   0  0  0  0  0  0  0  0  0  0  0  0
   38.6850   32.0180   39.0490 H   0  0  0  0  0  0  0  0  0  0  0  0
   38.3540   31.7690   36.5630 H   0  0  0  0  0  0  0  0  0  0  0  0
   36.6310   27.0400   37.3470 F   0  0  0  0  0  0  0  0  0  0  0  0
   35.3320   27.4250   37.0880 C   0  0  0  0  0  0  0  0  0  0  0  0
   34.9980   28.7490   37.2870 C   0  0  0  0  0  0  0  0  0  0  0  0
   33.6720   29.0970   37.0140 C   0  0  0  0  0  0  0  0  0  0  0  0
   32.7920   28.1230   36.5690 C   0  0  0  0  0  0  0  0  0  0  0  0
   33.1980   26.7940   36.3880 C   0  0  0  0  0  0  0  0  0  0  0  0
   34.5060   26.4190   36.6520 C   0  0  0  0  0  0  0  0  0  0  0  0
   33.4140   30.1250   37.1690 H   0  0  0  0  0  0  0  0  0  0  0  0
   31.7800   28.4610   36.3760 H   0  0  0  0  0  0  0  0  0  0  0  0
   32.4720   26.0670   36.0380 H   0  0  0  0  0  0  0  0  0  0  0  0
   34.8550   25.4090   36.5240 H   0  0  0  0  0  0  0  0  0  0  0  0
   37.3350   30.7730   40.9450 O   0  0  0  0  0  0  0  0  0  0  0  0
   37.8670   29.6780   41.6300 C   0  0  0  0  0  0  0  0  0  0  0  0
   37.5840   29.2920   42.8250 O   0  0  0  0  0  0  0  0  0  0  0  0
   38.8410   28.8390   41.0080 N   0  0  0  0  0  0  0  0  0  0  0  0
   39.1660   28.9640   40.0430 H   0  0  0  0  0  0  0  0  0  0  0  0
   39.2650   27.8220   41.9490 C   0  0  0  0  0  0  0  0  0  0  0  0
   40.2580   27.9370   42.8700 C   0  0  0  0  0  0  0  0  0  0  0  0
   40.5020   26.8450   43.6710 C   0  0  0  0  0  0  0  0  0  0  0  0
   39.7380   25.7390   43.4850 N   0  0  0  0  0  0  0  0  0  0  0  0
   38.7650   25.6640   42.5640 C   0  0  0  0  0  0  0  0  0  0  0  0
   38.5110   26.7200   41.7700 N   0  0  0  0  0  0  0  0  0  0  0  0
   41.2890   26.9270   44.4080 H   0  0  0  0  0  0  0  0  0  0  0  0
   40.9480   29.1650   42.9210 N   0  0  0  0  0  0  0  0  0  0  0  0
   40.9150   29.9050   43.6790 H   0  0  0  0  0  0  0  0  0  0  0  0
   41.5640   29.3520   42.1000 H   0  0  0  0  0  0  0  0  0  0  0  0
   37.9980   24.3770   42.4660 C   0  0  0  0  0  3  0  0  0  0  0  0
   36.9180   24.2160   41.4970 C   0  0  0  0  0  2  0  0  0  0  0  0
   38.2510   23.6330   41.1640 C   0  0  0  0  0  2  0  0  0  0  0  0
  2  3  1  0  0  0  0
  2  1  1  0  0  0  0
  3 22  1  0  0  0  0
  4  9  1  0  0  0  0
  4  3  2  0  0  0  0
  5  4  1  0  0  0  0
  6  5  2  0  0  0  0
  6  8  1  0  0  0  0
  7  6  1  0  0  0  0
  8  2  2  0  0  0  0
 10  5  1  0  0  0  0
 12 13  1  0  0  0  0
 12 11  1  0  0  0  0
 13  8  1  0  0  0  0
 14 18  1  0  0  0  0
 14 13  2  0  0  0  0
 15 14  1  0  0  0  0
 16 15  2  0  0  0  0
 16 17  1  0  0  0  0
 17 12  2  0  0  0  0
 19 15  1  0  0  0  0
 20 16  1  0  0  0  0
 21 17  1  0  0  0  0
 22 23  1  0  0  0  0
 23 24  2  0  0  0  0
 25 23  1  0  0  0  0
 25 27  1  0  0  0  0
 26 25  1  0  0  0  0
 27 28  1  0  0  0  0
 28 34  1  0  0  0  0
 28 29  2  0  0  0  0
 29 33  1  0  0  0  0
 30 29  1  0  0  0  0
 31 30  2  0  0  0  0
 32 27  2  0  0  0  0
 32 31  1  0  0  0  0
 34 35  1  0  0  0  0
 36 34  1  0  0  0  0
 37 31  1  0  0  0  0
 38 37  1  0  0  0  0
 39 38  1  0  0  0  0
 39 37  1  0  0  0  0
M  END
>  <minimizedAffinity>
-5.98399544

$$$$

 OpenBabel03252501433D

 39 42  0  0  0  0  0  0  0  0999 V2000
   36.5610   27.6780   41.6770 Cl  0  0  0  0  0  0  0  0  0  0  0  0
   38.2250   27.1910   41.4630 C   0  0  0  0  0  0  0  0  0  0  0  0
   39.3010   27.8450   42.0700 C   0  0  0  0  0  0  0  0  0  0  0  0
   40.5830   27.4270   41.8710 C   0  0  0  0  0  0  0  0  0  0  0  0
   40.9030   26.3440   41.0680 C   0  0  0  0  0  0  0  0  0  0  0  0
   39.8450   25.6580   40.4390 C   0  0  0  0  0  0  0  0  0  0  0  0
   40.1550   24.2760   39.4050 Cl  0  0  0  0  0  0  0  0  0  0  0  0
   38.5630   26.1170   40.6690 C   0  0  0  0  0  0  0  0  0  0  0  0
   41.3690   27.9740   42.3680 H   0  0  0  0  0  0  0  0  0  0  0  0
   41.9040   25.9980   40.8980 H   0  0  0  0  0  0  0  0  0  0  0  0
   37.3750   24.0040   41.9160 F   0  0  0  0  0  0  0  0  0  0  0  0
   36.8740   24.3490   40.6790 C   0  0  0  0  0  0  0  0  0  0  0  0
   37.4540   25.4140   40.0200 C   0  0  0  0  0  0  0  0  0  0  0  0
   36.9170   25.7310   38.7690 C   0  0  0  0  0  0  0  0  0  0  0  0
   35.8640   24.9790   38.2720 C   0  0  0  0  0  0  0  0  0  0  0  0
   35.3210   23.9080   38.9950 C   0  0  0  0  0  0  0  0  0  0  0  0
   35.8330   23.5710   40.2380 C   0  0  0  0  0  0  0  0  0  0  0  0
   37.3680   26.5580   38.2590 H   0  0  0  0  0  0  0  0  0  0  0  0
   35.4960   25.2780   37.2970 H   0  0  0  0  0  0  0  0  0  0  0  0
   34.4970   23.3490   38.5640 H   0  0  0  0  0  0  0  0  0  0  0  0
   35.4430   22.7550   40.8220 H   0  0  0  0  0  0  0  0  0  0  0  0
   38.9680   28.9430   42.8820 O   0  0  0  0  0  0  0  0  0  0  0  0
   39.2030   30.2220   42.3710 C   0  0  0  0  0  0  0  0  0  0  0  0
   39.5990   31.2610   43.0190 O   0  0  0  0  0  0  0  0  0  0  0  0
   39.0060   30.4940   40.9830 N   0  0  0  0  0  0  0  0  0  0  0  0
   38.7270   29.7820   40.2980 H   0  0  0  0  0  0  0  0  0  0  0  0
   39.2620   31.8980   40.7310 C   0  0  0  0  0  0  0  0  0  0  0  0
   38.3290   32.8660   40.5340 C   0  0  0  0  0  0  0  0  0  0  0  0
   38.7880   34.1440   40.3090 C   0  0  0  0  0  0  0  0  0  0  0  0
   40.1300   34.3440   40.3000 N   0  0  0  0  0  0  0  0  0  0  0  0
   41.0200   33.3610   40.5000 C   0  0  0  0  0  0  0  0  0  0  0  0
   40.5930   32.1040   40.7210 N   0  0  0  0  0  0  0  0  0  0  0  0
   38.0530   34.9230   40.1510 H   0  0  0  0  0  0  0  0  0  0  0  0
   36.9760   32.4740   40.5770 N   0  0  0  0  0  0  0  0  0  0  0  0
   36.2500   32.7010   41.3160 H   0  0  0  0  0  0  0  0  0  0  0  0
   36.6680   31.8860   39.7730 H   0  0  0  0  0  0  0  0  0  0  0  0
   42.4770   33.7220   40.4630 C   0  0  0  0  0  3  0  0  0  0  0  0
   43.4750   32.7830   39.9600 C   0  0  0  0  0  2  0  0  0  0  0  0
   43.0160   33.8740   39.0490 C   0  0  0  0  0  2  0  0  0  0  0  0
  2  1  1  0  0  0  0
  2  3  1  0  0  0  0
  3 22  1  0  0  0  0
  4  3  2  0  0  0  0
  4  9  1  0  0  0  0
  5  4  1  0  0  0  0
  6  8  1  0  0  0  0
  6  5  2  0  0  0  0
  7  6  1  0  0  0  0
  8  2  2  0  0  0  0
 10  5  1  0  0  0  0
 12 11  1  0  0  0  0
 13  8  1  0  0  0  0
 13 12  2  0  0  0  0
 14 13  1  0  0  0  0
 15 14  2  0  0  0  0
 15 16  1  0  0  0  0
 16 17  2  0  0  0  0
 17 12  1  0  0  0  0
 17 21  1  0  0  0  0
 18 14  1  0  0  0  0
 19 15  1  0  0  0  0
 20 16  1  0  0  0  0
 23 22  1  0  0  0  0
 23 24  2  0  0  0  0
 25 23  1  0  0  0  0
 26 25  1  0  0  0  0
 27 25  1  0  0  0  0
 28 34  1  0  0  0  0
 28 27  2  0  0  0  0
 29 28  1  0  0  0  0
 30 29  2  0  0  0  0
 30 31  1  0  0  0  0
 31 32  2  0  0  0  0
 32 27  1  0  0  0  0
 33 29  1  0  0  0  0
 34 35  1  0  0  0  0
 36 34  1  0  0  0  0
 37 31  1  0  0  0  0
 38 37  1  0  0  0  0
 39 38  1  0  0  0  0
 39 37  1  0  0  0  0
M  END
>  <minimizedAffinity>
-5.97372675

$$$$
