
 OpenBabel03252506193D

 17 18  0  0  0  0  0  0  0  0999 V2000
   37.5100   28.3100   42.3610 C   0  0  0  0  0  0  0  0  0  0  0  0
   38.7630   28.6520   42.9290 C   0  0  0  0  0  0  0  0  0  0  0  0
   39.2930   29.9210   42.6420 C   0  0  0  0  0  0  0  0  0  0  0  0
   38.5740   30.7530   41.8330 N   0  0  0  0  0  0  0  0  0  0  0  0
   37.3720   30.3890   41.3040 C   0  0  0  0  0  0  0  0  0  0  0  0
   36.8660   29.1690   41.5830 N   0  0  0  0  0  0  0  0  0  0  0  0
   39.3370   27.9920   43.5730 H   0  0  0  0  0  0  0  0  0  0  0  0
   40.2420   30.2280   43.0500 H   0  0  0  0  0  0  0  0  0  0  0  0
   36.5840   31.2780   40.4280 C   0  0  0  0  0  3  0  0  0  0  0  0
   37.2900   32.4850   39.8590 C   0  0  0  0  0  2  0  0  0  0  0  0
   36.9790   31.3240   38.9440 C   0  0  0  0  0  2  0  0  0  0  0  0
   36.9780   26.9900   42.6700 C   0  0  0  0  0  3  0  0  0  0  0  0
   37.3300   25.9640   41.8890 C   0  0  0  0  0  3  0  0  0  0  0  0
   36.8320   24.5920   42.1400 C   0  0  0  0  0  0  0  0  0  0  0  0
   35.8000   24.4290   41.7700 H   0  0  0  0  0  0  0  0  0  0  0  0
   37.5040   23.8630   41.6480 H   0  0  0  0  0  0  0  0  0  0  0  0
   36.9000   24.3730   43.2370 H   0  0  0  0  0  0  0  0  0  0  0  0
  1 12  1  0  0  0  0
  1  2  1  0  0  0  0
  2  7  1  0  0  0  0
  3  2  2  0  0  0  0
  3  8  1  0  0  0  0
  4  3  1  0  0  0  0
  5  6  1  0  0  0  0
  5  4  2  0  0  0  0
  6  1  2  0  0  0  0
  9  5  1  0  0  0  0
 10  9  1  0  0  0  0
 11 10  1  0  0  0  0
 11  9  1  0  0  0  0
 13 14  1  0  0  0  0
 13 12  2  0  0  0  0
 14 17  1  0  0  0  0
 15 14  1  0  0  0  0
 16 14  1  0  0  0  0
M  END
>  <minimizedAffinity>
-4.15863657

$$$$

 OpenBabel03252506193D

 17 18  0  0  0  0  0  0  0  0999 V2000
   35.8370   29.6920   40.3070 C   0  0  0  0  0  0  0  0  0  0  0  0
   36.6030   30.7420   39.7420 C   0  0  0  0  0  0  0  0  0  0  0  0
   37.7650   31.1500   40.4210 C   0  0  0  0  0  0  0  0  0  0  0  0
   38.0890   30.5140   41.5850 N   0  0  0  0  0  0  0  0  0  0  0  0
   37.3270   29.5090   42.0980 C   0  0  0  0  0  0  0  0  0  0  0  0
   36.2120   29.1190   41.4430 N   0  0  0  0  0  0  0  0  0  0  0  0
   36.3480   31.2500   38.8170 H   0  0  0  0  0  0  0  0  0  0  0  0
   38.3810   31.9440   40.0320 H   0  0  0  0  0  0  0  0  0  0  0  0
   37.6660   28.8130   43.3540 C   0  0  0  0  0  3  0  0  0  0  0  0
   36.8880   27.5610   43.6800 C   0  0  0  0  0  2  0  0  0  0  0  0
   38.3250   27.4300   43.2300 C   0  0  0  0  0  2  0  0  0  0  0  0
   34.6380   29.2850   39.5890 C   0  0  0  0  0  3  0  0  0  0  0  0
   34.7510   28.9470   38.3010 C   0  0  0  0  0  3  0  0  0  0  0  0
   33.5780   28.5210   37.5050 C   0  0  0  0  0  0  0  0  0  0  0  0
   32.9570   29.3710   37.1540 H   0  0  0  0  0  0  0  0  0  0  0  0
   33.9220   27.9470   36.6220 H   0  0  0  0  0  0  0  0  0  0  0  0
   32.9650   27.8040   38.1100 H   0  0  0  0  0  0  0  0  0  0  0  0
  1  6  1  0  0  0  0
  2  1  2  0  0  0  0
  2  3  1  0  0  0  0
  3  4  2  0  0  0  0
  4  5  1  0  0  0  0
  5  9  1  0  0  0  0
  6  5  2  0  0  0  0
  7  2  1  0  0  0  0
  8  3  1  0  0  0  0
  9 10  1  0  0  0  0
 11  9  1  0  0  0  0
 11 10  1  0  0  0  0
 12  1  1  0  0  0  0
 13 12  2  0  0  0  0
 14 17  1  0  0  0  0
 14 13  1  0  0  0  0
 15 14  1  0  0  0  0
 16 14  1  0  0  0  0
M  END
>  <minimizedAffinity>
-4.06926727

$$$$

 OpenBabel03252506193D

 17 18  0  0  0  0  0  0  0  0999 V2000
   37.2290   26.9960   42.1830 C   0  0  0  0  0  0  0  0  0  0  0  0
   38.1560   27.4340   43.1620 C   0  0  0  0  0  0  0  0  0  0  0  0
   38.3600   28.8170   43.3050 C   0  0  0  0  0  0  0  0  0  0  0  0
   37.6570   29.6610   42.4930 N   0  0  0  0  0  0  0  0  0  0  0  0
   36.7750   29.2020   41.5620 C   0  0  0  0  0  0  0  0  0  0  0  0
   36.5810   27.8730   41.4290 N   0  0  0  0  0  0  0  0  0  0  0  0
   38.7170   26.7660   43.8090 H   0  0  0  0  0  0  0  0  0  0  0  0
   39.0540   29.2010   44.0350 H   0  0  0  0  0  0  0  0  0  0  0  0
   36.0080   30.1030   40.6790 C   0  0  0  0  0  3  0  0  0  0  0  0
   36.5750   31.4810   40.4430 C   0  0  0  0  0  2  0  0  0  0  0  0
   36.6450   30.4630   39.3280 C   0  0  0  0  0  2  0  0  0  0  0  0
   37.0320   25.5600   42.0510 C   0  0  0  0  0  3  0  0  0  0  0  0
   36.9500   25.0390   40.8230 C   0  0  0  0  0  3  0  0  0  0  0  0
   36.7510   23.5880   40.6070 C   0  0  0  0  0  0  0  0  0  0  0  0
   35.6980   23.2680   40.7360 H   0  0  0  0  0  0  0  0  0  0  0  0
   37.0790   23.3210   39.5830 H   0  0  0  0  0  0  0  0  0  0  0  0
   37.4270   23.0200   41.2970 H   0  0  0  0  0  0  0  0  0  0  0  0
  1  2  1  0  0  0  0
  2  3  2  0  0  0  0
  2  7  1  0  0  0  0
  3  8  1  0  0  0  0
  4  3  1  0  0  0  0
  5  4  2  0  0  0  0
  6  5  1  0  0  0  0
  6  1  2  0  0  0  0
  9  5  1  0  0  0  0
 10  9  1  0  0  0  0
 11 10  1  0  0  0  0
 11  9  1  0  0  0  0
 12  1  1  0  0  0  0
 13 12  2  0  0  0  0
 14 15  1  0  0  0  0
 14 13  1  0  0  0  0
 14 17  1  0  0  0  0
 16 14  1  0  0  0  0
M  END
>  <minimizedAffinity>
-3.99102354

$$$$

 OpenBabel03252506193D

 17 18  0  0  0  0  0  0  0  0999 V2000
   37.3420   30.6870   41.0480 C   0  0  0  0  0  0  0  0  0  0  0  0
   36.1920   30.5930   40.2240 C   0  0  0  0  0  0  0  0  0  0  0  0
   35.4040   29.4330   40.3200 C   0  0  0  0  0  0  0  0  0  0  0  0
   35.7890   28.4620   41.1990 N   0  0  0  0  0  0  0  0  0  0  0  0
   36.9020   28.5880   41.9750 C   0  0  0  0  0  0  0  0  0  0  0  0
   37.6560   29.7030   41.8800 N   0  0  0  0  0  0  0  0  0  0  0  0
   35.8830   31.3640   39.5230 H   0  0  0  0  0  0  0  0  0  0  0  0
   34.5200   29.3140   39.7150 H   0  0  0  0  0  0  0  0  0  0  0  0
   37.3290   27.5460   42.9300 C   0  0  0  0  0  3  0  0  0  0  0  0
   36.9620   26.1190   42.6020 C   0  0  0  0  0  2  0  0  0  0  0  0
   38.4010   26.5560   42.4480 C   0  0  0  0  0  2  0  0  0  0  0  0
   38.1440   31.8960   40.9330 C   0  0  0  0  0  3  0  0  0  0  0  0
   37.6780   32.9000   40.1840 C   0  0  0  0  0  3  0  0  0  0  0  0
   38.4360   34.1610   40.0190 C   0  0  0  0  0  0  0  0  0  0  0  0
   39.2570   34.0830   39.2780 H   0  0  0  0  0  0  0  0  0  0  0  0
   37.7450   34.9650   39.6990 H   0  0  0  0  0  0  0  0  0  0  0  0
   38.8310   34.4840   41.0170 H   0  0  0  0  0  0  0  0  0  0  0  0
  1  6  1  0  0  0  0
  2  3  1  0  0  0  0
  2  1  2  0  0  0  0
  3  4  2  0  0  0  0
  4  5  1  0  0  0  0
  5  9  1  0  0  0  0
  6  5  2  0  0  0  0
  7  2  1  0  0  0  0
  8  3  1  0  0  0  0
 10  9  1  0  0  0  0
 11 10  1  0  0  0  0
 11  9  1  0  0  0  0
 12  1  1  0  0  0  0
 13 12  2  0  0  0  0
 14 13  1  0  0  0  0
 14 17  1  0  0  0  0
 15 14  1  0  0  0  0
 16 14  1  0  0  0  0
M  END
>  <minimizedAffinity>
-3.90138745

$$$$

 OpenBabel03252506193D

 17 18  0  0  0  0  0  0  0  0999 V2000
   38.4430   31.3690   41.1310 C   0  0  0  0  0  0  0  0  0  0  0  0
   37.2570   31.5650   40.3780 C   0  0  0  0  0  0  0  0  0  0  0  0
   36.1780   30.6950   40.6080 C   0  0  0  0  0  0  0  0  0  0  0  0
   36.3300   29.7100   41.5410 N   0  0  0  0  0  0  0  0  0  0  0  0
   37.4850   29.5520   42.2450 C   0  0  0  0  0  0  0  0  0  0  0  0
   38.5200   30.3900   42.0210 N   0  0  0  0  0  0  0  0  0  0  0  0
   37.1330   32.3480   39.6350 H   0  0  0  0  0  0  0  0  0  0  0  0
   35.2550   30.8040   40.0610 H   0  0  0  0  0  0  0  0  0  0  0  0
   37.6630   28.4920   43.2570 C   0  0  0  0  0  3  0  0  0  0  0  0
   36.5810   27.4430   43.3530 C   0  0  0  0  0  2  0  0  0  0  0  0
   37.9090   27.0670   42.7380 C   0  0  0  0  0  2  0  0  0  0  0  0
   39.5490   32.2800   40.8770 C   0  0  0  0  0  3  0  0  0  0  0  0
   39.4290   33.1650   39.8820 C   0  0  0  0  0  3  0  0  0  0  0  0
   40.5100   34.1250   39.5640 C   0  0  0  0  0  0  0  0  0  0  0  0
   41.3320   33.6750   38.9700 H   0  0  0  0  0  0  0  0  0  0  0  0
   40.0890   34.9770   38.9950 H   0  0  0  0  0  0  0  0  0  0  0  0
   40.9030   34.5630   40.5170 H   0  0  0  0  0  0  0  0  0  0  0  0
  1  6  1  0  0  0  0
  2  3  1  0  0  0  0
  2  1  2  0  0  0  0
  3  4  2  0  0  0  0
  4  5  1  0  0  0  0
  5  9  1  0  0  0  0
  6  5  2  0  0  0  0
  7  2  1  0  0  0  0
  8  3  1  0  0  0  0
  9 10  1  0  0  0  0
 11  9  1  0  0  0  0
 11 10  1  0  0  0  0
 12  1  1  0  0  0  0
 13 12  2  0  0  0  0
 14 13  1  0  0  0  0
 14 17  1  0  0  0  0
 15 14  1  0  0  0  0
 16 14  1  0  0  0  0
M  END
>  <minimizedAffinity>
-3.88899446

$$$$

 OpenBabel03252506193D

 17 18  0  0  0  0  0  0  0  0999 V2000
   38.1540   24.7220   42.0920 C   0  0  0  0  0  0  0  0  0  0  0  0
   39.3910   24.3710   42.6890 C   0  0  0  0  0  0  0  0  0  0  0  0
   40.0240   25.3240   43.5050 C   0  0  0  0  0  0  0  0  0  0  0  0
   39.4150   26.5350   43.6750 N   0  0  0  0  0  0  0  0  0  0  0  0
   38.2260   26.8370   43.0830 C   0  0  0  0  0  0  0  0  0  0  0  0
   37.6210   25.9180   42.3010 N   0  0  0  0  0  0  0  0  0  0  0  0
   39.8780   23.4090   42.5560 H   0  0  0  0  0  0  0  0  0  0  0  0
   40.9650   25.1050   43.9820 H   0  0  0  0  0  0  0  0  0  0  0  0
   37.5570   28.1410   43.2590 C   0  0  0  0  0  3  0  0  0  0  0  0
   38.4320   29.3700   43.2510 C   0  0  0  0  0  2  0  0  0  0  0  0
   37.5540   29.0920   42.0520 C   0  0  0  0  0  2  0  0  0  0  0  0
   37.5150   23.7210   41.2510 C   0  0  0  0  0  3  0  0  0  0  0  0
   36.4510   24.0830   40.5260 C   0  0  0  0  0  3  0  0  0  0  0  0
   35.7490   23.1230   39.6460 C   0  0  0  0  0  0  0  0  0  0  0  0
   35.0570   22.4530   40.1960 H   0  0  0  0  0  0  0  0  0  0  0  0
   35.1700   23.6790   38.8840 H   0  0  0  0  0  0  0  0  0  0  0  0
   36.5070   22.5280   39.0740 H   0  0  0  0  0  0  0  0  0  0  0  0
  1  6  2  0  0  0  0
  1  2  1  0  0  0  0
  2  3  2  0  0  0  0
  3  4  1  0  0  0  0
  3  8  1  0  0  0  0
  5  9  1  0  0  0  0
  5  4  2  0  0  0  0
  6  5  1  0  0  0  0
  7  2  1  0  0  0  0
 10  9  1  0  0  0  0
 11 10  1  0  0  0  0
 11  9  1  0  0  0  0
 12  1  1  0  0  0  0
 13 12  2  0  0  0  0
 14 15  1  0  0  0  0
 14 13  1  0  0  0  0
 16 14  1  0  0  0  0
 17 14  1  0  0  0  0
M  END
>  <minimizedAffinity>
-3.87276959

$$$$

 OpenBabel03252506193D

 17 18  0  0  0  0  0  0  0  0999 V2000
   36.9400   30.1090   40.1190 C   0  0  0  0  0  0  0  0  0  0  0  0
   36.2290   29.0560   39.4890 C   0  0  0  0  0  0  0  0  0  0  0  0
   36.2090   27.8020   40.1230 C   0  0  0  0  0  0  0  0  0  0  0  0
   36.8760   27.6660   41.3070 N   0  0  0  0  0  0  0  0  0  0  0  0
   37.5510   28.7010   41.8810 C   0  0  0  0  0  0  0  0  0  0  0  0
   37.5660   29.9050   41.2690 N   0  0  0  0  0  0  0  0  0  0  0  0
   35.6970   29.1620   38.5480 H   0  0  0  0  0  0  0  0  0  0  0  0
   35.6820   26.9700   39.6850 H   0  0  0  0  0  0  0  0  0  0  0  0
   38.2750   28.5680   43.1600 C   0  0  0  0  0  3  0  0  0  0  0  0
   38.5460   27.1680   43.6560 C   0  0  0  0  0  2  0  0  0  0  0  0
   39.6930   27.9790   43.1000 C   0  0  0  0  0  2  0  0  0  0  0  0
   36.9490   31.4000   39.4460 C   0  0  0  0  0  3  0  0  0  0  0  0
   37.3060   32.4800   40.1480 C   0  0  0  0  0  3  0  0  0  0  0  0
   37.3400   33.8270   39.5340 C   0  0  0  0  0  0  0  0  0  0  0  0
   36.3390   34.2960   39.4550 H   0  0  0  0  0  0  0  0  0  0  0  0
   37.9950   34.4880   40.1350 H   0  0  0  0  0  0  0  0  0  0  0  0
   37.8270   33.7580   38.5260 H   0  0  0  0  0  0  0  0  0  0  0  0
  1  6  1  0  0  0  0
  2  1  2  0  0  0  0
  2  3  1  0  0  0  0
  3  4  2  0  0  0  0
  4  5  1  0  0  0  0
  5  9  1  0  0  0  0
  6  5  2  0  0  0  0
  7  2  1  0  0  0  0
  8  3  1  0  0  0  0
  9 10  1  0  0  0  0
 11  9  1  0  0  0  0
 11 10  1  0  0  0  0
 12  1  1  0  0  0  0
 12 13  2  0  0  0  0
 14 16  1  0  0  0  0
 14 13  1  0  0  0  0
 15 14  1  0  0  0  0
 17 14  1  0  0  0  0
M  END
>  <minimizedAffinity>
-3.78758049

$$$$

 OpenBabel03252506193D

 17 18  0  0  0  0  0  0  0  0999 V2000
   37.0230   28.5710   41.1790 C   0  0  0  0  0  0  0  0  0  0  0  0
   37.4720   29.3010   42.3080 C   0  0  0  0  0  0  0  0  0  0  0  0
   37.7230   28.5920   43.4950 C   0  0  0  0  0  0  0  0  0  0  0  0
   37.5200   27.2420   43.4960 N   0  0  0  0  0  0  0  0  0  0  0  0
   37.0860   26.5740   42.3900 C   0  0  0  0  0  0  0  0  0  0  0  0
   36.8470   27.2590   41.2520 N   0  0  0  0  0  0  0  0  0  0  0  0
   37.6340   30.3750   42.3110 H   0  0  0  0  0  0  0  0  0  0  0  0
   38.0660   29.1020   44.3810 H   0  0  0  0  0  0  0  0  0  0  0  0
   36.8630   25.1150   42.3770 C   0  0  0  0  0  3  0  0  0  0  0  0
   36.8500   24.4330   41.0310 C   0  0  0  0  0  2  0  0  0  0  0  0
   38.0430   24.2330   41.9380 C   0  0  0  0  0  2  0  0  0  0  0  0
   36.7690   29.3240   39.9600 C   0  0  0  0  0  3  0  0  0  0  0  0
   37.2080   30.5840   39.8870 C   0  0  0  0  0  3  0  0  0  0  0  0
   36.9890   31.4140   38.6800 C   0  0  0  0  0  0  0  0  0  0  0  0
   35.9670   31.8410   38.6240 H   0  0  0  0  0  0  0  0  0  0  0  0
   37.7210   32.2440   38.6680 H   0  0  0  0  0  0  0  0  0  0  0  0
   37.2130   30.8010   37.7690 H   0  0  0  0  0  0  0  0  0  0  0  0
  1  6  2  0  0  0  0
  1  2  1  0  0  0  0
  2  7  1  0  0  0  0
  2  3  2  0  0  0  0
  3  4  1  0  0  0  0
  3  8  1  0  0  0  0
  5  4  2  0  0  0  0
  6  5  1  0  0  0  0
  9  5  1  0  0  0  0
 10 11  1  0  0  0  0
 10  9  1  0  0  0  0
 11  9  1  0  0  0  0
 12  1  1  0  0  0  0
 13 12  2  0  0  0  0
 14 13  1  0  0  0  0
 15 14  1  0  0  0  0
 16 14  1  0  0  0  0
 17 14  1  0  0  0  0
M  END
>  <minimizedAffinity>
-3.73539925

$$$$

 OpenBabel03252506193D

 17 18  0  0  0  0  0  0  0  0999 V2000
   38.2660   30.0770   41.8860 C   0  0  0  0  0  0  0  0  0  0  0  0
   37.2070   30.5990   41.1010 C   0  0  0  0  0  0  0  0  0  0  0  0
   36.0850   29.7820   40.8810 C   0  0  0  0  0  0  0  0  0  0  0  0
   36.0770   28.5330   41.4320 N   0  0  0  0  0  0  0  0  0  0  0  0
   37.1150   28.0650   42.1800 C   0  0  0  0  0  0  0  0  0  0  0  0
   38.1910   28.8540   42.3900 N   0  0  0  0  0  0  0  0  0  0  0  0
   37.2100   31.5920   40.6610 H   0  0  0  0  0  0  0  0  0  0  0  0
   35.2530   30.1330   40.2910 H   0  0  0  0  0  0  0  0  0  0  0  0
   37.1200   26.7180   42.7830 C   0  0  0  0  0  3  0  0  0  0  0  0
   37.0130   25.5430   41.8410 C   0  0  0  0  0  2  0  0  0  0  0  0
   38.3430   25.8320   42.4990 C   0  0  0  0  0  2  0  0  0  0  0  0
   39.4190   30.9390   42.1010 C   0  0  0  0  0  3  0  0  0  0  0  0
   40.5200   30.4060   42.6400 C   0  0  0  0  0  3  0  0  0  0  0  0
   41.7330   31.2170   42.8890 C   0  0  0  0  0  0  0  0  0  0  0  0
   41.6660   31.8310   43.8100 H   0  0  0  0  0  0  0  0  0  0  0  0
   42.6110   30.5480   42.9730 H   0  0  0  0  0  0  0  0  0  0  0  0
   41.9320   31.8630   41.9940 H   0  0  0  0  0  0  0  0  0  0  0  0
  1 12  1  0  0  0  0
  1  6  1  0  0  0  0
  2  1  2  0  0  0  0
  3  2  1  0  0  0  0
  3  4  2  0  0  0  0
  4  5  1  0  0  0  0
  5  6  2  0  0  0  0
  5  9  1  0  0  0  0
  7  2  1  0  0  0  0
  8  3  1  0  0  0  0
 10 11  1  0  0  0  0
 10  9  1  0  0  0  0
 11  9  1  0  0  0  0
 12 13  2  0  0  0  0
 13 14  1  0  0  0  0
 14 16  1  0  0  0  0
 14 15  1  0  0  0  0
 17 14  1  0  0  0  0
M  END
>  <minimizedAffinity>
-3.64137387

$$$$
