
 OpenBabel03252502113D

 22 24  0  0  0  0  0  0  0  0999 V2000
   35.9110   26.1470   37.6170 Cl  0  0  0  0  0  0  0  0  0  0  0  0
   35.9430   27.2380   38.9740 C   0  0  0  0  0  0  0  0  0  0  0  0
   36.6040   26.9300   40.1220 C   0  0  0  0  0  0  0  0  0  0  0  0
   36.5630   27.8600   41.1260 C   0  0  0  0  0  0  0  0  0  0  0  0
   35.9060   29.0380   41.0170 C   0  0  0  0  0  0  0  0  0  0  0  0
   35.2340   29.3530   39.8520 C   0  0  0  0  0  0  0  0  0  0  0  0
   35.2640   28.4300   38.8280 C   0  0  0  0  0  0  0  0  0  0  0  0
   35.8660   29.7870   41.8100 H   0  0  0  0  0  0  0  0  0  0  0  0
   34.6860   30.2820   39.6960 H   0  0  0  0  0  0  0  0  0  0  0  0
   34.7400   28.6710   37.9160 H   0  0  0  0  0  0  0  0  0  0  0  0
   37.4020   23.2800   40.7640 C   0  0  0  0  0  0  0  0  0  0  0  0
   36.6870   24.4970   40.7020 C   0  0  0  0  0  0  0  0  0  0  0  0
   37.3010   25.6520   40.2060 C   0  0  0  0  0  0  0  0  0  0  0  0
   38.5800   25.5100   39.8060 N   0  0  0  0  0  0  0  0  0  0  0  0
   39.2470   24.3500   39.8710 C   0  0  0  0  0  0  0  0  0  0  0  0
   38.6640   23.2400   40.3450 N   0  0  0  0  0  0  0  0  0  0  0  0
   36.7950   22.4650   41.1740 H   0  0  0  0  0  0  0  0  0  0  0  0
   35.6710   24.5820   41.0270 H   0  0  0  0  0  0  0  0  0  0  0  0
   40.2740   24.2640   39.5430 H   0  0  0  0  0  0  0  0  0  0  0  0
   37.2760   27.5590   42.4000 C   0  0  0  0  0  3  0  0  0  0  0  0
   36.4970   27.4770   43.6760 C   0  0  0  0  0  2  0  0  0  0  0  0
   37.5010   28.6160   43.4140 C   0  0  0  0  0  2  0  0  0  0  0  0
  1  2  1  0  0  0  0
  2  3  1  0  0  0  0
  3 13  1  0  0  0  0
  3  4  2  0  0  0  0
  4 20  1  0  0  0  0
  5  4  1  0  0  0  0
  5  8  1  0  0  0  0
  6  5  2  0  0  0  0
  7  2  2  0  0  0  0
  7  6  1  0  0  0  0
  9  6  1  0  0  0  0
 10  7  1  0  0  0  0
 11 17  1  0  0  0  0
 12 11  1  0  0  0  0
 12 18  1  0  0  0  0
 13 12  2  0  0  0  0
 14 15  2  0  0  0  0
 14 13  1  0  0  0  0
 15 16  1  0  0  0  0
 16 11  2  0  0  0  0
 19 15  1  0  0  0  0
 20 22  1  0  0  0  0
 20 21  1  0  0  0  0
 22 21  1  0  0  0  0
M  END
>  <minimizedAffinity>
-4.71668959

$$$$

 OpenBabel03252502113D

 22 24  0  0  0  0  0  0  0  0999 V2000
   35.1110   28.8840   40.6890 Cl  0  0  0  0  0  0  0  0  0  0  0  0
   36.5890   28.7140   41.5940 C   0  0  0  0  0  0  0  0  0  0  0  0
   37.6950   29.4480   41.2990 C   0  0  0  0  0  0  0  0  0  0  0  0
   38.8030   29.2330   42.0740 C   0  0  0  0  0  0  0  0  0  0  0  0
   38.8330   28.3430   43.0930 C   0  0  0  0  0  0  0  0  0  0  0  0
   37.7090   27.5970   43.3940 C   0  0  0  0  0  0  0  0  0  0  0  0
   36.5830   27.7980   42.6260 C   0  0  0  0  0  0  0  0  0  0  0  0
   39.7090   28.1630   43.7180 H   0  0  0  0  0  0  0  0  0  0  0  0
   37.6630   26.8630   44.1990 H   0  0  0  0  0  0  0  0  0  0  0  0
   35.7030   27.2170   42.8580 H   0  0  0  0  0  0  0  0  0  0  0  0
   37.1810   32.6120   39.2750 C   0  0  0  0  0  0  0  0  0  0  0  0
   37.2290   31.7280   40.3750 C   0  0  0  0  0  0  0  0  0  0  0  0
   37.6290   30.3980   40.1950 C   0  0  0  0  0  0  0  0  0  0  0  0
   37.9520   30.0490   38.9340 N   0  0  0  0  0  0  0  0  0  0  0  0
   37.9020   30.8990   37.8990 C   0  0  0  0  0  0  0  0  0  0  0  0
   37.5200   32.1730   38.0660 N   0  0  0  0  0  0  0  0  0  0  0  0
   36.8510   33.6160   39.5670 H   0  0  0  0  0  0  0  0  0  0  0  0
   36.9670   32.0310   41.3670 H   0  0  0  0  0  0  0  0  0  0  0  0
   38.1670   30.5920   36.8960 H   0  0  0  0  0  0  0  0  0  0  0  0
   40.0360   30.0190   41.7820 C   0  0  0  0  0  3  0  0  0  0  0  0
   41.2670   29.7860   42.6010 C   0  0  0  0  0  2  0  0  0  0  0  0
   40.4780   31.1060   42.6870 C   0  0  0  0  0  2  0  0  0  0  0  0
  1  2  1  0  0  0  0
  2  7  1  0  0  0  0
  3  2  2  0  0  0  0
  3  4  1  0  0  0  0
  4  5  2  0  0  0  0
  5  6  1  0  0  0  0
  5  8  1  0  0  0  0
  6  9  1  0  0  0  0
  7 10  1  0  0  0  0
  7  6  2  0  0  0  0
 11 17  1  0  0  0  0
 11 12  1  0  0  0  0
 12 18  1  0  0  0  0
 13 12  2  0  0  0  0
 13  3  1  0  0  0  0
 14 13  1  0  0  0  0
 15 16  1  0  0  0  0
 15 14  2  0  0  0  0
 16 11  2  0  0  0  0
 19 15  1  0  0  0  0
 20  4  1  0  0  0  0
 20 21  1  0  0  0  0
 20 22  1  0  0  0  0
 21 22  1  0  0  0  0
M  END
>  <minimizedAffinity>
-4.69005156

$$$$

 OpenBabel03252502113D

 22 24  0  0  0  0  0  0  0  0999 V2000
   36.1150   25.5390   37.8870 Cl  0  0  0  0  0  0  0  0  0  0  0  0
   36.5690   25.4520   39.5660 C   0  0  0  0  0  0  0  0  0  0  0  0
   36.9120   26.5630   40.2710 C   0  0  0  0  0  0  0  0  0  0  0  0
   37.2530   26.3790   41.5840 C   0  0  0  0  0  0  0  0  0  0  0  0
   37.2590   25.1660   42.1850 C   0  0  0  0  0  0  0  0  0  0  0  0
   36.9090   24.0370   41.4700 C   0  0  0  0  0  0  0  0  0  0  0  0
   36.5630   24.2000   40.1470 C   0  0  0  0  0  0  0  0  0  0  0  0
   37.5280   25.0070   43.2300 H   0  0  0  0  0  0  0  0  0  0  0  0
   36.8920   23.0310   41.8900 H   0  0  0  0  0  0  0  0  0  0  0  0
   36.2890   23.3200   39.5840 H   0  0  0  0  0  0  0  0  0  0  0  0
   35.7980   29.9240   38.9170 C   0  0  0  0  0  0  0  0  0  0  0  0
   35.7670   28.6810   39.5880 C   0  0  0  0  0  0  0  0  0  0  0  0
   36.8960   27.8530   39.5930 C   0  0  0  0  0  0  0  0  0  0  0  0
   37.9710   28.3250   38.9320 N   0  0  0  0  0  0  0  0  0  0  0  0
   37.9870   29.5060   38.3000 C   0  0  0  0  0  0  0  0  0  0  0  0
   36.9080   30.3030   38.2910 N   0  0  0  0  0  0  0  0  0  0  0  0
   34.8450   30.4600   38.9980 H   0  0  0  0  0  0  0  0  0  0  0  0
   34.8990   28.3300   40.1050 H   0  0  0  0  0  0  0  0  0  0  0  0
   38.8650   29.8610   37.7760 H   0  0  0  0  0  0  0  0  0  0  0  0
   37.6360   27.5730   42.3910 C   0  0  0  0  0  3  0  0  0  0  0  0
   38.4300   27.3880   43.6460 C   0  0  0  0  0  2  0  0  0  0  0  0
   36.9660   27.8670   43.6800 C   0  0  0  0  0  2  0  0  0  0  0  0
  1  2  1  0  0  0  0
  2  7  2  0  0  0  0
  2  3  1  0  0  0  0
  3  4  2  0  0  0  0
  4  5  1  0  0  0  0
  4 20  1  0  0  0  0
  5  8  1  0  0  0  0
  6  9  1  0  0  0  0
  6  5  2  0  0  0  0
  7  6  1  0  0  0  0
 10  7  1  0  0  0  0
 11 17  1  0  0  0  0
 11 12  1  0  0  0  0
 12 13  2  0  0  0  0
 12 18  1  0  0  0  0
 13  3  1  0  0  0  0
 14 13  1  0  0  0  0
 15 14  2  0  0  0  0
 16 15  1  0  0  0  0
 16 11  2  0  0  0  0
 19 15  1  0  0  0  0
 20 21  1  0  0  0  0
 20 22  1  0  0  0  0
 21 22  1  0  0  0  0
M  END
>  <minimizedAffinity>
-4.52924538

$$$$

 OpenBabel03252502113D

 22 24  0  0  0  0  0  0  0  0999 V2000
   40.4190   29.5940   42.6650 Cl  0  0  0  0  0  0  0  0  0  0  0  0
   38.7960   29.0590   42.3310 C   0  0  0  0  0  0  0  0  0  0  0  0
   38.0240   29.6660   41.3890 C   0  0  0  0  0  0  0  0  0  0  0  0
   36.7630   29.1650   41.2090 C   0  0  0  0  0  0  0  0  0  0  0  0
   36.2740   28.1190   41.9140 C   0  0  0  0  0  0  0  0  0  0  0  0
   37.0570   27.5010   42.8710 C   0  0  0  0  0  0  0  0  0  0  0  0
   38.3300   27.9900   43.0680 C   0  0  0  0  0  0  0  0  0  0  0  0
   35.2710   27.7110   41.7800 H   0  0  0  0  0  0  0  0  0  0  0  0
   36.7270   26.6560   43.4740 H   0  0  0  0  0  0  0  0  0  0  0  0
   38.9450   27.5100   43.8140 H   0  0  0  0  0  0  0  0  0  0  0  0
   39.7980   31.7430   38.7600 C   0  0  0  0  0  0  0  0  0  0  0  0
   39.2750   30.6230   39.4430 C   0  0  0  0  0  0  0  0  0  0  0  0
   38.5820   30.7910   40.6480 C   0  0  0  0  0  0  0  0  0  0  0  0
   38.4600   32.0610   41.0820 N   0  0  0  0  0  0  0  0  0  0  0  0
   38.9620   33.1150   40.4230 C   0  0  0  0  0  0  0  0  0  0  0  0
   39.6260   32.9600   39.2690 N   0  0  0  0  0  0  0  0  0  0  0  0
   40.3130   31.4590   37.8350 H   0  0  0  0  0  0  0  0  0  0  0  0
   39.3860   29.6240   39.0770 H   0  0  0  0  0  0  0  0  0  0  0  0
   38.8490   34.1250   40.7940 H   0  0  0  0  0  0  0  0  0  0  0  0
   35.8870   29.8040   40.1860 C   0  0  0  0  0  3  0  0  0  0  0  0
   34.5750   29.1700   39.8430 C   0  0  0  0  0  2  0  0  0  0  0  0
   35.7390   29.2130   38.8350 C   0  0  0  0  0  2  0  0  0  0  0  0
  2  1  1  0  0  0  0
  2  7  1  0  0  0  0
  3  2  2  0  0  0  0
  4  3  1  0  0  0  0
  4  5  2  0  0  0  0
  5  6  1  0  0  0  0
  6  7  2  0  0  0  0
  6  9  1  0  0  0  0
  7 10  1  0  0  0  0
  8  5  1  0  0  0  0
 11 16  2  0  0  0  0
 11 12  1  0  0  0  0
 12 13  2  0  0  0  0
 13 14  1  0  0  0  0
 13  3  1  0  0  0  0
 15 19  1  0  0  0  0
 15 14  2  0  0  0  0
 16 15  1  0  0  0  0
 17 11  1  0  0  0  0
 18 12  1  0  0  0  0
 20  4  1  0  0  0  0
 21 20  1  0  0  0  0
 22 21  1  0  0  0  0
 22 20  1  0  0  0  0
M  END
>  <minimizedAffinity>
-4.51584578

$$$$

 OpenBabel03252502113D

 22 24  0  0  0  0  0  0  0  0999 V2000
   36.7370   30.8090   41.3320 Cl  0  0  0  0  0  0  0  0  0  0  0  0
   36.9770   29.1420   41.7710 C   0  0  0  0  0  0  0  0  0  0  0  0
   36.7830   28.1330   40.8800 C   0  0  0  0  0  0  0  0  0  0  0  0
   36.9990   26.8600   41.3320 C   0  0  0  0  0  0  0  0  0  0  0  0
   37.3880   26.5790   42.5970 C   0  0  0  0  0  0  0  0  0  0  0  0
   37.5870   27.6020   43.5040 C   0  0  0  0  0  0  0  0  0  0  0  0
   37.3740   28.8930   43.0690 C   0  0  0  0  0  0  0  0  0  0  0  0
   37.5640   25.5690   42.9700 H   0  0  0  0  0  0  0  0  0  0  0  0
   37.8990   27.4490   44.5370 H   0  0  0  0  0  0  0  0  0  0  0  0
   37.5280   29.6950   43.7740 H   0  0  0  0  0  0  0  0  0  0  0  0
   34.6580   28.9580   37.8500 C   0  0  0  0  0  0  0  0  0  0  0  0
   35.0160   28.6300   39.1770 C   0  0  0  0  0  0  0  0  0  0  0  0
   36.3630   28.4710   39.5240 C   0  0  0  0  0  0  0  0  0  0  0  0
   37.2510   28.6500   38.5270 N   0  0  0  0  0  0  0  0  0  0  0  0
   36.8960   28.9600   37.2720 C   0  0  0  0  0  0  0  0  0  0  0  0
   35.6080   29.1140   36.9340 N   0  0  0  0  0  0  0  0  0  0  0  0
   33.5720   29.0500   37.7270 H   0  0  0  0  0  0  0  0  0  0  0  0
   34.2900   28.4930   39.9500 H   0  0  0  0  0  0  0  0  0  0  0  0
   37.6310   29.0980   36.4900 H   0  0  0  0  0  0  0  0  0  0  0  0
   36.7960   25.7270   40.3830 C   0  0  0  0  0  3  0  0  0  0  0  0
   36.6920   24.3320   40.9170 C   0  0  0  0  0  2  0  0  0  0  0  0
   37.8990   24.7870   40.0740 C   0  0  0  0  0  2  0  0  0  0  0  0
  1  2  1  0  0  0  0
  2  7  1  0  0  0  0
  3  4  1  0  0  0  0
  3  2  2  0  0  0  0
  4  5  2  0  0  0  0
  5  8  1  0  0  0  0
  5  6  1  0  0  0  0
  6  9  1  0  0  0  0
  7  6  2  0  0  0  0
  7 10  1  0  0  0  0
 11 12  1  0  0  0  0
 12 13  2  0  0  0  0
 12 18  1  0  0  0  0
 13  3  1  0  0  0  0
 14 13  1  0  0  0  0
 15 14  2  0  0  0  0
 16 15  1  0  0  0  0
 16 11  2  0  0  0  0
 17 11  1  0  0  0  0
 19 15  1  0  0  0  0
 20 21  1  0  0  0  0
 20  4  1  0  0  0  0
 22 20  1  0  0  0  0
 22 21  1  0  0  0  0
M  END
>  <minimizedAffinity>
-4.49129868

$$$$

 OpenBabel03252502113D

 22 24  0  0  0  0  0  0  0  0999 V2000
   37.3020   31.3270   37.6400 Cl  0  0  0  0  0  0  0  0  0  0  0  0
   36.8700   30.3060   38.9830 C   0  0  0  0  0  0  0  0  0  0  0  0
   37.5070   30.3950   40.1810 C   0  0  0  0  0  0  0  0  0  0  0  0
   37.0880   29.5440   41.1670 C   0  0  0  0  0  0  0  0  0  0  0  0
   36.0920   28.6440   40.9950 C   0  0  0  0  0  0  0  0  0  0  0  0
   35.4430   28.5530   39.7790 C   0  0  0  0  0  0  0  0  0  0  0  0
   35.8490   29.4020   38.7720 C   0  0  0  0  0  0  0  0  0  0  0  0
   35.7490   27.9600   41.7730 H   0  0  0  0  0  0  0  0  0  0  0  0
   34.6340   27.8530   39.5710 H   0  0  0  0  0  0  0  0  0  0  0  0
   35.3460   29.3340   37.8200 H   0  0  0  0  0  0  0  0  0  0  0  0
   40.9250   32.0330   40.2890 C   0  0  0  0  0  0  0  0  0  0  0  0
   39.9230   31.0490   40.1310 C   0  0  0  0  0  0  0  0  0  0  0  0
   38.5770   31.3750   40.3330 C   0  0  0  0  0  0  0  0  0  0  0  0
   38.3280   32.6540   40.6750 N   0  0  0  0  0  0  0  0  0  0  0  0
   39.2890   33.5770   40.8220 C   0  0  0  0  0  0  0  0  0  0  0  0
   40.5800   33.2710   40.6300 N   0  0  0  0  0  0  0  0  0  0  0  0
   41.9280   31.6330   40.1000 H   0  0  0  0  0  0  0  0  0  0  0  0
   40.1480   30.0390   39.8590 H   0  0  0  0  0  0  0  0  0  0  0  0
   39.0610   34.5980   41.0970 H   0  0  0  0  0  0  0  0  0  0  0  0
   37.7620   29.6110   42.4950 C   0  0  0  0  0  3  0  0  0  0  0  0
   38.8440   28.6280   42.8210 C   0  0  0  0  0  2  0  0  0  0  0  0
   37.4830   28.6000   43.5430 C   0  0  0  0  0  2  0  0  0  0  0  0
  1  2  1  0  0  0  0
  2  3  1  0  0  0  0
  3 13  1  0  0  0  0
  3  4  2  0  0  0  0
  4 20  1  0  0  0  0
  5  4  1  0  0  0  0
  5  8  1  0  0  0  0
  6  5  2  0  0  0  0
  7  2  2  0  0  0  0
  7  6  1  0  0  0  0
  9  6  1  0  0  0  0
 10  7  1  0  0  0  0
 11 16  1  0  0  0  0
 12 11  2  0  0  0  0
 12 13  1  0  0  0  0
 13 14  2  0  0  0  0
 14 15  1  0  0  0  0
 15 19  1  0  0  0  0
 16 15  2  0  0  0  0
 17 11  1  0  0  0  0
 18 12  1  0  0  0  0
 20 21  1  0  0  0  0
 20 22  1  0  0  0  0
 21 22  1  0  0  0  0
M  END
>  <minimizedAffinity>
-4.48733377

$$$$

 OpenBabel03252502113D

 22 24  0  0  0  0  0  0  0  0999 V2000
   37.5720   24.2700   41.9610 Cl  0  0  0  0  0  0  0  0  0  0  0  0
   36.8630   24.9990   40.5480 C   0  0  0  0  0  0  0  0  0  0  0  0
   36.8390   26.3480   40.3760 C   0  0  0  0  0  0  0  0  0  0  0  0
   36.2550   26.8130   39.2290 C   0  0  0  0  0  0  0  0  0  0  0  0
   35.7190   26.0010   38.2880 C   0  0  0  0  0  0  0  0  0  0  0  0
   35.7430   24.6300   38.4610 C   0  0  0  0  0  0  0  0  0  0  0  0
   36.3270   24.1410   39.6100 C   0  0  0  0  0  0  0  0  0  0  0  0
   35.2510   26.3590   37.3700 H   0  0  0  0  0  0  0  0  0  0  0  0
   35.3310   23.9190   37.7460 H   0  0  0  0  0  0  0  0  0  0  0  0
   36.3480   23.0710   39.7490 H   0  0  0  0  0  0  0  0  0  0  0  0
   37.3160   28.4250   43.5120 C   0  0  0  0  0  0  0  0  0  0  0  0
   36.7050   27.6040   42.5370 C   0  0  0  0  0  0  0  0  0  0  0  0
   37.4250   27.1940   41.4090 C   0  0  0  0  0  0  0  0  0  0  0  0
   38.6980   27.6290   41.3350 N   0  0  0  0  0  0  0  0  0  0  0  0
   39.2650   28.4070   42.2680 C   0  0  0  0  0  0  0  0  0  0  0  0
   38.5800   28.8030   43.3500 N   0  0  0  0  0  0  0  0  0  0  0  0
   36.6330   28.6650   44.3350 H   0  0  0  0  0  0  0  0  0  0  0  0
   35.6920   27.2730   42.6190 H   0  0  0  0  0  0  0  0  0  0  0  0
   40.2900   28.7430   42.1840 H   0  0  0  0  0  0  0  0  0  0  0  0
   36.2090   28.2860   39.0040 C   0  0  0  0  0  3  0  0  0  0  0  0
   34.9420   29.0330   39.2840 C   0  0  0  0  0  2  0  0  0  0  0  0
   35.4770   28.8580   37.8490 C   0  0  0  0  0  2  0  0  0  0  0  0
  2  1  1  0  0  0  0
  3  2  1  0  0  0  0
  3 13  1  0  0  0  0
  4  3  2  0  0  0  0
  5  6  2  0  0  0  0
  5  4  1  0  0  0  0
  6  7  1  0  0  0  0
  7 10  1  0  0  0  0
  7  2  2  0  0  0  0
  8  5  1  0  0  0  0
  9  6  1  0  0  0  0
 11 17  1  0  0  0  0
 12 18  1  0  0  0  0
 12 11  2  0  0  0  0
 13 12  1  0  0  0  0
 14 13  2  0  0  0  0
 14 15  1  0  0  0  0
 15 16  2  0  0  0  0
 16 11  1  0  0  0  0
 19 15  1  0  0  0  0
 20  4  1  0  0  0  0
 20 21  1  0  0  0  0
 22 20  1  0  0  0  0
 22 21  1  0  0  0  0
M  END
>  <minimizedAffinity>
-4.43050289

$$$$

 OpenBabel03252502113D

 22 24  0  0  0  0  0  0  0  0999 V2000
   37.6290   27.8650   43.6760 Cl  0  0  0  0  0  0  0  0  0  0  0  0
   37.2680   26.8990   42.2730 C   0  0  0  0  0  0  0  0  0  0  0  0
   37.1320   27.4550   41.0390 C   0  0  0  0  0  0  0  0  0  0  0  0
   36.8460   26.6030   40.0070 C   0  0  0  0  0  0  0  0  0  0  0  0
   36.6990   25.2670   40.1670 C   0  0  0  0  0  0  0  0  0  0  0  0
   36.8370   24.7010   41.4200 C   0  0  0  0  0  0  0  0  0  0  0  0
   37.1250   25.5410   42.4730 C   0  0  0  0  0  0  0  0  0  0  0  0
   36.4710   24.5780   39.3530 H   0  0  0  0  0  0  0  0  0  0  0  0
   36.7320   23.6350   41.6210 H   0  0  0  0  0  0  0  0  0  0  0  0
   37.2340   25.1030   43.4540 H   0  0  0  0  0  0  0  0  0  0  0  0
   38.6420   30.8870   40.4750 C   0  0  0  0  0  0  0  0  0  0  0  0
   38.5310   29.4830   40.5990 C   0  0  0  0  0  0  0  0  0  0  0  0
   37.2960   28.8970   40.9010 C   0  0  0  0  0  0  0  0  0  0  0  0
   36.2650   29.7500   41.0550 N   0  0  0  0  0  0  0  0  0  0  0  0
   36.3840   31.0790   40.9340 C   0  0  0  0  0  0  0  0  0  0  0  0
   37.5640   31.6460   40.6450 N   0  0  0  0  0  0  0  0  0  0  0  0
   39.6650   31.2000   40.2380 H   0  0  0  0  0  0  0  0  0  0  0  0
   39.3670   28.8290   40.4720 H   0  0  0  0  0  0  0  0  0  0  0  0
   35.5380   31.7420   41.0630 H   0  0  0  0  0  0  0  0  0  0  0  0
   36.6900   27.1750   38.6380 C   0  0  0  0  0  3  0  0  0  0  0  0
   35.3270   27.5650   38.1560 C   0  0  0  0  0  2  0  0  0  0  0  0
   36.0920   26.3760   37.5430 C   0  0  0  0  0  2  0  0  0  0  0  0
  2  7  1  0  0  0  0
  2  1  1  0  0  0  0
  3  2  2  0  0  0  0
  4  5  2  0  0  0  0
  4  3  1  0  0  0  0
  5  6  1  0  0  0  0
  6  9  1  0  0  0  0
  6  7  2  0  0  0  0
  7 10  1  0  0  0  0
  8  5  1  0  0  0  0
 11 12  2  0  0  0  0
 11 16  1  0  0  0  0
 12 13  1  0  0  0  0
 13  3  1  0  0  0  0
 13 14  2  0  0  0  0
 15 14  1  0  0  0  0
 15 19  1  0  0  0  0
 16 15  2  0  0  0  0
 17 11  1  0  0  0  0
 18 12  1  0  0  0  0
 20  4  1  0  0  0  0
 21 20  1  0  0  0  0
 22 21  1  0  0  0  0
 22 20  1  0  0  0  0
M  END
>  <minimizedAffinity>
-4.42539883

$$$$

 OpenBabel03252502113D

 22 24  0  0  0  0  0  0  0  0999 V2000
   35.8720   29.9700   40.7690 Cl  0  0  0  0  0  0  0  0  0  0  0  0
   37.0420   29.1220   41.7400 C   0  0  0  0  0  0  0  0  0  0  0  0
   38.3540   29.4820   41.7530 C   0  0  0  0  0  0  0  0  0  0  0  0
   39.1870   28.7460   42.5510 C   0  0  0  0  0  0  0  0  0  0  0  0
   38.7630   27.7050   43.3040 C   0  0  0  0  0  0  0  0  0  0  0  0
   37.4310   27.3380   43.2920 C   0  0  0  0  0  0  0  0  0  0  0  0
   36.5740   28.0670   42.4950 C   0  0  0  0  0  0  0  0  0  0  0  0
   39.4170   27.1110   43.9440 H   0  0  0  0  0  0  0  0  0  0  0  0
   37.0210   26.5120   43.8730 H   0  0  0  0  0  0  0  0  0  0  0  0
   35.5330   27.7840   42.4830 H   0  0  0  0  0  0  0  0  0  0  0  0
   39.5620   31.5770   38.8330 C   0  0  0  0  0  0  0  0  0  0  0  0
   39.1590   30.4550   39.5920 C   0  0  0  0  0  0  0  0  0  0  0  0
   38.7770   30.6090   40.9290 C   0  0  0  0  0  0  0  0  0  0  0  0
   38.8230   31.8660   41.4110 N   0  0  0  0  0  0  0  0  0  0  0  0
   39.2080   32.9210   40.6800 C   0  0  0  0  0  0  0  0  0  0  0  0
   39.5750   32.7800   39.3980 N   0  0  0  0  0  0  0  0  0  0  0  0
   39.8320   31.3040   37.8060 H   0  0  0  0  0  0  0  0  0  0  0  0
   39.1320   29.4660   39.1840 H   0  0  0  0  0  0  0  0  0  0  0  0
   39.2350   33.9210   41.0920 H   0  0  0  0  0  0  0  0  0  0  0  0
   40.6320   29.1100   42.5920 C   0  0  0  0  0  3  0  0  0  0  0  0
   41.6090   28.3390   41.7600 C   0  0  0  0  0  2  0  0  0  0  0  0
   41.6130   28.2520   43.2980 C   0  0  0  0  0  2  0  0  0  0  0  0
  1  2  1  0  0  0  0
  2  3  2  0  0  0  0
  2  7  1  0  0  0  0
  3  4  1  0  0  0  0
  4 20  1  0  0  0  0
  4  5  2  0  0  0  0
  5  8  1  0  0  0  0
  6  5  1  0  0  0  0
  6  9  1  0  0  0  0
  7  6  2  0  0  0  0
 10  7  1  0  0  0  0
 11 16  2  0  0  0  0
 11 12  1  0  0  0  0
 12 13  2  0  0  0  0
 13 14  1  0  0  0  0
 13  3  1  0  0  0  0
 15 19  1  0  0  0  0
 15 14  2  0  0  0  0
 16 15  1  0  0  0  0
 17 11  1  0  0  0  0
 18 12  1  0  0  0  0
 20 22  1  0  0  0  0
 21 20  1  0  0  0  0
 21 22  1  0  0  0  0
M  END
>  <minimizedAffinity>
-4.37747478

$$$$
