
 OpenBabel03252502163D

 18 19  0  0  0  0  0  0  0  0999 V2000
   46.7220   34.8710   42.6680 C   0  0  0  0  0  0  0  0  0  0  0  0
   47.1810   33.8330   43.5060 C   0  0  0  0  0  0  0  0  0  0  0  0
   46.4830   33.5790   44.6990 C   0  0  0  0  0  0  0  0  0  0  0  0
   45.4070   34.3440   44.9840 N   0  0  0  0  0  0  0  0  0  0  0  0
   44.9970   35.3310   44.1570 C   0  0  0  0  0  0  0  0  0  0  0  0
   45.6420   35.6000   43.0070 N   0  0  0  0  0  0  0  0  0  0  0  0
   47.1950   35.1370   41.7320 H   0  0  0  0  0  0  0  0  0  0  0  0
   44.1190   35.8200   44.5680 H   0  0  0  0  0  0  0  0  0  0  0  0
   46.9850   32.4790   45.5670 C   0  0  0  0  0  0  0  0  0  0  0  0
   46.9600   32.5830   47.0400 C   0  0  0  0  0  0  0  0  0  0  0  0
   46.0340   31.6180   46.3140 C   0  0  0  0  0  0  0  0  0  0  0  0
   48.2970   33.1280   43.0900 O   0  0  0  0  0  0  0  0  0  0  0  0
   50.8190   33.0200   42.3000 O   0  0  0  0  0  0  0  0  0  0  0  0
   49.6400   33.9260   42.3750 P   0  0  0  0  0  0  0  0  0  0  0  0
   49.2620   34.4330   40.7920 O   0  0  0  0  0  0  0  0  0  0  0  0
   50.0000   34.2460   40.1680 H   0  0  0  0  0  0  0  0  0  0  0  0
   50.0550   35.3030   43.2730 O   0  0  0  0  0  0  0  0  0  0  0  0
   49.6200   36.1070   42.8620 H   0  0  0  0  0  0  0  0  0  0  0  0
  1  6  2  0  0  0  0
  1  2  1  0  0  0  0
  2  3  2  0  0  0  0
  3  4  1  0  0  0  0
  3  9  1  0  0  0  0
  5  8  1  0  0  0  0
  5  4  2  0  0  0  0
  6  5  1  0  0  0  0
  7  1  1  0  0  0  0
  9 11  1  0  0  0  0
  9 10  1  0  0  0  0
 11 10  1  0  0  0  0
 12  2  1  0  0  0  0
 13 14  2  0  0  0  0
 14 12  1  0  0  0  0
 14 17  1  0  0  0  0
 15 14  1  0  0  0  0
 16 15  1  0  0  0  0
 18 17  1  0  0  0  0
M  END
>  <minimizedAffinity>
-4.84402323

>  <minimizedRMSD>
1.07844424

$$$$
