
 OpenBabel03252509163D

 19 21  0  0  0  0  0  0  0  0999 V2000
   45.8810   33.2870   46.3970 C   0  0  0  0  0  0  0  0  0  0  0  0
   45.1460   33.1170   47.5950 C   0  0  0  0  0  0  0  0  0  0  0  0
   45.5470   32.2020   48.5000 C   0  0  0  0  0  0  0  0  0  0  0  0
   46.6990   31.4370   48.2160 C   0  0  0  0  0  0  0  0  0  0  0  0
   47.2150   32.0680   46.5800 S   0  0  0  0  0  0  0  0  0  0  0  0
   44.2600   33.7230   47.7900 H   0  0  0  0  0  0  0  0  0  0  0  0
   45.1060   31.9670   49.4240 H   0  0  0  0  0  0  0  0  0  0  0  0
   44.4500   36.0540   44.3690 C   0  0  0  0  0  0  0  0  0  0  0  0
   45.1460   35.8440   43.1500 C   0  0  0  0  0  0  0  0  0  0  0  0
   46.0610   34.7750   43.0920 C   0  0  0  0  0  0  0  0  0  0  0  0
   46.2220   34.0040   44.2130 N   0  0  0  0  0  0  0  0  0  0  0  0
   45.5290   34.2510   45.3500 C   0  0  0  0  0  0  0  0  0  0  0  0
   44.6420   35.2750   45.4330 N   0  0  0  0  0  0  0  0  0  0  0  0
   43.7450   36.8720   44.4270 H   0  0  0  0  0  0  0  0  0  0  0  0
   45.0030   36.4660   42.2780 H   0  0  0  0  0  0  0  0  0  0  0  0
   46.6330   34.5430   42.2050 H   0  0  0  0  0  0  0  0  0  0  0  0
   47.4420   30.3680   48.9250 C   0  0  0  0  0  3  0  0  0  0  0  0
   48.6620   29.7740   48.2350 C   0  0  0  0  0  2  0  0  0  0  0  0
   48.7650   30.6870   49.4510 C   0  0  0  0  0  2  0  0  0  0  0  0
  1  5  1  0  0  0  0
  1  2  2  0  0  0  0
  2  6  1  0  0  0  0
  2  3  1  0  0  0  0
  3  7  1  0  0  0  0
  4  3  2  0  0  0  0
  4 17  1  0  0  0  0
  5  4  1  0  0  0  0
  8 14  1  0  0  0  0
  8 13  1  0  0  0  0
  9  8  2  0  0  0  0
 10  9  1  0  0  0  0
 10 11  2  0  0  0  0
 11 12  1  0  0  0  0
 12 13  2  0  0  0  0
 12  1  1  0  0  0  0
 15  9  1  0  0  0  0
 16 10  1  0  0  0  0
 17 19  1  0  0  0  0
 18 17  1  0  0  0  0
 18 19  1  0  0  0  0
M  END
>  <minimizedAffinity>
-4.44034576

>  <minimizedRMSD>
0.536220491

$$$$
