
 OpenBabel03252505233D

 34 37  0  0  1  0  0  0  0  0999 V2000
   45.4030   33.2480   45.3370 F   0  0  0  0  0  0  0  0  0  0  0  0
   46.3330   32.3830   44.8820 C   0  0  0  0  0  0  0  0  0  0  0  0
   46.7520   31.3700   45.7030 C   0  0  0  0  0  0  0  0  0  0  0  0
   47.6960   30.4950   45.2230 C   0  0  0  0  0  0  0  0  0  0  0  0
   48.1870   30.6630   43.9470 C   0  0  0  0  0  0  0  0  0  0  0  0
   47.7740   31.6750   43.1170 C   0  0  0  0  0  0  0  0  0  0  0  0
   46.8080   32.5620   43.6210 C   0  0  0  0  0  0  0  0  0  0  0  0
   47.9960   29.7120   45.9050 H   0  0  0  0  0  0  0  0  0  0  0  0
   48.9340   29.9200   43.6490 H   0  0  0  0  0  0  0  0  0  0  0  0
   48.2190   31.7160   42.1440 H   0  0  0  0  0  0  0  0  0  0  0  0
   46.4050   33.5880   42.7150 N   0  0  0  0  0  0  0  0  0  0  0  0
   45.3720   33.5650   41.6950 C   0  0  0  0  0  0  0  0  0  0  0  0
   44.6510   34.8800   41.9400 C   0  0  0  0  0  0  0  0  0  0  0  0
   45.6300   35.7200   42.7270 C   0  0  0  0  0  0  0  0  0  0  0  0
   46.9070   34.9440   42.5920 C   0  0  2  0  0  0  0  0  0  0  0  0
   45.8470   33.5320   40.7040 H   0  0  0  0  0  0  0  0  0  0  0  0
   44.6840   32.7000   41.8300 H   0  0  0  0  0  0  0  0  0  0  0  0
   43.6990   34.7020   42.4910 H   0  0  0  0  0  0  0  0  0  0  0  0
   44.4540   35.3320   40.9300 H   0  0  0  0  0  0  0  0  0  0  0  0
   45.2970   35.7020   43.7850 H   0  0  0  0  0  0  0  0  0  0  0  0
   45.6860   36.7500   42.3130 H   0  0  0  0  0  0  0  0  0  0  0  0
   47.5080   35.1660   43.5090 H   0  0  0  0  0  0  0  0  0  0  0  0
   47.6180   35.2710   41.3350 C   0  0  0  0  0  0  0  0  0  0  0  0
   49.0510   35.8340   41.5980 C   0  0  0  0  0  0  0  0  0  0  0  0
   48.8270   34.5350   40.8900 C   0  0  0  0  0  0  0  0  0  0  0  0
   44.9980   29.9960   48.6180 C   0  0  0  0  0  0  0  0  0  0  0  0
   45.1570   31.0380   49.5820 C   0  0  0  0  0  0  0  0  0  0  0  0
   45.8690   32.1840   49.1860 C   0  0  0  0  0  0  0  0  0  0  0  0
   46.3650   32.2400   47.9170 N   0  0  0  0  0  0  0  0  0  0  0  0
   46.1960   31.2450   47.0430 C   0  0  0  0  0  0  0  0  0  0  0  0
   45.5160   30.1210   47.3850 N   0  0  0  0  0  0  0  0  0  0  0  0
   44.4690   29.0750   48.8190 H   0  0  0  0  0  0  0  0  0  0  0  0
   44.7250   30.8810   50.5430 H   0  0  0  0  0  0  0  0  0  0  0  0
   45.9890   32.9650   49.9040 H   0  0  0  0  0  0  0  0  0  0  0  0
  2  1  1  0  0  0  0
  2  3  1  0  0  0  0
  3 30  1  0  0  0  0
  4  3  2  0  0  0  0
  4  8  1  0  0  0  0
  5  4  1  0  0  0  0
  6  7  1  0  0  0  0
  6  5  2  0  0  0  0
  7  2  2  0  0  0  0
  9  5  1  0  0  0  0
 10  6  1  0  0  0  0
 11  7  1  0  0  0  0
 12 17  1  0  0  0  0
 12 13  1  0  0  0  0
 12 11  1  0  0  0  0
 13 18  1  0  0  0  0
 13 14  1  0  0  0  0
 14 20  1  0  0  0  0
 15 11  1  0  0  0  0
 15 14  1  0  0  0  0
 15 22  1  1  0  0  0
 16 12  1  0  0  0  0
 19 13  1  0  0  0  0
 21 14  1  0  0  0  0
 23 24  1  0  0  0  0
 23 15  1  0  0  0  0
 25 23  1  0  0  0  0
 25 24  1  0  0  0  0
 26 32  1  0  0  0  0
 26 27  1  0  0  0  0
 27 33  1  0  0  0  0
 28 27  2  0  0  0  0
 28 34  1  0  0  0  0
 29 28  1  0  0  0  0
 30 31  1  0  0  0  0
 30 29  2  0  0  0  0
 31 26  2  0  0  0  0
M  END
>  <minimizedAffinity>
-5.50721502

>  <minimizedRMSD>
6.39080572

$$$$
