
 OpenBabel03252504423D

 39 42  0  0  0  0  0  0  0  0999 V2000
   46.3660   32.3370   47.6210 C   0  0  0  0  0  0  0  0  0  0  0  0
   45.9140   32.1230   48.8880 C   0  0  0  0  0  0  0  0  0  0  0  0
   46.8720   31.4460   49.5230 N   0  0  0  0  0  0  0  0  0  0  0  0
   47.9150   31.2220   48.7160 C   0  0  0  0  0  0  0  0  0  0  0  0
   47.5860   31.7880   47.5200 N   0  0  0  0  0  0  0  0  0  0  0  0
   49.1550   30.5580   48.9290 N   0  0  0  0  0  0  0  0  0  0  0  0
   50.2740   31.3780   49.4500 C   0  0  0  0  0  0  0  0  0  0  0  0
   50.3830   30.9830   50.9220 C   0  0  0  0  0  0  0  0  0  0  0  0
   50.3910   29.4840   51.0610 C   0  0  0  0  0  0  0  0  0  0  0  0
   50.6770   28.8430   49.7120 C   0  0  0  0  0  0  0  0  0  0  0  0
   49.5760   29.2070   48.7390 C   0  0  0  0  0  0  0  0  0  0  0  0
   44.9560   32.4410   49.2990 H   0  0  0  0  0  0  0  0  0  0  0  0
   46.8530   31.1160   50.5170 H   0  0  0  0  0  0  0  0  0  0  0  0
   51.1960   31.1770   48.8940 H   0  0  0  0  0  0  0  0  0  0  0  0
   50.0130   32.4540   49.4370 H   0  0  0  0  0  0  0  0  0  0  0  0
   49.5210   31.3750   51.4640 H   0  0  0  0  0  0  0  0  0  0  0  0
   51.3440   31.3930   51.3220 H   0  0  0  0  0  0  0  0  0  0  0  0
   49.4030   29.0900   51.3750 H   0  0  0  0  0  0  0  0  0  0  0  0
   51.1610   29.1160   51.7860 H   0  0  0  0  0  0  0  0  0  0  0  0
   50.7310   27.7470   49.8320 H   0  0  0  0  0  0  0  0  0  0  0  0
   51.6510   29.2420   49.3720 H   0  0  0  0  0  0  0  0  0  0  0  0
   49.9020   29.0130   47.6940 H   0  0  0  0  0  0  0  0  0  0  0  0
   48.7260   28.5120   48.9920 H   0  0  0  0  0  0  0  0  0  0  0  0
   45.6440   33.0610   46.5320 C   0  0  0  0  0  0  0  0  0  0  0  0
   45.3080   34.0500   46.9180 H   0  0  0  0  0  0  0  0  0  0  0  0
   44.7440   32.4780   46.2220 H   0  0  0  0  0  0  0  0  0  0  0  0
   46.1670   33.9640   44.2970 C   0  0  0  0  0  3  0  0  0  0  0  0
   46.5300   33.2930   45.3730 C   0  0  0  0  0  3  0  0  0  0  0  0
   47.1470   34.1120   43.2270 C   0  0  0  0  0  0  0  0  0  0  0  0
   46.8760   34.9010   42.0740 C   0  0  0  0  0  0  0  0  0  0  0  0
   47.8580   34.9830   41.1090 C   0  0  0  0  0  0  0  0  0  0  0  0
   49.0240   34.3280   41.2800 N   0  0  0  0  0  0  0  0  0  0  0  0
   49.2580   33.5880   42.3810 C   0  0  0  0  0  0  0  0  0  0  0  0
   48.3510   33.4780   43.3300 N   0  0  0  0  0  0  0  0  0  0  0  0
   45.9170   35.3880   42.0240 H   0  0  0  0  0  0  0  0  0  0  0  0
   47.6220   35.5880   40.2460 H   0  0  0  0  0  0  0  0  0  0  0  0
   50.5590   32.8860   42.5220 C   0  0  0  0  0  3  0  0  0  0  0  0
   51.1440   32.1760   41.3340 C   0  0  0  0  0  2  0  0  0  0  0  0
   50.6500   31.4160   42.5370 C   0  0  0  0  0  2  0  0  0  0  0  0
  1  2  2  0  0  0  0
  2 12  1  0  0  0  0
  2  3  1  0  0  0  0
  3 13  1  0  0  0  0
  4  6  1  0  0  0  0
  4  3  1  0  0  0  0
  5  1  1  0  0  0  0
  5  4  2  0  0  0  0
  6  7  1  0  0  0  0
  7  8  1  0  0  0  0
  8  9  1  0  0  0  0
  8 17  1  0  0  0  0
  8 16  1  0  0  0  0
  9 18  1  0  0  0  0
  9 19  1  0  0  0  0
 10 20  1  0  0  0  0
 10  9  1  0  0  0  0
 11  6  1  0  0  0  0
 11 23  1  0  0  0  0
 11 10  1  0  0  0  0
 14  7  1  0  0  0  0
 15  7  1  0  0  0  0
 21 10  1  0  0  0  0
 22 11  1  0  0  0  0
 24 25  1  0  0  0  0
 24  1  1  0  0  0  0
 26 24  1  0  0  0  0
 27 28  2  0  0  0  0
 28 24  1  0  0  0  0
 29 34  1  0  0  0  0
 29 27  1  0  0  0  0
 30 29  2  0  0  0  0
 31 32  2  0  0  0  0
 31 30  1  0  0  0  0
 32 33  1  0  0  0  0
 33 37  1  0  0  0  0
 33 34  2  0  0  0  0
 35 30  1  0  0  0  0
 36 31  1  0  0  0  0
 37 39  1  0  0  0  0
 38 37  1  0  0  0  0
 38 39  1  0  0  0  0
M  END
>  <minimizedAffinity>
-5.88226557

>  <minimizedRMSD>
0.363686174

$$$$
