
 OpenBabel03242519343D

 30 32  0  0  0  0  0  0  0  0999 V2000
   37.4540   26.6160   42.5690 C   0  0  0  0  0  0  0  0  0  0  0  0
   38.2140   27.2870   43.6580 C   0  0  0  0  0  0  0  0  0  0  0  0
   39.6850   27.0250   43.5890 C   0  0  0  0  0  0  0  0  0  0  0  0
   39.9760   25.5250   43.5980 C   0  0  0  0  0  0  0  0  0  0  0  0
   39.1300   24.7480   42.6410 C   0  0  0  0  0  0  0  0  0  0  0  0
   38.2730   25.6350   41.7700 C   0  0  0  0  0  0  0  0  0  0  0  0
   36.5930   26.0790   43.0200 H   0  0  0  0  0  0  0  0  0  0  0  0
   37.8440   27.0820   44.6880 H   0  0  0  0  0  0  0  0  0  0  0  0
   38.0750   28.3890   43.5380 H   0  0  0  0  0  0  0  0  0  0  0  0
   40.1090   27.4050   44.5600 H   0  0  0  0  0  0  0  0  0  0  0  0
   40.2240   27.5560   42.8060 H   0  0  0  0  0  0  0  0  0  0  0  0
   39.6810   25.1830   44.6290 H   0  0  0  0  0  0  0  0  0  0  0  0
   41.0560   25.3620   43.5150 H   0  0  0  0  0  0  0  0  0  0  0  0
   38.5140   23.9620   43.1050 H   0  0  0  0  0  0  0  0  0  0  0  0
   39.8260   24.2280   41.9320 H   0  0  0  0  0  0  0  0  0  0  0  0
   38.9120   26.1040   41.0140 H   0  0  0  0  0  0  0  0  0  0  0  0
   37.5540   24.9730   41.2220 H   0  0  0  0  0  0  0  0  0  0  0  0
   36.8850   27.5880   41.5990 C   0  0  0  0  0  0  0  0  0  0  0  0
   36.6640   27.1020   40.2880 C   0  0  0  0  0  0  0  0  0  0  0  0
   36.1360   27.9550   39.3290 C   0  0  0  0  0  0  0  0  0  0  0  0
   35.8570   29.2310   39.7210 N   0  0  0  0  0  0  0  0  0  0  0  0
   36.0800   29.6770   40.9960 C   0  0  0  0  0  0  0  0  0  0  0  0
   36.5920   28.8640   41.9390 N   0  0  0  0  0  0  0  0  0  0  0  0
   35.7350   31.0380   41.2380 N   0  0  0  0  0  0  0  0  0  0  0  0
   36.8900   26.0960   40.0020 H   0  0  0  0  0  0  0  0  0  0  0  0
   36.3240   31.8000   41.6370 H   0  0  0  0  0  0  0  0  0  0  0  0
   34.7600   31.3150   40.9830 H   0  0  0  0  0  0  0  0  0  0  0  0
   35.8710   27.5500   37.9480 C   0  0  0  0  0  3  0  0  0  0  0  0
   34.4310   27.4010   37.5480 C   0  0  0  0  0  2  0  0  0  0  0  0
   35.2430   28.5210   37.0080 C   0  0  0  0  0  2  0  0  0  0  0  0
  1  7  1  0  0  0  0
  1  2  1  0  0  0  0
  2  8  1  0  0  0  0
  3  4  1  0  0  0  0
  3  2  1  0  0  0  0
  3 10  1  0  0  0  0
  4 12  1  0  0  0  0
  5 14  1  0  0  0  0
  5  4  1  0  0  0  0
  6  1  1  0  0  0  0
  6  5  1  0  0  0  0
  9  2  1  0  0  0  0
 11  3  1  0  0  0  0
 13  4  1  0  0  0  0
 15  5  1  0  0  0  0
 16  6  1  0  0  0  0
 17  6  1  0  0  0  0
 18 23  1  0  0  0  0
 18  1  1  0  0  0  0
 19 18  2  0  0  0  0
 20 21  2  0  0  0  0
 20 19  1  0  0  0  0
 21 22  1  0  0  0  0
 22 24  1  0  0  0  0
 22 23  2  0  0  0  0
 24 26  1  0  0  0  0
 25 19  1  0  0  0  0
 27 24  1  0  0  0  0
 28 20  1  0  0  0  0
 29 28  1  0  0  0  0
 30 29  1  0  0  0  0
 30 28  1  0  0  0  0
M  END
>  <minimizedAffinity>
-5.30843496

$$$$

 OpenBabel03242519343D

 30 32  0  0  0  0  0  0  0  0999 V2000
   37.1320   29.6190   42.1800 C   0  0  0  0  0  0  0  0  0  0  0  0
   38.4860   29.6530   42.7950 C   0  0  0  0  0  0  0  0  0  0  0  0
   39.1340   28.3060   42.8510 C   0  0  0  0  0  0  0  0  0  0  0  0
   38.2520   27.3020   43.5910 C   0  0  0  0  0  0  0  0  0  0  0  0
   36.8250   27.3210   43.1440 C   0  0  0  0  0  0  0  0  0  0  0  0
   36.5990   28.2270   41.9570 C   0  0  0  0  0  0  0  0  0  0  0  0
   36.4300   30.1680   42.8440 H   0  0  0  0  0  0  0  0  0  0  0  0
   38.5390   30.1360   43.7970 H   0  0  0  0  0  0  0  0  0  0  0  0
   39.1340   30.2980   42.1520 H   0  0  0  0  0  0  0  0  0  0  0  0
   40.0400   28.4290   43.5080 H   0  0  0  0  0  0  0  0  0  0  0  0
   39.5100   27.9220   41.9040 H   0  0  0  0  0  0  0  0  0  0  0  0
   38.2520   27.6550   44.6600 H   0  0  0  0  0  0  0  0  0  0  0  0
   38.7350   26.3190   43.5890 H   0  0  0  0  0  0  0  0  0  0  0  0
   36.0970   27.5470   43.9380 H   0  0  0  0  0  0  0  0  0  0  0  0
   36.5820   26.2900   42.7750 H   0  0  0  0  0  0  0  0  0  0  0  0
   37.0000   27.7370   41.0630 H   0  0  0  0  0  0  0  0  0  0  0  0
   35.4920   28.3160   41.8090 H   0  0  0  0  0  0  0  0  0  0  0  0
   37.0950   30.3080   40.8630 C   0  0  0  0  0  0  0  0  0  0  0  0
   37.0420   29.4690   39.7240 C   0  0  0  0  0  0  0  0  0  0  0  0
   37.0070   30.0430   38.4620 C   0  0  0  0  0  0  0  0  0  0  0  0
   37.0240   31.4050   38.3990 N   0  0  0  0  0  0  0  0  0  0  0  0
   37.0740   32.1950   39.5170 C   0  0  0  0  0  0  0  0  0  0  0  0
   37.1090   31.6560   40.7490 N   0  0  0  0  0  0  0  0  0  0  0  0
   37.0870   33.5990   39.2750 N   0  0  0  0  0  0  0  0  0  0  0  0
   37.0300   28.4010   39.7960 H   0  0  0  0  0  0  0  0  0  0  0  0
   37.7640   34.3150   39.6160 H   0  0  0  0  0  0  0  0  0  0  0  0
   36.3140   33.9670   38.6760 H   0  0  0  0  0  0  0  0  0  0  0  0
   36.9530   29.2650   37.2230 C   0  0  0  0  0  3  0  0  0  0  0  0
   35.6010   29.0830   36.5940 C   0  0  0  0  0  2  0  0  0  0  0  0
   36.6160   29.9490   35.9430 C   0  0  0  0  0  2  0  0  0  0  0  0
  1  2  1  0  0  0  0
  1  7  1  0  0  0  0
  2  3  1  0  0  0  0
  2  8  1  0  0  0  0
  3 10  1  0  0  0  0
  3  4  1  0  0  0  0
  4 12  1  0  0  0  0
  5  4  1  0  0  0  0
  5 14  1  0  0  0  0
  6  1  1  0  0  0  0
  6  5  1  0  0  0  0
  9  2  1  0  0  0  0
 11  3  1  0  0  0  0
 13  4  1  0  0  0  0
 15  5  1  0  0  0  0
 16  6  1  0  0  0  0
 17  6  1  0  0  0  0
 18  1  1  0  0  0  0
 19 25  1  0  0  0  0
 19 18  2  0  0  0  0
 20 19  1  0  0  0  0
 21 20  2  0  0  0  0
 21 22  1  0  0  0  0
 22 23  2  0  0  0  0
 23 18  1  0  0  0  0
 24 22  1  0  0  0  0
 24 26  1  0  0  0  0
 27 24  1  0  0  0  0
 28 20  1  0  0  0  0
 29 28  1  0  0  0  0
 30 29  1  0  0  0  0
 30 28  1  0  0  0  0
M  END
>  <minimizedAffinity>
-5.25965118

$$$$

 OpenBabel03242519343D

 30 32  0  0  0  0  0  0  0  0999 V2000
   38.4170   26.9650   43.2570 C   0  0  0  0  0  0  0  0  0  0  0  0
   39.7980   26.6050   43.6780 C   0  0  0  0  0  0  0  0  0  0  0  0
   40.3990   25.5230   42.8390 C   0  0  0  0  0  0  0  0  0  0  0  0
   39.5150   24.2770   42.8350 C   0  0  0  0  0  0  0  0  0  0  0  0
   38.0720   24.5720   42.5820 C   0  0  0  0  0  0  0  0  0  0  0  0
   37.8250   26.0230   42.2410 C   0  0  0  0  0  0  0  0  0  0  0  0
   37.7670   26.9740   44.1580 H   0  0  0  0  0  0  0  0  0  0  0  0
   39.9130   26.3520   44.7560 H   0  0  0  0  0  0  0  0  0  0  0  0
   40.4390   27.5110   43.5460 H   0  0  0  0  0  0  0  0  0  0  0  0
   41.3380   25.2060   43.3750 H   0  0  0  0  0  0  0  0  0  0  0  0
   40.7180   25.8190   41.8410 H   0  0  0  0  0  0  0  0  0  0  0  0
   39.5760   23.8800   43.8870 H   0  0  0  0  0  0  0  0  0  0  0  0
   39.9630   23.5130   42.1900 H   0  0  0  0  0  0  0  0  0  0  0  0
   37.3890   24.2480   43.3820 H   0  0  0  0  0  0  0  0  0  0  0  0
   37.7750   24.0020   41.6630 H   0  0  0  0  0  0  0  0  0  0  0  0
   38.1670   26.2030   41.2170 H   0  0  0  0  0  0  0  0  0  0  0  0
   36.7170   26.1840   42.2460 H   0  0  0  0  0  0  0  0  0  0  0  0
   38.3450   28.3280   42.6690 C   0  0  0  0  0  0  0  0  0  0  0  0
   37.2020   28.6070   41.8820 C   0  0  0  0  0  0  0  0  0  0  0  0
   37.0690   29.8590   41.3000 C   0  0  0  0  0  0  0  0  0  0  0  0
   38.0680   30.7590   41.5290 N   0  0  0  0  0  0  0  0  0  0  0  0
   39.1650   30.4640   42.2940 C   0  0  0  0  0  0  0  0  0  0  0  0
   39.3110   29.2550   42.8670 N   0  0  0  0  0  0  0  0  0  0  0  0
   40.1160   31.5170   42.4320 N   0  0  0  0  0  0  0  0  0  0  0  0
   36.4290   27.8860   41.7150 H   0  0  0  0  0  0  0  0  0  0  0  0
   41.1410   31.5000   42.2380 H   0  0  0  0  0  0  0  0  0  0  0  0
   39.7420   32.4290   42.7730 H   0  0  0  0  0  0  0  0  0  0  0  0
   35.9270   30.2460   40.4710 C   0  0  0  0  0  3  0  0  0  0  0  0
   35.9850   29.8740   39.0170 C   0  0  0  0  0  2  0  0  0  0  0  0
   35.0280   29.1920   39.9240 C   0  0  0  0  0  2  0  0  0  0  0  0
  1  2  1  0  0  0  0
  1  7  1  0  0  0  0
  2  8  1  0  0  0  0
  3 10  1  0  0  0  0
  3  2  1  0  0  0  0
  4  3  1  0  0  0  0
  4 12  1  0  0  0  0
  5  4  1  0  0  0  0
  5 14  1  0  0  0  0
  6 17  1  0  0  0  0
  6  5  1  0  0  0  0
  6  1  1  0  0  0  0
  9  2  1  0  0  0  0
 11  3  1  0  0  0  0
 13  4  1  0  0  0  0
 15  5  1  0  0  0  0
 16  6  1  0  0  0  0
 18 23  1  0  0  0  0
 18  1  1  0  0  0  0
 19 18  2  0  0  0  0
 20 21  2  0  0  0  0
 20 19  1  0  0  0  0
 21 22  1  0  0  0  0
 22 24  1  0  0  0  0
 22 23  2  0  0  0  0
 24 27  1  0  0  0  0
 25 19  1  0  0  0  0
 26 24  1  0  0  0  0
 28 20  1  0  0  0  0
 29 30  1  0  0  0  0
 29 28  1  0  0  0  0
 30 28  1  0  0  0  0
M  END
>  <minimizedAffinity>
-5.12887049

$$$$

 OpenBabel03242519343D

 30 32  0  0  0  0  0  0  0  0999 V2000
   37.9290   26.8840   42.9340 C   0  0  0  0  0  0  0  0  0  0  0  0
   39.3080   26.3650   43.1410 C   0  0  0  0  0  0  0  0  0  0  0  0
   39.6860   25.3060   42.1550 C   0  0  0  0  0  0  0  0  0  0  0  0
   38.6860   24.1510   42.1800 C   0  0  0  0  0  0  0  0  0  0  0  0
   37.2600   24.5970   42.1430 C   0  0  0  0  0  0  0  0  0  0  0  0
   37.1210   26.0870   41.9420 C   0  0  0  0  0  0  0  0  0  0  0  0
   37.4010   26.8770   43.9120 H   0  0  0  0  0  0  0  0  0  0  0  0
   39.5310   26.0130   44.1740 H   0  0  0  0  0  0  0  0  0  0  0  0
   40.0160   27.2160   42.9890 H   0  0  0  0  0  0  0  0  0  0  0  0
   40.6470   24.8610   42.5370 H   0  0  0  0  0  0  0  0  0  0  0  0
   39.9050   25.6540   41.1470 H   0  0  0  0  0  0  0  0  0  0  0  0
   38.8380   23.6630   43.1830 H   0  0  0  0  0  0  0  0  0  0  0  0
   38.9690   23.4060   41.4280 H   0  0  0  0  0  0  0  0  0  0  0  0
   36.6530   24.2710   43.0020 H   0  0  0  0  0  0  0  0  0  0  0  0
   36.7930   24.1350   41.2340 H   0  0  0  0  0  0  0  0  0  0  0  0
   37.3480   26.3210   40.8970 H   0  0  0  0  0  0  0  0  0  0  0  0
   36.0440   26.3490   42.1060 H   0  0  0  0  0  0  0  0  0  0  0  0
   37.9230   28.2920   42.4590 C   0  0  0  0  0  0  0  0  0  0  0  0
   39.1720   28.9580   42.4700 C   0  0  0  0  0  0  0  0  0  0  0  0
   39.2410   30.2750   42.0410 C   0  0  0  0  0  0  0  0  0  0  0  0
   38.0780   30.8540   41.6270 N   0  0  0  0  0  0  0  0  0  0  0  0
   36.8820   30.1880   41.6250 C   0  0  0  0  0  0  0  0  0  0  0  0
   36.7950   28.9100   42.0380 N   0  0  0  0  0  0  0  0  0  0  0  0
   35.7620   30.9400   41.1630 N   0  0  0  0  0  0  0  0  0  0  0  0
   40.0730   28.4840   42.8000 H   0  0  0  0  0  0  0  0  0  0  0  0
   34.8480   31.1080   41.6360 H   0  0  0  0  0  0  0  0  0  0  0  0
   35.8670   31.3830   40.2230 H   0  0  0  0  0  0  0  0  0  0  0  0
   40.4820   31.0510   42.0140 C   0  0  0  0  0  3  0  0  0  0  0  0
   41.3400   30.9180   40.7880 C   0  0  0  0  0  2  0  0  0  0  0  0
   40.6150   32.1850   41.0580 C   0  0  0  0  0  2  0  0  0  0  0  0
  1  2  1  0  0  0  0
  1  7  1  0  0  0  0
  2  8  1  0  0  0  0
  3  4  1  0  0  0  0
  3 10  1  0  0  0  0
  3  2  1  0  0  0  0
  4 12  1  0  0  0  0
  5  4  1  0  0  0  0
  5 14  1  0  0  0  0
  6 17  1  0  0  0  0
  6  5  1  0  0  0  0
  6  1  1  0  0  0  0
  9  2  1  0  0  0  0
 11  3  1  0  0  0  0
 13  4  1  0  0  0  0
 15  5  1  0  0  0  0
 16  6  1  0  0  0  0
 18 19  1  0  0  0  0
 18  1  1  0  0  0  0
 19 25  1  0  0  0  0
 20 19  2  0  0  0  0
 21 20  1  0  0  0  0
 22 21  2  0  0  0  0
 22 23  1  0  0  0  0
 23 18  2  0  0  0  0
 24 22  1  0  0  0  0
 24 26  1  0  0  0  0
 27 24  1  0  0  0  0
 28 20  1  0  0  0  0
 29 30  1  0  0  0  0
 29 28  1  0  0  0  0
 30 28  1  0  0  0  0
M  END
>  <minimizedAffinity>
-5.12156487

$$$$

 OpenBabel03242519343D

 30 32  0  0  0  0  0  0  0  0999 V2000
   37.5320   26.9150   42.8490 C   0  0  0  0  0  0  0  0  0  0  0  0
   38.7800   27.1900   43.6130 C   0  0  0  0  0  0  0  0  0  0  0  0
   39.9600   26.4330   43.0910 C   0  0  0  0  0  0  0  0  0  0  0  0
   39.6830   24.9310   43.0690 C   0  0  0  0  0  0  0  0  0  0  0  0
   38.3630   24.5770   42.4630 C   0  0  0  0  0  0  0  0  0  0  0  0
   37.6550   25.7730   41.8730 C   0  0  0  0  0  0  0  0  0  0  0  0
   36.7220   26.6810   43.5720 H   0  0  0  0  0  0  0  0  0  0  0  0
   38.7000   27.0490   44.7140 H   0  0  0  0  0  0  0  0  0  0  0  0
   39.0140   28.2760   43.4970 H   0  0  0  0  0  0  0  0  0  0  0  0
   40.7710   26.5640   43.8610 H   0  0  0  0  0  0  0  0  0  0  0  0
   40.3820   26.8000   42.1560 H   0  0  0  0  0  0  0  0  0  0  0  0
   39.6210   24.6360   44.1540 H   0  0  0  0  0  0  0  0  0  0  0  0
   40.5500   24.4050   42.6550 H   0  0  0  0  0  0  0  0  0  0  0  0
   37.6840   24.0250   43.1300 H   0  0  0  0  0  0  0  0  0  0  0  0
   38.5710   23.9020   41.5920 H   0  0  0  0  0  0  0  0  0  0  0  0
   38.1500   26.0440   40.9340 H   0  0  0  0  0  0  0  0  0  0  0  0
   36.6150   25.4500   41.6090 H   0  0  0  0  0  0  0  0  0  0  0  0
   37.0770   28.0970   42.0700 C   0  0  0  0  0  0  0  0  0  0  0  0
   37.9670   29.1970   42.0330 C   0  0  0  0  0  0  0  0  0  0  0  0
   37.6070   30.3350   41.3270 C   0  0  0  0  0  0  0  0  0  0  0  0
   36.3960   30.3190   40.7000 N   0  0  0  0  0  0  0  0  0  0  0  0
   35.5530   29.2410   40.7510 C   0  0  0  0  0  0  0  0  0  0  0  0
   35.8850   28.1290   41.4320 N   0  0  0  0  0  0  0  0  0  0  0  0
   34.3260   29.3900   40.0420 N   0  0  0  0  0  0  0  0  0  0  0  0
   38.9140   29.1890   42.5330 H   0  0  0  0  0  0  0  0  0  0  0  0
   33.3510   29.2590   40.3900 H   0  0  0  0  0  0  0  0  0  0  0  0
   34.4080   29.6660   39.0380 H   0  0  0  0  0  0  0  0  0  0  0  0
   38.4550   31.5240   41.2270 C   0  0  0  0  0  3  0  0  0  0  0  0
   39.2000   31.7210   39.9370 C   0  0  0  0  0  2  0  0  0  0  0  0
   38.0720   32.6200   40.2920 C   0  0  0  0  0  2  0  0  0  0  0  0
  1  7  1  0  0  0  0
  1  2  1  0  0  0  0
  2  8  1  0  0  0  0
  3  2  1  0  0  0  0
  3 10  1  0  0  0  0
  4  3  1  0  0  0  0
  4 12  1  0  0  0  0
  5  4  1  0  0  0  0
  5 14  1  0  0  0  0
  6  5  1  0  0  0  0
  6  1  1  0  0  0  0
  9  2  1  0  0  0  0
 11  3  1  0  0  0  0
 13  4  1  0  0  0  0
 15  5  1  0  0  0  0
 16  6  1  0  0  0  0
 17  6  1  0  0  0  0
 18  1  1  0  0  0  0
 19 18  1  0  0  0  0
 19 25  1  0  0  0  0
 20 19  2  0  0  0  0
 21 22  2  0  0  0  0
 21 20  1  0  0  0  0
 22 23  1  0  0  0  0
 23 18  2  0  0  0  0
 24 26  1  0  0  0  0
 24 22  1  0  0  0  0
 27 24  1  0  0  0  0
 28 20  1  0  0  0  0
 29 30  1  0  0  0  0
 29 28  1  0  0  0  0
 30 28  1  0  0  0  0
M  END
>  <minimizedAffinity>
-5.0108819

$$$$

 OpenBabel03242519343D

 30 32  0  0  0  0  0  0  0  0999 V2000
   38.4990   29.0830   41.6010 C   0  0  0  0  0  0  0  0  0  0  0  0
   37.3380   28.4490   40.9190 C   0  0  0  0  0  0  0  0  0  0  0  0
   36.2040   28.1570   41.8500 C   0  0  0  0  0  0  0  0  0  0  0  0
   36.6620   27.2840   43.0160 C   0  0  0  0  0  0  0  0  0  0  0  0
   37.9250   27.7620   43.6580 C   0  0  0  0  0  0  0  0  0  0  0  0
   38.3940   29.0870   43.1040 C   0  0  0  0  0  0  0  0  0  0  0  0
   39.4200   28.5350   41.3090 H   0  0  0  0  0  0  0  0  0  0  0  0
   37.5780   27.5400   40.3230 H   0  0  0  0  0  0  0  0  0  0  0  0
   36.9550   29.1740   40.1590 H   0  0  0  0  0  0  0  0  0  0  0  0
   35.4910   27.5080   41.2690 H   0  0  0  0  0  0  0  0  0  0  0  0
   35.6200   29.0190   42.1700 H   0  0  0  0  0  0  0  0  0  0  0  0
   36.9030   26.2870   42.5500 H   0  0  0  0  0  0  0  0  0  0  0  0
   35.8220   27.1120   43.6970 H   0  0  0  0  0  0  0  0  0  0  0  0
   38.7510   27.0330   43.6480 H   0  0  0  0  0  0  0  0  0  0  0  0
   37.6920   27.9620   44.7360 H   0  0  0  0  0  0  0  0  0  0  0  0
   37.7500   29.8780   43.5020 H   0  0  0  0  0  0  0  0  0  0  0  0
   39.4220   29.2730   43.5080 H   0  0  0  0  0  0  0  0  0  0  0  0
   38.6950   30.4950   41.1820 C   0  0  0  0  0  0  0  0  0  0  0  0
   40.0210   30.9870   41.2540 C   0  0  0  0  0  0  0  0  0  0  0  0
   40.2780   32.2970   40.8800 C   0  0  0  0  0  0  0  0  0  0  0  0
   39.2170   33.0420   40.4580 N   0  0  0  0  0  0  0  0  0  0  0  0
   37.9430   32.5430   40.3970 C   0  0  0  0  0  0  0  0  0  0  0  0
   37.6740   31.2740   40.7560 N   0  0  0  0  0  0  0  0  0  0  0  0
   36.9490   33.4540   39.9350 N   0  0  0  0  0  0  0  0  0  0  0  0
   40.8410   30.3850   41.5880 H   0  0  0  0  0  0  0  0  0  0  0  0
   36.0510   33.7260   40.3900 H   0  0  0  0  0  0  0  0  0  0  0  0
   37.1410   33.9120   39.0170 H   0  0  0  0  0  0  0  0  0  0  0  0
   41.6120   32.9000   40.9170 C   0  0  0  0  0  3  0  0  0  0  0  0
   42.4020   32.8800   39.6400 C   0  0  0  0  0  2  0  0  0  0  0  0
   41.8660   34.1610   40.1660 C   0  0  0  0  0  2  0  0  0  0  0  0
  1  6  1  0  0  0  0
  2  1  1  0  0  0  0
  2  3  1  0  0  0  0
  3 11  1  0  0  0  0
  3  4  1  0  0  0  0
  4  5  1  0  0  0  0
  4 13  1  0  0  0  0
  5 15  1  0  0  0  0
  6 16  1  0  0  0  0
  6 17  1  0  0  0  0
  6  5  1  0  0  0  0
  7  1  1  0  0  0  0
  8  2  1  0  0  0  0
  9  2  1  0  0  0  0
 10  3  1  0  0  0  0
 12  4  1  0  0  0  0
 14  5  1  0  0  0  0
 18 19  1  0  0  0  0
 18  1  1  0  0  0  0
 19 25  1  0  0  0  0
 20 28  1  0  0  0  0
 20 19  2  0  0  0  0
 21 20  1  0  0  0  0
 22 21  2  0  0  0  0
 22 23  1  0  0  0  0
 23 18  2  0  0  0  0
 24 26  1  0  0  0  0
 24 22  1  0  0  0  0
 27 24  1  0  0  0  0
 29 30  1  0  0  0  0
 29 28  1  0  0  0  0
 30 28  1  0  0  0  0
M  END
>  <minimizedAffinity>
-4.99251127

$$$$

 OpenBabel03242519343D

 30 32  0  0  0  0  0  0  0  0999 V2000
   35.1220   28.3250   38.1920 C   0  0  0  0  0  0  0  0  0  0  0  0
   36.0050   28.3890   36.9950 C   0  0  0  0  0  0  0  0  0  0  0  0
   35.4460   29.2480   35.9050 C   0  0  0  0  0  0  0  0  0  0  0  0
   34.0500   28.7790   35.4980 C   0  0  0  0  0  0  0  0  0  0  0  0
   33.1440   28.5300   36.6600 C   0  0  0  0  0  0  0  0  0  0  0  0
   33.7610   28.9340   37.9780 C   0  0  0  0  0  0  0  0  0  0  0  0
   34.9960   27.2590   38.4780 H   0  0  0  0  0  0  0  0  0  0  0  0
   36.3080   27.4020   36.5780 H   0  0  0  0  0  0  0  0  0  0  0  0
   36.9700   28.8540   37.3110 H   0  0  0  0  0  0  0  0  0  0  0  0
   36.0890   29.0510   35.0020 H   0  0  0  0  0  0  0  0  0  0  0  0
   35.5000   30.3220   36.0740 H   0  0  0  0  0  0  0  0  0  0  0  0
   34.2160   27.7790   35.0070 H   0  0  0  0  0  0  0  0  0  0  0  0
   33.6540   29.4420   34.7220 H   0  0  0  0  0  0  0  0  0  0  0  0
   32.7500   27.5030   36.7250 H   0  0  0  0  0  0  0  0  0  0  0  0
   32.2550   29.2020   36.5350 H   0  0  0  0  0  0  0  0  0  0  0  0
   33.7480   30.0270   38.0470 H   0  0  0  0  0  0  0  0  0  0  0  0
   33.0940   28.5510   38.7920 H   0  0  0  0  0  0  0  0  0  0  0  0
   35.7180   29.0120   39.3680 C   0  0  0  0  0  0  0  0  0  0  0  0
   36.0210   28.1910   40.4800 C   0  0  0  0  0  0  0  0  0  0  0  0
   36.5780   28.7640   41.6140 C   0  0  0  0  0  0  0  0  0  0  0  0
   36.8040   30.1090   41.5810 N   0  0  0  0  0  0  0  0  0  0  0  0
   36.5020   30.8820   40.4920 C   0  0  0  0  0  0  0  0  0  0  0  0
   35.9610   30.3420   39.3840 N   0  0  0  0  0  0  0  0  0  0  0  0
   36.7990   32.2690   40.6240 N   0  0  0  0  0  0  0  0  0  0  0  0
   35.8360   27.1360   40.4850 H   0  0  0  0  0  0  0  0  0  0  0  0
   36.1710   33.0880   40.4790 H   0  0  0  0  0  0  0  0  0  0  0  0
   37.7790   32.5020   40.9010 H   0  0  0  0  0  0  0  0  0  0  0  0
   36.9270   28.0040   42.8140 C   0  0  0  0  0  3  0  0  0  0  0  0
   38.2480   27.2880   42.8060 C   0  0  0  0  0  2  0  0  0  0  0  0
   38.0460   28.4720   43.6790 C   0  0  0  0  0  2  0  0  0  0  0  0
  1  7  1  0  0  0  0
  1 18  1  0  0  0  0
  2  9  1  0  0  0  0
  2  1  1  0  0  0  0
  3 11  1  0  0  0  0
  3  2  1  0  0  0  0
  4  3  1  0  0  0  0
  4  5  1  0  0  0  0
  5 14  1  0  0  0  0
  5  6  1  0  0  0  0
  6 16  1  0  0  0  0
  6  1  1  0  0  0  0
  6 17  1  0  0  0  0
  8  2  1  0  0  0  0
 10  3  1  0  0  0  0
 12  4  1  0  0  0  0
 13  4  1  0  0  0  0
 15  5  1  0  0  0  0
 18 23  2  0  0  0  0
 18 19  1  0  0  0  0
 19 25  1  0  0  0  0
 19 20  2  0  0  0  0
 20 28  1  0  0  0  0
 21 20  1  0  0  0  0
 22 24  1  0  0  0  0
 22 21  2  0  0  0  0
 23 22  1  0  0  0  0
 24 27  1  0  0  0  0
 26 24  1  0  0  0  0
 28 30  1  0  0  0  0
 29 28  1  0  0  0  0
 29 30  1  0  0  0  0
M  END
>  <minimizedAffinity>
-4.88632822

$$$$

 OpenBabel03242519343D

 30 32  0  0  0  0  0  0  0  0999 V2000
   37.8740   26.5320   40.6630 C   0  0  0  0  0  0  0  0  0  0  0  0
   37.3770   25.1610   40.3640 C   0  0  0  0  0  0  0  0  0  0  0  0
   37.1170   24.3540   41.5970 C   0  0  0  0  0  0  0  0  0  0  0  0
   38.3650   24.2750   42.4750 C   0  0  0  0  0  0  0  0  0  0  0  0
   39.0260   25.5980   42.6900 C   0  0  0  0  0  0  0  0  0  0  0  0
   38.2340   26.7470   42.1110 C   0  0  0  0  0  0  0  0  0  0  0  0
   38.7740   26.7230   40.0400 H   0  0  0  0  0  0  0  0  0  0  0  0
   38.0050   24.5740   39.6570 H   0  0  0  0  0  0  0  0  0  0  0  0
   36.4000   25.2650   39.8320 H   0  0  0  0  0  0  0  0  0  0  0  0
   36.9500   23.2990   41.2420 H   0  0  0  0  0  0  0  0  0  0  0  0
   36.2220   24.6210   42.1570 H   0  0  0  0  0  0  0  0  0  0  0  0
   39.0920   23.6520   41.8820 H   0  0  0  0  0  0  0  0  0  0  0  0
   38.1380   23.7070   43.3830 H   0  0  0  0  0  0  0  0  0  0  0  0
   40.0730   25.6510   42.3500 H   0  0  0  0  0  0  0  0  0  0  0  0
   39.0430   25.7830   43.7960 H   0  0  0  0  0  0  0  0  0  0  0  0
   37.3710   26.9360   42.7580 H   0  0  0  0  0  0  0  0  0  0  0  0
   38.8820   27.6590   42.1590 H   0  0  0  0  0  0  0  0  0  0  0  0
   36.8820   27.5800   40.3080 C   0  0  0  0  0  0  0  0  0  0  0  0
   36.0640   27.3080   39.1850 C   0  0  0  0  0  0  0  0  0  0  0  0
   35.1170   28.2430   38.7950 C   0  0  0  0  0  0  0  0  0  0  0  0
   35.0320   29.3860   39.5350 N   0  0  0  0  0  0  0  0  0  0  0  0
   35.8350   29.6250   40.6180 C   0  0  0  0  0  0  0  0  0  0  0  0
   36.7600   28.7300   41.0110 N   0  0  0  0  0  0  0  0  0  0  0  0
   35.6170   30.8690   41.2790 N   0  0  0  0  0  0  0  0  0  0  0  0
   36.1480   26.4040   38.6180 H   0  0  0  0  0  0  0  0  0  0  0  0
   36.3070   31.6160   41.5080 H   0  0  0  0  0  0  0  0  0  0  0  0
   34.6360   31.0610   41.5780 H   0  0  0  0  0  0  0  0  0  0  0  0
   34.2250   28.0580   37.6500 C   0  0  0  0  0  3  0  0  0  0  0  0
   33.1400   29.0800   37.4620 C   0  0  0  0  0  2  0  0  0  0  0  0
   34.2810   29.0200   36.5140 C   0  0  0  0  0  2  0  0  0  0  0  0
  1  6  1  0  0  0  0
  2  1  1  0  0  0  0
  2  3  1  0  0  0  0
  3 11  1  0  0  0  0
  3  4  1  0  0  0  0
  4  5  1  0  0  0  0
  4 13  1  0  0  0  0
  5 15  1  0  0  0  0
  6 17  1  0  0  0  0
  6  5  1  0  0  0  0
  6 16  1  0  0  0  0
  7  1  1  0  0  0  0
  8  2  1  0  0  0  0
  9  2  1  0  0  0  0
 10  3  1  0  0  0  0
 12  4  1  0  0  0  0
 14  5  1  0  0  0  0
 18  1  1  0  0  0  0
 18 23  1  0  0  0  0
 19 18  2  0  0  0  0
 20 19  1  0  0  0  0
 20 21  2  0  0  0  0
 21 22  1  0  0  0  0
 22 23  2  0  0  0  0
 22 24  1  0  0  0  0
 24 26  1  0  0  0  0
 24 27  1  0  0  0  0
 25 19  1  0  0  0  0
 28 20  1  0  0  0  0
 29 28  1  0  0  0  0
 30 29  1  0  0  0  0
 30 28  1  0  0  0  0
M  END
>  <minimizedAffinity>
-4.87239695

$$$$

 OpenBabel03242519343D

 30 32  0  0  0  0  0  0  0  0999 V2000
   35.6060   29.3500   39.0160 C   0  0  0  0  0  0  0  0  0  0  0  0
   34.1700   29.0010   38.8460 C   0  0  0  0  0  0  0  0  0  0  0  0
   33.9110   28.1810   37.6220 C   0  0  0  0  0  0  0  0  0  0  0  0
   34.4270   28.8850   36.3690 C   0  0  0  0  0  0  0  0  0  0  0  0
   35.8170   29.4170   36.5150 C   0  0  0  0  0  0  0  0  0  0  0  0
   36.4600   29.0140   37.8210 C   0  0  0  0  0  0  0  0  0  0  0  0
   35.6820   30.4410   39.2140 H   0  0  0  0  0  0  0  0  0  0  0  0
   33.4670   29.8650   38.8740 H   0  0  0  0  0  0  0  0  0  0  0  0
   33.8660   28.3800   39.7230 H   0  0  0  0  0  0  0  0  0  0  0  0
   32.7920   28.1610   37.4990 H   0  0  0  0  0  0  0  0  0  0  0  0
   34.2180   27.1380   37.6790 H   0  0  0  0  0  0  0  0  0  0  0  0
   33.7580   29.7820   36.2490 H   0  0  0  0  0  0  0  0  0  0  0  0
   34.2530   28.2500   35.4940 H   0  0  0  0  0  0  0  0  0  0  0  0
   35.9120   30.5030   36.3640 H   0  0  0  0  0  0  0  0  0  0  0  0
   36.4410   28.9310   35.7200 H   0  0  0  0  0  0  0  0  0  0  0  0
   36.7410   27.9570   37.7600 H   0  0  0  0  0  0  0  0  0  0  0  0
   37.4120   29.5970   37.9190 H   0  0  0  0  0  0  0  0  0  0  0  0
   36.2170   28.6640   40.1850 C   0  0  0  0  0  0  0  0  0  0  0  0
   36.5990   27.3160   39.9850 C   0  0  0  0  0  0  0  0  0  0  0  0
   37.1740   26.6130   41.0330 C   0  0  0  0  0  0  0  0  0  0  0  0
   37.3390   27.2800   42.2110 N   0  0  0  0  0  0  0  0  0  0  0  0
   36.9610   28.5850   42.3790 C   0  0  0  0  0  0  0  0  0  0  0  0
   36.4010   29.2830   41.3740 N   0  0  0  0  0  0  0  0  0  0  0  0
   37.2020   29.1310   43.6730 N   0  0  0  0  0  0  0  0  0  0  0  0
   36.4610   26.8110   39.0510 H   0  0  0  0  0  0  0  0  0  0  0  0
   36.5330   29.6050   44.3170 H   0  0  0  0  0  0  0  0  0  0  0  0
   38.1810   29.0480   44.0290 H   0  0  0  0  0  0  0  0  0  0  0  0
   37.6040   25.2170   40.9290 C   0  0  0  0  0  3  0  0  0  0  0  0
   36.6480   24.1730   41.4310 C   0  0  0  0  0  2  0  0  0  0  0  0
   36.9090   24.3070   39.9760 C   0  0  0  0  0  2  0  0  0  0  0  0
  1  7  1  0  0  0  0
  1 18  1  0  0  0  0
  2  8  1  0  0  0  0
  2  1  1  0  0  0  0
  2  9  1  0  0  0  0
  3 11  1  0  0  0  0
  3  2  1  0  0  0  0
  4  5  1  0  0  0  0
  4  3  1  0  0  0  0
  5  6  1  0  0  0  0
  6 17  1  0  0  0  0
  6  1  1  0  0  0  0
 10  3  1  0  0  0  0
 12  4  1  0  0  0  0
 13  4  1  0  0  0  0
 14  5  1  0  0  0  0
 15  5  1  0  0  0  0
 16  6  1  0  0  0  0
 18 23  1  0  0  0  0
 19 18  2  0  0  0  0
 19 20  1  0  0  0  0
 20 21  2  0  0  0  0
 21 22  1  0  0  0  0
 22 24  1  0  0  0  0
 23 22  2  0  0  0  0
 24 27  1  0  0  0  0
 24 26  1  0  0  0  0
 25 19  1  0  0  0  0
 28 20  1  0  0  0  0
 28 29  1  0  0  0  0
 30 28  1  0  0  0  0
 30 29  1  0  0  0  0
M  END
>  <minimizedAffinity>
-4.81796169

$$$$
