
 OpenBabel03252505423D

 30 33  0  0  1  0  0  0  0  0999 V2000
   45.3760   34.1180   42.3320 C   0  0  1  0  0  0  0  0  0  0  0  0
   44.8660   35.1440   43.3890 C   0  0  0  0  0  0  0  0  0  0  0  0
   44.5430   35.2280   41.9200 C   0  0  2  0  0  0  0  0  0  0  0  0
   44.9490   33.0910   42.4650 H   0  0  0  0  0  0  0  0  0  0  0  0
   44.1390   34.7520   44.0980 H   0  0  0  0  0  0  0  0  0  0  0  0
   45.6140   35.8450   43.8020 H   0  0  0  0  0  0  0  0  0  0  0  0
   44.8960   36.1410   41.4430 H   0  0  0  0  0  0  0  0  0  0  0  0
   46.8510   34.1350   42.1740 C   0  0  0  0  0  0  0  0  0  0  0  0
   47.4930   35.3690   41.8520 C   0  0  0  0  0  0  0  0  0  0  0  0
   48.8760   35.3870   41.7120 C   0  0  0  0  0  0  0  0  0  0  0  0
   49.5470   34.2170   41.8940 N   0  0  0  0  0  0  0  0  0  0  0  0
   48.9040   33.0640   42.2000 C   0  0  0  0  0  0  0  0  0  0  0  0
   47.5610   33.0490   42.3340 N   0  0  0  0  0  0  0  0  0  0  0  0
   46.9670   36.2770   41.7120 H   0  0  0  0  0  0  0  0  0  0  0  0
   49.3910   36.3070   41.4680 H   0  0  0  0  0  0  0  0  0  0  0  0
   49.8220   31.8920   42.3630 C   0  0  0  0  0  0  0  0  0  0  0  0
   49.3990   31.0480   43.3620 F   0  0  0  0  0  0  0  0  0  0  0  0
   51.0990   32.3570   42.7340 F   0  0  0  0  0  0  0  0  0  0  0  0
   49.9920   31.2710   41.1440 F   0  0  0  0  0  0  0  0  0  0  0  0
   43.1610   34.8390   41.4760 C   0  0  0  0  0  0  0  0  0  0  0  0
   42.0470   35.5680   41.8540 C   0  0  0  0  0  0  0  0  0  0  0  0
   40.7770   35.2440   41.4660 C   0  0  0  0  0  0  0  0  0  0  0  0
   40.6170   34.1560   40.6750 N   0  0  0  0  0  0  0  0  0  0  0  0
   41.7010   33.4320   40.2980 C   0  0  0  0  0  0  0  0  0  0  0  0
   42.9570   33.7550   40.6830 N   0  0  0  0  0  0  0  0  0  0  0  0
   42.2160   36.4300   42.4860 H   0  0  0  0  0  0  0  0  0  0  0  0
   39.9770   35.8750   41.8140 H   0  0  0  0  0  0  0  0  0  0  0  0
   41.5340   32.2420   39.4330 C   0  0  0  0  0  3  0  0  0  0  0  0
   41.1260   32.6160   37.9990 C   0  0  0  0  0  2  0  0  0  0  0  0
   42.4320   31.9660   38.3080 C   0  0  0  0  0  2  0  0  0  0  0  0
  1  4  1  1  0  0  0
  1  2  1  0  0  0  0
  2  6  1  0  0  0  0
  2  5  1  0  0  0  0
  3  7  1  6  0  0  0
  3  1  1  0  0  0  0
  3  2  1  0  0  0  0
  8  1  1  0  0  0  0
  8 13  1  0  0  0  0
  9  8  2  0  0  0  0
 10  9  1  0  0  0  0
 10 11  2  0  0  0  0
 11 12  1  0  0  0  0
 12 13  2  0  0  0  0
 12 16  1  0  0  0  0
 14  9  1  0  0  0  0
 15 10  1  0  0  0  0
 16 18  1  0  0  0  0
 16 17  1  0  0  0  0
 19 16  1  0  0  0  0
 20 21  1  0  0  0  0
 20  3  1  0  0  0  0
 21 26  1  0  0  0  0
 22 27  1  0  0  0  0
 22 21  2  0  0  0  0
 23 22  1  0  0  0  0
 24 23  2  0  0  0  0
 24 25  1  0  0  0  0
 25 20  2  0  0  0  0
 28 24  1  0  0  0  0
 29 30  1  0  0  0  0
 29 28  1  0  0  0  0
 30 28  1  0  0  0  0
M  END
>  <minimizedAffinity>
-4.64140272

>  <minimizedRMSD>
4.10044098

$$$$
