
 OpenBabel03252509143D

 39 43  0  0  1  0  0  0  0  0999 V2000
   47.5290   32.6510   44.1910 C   0  0  0  0  0  0  0  0  0  0  0  0
   46.8550   33.5480   43.3680 C   0  0  0  0  0  0  0  0  0  0  0  0
   45.7840   34.3170   43.7970 C   0  0  0  0  0  0  0  0  0  0  0  0
   45.3560   34.1900   45.1210 C   0  0  0  0  0  0  0  0  0  0  0  0
   44.3800   34.7560   45.8690 N   0  0  0  0  0  0  0  0  0  0  0  0
   44.4260   34.2450   47.1180 C   0  0  0  0  0  0  0  0  0  0  0  0
   45.4340   33.3670   47.1230 N   0  0  0  0  0  0  0  0  0  0  0  0
   46.0290   33.3050   45.9150 C   0  0  0  0  0  0  0  0  0  0  0  0
   47.1010   32.5220   45.5220 C   0  0  0  0  0  0  0  0  0  0  0  0
   48.3580   32.0730   43.8110 H   0  0  0  0  0  0  0  0  0  0  0  0
   43.7260   35.4720   45.4780 H   0  0  0  0  0  0  0  0  0  0  0  0
   43.7600   34.5130   47.9440 H   0  0  0  0  0  0  0  0  0  0  0  0
   47.5930   31.8380   46.1990 H   0  0  0  0  0  0  0  0  0  0  0  0
   47.4980   32.7910   39.8340 C   0  0  0  0  0  0  0  0  0  0  0  0
   48.1200   33.9500   39.3810 C   0  0  0  0  0  0  0  0  0  0  0  0
   48.3140   34.9850   40.2890 C   0  0  0  0  0  0  0  0  0  0  0  0
   47.8950   34.8380   41.5890 N   0  0  0  0  0  0  0  0  0  0  0  0
   47.2950   33.6880   41.9810 C   0  0  0  0  0  0  0  0  0  0  0  0
   47.0820   32.6480   41.1300 N   0  0  0  0  0  0  0  0  0  0  0  0
   47.3240   31.9600   39.1700 H   0  0  0  0  0  0  0  0  0  0  0  0
   48.4340   34.0200   38.3420 H   0  0  0  0  0  0  0  0  0  0  0  0
   48.7910   35.8940   39.9750 H   0  0  0  0  0  0  0  0  0  0  0  0
   44.9490   35.4480   42.7250 S   0  0  0  0  0  0  0  0  0  0  0  0
   42.5730   35.5790   41.6080 N   0  0  0  0  0  0  0  0  0  0  0  0
   43.6840   34.6570   41.6820 C   0  0  1  0  0  0  0  0  0  0  0  0
   44.3440   34.5000   40.3060 C   0  0  0  0  0  0  0  0  0  0  0  0
   43.4240   34.3430   39.2870 O   0  0  0  0  0  0  0  0  0  0  0  0
   42.1210   34.1440   39.6790 C   0  0  0  0  0  0  0  0  0  0  0  0
   41.6880   35.3130   40.5140 C   0  0  1  0  0  0  0  0  0  0  0  0
   42.1320   35.6090   42.5390 H   0  0  0  0  0  0  0  0  0  0  0  0
   43.3830   33.6650   42.0740 H   0  0  0  0  0  0  0  0  0  0  0  0
   44.9450   33.5980   40.2710 H   0  0  0  0  0  0  0  0  0  0  0  0
   44.9140   35.4250   40.0890 H   0  0  0  0  0  0  0  0  0  0  0  0
   42.0840   33.1970   40.2600 H   0  0  0  0  0  0  0  0  0  0  0  0
   41.5140   34.0690   38.7750 H   0  0  0  0  0  0  0  0  0  0  0  0
   41.7680   36.2100   39.8340 H   0  0  0  0  0  0  0  0  0  0  0  0
   40.2390   35.2640   40.9180 C   0  0  0  0  0  3  0  0  0  0  0  0
   39.1660   34.9030   39.9740 C   0  0  0  0  0  2  0  0  0  0  0  0
   39.5010   34.0220   41.1500 C   0  0  0  0  0  2  0  0  0  0  0  0
  1  9  1  0  0  0  0
  2  3  1  0  0  0  0
  2  1  2  0  0  0  0
  3  4  2  0  0  0  0
  4  5  1  0  0  0  0
  4  8  1  0  0  0  0
  5  6  1  0  0  0  0
  6  7  2  0  0  0  0
  6 12  1  0  0  0  0
  8  7  1  0  0  0  0
  9  8  2  0  0  0  0
  9 13  1  0  0  0  0
 10  1  1  0  0  0  0
 11  5  1  0  0  0  0
 14 19  1  0  0  0  0
 15 14  2  0  0  0  0
 15 16  1  0  0  0  0
 16 17  2  0  0  0  0
 17 18  1  0  0  0  0
 18  2  1  0  0  0  0
 19 18  2  0  0  0  0
 20 14  1  0  0  0  0
 21 15  1  0  0  0  0
 22 16  1  0  0  0  0
 23  3  1  0  0  0  0
 24 25  1  0  0  0  0
 24 30  1  0  0  0  0
 25 31  1  1  0  0  0
 25 23  1  0  0  0  0
 26 25  1  0  0  0  0
 27 28  1  0  0  0  0
 27 26  1  0  0  0  0
 28 34  1  0  0  0  0
 28 29  1  0  0  0  0
 29 36  1  6  0  0  0
 29 37  1  0  0  0  0
 29 24  1  0  0  0  0
 32 26  1  0  0  0  0
 33 26  1  0  0  0  0
 35 28  1  0  0  0  0
 37 39  1  0  0  0  0
 38 37  1  0  0  0  0
 38 39  1  0  0  0  0
M  END
>  <minimizedAffinity>
-5.86246204

>  <minimizedRMSD>
0.935266674

$$$$
