
 OpenBabel03252508223D

 28 30  0  0  0  0  0  0  0  0999 V2000
   35.7610   30.1590   40.4350 C   0  0  0  0  0  0  0  0  0  0  0  0
   34.7460   30.6380   40.4590 H   0  0  0  0  0  0  0  0  0  0  0  0
   36.3750   30.7220   41.1410 H   0  0  0  0  0  0  0  0  0  0  0  0
   36.2230   30.2370   39.0360 C   0  0  0  0  0  0  0  0  0  0  0  0
   35.7920   29.3950   38.0210 C   0  0  0  0  0  0  0  0  0  0  0  0
   36.2250   29.4800   36.7250 C   0  0  0  0  0  0  0  0  0  0  0  0
   37.1500   30.4770   36.4360 C   0  0  0  0  0  0  0  0  0  0  0  0
   37.5910   31.3240   37.4250 C   0  0  0  0  0  0  0  0  0  0  0  0
   37.1460   31.2210   38.7120 C   0  0  0  0  0  0  0  0  0  0  0  0
   35.0720   28.6360   38.2990 H   0  0  0  0  0  0  0  0  0  0  0  0
   35.8740   28.8110   35.9580 H   0  0  0  0  0  0  0  0  0  0  0  0
   37.4930   30.5440   35.4090 H   0  0  0  0  0  0  0  0  0  0  0  0
   38.3090   32.0670   37.1040 H   0  0  0  0  0  0  0  0  0  0  0  0
   37.6270   32.1370   39.7660 C   0  0  0  0  0  3  0  0  0  0  0  0
   38.7730   33.0530   39.5760 C   0  0  0  0  0  2  0  0  0  0  0  0
   37.3850   33.6270   39.6230 C   0  0  0  0  0  2  0  0  0  0  0  0
   35.5460   28.7230   40.8720 C   0  0  0  0  0  0  0  0  0  0  0  0
   35.5290   28.0600   39.9900 H   0  0  0  0  0  0  0  0  0  0  0  0
   34.6090   28.6760   41.4400 H   0  0  0  0  0  0  0  0  0  0  0  0
   38.4600   28.9050   43.2500 C   0  0  0  0  0  0  0  0  0  0  0  0
   37.3970   29.3220   42.4110 C   0  0  0  0  0  0  0  0  0  0  0  0
   36.6700   28.3380   41.7630 C   0  0  0  0  0  0  0  0  0  0  0  0
   37.0180   27.0300   41.9700 N   0  0  0  0  0  0  0  0  0  0  0  0
   38.0310   26.6640   42.7720 C   0  0  0  0  0  0  0  0  0  0  0  0
   38.7560   27.6150   43.4150 N   0  0  0  0  0  0  0  0  0  0  0  0
   39.0360   29.6510   43.7610 H   0  0  0  0  0  0  0  0  0  0  0  0
   37.1380   30.3460   42.2580 H   0  0  0  0  0  0  0  0  0  0  0  0
   38.1560   25.5890   42.8110 H   0  0  0  0  0  0  0  0  0  0  0  0
  1  2  1  0  0  0  0
  1 17  1  0  0  0  0
  1  3  1  0  0  0  0
  4  1  1  0  0  0  0
  5 10  1  0  0  0  0
  5  4  2  0  0  0  0
  6  5  1  0  0  0  0
  7  6  2  0  0  0  0
  7  8  1  0  0  0  0
  8  9  2  0  0  0  0
  9  4  1  0  0  0  0
  9 14  1  0  0  0  0
 11  6  1  0  0  0  0
 12  7  1  0  0  0  0
 13  8  1  0  0  0  0
 15 16  1  0  0  0  0
 15 14  1  0  0  0  0
 16 14  1  0  0  0  0
 17 19  1  0  0  0  0
 17 22  1  0  0  0  0
 18 17  1  0  0  0  0
 20 25  1  0  0  0  0
 20 26  1  0  0  0  0
 21 20  2  0  0  0  0
 22 23  2  0  0  0  0
 22 21  1  0  0  0  0
 23 24  1  0  0  0  0
 24 28  1  0  0  0  0
 24 25  2  0  0  0  0
 27 21  1  0  0  0  0
M  END
>  <minimizedAffinity>
-4.95100975

$$$$

 OpenBabel03252508223D

 28 30  0  0  0  0  0  0  0  0999 V2000
   35.9590   28.1790   40.2470 C   0  0  0  0  0  0  0  0  0  0  0  0
   35.0560   27.5230   40.3690 H   0  0  0  0  0  0  0  0  0  0  0  0
   36.4320   27.8690   39.3130 H   0  0  0  0  0  0  0  0  0  0  0  0
   36.7910   27.9630   41.4470 C   0  0  0  0  0  0  0  0  0  0  0  0
   37.0880   28.9450   42.3810 C   0  0  0  0  0  0  0  0  0  0  0  0
   37.8580   28.7310   43.4930 C   0  0  0  0  0  0  0  0  0  0  0  0
   38.3590   27.4470   43.6720 C   0  0  0  0  0  0  0  0  0  0  0  0
   38.0770   26.4570   42.7600 C   0  0  0  0  0  0  0  0  0  0  0  0
   37.3070   26.6920   41.6580 C   0  0  0  0  0  0  0  0  0  0  0  0
   36.6740   29.9270   42.1940 H   0  0  0  0  0  0  0  0  0  0  0  0
   38.0730   29.5130   44.2000 H   0  0  0  0  0  0  0  0  0  0  0  0
   38.9690   27.2780   44.5530 H   0  0  0  0  0  0  0  0  0  0  0  0
   38.5110   25.4920   42.9850 H   0  0  0  0  0  0  0  0  0  0  0  0
   37.0110   25.6210   40.6850 C   0  0  0  0  0  3  0  0  0  0  0  0
   37.8540   24.4140   40.5350 C   0  0  0  0  0  2  0  0  0  0  0  0
   36.5060   24.2820   41.1850 C   0  0  0  0  0  2  0  0  0  0  0  0
   35.4290   29.5980   40.1840 C   0  0  0  0  0  0  0  0  0  0  0  0
   35.4860   30.0660   41.1820 H   0  0  0  0  0  0  0  0  0  0  0  0
   34.3990   29.5610   39.8070 H   0  0  0  0  0  0  0  0  0  0  0  0
   37.6100   32.2650   38.6650 C   0  0  0  0  0  0  0  0  0  0  0  0
   36.8200   31.5710   39.6140 C   0  0  0  0  0  0  0  0  0  0  0  0
   36.2660   30.3630   39.2260 C   0  0  0  0  0  0  0  0  0  0  0  0
   36.5130   29.9130   37.9560 N   0  0  0  0  0  0  0  0  0  0  0  0
   37.2660   30.5920   37.0770 C   0  0  0  0  0  0  0  0  0  0  0  0
   37.8180   31.7780   37.4400 N   0  0  0  0  0  0  0  0  0  0  0  0
   38.0480   33.2020   38.9440 H   0  0  0  0  0  0  0  0  0  0  0  0
   36.6350   31.9350   40.6000 H   0  0  0  0  0  0  0  0  0  0  0  0
   37.3490   30.0800   36.1260 H   0  0  0  0  0  0  0  0  0  0  0  0
  1  2  1  0  0  0  0
  1  4  1  0  0  0  0
  3  1  1  0  0  0  0
  4  9  2  0  0  0  0
  4  5  1  0  0  0  0
  5  6  2  0  0  0  0
  6  7  1  0  0  0  0
  6 11  1  0  0  0  0
  7 12  1  0  0  0  0
  8 13  1  0  0  0  0
  8  7  2  0  0  0  0
  9  8  1  0  0  0  0
 10  5  1  0  0  0  0
 14 16  1  0  0  0  0
 14  9  1  0  0  0  0
 15 14  1  0  0  0  0
 15 16  1  0  0  0  0
 17  1  1  0  0  0  0
 17 18  1  0  0  0  0
 19 17  1  0  0  0  0
 20 26  1  0  0  0  0
 20 21  1  0  0  0  0
 21 27  1  0  0  0  0
 22 21  2  0  0  0  0
 22 17  1  0  0  0  0
 23 22  1  0  0  0  0
 24 25  1  0  0  0  0
 24 23  2  0  0  0  0
 25 20  2  0  0  0  0
 28 24  1  0  0  0  0
M  END
>  <minimizedAffinity>
-4.92260551

$$$$

 OpenBabel03252508223D

 28 30  0  0  0  0  0  0  0  0999 V2000
   36.0780   28.0390   40.3290 C   0  0  0  0  0  0  0  0  0  0  0  0
   35.2720   27.2580   40.3150 H   0  0  0  0  0  0  0  0  0  0  0  0
   36.6010   27.9480   39.3760 H   0  0  0  0  0  0  0  0  0  0  0  0
   36.9150   27.7470   41.5090 C   0  0  0  0  0  0  0  0  0  0  0  0
   37.0760   28.6060   42.5860 C   0  0  0  0  0  0  0  0  0  0  0  0
   37.8540   28.3220   43.6770 C   0  0  0  0  0  0  0  0  0  0  0  0
   38.5080   27.0950   43.6800 C   0  0  0  0  0  0  0  0  0  0  0  0
   38.3630   26.2270   42.6230 C   0  0  0  0  0  0  0  0  0  0  0  0
   37.5820   26.5310   41.5450 C   0  0  0  0  0  0  0  0  0  0  0  0
   36.5460   29.5480   42.5350 H   0  0  0  0  0  0  0  0  0  0  0  0
   37.9610   29.0080   44.5000 H   0  0  0  0  0  0  0  0  0  0  0  0
   39.1230   26.8700   44.5440 H   0  0  0  0  0  0  0  0  0  0  0  0
   38.9100   25.2990   42.7160 H   0  0  0  0  0  0  0  0  0  0  0  0
   37.4340   25.5900   40.4160 C   0  0  0  0  0  3  0  0  0  0  0  0
   38.0570   24.2490   40.3970 C   0  0  0  0  0  2  0  0  0  0  0  0
   36.5700   24.3570   40.5840 C   0  0  0  0  0  2  0  0  0  0  0  0
   35.3590   29.3670   40.4710 C   0  0  0  0  0  0  0  0  0  0  0  0
   35.2310   29.6140   41.5390 H   0  0  0  0  0  0  0  0  0  0  0  0
   34.3960   29.2900   39.9490 H   0  0  0  0  0  0  0  0  0  0  0  0
   37.3250   31.2860   37.8970 C   0  0  0  0  0  0  0  0  0  0  0  0
   36.5380   30.2640   38.4810 C   0  0  0  0  0  0  0  0  0  0  0  0
   36.1820   30.4120   39.8120 C   0  0  0  0  0  0  0  0  0  0  0  0
   36.6100   31.5280   40.4790 N   0  0  0  0  0  0  0  0  0  0  0  0
   37.3560   32.4820   39.8990 C   0  0  0  0  0  0  0  0  0  0  0  0
   37.7140   32.3550   38.5950 N   0  0  0  0  0  0  0  0  0  0  0  0
   37.6110   31.1920   36.8680 H   0  0  0  0  0  0  0  0  0  0  0  0
   36.2120   29.3980   37.9490 H   0  0  0  0  0  0  0  0  0  0  0  0
   37.5970   33.2870   40.5820 H   0  0  0  0  0  0  0  0  0  0  0  0
  1 17  1  0  0  0  0
  1  4  1  0  0  0  0
  2  1  1  0  0  0  0
  3  1  1  0  0  0  0
  4  9  2  0  0  0  0
  4  5  1  0  0  0  0
  5  6  2  0  0  0  0
  6  7  1  0  0  0  0
  6 11  1  0  0  0  0
  7 12  1  0  0  0  0
  8 13  1  0  0  0  0
  8  7  2  0  0  0  0
  9  8  1  0  0  0  0
 10  5  1  0  0  0  0
 14 16  1  0  0  0  0
 14  9  1  0  0  0  0
 15 14  1  0  0  0  0
 15 16  1  0  0  0  0
 17 18  1  0  0  0  0
 19 17  1  0  0  0  0
 20 21  2  0  0  0  0
 20 25  1  0  0  0  0
 21 22  1  0  0  0  0
 22 17  1  0  0  0  0
 22 23  2  0  0  0  0
 24 23  1  0  0  0  0
 24 28  1  0  0  0  0
 25 24  2  0  0  0  0
 26 20  1  0  0  0  0
 27 21  1  0  0  0  0
M  END
>  <minimizedAffinity>
-4.88257265

$$$$

 OpenBabel03252508223D

 28 30  0  0  0  0  0  0  0  0999 V2000
   37.8220   27.7260   43.4210 C   0  0  0  0  0  0  0  0  0  0  0  0
   38.8240   28.2230   43.3350 H   0  0  0  0  0  0  0  0  0  0  0  0
   37.5740   27.7300   44.4850 H   0  0  0  0  0  0  0  0  0  0  0  0
   37.9790   26.3770   42.8430 C   0  0  0  0  0  0  0  0  0  0  0  0
   36.9760   25.6910   42.1740 C   0  0  0  0  0  0  0  0  0  0  0  0
   37.1350   24.4400   41.6380 C   0  0  0  0  0  0  0  0  0  0  0  0
   38.3840   23.8480   41.7870 C   0  0  0  0  0  0  0  0  0  0  0  0
   39.3940   24.5090   42.4460 C   0  0  0  0  0  0  0  0  0  0  0  0
   39.2120   25.7560   42.9730 C   0  0  0  0  0  0  0  0  0  0  0  0
   36.0230   26.1960   42.0860 H   0  0  0  0  0  0  0  0  0  0  0  0
   36.3380   23.9310   41.1240 H   0  0  0  0  0  0  0  0  0  0  0  0
   38.5090   22.8580   41.3630 H   0  0  0  0  0  0  0  0  0  0  0  0
   40.3270   23.9680   42.5110 H   0  0  0  0  0  0  0  0  0  0  0  0
   40.3050   26.4560   43.6780 C   0  0  0  0  0  3  0  0  0  0  0  0
   41.7030   25.9730   43.6800 C   0  0  0  0  0  2  0  0  0  0  0  0
   41.3560   27.1940   42.8740 C   0  0  0  0  0  2  0  0  0  0  0  0
   36.8700   28.5770   42.6020 C   0  0  0  0  0  0  0  0  0  0  0  0
   36.0290   28.9140   43.2320 H   0  0  0  0  0  0  0  0  0  0  0  0
   36.5290   27.9790   41.7470 H   0  0  0  0  0  0  0  0  0  0  0  0
   39.5710   31.1430   42.0620 C   0  0  0  0  0  0  0  0  0  0  0  0
   38.8960   30.0070   42.5720 C   0  0  0  0  0  0  0  0  0  0  0  0
   37.6200   29.7550   42.0980 C   0  0  0  0  0  0  0  0  0  0  0  0
   37.0890   30.6130   41.1720 N   0  0  0  0  0  0  0  0  0  0  0  0
   37.7520   31.6830   40.7070 C   0  0  0  0  0  0  0  0  0  0  0  0
   39.0050   31.9460   41.1600 N   0  0  0  0  0  0  0  0  0  0  0  0
   40.5600   31.3570   42.4160 H   0  0  0  0  0  0  0  0  0  0  0  0
   39.3220   29.3470   43.2950 H   0  0  0  0  0  0  0  0  0  0  0  0
   37.1730   32.2420   39.9820 H   0  0  0  0  0  0  0  0  0  0  0  0
  1  3  1  0  0  0  0
  2  1  1  0  0  0  0
  4  9  1  0  0  0  0
  4  1  1  0  0  0  0
  5  4  2  0  0  0  0
  6  7  2  0  0  0  0
  6  5  1  0  0  0  0
  7  8  1  0  0  0  0
  8 13  1  0  0  0  0
  8  9  2  0  0  0  0
  9 14  1  0  0  0  0
 10  5  1  0  0  0  0
 11  6  1  0  0  0  0
 12  7  1  0  0  0  0
 14 15  1  0  0  0  0
 16 14  1  0  0  0  0
 16 15  1  0  0  0  0
 17 18  1  0  0  0  0
 17  1  1  0  0  0  0
 19 17  1  0  0  0  0
 20 26  1  0  0  0  0
 20 21  1  0  0  0  0
 21 27  1  0  0  0  0
 22 21  2  0  0  0  0
 22 17  1  0  0  0  0
 23 22  1  0  0  0  0
 24 25  1  0  0  0  0
 24 23  2  0  0  0  0
 25 20  2  0  0  0  0
 28 24  1  0  0  0  0
M  END
>  <minimizedAffinity>
-4.82938671

$$$$

 OpenBabel03252508223D

 28 30  0  0  0  0  0  0  0  0999 V2000
   36.5550   30.3280   41.4460 C   0  0  0  0  0  0  0  0  0  0  0  0
   37.3690   30.9400   40.9740 H   0  0  0  0  0  0  0  0  0  0  0  0
   36.0350   30.9980   42.1340 H   0  0  0  0  0  0  0  0  0  0  0  0
   37.2230   29.1880   42.1030 C   0  0  0  0  0  0  0  0  0  0  0  0
   36.6250   27.9580   42.3370 C   0  0  0  0  0  0  0  0  0  0  0  0
   37.2570   26.9060   42.9440 C   0  0  0  0  0  0  0  0  0  0  0  0
   38.5740   27.1090   43.3400 C   0  0  0  0  0  0  0  0  0  0  0  0
   39.1890   28.3190   43.1180 C   0  0  0  0  0  0  0  0  0  0  0  0
   38.5390   29.3550   42.5110 C   0  0  0  0  0  0  0  0  0  0  0  0
   35.5980   27.8530   42.0100 H   0  0  0  0  0  0  0  0  0  0  0  0
   36.7670   25.9630   43.1140 H   0  0  0  0  0  0  0  0  0  0  0  0
   39.0740   26.2760   43.8210 H   0  0  0  0  0  0  0  0  0  0  0  0
   40.2130   28.3810   43.4610 H   0  0  0  0  0  0  0  0  0  0  0  0
   39.2100   30.6500   42.2780 C   0  0  0  0  0  3  0  0  0  0  0  0
   40.6380   30.8840   42.5840 C   0  0  0  0  0  2  0  0  0  0  0  0
   40.2110   30.7760   41.1480 C   0  0  0  0  0  2  0  0  0  0  0  0
   35.6690   29.8720   40.3030 C   0  0  0  0  0  0  0  0  0  0  0  0
   34.6760   30.3480   40.3830 H   0  0  0  0  0  0  0  0  0  0  0  0
   35.6040   28.7770   40.3390 H   0  0  0  0  0  0  0  0  0  0  0  0
   37.7080   31.7500   37.7550 C   0  0  0  0  0  0  0  0  0  0  0  0
   37.1140   31.4040   38.9940 C   0  0  0  0  0  0  0  0  0  0  0  0
   36.3140   30.2750   39.0280 C   0  0  0  0  0  0  0  0  0  0  0  0
   36.1450   29.5630   37.8700 N   0  0  0  0  0  0  0  0  0  0  0  0
   36.7200   29.9140   36.7090 C   0  0  0  0  0  0  0  0  0  0  0  0
   37.5080   31.0190   36.6560 N   0  0  0  0  0  0  0  0  0  0  0  0
   38.3310   32.6200   37.7060 H   0  0  0  0  0  0  0  0  0  0  0  0
   37.2550   31.9690   39.8890 H   0  0  0  0  0  0  0  0  0  0  0  0
   36.4710   29.2320   35.9060 H   0  0  0  0  0  0  0  0  0  0  0  0
  1  4  1  0  0  0  0
  1  3  1  0  0  0  0
  2  1  1  0  0  0  0
  4  5  2  0  0  0  0
  4  9  1  0  0  0  0
  5  6  1  0  0  0  0
  6 11  1  0  0  0  0
  6  7  2  0  0  0  0
  7 12  1  0  0  0  0
  8  7  1  0  0  0  0
  8 13  1  0  0  0  0
  9  8  2  0  0  0  0
 10  5  1  0  0  0  0
 14  9  1  0  0  0  0
 14 15  1  0  0  0  0
 16 14  1  0  0  0  0
 16 15  1  0  0  0  0
 17 19  1  0  0  0  0
 17 18  1  0  0  0  0
 17  1  1  0  0  0  0
 20 21  1  0  0  0  0
 21 22  2  0  0  0  0
 21 27  1  0  0  0  0
 22 17  1  0  0  0  0
 23 22  1  0  0  0  0
 24 23  2  0  0  0  0
 25 24  1  0  0  0  0
 25 20  2  0  0  0  0
 26 20  1  0  0  0  0
 28 24  1  0  0  0  0
M  END
>  <minimizedAffinity>
-4.74021816

$$$$

 OpenBabel03252508223D

 28 30  0  0  0  0  0  0  0  0999 V2000
   37.3550   27.2340   43.0000 C   0  0  0  0  0  0  0  0  0  0  0  0
   36.6970   26.9520   43.8650 H   0  0  0  0  0  0  0  0  0  0  0  0
   37.0930   28.2630   42.7460 H   0  0  0  0  0  0  0  0  0  0  0  0
   37.0720   26.2570   41.9300 C   0  0  0  0  0  0  0  0  0  0  0  0
   37.0890   24.8810   42.1030 C   0  0  0  0  0  0  0  0  0  0  0  0
   36.8210   23.9840   41.1030 C   0  0  0  0  0  0  0  0  0  0  0  0
   36.5180   24.5100   39.8530 C   0  0  0  0  0  0  0  0  0  0  0  0
   36.4950   25.8710   39.6570 C   0  0  0  0  0  0  0  0  0  0  0  0
   36.7650   26.7470   40.6690 C   0  0  0  0  0  0  0  0  0  0  0  0
   37.3310   24.5230   43.0950 H   0  0  0  0  0  0  0  0  0  0  0  0
   36.8420   22.9200   41.2660 H   0  0  0  0  0  0  0  0  0  0  0  0
   36.3060   23.8000   39.0610 H   0  0  0  0  0  0  0  0  0  0  0  0
   36.2480   26.1840   38.6520 H   0  0  0  0  0  0  0  0  0  0  0  0
   36.7370   28.2070   40.4480 C   0  0  0  0  0  3  0  0  0  0  0  0
   36.1940   28.8250   39.2180 C   0  0  0  0  0  2  0  0  0  0  0  0
   35.4110   28.9410   40.4950 C   0  0  0  0  0  2  0  0  0  0  0  0
   38.7780   27.1070   43.5090 C   0  0  0  0  0  0  0  0  0  0  0  0
   39.2600   26.2210   43.0620 H   0  0  0  0  0  0  0  0  0  0  0  0
   38.7430   27.0480   44.6040 H   0  0  0  0  0  0  0  0  0  0  0  0
   39.5870   30.6640   42.5740 C   0  0  0  0  0  0  0  0  0  0  0  0
   38.8350   29.5230   42.9510 C   0  0  0  0  0  0  0  0  0  0  0  0
   39.5200   28.3310   43.1160 C   0  0  0  0  0  0  0  0  0  0  0  0
   40.8740   28.3250   42.9070 N   0  0  0  0  0  0  0  0  0  0  0  0
   41.5600   29.4220   42.5500 C   0  0  0  0  0  0  0  0  0  0  0  0
   40.9060   30.6000   42.3840 N   0  0  0  0  0  0  0  0  0  0  0  0
   39.0760   31.5960   42.4410 H   0  0  0  0  0  0  0  0  0  0  0  0
   37.7800   29.5430   43.1100 H   0  0  0  0  0  0  0  0  0  0  0  0
   42.6180   29.2230   42.4310 H   0  0  0  0  0  0  0  0  0  0  0  0
  1 17  1  0  0  0  0
  1  2  1  0  0  0  0
  3  1  1  0  0  0  0
  4  5  1  0  0  0  0
  4  1  1  0  0  0  0
  5 10  1  0  0  0  0
  6 11  1  0  0  0  0
  6  5  2  0  0  0  0
  7  6  1  0  0  0  0
  8  7  2  0  0  0  0
  8  9  1  0  0  0  0
  9  4  2  0  0  0  0
 12  7  1  0  0  0  0
 13  8  1  0  0  0  0
 14 16  1  0  0  0  0
 14  9  1  0  0  0  0
 15 14  1  0  0  0  0
 15 16  1  0  0  0  0
 17 19  1  0  0  0  0
 18 17  1  0  0  0  0
 20 21  1  0  0  0  0
 21 27  1  0  0  0  0
 21 22  2  0  0  0  0
 22 17  1  0  0  0  0
 23 22  1  0  0  0  0
 24 23  2  0  0  0  0
 25 24  1  0  0  0  0
 25 20  2  0  0  0  0
 26 20  1  0  0  0  0
 28 24  1  0  0  0  0
M  END
>  <minimizedAffinity>
-4.73516703

$$$$

 OpenBabel03252508223D

 28 30  0  0  0  0  0  0  0  0999 V2000
   36.9750   27.6460   42.9810 C   0  0  0  0  0  0  0  0  0  0  0  0
   36.0050   27.5430   43.5370 H   0  0  0  0  0  0  0  0  0  0  0  0
   37.7240   27.9140   43.7280 H   0  0  0  0  0  0  0  0  0  0  0  0
   36.7520   28.6800   41.9510 C   0  0  0  0  0  0  0  0  0  0  0  0
   35.6960   28.6740   41.0520 C   0  0  0  0  0  0  0  0  0  0  0  0
   35.4980   29.6420   40.1030 C   0  0  0  0  0  0  0  0  0  0  0  0
   36.4240   30.6770   40.0600 C   0  0  0  0  0  0  0  0  0  0  0  0
   37.4800   30.7040   40.9410 C   0  0  0  0  0  0  0  0  0  0  0  0
   37.6580   29.7280   41.8800 C   0  0  0  0  0  0  0  0  0  0  0  0
   35.0030   27.8460   41.1280 H   0  0  0  0  0  0  0  0  0  0  0  0
   34.6690   29.6120   39.4180 H   0  0  0  0  0  0  0  0  0  0  0  0
   36.2670   31.4430   39.3090 H   0  0  0  0  0  0  0  0  0  0  0  0
   38.1460   31.5490   40.8300 H   0  0  0  0  0  0  0  0  0  0  0  0
   38.7950   29.7680   42.8210 C   0  0  0  0  0  3  0  0  0  0  0  0
   40.1870   29.4740   42.4160 C   0  0  0  0  0  2  0  0  0  0  0  0
   39.8040   30.8950   42.7210 C   0  0  0  0  0  2  0  0  0  0  0  0
   37.2370   26.2870   42.3590 C   0  0  0  0  0  0  0  0  0  0  0  0
   36.8790   26.2750   41.3160 H   0  0  0  0  0  0  0  0  0  0  0  0
   36.7360   25.5290   42.9750 H   0  0  0  0  0  0  0  0  0  0  0  0
   40.7770   25.8590   43.5670 C   0  0  0  0  0  0  0  0  0  0  0  0
   39.3820   26.1000   43.5910 C   0  0  0  0  0  0  0  0  0  0  0  0
   38.7010   26.0410   42.3870 C   0  0  0  0  0  0  0  0  0  0  0  0
   39.4120   25.7550   41.2520 N   0  0  0  0  0  0  0  0  0  0  0  0
   40.7350   25.5300   41.2590 C   0  0  0  0  0  0  0  0  0  0  0  0
   41.4200   25.5840   42.4300 N   0  0  0  0  0  0  0  0  0  0  0  0
   41.3240   25.9000   44.4880 H   0  0  0  0  0  0  0  0  0  0  0  0
   38.8410   26.3230   44.4840 H   0  0  0  0  0  0  0  0  0  0  0  0
   41.1210   25.3200   40.2690 H   0  0  0  0  0  0  0  0  0  0  0  0
  1  2  1  0  0  0  0
  1  3  1  0  0  0  0
  4  1  1  0  0  0  0
  5 10  1  0  0  0  0
  5  4  2  0  0  0  0
  6  5  1  0  0  0  0
  7  6  2  0  0  0  0
  7  8  1  0  0  0  0
  8  9  2  0  0  0  0
  9  4  1  0  0  0  0
  9 14  1  0  0  0  0
 11  6  1  0  0  0  0
 12  7  1  0  0  0  0
 13  8  1  0  0  0  0
 15 16  1  0  0  0  0
 15 14  1  0  0  0  0
 16 14  1  0  0  0  0
 17 22  1  0  0  0  0
 17 19  1  0  0  0  0
 17  1  1  0  0  0  0
 18 17  1  0  0  0  0
 20 21  1  0  0  0  0
 20 26  1  0  0  0  0
 21 27  1  0  0  0  0
 22 21  2  0  0  0  0
 23 24  2  0  0  0  0
 23 22  1  0  0  0  0
 24 25  1  0  0  0  0
 25 20  2  0  0  0  0
 28 24  1  0  0  0  0
M  END
>  <minimizedAffinity>
-4.66819954

$$$$

 OpenBabel03252508223D

 28 30  0  0  0  0  0  0  0  0999 V2000
   37.6670   29.5680   42.1790 C   0  0  0  0  0  0  0  0  0  0  0  0
   37.6920   28.7860   41.3750 H   0  0  0  0  0  0  0  0  0  0  0  0
   36.7000   30.0650   42.0860 H   0  0  0  0  0  0  0  0  0  0  0  0
   38.8260   30.4490   41.9350 C   0  0  0  0  0  0  0  0  0  0  0  0
   40.0590   30.3090   42.5540 C   0  0  0  0  0  0  0  0  0  0  0  0
   41.1290   31.1310   42.3170 C   0  0  0  0  0  0  0  0  0  0  0  0
   40.9400   32.1560   41.3970 C   0  0  0  0  0  0  0  0  0  0  0  0
   39.7260   32.3140   40.7700 C   0  0  0  0  0  0  0  0  0  0  0  0
   38.6730   31.4820   41.0230 C   0  0  0  0  0  0  0  0  0  0  0  0
   40.1540   29.4950   43.2620 H   0  0  0  0  0  0  0  0  0  0  0  0
   42.0750   31.0000   42.8130 H   0  0  0  0  0  0  0  0  0  0  0  0
   41.7870   32.8070   41.2090 H   0  0  0  0  0  0  0  0  0  0  0  0
   39.6770   33.1380   40.0720 H   0  0  0  0  0  0  0  0  0  0  0  0
   37.3740   31.6610   40.3430 C   0  0  0  0  0  3  0  0  0  0  0  0
   37.1510   32.6700   39.2840 C   0  0  0  0  0  2  0  0  0  0  0  0
   37.2220   31.2190   38.9020 C   0  0  0  0  0  2  0  0  0  0  0  0
   37.8060   28.8130   43.4880 C   0  0  0  0  0  0  0  0  0  0  0  0
   36.8600   28.8640   44.0540 H   0  0  0  0  0  0  0  0  0  0  0  0
   38.6430   29.2520   44.0460 H   0  0  0  0  0  0  0  0  0  0  0  0
   39.5750   25.4950   43.2990 C   0  0  0  0  0  0  0  0  0  0  0  0
   39.3140   26.8490   43.6240 C   0  0  0  0  0  0  0  0  0  0  0  0
   38.1250   27.3980   43.1750 C   0  0  0  0  0  0  0  0  0  0  0  0
   37.2780   26.6050   42.4470 N   0  0  0  0  0  0  0  0  0  0  0  0
   37.5510   25.3240   42.1540 C   0  0  0  0  0  0  0  0  0  0  0  0
   38.7120   24.7680   42.5870 N   0  0  0  0  0  0  0  0  0  0  0  0
   40.4890   25.0500   43.6370 H   0  0  0  0  0  0  0  0  0  0  0  0
   39.9850   27.4550   44.1910 H   0  0  0  0  0  0  0  0  0  0  0  0
   36.7640   24.8590   41.5730 H   0  0  0  0  0  0  0  0  0  0  0  0
  1 17  1  0  0  0  0
  2  1  1  0  0  0  0
  3  1  1  0  0  0  0
  4  1  1  0  0  0  0
  4  5  1  0  0  0  0
  5 10  1  0  0  0  0
  6  5  2  0  0  0  0
  6 11  1  0  0  0  0
  7  6  1  0  0  0  0
  8  9  1  0  0  0  0
  8  7  2  0  0  0  0
  9  4  2  0  0  0  0
 12  7  1  0  0  0  0
 13  8  1  0  0  0  0
 14  9  1  0  0  0  0
 15 14  1  0  0  0  0
 16 15  1  0  0  0  0
 16 14  1  0  0  0  0
 17 19  1  0  0  0  0
 17 18  1  0  0  0  0
 20 21  1  0  0  0  0
 20 26  1  0  0  0  0
 21 27  1  0  0  0  0
 22 17  1  0  0  0  0
 22 21  2  0  0  0  0
 23 22  1  0  0  0  0
 24 23  2  0  0  0  0
 24 25  1  0  0  0  0
 25 20  2  0  0  0  0
 28 24  1  0  0  0  0
M  END
>  <minimizedAffinity>
-4.63863707

$$$$

 OpenBabel03252508223D

 28 30  0  0  0  0  0  0  0  0999 V2000
   37.4440   28.0680   43.3430 C   0  0  0  0  0  0  0  0  0  0  0  0
   36.5410   27.6850   42.7960 H   0  0  0  0  0  0  0  0  0  0  0  0
   37.1050   28.3020   44.3550 H   0  0  0  0  0  0  0  0  0  0  0  0
   37.9240   29.2370   42.5810 C   0  0  0  0  0  0  0  0  0  0  0  0
   39.0770   29.9470   42.8820 C   0  0  0  0  0  0  0  0  0  0  0  0
   39.5140   31.0290   42.1650 C   0  0  0  0  0  0  0  0  0  0  0  0
   38.7390   31.4160   41.0780 C   0  0  0  0  0  0  0  0  0  0  0  0
   37.5930   30.7270   40.7600 C   0  0  0  0  0  0  0  0  0  0  0  0
   37.1750   29.6510   41.4890 C   0  0  0  0  0  0  0  0  0  0  0  0
   39.6430   29.6050   43.7390 H   0  0  0  0  0  0  0  0  0  0  0  0
   40.4130   31.5630   42.4220 H   0  0  0  0  0  0  0  0  0  0  0  0
   39.0860   32.2730   40.5100 H   0  0  0  0  0  0  0  0  0  0  0  0
   37.0580   31.1030   39.8980 H   0  0  0  0  0  0  0  0  0  0  0  0
   35.9420   28.9180   41.1380 C   0  0  0  0  0  3  0  0  0  0  0  0
   35.0820   29.2900   39.9920 C   0  0  0  0  0  2  0  0  0  0  0  0
   35.9220   28.0470   39.8970 C   0  0  0  0  0  2  0  0  0  0  0  0
   38.4500   26.9330   43.3170 C   0  0  0  0  0  0  0  0  0  0  0  0
   38.3760   26.3430   44.2470 H   0  0  0  0  0  0  0  0  0  0  0  0
   39.4490   27.3680   43.1850 H   0  0  0  0  0  0  0  0  0  0  0  0
   36.8070   24.3990   41.0690 C   0  0  0  0  0  0  0  0  0  0  0  0
   37.0600   25.2060   42.2060 C   0  0  0  0  0  0  0  0  0  0  0  0
   38.1430   26.0680   42.1510 C   0  0  0  0  0  0  0  0  0  0  0  0
   38.8990   26.0900   41.0100 N   0  0  0  0  0  0  0  0  0  0  0  0
   38.6350   25.3140   39.9470 C   0  0  0  0  0  0  0  0  0  0  0  0
   37.5780   24.4620   39.9820 N   0  0  0  0  0  0  0  0  0  0  0  0
   35.9740   23.7250   41.0910 H   0  0  0  0  0  0  0  0  0  0  0  0
   36.4620   25.1780   43.0900 H   0  0  0  0  0  0  0  0  0  0  0  0
   39.3400   25.4700   39.1390 H   0  0  0  0  0  0  0  0  0  0  0  0
  1  3  1  0  0  0  0
  2  1  1  0  0  0  0
  4  5  1  0  0  0  0
  4  1  1  0  0  0  0
  5 10  1  0  0  0  0
  6 11  1  0  0  0  0
  6  5  2  0  0  0  0
  7  6  1  0  0  0  0
  8  7  2  0  0  0  0
  8  9  1  0  0  0  0
  9  4  2  0  0  0  0
 12  7  1  0  0  0  0
 13  8  1  0  0  0  0
 14  9  1  0  0  0  0
 15 14  1  0  0  0  0
 16 15  1  0  0  0  0
 16 14  1  0  0  0  0
 17  1  1  0  0  0  0
 17 18  1  0  0  0  0
 19 17  1  0  0  0  0
 20 26  1  0  0  0  0
 20 21  1  0  0  0  0
 21 27  1  0  0  0  0
 22 21  2  0  0  0  0
 22 17  1  0  0  0  0
 23 22  1  0  0  0  0
 24 25  1  0  0  0  0
 24 23  2  0  0  0  0
 25 20  2  0  0  0  0
 28 24  1  0  0  0  0
M  END
>  <minimizedAffinity>
-4.62718534

$$$$
