
 OpenBabel03252503303D

 31 33  0  0  1  0  0  0  0  0999 V2000
   38.0090   29.4940   40.6840 C   0  0  0  0  0  0  0  0  0  0  0  0
   38.9110   30.5960   40.6300 C   0  0  0  0  0  0  0  0  0  0  0  0
   38.3170   31.8630   40.5480 C   0  0  0  0  0  0  0  0  0  0  0  0
   36.9790   31.9450   40.5260 N   0  0  0  0  0  0  0  0  0  0  0  0
   36.1650   30.8700   40.5790 C   0  0  0  0  0  0  0  0  0  0  0  0
   36.6910   29.6370   40.6570 N   0  0  0  0  0  0  0  0  0  0  0  0
   38.9880   27.8710   42.0690 C   0  0  0  0  0  0  0  0  0  0  0  0
   38.9330   28.7620   42.9390 O   0  0  0  0  0  0  0  0  0  0  0  0
   38.4990   28.1560   40.7700 N   0  0  0  0  0  0  0  0  0  0  0  0
   39.5480   26.6070   42.4440 N   0  0  0  0  0  0  0  0  0  0  0  0
   40.3280   26.4940   43.6790 C   0  0  0  0  0  0  0  0  0  0  0  0
   41.2850   25.3920   43.3280 C   0  0  0  0  0  0  0  0  0  0  0  0
   40.9140   24.8660   41.9800 C   0  0  0  0  0  0  0  0  0  0  0  0
   39.5040   25.3160   41.7720 C   0  0  1  0  0  0  0  0  0  0  0  0
   39.9560   30.3350   40.6590 H   0  0  0  0  0  0  0  0  0  0  0  0
   35.1020   31.1000   40.5510 H   0  0  0  0  0  0  0  0  0  0  0  0
   38.5470   27.4040   40.0630 H   0  0  0  0  0  0  0  0  0  0  0  0
   40.9160   27.4440   43.8290 H   0  0  0  0  0  0  0  0  0  0  0  0
   39.7530   26.2820   44.5690 H   0  0  0  0  0  0  0  0  0  0  0  0
   42.3480   25.7230   43.3730 H   0  0  0  0  0  0  0  0  0  0  0  0
   41.1820   24.5210   44.0410 H   0  0  0  0  0  0  0  0  0  0  0  0
   41.5790   25.3140   41.2020 H   0  0  0  0  0  0  0  0  0  0  0  0
   40.9890   23.7550   41.9190 H   0  0  0  0  0  0  0  0  0  0  0  0
   39.3890   25.5910   40.6810 H   0  0  0  0  0  0  0  0  0  0  0  0
   39.2690   32.9770   40.4960 C   0  0  0  0  0  0  0  0  0  0  0  0
   40.4500   32.5810   41.1200 F   0  0  0  0  0  0  0  0  0  0  0  0
   38.7590   33.9980   41.2900 F   0  0  0  0  0  0  0  0  0  0  0  0
   39.5780   33.3760   39.2360 F   0  0  0  0  0  0  0  0  0  0  0  0
   38.4330   24.3960   42.2060 C   0  0  0  0  0  3  0  0  0  0  0  0
   37.5490   23.8190   41.1400 C   0  0  0  0  0  2  0  0  0  0  0  0
   37.0250   24.7830   42.1990 C   0  0  0  0  0  2  0  0  0  0  0  0
  1  9  1  0  0  0  0
  2 15  1  0  0  0  0
  2  1  2  0  0  0  0
  3  2  1  0  0  0  0
  4  3  2  0  0  0  0
  4  5  1  0  0  0  0
  5  6  2  0  0  0  0
  6  1  1  0  0  0  0
  7 10  1  0  0  0  0
  7  8  2  0  0  0  0
  9  7  1  0  0  0  0
 10 11  1  0  0  0  0
 11 18  1  0  0  0  0
 11 19  1  0  0  0  0
 12 20  1  0  0  0  0
 12 11  1  0  0  0  0
 12 21  1  0  0  0  0
 13 12  1  0  0  0  0
 14 24  1  6  0  0  0
 14 13  1  0  0  0  0
 14 29  1  0  0  0  0
 14 10  1  0  0  0  0
 16  5  1  0  0  0  0
 17  9  1  0  0  0  0
 22 13  1  0  0  0  0
 23 13  1  0  0  0  0
 25  3  1  0  0  0  0
 25 26  1  0  0  0  0
 25 27  1  0  0  0  0
 28 25  1  0  0  0  0
 30 31  1  0  0  0  0
 30 29  1  0  0  0  0
 31 29  1  0  0  0  0
M  END
>  <minimizedAffinity>
-5.41993093

$$$$

 OpenBabel03252503303D

 31 33  0  0  1  0  0  0  0  0999 V2000
   39.3610   27.7560   41.8220 C   0  0  0  0  0  0  0  0  0  0  0  0
   38.4360   26.7480   41.4230 C   0  0  0  0  0  0  0  0  0  0  0  0
   38.3660   25.6240   42.2570 C   0  0  0  0  0  0  0  0  0  0  0  0
   39.1550   25.5790   43.3410 N   0  0  0  0  0  0  0  0  0  0  0  0
   40.0160   26.5600   43.6780 C   0  0  0  0  0  0  0  0  0  0  0  0
   40.1160   27.6560   42.9070 N   0  0  0  0  0  0  0  0  0  0  0  0
   38.4200   29.8240   41.2320 C   0  0  0  0  0  0  0  0  0  0  0  0
   37.5020   29.4840   42.0030 O   0  0  0  0  0  0  0  0  0  0  0  0
   39.5180   28.9460   41.0500 N   0  0  0  0  0  0  0  0  0  0  0  0
   38.3030   31.0920   40.5760 N   0  0  0  0  0  0  0  0  0  0  0  0
   37.0100   31.7800   40.5470 C   0  0  0  0  0  0  0  0  0  0  0  0
   37.1030   32.5370   39.2540 C   0  0  0  0  0  0  0  0  0  0  0  0
   38.4740   32.3360   38.6950 C   0  0  0  0  0  0  0  0  0  0  0  0
   39.2940   31.8810   39.8580 C   0  0  1  0  0  0  0  0  0  0  0  0
   37.8880   26.9600   40.5200 H   0  0  0  0  0  0  0  0  0  0  0  0
   40.5860   26.3770   44.5860 H   0  0  0  0  0  0  0  0  0  0  0  0
   40.2730   29.2480   40.4120 H   0  0  0  0  0  0  0  0  0  0  0  0
   36.1890   31.0140   40.4550 H   0  0  0  0  0  0  0  0  0  0  0  0
   36.8110   32.4210   41.3940 H   0  0  0  0  0  0  0  0  0  0  0  0
   36.3070   32.2430   38.5310 H   0  0  0  0  0  0  0  0  0  0  0  0
   36.9960   33.6490   39.4240 H   0  0  0  0  0  0  0  0  0  0  0  0
   38.4490   31.5430   37.9080 H   0  0  0  0  0  0  0  0  0  0  0  0
   38.8960   33.2680   38.2510 H   0  0  0  0  0  0  0  0  0  0  0  0
   40.0250   31.1050   39.4800 H   0  0  0  0  0  0  0  0  0  0  0  0
   37.4060   24.6040   41.8230 C   0  0  0  0  0  0  0  0  0  0  0  0
   36.9910   24.9090   40.5290 F   0  0  0  0  0  0  0  0  0  0  0  0
   36.2700   24.7390   42.6140 F   0  0  0  0  0  0  0  0  0  0  0  0
   37.9110   23.3440   41.8130 F   0  0  0  0  0  0  0  0  0  0  0  0
   39.9840   32.9250   40.6440 C   0  0  0  0  0  3  0  0  0  0  0  0
   40.4690   34.1350   39.9020 C   0  0  0  0  0  2  0  0  0  0  0  0
   41.4250   33.1420   40.5530 C   0  0  0  0  0  2  0  0  0  0  0  0
  1  6  1  0  0  0  0
  2  1  2  0  0  0  0
  2  3  1  0  0  0  0
  3  4  2  0  0  0  0
  4  5  1  0  0  0  0
  5 16  1  0  0  0  0
  6  5  2  0  0  0  0
  7  8  2  0  0  0  0
  9  7  1  0  0  0  0
  9  1  1  0  0  0  0
 10  7  1  0  0  0  0
 11 10  1  0  0  0  0
 11 19  1  0  0  0  0
 12 21  1  0  0  0  0
 12 11  1  0  0  0  0
 13 12  1  0  0  0  0
 13 14  1  0  0  0  0
 14 24  1  6  0  0  0
 14 10  1  0  0  0  0
 14 29  1  0  0  0  0
 15  2  1  0  0  0  0
 17  9  1  0  0  0  0
 18 11  1  0  0  0  0
 20 12  1  0  0  0  0
 22 13  1  0  0  0  0
 23 13  1  0  0  0  0
 25  3  1  0  0  0  0
 25 27  1  0  0  0  0
 26 25  1  0  0  0  0
 28 25  1  0  0  0  0
 30 31  1  0  0  0  0
 30 29  1  0  0  0  0
 31 29  1  0  0  0  0
M  END
>  <minimizedAffinity>
-5.36986876

$$$$

 OpenBabel03252503303D

 31 33  0  0  1  0  0  0  0  0999 V2000
   40.6850   31.7930   40.4610 C   0  0  0  0  0  0  0  0  0  0  0  0
   40.8860   32.0440   39.0720 C   0  0  0  0  0  0  0  0  0  0  0  0
   42.1280   32.5930   38.7280 C   0  0  0  0  0  0  0  0  0  0  0  0
   43.0150   32.8370   39.7040 N   0  0  0  0  0  0  0  0  0  0  0  0
   42.7800   32.5810   41.0070 C   0  0  0  0  0  0  0  0  0  0  0  0
   41.6010   32.0560   41.3830 N   0  0  0  0  0  0  0  0  0  0  0  0
   39.3740   29.8530   40.6270 C   0  0  0  0  0  0  0  0  0  0  0  0
   40.3240   29.3120   40.0280 O   0  0  0  0  0  0  0  0  0  0  0  0
   39.4590   31.2350   40.9300 N   0  0  0  0  0  0  0  0  0  0  0  0
   38.2510   29.0340   40.9710 N   0  0  0  0  0  0  0  0  0  0  0  0
   38.0860   27.7220   40.3410 C   0  0  0  0  0  0  0  0  0  0  0  0
   36.5920   27.5760   40.3380 C   0  0  0  0  0  0  0  0  0  0  0  0
   36.0110   28.7410   41.0720 C   0  0  0  0  0  0  0  0  0  0  0  0
   37.1430   29.2820   41.8830 C   0  0  1  0  0  0  0  0  0  0  0  0
   40.0560   31.7830   38.4360 H   0  0  0  0  0  0  0  0  0  0  0  0
   43.5980   32.8340   41.6780 H   0  0  0  0  0  0  0  0  0  0  0  0
   38.6640   31.6650   41.4320 H   0  0  0  0  0  0  0  0  0  0  0  0
   38.4410   27.7820   39.2720 H   0  0  0  0  0  0  0  0  0  0  0  0
   38.5860   26.9050   40.8410 H   0  0  0  0  0  0  0  0  0  0  0  0
   36.1760   27.4770   39.3090 H   0  0  0  0  0  0  0  0  0  0  0  0
   36.2710   26.6560   40.9110 H   0  0  0  0  0  0  0  0  0  0  0  0
   35.6590   29.5110   40.3420 H   0  0  0  0  0  0  0  0  0  0  0  0
   35.1560   28.4510   41.7260 H   0  0  0  0  0  0  0  0  0  0  0  0
   37.0540   30.4090   41.8890 H   0  0  0  0  0  0  0  0  0  0  0  0
   42.3060   32.8390   37.2930 C   0  0  0  0  0  0  0  0  0  0  0  0
   41.3540   32.0990   36.5960 F   0  0  0  0  0  0  0  0  0  0  0  0
   43.5330   32.2970   36.9270 F   0  0  0  0  0  0  0  0  0  0  0  0
   42.1640   34.1420   36.9380 F   0  0  0  0  0  0  0  0  0  0  0  0
   37.3020   28.7520   43.2530 C   0  0  0  0  0  3  0  0  0  0  0  0
   38.1850   27.5520   43.4270 C   0  0  0  0  0  2  0  0  0  0  0  0
   36.6820   27.5000   43.6800 C   0  0  0  0  0  2  0  0  0  0  0  0
  1  9  1  0  0  0  0
  1  6  1  0  0  0  0
  2  1  2  0  0  0  0
  3  2  1  0  0  0  0
  3  4  2  0  0  0  0
  4  5  1  0  0  0  0
  5  6  2  0  0  0  0
  5 16  1  0  0  0  0
  7  9  1  0  0  0  0
  7 10  1  0  0  0  0
  8  7  2  0  0  0  0
  9 17  1  0  0  0  0
 10 14  1  0  0  0  0
 11 19  1  0  0  0  0
 11 10  1  0  0  0  0
 12 11  1  0  0  0  0
 12 21  1  0  0  0  0
 12 13  1  0  0  0  0
 13 23  1  0  0  0  0
 13 14  1  0  0  0  0
 14 24  1  1  0  0  0
 14 29  1  0  0  0  0
 15  2  1  0  0  0  0
 18 11  1  0  0  0  0
 20 12  1  0  0  0  0
 22 13  1  0  0  0  0
 25  3  1  0  0  0  0
 26 25  1  0  0  0  0
 27 25  1  0  0  0  0
 28 25  1  0  0  0  0
 29 30  1  0  0  0  0
 29 31  1  0  0  0  0
 30 31  1  0  0  0  0
M  END
>  <minimizedAffinity>
-5.21738672

$$$$

 OpenBabel03252503303D

 31 33  0  0  1  0  0  0  0  0999 V2000
   37.5430   28.2580   38.7060 C   0  0  0  0  0  0  0  0  0  0  0  0
   38.0880   29.5540   38.4760 C   0  0  0  0  0  0  0  0  0  0  0  0
   37.3010   30.4140   37.6980 C   0  0  0  0  0  0  0  0  0  0  0  0
   36.1250   29.9660   37.2360 N   0  0  0  0  0  0  0  0  0  0  0  0
   35.6500   28.7280   37.4800 C   0  0  0  0  0  0  0  0  0  0  0  0
   36.3710   27.8700   38.2220 N   0  0  0  0  0  0  0  0  0  0  0  0
   38.1940   27.6110   40.8670 C   0  0  0  0  0  0  0  0  0  0  0  0
   37.5600   28.6230   41.2240 O   0  0  0  0  0  0  0  0  0  0  0  0
   38.2540   27.2970   39.4860 N   0  0  0  0  0  0  0  0  0  0  0  0
   38.8240   26.8250   41.8850 N   0  0  0  0  0  0  0  0  0  0  0  0
   39.0030   27.3830   43.2280 C   0  0  0  0  0  0  0  0  0  0  0  0
   40.2520   26.6810   43.6790 C   0  0  0  0  0  0  0  0  0  0  0  0
   40.6310   25.6870   42.6290 C   0  0  0  0  0  0  0  0  0  0  0  0
   39.3830   25.4810   41.8340 C   0  0  1  0  0  0  0  0  0  0  0  0
   39.0490   29.7340   38.9290 H   0  0  0  0  0  0  0  0  0  0  0  0
   34.6800   28.5140   37.0360 H   0  0  0  0  0  0  0  0  0  0  0  0
   38.7780   26.4500   39.2080 H   0  0  0  0  0  0  0  0  0  0  0  0
   39.2250   28.4840   43.1400 H   0  0  0  0  0  0  0  0  0  0  0  0
   38.1730   27.2340   43.9030 H   0  0  0  0  0  0  0  0  0  0  0  0
   41.0810   27.3920   43.9040 H   0  0  0  0  0  0  0  0  0  0  0  0
   40.0670   26.0850   44.6210 H   0  0  0  0  0  0  0  0  0  0  0  0
   41.4360   26.1100   41.9800 H   0  0  0  0  0  0  0  0  0  0  0  0
   40.9890   24.7230   43.0630 H   0  0  0  0  0  0  0  0  0  0  0  0
   39.6830   25.3620   40.7490 H   0  0  0  0  0  0  0  0  0  0  0  0
   37.8870   31.7410   37.4800 C   0  0  0  0  0  0  0  0  0  0  0  0
   37.2130   32.6590   38.2810 F   0  0  0  0  0  0  0  0  0  0  0  0
   37.5980   32.1130   36.1720 F   0  0  0  0  0  0  0  0  0  0  0  0
   39.2080   31.8140   37.7830 F   0  0  0  0  0  0  0  0  0  0  0  0
   38.4840   24.3900   42.2620 C   0  0  0  0  0  3  0  0  0  0  0  0
   37.8860   23.5310   41.1860 C   0  0  0  0  0  2  0  0  0  0  0  0
   37.0390   24.4480   42.0600 C   0  0  0  0  0  2  0  0  0  0  0  0
  1  9  1  0  0  0  0
  2  1  1  0  0  0  0
  2 15  1  0  0  0  0
  3  2  2  0  0  0  0
  4  5  2  0  0  0  0
  4  3  1  0  0  0  0
  5  6  1  0  0  0  0
  6  1  2  0  0  0  0
  7  8  2  0  0  0  0
  7 10  1  0  0  0  0
  9  7  1  0  0  0  0
 10 11  1  0  0  0  0
 11 12  1  0  0  0  0
 11 19  1  0  0  0  0
 12 20  1  0  0  0  0
 12 21  1  0  0  0  0
 13 23  1  0  0  0  0
 13 12  1  0  0  0  0
 14 24  1  6  0  0  0
 14 10  1  0  0  0  0
 14 29  1  0  0  0  0
 14 13  1  0  0  0  0
 16  5  1  0  0  0  0
 17  9  1  0  0  0  0
 18 11  1  0  0  0  0
 22 13  1  0  0  0  0
 25  3  1  0  0  0  0
 25 28  1  0  0  0  0
 25 26  1  0  0  0  0
 27 25  1  0  0  0  0
 30 31  1  0  0  0  0
 30 29  1  0  0  0  0
 31 29  1  0  0  0  0
M  END
>  <minimizedAffinity>
-5.1617384

$$$$

 OpenBabel03252503303D

 31 33  0  0  1  0  0  0  0  0999 V2000
   38.8580   29.5920   40.9130 C   0  0  0  0  0  0  0  0  0  0  0  0
   37.9570   30.1700   39.9730 C   0  0  0  0  0  0  0  0  0  0  0  0
   38.3700   31.3810   39.4020 C   0  0  0  0  0  0  0  0  0  0  0  0
   39.5520   31.8960   39.7720 N   0  0  0  0  0  0  0  0  0  0  0  0
   40.3730   31.3110   40.6680 C   0  0  0  0  0  0  0  0  0  0  0  0
   40.0160   30.1490   41.2410 N   0  0  0  0  0  0  0  0  0  0  0  0
   38.7010   27.2620   40.6750 C   0  0  0  0  0  0  0  0  0  0  0  0
   39.0780   27.4820   39.5070 O   0  0  0  0  0  0  0  0  0  0  0  0
   38.5450   28.3590   41.5590 N   0  0  0  0  0  0  0  0  0  0  0  0
   38.4480   25.9020   41.0470 N   0  0  0  0  0  0  0  0  0  0  0  0
   38.3050   24.8780   40.0100 C   0  0  0  0  0  0  0  0  0  0  0  0
   37.3650   23.9120   40.6720 C   0  0  0  0  0  0  0  0  0  0  0  0
   37.1330   24.3750   42.0730 C   0  0  0  0  0  0  0  0  0  0  0  0
   38.2730   25.2980   42.3610 C   0  0  1  0  0  0  0  0  0  0  0  0
   37.0520   29.6100   39.8020 H   0  0  0  0  0  0  0  0  0  0  0  0
   41.2960   31.8510   40.8640 H   0  0  0  0  0  0  0  0  0  0  0  0
   38.2370   28.1560   42.5250 H   0  0  0  0  0  0  0  0  0  0  0  0
   37.7840   25.3300   39.1190 H   0  0  0  0  0  0  0  0  0  0  0  0
   39.2270   24.4130   39.6920 H   0  0  0  0  0  0  0  0  0  0  0  0
   36.4120   23.7920   40.1060 H   0  0  0  0  0  0  0  0  0  0  0  0
   37.8280   22.8850   40.7550 H   0  0  0  0  0  0  0  0  0  0  0  0
   36.1650   24.9290   42.1340 H   0  0  0  0  0  0  0  0  0  0  0  0
   37.1100   23.5330   42.8040 H   0  0  0  0  0  0  0  0  0  0  0  0
   37.8750   26.1490   42.9910 H   0  0  0  0  0  0  0  0  0  0  0  0
   37.4240   31.9510   38.4370 C   0  0  0  0  0  0  0  0  0  0  0  0
   36.3670   31.0590   38.2730 F   0  0  0  0  0  0  0  0  0  0  0  0
   38.0630   31.9940   37.2030 F   0  0  0  0  0  0  0  0  0  0  0  0
   36.9050   33.1460   38.8180 F   0  0  0  0  0  0  0  0  0  0  0  0
   39.4820   24.7050   42.9670 C   0  0  0  0  0  3  0  0  0  0  0  0
   40.4200   25.6350   43.6800 C   0  0  0  0  0  2  0  0  0  0  0  0
   40.8140   24.9040   42.4010 C   0  0  0  0  0  2  0  0  0  0  0  0
  1  6  1  0  0  0  0
  1  9  1  0  0  0  0
  2  1  2  0  0  0  0
  3  4  2  0  0  0  0
  3  2  1  0  0  0  0
  4  5  1  0  0  0  0
  5 16  1  0  0  0  0
  5  6  2  0  0  0  0
  7 10  1  0  0  0  0
  7  9  1  0  0  0  0
  8  7  2  0  0  0  0
  9 17  1  0  0  0  0
 10 14  1  0  0  0  0
 11 12  1  0  0  0  0
 11 10  1  0  0  0  0
 12 21  1  0  0  0  0
 12 13  1  0  0  0  0
 13 22  1  0  0  0  0
 13 14  1  0  0  0  0
 13 23  1  0  0  0  0
 14 29  1  0  0  0  0
 14 24  1  1  0  0  0
 15  2  1  0  0  0  0
 18 11  1  0  0  0  0
 19 11  1  0  0  0  0
 20 12  1  0  0  0  0
 25 28  1  0  0  0  0
 25  3  1  0  0  0  0
 26 25  1  0  0  0  0
 27 25  1  0  0  0  0
 29 30  1  0  0  0  0
 31 29  1  0  0  0  0
 31 30  1  0  0  0  0
M  END
>  <minimizedAffinity>
-5.13600492

$$$$

 OpenBabel03252503303D

 31 33  0  0  1  0  0  0  0  0999 V2000
   37.0020   29.5380   38.7880 C   0  0  0  0  0  0  0  0  0  0  0  0
   36.6520   29.1390   37.4650 C   0  0  0  0  0  0  0  0  0  0  0  0
   36.8570   30.1010   36.4670 C   0  0  0  0  0  0  0  0  0  0  0  0
   37.3530   31.2970   36.8190 N   0  0  0  0  0  0  0  0  0  0  0  0
   37.6700   31.6280   38.0880 C   0  0  0  0  0  0  0  0  0  0  0  0
   37.4900   30.7370   39.0760 N   0  0  0  0  0  0  0  0  0  0  0  0
   37.8370   27.6350   39.8810 C   0  0  0  0  0  0  0  0  0  0  0  0
   38.6980   27.6500   38.9790 O   0  0  0  0  0  0  0  0  0  0  0  0
   36.8380   28.6410   39.8860 N   0  0  0  0  0  0  0  0  0  0  0  0
   37.9160   26.5940   40.8610 N   0  0  0  0  0  0  0  0  0  0  0  0
   38.7510   25.4170   40.6060 C   0  0  0  0  0  0  0  0  0  0  0  0
   38.0150   24.3560   41.3730 C   0  0  0  0  0  0  0  0  0  0  0  0
   36.8920   25.0110   42.1100 C   0  0  0  0  0  0  0  0  0  0  0  0
   37.2600   26.4590   42.1540 C   0  0  1  0  0  0  0  0  0  0  0  0
   36.2670   28.1370   37.3760 H   0  0  0  0  0  0  0  0  0  0  0  0
   38.0620   32.6350   38.2130 H   0  0  0  0  0  0  0  0  0  0  0  0
   36.1370   28.6170   40.6450 H   0  0  0  0  0  0  0  0  0  0  0  0
   38.7030   25.1640   39.5090 H   0  0  0  0  0  0  0  0  0  0  0  0
   39.7840   25.5120   40.9090 H   0  0  0  0  0  0  0  0  0  0  0  0
   37.6610   23.5270   40.7170 H   0  0  0  0  0  0  0  0  0  0  0  0
   38.6760   23.8910   42.1620 H   0  0  0  0  0  0  0  0  0  0  0  0
   35.9380   24.8740   41.5450 H   0  0  0  0  0  0  0  0  0  0  0  0
   36.7610   24.6030   43.1390 H   0  0  0  0  0  0  0  0  0  0  0  0
   36.3090   27.0590   42.0300 H   0  0  0  0  0  0  0  0  0  0  0  0
   36.4890   29.6630   35.1170 C   0  0  0  0  0  0  0  0  0  0  0  0
   36.5950   30.7500   34.2540 F   0  0  0  0  0  0  0  0  0  0  0  0
   35.1370   29.3410   35.1380 F   0  0  0  0  0  0  0  0  0  0  0  0
   37.2730   28.6670   34.6310 F   0  0  0  0  0  0  0  0  0  0  0  0
   38.0340   26.9210   43.3240 C   0  0  0  0  0  3  0  0  0  0  0  0
   37.9870   28.3860   43.6430 C   0  0  0  0  0  2  0  0  0  0  0  0
   39.2660   27.6930   43.1860 C   0  0  0  0  0  2  0  0  0  0  0  0
  1  6  1  0  0  0  0
  1  9  1  0  0  0  0
  2  1  2  0  0  0  0
  3  4  2  0  0  0  0
  3  2  1  0  0  0  0
  4  5  1  0  0  0  0
  5 16  1  0  0  0  0
  5  6  2  0  0  0  0
  7  9  1  0  0  0  0
  7 10  1  0  0  0  0
  8  7  2  0  0  0  0
  9 17  1  0  0  0  0
 10 14  1  0  0  0  0
 11 10  1  0  0  0  0
 11 19  1  0  0  0  0
 11 12  1  0  0  0  0
 12 13  1  0  0  0  0
 12 21  1  0  0  0  0
 13 14  1  0  0  0  0
 13 23  1  0  0  0  0
 14 24  1  6  0  0  0
 14 29  1  0  0  0  0
 15  2  1  0  0  0  0
 18 11  1  0  0  0  0
 20 12  1  0  0  0  0
 22 13  1  0  0  0  0
 25 27  1  0  0  0  0
 25  3  1  0  0  0  0
 26 25  1  0  0  0  0
 28 25  1  0  0  0  0
 29 30  1  0  0  0  0
 31 29  1  0  0  0  0
 31 30  1  0  0  0  0
M  END
>  <minimizedAffinity>
-5.12124872

$$$$

 OpenBabel03252503303D

 31 33  0  0  1  0  0  0  0  0999 V2000
   36.0040   28.7340   36.8630 C   0  0  0  0  0  0  0  0  0  0  0  0
   36.5270   29.6850   35.9390 C   0  0  0  0  0  0  0  0  0  0  0  0
   35.7340   29.9340   34.8110 C   0  0  0  0  0  0  0  0  0  0  0  0
   34.5720   29.2770   34.6850 N   0  0  0  0  0  0  0  0  0  0  0  0
   34.1170   28.3840   35.5880 C   0  0  0  0  0  0  0  0  0  0  0  0
   34.8460   28.1140   36.6840 N   0  0  0  0  0  0  0  0  0  0  0  0
   36.6410   29.4390   39.0100 C   0  0  0  0  0  0  0  0  0  0  0  0
   35.9840   30.4610   38.7310 O   0  0  0  0  0  0  0  0  0  0  0  0
   36.7240   28.4000   38.0490 N   0  0  0  0  0  0  0  0  0  0  0  0
   37.2740   29.3830   40.2930 N   0  0  0  0  0  0  0  0  0  0  0  0
   37.4260   30.6070   41.0840 C   0  0  0  0  0  0  0  0  0  0  0  0
   38.6820   30.3120   41.8520 C   0  0  0  0  0  0  0  0  0  0  0  0
   39.0930   28.9080   41.5500 C   0  0  0  0  0  0  0  0  0  0  0  0
   37.8590   28.2600   41.0110 C   0  0  1  0  0  0  0  0  0  0  0  0
   37.4790   30.1110   36.2100 H   0  0  0  0  0  0  0  0  0  0  0  0
   33.1580   27.9350   35.3440 H   0  0  0  0  0  0  0  0  0  0  0  0
   37.2680   27.5580   38.3000 H   0  0  0  0  0  0  0  0  0  0  0  0
   37.6270   31.4700   40.3870 H   0  0  0  0  0  0  0  0  0  0  0  0
   36.5900   30.8480   41.7250 H   0  0  0  0  0  0  0  0  0  0  0  0
   39.4940   31.0440   41.6340 H   0  0  0  0  0  0  0  0  0  0  0  0
   38.4970   30.3500   42.9660 H   0  0  0  0  0  0  0  0  0  0  0  0
   39.8970   28.9070   40.7750 H   0  0  0  0  0  0  0  0  0  0  0  0
   39.4640   28.3670   42.4520 H   0  0  0  0  0  0  0  0  0  0  0  0
   38.1740   27.5540   40.1850 H   0  0  0  0  0  0  0  0  0  0  0  0
   36.2960   30.9180   33.8790 C   0  0  0  0  0  0  0  0  0  0  0  0
   35.2470   31.5620   33.2290 F   0  0  0  0  0  0  0  0  0  0  0  0
   36.9670   30.2140   32.8860 F   0  0  0  0  0  0  0  0  0  0  0  0
   37.0610   31.8660   34.4790 F   0  0  0  0  0  0  0  0  0  0  0  0
   36.9760   27.5820   41.9830 C   0  0  0  0  0  3  0  0  0  0  0  0
   37.5280   27.3370   43.3570 C   0  0  0  0  0  2  0  0  0  0  0  0
   37.1930   26.1990   42.3990 C   0  0  0  0  0  2  0  0  0  0  0  0
  1  9  1  0  0  0  0
  2 15  1  0  0  0  0
  2  1  2  0  0  0  0
  3  2  1  0  0  0  0
  4  3  2  0  0  0  0
  4  5  1  0  0  0  0
  5  6  2  0  0  0  0
  6  1  1  0  0  0  0
  7 10  1  0  0  0  0
  8  7  2  0  0  0  0
  9 17  1  0  0  0  0
  9  7  1  0  0  0  0
 10 14  1  0  0  0  0
 10 11  1  0  0  0  0
 11 19  1  0  0  0  0
 11 12  1  0  0  0  0
 12 21  1  0  0  0  0
 13 12  1  0  0  0  0
 13 23  1  0  0  0  0
 14 24  1  6  0  0  0
 14 13  1  0  0  0  0
 14 29  1  0  0  0  0
 16  5  1  0  0  0  0
 18 11  1  0  0  0  0
 20 12  1  0  0  0  0
 22 13  1  0  0  0  0
 25 28  1  0  0  0  0
 25  3  1  0  0  0  0
 26 25  1  0  0  0  0
 27 25  1  0  0  0  0
 29 31  1  0  0  0  0
 29 30  1  0  0  0  0
 31 30  1  0  0  0  0
M  END
>  <minimizedAffinity>
-5.08388042

$$$$

 OpenBabel03252503303D

 31 33  0  0  1  0  0  0  0  0999 V2000
   38.4760   28.6840   42.0320 C   0  0  0  0  0  0  0  0  0  0  0  0
   39.1300   27.4190   41.9900 C   0  0  0  0  0  0  0  0  0  0  0  0
   38.3940   26.3390   42.4960 C   0  0  0  0  0  0  0  0  0  0  0  0
   37.1610   26.5680   42.9710 N   0  0  0  0  0  0  0  0  0  0  0  0
   36.5830   27.7860   42.9880 C   0  0  0  0  0  0  0  0  0  0  0  0
   37.2530   28.8500   42.5140 N   0  0  0  0  0  0  0  0  0  0  0  0
   39.1590   29.8730   40.1260 C   0  0  0  0  0  0  0  0  0  0  0  0
   38.6400   28.9260   39.5040 O   0  0  0  0  0  0  0  0  0  0  0  0
   39.1270   29.8570   41.5430 N   0  0  0  0  0  0  0  0  0  0  0  0
   39.7580   30.9260   39.3600 N   0  0  0  0  0  0  0  0  0  0  0  0
   40.0490   30.7170   37.9400 C   0  0  0  0  0  0  0  0  0  0  0  0
   41.2450   31.6040   37.7460 C   0  0  0  0  0  0  0  0  0  0  0  0
   41.4810   32.3500   39.0190 C   0  0  0  0  0  0  0  0  0  0  0  0
   40.1850   32.2600   39.7570 C   0  0  1  0  0  0  0  0  0  0  0  0
   40.1230   27.4300   41.5720 H   0  0  0  0  0  0  0  0  0  0  0  0
   35.5780   27.8100   43.4050 H   0  0  0  0  0  0  0  0  0  0  0  0
   39.5570   30.6530   42.0420 H   0  0  0  0  0  0  0  0  0  0  0  0
   40.3690   29.6470   37.7850 H   0  0  0  0  0  0  0  0  0  0  0  0
   39.2390   30.9520   37.2640 H   0  0  0  0  0  0  0  0  0  0  0  0
   42.1460   31.0360   37.4180 H   0  0  0  0  0  0  0  0  0  0  0  0
   41.0460   32.3880   36.9570 H   0  0  0  0  0  0  0  0  0  0  0  0
   42.2920   31.8530   39.6040 H   0  0  0  0  0  0  0  0  0  0  0  0
   41.7660   33.4140   38.8440 H   0  0  0  0  0  0  0  0  0  0  0  0
   40.4230   32.1440   40.8570 H   0  0  0  0  0  0  0  0  0  0  0  0
   39.0910   25.0500   42.4390 C   0  0  0  0  0  0  0  0  0  0  0  0
   38.1430   24.0380   42.3140 F   0  0  0  0  0  0  0  0  0  0  0  0
   39.6860   24.8440   43.6790 F   0  0  0  0  0  0  0  0  0  0  0  0
   39.9580   24.9400   41.4000 F   0  0  0  0  0  0  0  0  0  0  0  0
   39.2070   33.3450   39.5350 C   0  0  0  0  0  3  0  0  0  0  0  0
   38.7520   34.1170   40.7390 C   0  0  0  0  0  2  0  0  0  0  0  0
   37.8080   33.2270   39.9380 C   0  0  0  0  0  2  0  0  0  0  0  0
  1  6  1  0  0  0  0
  2  1  2  0  0  0  0
  2  3  1  0  0  0  0
  3  4  2  0  0  0  0
  4  5  1  0  0  0  0
  5 16  1  0  0  0  0
  6  5  2  0  0  0  0
  7  9  1  0  0  0  0
  8  7  2  0  0  0  0
  9  1  1  0  0  0  0
  9 17  1  0  0  0  0
 10 14  1  0  0  0  0
 10  7  1  0  0  0  0
 11 10  1  0  0  0  0
 12 11  1  0  0  0  0
 12 13  1  0  0  0  0
 13 22  1  0  0  0  0
 13 14  1  0  0  0  0
 14 24  1  1  0  0  0
 15  2  1  0  0  0  0
 18 11  1  0  0  0  0
 19 11  1  0  0  0  0
 20 12  1  0  0  0  0
 21 12  1  0  0  0  0
 23 13  1  0  0  0  0
 25  3  1  0  0  0  0
 25 27  1  0  0  0  0
 26 25  1  0  0  0  0
 28 25  1  0  0  0  0
 29 14  1  0  0  0  0
 29 31  1  0  0  0  0
 29 30  1  0  0  0  0
 31 30  1  0  0  0  0
M  END
>  <minimizedAffinity>
-5.07362604

$$$$

 OpenBabel03252503303D

 31 33  0  0  1  0  0  0  0  0999 V2000
   38.1240   26.4090   40.9020 C   0  0  0  0  0  0  0  0  0  0  0  0
   37.1340   25.7490   40.1170 C   0  0  0  0  0  0  0  0  0  0  0  0
   36.7960   24.4540   40.5310 C   0  0  0  0  0  0  0  0  0  0  0  0
   37.4120   23.9420   41.6070 N   0  0  0  0  0  0  0  0  0  0  0  0
   38.3450   24.6060   42.3190 C   0  0  0  0  0  0  0  0  0  0  0  0
   38.7010   25.8500   41.9570 N   0  0  0  0  0  0  0  0  0  0  0  0
   37.5680   28.6890   40.9360 C   0  0  0  0  0  0  0  0  0  0  0  0
   36.5130   28.2950   41.4710 O   0  0  0  0  0  0  0  0  0  0  0  0
   38.5490   27.7320   40.5760 N   0  0  0  0  0  0  0  0  0  0  0  0
   37.7190   30.0970   40.7200 N   0  0  0  0  0  0  0  0  0  0  0  0
   36.5490   30.9750   40.8040 C   0  0  0  0  0  0  0  0  0  0  0  0
   36.9240   32.0650   39.8390 C   0  0  0  0  0  0  0  0  0  0  0  0
   38.3190   31.8080   39.3680 C   0  0  0  0  0  0  0  0  0  0  0  0
   38.8990   30.8820   40.3880 C   0  0  1  0  0  0  0  0  0  0  0  0
   36.7520   26.3210   39.2880 H   0  0  0  0  0  0  0  0  0  0  0  0
   38.7520   24.0560   43.1640 H   0  0  0  0  0  0  0  0  0  0  0  0
   39.4200   28.0780   40.1390 H   0  0  0  0  0  0  0  0  0  0  0  0
   35.6520   30.4300   40.3950 H   0  0  0  0  0  0  0  0  0  0  0  0
   36.3250   31.3500   41.7920 H   0  0  0  0  0  0  0  0  0  0  0  0
   36.2030   32.1490   38.9940 H   0  0  0  0  0  0  0  0  0  0  0  0
   36.9480   33.0710   40.3520 H   0  0  0  0  0  0  0  0  0  0  0  0
   38.2950   31.3120   38.3680 H   0  0  0  0  0  0  0  0  0  0  0  0
   38.9220   32.7420   39.2900 H   0  0  0  0  0  0  0  0  0  0  0  0
   39.5620   30.1440   39.8440 H   0  0  0  0  0  0  0  0  0  0  0  0
   35.7730   23.8010   39.7070 C   0  0  0  0  0  0  0  0  0  0  0  0
   36.3660   22.7440   39.0220 F   0  0  0  0  0  0  0  0  0  0  0  0
   35.3910   24.7070   38.7240 F   0  0  0  0  0  0  0  0  0  0  0  0
   34.7300   23.3040   40.4180 F   0  0  0  0  0  0  0  0  0  0  0  0
   39.6090   31.4970   41.5280 C   0  0  0  0  0  3  0  0  0  0  0  0
   40.9710   30.9600   41.8590 C   0  0  0  0  0  2  0  0  0  0  0  0
   39.7830   30.8040   42.8020 C   0  0  0  0  0  2  0  0  0  0  0  0
  1  6  1  0  0  0  0
  2  3  1  0  0  0  0
  2  1  2  0  0  0  0
  3  4  2  0  0  0  0
  4  5  1  0  0  0  0
  5 16  1  0  0  0  0
  6  5  2  0  0  0  0
  7  8  2  0  0  0  0
  9  1  1  0  0  0  0
  9  7  1  0  0  0  0
 10 11  1  0  0  0  0
 10  7  1  0  0  0  0
 11 19  1  0  0  0  0
 12 21  1  0  0  0  0
 12 11  1  0  0  0  0
 13 12  1  0  0  0  0
 13 14  1  0  0  0  0
 14 24  1  6  0  0  0
 14 10  1  0  0  0  0
 14 29  1  0  0  0  0
 15  2  1  0  0  0  0
 17  9  1  0  0  0  0
 18 11  1  0  0  0  0
 20 12  1  0  0  0  0
 22 13  1  0  0  0  0
 23 13  1  0  0  0  0
 25 28  1  0  0  0  0
 25  3  1  0  0  0  0
 26 25  1  0  0  0  0
 27 25  1  0  0  0  0
 29 30  1  0  0  0  0
 29 31  1  0  0  0  0
 30 31  1  0  0  0  0
M  END
>  <minimizedAffinity>
-4.97519588

$$$$
