
 OpenBabel03252509243D

 21 23  0  0  1  0  0  0  0  0999 V2000
   44.6770   35.3150   45.1380 C   0  0  0  0  0  0  0  0  0  0  0  0
   45.1520   35.6750   43.8600 C   0  0  0  0  0  0  0  0  0  0  0  0
   46.1420   34.8800   43.3530 C   0  0  0  0  0  0  0  0  0  0  0  0
   46.6310   33.7960   44.0730 N   0  0  0  0  0  0  0  0  0  0  0  0
   46.1460   33.4950   45.2830 C   0  0  0  0  0  0  0  0  0  0  0  0
   45.1570   34.2650   45.8200 N   0  0  0  0  0  0  0  0  0  0  0  0
   43.8920   35.9220   45.5720 H   0  0  0  0  0  0  0  0  0  0  0  0
   46.6270   32.6290   45.7120 H   0  0  0  0  0  0  0  0  0  0  0  0
   46.6450   35.1360   41.9540 C   0  0  1  0  0  0  0  0  0  0  0  0
   48.1860   35.3080   41.9630 C   0  0  0  0  0  0  0  0  0  0  0  0
   47.4070   34.1390   41.2960 C   0  0  2  0  0  0  0  0  0  0  0  0
   46.1230   35.9510   41.4210 H   0  0  0  0  0  0  0  0  0  0  0  0
   48.5620   36.0870   41.3080 H   0  0  0  0  0  0  0  0  0  0  0  0
   48.7460   35.0850   42.8660 H   0  0  0  0  0  0  0  0  0  0  0  0
   47.5860   33.1640   41.7990 H   0  0  0  0  0  0  0  0  0  0  0  0
   47.4270   34.0910   39.7910 C   0  0  0  0  0  3  0  0  0  0  0  0
   48.2100   33.0750   39.0620 C   0  0  0  0  0  2  0  0  0  0  0  0
   46.7300   32.8670   39.1640 C   0  0  0  0  0  2  0  0  0  0  0  0
   44.6650   36.8110   43.1570 N   0  0  0  0  0  0  0  0  0  0  0  0
   44.2360   36.9050   42.2420 H   0  0  0  0  0  0  0  0  0  0  0  0
   44.7160   37.7750   43.5860 H   0  0  0  0  0  0  0  0  0  0  0  0
  1  7  1  0  0  0  0
  1  6  1  0  0  0  0
  2  1  2  0  0  0  0
  3  2  1  0  0  0  0
  3  4  2  0  0  0  0
  4  5  1  0  0  0  0
  5  8  1  0  0  0  0
  5  6  2  0  0  0  0
  9 12  1  6  0  0  0
  9 10  1  0  0  0  0
  9  3  1  0  0  0  0
 10 14  1  0  0  0  0
 11 15  1  1  0  0  0
 11  9  1  0  0  0  0
 11 10  1  0  0  0  0
 13 10  1  0  0  0  0
 16 11  1  0  0  0  0
 17 18  1  0  0  0  0
 17 16  1  0  0  0  0
 18 16  1  0  0  0  0
 19 21  1  0  0  0  0
 19  2  1  0  0  0  0
 20 19  1  0  0  0  0
M  END
>  <minimizedAffinity>
-4.37727022

>  <minimizedRMSD>
0.627316594

$$$$
