
 OpenBabel03252504423D

 39 42  0  0  0  0  0  0  0  0999 V2000
   46.4150   32.2030   47.7590 C   0  0  0  0  0  0  0  0  0  0  0  0
   45.9460   31.8390   48.9850 C   0  0  0  0  0  0  0  0  0  0  0  0
   46.9220   31.1470   49.5750 N   0  0  0  0  0  0  0  0  0  0  0  0
   47.9920   31.0560   48.7780 C   0  0  0  0  0  0  0  0  0  0  0  0
   47.6630   31.7240   47.6360 N   0  0  0  0  0  0  0  0  0  0  0  0
   49.2590   30.4320   48.9560 N   0  0  0  0  0  0  0  0  0  0  0  0
   50.3240   31.2470   49.5880 C   0  0  0  0  0  0  0  0  0  0  0  0
   50.4200   30.7090   51.0150 C   0  0  0  0  0  0  0  0  0  0  0  0
   50.5000   29.2060   51.0020 C   0  0  0  0  0  0  0  0  0  0  0  0
   50.8460   28.7200   49.6040 C   0  0  0  0  0  0  0  0  0  0  0  0
   49.7510   29.1290   48.6430 C   0  0  0  0  0  0  0  0  0  0  0  0
   44.9650   32.0680   49.4000 H   0  0  0  0  0  0  0  0  0  0  0  0
   46.8980   30.7160   50.5300 H   0  0  0  0  0  0  0  0  0  0  0  0
   51.2670   31.1470   49.0390 H   0  0  0  0  0  0  0  0  0  0  0  0
   50.0110   32.3060   49.6760 H   0  0  0  0  0  0  0  0  0  0  0  0
   49.5270   31.0040   51.5700 H   0  0  0  0  0  0  0  0  0  0  0  0
   51.3500   31.1210   51.4790 H   0  0  0  0  0  0  0  0  0  0  0  0
   49.5250   28.7360   51.2480 H   0  0  0  0  0  0  0  0  0  0  0  0
   51.2700   28.8020   51.7060 H   0  0  0  0  0  0  0  0  0  0  0  0
   50.9520   27.6210   49.6140 H   0  0  0  0  0  0  0  0  0  0  0  0
   51.8070   29.1970   49.3320 H   0  0  0  0  0  0  0  0  0  0  0  0
   50.1090   29.0580   47.5930 H   0  0  0  0  0  0  0  0  0  0  0  0
   48.9310   28.3730   48.8010 H   0  0  0  0  0  0  0  0  0  0  0  0
   45.6820   32.9980   46.7290 C   0  0  0  0  0  0  0  0  0  0  0  0
   45.4860   34.0180   47.1340 H   0  0  0  0  0  0  0  0  0  0  0  0
   44.7030   32.5140   46.5020 H   0  0  0  0  0  0  0  0  0  0  0  0
   46.1270   33.8830   44.4700 C   0  0  0  0  0  3  0  0  0  0  0  0
   46.4850   33.1370   45.4970 C   0  0  0  0  0  3  0  0  0  0  0  0
   47.0190   33.9220   43.3160 C   0  0  0  0  0  0  0  0  0  0  0  0
   47.0330   35.0300   42.4240 C   0  0  0  0  0  0  0  0  0  0  0  0
   47.9050   34.9820   41.3570 C   0  0  0  0  0  0  0  0  0  0  0  0
   48.7040   33.9090   41.1900 N   0  0  0  0  0  0  0  0  0  0  0  0
   48.6730   32.8710   42.0490 C   0  0  0  0  0  0  0  0  0  0  0  0
   47.8570   32.8710   43.0820 N   0  0  0  0  0  0  0  0  0  0  0  0
   46.3590   35.8430   42.6370 H   0  0  0  0  0  0  0  0  0  0  0  0
   47.8920   35.8370   40.6970 H   0  0  0  0  0  0  0  0  0  0  0  0
   49.5740   31.7130   41.8210 C   0  0  0  0  0  3  0  0  0  0  0  0
   49.7960   30.7250   42.9310 C   0  0  0  0  0  2  0  0  0  0  0  0
   50.9010   31.6280   42.4500 C   0  0  0  0  0  2  0  0  0  0  0  0
  1  2  2  0  0  0  0
  2 12  1  0  0  0  0
  2  3  1  0  0  0  0
  3 13  1  0  0  0  0
  4  6  1  0  0  0  0
  4  3  1  0  0  0  0
  5  1  1  0  0  0  0
  5  4  2  0  0  0  0
  6  7  1  0  0  0  0
  7 15  1  0  0  0  0
  7  8  1  0  0  0  0
  8 17  1  0  0  0  0
  8 16  1  0  0  0  0
  9  8  1  0  0  0  0
  9 18  1  0  0  0  0
  9 19  1  0  0  0  0
 10 20  1  0  0  0  0
 10  9  1  0  0  0  0
 11 23  1  0  0  0  0
 11  6  1  0  0  0  0
 11 10  1  0  0  0  0
 14  7  1  0  0  0  0
 21 10  1  0  0  0  0
 22 11  1  0  0  0  0
 24 25  1  0  0  0  0
 24  1  1  0  0  0  0
 26 24  1  0  0  0  0
 27 28  2  0  0  0  0
 28 24  1  0  0  0  0
 29 27  1  0  0  0  0
 30 35  1  0  0  0  0
 30 29  2  0  0  0  0
 31 30  1  0  0  0  0
 32 31  2  0  0  0  0
 32 33  1  0  0  0  0
 33 34  2  0  0  0  0
 34 29  1  0  0  0  0
 36 31  1  0  0  0  0
 37 33  1  0  0  0  0
 37 39  1  0  0  0  0
 37 38  1  0  0  0  0
 39 38  1  0  0  0  0
M  END
>  <minimizedAffinity>
-5.56719971

>  <minimizedRMSD>
0.575407624

$$$$
