
 OpenBabel03252509233D

 21 23  0  0  1  0  0  0  0  0999 V2000
   44.6770   35.3150   45.1380 C   0  0  0  0  0  0  0  0  0  0  0  0
   45.1520   35.6750   43.8600 C   0  0  0  0  0  0  0  0  0  0  0  0
   46.1430   34.8800   43.3530 C   0  0  0  0  0  0  0  0  0  0  0  0
   46.6310   33.7960   44.0730 N   0  0  0  0  0  0  0  0  0  0  0  0
   46.1470   33.4950   45.2830 C   0  0  0  0  0  0  0  0  0  0  0  0
   45.1570   34.2650   45.8210 N   0  0  0  0  0  0  0  0  0  0  0  0
   43.8920   35.9220   45.5720 H   0  0  0  0  0  0  0  0  0  0  0  0
   46.6270   32.6300   45.7120 H   0  0  0  0  0  0  0  0  0  0  0  0
   46.6460   35.1370   41.9540 C   0  0  1  0  0  0  0  0  0  0  0  0
   48.1860   35.3090   41.9640 C   0  0  0  0  0  0  0  0  0  0  0  0
   47.4080   34.1400   41.2970 C   0  0  2  0  0  0  0  0  0  0  0  0
   46.1230   35.9510   41.4210 H   0  0  0  0  0  0  0  0  0  0  0  0
   48.5620   36.0890   41.3090 H   0  0  0  0  0  0  0  0  0  0  0  0
   48.7470   35.0860   42.8660 H   0  0  0  0  0  0  0  0  0  0  0  0
   47.5870   33.1650   41.8000 H   0  0  0  0  0  0  0  0  0  0  0  0
   47.4280   34.0920   39.7910 C   0  0  0  0  0  3  0  0  0  0  0  0
   48.2110   33.0720   39.0640 C   0  0  0  0  0  2  0  0  0  0  0  0
   46.7300   32.8680   39.1650 C   0  0  0  0  0  2  0  0  0  0  0  0
   44.6650   36.8110   43.1570 N   0  0  0  0  0  0  0  0  0  0  0  0
   44.2360   36.9040   42.2420 H   0  0  0  0  0  0  0  0  0  0  0  0
   44.7160   37.7740   43.5860 H   0  0  0  0  0  0  0  0  0  0  0  0
  1  7  1  0  0  0  0
  1  6  1  0  0  0  0
  2  1  2  0  0  0  0
  3  2  1  0  0  0  0
  3  4  2  0  0  0  0
  4  5  1  0  0  0  0
  5  8  1  0  0  0  0
  5  6  2  0  0  0  0
  9 12  1  6  0  0  0
  9 10  1  0  0  0  0
  9  3  1  0  0  0  0
 10 14  1  0  0  0  0
 11 15  1  1  0  0  0
 11  9  1  0  0  0  0
 11 10  1  0  0  0  0
 13 10  1  0  0  0  0
 16 11  1  0  0  0  0
 17 18  1  0  0  0  0
 17 16  1  0  0  0  0
 18 16  1  0  0  0  0
 19 21  1  0  0  0  0
 19  2  1  0  0  0  0
 20 19  1  0  0  0  0
M  END
>  <minimizedAffinity>
-4.37706327

>  <minimizedRMSD>
0.396310866

$$$$
