
 OpenBabel03252509163D

 19 21  0  0  0  0  0  0  0  0999 V2000
   45.8170   33.2170   46.4740 C   0  0  0  0  0  0  0  0  0  0  0  0
   45.1290   33.0880   47.7060 C   0  0  0  0  0  0  0  0  0  0  0  0
   45.5990   32.2450   48.6460 C   0  0  0  0  0  0  0  0  0  0  0  0
   46.7710   31.5100   48.3650 C   0  0  0  0  0  0  0  0  0  0  0  0
   47.2060   32.0650   46.6790 S   0  0  0  0  0  0  0  0  0  0  0  0
   44.2260   33.6690   47.8960 H   0  0  0  0  0  0  0  0  0  0  0  0
   45.1990   32.0470   49.5970 H   0  0  0  0  0  0  0  0  0  0  0  0
   44.3990   35.9450   44.3840 C   0  0  0  0  0  0  0  0  0  0  0  0
   44.7750   35.4820   43.0960 C   0  0  0  0  0  0  0  0  0  0  0  0
   45.4890   34.2700   43.0170 C   0  0  0  0  0  0  0  0  0  0  0  0
   45.7750   33.6140   44.1850 N   0  0  0  0  0  0  0  0  0  0  0  0
   45.3910   34.1040   45.3870 C   0  0  0  0  0  0  0  0  0  0  0  0
   44.7030   35.2690   45.4920 N   0  0  0  0  0  0  0  0  0  0  0  0
   43.8520   36.8740   44.4590 H   0  0  0  0  0  0  0  0  0  0  0  0
   44.5380   36.0170   42.1880 H   0  0  0  0  0  0  0  0  0  0  0  0
   45.8140   33.8440   42.0790 H   0  0  0  0  0  0  0  0  0  0  0  0
   47.5810   30.5150   49.1070 C   0  0  0  0  0  3  0  0  0  0  0  0
   48.7400   29.8560   48.3740 C   0  0  0  0  0  2  0  0  0  0  0  0
   48.9430   30.8820   49.4800 C   0  0  0  0  0  2  0  0  0  0  0  0
  1  5  1  0  0  0  0
  1  2  2  0  0  0  0
  2  6  1  0  0  0  0
  2  3  1  0  0  0  0
  3  7  1  0  0  0  0
  4  3  2  0  0  0  0
  4 17  1  0  0  0  0
  5  4  1  0  0  0  0
  8 14  1  0  0  0  0
  8 13  1  0  0  0  0
  9  8  2  0  0  0  0
 10  9  1  0  0  0  0
 10 11  2  0  0  0  0
 11 12  1  0  0  0  0
 12 13  2  0  0  0  0
 12  1  1  0  0  0  0
 15  9  1  0  0  0  0
 16 10  1  0  0  0  0
 17 19  1  0  0  0  0
 18 17  1  0  0  0  0
 18 19  1  0  0  0  0
M  END
>  <minimizedAffinity>
-4.43309355

>  <minimizedRMSD>
0.726419687

$$$$
