
 OpenBabel03252505413D

 30 33  0  0  1  0  0  0  0  0999 V2000
   43.9080   34.6620   42.3540 C   0  0  1  0  0  0  0  0  0  0  0  0
   44.1450   36.1160   41.8450 C   0  0  0  0  0  0  0  0  0  0  0  0
   43.9580   34.9320   40.9320 C   0  0  2  0  0  0  0  0  0  0  0  0
   42.9300   34.5290   42.8840 H   0  0  0  0  0  0  0  0  0  0  0  0
   43.3280   36.8090   42.0320 H   0  0  0  0  0  0  0  0  0  0  0  0
   45.1650   36.5250   41.9690 H   0  0  0  0  0  0  0  0  0  0  0  0
   44.8080   34.7370   40.2810 H   0  0  0  0  0  0  0  0  0  0  0  0
   45.0690   34.1110   43.0950 C   0  0  0  0  0  0  0  0  0  0  0  0
   46.3240   34.0050   42.4250 C   0  0  0  0  0  0  0  0  0  0  0  0
   47.4140   33.4970   43.1210 C   0  0  0  0  0  0  0  0  0  0  0  0
   47.2220   33.1260   44.4170 N   0  0  0  0  0  0  0  0  0  0  0  0
   46.0150   33.2420   45.0220 C   0  0  0  0  0  0  0  0  0  0  0  0
   44.9570   33.7350   44.3420 N   0  0  0  0  0  0  0  0  0  0  0  0
   46.4690   34.2940   41.4160 H   0  0  0  0  0  0  0  0  0  0  0  0
   48.3790   33.4040   42.6400 H   0  0  0  0  0  0  0  0  0  0  0  0
   46.0150   32.7860   46.4480 C   0  0  0  0  0  0  0  0  0  0  0  0
   45.0450   33.4210   47.1860 F   0  0  0  0  0  0  0  0  0  0  0  0
   47.2530   33.1110   47.0350 F   0  0  0  0  0  0  0  0  0  0  0  0
   45.9340   31.4100   46.4880 F   0  0  0  0  0  0  0  0  0  0  0  0
   42.6410   34.7870   40.2230 C   0  0  0  0  0  0  0  0  0  0  0  0
   42.4580   35.2500   38.9320 C   0  0  0  0  0  0  0  0  0  0  0  0
   41.2760   35.1320   38.2580 C   0  0  0  0  0  0  0  0  0  0  0  0
   40.2430   34.5320   38.8960 N   0  0  0  0  0  0  0  0  0  0  0  0
   40.4070   34.0740   40.1620 C   0  0  0  0  0  0  0  0  0  0  0  0
   41.5790   34.1920   40.8280 N   0  0  0  0  0  0  0  0  0  0  0  0
   43.3070   35.7230   38.4570 H   0  0  0  0  0  0  0  0  0  0  0  0
   41.2350   35.5250   37.2560 H   0  0  0  0  0  0  0  0  0  0  0  0
   39.2820   33.4170   40.8660 C   0  0  0  0  0  3  0  0  0  0  0  0
   38.9730   32.0240   40.2950 C   0  0  0  0  0  2  0  0  0  0  0  0
   39.4730   32.2170   41.6870 C   0  0  0  0  0  2  0  0  0  0  0  0
  1  4  1  1  0  0  0
  1  8  1  0  0  0  0
  2  6  1  0  0  0  0
  2  5  1  0  0  0  0
  2  1  1  0  0  0  0
  3  7  1  6  0  0  0
  3  2  1  0  0  0  0
  3  1  1  0  0  0  0
  8 13  1  0  0  0  0
  9  8  2  0  0  0  0
  9 10  1  0  0  0  0
 10 11  2  0  0  0  0
 11 12  1  0  0  0  0
 12 16  1  0  0  0  0
 13 12  2  0  0  0  0
 14  9  1  0  0  0  0
 15 10  1  0  0  0  0
 16 19  1  0  0  0  0
 16 18  1  0  0  0  0
 16 17  1  0  0  0  0
 20 25  1  0  0  0  0
 20  3  1  0  0  0  0
 21 20  2  0  0  0  0
 22 23  2  0  0  0  0
 22 21  1  0  0  0  0
 23 24  1  0  0  0  0
 24 25  2  0  0  0  0
 24 28  1  0  0  0  0
 26 21  1  0  0  0  0
 27 22  1  0  0  0  0
 28 30  1  0  0  0  0
 29 28  1  0  0  0  0
 29 30  1  0  0  0  0
M  END
>  <minimizedAffinity>
-5.32673454

>  <minimizedRMSD>
1.6236757

$$$$
