
 OpenBabel03242512463D

 32 34  0  0  1  0  0  0  0  0999 V2000
   37.9610   31.3470   40.8700 C   0  0  0  0  0  0  0  0  0  0  0  0
   36.5740   31.1590   40.7050 C   0  0  0  0  0  0  0  0  0  0  0  0
   36.0750   29.8660   40.9100 C   0  0  0  0  0  0  0  0  0  0  0  0
   36.9630   28.8740   41.2550 N   0  0  0  0  0  0  0  0  0  0  0  0
   38.2690   29.1230   41.3940 C   0  0  0  0  0  0  0  0  0  0  0  0
   38.7790   30.3450   41.2060 N   0  0  0  0  0  0  0  0  0  0  0  0
   39.0970   28.0010   41.7580 N   0  0  0  0  0  0  0  0  0  0  0  0
   40.4650   27.9810   41.3110 C   0  0  0  0  0  0  0  0  0  0  0  0
   41.3740   27.4420   42.3430 C   0  0  0  0  0  0  0  0  0  0  0  0
   40.8000   27.1030   43.6750 C   0  0  0  0  0  0  0  0  0  0  0  0
   39.4240   26.5570   43.6800 C   0  0  0  0  0  0  0  0  0  0  0  0
   38.5530   26.9340   42.5490 C   0  0  2  0  0  0  0  0  0  0  0  0
   35.9090   31.9800   40.4310 H   0  0  0  0  0  0  0  0  0  0  0  0
   35.0190   29.6840   40.7930 H   0  0  0  0  0  0  0  0  0  0  0  0
   40.5010   27.3830   40.3710 H   0  0  0  0  0  0  0  0  0  0  0  0
   40.7720   29.0120   40.9860 H   0  0  0  0  0  0  0  0  0  0  0  0
   42.2070   28.1670   42.5060 H   0  0  0  0  0  0  0  0  0  0  0  0
   41.8610   26.5140   41.9530 H   0  0  0  0  0  0  0  0  0  0  0  0
   40.8230   28.0100   44.3270 H   0  0  0  0  0  0  0  0  0  0  0  0
   41.4940   26.3790   44.1740 H   0  0  0  0  0  0  0  0  0  0  0  0
   38.9810   26.7590   44.6780 H   0  0  0  0  0  0  0  0  0  0  0  0
   39.5060   25.4290   43.6600 H   0  0  0  0  0  0  0  0  0  0  0  0
   37.5740   27.2800   42.9940 H   0  0  0  0  0  0  0  0  0  0  0  0
   38.2210   25.7750   41.6270 C   0  0  0  0  0  3  0  0  0  0  0  0
   38.3450   24.3730   42.0690 C   0  0  0  0  0  2  0  0  0  0  0  0
   36.9880   24.9170   41.9780 C   0  0  0  0  0  2  0  0  0  0  0  0
   38.4050   32.6180   40.6610 O   0  0  0  0  0  0  0  0  0  0  0  0
   39.7250   32.9980   40.5560 C   0  0  0  0  0  0  0  0  0  0  0  0
   40.2130   33.6820   39.6160 O   0  0  0  0  0  0  0  0  0  0  0  0
   40.7270   32.6660   41.5070 N   0  0  0  0  0  0  0  0  0  0  0  0
   41.0580   31.6750   41.7010 H   0  0  0  0  0  0  0  0  0  0  0  0
   41.3060   33.2200   42.1590 H   0  0  0  0  0  0  0  0  0  0  0  0
  1  6  1  0  0  0  0
  2  1  2  0  0  0  0
  2  3  1  0  0  0  0
  3  4  2  0  0  0  0
  4  5  1  0  0  0  0
  5  7  1  0  0  0  0
  6  5  2  0  0  0  0
  7 12  1  0  0  0  0
  8  7  1  0  0  0  0
  8  9  1  0  0  0  0
  9 17  1  0  0  0  0
  9 10  1  0  0  0  0
 10 11  1  0  0  0  0
 10 20  1  0  0  0  0
 10 19  1  0  0  0  0
 11 21  1  0  0  0  0
 12 23  1  1  0  0  0
 12 11  1  0  0  0  0
 13  2  1  0  0  0  0
 14  3  1  0  0  0  0
 15  8  1  0  0  0  0
 16  8  1  0  0  0  0
 18  9  1  0  0  0  0
 22 11  1  0  0  0  0
 24 26  1  0  0  0  0
 24 25  1  0  0  0  0
 24 12  1  0  0  0  0
 26 25  1  0  0  0  0
 27  1  1  0  0  0  0
 28 27  1  0  0  0  0
 28 30  1  0  0  0  0
 29 28  2  0  0  0  0
 30 31  1  0  0  0  0
 30 32  1  0  0  0  0
M  END
>  <minimizedAffinity>
-5.01578188

$$$$

 OpenBabel03242512463D

 32 34  0  0  1  0  0  0  0  0999 V2000
   39.0860   29.9880   38.7470 C   0  0  0  0  0  0  0  0  0  0  0  0
   39.8050   29.1340   37.8860 C   0  0  0  0  0  0  0  0  0  0  0  0
   40.1180   27.8570   38.3670 C   0  0  0  0  0  0  0  0  0  0  0  0
   39.7070   27.5220   39.6360 N   0  0  0  0  0  0  0  0  0  0  0  0
   39.0270   28.3820   40.4000 C   0  0  0  0  0  0  0  0  0  0  0  0
   38.7120   29.6100   39.9720 N   0  0  0  0  0  0  0  0  0  0  0  0
   38.6530   27.9140   41.7100 N   0  0  0  0  0  0  0  0  0  0  0  0
   38.5360   28.8720   42.7770 C   0  0  0  0  0  0  0  0  0  0  0  0
   37.3950   28.5720   43.6660 C   0  0  0  0  0  0  0  0  0  0  0  0
   36.5030   27.4360   43.3030 C   0  0  0  0  0  0  0  0  0  0  0  0
   37.1520   26.2660   42.6690 C   0  0  0  0  0  0  0  0  0  0  0  0
   38.4050   26.5160   41.9300 C   0  0  2  0  0  0  0  0  0  0  0  0
   40.1090   29.4470   36.8850 H   0  0  0  0  0  0  0  0  0  0  0  0
   40.6670   27.1760   37.7370 H   0  0  0  0  0  0  0  0  0  0  0  0
   39.5040   28.8770   43.3300 H   0  0  0  0  0  0  0  0  0  0  0  0
   38.4660   29.9090   42.3490 H   0  0  0  0  0  0  0  0  0  0  0  0
   36.7610   29.4850   43.7620 H   0  0  0  0  0  0  0  0  0  0  0  0
   37.7780   28.3670   44.6970 H   0  0  0  0  0  0  0  0  0  0  0  0
   35.6970   27.8050   42.6230 H   0  0  0  0  0  0  0  0  0  0  0  0
   35.9640   27.1120   44.2290 H   0  0  0  0  0  0  0  0  0  0  0  0
   36.3800   25.7260   42.0800 H   0  0  0  0  0  0  0  0  0  0  0  0
   37.4060   25.5320   43.4910 H   0  0  0  0  0  0  0  0  0  0  0  0
   38.2980   26.0090   40.9260 H   0  0  0  0  0  0  0  0  0  0  0  0
   39.6300   25.9100   42.5900 C   0  0  0  0  0  3  0  0  0  0  0  0
   39.6400   24.5180   43.0750 C   0  0  0  0  0  2  0  0  0  0  0  0
   40.3650   24.7860   41.8310 C   0  0  0  0  0  2  0  0  0  0  0  0
   38.8030   31.2200   38.2410 O   0  0  0  0  0  0  0  0  0  0  0  0
   39.7150   32.2350   38.0440 C   0  0  0  0  0  0  0  0  0  0  0  0
   40.1460   33.0090   38.9410 O   0  0  0  0  0  0  0  0  0  0  0  0
   40.2980   32.5470   36.7880 N   0  0  0  0  0  0  0  0  0  0  0  0
   39.7540   32.9160   35.9530 H   0  0  0  0  0  0  0  0  0  0  0  0
   41.2620   32.5040   36.4170 H   0  0  0  0  0  0  0  0  0  0  0  0
  1  6  1  0  0  0  0
  2  3  1  0  0  0  0
  2  1  2  0  0  0  0
  3  4  2  0  0  0  0
  4  5  1  0  0  0  0
  5  7  1  0  0  0  0
  6  5  2  0  0  0  0
  7 12  1  0  0  0  0
  7  8  1  0  0  0  0
  8 15  1  0  0  0  0
  8  9  1  0  0  0  0
  9 17  1  0  0  0  0
  9 18  1  0  0  0  0
 10  9  1  0  0  0  0
 10 20  1  0  0  0  0
 11 10  1  0  0  0  0
 11 22  1  0  0  0  0
 12 23  1  6  0  0  0
 12 24  1  0  0  0  0
 12 11  1  0  0  0  0
 13  2  1  0  0  0  0
 14  3  1  0  0  0  0
 16  8  1  0  0  0  0
 19 10  1  0  0  0  0
 21 11  1  0  0  0  0
 24 25  1  0  0  0  0
 26 24  1  0  0  0  0
 26 25  1  0  0  0  0
 27  1  1  0  0  0  0
 28 27  1  0  0  0  0
 28 29  2  0  0  0  0
 30 28  1  0  0  0  0
 31 30  1  0  0  0  0
 32 30  1  0  0  0  0
M  END
>  <minimizedAffinity>
-4.97392893

$$$$

 OpenBabel03242512463D

 32 34  0  0  1  0  0  0  0  0999 V2000
   37.3990   26.7530   42.2400 C   0  0  0  0  0  0  0  0  0  0  0  0
   37.4570   27.4300   43.4760 C   0  0  0  0  0  0  0  0  0  0  0  0
   37.7290   28.8040   43.4400 C   0  0  0  0  0  0  0  0  0  0  0  0
   37.9180   29.3970   42.2140 N   0  0  0  0  0  0  0  0  0  0  0  0
   37.8480   28.6940   41.0790 C   0  0  0  0  0  0  0  0  0  0  0  0
   37.5920   27.3810   41.0770 N   0  0  0  0  0  0  0  0  0  0  0  0
   38.0650   29.4290   39.8590 N   0  0  0  0  0  0  0  0  0  0  0  0
   38.6420   28.7420   38.7350 C   0  0  0  0  0  0  0  0  0  0  0  0
   38.0290   29.1610   37.4580 C   0  0  0  0  0  0  0  0  0  0  0  0
   36.8860   30.1140   37.5090 C   0  0  0  0  0  0  0  0  0  0  0  0
   36.9350   31.1450   38.5700 C   0  0  0  0  0  0  0  0  0  0  0  0
   37.7080   30.8180   39.7840 C   0  0  2  0  0  0  0  0  0  0  0  0
   37.2990   26.9130   44.4240 H   0  0  0  0  0  0  0  0  0  0  0  0
   37.7810   29.3550   44.3650 H   0  0  0  0  0  0  0  0  0  0  0  0
   39.7400   28.9350   38.7520 H   0  0  0  0  0  0  0  0  0  0  0  0
   38.5620   27.6320   38.8870 H   0  0  0  0  0  0  0  0  0  0  0  0
   37.6900   28.2540   36.9040 H   0  0  0  0  0  0  0  0  0  0  0  0
   38.8120   29.6280   36.8110 H   0  0  0  0  0  0  0  0  0  0  0  0
   35.9330   29.5400   37.6180 H   0  0  0  0  0  0  0  0  0  0  0  0
   36.8040   30.6080   36.5070 H   0  0  0  0  0  0  0  0  0  0  0  0
   35.8940   31.4760   38.7720 H   0  0  0  0  0  0  0  0  0  0  0  0
   37.4140   32.0680   38.1240 H   0  0  0  0  0  0  0  0  0  0  0  0
   37.0480   31.0660   40.6670 H   0  0  0  0  0  0  0  0  0  0  0  0
   38.9700   31.6470   39.9420 C   0  0  0  0  0  3  0  0  0  0  0  0
   38.9970   33.0850   39.6180 C   0  0  0  0  0  2  0  0  0  0  0  0
   38.9760   32.7310   41.0400 C   0  0  0  0  0  2  0  0  0  0  0  0
   37.1330   25.4200   42.3190 O   0  0  0  0  0  0  0  0  0  0  0  0
   38.0680   24.4110   42.2430 C   0  0  0  0  0  0  0  0  0  0  0  0
   39.1610   24.3830   42.8710 O   0  0  0  0  0  0  0  0  0  0  0  0
   37.9240   23.2530   41.4340 N   0  0  0  0  0  0  0  0  0  0  0  0
   37.8970   23.2670   40.3710 H   0  0  0  0  0  0  0  0  0  0  0  0
   37.8240   22.2450   41.6400 H   0  0  0  0  0  0  0  0  0  0  0  0
  1 27  1  0  0  0  0
  1  2  1  0  0  0  0
  2 13  1  0  0  0  0
  3  2  2  0  0  0  0
  3 14  1  0  0  0  0
  4  3  1  0  0  0  0
  5  4  2  0  0  0  0
  6  5  1  0  0  0  0
  6  1  2  0  0  0  0
  7  5  1  0  0  0  0
  8 15  1  0  0  0  0
  8 16  1  0  0  0  0
  8  7  1  0  0  0  0
  9 10  1  0  0  0  0
  9  8  1  0  0  0  0
 10 19  1  0  0  0  0
 10 11  1  0  0  0  0
 11 21  1  0  0  0  0
 11 12  1  0  0  0  0
 12  7  1  0  0  0  0
 12 24  1  0  0  0  0
 12 23  1  1  0  0  0
 17  9  1  0  0  0  0
 18  9  1  0  0  0  0
 20 10  1  0  0  0  0
 22 11  1  0  0  0  0
 24 26  1  0  0  0  0
 25 24  1  0  0  0  0
 25 26  1  0  0  0  0
 28 27  1  0  0  0  0
 28 29  2  0  0  0  0
 30 32  1  0  0  0  0
 30 28  1  0  0  0  0
 31 30  1  0  0  0  0
M  END
>  <minimizedAffinity>
-4.93539429

$$$$

 OpenBabel03242512463D

 32 34  0  0  1  0  0  0  0  0999 V2000
   37.9320   28.4790   40.5700 C   0  0  0  0  0  0  0  0  0  0  0  0
   38.9160   27.5990   40.0730 C   0  0  0  0  0  0  0  0  0  0  0  0
   39.9660   28.1640   39.3380 C   0  0  0  0  0  0  0  0  0  0  0  0
   39.9700   29.5270   39.1520 N   0  0  0  0  0  0  0  0  0  0  0  0
   39.0030   30.3030   39.6520 C   0  0  0  0  0  0  0  0  0  0  0  0
   37.9850   29.7970   40.3580 N   0  0  0  0  0  0  0  0  0  0  0  0
   39.1180   31.7150   39.3880 N   0  0  0  0  0  0  0  0  0  0  0  0
   37.9150   32.4960   39.2870 C   0  0  0  0  0  0  0  0  0  0  0  0
   38.0680   33.8280   39.9090 C   0  0  0  0  0  0  0  0  0  0  0  0
   39.3450   34.1300   40.6120 C   0  0  0  0  0  0  0  0  0  0  0  0
   40.5740   33.5490   40.0250 C   0  0  0  0  0  0  0  0  0  0  0  0
   40.4150   32.3130   39.2330 C   0  0  2  0  0  0  0  0  0  0  0  0
   38.8690   26.5230   40.2480 H   0  0  0  0  0  0  0  0  0  0  0  0
   40.7370   27.5230   38.9420 H   0  0  0  0  0  0  0  0  0  0  0  0
   37.6540   32.5700   38.2050 H   0  0  0  0  0  0  0  0  0  0  0  0
   37.0540   31.9280   39.7320 H   0  0  0  0  0  0  0  0  0  0  0  0
   37.2350   33.9860   40.6350 H   0  0  0  0  0  0  0  0  0  0  0  0
   37.9320   34.6150   39.1270 H   0  0  0  0  0  0  0  0  0  0  0  0
   39.2680   33.7960   41.6750 H   0  0  0  0  0  0  0  0  0  0  0  0
   39.4480   35.2440   40.6730 H   0  0  0  0  0  0  0  0  0  0  0  0
   41.3340   33.4740   40.8310 H   0  0  0  0  0  0  0  0  0  0  0  0
   41.0150   34.3220   39.3270 H   0  0  0  0  0  0  0  0  0  0  0  0
   41.1930   31.5840   39.6070 H   0  0  0  0  0  0  0  0  0  0  0  0
   40.6800   32.5030   37.7510 C   0  0  0  0  0  3  0  0  0  0  0  0
   41.8200   33.3030   37.2650 C   0  0  0  0  0  2  0  0  0  0  0  0
   41.9470   31.8470   37.1650 C   0  0  0  0  0  2  0  0  0  0  0  0
   36.9290   27.8890   41.2780 O   0  0  0  0  0  0  0  0  0  0  0  0
   36.7550   27.9740   42.6420 C   0  0  0  0  0  0  0  0  0  0  0  0
   36.2970   27.0560   43.3760 O   0  0  0  0  0  0  0  0  0  0  0  0
   37.0730   29.1220   43.4150 N   0  0  0  0  0  0  0  0  0  0  0  0
   36.5760   30.0580   43.3240 H   0  0  0  0  0  0  0  0  0  0  0  0
   37.7660   29.3160   44.1560 H   0  0  0  0  0  0  0  0  0  0  0  0
  1 27  1  0  0  0  0
  2 13  1  0  0  0  0
  2  1  2  0  0  0  0
  3  2  1  0  0  0  0
  4  3  2  0  0  0  0
  4  5  1  0  0  0  0
  5  6  2  0  0  0  0
  6  1  1  0  0  0  0
  7  5  1  0  0  0  0
  8  7  1  0  0  0  0
  8 16  1  0  0  0  0
  8  9  1  0  0  0  0
  9 10  1  0  0  0  0
  9 17  1  0  0  0  0
 10 20  1  0  0  0  0
 10 19  1  0  0  0  0
 11 10  1  0  0  0  0
 11 21  1  0  0  0  0
 12  7  1  0  0  0  0
 12 23  1  1  0  0  0
 12 11  1  0  0  0  0
 14  3  1  0  0  0  0
 15  8  1  0  0  0  0
 18  9  1  0  0  0  0
 22 11  1  0  0  0  0
 24 12  1  0  0  0  0
 25 24  1  0  0  0  0
 26 25  1  0  0  0  0
 26 24  1  0  0  0  0
 27 28  1  0  0  0  0
 28 29  2  0  0  0  0
 28 30  1  0  0  0  0
 30 32  1  0  0  0  0
 31 30  1  0  0  0  0
M  END
>  <minimizedAffinity>
-4.67867899

$$$$

 OpenBabel03242512463D

 32 34  0  0  1  0  0  0  0  0999 V2000
   36.2090   29.4030   38.7560 C   0  0  0  0  0  0  0  0  0  0  0  0
   35.2230   29.1720   37.7740 C   0  0  0  0  0  0  0  0  0  0  0  0
   34.9150   27.8370   37.4810 C   0  0  0  0  0  0  0  0  0  0  0  0
   35.5860   26.8500   38.1630 N   0  0  0  0  0  0  0  0  0  0  0  0
   36.5110   27.1410   39.0830 C   0  0  0  0  0  0  0  0  0  0  0  0
   36.8310   28.4040   39.3870 N   0  0  0  0  0  0  0  0  0  0  0  0
   37.1440   26.0190   39.7280 N   0  0  0  0  0  0  0  0  0  0  0  0
   38.5000   26.1640   40.1870 C   0  0  0  0  0  0  0  0  0  0  0  0
   38.7190   25.4870   41.4830 C   0  0  0  0  0  0  0  0  0  0  0  0
   37.5450   24.8650   42.1540 C   0  0  0  0  0  0  0  0  0  0  0  0
   36.5290   24.2500   41.2700 C   0  0  0  0  0  0  0  0  0  0  0  0
   36.4230   24.7890   39.9000 C   0  0  2  0  0  0  0  0  0  0  0  0
   34.7180   29.9910   37.2600 H   0  0  0  0  0  0  0  0  0  0  0  0
   34.1660   27.6210   36.7350 H   0  0  0  0  0  0  0  0  0  0  0  0
   39.1680   25.7630   39.3910 H   0  0  0  0  0  0  0  0  0  0  0  0
   38.7680   27.2540   40.2390 H   0  0  0  0  0  0  0  0  0  0  0  0
   39.1740   26.2130   42.1970 H   0  0  0  0  0  0  0  0  0  0  0  0
   39.4830   24.6820   41.3500 H   0  0  0  0  0  0  0  0  0  0  0  0
   37.0410   25.6270   42.7960 H   0  0  0  0  0  0  0  0  0  0  0  0
   37.9280   24.0980   42.8760 H   0  0  0  0  0  0  0  0  0  0  0  0
   35.5650   24.2280   41.8220 H   0  0  0  0  0  0  0  0  0  0  0  0
   36.7880   23.1540   41.1650 H   0  0  0  0  0  0  0  0  0  0  0  0
   35.3270   24.9860   39.7110 H   0  0  0  0  0  0  0  0  0  0  0  0
   36.8770   23.8140   38.8280 C   0  0  0  0  0  3  0  0  0  0  0  0
   36.5520   22.3770   38.9010 C   0  0  0  0  0  2  0  0  0  0  0  0
   35.7890   23.1770   37.9390 C   0  0  0  0  0  2  0  0  0  0  0  0
   36.4790   30.7130   39.0100 O   0  0  0  0  0  0  0  0  0  0  0  0
   36.5440   31.2890   40.2610 C   0  0  0  0  0  0  0  0  0  0  0  0
   37.3210   32.2260   40.5910 O   0  0  0  0  0  0  0  0  0  0  0  0
   35.7330   30.8990   41.3590 N   0  0  0  0  0  0  0  0  0  0  0  0
   35.7830   29.9460   41.8280 H   0  0  0  0  0  0  0  0  0  0  0  0
   34.9940   31.3710   41.9050 H   0  0  0  0  0  0  0  0  0  0  0  0
  1 27  1  0  0  0  0
  1  6  1  0  0  0  0
  2  1  2  0  0  0  0
  3  2  1  0  0  0  0
  3  4  2  0  0  0  0
  4  5  1  0  0  0  0
  5  6  2  0  0  0  0
  5  7  1  0  0  0  0
  7 12  1  0  0  0  0
  7  8  1  0  0  0  0
  8 16  1  0  0  0  0
  8  9  1  0  0  0  0
  9 10  1  0  0  0  0
  9 17  1  0  0  0  0
 10 19  1  0  0  0  0
 10 20  1  0  0  0  0
 11 21  1  0  0  0  0
 11 10  1  0  0  0  0
 12 23  1  6  0  0  0
 12 11  1  0  0  0  0
 13  2  1  0  0  0  0
 14  3  1  0  0  0  0
 15  8  1  0  0  0  0
 18  9  1  0  0  0  0
 22 11  1  0  0  0  0
 24 25  1  0  0  0  0
 24 12  1  0  0  0  0
 26 24  1  0  0  0  0
 26 25  1  0  0  0  0
 27 28  1  0  0  0  0
 28 29  2  0  0  0  0
 28 30  1  0  0  0  0
 30 31  1  0  0  0  0
 30 32  1  0  0  0  0
M  END
>  <minimizedAffinity>
-4.66858768

$$$$

 OpenBabel03242512463D

 32 34  0  0  1  0  0  0  0  0999 V2000
   36.7120   24.9430   39.7450 C   0  0  0  0  0  0  0  0  0  0  0  0
   36.5100   25.2510   38.3840 C   0  0  0  0  0  0  0  0  0  0  0  0
   36.5440   26.6040   38.0230 C   0  0  0  0  0  0  0  0  0  0  0  0
   36.7700   27.5340   39.0100 N   0  0  0  0  0  0  0  0  0  0  0  0
   36.9540   27.1710   40.2830 C   0  0  0  0  0  0  0  0  0  0  0  0
   36.9280   25.8890   40.6630 N   0  0  0  0  0  0  0  0  0  0  0  0
   37.1820   28.2390   41.2240 N   0  0  0  0  0  0  0  0  0  0  0  0
   36.7520   28.0600   42.5850 C   0  0  0  0  0  0  0  0  0  0  0  0
   37.7180   28.6300   43.5480 C   0  0  0  0  0  0  0  0  0  0  0  0
   38.9890   29.1920   43.0150 C   0  0  0  0  0  0  0  0  0  0  0  0
   38.9090   29.8740   41.7030 C   0  0  0  0  0  0  0  0  0  0  0  0
   37.8260   29.4490   40.7950 C   0  0  2  0  0  0  0  0  0  0  0  0
   36.3340   24.4750   37.6370 H   0  0  0  0  0  0  0  0  0  0  0  0
   36.3930   26.8780   36.9910 H   0  0  0  0  0  0  0  0  0  0  0  0
   35.7450   28.5270   42.6820 H   0  0  0  0  0  0  0  0  0  0  0  0
   36.5640   26.9710   42.7840 H   0  0  0  0  0  0  0  0  0  0  0  0
   37.9810   27.8490   44.3010 H   0  0  0  0  0  0  0  0  0  0  0  0
   37.2190   29.4450   44.1280 H   0  0  0  0  0  0  0  0  0  0  0  0
   39.7510   28.3780   42.9450 H   0  0  0  0  0  0  0  0  0  0  0  0
   39.4010   29.8980   43.7810 H   0  0  0  0  0  0  0  0  0  0  0  0
   39.9210   29.8480   41.2430 H   0  0  0  0  0  0  0  0  0  0  0  0
   38.7480   30.9750   41.9020 H   0  0  0  0  0  0  0  0  0  0  0  0
   38.3000   29.2650   39.7860 H   0  0  0  0  0  0  0  0  0  0  0  0
   36.7610   30.5090   40.5840 C   0  0  0  0  0  3  0  0  0  0  0  0
   37.1090   31.9310   40.3990 C   0  0  0  0  0  2  0  0  0  0  0  0
   36.7010   31.1920   39.2010 C   0  0  0  0  0  2  0  0  0  0  0  0
   36.6710   23.6170   40.0540 O   0  0  0  0  0  0  0  0  0  0  0  0
   37.6750   22.9080   40.6770 C   0  0  0  0  0  0  0  0  0  0  0  0
   38.1150   21.7870   40.3030 O   0  0  0  0  0  0  0  0  0  0  0  0
   38.3580   23.3520   41.8400 N   0  0  0  0  0  0  0  0  0  0  0  0
   37.8980   23.4770   42.7900 H   0  0  0  0  0  0  0  0  0  0  0  0
   39.3350   23.6270   42.0350 H   0  0  0  0  0  0  0  0  0  0  0  0
  1 27  1  0  0  0  0
  1  6  1  0  0  0  0
  2  1  2  0  0  0  0
  3  2  1  0  0  0  0
  3  4  2  0  0  0  0
  4  5  1  0  0  0  0
  5  6  2  0  0  0  0
  5  7  1  0  0  0  0
  7  8  1  0  0  0  0
  8 15  1  0  0  0  0
  8 16  1  0  0  0  0
  8  9  1  0  0  0  0
  9 18  1  0  0  0  0
  9 17  1  0  0  0  0
 10  9  1  0  0  0  0
 10 20  1  0  0  0  0
 11 22  1  0  0  0  0
 11 10  1  0  0  0  0
 12 23  1  6  0  0  0
 12  7  1  0  0  0  0
 12 11  1  0  0  0  0
 13  2  1  0  0  0  0
 14  3  1  0  0  0  0
 19 10  1  0  0  0  0
 21 11  1  0  0  0  0
 24 12  1  0  0  0  0
 25 24  1  0  0  0  0
 26 25  1  0  0  0  0
 26 24  1  0  0  0  0
 27 28  1  0  0  0  0
 28 30  1  0  0  0  0
 29 28  2  0  0  0  0
 30 32  1  0  0  0  0
 30 31  1  0  0  0  0
M  END
>  <minimizedAffinity>
-4.66850328

$$$$

 OpenBabel03242512463D

 32 34  0  0  1  0  0  0  0  0999 V2000
   36.3550   29.2780   35.0580 C   0  0  0  0  0  0  0  0  0  0  0  0
   35.5120   28.1730   35.2970 C   0  0  0  0  0  0  0  0  0  0  0  0
   35.3180   27.7950   36.6320 C   0  0  0  0  0  0  0  0  0  0  0  0
   35.9550   28.5190   37.6120 N   0  0  0  0  0  0  0  0  0  0  0  0
   36.7410   29.5580   37.3130 C   0  0  0  0  0  0  0  0  0  0  0  0
   36.9500   29.9460   36.0500 N   0  0  0  0  0  0  0  0  0  0  0  0
   37.3530   30.2360   38.4280 N   0  0  0  0  0  0  0  0  0  0  0  0
   38.6310   30.8660   38.2330 C   0  0  0  0  0  0  0  0  0  0  0  0
   38.7270   32.1530   38.9530 C   0  0  0  0  0  0  0  0  0  0  0  0
   37.5170   32.6500   39.6640 C   0  0  0  0  0  0  0  0  0  0  0  0
   36.6540   31.6240   40.2910 C   0  0  0  0  0  0  0  0  0  0  0  0
   36.6880   30.2710   39.7000 C   0  0  2  0  0  0  0  0  0  0  0  0
   35.0280   27.6300   34.4840 H   0  0  0  0  0  0  0  0  0  0  0  0
   34.6800   26.9540   36.8540 H   0  0  0  0  0  0  0  0  0  0  0  0
   39.4150   30.1460   38.5640 H   0  0  0  0  0  0  0  0  0  0  0  0
   38.8290   30.9910   37.1340 H   0  0  0  0  0  0  0  0  0  0  0  0
   39.0490   32.9460   38.2360 H   0  0  0  0  0  0  0  0  0  0  0  0
   39.5460   32.0890   39.7110 H   0  0  0  0  0  0  0  0  0  0  0  0
   36.8950   33.2510   38.9560 H   0  0  0  0  0  0  0  0  0  0  0  0
   37.8510   33.3860   40.4400 H   0  0  0  0  0  0  0  0  0  0  0  0
   35.6320   32.0500   40.3860 H   0  0  0  0  0  0  0  0  0  0  0  0
   36.9850   31.5130   41.3670 H   0  0  0  0  0  0  0  0  0  0  0  0
   35.6140   29.9540   39.5520 H   0  0  0  0  0  0  0  0  0  0  0  0
   37.3240   29.2310   40.6030 C   0  0  0  0  0  3  0  0  0  0  0  0
   37.1500   29.2650   42.0670 C   0  0  0  0  0  2  0  0  0  0  0  0
   36.3820   28.2530   41.3360 C   0  0  0  0  0  2  0  0  0  0  0  0
   36.5170   29.6120   33.7470 O   0  0  0  0  0  0  0  0  0  0  0  0
   36.3550   30.8730   33.2170 C   0  0  0  0  0  0  0  0  0  0  0  0
   35.3620   31.6250   33.4170 O   0  0  0  0  0  0  0  0  0  0  0  0
   37.2970   31.5030   32.3610 N   0  0  0  0  0  0  0  0  0  0  0  0
   37.5410   31.1570   31.3860 H   0  0  0  0  0  0  0  0  0  0  0  0
   37.8990   32.3380   32.4510 H   0  0  0  0  0  0  0  0  0  0  0  0
  1  2  2  0  0  0  0
  1  6  1  0  0  0  0
  2  3  1  0  0  0  0
  3 14  1  0  0  0  0
  3  4  2  0  0  0  0
  5  4  1  0  0  0  0
  5  7  1  0  0  0  0
  6  5  2  0  0  0  0
  7 12  1  0  0  0  0
  8  7  1  0  0  0  0
  8 15  1  0  0  0  0
  8  9  1  0  0  0  0
  9 10  1  0  0  0  0
  9 18  1  0  0  0  0
 10 11  1  0  0  0  0
 10 20  1  0  0  0  0
 11 21  1  0  0  0  0
 11 22  1  0  0  0  0
 12 23  1  6  0  0  0
 12 11  1  0  0  0  0
 12 24  1  0  0  0  0
 13  2  1  0  0  0  0
 16  8  1  0  0  0  0
 17  9  1  0  0  0  0
 19 10  1  0  0  0  0
 24 26  1  0  0  0  0
 24 25  1  0  0  0  0
 26 25  1  0  0  0  0
 27  1  1  0  0  0  0
 28 29  2  0  0  0  0
 28 27  1  0  0  0  0
 30 32  1  0  0  0  0
 30 28  1  0  0  0  0
 31 30  1  0  0  0  0
M  END
>  <minimizedAffinity>
-4.66795969

$$$$

 OpenBabel03242512463D

 32 34  0  0  1  0  0  0  0  0999 V2000
   37.7310   25.6410   41.6020 C   0  0  0  0  0  0  0  0  0  0  0  0
   37.4580   24.5460   40.7570 C   0  0  0  0  0  0  0  0  0  0  0  0
   36.6940   24.7990   39.6100 C   0  0  0  0  0  0  0  0  0  0  0  0
   36.2650   26.0860   39.3860 N   0  0  0  0  0  0  0  0  0  0  0  0
   36.5610   27.0790   40.2310 C   0  0  0  0  0  0  0  0  0  0  0  0
   37.2870   26.8730   41.3350 N   0  0  0  0  0  0  0  0  0  0  0  0
   36.0530   28.3820   39.8860 N   0  0  0  0  0  0  0  0  0  0  0  0
   35.7430   29.3030   40.9470 C   0  0  0  0  0  0  0  0  0  0  0  0
   36.1220   30.6890   40.6030 C   0  0  0  0  0  0  0  0  0  0  0  0
   36.8300   30.9220   39.3130 C   0  0  0  0  0  0  0  0  0  0  0  0
   36.4280   30.0630   38.1770 C   0  0  0  0  0  0  0  0  0  0  0  0
   35.8660   28.7390   38.5070 C   0  0  2  0  0  0  0  0  0  0  0  0
   37.8220   23.5420   40.9790 H   0  0  0  0  0  0  0  0  0  0  0  0
   36.4640   23.9860   38.9400 H   0  0  0  0  0  0  0  0  0  0  0  0
   34.6540   29.2120   41.1620 H   0  0  0  0  0  0  0  0  0  0  0  0
   36.2350   28.9640   41.8990 H   0  0  0  0  0  0  0  0  0  0  0  0
   36.7590   31.1040   41.4190 H   0  0  0  0  0  0  0  0  0  0  0  0
   35.2040   31.3270   40.5900 H   0  0  0  0  0  0  0  0  0  0  0  0
   37.9300   30.8080   39.4720 H   0  0  0  0  0  0  0  0  0  0  0  0
   36.6950   31.9990   39.0370 H   0  0  0  0  0  0  0  0  0  0  0  0
   37.2770   30.0270   37.4600 H   0  0  0  0  0  0  0  0  0  0  0  0
   35.6290   30.6160   37.5990 H   0  0  0  0  0  0  0  0  0  0  0  0
   36.4090   27.9850   37.8650 H   0  0  0  0  0  0  0  0  0  0  0  0
   34.3910   28.6060   38.1740 C   0  0  0  0  0  3  0  0  0  0  0  0
   33.8540   29.0120   36.8620 C   0  0  0  0  0  2  0  0  0  0  0  0
   33.9950   27.5730   37.0990 C   0  0  0  0  0  2  0  0  0  0  0  0
   38.4760   25.3530   42.7050 O   0  0  0  0  0  0  0  0  0  0  0  0
   39.4320   26.1730   43.2620 C   0  0  0  0  0  0  0  0  0  0  0  0
   40.5610   25.7960   43.6790 O   0  0  0  0  0  0  0  0  0  0  0  0
   39.2720   27.5720   43.4440 N   0  0  0  0  0  0  0  0  0  0  0  0
   38.5580   28.0100   44.0990 H   0  0  0  0  0  0  0  0  0  0  0  0
   39.7400   28.4040   43.0460 H   0  0  0  0  0  0  0  0  0  0  0  0
  1 27  1  0  0  0  0
  2 13  1  0  0  0  0
  2  1  2  0  0  0  0
  3  2  1  0  0  0  0
  4  3  2  0  0  0  0
  4  5  1  0  0  0  0
  5  6  2  0  0  0  0
  6  1  1  0  0  0  0
  7  5  1  0  0  0  0
  7  8  1  0  0  0  0
  8 15  1  0  0  0  0
  8 16  1  0  0  0  0
  9  8  1  0  0  0  0
  9 17  1  0  0  0  0
 10 19  1  0  0  0  0
 10  9  1  0  0  0  0
 11 12  1  0  0  0  0
 11 10  1  0  0  0  0
 12 23  1  6  0  0  0
 12  7  1  0  0  0  0
 14  3  1  0  0  0  0
 18  9  1  0  0  0  0
 20 10  1  0  0  0  0
 21 11  1  0  0  0  0
 22 11  1  0  0  0  0
 24 12  1  0  0  0  0
 25 26  1  0  0  0  0
 25 24  1  0  0  0  0
 26 24  1  0  0  0  0
 27 28  1  0  0  0  0
 28 30  1  0  0  0  0
 28 29  2  0  0  0  0
 30 31  1  0  0  0  0
 32 30  1  0  0  0  0
M  END
>  <minimizedAffinity>
-4.63517952

$$$$

 OpenBabel03242512463D

 32 34  0  0  1  0  0  0  0  0999 V2000
   40.1340   31.0570   41.4280 C   0  0  0  0  0  0  0  0  0  0  0  0
   41.2310   30.3420   41.9510 C   0  0  0  0  0  0  0  0  0  0  0  0
   41.0460   28.9760   42.1960 C   0  0  0  0  0  0  0  0  0  0  0  0
   39.8180   28.4250   41.9140 N   0  0  0  0  0  0  0  0  0  0  0  0
   38.8190   29.1630   41.4180 C   0  0  0  0  0  0  0  0  0  0  0  0
   38.9610   30.4700   41.1730 N   0  0  0  0  0  0  0  0  0  0  0  0
   37.5810   28.4710   41.1650 N   0  0  0  0  0  0  0  0  0  0  0  0
   36.3480   29.2040   41.2730 C   0  0  0  0  0  0  0  0  0  0  0  0
   35.3800   28.8140   40.2270 C   0  0  0  0  0  0  0  0  0  0  0  0
   35.8230   27.8390   39.1920 C   0  0  0  0  0  0  0  0  0  0  0  0
   36.7490   26.7750   39.6420 C   0  0  0  0  0  0  0  0  0  0  0  0
   37.5950   27.0780   40.8130 C   0  0  2  0  0  0  0  0  0  0  0  0
   42.1880   30.8260   42.1580 H   0  0  0  0  0  0  0  0  0  0  0  0
   41.8630   28.3970   42.5960 H   0  0  0  0  0  0  0  0  0  0  0  0
   35.9440   29.0310   42.2980 H   0  0  0  0  0  0  0  0  0  0  0  0
   36.5590   30.3070   41.2510 H   0  0  0  0  0  0  0  0  0  0  0  0
   35.0280   29.7320   39.7000 H   0  0  0  0  0  0  0  0  0  0  0  0
   34.4700   28.3820   40.7120 H   0  0  0  0  0  0  0  0  0  0  0  0
   36.3020   28.3910   38.3470 H   0  0  0  0  0  0  0  0  0  0  0  0
   34.9080   27.3750   38.7420 H   0  0  0  0  0  0  0  0  0  0  0  0
   37.3160   26.4190   38.7550 H   0  0  0  0  0  0  0  0  0  0  0  0
   36.1230   25.8760   39.9230 H   0  0  0  0  0  0  0  0  0  0  0  0
   38.6520   26.7900   40.5350 H   0  0  0  0  0  0  0  0  0  0  0  0
   37.2380   26.2690   42.0460 C   0  0  0  0  0  3  0  0  0  0  0  0
   36.9470   24.8250   41.9670 C   0  0  0  0  0  2  0  0  0  0  0  0
   38.2510   25.2050   42.5170 C   0  0  0  0  0  2  0  0  0  0  0  0
   40.3550   32.3820   41.2050 O   0  0  0  0  0  0  0  0  0  0  0  0
   39.5110   33.2310   40.5220 C   0  0  0  0  0  0  0  0  0  0  0  0
   38.8370   34.1610   41.0430 O   0  0  0  0  0  0  0  0  0  0  0  0
   39.2850   33.1700   39.1210 N   0  0  0  0  0  0  0  0  0  0  0  0
   38.8140   32.3540   38.6290 H   0  0  0  0  0  0  0  0  0  0  0  0
   39.4880   33.8100   38.3360 H   0  0  0  0  0  0  0  0  0  0  0  0
  1  2  1  0  0  0  0
  2 13  1  0  0  0  0
  2  3  2  0  0  0  0
  3 14  1  0  0  0  0
  4  3  1  0  0  0  0
  5  4  2  0  0  0  0
  6  5  1  0  0  0  0
  6  1  2  0  0  0  0
  7  8  1  0  0  0  0
  7  5  1  0  0  0  0
  8 15  1  0  0  0  0
  9 18  1  0  0  0  0
  9  8  1  0  0  0  0
 10 11  1  0  0  0  0
 10  9  1  0  0  0  0
 11 22  1  0  0  0  0
 11 12  1  0  0  0  0
 12 23  1  6  0  0  0
 12  7  1  0  0  0  0
 12 24  1  0  0  0  0
 16  8  1  0  0  0  0
 17  9  1  0  0  0  0
 19 10  1  0  0  0  0
 20 10  1  0  0  0  0
 21 11  1  0  0  0  0
 24 26  1  0  0  0  0
 25 24  1  0  0  0  0
 25 26  1  0  0  0  0
 27  1  1  0  0  0  0
 28 29  2  0  0  0  0
 28 27  1  0  0  0  0
 30 28  1  0  0  0  0
 31 30  1  0  0  0  0
 32 30  1  0  0  0  0
M  END
>  <minimizedAffinity>
-4.6157589

$$$$
