
 OpenBabel03252507273D

 21 23  0  0  0  0  0  0  0  0999 V2000
   37.0990   27.8180   41.2190 C   0  0  0  0  0  0  0  0  0  0  0  0
   36.5070   27.2620   40.0820 C   0  0  0  0  0  0  0  0  0  0  0  0
   36.3270   28.0920   38.9760 C   0  0  0  0  0  0  0  0  0  0  0  0
   36.7380   29.4000   39.0600 N   0  0  0  0  0  0  0  0  0  0  0  0
   37.3000   29.8800   40.1750 C   0  0  0  0  0  0  0  0  0  0  0  0
   37.4850   29.1140   41.2480 N   0  0  0  0  0  0  0  0  0  0  0  0
   36.2140   26.2410   40.0910 H   0  0  0  0  0  0  0  0  0  0  0  0
   35.8730   27.7050   38.0730 H   0  0  0  0  0  0  0  0  0  0  0  0
   37.7190   31.2820   40.2070 C   0  0  0  0  0  0  0  0  0  0  0  0
   37.0120   32.2290   39.4740 C   0  0  0  0  0  0  0  0  0  0  0  0
   37.3210   33.5750   39.4350 C   0  0  0  0  0  0  0  0  0  0  0  0
   38.4250   33.9340   40.2040 C   0  0  0  0  0  0  0  0  0  0  0  0
   39.1390   32.9970   40.9410 C   0  0  0  0  0  0  0  0  0  0  0  0
   38.7780   31.6810   40.9350 N   0  0  0  0  0  0  0  0  0  0  0  0
   36.1680   31.8580   38.9050 H   0  0  0  0  0  0  0  0  0  0  0  0
   36.7430   34.2770   38.8490 H   0  0  0  0  0  0  0  0  0  0  0  0
   38.7260   34.9620   40.2230 H   0  0  0  0  0  0  0  0  0  0  0  0
   39.9990   33.3200   41.5320 H   0  0  0  0  0  0  0  0  0  0  0  0
   37.3400   27.0170   42.4660 C   0  0  0  0  0  3  0  0  0  0  0  0
   37.8400   27.6700   43.6780 C   0  0  0  0  0  2  0  0  0  0  0  0
   36.3830   27.3490   43.6090 C   0  0  0  0  0  2  0  0  0  0  0  0
  1  6  1  0  0  0  0
  1 19  1  0  0  0  0
  2  7  1  0  0  0  0
  2  1  2  0  0  0  0
  3  4  2  0  0  0  0
  3  2  1  0  0  0  0
  4  5  1  0  0  0  0
  5  9  1  0  0  0  0
  5  6  2  0  0  0  0
  8  3  1  0  0  0  0
  9 14  1  0  0  0  0
 10  9  2  0  0  0  0
 11 10  1  0  0  0  0
 11 12  2  0  0  0  0
 12 17  1  0  0  0  0
 12 13  1  0  0  0  0
 13 18  1  0  0  0  0
 14 13  2  0  0  0  0
 15 10  1  0  0  0  0
 16 11  1  0  0  0  0
 19 21  1  0  0  0  0
 19 20  1  0  0  0  0
 21 20  1  0  0  0  0
M  END
>  <minimizedAffinity>
-4.70850468

$$$$

 OpenBabel03252507273D

 21 23  0  0  0  0  0  0  0  0999 V2000
   38.9640   28.3680   42.9650 C   0  0  0  0  0  0  0  0  0  0  0  0
   40.3450   28.1680   43.0430 C   0  0  0  0  0  0  0  0  0  0  0  0
   41.1680   29.1070   42.4220 C   0  0  0  0  0  0  0  0  0  0  0  0
   40.5860   30.1680   41.7730 N   0  0  0  0  0  0  0  0  0  0  0  0
   39.2560   30.3100   41.7310 C   0  0  0  0  0  0  0  0  0  0  0  0
   38.4420   29.4320   42.3120 N   0  0  0  0  0  0  0  0  0  0  0  0
   40.7230   27.3220   43.5620 H   0  0  0  0  0  0  0  0  0  0  0  0
   42.2440   28.9940   42.4550 H   0  0  0  0  0  0  0  0  0  0  0  0
   38.6910   31.4610   41.0250 C   0  0  0  0  0  0  0  0  0  0  0  0
   37.6100   31.2800   40.1680 C   0  0  0  0  0  0  0  0  0  0  0  0
   37.0030   32.2970   39.4550 C   0  0  0  0  0  0  0  0  0  0  0  0
   37.5630   33.5550   39.6570 C   0  0  0  0  0  0  0  0  0  0  0  0
   38.6410   33.7480   40.5110 C   0  0  0  0  0  0  0  0  0  0  0  0
   39.1940   32.6980   41.1870 N   0  0  0  0  0  0  0  0  0  0  0  0
   37.2420   30.2670   40.0720 H   0  0  0  0  0  0  0  0  0  0  0  0
   36.1640   32.1100   38.7980 H   0  0  0  0  0  0  0  0  0  0  0  0
   37.1440   34.3940   39.1370 H   0  0  0  0  0  0  0  0  0  0  0  0
   39.0510   34.7520   40.6430 H   0  0  0  0  0  0  0  0  0  0  0  0
   37.9850   27.4210   43.5960 C   0  0  0  0  0  3  0  0  0  0  0  0
   36.5550   27.5250   43.2920 C   0  0  0  0  0  2  0  0  0  0  0  0
   37.3380   26.4510   42.6100 C   0  0  0  0  0  2  0  0  0  0  0  0
  1  2  1  0  0  0  0
  1 19  1  0  0  0  0
  2  7  1  0  0  0  0
  3  8  1  0  0  0  0
  3  2  2  0  0  0  0
  4  3  1  0  0  0  0
  5  4  2  0  0  0  0
  5  6  1  0  0  0  0
  6  1  2  0  0  0  0
  9 14  1  0  0  0  0
  9  5  1  0  0  0  0
 10  9  2  0  0  0  0
 11 12  2  0  0  0  0
 11 10  1  0  0  0  0
 12 13  1  0  0  0  0
 13 18  1  0  0  0  0
 13 14  2  0  0  0  0
 15 10  1  0  0  0  0
 16 11  1  0  0  0  0
 17 12  1  0  0  0  0
 20 19  1  0  0  0  0
 21 20  1  0  0  0  0
 21 19  1  0  0  0  0
M  END
>  <minimizedAffinity>
-4.68103933

$$$$

 OpenBabel03252507273D

 21 23  0  0  0  0  0  0  0  0999 V2000
   37.8310   28.3220   42.4510 C   0  0  0  0  0  0  0  0  0  0  0  0
   36.6740   27.7260   41.9400 C   0  0  0  0  0  0  0  0  0  0  0  0
   35.9080   28.4700   41.0430 C   0  0  0  0  0  0  0  0  0  0  0  0
   36.3250   29.7350   40.7110 N   0  0  0  0  0  0  0  0  0  0  0  0
   37.4420   30.2560   41.2300 C   0  0  0  0  0  0  0  0  0  0  0  0
   38.1960   29.5730   42.0890 N   0  0  0  0  0  0  0  0  0  0  0  0
   36.4140   26.7420   42.2450 H   0  0  0  0  0  0  0  0  0  0  0  0
   35.0040   28.0490   40.6220 H   0  0  0  0  0  0  0  0  0  0  0  0
   37.8380   31.6100   40.8390 C   0  0  0  0  0  0  0  0  0  0  0  0
   37.0100   32.3560   40.0070 C   0  0  0  0  0  0  0  0  0  0  0  0
   37.2880   33.6400   39.5790 C   0  0  0  0  0  0  0  0  0  0  0  0
   38.4930   34.1560   40.0520 C   0  0  0  0  0  0  0  0  0  0  0  0
   39.3270   33.4200   40.8840 C   0  0  0  0  0  0  0  0  0  0  0  0
   38.9910   32.1540   41.2690 N   0  0  0  0  0  0  0  0  0  0  0  0
   36.0940   31.8740   39.6890 H   0  0  0  0  0  0  0  0  0  0  0  0
   36.6150   34.1840   38.9310 H   0  0  0  0  0  0  0  0  0  0  0  0
   38.7760   35.1470   39.7620 H   0  0  0  0  0  0  0  0  0  0  0  0
   40.2640   33.8610   41.2320 H   0  0  0  0  0  0  0  0  0  0  0  0
   38.7300   27.6150   43.4230 C   0  0  0  0  0  3  0  0  0  0  0  0
   38.9930   26.1810   43.2770 C   0  0  0  0  0  2  0  0  0  0  0  0
   40.0450   27.1350   42.8130 C   0  0  0  0  0  2  0  0  0  0  0  0
  1 19  1  0  0  0  0
  2  7  1  0  0  0  0
  2  1  2  0  0  0  0
  3  2  1  0  0  0  0
  4  3  2  0  0  0  0
  4  5  1  0  0  0  0
  5  6  2  0  0  0  0
  6  1  1  0  0  0  0
  8  3  1  0  0  0  0
  9  5  1  0  0  0  0
  9 14  1  0  0  0  0
 10  9  2  0  0  0  0
 11 10  1  0  0  0  0
 11 12  2  0  0  0  0
 12 13  1  0  0  0  0
 13 18  1  0  0  0  0
 13 14  2  0  0  0  0
 15 10  1  0  0  0  0
 16 11  1  0  0  0  0
 17 12  1  0  0  0  0
 20 19  1  0  0  0  0
 21 20  1  0  0  0  0
 21 19  1  0  0  0  0
M  END
>  <minimizedAffinity>
-4.62921476

$$$$

 OpenBabel03252507273D

 21 23  0  0  0  0  0  0  0  0999 V2000
   37.1270   26.7720   42.3580 C   0  0  0  0  0  0  0  0  0  0  0  0
   37.4130   27.4230   43.5610 C   0  0  0  0  0  0  0  0  0  0  0  0
   37.6960   28.7880   43.5040 C   0  0  0  0  0  0  0  0  0  0  0  0
   37.6790   29.4140   42.2830 N   0  0  0  0  0  0  0  0  0  0  0  0
   37.3980   28.7400   41.1610 C   0  0  0  0  0  0  0  0  0  0  0  0
   37.1240   27.4380   41.1810 N   0  0  0  0  0  0  0  0  0  0  0  0
   37.4080   26.8720   44.4690 H   0  0  0  0  0  0  0  0  0  0  0  0
   37.9240   29.3340   44.4110 H   0  0  0  0  0  0  0  0  0  0  0  0
   37.3950   29.4610   39.8870 C   0  0  0  0  0  0  0  0  0  0  0  0
   37.0800   30.8150   39.8630 C   0  0  0  0  0  0  0  0  0  0  0  0
   37.0480   31.5870   38.7160 C   0  0  0  0  0  0  0  0  0  0  0  0
   37.3620   30.8960   37.5490 C   0  0  0  0  0  0  0  0  0  0  0  0
   37.6780   29.5440   37.5620 C   0  0  0  0  0  0  0  0  0  0  0  0
   37.6920   28.8400   38.7310 N   0  0  0  0  0  0  0  0  0  0  0  0
   36.8490   31.2680   40.8180 H   0  0  0  0  0  0  0  0  0  0  0  0
   36.7970   32.6390   38.7440 H   0  0  0  0  0  0  0  0  0  0  0  0
   37.3570   31.4290   36.6190 H   0  0  0  0  0  0  0  0  0  0  0  0
   37.9190   29.0390   36.6230 H   0  0  0  0  0  0  0  0  0  0  0  0
   36.8090   25.3060   42.3010 C   0  0  0  0  0  3  0  0  0  0  0  0
   36.9340   24.5710   41.0400 C   0  0  0  0  0  2  0  0  0  0  0  0
   38.0250   24.4180   42.0490 C   0  0  0  0  0  2  0  0  0  0  0  0
  1  2  1  0  0  0  0
  2  7  1  0  0  0  0
  3  2  2  0  0  0  0
  3  8  1  0  0  0  0
  4  3  1  0  0  0  0
  5  6  1  0  0  0  0
  5  4  2  0  0  0  0
  6  1  2  0  0  0  0
  9  5  1  0  0  0  0
 10  9  1  0  0  0  0
 10 15  1  0  0  0  0
 11 16  1  0  0  0  0
 11 10  2  0  0  0  0
 12 13  2  0  0  0  0
 12 11  1  0  0  0  0
 13 14  1  0  0  0  0
 14  9  2  0  0  0  0
 17 12  1  0  0  0  0
 18 13  1  0  0  0  0
 19  1  1  0  0  0  0
 20 21  1  0  0  0  0
 20 19  1  0  0  0  0
 21 19  1  0  0  0  0
M  END
>  <minimizedAffinity>
-4.50351429

$$$$

 OpenBabel03252507273D

 21 23  0  0  0  0  0  0  0  0999 V2000
   38.4220   25.5730   42.5010 C   0  0  0  0  0  0  0  0  0  0  0  0
   39.5540   25.6830   43.3130 C   0  0  0  0  0  0  0  0  0  0  0  0
   40.0720   26.9600   43.5270 C   0  0  0  0  0  0  0  0  0  0  0  0
   39.4510   28.0320   42.9340 N   0  0  0  0  0  0  0  0  0  0  0  0
   38.3690   27.8680   42.1650 C   0  0  0  0  0  0  0  0  0  0  0  0
   37.8490   26.6630   41.9410 N   0  0  0  0  0  0  0  0  0  0  0  0
   39.9810   24.8080   43.7380 H   0  0  0  0  0  0  0  0  0  0  0  0
   40.9480   27.0940   44.1490 H   0  0  0  0  0  0  0  0  0  0  0  0
   37.7480   29.0470   41.5590 C   0  0  0  0  0  0  0  0  0  0  0  0
   36.4360   28.9770   41.1050 C   0  0  0  0  0  0  0  0  0  0  0  0
   35.7570   30.0290   40.5190 C   0  0  0  0  0  0  0  0  0  0  0  0
   36.4990   31.2020   40.4090 C   0  0  0  0  0  0  0  0  0  0  0  0
   37.8100   31.2830   40.8600 C   0  0  0  0  0  0  0  0  0  0  0  0
   38.4210   30.2040   41.4310 N   0  0  0  0  0  0  0  0  0  0  0  0
   35.9370   28.0240   41.2310 H   0  0  0  0  0  0  0  0  0  0  0  0
   34.7350   29.9290   40.1790 H   0  0  0  0  0  0  0  0  0  0  0  0
   36.0380   32.0610   39.9640 H   0  0  0  0  0  0  0  0  0  0  0  0
   38.3570   32.2230   40.7550 H   0  0  0  0  0  0  0  0  0  0  0  0
   37.7800   24.2490   42.2030 C   0  0  0  0  0  3  0  0  0  0  0  0
   36.8360   24.1190   41.0900 C   0  0  0  0  0  2  0  0  0  0  0  0
   38.2310   23.6250   40.8840 C   0  0  0  0  0  2  0  0  0  0  0  0
  1  2  1  0  0  0  0
  2  3  2  0  0  0  0
  2  7  1  0  0  0  0
  3  8  1  0  0  0  0
  4  3  1  0  0  0  0
  5  4  2  0  0  0  0
  6  5  1  0  0  0  0
  6  1  2  0  0  0  0
  9  5  1  0  0  0  0
 10 15  1  0  0  0  0
 10  9  2  0  0  0  0
 11 10  1  0  0  0  0
 12 11  2  0  0  0  0
 12 13  1  0  0  0  0
 13 14  2  0  0  0  0
 14  9  1  0  0  0  0
 16 11  1  0  0  0  0
 17 12  1  0  0  0  0
 18 13  1  0  0  0  0
 19  1  1  0  0  0  0
 20 19  1  0  0  0  0
 21 20  1  0  0  0  0
 21 19  1  0  0  0  0
M  END
>  <minimizedAffinity>
-4.4553957

$$$$

 OpenBabel03252507273D

 21 23  0  0  0  0  0  0  0  0999 V2000
   37.5000   30.3720   40.9430 C   0  0  0  0  0  0  0  0  0  0  0  0
   38.5530   30.6970   41.8020 C   0  0  0  0  0  0  0  0  0  0  0  0
   39.1960   29.6480   42.4580 C   0  0  0  0  0  0  0  0  0  0  0  0
   38.7660   28.3640   42.2290 N   0  0  0  0  0  0  0  0  0  0  0  0
   37.7520   28.1110   41.3950 C   0  0  0  0  0  0  0  0  0  0  0  0
   37.1170   29.0890   40.7530 N   0  0  0  0  0  0  0  0  0  0  0  0
   38.8300   31.7140   41.9300 H   0  0  0  0  0  0  0  0  0  0  0  0
   40.0180   29.8510   43.1340 H   0  0  0  0  0  0  0  0  0  0  0  0
   37.3360   26.7230   41.1890 C   0  0  0  0  0  0  0  0  0  0  0  0
   37.3240   25.8410   42.2640 C   0  0  0  0  0  0  0  0  0  0  0  0
   36.9500   24.5130   42.1800 C   0  0  0  0  0  0  0  0  0  0  0  0
   36.5730   24.1020   40.9030 C   0  0  0  0  0  0  0  0  0  0  0  0
   36.5800   24.9740   39.8220 C   0  0  0  0  0  0  0  0  0  0  0  0
   36.9620   26.2760   39.9760 N   0  0  0  0  0  0  0  0  0  0  0  0
   37.6340   26.2480   43.2180 H   0  0  0  0  0  0  0  0  0  0  0  0
   36.9570   23.8620   43.0430 H   0  0  0  0  0  0  0  0  0  0  0  0
   36.2700   23.0840   40.7600 H   0  0  0  0  0  0  0  0  0  0  0  0
   36.2770   24.6120   38.8370 H   0  0  0  0  0  0  0  0  0  0  0  0
   36.7370   31.4200   40.1850 C   0  0  0  0  0  3  0  0  0  0  0  0
   37.3390   32.7320   39.9290 C   0  0  0  0  0  2  0  0  0  0  0  0
   37.3240   31.7400   38.8120 C   0  0  0  0  0  2  0  0  0  0  0  0
  1  2  1  0  0  0  0
  2  7  1  0  0  0  0
  2  3  2  0  0  0  0
  3  8  1  0  0  0  0
  4  3  1  0  0  0  0
  5  4  2  0  0  0  0
  6  1  2  0  0  0  0
  6  5  1  0  0  0  0
  9  5  1  0  0  0  0
  9 10  1  0  0  0  0
 10 15  1  0  0  0  0
 11 10  2  0  0  0  0
 11 16  1  0  0  0  0
 12 11  1  0  0  0  0
 13 14  1  0  0  0  0
 13 12  2  0  0  0  0
 14  9  2  0  0  0  0
 17 12  1  0  0  0  0
 18 13  1  0  0  0  0
 19  1  1  0  0  0  0
 20 19  1  0  0  0  0
 21 20  1  0  0  0  0
 21 19  1  0  0  0  0
M  END
>  <minimizedAffinity>
-4.38892174

$$$$

 OpenBabel03252507273D

 21 23  0  0  0  0  0  0  0  0999 V2000
   37.5050   29.4510   42.0910 C   0  0  0  0  0  0  0  0  0  0  0  0
   36.2890   29.7170   41.4560 C   0  0  0  0  0  0  0  0  0  0  0  0
   36.2310   30.8260   40.6120 C   0  0  0  0  0  0  0  0  0  0  0  0
   37.3600   31.5900   40.4490 N   0  0  0  0  0  0  0  0  0  0  0  0
   38.4990   31.2890   41.0830 C   0  0  0  0  0  0  0  0  0  0  0  0
   38.5870   30.2380   41.8950 N   0  0  0  0  0  0  0  0  0  0  0  0
   35.4570   29.0800   41.6300 H   0  0  0  0  0  0  0  0  0  0  0  0
   35.3100   31.0710   40.0980 H   0  0  0  0  0  0  0  0  0  0  0  0
   39.6710   32.1400   40.8720 C   0  0  0  0  0  0  0  0  0  0  0  0
   39.5560   33.2900   40.0980 C   0  0  0  0  0  0  0  0  0  0  0  0
   40.5980   34.1600   39.8370 C   0  0  0  0  0  0  0  0  0  0  0  0
   41.8090   33.7990   40.4200 C   0  0  0  0  0  0  0  0  0  0  0  0
   41.9350   32.6540   41.1950 C   0  0  0  0  0  0  0  0  0  0  0  0
   40.8640   31.8360   41.4140 N   0  0  0  0  0  0  0  0  0  0  0  0
   38.5760   33.4900   39.6850 H   0  0  0  0  0  0  0  0  0  0  0  0
   40.4630   35.0440   39.2280 H   0  0  0  0  0  0  0  0  0  0  0  0
   42.6630   34.4260   40.2610 H   0  0  0  0  0  0  0  0  0  0  0  0
   42.9040   32.4050   41.6350 H   0  0  0  0  0  0  0  0  0  0  0  0
   37.6810   28.2850   43.0200 C   0  0  0  0  0  3  0  0  0  0  0  0
   36.5340   27.4490   43.3820 C   0  0  0  0  0  2  0  0  0  0  0  0
   37.4820   26.9260   42.3520 C   0  0  0  0  0  2  0  0  0  0  0  0
  1 19  1  0  0  0  0
  2  7  1  0  0  0  0
  2  1  2  0  0  0  0
  3  2  1  0  0  0  0
  4  3  2  0  0  0  0
  4  5  1  0  0  0  0
  5  6  2  0  0  0  0
  6  1  1  0  0  0  0
  8  3  1  0  0  0  0
  9  5  1  0  0  0  0
  9 14  1  0  0  0  0
 10  9  2  0  0  0  0
 11 10  1  0  0  0  0
 11 12  2  0  0  0  0
 12 13  1  0  0  0  0
 13 14  2  0  0  0  0
 13 18  1  0  0  0  0
 15 10  1  0  0  0  0
 16 11  1  0  0  0  0
 17 12  1  0  0  0  0
 19 20  1  0  0  0  0
 21 19  1  0  0  0  0
 21 20  1  0  0  0  0
M  END
>  <minimizedAffinity>
-4.36925888

$$$$

 OpenBabel03252507273D

 21 23  0  0  0  0  0  0  0  0999 V2000
   39.0780   32.8350   40.6080 C   0  0  0  0  0  0  0  0  0  0  0  0
   37.8900   33.0320   39.8990 C   0  0  0  0  0  0  0  0  0  0  0  0
   36.9240   32.0280   39.9680 C   0  0  0  0  0  0  0  0  0  0  0  0
   37.1870   30.9110   40.7220 N   0  0  0  0  0  0  0  0  0  0  0  0
   38.3440   30.7760   41.3820 C   0  0  0  0  0  0  0  0  0  0  0  0
   39.2860   31.7150   41.3360 N   0  0  0  0  0  0  0  0  0  0  0  0
   37.7570   33.9220   39.3360 H   0  0  0  0  0  0  0  0  0  0  0  0
   35.9880   32.1360   39.4350 H   0  0  0  0  0  0  0  0  0  0  0  0
   38.5690   29.5630   42.1700 C   0  0  0  0  0  0  0  0  0  0  0  0
   37.5230   29.0150   42.9040 C   0  0  0  0  0  0  0  0  0  0  0  0
   37.6290   27.8750   43.6800 C   0  0  0  0  0  0  0  0  0  0  0  0
   38.8940   27.2930   43.6770 C   0  0  0  0  0  0  0  0  0  0  0  0
   39.9460   27.8320   42.9470 C   0  0  0  0  0  0  0  0  0  0  0  0
   39.7730   28.9620   42.2010 N   0  0  0  0  0  0  0  0  0  0  0  0
   36.5760   29.5350   42.8470 H   0  0  0  0  0  0  0  0  0  0  0  0
   36.7880   27.4840   44.2350 H   0  0  0  0  0  0  0  0  0  0  0  0
   39.0530   26.4060   44.2560 H   0  0  0  0  0  0  0  0  0  0  0  0
   40.9230   27.3450   42.9720 H   0  0  0  0  0  0  0  0  0  0  0  0
   40.1850   33.8490   40.6040 C   0  0  0  0  0  3  0  0  0  0  0  0
   41.5830   33.4180   40.6860 C   0  0  0  0  0  2  0  0  0  0  0  0
   41.0520   33.8140   39.3480 C   0  0  0  0  0  2  0  0  0  0  0  0
  1  6  1  0  0  0  0
  2  3  1  0  0  0  0
  2  1  2  0  0  0  0
  3  4  2  0  0  0  0
  4  5  1  0  0  0  0
  5  9  1  0  0  0  0
  6  5  2  0  0  0  0
  7  2  1  0  0  0  0
  8  3  1  0  0  0  0
  9 14  2  0  0  0  0
  9 10  1  0  0  0  0
 10 11  2  0  0  0  0
 11 16  1  0  0  0  0
 12 11  1  0  0  0  0
 12 17  1  0  0  0  0
 13 18  1  0  0  0  0
 13 12  2  0  0  0  0
 14 13  1  0  0  0  0
 15 10  1  0  0  0  0
 19  1  1  0  0  0  0
 19 20  1  0  0  0  0
 21 19  1  0  0  0  0
 21 20  1  0  0  0  0
M  END
>  <minimizedAffinity>
-4.36263037

$$$$

 OpenBabel03252507273D

 21 23  0  0  0  0  0  0  0  0999 V2000
   37.7390   31.9530   39.5210 C   0  0  0  0  0  0  0  0  0  0  0  0
   37.2990   31.4920   38.2770 C   0  0  0  0  0  0  0  0  0  0  0  0
   37.0260   30.1300   38.1540 C   0  0  0  0  0  0  0  0  0  0  0  0
   37.2010   29.3210   39.2490 N   0  0  0  0  0  0  0  0  0  0  0  0
   37.6250   29.8170   40.4180 C   0  0  0  0  0  0  0  0  0  0  0  0
   37.8950   31.1120   40.5680 N   0  0  0  0  0  0  0  0  0  0  0  0
   37.1880   32.1780   37.4740 H   0  0  0  0  0  0  0  0  0  0  0  0
   36.6840   29.7270   37.2100 H   0  0  0  0  0  0  0  0  0  0  0  0
   37.7930   28.9070   41.5520 C   0  0  0  0  0  0  0  0  0  0  0  0
   36.6820   28.2710   42.0950 C   0  0  0  0  0  0  0  0  0  0  0  0
   36.7300   27.3950   43.1640 C   0  0  0  0  0  0  0  0  0  0  0  0
   38.0080   27.1840   43.6770 C   0  0  0  0  0  0  0  0  0  0  0  0
   39.1240   27.8130   43.1420 C   0  0  0  0  0  0  0  0  0  0  0  0
   39.0060   28.6680   42.0840 N   0  0  0  0  0  0  0  0  0  0  0  0
   35.7300   28.4960   41.6320 H   0  0  0  0  0  0  0  0  0  0  0  0
   35.8400   26.9230   43.5550 H   0  0  0  0  0  0  0  0  0  0  0  0
   38.1240   26.5170   44.5070 H   0  0  0  0  0  0  0  0  0  0  0  0
   40.1090   27.6200   43.5740 H   0  0  0  0  0  0  0  0  0  0  0  0
   38.0620   33.3990   39.7670 C   0  0  0  0  0  3  0  0  0  0  0  0
   38.8290   33.7940   40.9510 C   0  0  0  0  0  2  0  0  0  0  0  0
   39.5480   33.7300   39.6430 C   0  0  0  0  0  2  0  0  0  0  0  0
  1 19  1  0  0  0  0
  1  6  1  0  0  0  0
  2  1  2  0  0  0  0
  3  2  1  0  0  0  0
  3  4  2  0  0  0  0
  4  5  1  0  0  0  0
  5  6  2  0  0  0  0
  5  9  1  0  0  0  0
  7  2  1  0  0  0  0
  8  3  1  0  0  0  0
  9 14  2  0  0  0  0
  9 10  1  0  0  0  0
 10 11  2  0  0  0  0
 11 16  1  0  0  0  0
 11 12  1  0  0  0  0
 12 17  1  0  0  0  0
 13 18  1  0  0  0  0
 13 12  2  0  0  0  0
 14 13  1  0  0  0  0
 15 10  1  0  0  0  0
 19 20  1  0  0  0  0
 21 19  1  0  0  0  0
 21 20  1  0  0  0  0
M  END
>  <minimizedAffinity>
-4.32330227

$$$$
