
 OpenBabel03252505043D

 28 30  0  0  1  0  0  0  0  0999 V2000
   46.5090   32.7950   46.7110 C   0  0  2  0  0  0  0  0  0  0  0  0
   47.0330   31.4710   46.2620 C   0  0  0  0  0  0  0  0  0  0  0  0
   46.0910   30.3350   46.3330 C   0  0  0  0  0  0  0  0  0  0  0  0
   45.6380   30.3070   47.7880 C   0  0  0  0  0  0  0  0  0  0  0  0
   44.8230   31.4850   48.1360 C   0  0  0  0  0  0  0  0  0  0  0  0
   45.3190   32.7650   47.5470 C   0  0  0  0  0  0  0  0  0  0  0  0
   47.3170   33.3360   47.2510 H   0  0  0  0  0  0  0  0  0  0  0  0
   47.9100   31.2030   46.9060 H   0  0  0  0  0  0  0  0  0  0  0  0
   47.4670   31.5110   45.2330 H   0  0  0  0  0  0  0  0  0  0  0  0
   46.6090   29.3990   46.1360 H   0  0  0  0  0  0  0  0  0  0  0  0
   45.1860   30.4910   45.6970 H   0  0  0  0  0  0  0  0  0  0  0  0
   46.5700   30.3590   48.3890 H   0  0  0  0  0  0  0  0  0  0  0  0
   44.9980   29.4550   47.9780 H   0  0  0  0  0  0  0  0  0  0  0  0
   43.9310   31.5990   48.7370 H   0  0  0  0  0  0  0  0  0  0  0  0
   44.9650   35.0850   44.2380 C   0  0  0  0  0  0  0  0  0  0  0  0
   45.9040   35.0340   43.1750 C   0  0  0  0  0  0  0  0  0  0  0  0
   47.0460   34.2150   43.3290 C   0  0  0  0  0  0  0  0  0  0  0  0
   47.1840   33.5190   44.4860 N   0  0  0  0  0  0  0  0  0  0  0  0
   46.2780   33.5860   45.4720 C   0  0  0  0  0  0  0  0  0  0  0  0
   45.1560   34.3700   45.3620 N   0  0  0  0  0  0  0  0  0  0  0  0
   44.1080   35.7240   44.0760 H   0  0  0  0  0  0  0  0  0  0  0  0
   45.7920   35.5860   42.2630 H   0  0  0  0  0  0  0  0  0  0  0  0
   48.0700   34.1140   42.2560 C   0  0  0  0  0  0  0  0  0  0  0  0
   48.4770   35.2640   41.4540 C   0  0  0  0  0  0  0  0  0  0  0  0
   49.3550   34.8650   42.5890 C   0  0  0  0  0  0  0  0  0  0  0  0
   44.6280   33.9810   47.7980 N   0  0  0  0  0  0  0  0  0  0  0  0
   45.2840   34.6430   48.2780 H   0  0  0  0  0  0  0  0  0  0  0  0
   43.6140   34.0750   47.4980 H   0  0  0  0  0  0  0  0  0  0  0  0
  1  7  1  1  0  0  0
  1  6  1  0  0  0  0
  2  3  1  0  0  0  0
  2  1  1  0  0  0  0
  2  8  1  0  0  0  0
  3  4  1  0  0  0  0
  4 13  1  0  0  0  0
  4  5  1  0  0  0  0
  4 12  1  0  0  0  0
  5 14  1  0  0  0  0
  6 26  1  0  0  0  0
  6  5  2  0  0  0  0
  9  2  1  0  0  0  0
 10  3  1  0  0  0  0
 11  3  1  0  0  0  0
 15 20  1  0  0  0  0
 16 17  1  0  0  0  0
 16 15  2  0  0  0  0
 17 18  2  0  0  0  0
 18 19  1  0  0  0  0
 19  1  1  0  0  0  0
 20 19  2  0  0  0  0
 21 15  1  0  0  0  0
 22 16  1  0  0  0  0
 23 25  1  0  0  0  0
 23 17  1  0  0  0  0
 24 23  1  0  0  0  0
 24 25  1  0  0  0  0
 26 27  1  0  0  0  0
 28 26  1  0  0  0  0
M  END
>  <minimizedAffinity>
-6.02178478

>  <minimizedRMSD>
0.48986432

$$$$
