
 OpenBabel03252504423D

 39 42  0  0  0  0  0  0  0  0999 V2000
   46.2860   32.1980   47.8110 C   0  0  0  0  0  0  0  0  0  0  0  0
   45.8450   31.6930   48.9980 C   0  0  0  0  0  0  0  0  0  0  0  0
   46.8810   31.0570   49.5480 N   0  0  0  0  0  0  0  0  0  0  0  0
   47.9610   31.1350   48.7630 C   0  0  0  0  0  0  0  0  0  0  0  0
   47.5760   31.8560   47.6720 N   0  0  0  0  0  0  0  0  0  0  0  0
   49.2820   30.6270   48.9130 N   0  0  0  0  0  0  0  0  0  0  0  0
   50.2550   31.4900   49.6240 C   0  0  0  0  0  0  0  0  0  0  0  0
   50.3910   30.8520   51.0060 C   0  0  0  0  0  0  0  0  0  0  0  0
   50.6210   29.3700   50.8770 C   0  0  0  0  0  0  0  0  0  0  0  0
   51.0260   29.0330   49.4500 C   0  0  0  0  0  0  0  0  0  0  0  0
   49.9040   29.4080   48.5070 C   0  0  0  0  0  0  0  0  0  0  0  0
   44.8430   31.7920   49.4130 H   0  0  0  0  0  0  0  0  0  0  0  0
   46.8910   30.5510   50.4650 H   0  0  0  0  0  0  0  0  0  0  0  0
   51.2080   31.5270   49.0850 H   0  0  0  0  0  0  0  0  0  0  0  0
   49.8370   32.5020   49.7890 H   0  0  0  0  0  0  0  0  0  0  0  0
   49.4690   31.0120   51.5680 H   0  0  0  0  0  0  0  0  0  0  0  0
   51.2720   31.3160   51.5160 H   0  0  0  0  0  0  0  0  0  0  0  0
   49.6960   28.7890   51.0690 H   0  0  0  0  0  0  0  0  0  0  0  0
   51.4220   28.9900   51.5600 H   0  0  0  0  0  0  0  0  0  0  0  0
   51.2410   27.9530   49.3770 H   0  0  0  0  0  0  0  0  0  0  0  0
   51.9370   29.6230   49.2330 H   0  0  0  0  0  0  0  0  0  0  0  0
   50.2760   29.4560   47.4600 H   0  0  0  0  0  0  0  0  0  0  0  0
   49.1610   28.5640   48.5920 H   0  0  0  0  0  0  0  0  0  0  0  0
   45.4870   32.9970   46.8350 C   0  0  0  0  0  0  0  0  0  0  0  0
   45.0410   33.8700   47.3640 H   0  0  0  0  0  0  0  0  0  0  0  0
   44.6590   32.3730   46.4230 H   0  0  0  0  0  0  0  0  0  0  0  0
   46.3240   33.0230   44.5150 C   0  0  0  0  0  0  0  0  0  0  0  0
   46.3400   33.5060   45.7420 C   0  0  0  0  0  0  0  0  0  0  0  0
   47.2260   33.6230   43.5380 C   0  0  0  0  0  0  0  0  0  0  0  0
   46.8400   34.7520   42.7640 C   0  0  0  0  0  0  0  0  0  0  0  0
   47.7540   35.2520   41.8610 C   0  0  0  0  0  0  0  0  0  0  0  0
   48.9640   34.6700   41.7370 N   0  0  0  0  0  0  0  0  0  0  0  0
   49.3070   33.6010   42.4820 C   0  0  0  0  0  0  0  0  0  0  0  0
   48.4680   33.0870   43.3580 N   0  0  0  0  0  0  0  0  0  0  0  0
   45.8530   35.1510   42.9300 H   0  0  0  0  0  0  0  0  0  0  0  0
   47.4320   36.1090   41.2870 H   0  0  0  0  0  0  0  0  0  0  0  0
   50.6520   32.9960   42.3090 C   0  0  0  0  0  0  0  0  0  0  0  0
   50.9080   32.0960   41.1330 C   0  0  0  0  0  0  0  0  0  0  0  0
   50.8940   31.5630   42.5420 C   0  0  0  0  0  0  0  0  0  0  0  0
  1  2  2  0  0  0  0
  2 12  1  0  0  0  0
  2  3  1  0  0  0  0
  3 13  1  0  0  0  0
  4  6  1  0  0  0  0
  4  3  1  0  0  0  0
  5  1  1  0  0  0  0
  5  4  2  0  0  0  0
  6  7  1  0  0  0  0
  7 15  1  0  0  0  0
  7  8  1  0  0  0  0
  8 17  1  0  0  0  0
  8 16  1  0  0  0  0
  9  8  1  0  0  0  0
  9 18  1  0  0  0  0
  9 19  1  0  0  0  0
 10  9  1  0  0  0  0
 11 23  1  0  0  0  0
 11  6  1  0  0  0  0
 11 10  1  0  0  0  0
 14  7  1  0  0  0  0
 20 10  1  0  0  0  0
 21 10  1  0  0  0  0
 22 11  1  0  0  0  0
 24 25  1  0  0  0  0
 24  1  1  0  0  0  0
 26 24  1  0  0  0  0
 27 28  2  0  0  0  0
 28 24  1  0  0  0  0
 29 27  1  0  0  0  0
 30 35  1  0  0  0  0
 30 29  2  0  0  0  0
 31 30  1  0  0  0  0
 32 31  2  0  0  0  0
 32 33  1  0  0  0  0
 33 34  2  0  0  0  0
 34 29  1  0  0  0  0
 36 31  1  0  0  0  0
 37 33  1  0  0  0  0
 37 39  1  0  0  0  0
 38 37  1  0  0  0  0
 38 39  1  0  0  0  0
M  END
>  <minimizedAffinity>
-5.90147161

>  <minimizedRMSD>
0.485265374

$$$$
