
 OpenBabel03252503033D

 27 28  0  0  0  0  0  0  0  0999 V2000
   40.4990   33.3170   40.0440 C   0  0  0  0  0  0  0  0  0  0  0  0
   41.1050   32.3990   40.1360 H   0  0  0  0  0  0  0  0  0  0  0  0
   40.6620   33.9290   40.9550 H   0  0  0  0  0  0  0  0  0  0  0  0
   40.8150   34.0680   38.8330 N   0  0  0  0  0  0  0  0  0  0  0  0
   41.5080   34.8290   38.9890 H   0  0  0  0  0  0  0  0  0  0  0  0
   41.4490   33.0830   37.5740 S   0  0  0  0  0  0  0  0  0  0  0  0
   40.3750   32.4780   36.7400 O   0  0  0  0  0  0  0  0  0  0  0  0
   39.4580   32.2740   37.0060 H   0  0  0  0  0  0  0  0  0  0  0  0
   42.2980   34.0110   36.7200 O   0  0  0  0  0  0  0  0  0  0  0  0
   41.8560   34.5760   36.0420 H   0  0  0  0  0  0  0  0  0  0  0  0
   42.4540   31.9240   38.1970 O   0  0  0  0  0  0  0  0  0  0  0  0
   43.7520   32.3690   38.3650 C   0  0  0  0  0  0  0  0  0  0  0  0
   44.4900   31.5900   38.0900 H   0  0  0  0  0  0  0  0  0  0  0  0
   43.9450   33.2400   37.6800 H   0  0  0  0  0  0  0  0  0  0  0  0
   43.9890   32.6680   39.4170 H   0  0  0  0  0  0  0  0  0  0  0  0
   38.7650   32.8800   39.9520 S   0  0  0  0  0  0  0  0  0  0  0  0
   37.2350   30.8310   41.0150 C   0  0  0  0  0  0  0  0  0  0  0  0
   38.4450   31.4860   41.0590 C   0  0  0  0  0  0  0  0  0  0  0  0
   39.4580   31.0960   41.9560 C   0  0  0  0  0  0  0  0  0  0  0  0
   39.1580   30.0440   42.7610 N   0  0  0  0  0  0  0  0  0  0  0  0
   37.9670   29.4240   42.6940 C   0  0  0  0  0  0  0  0  0  0  0  0
   37.0110   29.7920   41.8480 N   0  0  0  0  0  0  0  0  0  0  0  0
   36.4930   31.1680   40.3120 H   0  0  0  0  0  0  0  0  0  0  0  0
   40.4130   31.6030   42.0000 H   0  0  0  0  0  0  0  0  0  0  0  0
   37.7170   28.2730   43.6160 C   0  0  0  0  0  3  0  0  0  0  0  0
   36.5410   27.4090   43.2760 C   0  0  0  0  0  2  0  0  0  0  0  0
   37.9020   26.8700   43.0330 C   0  0  0  0  0  2  0  0  0  0  0  0
  1  2  1  0  0  0  0
  1  3  1  0  0  0  0
  4  5  1  0  0  0  0
  4  1  1  0  0  0  0
  6 11  1  0  0  0  0
  6  4  1  0  0  0  0
  7  8  1  0  0  0  0
  7  6  1  0  0  0  0
  9  6  1  0  0  0  0
 10  9  1  0  0  0  0
 11 12  1  0  0  0  0
 12 15  1  0  0  0  0
 13 12  1  0  0  0  0
 14 12  1  0  0  0  0
 16  1  1  0  0  0  0
 16 18  1  0  0  0  0
 17 18  2  0  0  0  0
 17 22  1  0  0  0  0
 18 19  1  0  0  0  0
 19 24  1  0  0  0  0
 19 20  2  0  0  0  0
 21 20  1  0  0  0  0
 21 25  1  0  0  0  0
 22 21  2  0  0  0  0
 23 17  1  0  0  0  0
 26 25  1  0  0  0  0
 27 26  1  0  0  0  0
 27 25  1  0  0  0  0
M  END
>  <minimizedAffinity>
-5.18145132

$$$$

 OpenBabel03252503033D

 27 28  0  0  0  0  0  0  0  0999 V2000
   40.1540   31.2920   37.8290 C   0  0  0  0  0  0  0  0  0  0  0  0
   40.1490   30.2900   37.3660 H   0  0  0  0  0  0  0  0  0  0  0  0
   40.7660   31.2390   38.7540 H   0  0  0  0  0  0  0  0  0  0  0  0
   40.6500   32.3180   36.9180 N   0  0  0  0  0  0  0  0  0  0  0  0
   39.9400   33.0450   36.6890 H   0  0  0  0  0  0  0  0  0  0  0  0
   42.0240   33.1550   37.5260 S   0  0  0  0  0  0  0  0  0  0  0  0
   42.5410   34.1610   36.5580 O   0  0  0  0  0  0  0  0  0  0  0  0
   42.4570   34.1490   35.5850 H   0  0  0  0  0  0  0  0  0  0  0  0
   41.5470   33.8570   38.7870 O   0  0  0  0  0  0  0  0  0  0  0  0
   41.0710   34.7180   38.7050 H   0  0  0  0  0  0  0  0  0  0  0  0
   43.2040   32.0830   37.9710 O   0  0  0  0  0  0  0  0  0  0  0  0
   44.1310   31.8550   36.9710 C   0  0  0  0  0  0  0  0  0  0  0  0
   44.4280   30.7890   36.9240 H   0  0  0  0  0  0  0  0  0  0  0  0
   43.6770   32.0990   35.9710 H   0  0  0  0  0  0  0  0  0  0  0  0
   45.0770   32.4390   37.0990 H   0  0  0  0  0  0  0  0  0  0  0  0
   38.4820   31.7520   38.2760 S   0  0  0  0  0  0  0  0  0  0  0  0
   38.2280   29.2700   39.4780 C   0  0  0  0  0  0  0  0  0  0  0  0
   37.8620   30.5960   39.5210 C   0  0  0  0  0  0  0  0  0  0  0  0
   37.0030   31.0880   40.5230 C   0  0  0  0  0  0  0  0  0  0  0  0
   36.5710   30.1730   41.4290 N   0  0  0  0  0  0  0  0  0  0  0  0
   36.9470   28.8840   41.3610 C   0  0  0  0  0  0  0  0  0  0  0  0
   37.7570   28.4200   40.4150 N   0  0  0  0  0  0  0  0  0  0  0  0
   38.8860   28.9440   38.6920 H   0  0  0  0  0  0  0  0  0  0  0  0
   36.7080   32.1280   40.5680 H   0  0  0  0  0  0  0  0  0  0  0  0
   36.4260   27.9400   42.3980 C   0  0  0  0  0  3  0  0  0  0  0  0
   37.2650   26.7250   42.6560 C   0  0  0  0  0  2  0  0  0  0  0  0
   37.2500   27.8010   43.6790 C   0  0  0  0  0  2  0  0  0  0  0  0
  1 16  1  0  0  0  0
  1  3  1  0  0  0  0
  2  1  1  0  0  0  0
  4  6  1  0  0  0  0
  4  1  1  0  0  0  0
  5  4  1  0  0  0  0
  6 11  1  0  0  0  0
  6  9  1  0  0  0  0
  7  6  1  0  0  0  0
  8  7  1  0  0  0  0
 10  9  1  0  0  0  0
 12 15  1  0  0  0  0
 12 11  1  0  0  0  0
 13 12  1  0  0  0  0
 14 12  1  0  0  0  0
 16 18  1  0  0  0  0
 17 18  2  0  0  0  0
 17 22  1  0  0  0  0
 18 19  1  0  0  0  0
 19 24  1  0  0  0  0
 19 20  2  0  0  0  0
 21 20  1  0  0  0  0
 21 25  1  0  0  0  0
 22 21  2  0  0  0  0
 23 17  1  0  0  0  0
 25 26  1  0  0  0  0
 25 27  1  0  0  0  0
 26 27  1  0  0  0  0
M  END
>  <minimizedAffinity>
-4.75663376

$$$$

 OpenBabel03252503033D

 27 28  0  0  0  0  0  0  0  0999 V2000
   39.2910   30.7830   40.9090 C   0  0  0  0  0  0  0  0  0  0  0  0
   38.8550   30.0920   40.1660 H   0  0  0  0  0  0  0  0  0  0  0  0
   40.3720   30.8920   40.6830 H   0  0  0  0  0  0  0  0  0  0  0  0
   38.6150   32.0750   40.9240 N   0  0  0  0  0  0  0  0  0  0  0  0
   39.1620   32.8320   40.4630 H   0  0  0  0  0  0  0  0  0  0  0  0
   37.0800   32.0440   40.1480 S   0  0  0  0  0  0  0  0  0  0  0  0
   36.0340   31.4190   41.0030 O   0  0  0  0  0  0  0  0  0  0  0  0
   36.1580   30.7540   41.7070 H   0  0  0  0  0  0  0  0  0  0  0  0
   36.7260   33.4990   39.8880 O   0  0  0  0  0  0  0  0  0  0  0  0
   36.3350   34.0350   40.6190 H   0  0  0  0  0  0  0  0  0  0  0  0
   37.1910   31.2890   38.6790 O   0  0  0  0  0  0  0  0  0  0  0  0
   36.4050   30.1560   38.5940 C   0  0  0  0  0  0  0  0  0  0  0  0
   36.9200   29.3410   38.0490 H   0  0  0  0  0  0  0  0  0  0  0  0
   36.1970   29.7610   39.6270 H   0  0  0  0  0  0  0  0  0  0  0  0
   35.4340   30.3240   38.0620 H   0  0  0  0  0  0  0  0  0  0  0  0
   39.1190   30.0820   42.5480 S   0  0  0  0  0  0  0  0  0  0  0  0
   37.3920   28.1200   41.6340 C   0  0  0  0  0  0  0  0  0  0  0  0
   38.4980   28.3890   42.4070 C   0  0  0  0  0  0  0  0  0  0  0  0
   39.1730   27.3680   43.1040 C   0  0  0  0  0  0  0  0  0  0  0  0
   38.6600   26.1180   42.9590 N   0  0  0  0  0  0  0  0  0  0  0  0
   37.5770   25.8870   42.1960 C   0  0  0  0  0  0  0  0  0  0  0  0
   36.9410   26.8510   41.5400 N   0  0  0  0  0  0  0  0  0  0  0  0
   36.9110   28.9360   41.1230 H   0  0  0  0  0  0  0  0  0  0  0  0
   40.0450   27.5670   43.7140 H   0  0  0  0  0  0  0  0  0  0  0  0
   37.0750   24.4820   42.0900 C   0  0  0  0  0  3  0  0  0  0  0  0
   36.4620   24.1060   40.7750 C   0  0  0  0  0  2  0  0  0  0  0  0
   37.8040   23.5630   41.1070 C   0  0  0  0  0  2  0  0  0  0  0  0
  1  4  1  0  0  0  0
  1 16  1  0  0  0  0
  2  1  1  0  0  0  0
  3  1  1  0  0  0  0
  5  4  1  0  0  0  0
  6  4  1  0  0  0  0
  6  7  1  0  0  0  0
  7  8  1  0  0  0  0
  9  6  1  0  0  0  0
  9 10  1  0  0  0  0
 11  6  1  0  0  0  0
 12 11  1  0  0  0  0
 12 14  1  0  0  0  0
 13 12  1  0  0  0  0
 15 12  1  0  0  0  0
 17 18  1  0  0  0  0
 18 16  1  0  0  0  0
 18 19  2  0  0  0  0
 19 24  1  0  0  0  0
 20 19  1  0  0  0  0
 21 20  2  0  0  0  0
 22 17  2  0  0  0  0
 22 21  1  0  0  0  0
 23 17  1  0  0  0  0
 25 21  1  0  0  0  0
 26 27  1  0  0  0  0
 26 25  1  0  0  0  0
 27 25  1  0  0  0  0
M  END
>  <minimizedAffinity>
-4.74498463

$$$$

 OpenBabel03252503033D

 27 28  0  0  0  0  0  0  0  0999 V2000
   36.4330   31.1900   41.0950 C   0  0  0  0  0  0  0  0  0  0  0  0
   37.2920   30.8430   41.6960 H   0  0  0  0  0  0  0  0  0  0  0  0
   35.5740   31.3410   41.7810 H   0  0  0  0  0  0  0  0  0  0  0  0
   36.7390   32.4040   40.3460 N   0  0  0  0  0  0  0  0  0  0  0  0
   36.2690   33.2520   40.7260 H   0  0  0  0  0  0  0  0  0  0  0  0
   38.4200   32.7610   40.2940 S   0  0  0  0  0  0  0  0  0  0  0  0
   38.8400   33.2910   38.9680 O   0  0  0  0  0  0  0  0  0  0  0  0
   38.4220   33.1250   38.1010 H   0  0  0  0  0  0  0  0  0  0  0  0
   38.6440   33.8190   41.3620 O   0  0  0  0  0  0  0  0  0  0  0  0
   38.4470   34.7630   41.1500 H   0  0  0  0  0  0  0  0  0  0  0  0
   39.3070   31.4300   40.7200 O   0  0  0  0  0  0  0  0  0  0  0  0
   40.4230   31.7430   41.4720 C   0  0  0  0  0  0  0  0  0  0  0  0
   41.2970   31.1270   41.1830 H   0  0  0  0  0  0  0  0  0  0  0  0
   40.7180   32.8130   41.2840 H   0  0  0  0  0  0  0  0  0  0  0  0
   40.2810   31.5880   42.5710 H   0  0  0  0  0  0  0  0  0  0  0  0
   35.9950   29.9310   39.9000 S   0  0  0  0  0  0  0  0  0  0  0  0
   36.6500   28.1510   41.9170 C   0  0  0  0  0  0  0  0  0  0  0  0
   36.4140   28.3040   40.5700 C   0  0  0  0  0  0  0  0  0  0  0  0
   36.4890   27.2130   39.6820 C   0  0  0  0  0  0  0  0  0  0  0  0
   36.8070   26.0180   40.2450 N   0  0  0  0  0  0  0  0  0  0  0  0
   37.0330   25.9000   41.5650 C   0  0  0  0  0  0  0  0  0  0  0  0
   36.9620   26.9300   42.4020 N   0  0  0  0  0  0  0  0  0  0  0  0
   36.5800   29.0160   42.5530 H   0  0  0  0  0  0  0  0  0  0  0  0
   36.3050   27.3210   38.6210 H   0  0  0  0  0  0  0  0  0  0  0  0
   37.3780   24.5480   42.1050 C   0  0  0  0  0  3  0  0  0  0  0  0
   38.0760   23.6240   41.1530 C   0  0  0  0  0  2  0  0  0  0  0  0
   38.8660   24.2260   42.2570 C   0  0  0  0  0  2  0  0  0  0  0  0
  1  2  1  0  0  0  0
  1  3  1  0  0  0  0
  4  5  1  0  0  0  0
  4  1  1  0  0  0  0
  6  4  1  0  0  0  0
  6 11  1  0  0  0  0
  6  9  1  0  0  0  0
  7  6  1  0  0  0  0
  8  7  1  0  0  0  0
 10  9  1  0  0  0  0
 11 12  1  0  0  0  0
 12 15  1  0  0  0  0
 13 12  1  0  0  0  0
 14 12  1  0  0  0  0
 16 18  1  0  0  0  0
 16  1  1  0  0  0  0
 17 22  1  0  0  0  0
 17 23  1  0  0  0  0
 18 17  2  0  0  0  0
 19 20  2  0  0  0  0
 19 18  1  0  0  0  0
 20 21  1  0  0  0  0
 21 25  1  0  0  0  0
 21 22  2  0  0  0  0
 24 19  1  0  0  0  0
 25 27  1  0  0  0  0
 26 25  1  0  0  0  0
 26 27  1  0  0  0  0
M  END
>  <minimizedAffinity>
-4.613554

$$$$

 OpenBabel03252503033D

 27 28  0  0  0  0  0  0  0  0999 V2000
   36.4290   30.4900   39.4960 C   0  0  0  0  0  0  0  0  0  0  0  0
   35.8440   30.6920   38.5820 H   0  0  0  0  0  0  0  0  0  0  0  0
   37.4170   30.0870   39.1890 H   0  0  0  0  0  0  0  0  0  0  0  0
   36.5730   31.6770   40.3320 N   0  0  0  0  0  0  0  0  0  0  0  0
   36.9560   31.4710   41.2780 H   0  0  0  0  0  0  0  0  0  0  0  0
   37.6000   32.8710   39.6410 S   0  0  0  0  0  0  0  0  0  0  0  0
   38.0590   32.4930   38.2760 O   0  0  0  0  0  0  0  0  0  0  0  0
   38.1600   31.5940   37.9100 H   0  0  0  0  0  0  0  0  0  0  0  0
   36.7610   34.1360   39.5660 O   0  0  0  0  0  0  0  0  0  0  0  0
   36.1350   34.2510   38.8110 H   0  0  0  0  0  0  0  0  0  0  0  0
   38.8800   33.1820   40.6440 O   0  0  0  0  0  0  0  0  0  0  0  0
   39.3170   32.0620   41.3250 C   0  0  0  0  0  0  0  0  0  0  0  0
   39.5890   32.3000   42.3710 H   0  0  0  0  0  0  0  0  0  0  0  0
   38.4860   31.3050   41.3810 H   0  0  0  0  0  0  0  0  0  0  0  0
   40.2200   31.5850   40.8670 H   0  0  0  0  0  0  0  0  0  0  0  0
   35.5890   29.2530   40.4810 S   0  0  0  0  0  0  0  0  0  0  0  0
   37.1560   27.0500   41.0850 C   0  0  0  0  0  0  0  0  0  0  0  0
   36.8110   28.3330   41.4470 C   0  0  0  0  0  0  0  0  0  0  0  0
   37.3920   28.9610   42.5650 C   0  0  0  0  0  0  0  0  0  0  0  0
   38.3020   28.2200   43.2490 N   0  0  0  0  0  0  0  0  0  0  0  0
   38.6180   26.9690   42.8710 C   0  0  0  0  0  0  0  0  0  0  0  0
   38.0690   26.3770   41.8160 N   0  0  0  0  0  0  0  0  0  0  0  0
   36.6830   26.6150   40.2220 H   0  0  0  0  0  0  0  0  0  0  0  0
   37.1290   29.9690   42.8600 H   0  0  0  0  0  0  0  0  0  0  0  0
   39.6300   26.2210   43.6800 C   0  0  0  0  0  3  0  0  0  0  0  0
   40.1050   24.9260   43.0940 C   0  0  0  0  0  2  0  0  0  0  0  0
   41.0300   26.0870   43.0780 C   0  0  0  0  0  2  0  0  0  0  0  0
  1  4  1  0  0  0  0
  1 16  1  0  0  0  0
  2  1  1  0  0  0  0
  3  1  1  0  0  0  0
  4  5  1  0  0  0  0
  6  4  1  0  0  0  0
  6 11  1  0  0  0  0
  7  6  1  0  0  0  0
  8  7  1  0  0  0  0
  9  6  1  0  0  0  0
 10  9  1  0  0  0  0
 11 12  1  0  0  0  0
 12 14  1  0  0  0  0
 12 13  1  0  0  0  0
 15 12  1  0  0  0  0
 16 18  1  0  0  0  0
 17 18  2  0  0  0  0
 17 22  1  0  0  0  0
 18 19  1  0  0  0  0
 19 24  1  0  0  0  0
 19 20  2  0  0  0  0
 21 20  1  0  0  0  0
 21 25  1  0  0  0  0
 22 21  2  0  0  0  0
 23 17  1  0  0  0  0
 26 25  1  0  0  0  0
 27 26  1  0  0  0  0
 27 25  1  0  0  0  0
M  END
>  <minimizedAffinity>
-4.60007811

$$$$

 OpenBabel03252503033D

 27 28  0  0  0  0  0  0  0  0999 V2000
   38.0330   31.5080   37.3110 C   0  0  0  0  0  0  0  0  0  0  0  0
   38.2420   31.8980   36.2990 H   0  0  0  0  0  0  0  0  0  0  0  0
   38.9940   31.1740   37.7550 H   0  0  0  0  0  0  0  0  0  0  0  0
   37.3690   32.4960   38.1550 N   0  0  0  0  0  0  0  0  0  0  0  0
   36.4210   32.1990   38.4690 H   0  0  0  0  0  0  0  0  0  0  0  0
   38.2560   32.8740   39.5790 S   0  0  0  0  0  0  0  0  0  0  0  0
   39.1200   34.0720   39.3990 O   0  0  0  0  0  0  0  0  0  0  0  0
   39.5040   34.4100   38.5670 H   0  0  0  0  0  0  0  0  0  0  0  0
   37.2110   33.1520   40.6470 O   0  0  0  0  0  0  0  0  0  0  0  0
   36.7900   34.0450   40.6840 H   0  0  0  0  0  0  0  0  0  0  0  0
   39.1360   31.5630   40.0760 O   0  0  0  0  0  0  0  0  0  0  0  0
   38.8480   31.1790   41.3710 C   0  0  0  0  0  0  0  0  0  0  0  0
   39.7610   30.8770   41.9220 H   0  0  0  0  0  0  0  0  0  0  0  0
   38.4140   32.0490   41.9370 H   0  0  0  0  0  0  0  0  0  0  0  0
   38.1440   30.3110   41.4340 H   0  0  0  0  0  0  0  0  0  0  0  0
   36.9380   30.0970   37.1920 S   0  0  0  0  0  0  0  0  0  0  0  0
   37.9440   28.3690   39.1080 C   0  0  0  0  0  0  0  0  0  0  0  0
   36.9190   29.2260   38.7770 C   0  0  0  0  0  0  0  0  0  0  0  0
   35.8370   29.4480   39.6510 C   0  0  0  0  0  0  0  0  0  0  0  0
   35.8800   28.7660   40.8250 N   0  0  0  0  0  0  0  0  0  0  0  0
   36.8950   27.9360   41.1200 C   0  0  0  0  0  0  0  0  0  0  0  0
   37.9150   27.7260   40.2950 N   0  0  0  0  0  0  0  0  0  0  0  0
   38.7480   28.2330   38.4050 H   0  0  0  0  0  0  0  0  0  0  0  0
   35.0250   30.1190   39.4020 H   0  0  0  0  0  0  0  0  0  0  0  0
   36.8650   27.2220   42.4340 C   0  0  0  0  0  3  0  0  0  0  0  0
   38.1790   27.1150   43.1480 C   0  0  0  0  0  2  0  0  0  0  0  0
   37.1640   28.0590   43.6800 C   0  0  0  0  0  2  0  0  0  0  0  0
  1  3  1  0  0  0  0
  1  4  1  0  0  0  0
  2  1  1  0  0  0  0
  4  5  1  0  0  0  0
  4  6  1  0  0  0  0
  6 11  1  0  0  0  0
  6  9  1  0  0  0  0
  7  6  1  0  0  0  0
  8  7  1  0  0  0  0
  9 10  1  0  0  0  0
 11 12  1  0  0  0  0
 12 15  1  0  0  0  0
 12 13  1  0  0  0  0
 12 14  1  0  0  0  0
 16  1  1  0  0  0  0
 16 18  1  0  0  0  0
 17 22  1  0  0  0  0
 18 17  2  0  0  0  0
 18 19  1  0  0  0  0
 19 20  2  0  0  0  0
 20 21  1  0  0  0  0
 21 25  1  0  0  0  0
 22 21  2  0  0  0  0
 23 17  1  0  0  0  0
 24 19  1  0  0  0  0
 25 26  1  0  0  0  0
 25 27  1  0  0  0  0
 26 27  1  0  0  0  0
M  END
>  <minimizedAffinity>
-4.37586451

$$$$

 OpenBabel03252503033D

 27 28  0  0  0  0  0  0  0  0999 V2000
   37.5140   26.6910   42.5120 C   0  0  0  0  0  0  0  0  0  0  0  0
   37.4650   26.8830   41.4260 H   0  0  0  0  0  0  0  0  0  0  0  0
   36.6500   26.0510   42.7860 H   0  0  0  0  0  0  0  0  0  0  0  0
   38.7790   26.0810   42.9080 N   0  0  0  0  0  0  0  0  0  0  0  0
   38.9070   26.0320   43.9400 H   0  0  0  0  0  0  0  0  0  0  0  0
   38.9700   24.4770   42.3170 S   0  0  0  0  0  0  0  0  0  0  0  0
   39.8350   23.6530   43.2060 O   0  0  0  0  0  0  0  0  0  0  0  0
   40.5400   23.9630   43.8050 H   0  0  0  0  0  0  0  0  0  0  0  0
   37.5690   23.8890   42.2770 O   0  0  0  0  0  0  0  0  0  0  0  0
   37.1790   23.5260   43.1080 H   0  0  0  0  0  0  0  0  0  0  0  0
   39.5450   24.4980   40.7650 O   0  0  0  0  0  0  0  0  0  0  0  0
   40.6170   25.3540   40.5980 C   0  0  0  0  0  0  0  0  0  0  0  0
   40.5590   25.8990   39.6350 H   0  0  0  0  0  0  0  0  0  0  0  0
   40.6040   26.1390   41.4040 H   0  0  0  0  0  0  0  0  0  0  0  0
   41.6090   24.8360   40.6050 H   0  0  0  0  0  0  0  0  0  0  0  0
   37.3790   28.2410   43.3970 S   0  0  0  0  0  0  0  0  0  0  0  0
   38.9360   30.1470   42.1260 C   0  0  0  0  0  0  0  0  0  0  0  0
   37.6750   29.6080   42.2500 C   0  0  0  0  0  0  0  0  0  0  0  0
   36.5900   30.0980   41.4970 C   0  0  0  0  0  0  0  0  0  0  0  0
   36.8760   31.1230   40.6530 N   0  0  0  0  0  0  0  0  0  0  0  0
   38.1180   31.6290   40.5540 C   0  0  0  0  0  0  0  0  0  0  0  0
   39.1410   31.1660   41.2660 N   0  0  0  0  0  0  0  0  0  0  0  0
   39.7310   29.7370   42.7250 H   0  0  0  0  0  0  0  0  0  0  0  0
   35.5950   29.6820   41.5850 H   0  0  0  0  0  0  0  0  0  0  0  0
   38.3470   32.7580   39.6010 C   0  0  0  0  0  3  0  0  0  0  0  0
   37.2220   33.7390   39.4690 C   0  0  0  0  0  2  0  0  0  0  0  0
   38.4400   34.1610   40.2050 C   0  0  0  0  0  2  0  0  0  0  0  0
  1  3  1  0  0  0  0
  1  4  1  0  0  0  0
  1 16  1  0  0  0  0
  2  1  1  0  0  0  0
  4  5  1  0  0  0  0
  6  4  1  0  0  0  0
  6  7  1  0  0  0  0
  7  8  1  0  0  0  0
  9  6  1  0  0  0  0
  9 10  1  0  0  0  0
 11  6  1  0  0  0  0
 12 15  1  0  0  0  0
 12 11  1  0  0  0  0
 12 14  1  0  0  0  0
 13 12  1  0  0  0  0
 17 18  1  0  0  0  0
 17 23  1  0  0  0  0
 18 16  1  0  0  0  0
 19 24  1  0  0  0  0
 19 18  2  0  0  0  0
 20 19  1  0  0  0  0
 21 20  2  0  0  0  0
 21 22  1  0  0  0  0
 22 17  2  0  0  0  0
 25 27  1  0  0  0  0
 25 21  1  0  0  0  0
 26 25  1  0  0  0  0
 26 27  1  0  0  0  0
M  END
>  <minimizedAffinity>
-4.33747578

$$$$

 OpenBabel03252503033D

 27 28  0  0  0  0  0  0  0  0999 V2000
   37.0380   31.5170   38.7760 C   0  0  0  0  0  0  0  0  0  0  0  0
   36.0360   31.7010   38.3520 H   0  0  0  0  0  0  0  0  0  0  0  0
   37.3870   30.5270   38.4180 H   0  0  0  0  0  0  0  0  0  0  0  0
   37.9840   32.5730   38.4310 N   0  0  0  0  0  0  0  0  0  0  0  0
   38.0810   33.2990   39.1720 H   0  0  0  0  0  0  0  0  0  0  0  0
   39.5690   31.9850   38.1180 S   0  0  0  0  0  0  0  0  0  0  0  0
   39.6610   30.5080   38.2800 O   0  0  0  0  0  0  0  0  0  0  0  0
   39.1090   29.9360   38.8460 H   0  0  0  0  0  0  0  0  0  0  0  0
   39.8650   32.3600   36.6750 O   0  0  0  0  0  0  0  0  0  0  0  0
   39.5200   31.7850   35.9500 H   0  0  0  0  0  0  0  0  0  0  0  0
   40.6740   32.7670   39.0710 O   0  0  0  0  0  0  0  0  0  0  0  0
   40.6820   32.3100   40.3740 C   0  0  0  0  0  0  0  0  0  0  0  0
   40.8040   33.1390   41.0980 H   0  0  0  0  0  0  0  0  0  0  0  0
   39.6940   31.8280   40.6130 H   0  0  0  0  0  0  0  0  0  0  0  0
   41.5070   31.5840   40.5890 H   0  0  0  0  0  0  0  0  0  0  0  0
   36.9320   31.4730   40.5630 S   0  0  0  0  0  0  0  0  0  0  0  0
   38.5480   29.4420   41.5280 C   0  0  0  0  0  0  0  0  0  0  0  0
   37.2760   29.7920   41.1360 C   0  0  0  0  0  0  0  0  0  0  0  0
   36.2160   28.8650   41.1700 C   0  0  0  0  0  0  0  0  0  0  0  0
   36.5360   27.6210   41.6100 N   0  0  0  0  0  0  0  0  0  0  0  0
   37.7890   27.3080   41.9850 C   0  0  0  0  0  0  0  0  0  0  0  0
   38.7890   28.1830   41.9530 N   0  0  0  0  0  0  0  0  0  0  0  0
   39.3230   30.1870   41.4830 H   0  0  0  0  0  0  0  0  0  0  0  0
   35.2110   29.1290   40.8650 H   0  0  0  0  0  0  0  0  0  0  0  0
   38.0580   25.9150   42.4570 C   0  0  0  0  0  3  0  0  0  0  0  0
   37.0260   24.8910   42.0920 C   0  0  0  0  0  2  0  0  0  0  0  0
   38.3280   24.8620   41.3800 C   0  0  0  0  0  2  0  0  0  0  0  0
  1 16  1  0  0  0  0
  2  1  1  0  0  0  0
  3  1  1  0  0  0  0
  4  1  1  0  0  0  0
  4  5  1  0  0  0  0
  6  7  1  0  0  0  0
  6  4  1  0  0  0  0
  6 11  1  0  0  0  0
  7  8  1  0  0  0  0
  9  6  1  0  0  0  0
 10  9  1  0  0  0  0
 11 12  1  0  0  0  0
 12 15  1  0  0  0  0
 12 14  1  0  0  0  0
 12 13  1  0  0  0  0
 16 18  1  0  0  0  0
 17 22  1  0  0  0  0
 18 19  1  0  0  0  0
 18 17  2  0  0  0  0
 19 20  2  0  0  0  0
 20 21  1  0  0  0  0
 21 25  1  0  0  0  0
 22 21  2  0  0  0  0
 23 17  1  0  0  0  0
 24 19  1  0  0  0  0
 26 25  1  0  0  0  0
 27 26  1  0  0  0  0
 27 25  1  0  0  0  0
M  END
>  <minimizedAffinity>
-4.25956631

$$$$

 OpenBabel03252503033D

 27 28  0  0  0  0  0  0  0  0999 V2000
   38.6920   29.3960   41.0200 C   0  0  0  0  0  0  0  0  0  0  0  0
   38.0280   28.9570   40.2550 H   0  0  0  0  0  0  0  0  0  0  0  0
   39.7020   29.5070   40.5740 H   0  0  0  0  0  0  0  0  0  0  0  0
   38.1870   30.6680   41.5250 N   0  0  0  0  0  0  0  0  0  0  0  0
   38.8970   31.4300   41.5050 H   0  0  0  0  0  0  0  0  0  0  0  0
   36.8250   31.2490   40.6510 S   0  0  0  0  0  0  0  0  0  0  0  0
   35.5450   30.9720   41.3590 O   0  0  0  0  0  0  0  0  0  0  0  0
   35.3580   30.2530   41.9910 H   0  0  0  0  0  0  0  0  0  0  0  0
   37.0290   32.7500   40.5300 O   0  0  0  0  0  0  0  0  0  0  0  0
   36.7770   33.3300   41.2890 H   0  0  0  0  0  0  0  0  0  0  0  0
   36.8130   30.6250   39.1170 O   0  0  0  0  0  0  0  0  0  0  0  0
   37.2700   31.5190   38.1680 C   0  0  0  0  0  0  0  0  0  0  0  0
   36.6760   31.4630   37.2340 H   0  0  0  0  0  0  0  0  0  0  0  0
   37.1550   32.5700   38.5510 H   0  0  0  0  0  0  0  0  0  0  0  0
   38.3360   31.3490   37.8710 H   0  0  0  0  0  0  0  0  0  0  0  0
   38.8060   28.2840   42.4190 S   0  0  0  0  0  0  0  0  0  0  0  0
   39.4740   25.6250   42.0250 C   0  0  0  0  0  0  0  0  0  0  0  0
   38.5070   26.5900   41.8570 C   0  0  0  0  0  0  0  0  0  0  0  0
   37.2710   26.2940   41.2510 C   0  0  0  0  0  0  0  0  0  0  0  0
   37.1060   25.0060   40.8510 N   0  0  0  0  0  0  0  0  0  0  0  0
   38.0690   24.0850   41.0290 C   0  0  0  0  0  0  0  0  0  0  0  0
   39.2350   24.3660   41.6010 N   0  0  0  0  0  0  0  0  0  0  0  0
   40.4020   25.9030   42.4940 H   0  0  0  0  0  0  0  0  0  0  0  0
   36.5030   27.0440   41.1140 H   0  0  0  0  0  0  0  0  0  0  0  0
   37.8070   22.6900   40.5590 C   0  0  0  0  0  3  0  0  0  0  0  0
   36.9310   22.5610   39.3510 C   0  0  0  0  0  2  0  0  0  0  0  0
   38.3840   22.3010   39.1970 C   0  0  0  0  0  2  0  0  0  0  0  0
  1  4  1  0  0  0  0
  1 16  1  0  0  0  0
  2  1  1  0  0  0  0
  3  1  1  0  0  0  0
  5  4  1  0  0  0  0
  6  7  1  0  0  0  0
  6  4  1  0  0  0  0
  7  8  1  0  0  0  0
  9  6  1  0  0  0  0
  9 10  1  0  0  0  0
 11  6  1  0  0  0  0
 12 14  1  0  0  0  0
 12 11  1  0  0  0  0
 13 12  1  0  0  0  0
 15 12  1  0  0  0  0
 17 23  1  0  0  0  0
 18 17  1  0  0  0  0
 18 16  1  0  0  0  0
 19 18  2  0  0  0  0
 20 21  2  0  0  0  0
 20 19  1  0  0  0  0
 21 22  1  0  0  0  0
 22 17  2  0  0  0  0
 24 19  1  0  0  0  0
 25 21  1  0  0  0  0
 26 25  1  0  0  0  0
 27 26  1  0  0  0  0
 27 25  1  0  0  0  0
M  END
>  <minimizedAffinity>
-4.25153112

$$$$
