
 OpenBabel03242516403D

 20 21  0  0  0  0  0  0  0  0999 V2000
   44.9230   35.0790   44.1850 C   0  0  0  0  0  0  0  0  0  0  0  0
   45.8460   35.2480   43.1430 C   0  0  0  0  0  0  0  0  0  0  0  0
   47.0150   34.4950   43.1530 C   0  0  0  0  0  0  0  0  0  0  0  0
   47.1760   33.6460   44.1840 N   0  0  0  0  0  0  0  0  0  0  0  0
   46.2860   33.4940   45.1750 C   0  0  0  0  0  0  0  0  0  0  0  0
   45.1460   34.2190   45.1760 N   0  0  0  0  0  0  0  0  0  0  0  0
   43.7210   35.8490   44.1730 N   0  0  0  0  0  0  0  0  0  0  0  0
   45.6340   35.9590   42.3490 H   0  0  0  0  0  0  0  0  0  0  0  0
   46.4680   32.8050   45.9650 H   0  0  0  0  0  0  0  0  0  0  0  0
   43.6770   36.8990   44.0800 H   0  0  0  0  0  0  0  0  0  0  0  0
   42.8770   35.2210   44.2680 H   0  0  0  0  0  0  0  0  0  0  0  0
   47.9950   34.6740   42.0450 C   0  0  0  0  0  0  0  0  0  0  0  0
   47.9180   33.7980   41.3360 H   0  0  0  0  0  0  0  0  0  0  0  0
   47.7400   35.5600   41.4720 H   0  0  0  0  0  0  0  0  0  0  0  0
   49.3770   34.6490   42.6290 C   0  0  0  0  0  0  0  0  0  0  0  0
   49.8730   35.6130   42.4490 H   0  0  0  0  0  0  0  0  0  0  0  0
   49.2660   34.4100   43.7170 H   0  0  0  0  0  0  0  0  0  0  0  0
   50.1670   33.5080   41.9880 C   0  0  0  0  0  0  0  0  0  0  0  0
   49.8320   32.1230   42.4330 C   0  0  0  0  0  0  0  0  0  0  0  0
   49.5380   32.6040   41.0210 C   0  0  0  0  0  0  0  0  0  0  0  0
  1  6  1  0  0  0  0
  2  3  1  0  0  0  0
  2  1  2  0  0  0  0
  3  4  2  0  0  0  0
  4  5  1  0  0  0  0
  5  6  2  0  0  0  0
  5  9  1  0  0  0  0
  7  1  1  0  0  0  0
  7 11  1  0  0  0  0
  8  2  1  0  0  0  0
 10  7  1  0  0  0  0
 12 15  1  0  0  0  0
 12  3  1  0  0  0  0
 13 12  1  0  0  0  0
 14 12  1  0  0  0  0
 15 17  1  0  0  0  0
 16 15  1  0  0  0  0
 18 19  1  0  0  0  0
 18 15  1  0  0  0  0
 20 18  1  0  0  0  0
 20 19  1  0  0  0  0
M  END
>  <minimizedAffinity>
-4.15025282

>  <minimizedRMSD>
2.22457457

$$$$
