
 OpenBabel03252509213D

 19 21  0  0  0  0  0  0  0  0999 V2000
   45.2730   34.4200   45.1830 C   0  0  0  0  0  0  0  0  0  0  0  0
   46.0180   34.5180   43.9820 C   0  0  0  0  0  0  0  0  0  0  0  0
   47.0440   33.5820   43.8550 C   0  0  0  0  0  0  0  0  0  0  0  0
   47.2880   32.6440   44.8410 N   0  0  0  0  0  0  0  0  0  0  0  0
   46.5400   32.6050   45.9580 C   0  0  0  0  0  0  0  0  0  0  0  0
   45.5430   33.4890   46.1200 N   0  0  0  0  0  0  0  0  0  0  0  0
   44.4770   35.1170   45.3250 H   0  0  0  0  0  0  0  0  0  0  0  0
   46.8730   31.8110   46.6100 H   0  0  0  0  0  0  0  0  0  0  0  0
   47.8150   33.5870   42.5550 C   0  0  0  0  0  0  0  0  0  0  0  0
   49.1890   34.2460   42.7320 C   0  0  0  0  0  0  0  0  0  0  0  0
   48.9640   32.7240   42.4560 C   0  0  0  0  0  0  0  0  0  0  0  0
   47.2810   34.1330   41.7640 H   0  0  0  0  0  0  0  0  0  0  0  0
   49.6110   34.8300   41.9070 H   0  0  0  0  0  0  0  0  0  0  0  0
   49.4960   34.5080   43.7440 H   0  0  0  0  0  0  0  0  0  0  0  0
   49.3070   32.4190   41.4290 H   0  0  0  0  0  0  0  0  0  0  0  0
   49.3260   32.0730   43.2610 H   0  0  0  0  0  0  0  0  0  0  0  0
   45.7600   35.5140   42.9330 C   0  0  0  0  0  3  0  0  0  0  0  0
   44.3260   35.5280   42.4430 C   0  0  0  0  0  2  0  0  0  0  0  0
   44.9070   36.7000   43.1910 C   0  0  0  0  0  2  0  0  0  0  0  0
  1  7  1  0  0  0  0
  1  6  1  0  0  0  0
  2  1  2  0  0  0  0
  3  2  1  0  0  0  0
  3  4  2  0  0  0  0
  4  5  1  0  0  0  0
  5  6  2  0  0  0  0
  5  8  1  0  0  0  0
  9 10  1  0  0  0  0
  9  3  1  0  0  0  0
 10 14  1  0  0  0  0
 11  9  1  0  0  0  0
 11 10  1  0  0  0  0
 11 16  1  0  0  0  0
 12  9  1  0  0  0  0
 13 10  1  0  0  0  0
 15 11  1  0  0  0  0
 17 19  1  0  0  0  0
 17  2  1  0  0  0  0
 18 17  1  0  0  0  0
 18 19  1  0  0  0  0
M  END
>  <minimizedAffinity>
-3.75148439

>  <minimizedRMSD>
1.83061528

$$$$
