
 OpenBabel03242512443D

 32 34  0  0  1  0  0  0  0  0999 V2000
   45.6260   34.3450   45.0390 C   0  0  0  0  0  0  0  0  0  0  0  0
   46.4290   34.0550   43.9160 C   0  0  0  0  0  0  0  0  0  0  0  0
   47.2430   32.9170   43.9890 C   0  0  0  0  0  0  0  0  0  0  0  0
   47.2070   32.1650   45.1390 N   0  0  0  0  0  0  0  0  0  0  0  0
   46.4210   32.4980   46.1670 C   0  0  0  0  0  0  0  0  0  0  0  0
   45.6310   33.5770   46.1320 N   0  0  0  0  0  0  0  0  0  0  0  0
   46.4720   31.6300   47.3170 N   0  0  0  0  0  0  0  0  0  0  0  0
   46.2260   32.1940   48.6170 C   0  0  0  0  0  0  0  0  0  0  0  0
   45.4370   31.2840   49.4730 C   0  0  0  0  0  0  0  0  0  0  0  0
   44.9400   30.0140   48.8750 C   0  0  0  0  0  0  0  0  0  0  0  0
   45.8270   29.3610   47.8850 C   0  0  0  0  0  0  0  0  0  0  0  0
   46.7640   30.2340   47.1500 C   0  0  2  0  0  0  0  0  0  0  0  0
   46.4220   34.6850   43.0250 H   0  0  0  0  0  0  0  0  0  0  0  0
   47.8710   32.6640   43.1500 H   0  0  0  0  0  0  0  0  0  0  0  0
   47.2150   32.4370   49.0690 H   0  0  0  0  0  0  0  0  0  0  0  0
   45.7270   33.1950   48.5080 H   0  0  0  0  0  0  0  0  0  0  0  0
   44.5550   31.8380   49.8740 H   0  0  0  0  0  0  0  0  0  0  0  0
   46.0450   31.0050   50.3690 H   0  0  0  0  0  0  0  0  0  0  0  0
   43.9480   30.1970   48.3940 H   0  0  0  0  0  0  0  0  0  0  0  0
   44.7210   29.3020   49.7110 H   0  0  0  0  0  0  0  0  0  0  0  0
   45.1960   28.7220   47.2310 H   0  0  0  0  0  0  0  0  0  0  0  0
   46.4610   28.6080   48.4420 H   0  0  0  0  0  0  0  0  0  0  0  0
   46.6590   29.9740   46.0550 H   0  0  0  0  0  0  0  0  0  0  0  0
   48.2200   30.0020   47.5110 C   0  0  0  0  0  0  0  0  0  0  0  0
   48.7510   28.6480   47.7560 C   0  0  0  0  0  0  0  0  0  0  0  0
   49.1010   29.2720   46.4770 C   0  0  0  0  0  0  0  0  0  0  0  0
   44.8510   35.4590   44.9270 O   0  0  0  0  0  0  0  0  0  0  0  0
   44.4800   36.0610   43.7450 C   0  0  0  0  0  0  0  0  0  0  0  0
   45.1130   36.9890   43.1710 O   0  0  0  0  0  0  0  0  0  0  0  0
   43.3190   35.7140   43.0050 N   0  0  0  0  0  0  0  0  0  0  0  0
   42.3250   35.8550   43.3540 H   0  0  0  0  0  0  0  0  0  0  0  0
   43.1640   35.2950   42.0730 H   0  0  0  0  0  0  0  0  0  0  0  0
  1  6  1  0  0  0  0
  2  3  1  0  0  0  0
  2  1  2  0  0  0  0
  3  4  2  0  0  0  0
  4  5  1  0  0  0  0
  5  7  1  0  0  0  0
  6  5  2  0  0  0  0
  7  8  1  0  0  0  0
  8 15  1  0  0  0  0
  8  9  1  0  0  0  0
  9 17  1  0  0  0  0
  9 18  1  0  0  0  0
 10  9  1  0  0  0  0
 10 20  1  0  0  0  0
 11 22  1  0  0  0  0
 11 10  1  0  0  0  0
 12 23  1  6  0  0  0
 12  7  1  0  0  0  0
 12 24  1  0  0  0  0
 12 11  1  0  0  0  0
 13  2  1  0  0  0  0
 14  3  1  0  0  0  0
 16  8  1  0  0  0  0
 19 10  1  0  0  0  0
 21 11  1  0  0  0  0
 24 25  1  0  0  0  0
 26 24  1  0  0  0  0
 26 25  1  0  0  0  0
 27  1  1  0  0  0  0
 28 27  1  0  0  0  0
 29 28  2  0  0  0  0
 30 31  1  0  0  0  0
 30 28  1  0  0  0  0
 32 30  1  0  0  0  0
M  END
>  <minimizedAffinity>
-5.52750683

>  <minimizedRMSD>
0.526631236

$$$$
