
 OpenBabel03252509153D

 39 43  0  0  1  0  0  0  0  0999 V2000
   37.6230   30.9640   37.1440 C   0  0  0  0  0  0  0  0  0  0  0  0
   37.4110   31.0680   38.5150 C   0  0  0  0  0  0  0  0  0  0  0  0
   36.4700   30.3150   39.2000 C   0  0  0  0  0  0  0  0  0  0  0  0
   35.6920   29.4030   38.4820 C   0  0  0  0  0  0  0  0  0  0  0  0
   34.7100   28.5270   38.7980 N   0  0  0  0  0  0  0  0  0  0  0  0
   34.3080   27.8880   37.6770 C   0  0  0  0  0  0  0  0  0  0  0  0
   35.0520   28.3810   36.6820 N   0  0  0  0  0  0  0  0  0  0  0  0
   35.9130   29.3130   37.1360 C   0  0  0  0  0  0  0  0  0  0  0  0
   36.8420   30.0480   36.4210 C   0  0  0  0  0  0  0  0  0  0  0  0
   38.3680   31.5730   36.6560 H   0  0  0  0  0  0  0  0  0  0  0  0
   34.3620   28.4120   39.7760 H   0  0  0  0  0  0  0  0  0  0  0  0
   33.5280   27.1220   37.6220 H   0  0  0  0  0  0  0  0  0  0  0  0
   36.9700   29.9320   35.3530 H   0  0  0  0  0  0  0  0  0  0  0  0
   40.1970   32.5240   40.4110 C   0  0  0  0  0  0  0  0  0  0  0  0
   39.7360   33.8040   40.7000 C   0  0  0  0  0  0  0  0  0  0  0  0
   38.4720   34.1610   40.2430 C   0  0  0  0  0  0  0  0  0  0  0  0
   37.7240   33.2550   39.5300 N   0  0  0  0  0  0  0  0  0  0  0  0
   38.2200   32.0200   39.2750 C   0  0  0  0  0  0  0  0  0  0  0  0
   39.4500   31.6240   39.7010 N   0  0  0  0  0  0  0  0  0  0  0  0
   41.1700   32.1980   40.7420 H   0  0  0  0  0  0  0  0  0  0  0  0
   40.3650   34.4860   41.2680 H   0  0  0  0  0  0  0  0  0  0  0  0
   38.0820   35.1400   40.4470 H   0  0  0  0  0  0  0  0  0  0  0  0
   36.2260   30.4720   40.9430 S   0  0  0  0  0  0  0  0  0  0  0  0
   37.2440   28.0480   40.9450 N   0  0  0  0  0  0  0  0  0  0  0  0
   36.9170   29.0840   41.8980 C   0  0  1  0  0  0  0  0  0  0  0  0
   38.1920   29.6410   42.5440 C   0  0  0  0  0  0  0  0  0  0  0  0
   39.0750   28.6500   42.9250 O   0  0  0  0  0  0  0  0  0  0  0  0
   38.5950   27.3620   42.8640 C   0  0  0  0  0  0  0  0  0  0  0  0
   38.1630   27.0780   41.4560 C   0  0  1  0  0  0  0  0  0  0  0  0
   36.3560   27.6710   40.5800 H   0  0  0  0  0  0  0  0  0  0  0  0
   36.2180   28.7310   42.6820 H   0  0  0  0  0  0  0  0  0  0  0  0
   37.9580   30.1650   43.4630 H   0  0  0  0  0  0  0  0  0  0  0  0
   38.7140   30.2690   41.7930 H   0  0  0  0  0  0  0  0  0  0  0  0
   37.7410   27.2870   43.5720 H   0  0  0  0  0  0  0  0  0  0  0  0
   39.4060   26.6960   43.1630 H   0  0  0  0  0  0  0  0  0  0  0  0
   39.0970   27.1860   40.8320 H   0  0  0  0  0  0  0  0  0  0  0  0
   37.7150   25.6570   41.2370 C   0  0  0  0  0  3  0  0  0  0  0  0
   38.3150   24.5180   41.9550 C   0  0  0  0  0  2  0  0  0  0  0  0
   36.8780   24.9130   42.1770 C   0  0  0  0  0  2  0  0  0  0  0  0
  1  2  1  0  0  0  0
  2  3  2  0  0  0  0
  2 18  1  0  0  0  0
  3 23  1  0  0  0  0
  4  5  1  0  0  0  0
  4  3  1  0  0  0  0
  5 11  1  0  0  0  0
  6  5  1  0  0  0  0
  7  8  1  0  0  0  0
  7  6  2  0  0  0  0
  8  4  2  0  0  0  0
  9  8  1  0  0  0  0
  9  1  2  0  0  0  0
 10  1  1  0  0  0  0
 12  6  1  0  0  0  0
 13  9  1  0  0  0  0
 14 15  1  0  0  0  0
 14 20  1  0  0  0  0
 15 21  1  0  0  0  0
 16 22  1  0  0  0  0
 16 15  2  0  0  0  0
 17 16  1  0  0  0  0
 18 17  2  0  0  0  0
 18 19  1  0  0  0  0
 19 14  2  0  0  0  0
 23 25  1  0  0  0  0
 24 29  1  0  0  0  0
 24 25  1  0  0  0  0
 25 26  1  0  0  0  0
 25 31  1  1  0  0  0
 26 27  1  0  0  0  0
 26 32  1  0  0  0  0
 28 27  1  0  0  0  0
 28 35  1  0  0  0  0
 28 34  1  0  0  0  0
 29 36  1  6  0  0  0
 29 28  1  0  0  0  0
 30 24  1  0  0  0  0
 33 26  1  0  0  0  0
 37 29  1  0  0  0  0
 37 38  1  0  0  0  0
 37 39  1  0  0  0  0
 38 39  1  0  0  0  0
M  END
>  <minimizedAffinity>
-5.86049032

$$$$

 OpenBabel03252509153D

 39 43  0  0  1  0  0  0  0  0999 V2000
   37.3080   30.2070   37.0280 C   0  0  0  0  0  0  0  0  0  0  0  0
   36.5650   29.6100   38.0410 C   0  0  0  0  0  0  0  0  0  0  0  0
   36.3600   30.1960   39.2810 C   0  0  0  0  0  0  0  0  0  0  0  0
   36.9250   31.4490   39.5310 C   0  0  0  0  0  0  0  0  0  0  0  0
   36.9390   32.2990   40.5840 N   0  0  0  0  0  0  0  0  0  0  0  0
   37.6600   33.3940   40.2610 C   0  0  0  0  0  0  0  0  0  0  0  0
   38.0820   33.2040   39.0070 N   0  0  0  0  0  0  0  0  0  0  0  0
   37.6510   32.0210   38.5250 C   0  0  0  0  0  0  0  0  0  0  0  0
   37.8770   31.4660   37.2770 C   0  0  0  0  0  0  0  0  0  0  0  0
   37.4400   29.7110   36.0780 H   0  0  0  0  0  0  0  0  0  0  0  0
   36.4470   32.0800   41.4800 H   0  0  0  0  0  0  0  0  0  0  0  0
   37.8460   34.2530   40.9130 H   0  0  0  0  0  0  0  0  0  0  0  0
   38.4630   31.9700   36.5200 H   0  0  0  0  0  0  0  0  0  0  0  0
   34.1400   27.0160   37.1100 C   0  0  0  0  0  0  0  0  0  0  0  0
   34.8540   25.8410   37.3170 C   0  0  0  0  0  0  0  0  0  0  0  0
   36.1630   25.9430   37.7750 C   0  0  0  0  0  0  0  0  0  0  0  0
   36.7080   27.1830   38.0070 N   0  0  0  0  0  0  0  0  0  0  0  0
   35.9700   28.2990   37.7890 C   0  0  0  0  0  0  0  0  0  0  0  0
   34.6860   28.2490   37.3410 N   0  0  0  0  0  0  0  0  0  0  0  0
   33.1220   26.9910   36.7550 H   0  0  0  0  0  0  0  0  0  0  0  0
   34.3790   24.8820   37.1190 H   0  0  0  0  0  0  0  0  0  0  0  0
   36.7440   25.0580   37.9470 H   0  0  0  0  0  0  0  0  0  0  0  0
   35.4100   29.4100   40.5470 S   0  0  0  0  0  0  0  0  0  0  0  0
   36.5620   27.0980   41.0380 N   0  0  0  0  0  0  0  0  0  0  0  0
   36.4100   28.3880   41.6740 C   0  0  1  0  0  0  0  0  0  0  0  0
   37.7630   29.1040   41.7650 C   0  0  0  0  0  0  0  0  0  0  0  0
   38.7800   28.2730   42.1950 O   0  0  0  0  0  0  0  0  0  0  0  0
   38.3900   27.0390   42.6610 C   0  0  0  0  0  0  0  0  0  0  0  0
   37.6450   26.3290   41.5700 C   0  0  1  0  0  0  0  0  0  0  0  0
   35.6400   26.6370   41.0480 H   0  0  0  0  0  0  0  0  0  0  0  0
   35.9530   28.3100   42.6800 H   0  0  0  0  0  0  0  0  0  0  0  0
   37.7280   29.8960   42.5050 H   0  0  0  0  0  0  0  0  0  0  0  0
   38.0380   29.4540   40.7500 H   0  0  0  0  0  0  0  0  0  0  0  0
   37.7450   27.2030   43.5510 H   0  0  0  0  0  0  0  0  0  0  0  0
   39.2940   26.4910   42.9330 H   0  0  0  0  0  0  0  0  0  0  0  0
   38.3850   26.2210   40.7260 H   0  0  0  0  0  0  0  0  0  0  0  0
   37.2560   24.9180   41.9240 C   0  0  0  0  0  3  0  0  0  0  0  0
   36.4990   24.0510   41.0030 C   0  0  0  0  0  2  0  0  0  0  0  0
   37.9200   23.7310   41.3870 C   0  0  0  0  0  2  0  0  0  0  0  0
  1  9  2  0  0  0  0
  1  2  1  0  0  0  0
  2  3  2  0  0  0  0
  3  4  1  0  0  0  0
  3 23  1  0  0  0  0
  4  5  1  0  0  0  0
  5 11  1  0  0  0  0
  6  5  1  0  0  0  0
  6 12  1  0  0  0  0
  7  6  2  0  0  0  0
  8  7  1  0  0  0  0
  8  4  2  0  0  0  0
  9  8  1  0  0  0  0
 10  1  1  0  0  0  0
 13  9  1  0  0  0  0
 14 15  2  0  0  0  0
 14 19  1  0  0  0  0
 15 16  1  0  0  0  0
 16 22  1  0  0  0  0
 16 17  2  0  0  0  0
 18 17  1  0  0  0  0
 18  2  1  0  0  0  0
 19 18  2  0  0  0  0
 20 14  1  0  0  0  0
 21 15  1  0  0  0  0
 23 25  1  0  0  0  0
 24 30  1  0  0  0  0
 24 29  1  0  0  0  0
 24 25  1  0  0  0  0
 25 26  1  0  0  0  0
 25 31  1  1  0  0  0
 26 27  1  0  0  0  0
 26 32  1  0  0  0  0
 27 28  1  0  0  0  0
 28 35  1  0  0  0  0
 28 34  1  0  0  0  0
 29 36  1  6  0  0  0
 29 37  1  0  0  0  0
 29 28  1  0  0  0  0
 33 26  1  0  0  0  0
 38 39  1  0  0  0  0
 38 37  1  0  0  0  0
 39 37  1  0  0  0  0
M  END
>  <minimizedAffinity>
-5.79969883

$$$$

 OpenBabel03252509153D

 39 43  0  0  1  0  0  0  0  0999 V2000
   37.3220   32.8480   39.9100 C   0  0  0  0  0  0  0  0  0  0  0  0
   37.6960   31.5550   39.5590 C   0  0  0  0  0  0  0  0  0  0  0  0
   39.0160   31.1490   39.4450 C   0  0  0  0  0  0  0  0  0  0  0  0
   40.0270   32.0800   39.6950 C   0  0  0  0  0  0  0  0  0  0  0  0
   41.3800   32.0500   39.6840 N   0  0  0  0  0  0  0  0  0  0  0  0
   41.8540   33.2710   40.0140 C   0  0  0  0  0  0  0  0  0  0  0  0
   40.7820   34.0400   40.2250 N   0  0  0  0  0  0  0  0  0  0  0  0
   39.6430   33.3460   40.0400 C   0  0  0  0  0  0  0  0  0  0  0  0
   38.3350   33.7860   40.1620 C   0  0  0  0  0  0  0  0  0  0  0  0
   36.2790   33.1170   39.9850 H   0  0  0  0  0  0  0  0  0  0  0  0
   41.9130   31.1830   39.4480 H   0  0  0  0  0  0  0  0  0  0  0  0
   42.9100   33.5490   40.0870 H   0  0  0  0  0  0  0  0  0  0  0  0
   38.0940   34.8030   40.4380 H   0  0  0  0  0  0  0  0  0  0  0  0
   35.0400   29.0780   40.0960 C   0  0  0  0  0  0  0  0  0  0  0  0
   34.6770   28.7320   38.7990 C   0  0  0  0  0  0  0  0  0  0  0  0
   35.3440   29.3500   37.7460 C   0  0  0  0  0  0  0  0  0  0  0  0
   36.3290   30.2700   38.0110 N   0  0  0  0  0  0  0  0  0  0  0  0
   36.6460   30.5730   39.2940 C   0  0  0  0  0  0  0  0  0  0  0  0
   36.0210   29.9950   40.3570 N   0  0  0  0  0  0  0  0  0  0  0  0
   34.5530   28.6280   40.9460 H   0  0  0  0  0  0  0  0  0  0  0  0
   33.8910   27.9970   38.6390 H   0  0  0  0  0  0  0  0  0  0  0  0
   35.0910   29.1070   36.7320 H   0  0  0  0  0  0  0  0  0  0  0  0
   39.4580   29.4970   38.9960 S   0  0  0  0  0  0  0  0  0  0  0  0
   38.4990   27.9960   40.9300 N   0  0  0  0  0  0  0  0  0  0  0  0
   39.7870   28.4210   40.4280 C   0  0  1  0  0  0  0  0  0  0  0  0
   40.5620   27.2260   39.8590 C   0  0  0  0  0  0  0  0  0  0  0  0
   40.5080   26.1150   40.6780 O   0  0  0  0  0  0  0  0  0  0  0  0
   39.9700   26.3160   41.9280 C   0  0  0  0  0  0  0  0  0  0  0  0
   38.5730   26.8390   41.7690 C   0  0  1  0  0  0  0  0  0  0  0  0
   38.0410   28.8200   41.3480 H   0  0  0  0  0  0  0  0  0  0  0  0
   40.3920   28.9330   41.2020 H   0  0  0  0  0  0  0  0  0  0  0  0
   41.6180   27.4580   39.7820 H   0  0  0  0  0  0  0  0  0  0  0  0
   40.0960   26.9410   38.8940 H   0  0  0  0  0  0  0  0  0  0  0  0
   40.6160   27.0460   42.4600 H   0  0  0  0  0  0  0  0  0  0  0  0
   39.9670   25.3530   42.4420 H   0  0  0  0  0  0  0  0  0  0  0  0
   38.0130   26.0290   41.2180 H   0  0  0  0  0  0  0  0  0  0  0  0
   37.8360   26.9990   43.0720 C   0  0  0  0  0  3  0  0  0  0  0  0
   37.5790   28.3170   43.6800 C   0  0  0  0  0  2  0  0  0  0  0  0
   36.4510   27.4570   43.1740 C   0  0  0  0  0  2  0  0  0  0  0  0
  1 10  1  0  0  0  0
  1  9  1  0  0  0  0
  2  1  2  0  0  0  0
  3  2  1  0  0  0  0
  3  4  2  0  0  0  0
  4  8  1  0  0  0  0
  5  4  1  0  0  0  0
  5  6  1  0  0  0  0
  6 12  1  0  0  0  0
  6  7  2  0  0  0  0
  8  9  2  0  0  0  0
  8  7  1  0  0  0  0
  9 13  1  0  0  0  0
 11  5  1  0  0  0  0
 14 19  1  0  0  0  0
 14 20  1  0  0  0  0
 15 14  2  0  0  0  0
 16 17  2  0  0  0  0
 16 15  1  0  0  0  0
 17 18  1  0  0  0  0
 18  2  1  0  0  0  0
 18 19  2  0  0  0  0
 21 15  1  0  0  0  0
 22 16  1  0  0  0  0
 23  3  1  0  0  0  0
 23 25  1  0  0  0  0
 24 30  1  0  0  0  0
 24 29  1  0  0  0  0
 25 24  1  0  0  0  0
 25 31  1  1  0  0  0
 26 25  1  0  0  0  0
 26 27  1  0  0  0  0
 27 28  1  0  0  0  0
 28 35  1  0  0  0  0
 28 34  1  0  0  0  0
 29 36  1  6  0  0  0
 29 28  1  0  0  0  0
 29 37  1  0  0  0  0
 32 26  1  0  0  0  0
 33 26  1  0  0  0  0
 37 39  1  0  0  0  0
 37 38  1  0  0  0  0
 39 38  1  0  0  0  0
M  END
>  <minimizedAffinity>
-5.78721094

$$$$

 OpenBabel03252509153D

 39 43  0  0  1  0  0  0  0  0999 V2000
   38.1780   29.7100   37.1490 C   0  0  0  0  0  0  0  0  0  0  0  0
   37.5170   29.9460   38.3500 C   0  0  0  0  0  0  0  0  0  0  0  0
   36.5660   29.0860   38.8780 C   0  0  0  0  0  0  0  0  0  0  0  0
   36.2530   27.9210   38.1730 C   0  0  0  0  0  0  0  0  0  0  0  0
   35.4090   26.8820   38.3690 N   0  0  0  0  0  0  0  0  0  0  0  0
   35.5230   26.0160   37.3380 C   0  0  0  0  0  0  0  0  0  0  0  0
   36.4410   26.5360   36.5180 N   0  0  0  0  0  0  0  0  0  0  0  0
   36.9120   27.7040   36.9950 C   0  0  0  0  0  0  0  0  0  0  0  0
   37.8650   28.5410   36.4390 C   0  0  0  0  0  0  0  0  0  0  0  0
   38.9110   30.4120   36.7790 H   0  0  0  0  0  0  0  0  0  0  0  0
   34.7910   26.8200   39.2100 H   0  0  0  0  0  0  0  0  0  0  0  0
   34.9650   25.0820   37.2220 H   0  0  0  0  0  0  0  0  0  0  0  0
   38.3530   28.3140   35.5010 H   0  0  0  0  0  0  0  0  0  0  0  0
   37.3830   33.4010   39.5860 C   0  0  0  0  0  0  0  0  0  0  0  0
   38.4370   33.4430   40.4920 C   0  0  0  0  0  0  0  0  0  0  0  0
   39.1880   32.2870   40.6750 C   0  0  0  0  0  0  0  0  0  0  0  0
   38.8750   31.1520   39.9670 N   0  0  0  0  0  0  0  0  0  0  0  0
   37.8370   31.1630   39.0950 C   0  0  0  0  0  0  0  0  0  0  0  0
   37.0730   32.2690   38.8830 N   0  0  0  0  0  0  0  0  0  0  0  0
   36.7700   34.2700   39.4080 H   0  0  0  0  0  0  0  0  0  0  0  0
   38.6460   34.3650   41.0290 H   0  0  0  0  0  0  0  0  0  0  0  0
   40.0090   32.2830   41.3660 H   0  0  0  0  0  0  0  0  0  0  0  0
   35.7440   29.4150   40.4070 S   0  0  0  0  0  0  0  0  0  0  0  0
   36.8470   27.1640   41.2010 N   0  0  0  0  0  0  0  0  0  0  0  0
   36.3400   28.3860   41.7860 C   0  0  1  0  0  0  0  0  0  0  0  0
   37.4810   29.1910   42.4200 C   0  0  0  0  0  0  0  0  0  0  0  0
   38.3360   28.4070   43.1700 O   0  0  0  0  0  0  0  0  0  0  0  0
   37.9230   27.1150   43.3960 C   0  0  0  0  0  0  0  0  0  0  0  0
   37.7180   26.4380   42.0730 C   0  0  1  0  0  0  0  0  0  0  0  0
   36.0400   26.6370   40.8370 H   0  0  0  0  0  0  0  0  0  0  0  0
   35.5470   28.1960   42.5350 H   0  0  0  0  0  0  0  0  0  0  0  0
   37.0910   29.9180   43.1240 H   0  0  0  0  0  0  0  0  0  0  0  0
   38.0830   29.6390   41.6030 H   0  0  0  0  0  0  0  0  0  0  0  0
   36.9760   27.1600   43.9770 H   0  0  0  0  0  0  0  0  0  0  0  0
   38.7060   26.6160   43.9700 H   0  0  0  0  0  0  0  0  0  0  0  0
   38.7290   26.4520   41.5730 H   0  0  0  0  0  0  0  0  0  0  0  0
   37.3650   24.9790   42.1890 C   0  0  0  0  0  3  0  0  0  0  0  0
   36.6240   24.2580   41.1380 C   0  0  0  0  0  2  0  0  0  0  0  0
   38.0540   23.9140   41.4620 C   0  0  0  0  0  2  0  0  0  0  0  0
  1  2  1  0  0  0  0
  2  3  2  0  0  0  0
  2 18  1  0  0  0  0
  3 23  1  0  0  0  0
  4  5  1  0  0  0  0
  4  3  1  0  0  0  0
  5 11  1  0  0  0  0
  6  5  1  0  0  0  0
  7  8  1  0  0  0  0
  7  6  2  0  0  0  0
  8  4  2  0  0  0  0
  9  8  1  0  0  0  0
  9  1  2  0  0  0  0
 10  1  1  0  0  0  0
 12  6  1  0  0  0  0
 13  9  1  0  0  0  0
 14 15  1  0  0  0  0
 15 16  2  0  0  0  0
 15 21  1  0  0  0  0
 16 22  1  0  0  0  0
 17 16  1  0  0  0  0
 18 17  2  0  0  0  0
 19 18  1  0  0  0  0
 19 14  2  0  0  0  0
 20 14  1  0  0  0  0
 23 25  1  0  0  0  0
 24 25  1  0  0  0  0
 24 29  1  0  0  0  0
 25 26  1  0  0  0  0
 25 31  1  1  0  0  0
 26 32  1  0  0  0  0
 26 27  1  0  0  0  0
 27 28  1  0  0  0  0
 28 35  1  0  0  0  0
 28 34  1  0  0  0  0
 29 36  1  6  0  0  0
 29 37  1  0  0  0  0
 29 28  1  0  0  0  0
 30 24  1  0  0  0  0
 33 26  1  0  0  0  0
 38 39  1  0  0  0  0
 38 37  1  0  0  0  0
 39 37  1  0  0  0  0
M  END
>  <minimizedAffinity>
-5.45138788

$$$$

 OpenBabel03252509153D

 39 43  0  0  1  0  0  0  0  0999 V2000
   37.0590   28.4600   42.9760 C   0  0  0  0  0  0  0  0  0  0  0  0
   37.6720   28.7130   41.7530 C   0  0  0  0  0  0  0  0  0  0  0  0
   37.9900   27.7190   40.8400 C   0  0  0  0  0  0  0  0  0  0  0  0
   37.6810   26.3940   41.1600 C   0  0  0  0  0  0  0  0  0  0  0  0
   37.8350   25.2000   40.5400 N   0  0  0  0  0  0  0  0  0  0  0  0
   37.3420   24.2230   41.3320 C   0  0  0  0  0  0  0  0  0  0  0  0
   36.8890   24.8300   42.4330 N   0  0  0  0  0  0  0  0  0  0  0  0
   37.0790   26.1630   42.3640 C   0  0  0  0  0  0  0  0  0  0  0  0
   36.7480   27.1300   43.2990 C   0  0  0  0  0  0  0  0  0  0  0  0
   36.8330   29.2690   43.6540 H   0  0  0  0  0  0  0  0  0  0  0  0
   38.2760   25.1180   39.5960 H   0  0  0  0  0  0  0  0  0  0  0  0
   37.3280   23.1540   41.0960 H   0  0  0  0  0  0  0  0  0  0  0  0
   36.2720   26.8830   44.2380 H   0  0  0  0  0  0  0  0  0  0  0  0
   37.3810   32.1310   40.4460 C   0  0  0  0  0  0  0  0  0  0  0  0
   38.6140   32.6880   40.7660 C   0  0  0  0  0  0  0  0  0  0  0  0
   39.5390   31.8890   41.4290 C   0  0  0  0  0  0  0  0  0  0  0  0
   39.2160   30.5910   41.7440 N   0  0  0  0  0  0  0  0  0  0  0  0
   38.0000   30.0960   41.4100 C   0  0  0  0  0  0  0  0  0  0  0  0
   37.0620   30.8390   40.7620 N   0  0  0  0  0  0  0  0  0  0  0  0
   36.6280   32.7090   39.9330 H   0  0  0  0  0  0  0  0  0  0  0  0
   38.8230   33.7210   40.4960 H   0  0  0  0  0  0  0  0  0  0  0  0
   40.5020   32.2840   41.6920 H   0  0  0  0  0  0  0  0  0  0  0  0
   38.7690   28.0740   39.2940 S   0  0  0  0  0  0  0  0  0  0  0  0
   36.3090   28.6300   38.5510 N   0  0  0  0  0  0  0  0  0  0  0  0
   37.5880   28.3530   37.9360 C   0  0  1  0  0  0  0  0  0  0  0  0
   38.1110   29.5950   37.2030 C   0  0  0  0  0  0  0  0  0  0  0  0
   37.1380   30.2180   36.4460 O   0  0  0  0  0  0  0  0  0  0  0  0
   35.9550   29.5300   36.3050 C   0  0  0  0  0  0  0  0  0  0  0  0
   35.3840   29.2730   37.6680 C   0  0  1  0  0  0  0  0  0  0  0  0
   35.9770   27.7540   38.9830 H   0  0  0  0  0  0  0  0  0  0  0  0
   37.5440   27.4920   37.2410 H   0  0  0  0  0  0  0  0  0  0  0  0
   38.8790   29.3210   36.4870 H   0  0  0  0  0  0  0  0  0  0  0  0
   38.4500   30.3270   37.9630 H   0  0  0  0  0  0  0  0  0  0  0  0
   36.1790   28.5790   35.7750 H   0  0  0  0  0  0  0  0  0  0  0  0
   35.2820   30.1540   35.7140 H   0  0  0  0  0  0  0  0  0  0  0  0
   35.2020   30.2940   38.1110 H   0  0  0  0  0  0  0  0  0  0  0  0
   34.0300   28.6150   37.6410 C   0  0  0  0  0  3  0  0  0  0  0  0
   33.2070   28.5460   36.4200 C   0  0  0  0  0  2  0  0  0  0  0  0
   33.7730   27.3020   37.0530 C   0  0  0  0  0  2  0  0  0  0  0  0
  1  9  1  0  0  0  0
  1 10  1  0  0  0  0
  2  1  2  0  0  0  0
  3  4  2  0  0  0  0
  3  2  1  0  0  0  0
  4  8  1  0  0  0  0
  5  4  1  0  0  0  0
  5  6  1  0  0  0  0
  6  7  2  0  0  0  0
  8  7  1  0  0  0  0
  8  9  2  0  0  0  0
  9 13  1  0  0  0  0
 11  5  1  0  0  0  0
 12  6  1  0  0  0  0
 14 19  2  0  0  0  0
 14 15  1  0  0  0  0
 15 16  2  0  0  0  0
 16 22  1  0  0  0  0
 16 17  1  0  0  0  0
 18 17  2  0  0  0  0
 18  2  1  0  0  0  0
 19 18  1  0  0  0  0
 20 14  1  0  0  0  0
 21 15  1  0  0  0  0
 23  3  1  0  0  0  0
 24 30  1  0  0  0  0
 25 31  1  6  0  0  0
 25 24  1  0  0  0  0
 25 23  1  0  0  0  0
 26 25  1  0  0  0  0
 26 33  1  0  0  0  0
 27 26  1  0  0  0  0
 28 27  1  0  0  0  0
 28 29  1  0  0  0  0
 29 36  1  1  0  0  0
 29 24  1  0  0  0  0
 32 26  1  0  0  0  0
 34 28  1  0  0  0  0
 35 28  1  0  0  0  0
 37 29  1  0  0  0  0
 38 39  1  0  0  0  0
 38 37  1  0  0  0  0
 39 37  1  0  0  0  0
M  END
>  <minimizedAffinity>
-5.40608358

$$$$

 OpenBabel03252509153D

 39 43  0  0  1  0  0  0  0  0999 V2000
   37.2890   30.8900   36.7340 C   0  0  0  0  0  0  0  0  0  0  0  0
   37.1140   30.8160   38.1130 C   0  0  0  0  0  0  0  0  0  0  0  0
   36.2950   29.8810   38.7260 C   0  0  0  0  0  0  0  0  0  0  0  0
   35.6080   28.9640   37.9250 C   0  0  0  0  0  0  0  0  0  0  0  0
   34.7500   27.9440   38.1600 N   0  0  0  0  0  0  0  0  0  0  0  0
   34.3900   27.3880   36.9830 C   0  0  0  0  0  0  0  0  0  0  0  0
   35.0340   28.0760   36.0350 N   0  0  0  0  0  0  0  0  0  0  0  0
   35.7910   29.0510   36.5740 C   0  0  0  0  0  0  0  0  0  0  0  0
   36.6000   29.9710   35.9280 C   0  0  0  0  0  0  0  0  0  0  0  0
   37.9380   31.6380   36.3030 H   0  0  0  0  0  0  0  0  0  0  0  0
   34.4530   27.6800   39.1260 H   0  0  0  0  0  0  0  0  0  0  0  0
   33.7060   26.5430   36.8570 H   0  0  0  0  0  0  0  0  0  0  0  0
   36.7040   29.9900   34.8520 H   0  0  0  0  0  0  0  0  0  0  0  0
   39.7140   32.3230   40.2210 C   0  0  0  0  0  0  0  0  0  0  0  0
   39.1660   33.5600   40.5450 C   0  0  0  0  0  0  0  0  0  0  0  0
   37.9080   33.8700   40.0390 C   0  0  0  0  0  0  0  0  0  0  0  0
   37.2510   32.9630   39.2460 N   0  0  0  0  0  0  0  0  0  0  0  0
   37.8280   31.7700   38.9590 C   0  0  0  0  0  0  0  0  0  0  0  0
   39.0560   31.4210   39.4300 N   0  0  0  0  0  0  0  0  0  0  0  0
   40.6860   32.0340   40.5870 H   0  0  0  0  0  0  0  0  0  0  0  0
   39.7260   34.2460   41.1780 H   0  0  0  0  0  0  0  0  0  0  0  0
   37.4540   34.8150   40.2690 H   0  0  0  0  0  0  0  0  0  0  0  0
   36.0940   29.8130   40.4810 S   0  0  0  0  0  0  0  0  0  0  0  0
   38.3180   29.6060   41.8690 N   0  0  0  0  0  0  0  0  0  0  0  0
   37.3080   28.7360   41.3070 C   0  0  1  0  0  0  0  0  0  0  0  0
   36.5240   28.0340   42.4220 C   0  0  0  0  0  0  0  0  0  0  0  0
   37.3410   27.5370   43.4190 O   0  0  0  0  0  0  0  0  0  0  0  0
   38.6910   27.5610   43.1570 C   0  0  0  0  0  0  0  0  0  0  0  0
   39.1020   28.9780   42.8880 C   0  0  1  0  0  0  0  0  0  0  0  0
   38.8490   30.0120   41.0840 H   0  0  0  0  0  0  0  0  0  0  0  0
   37.7370   27.9860   40.6140 H   0  0  0  0  0  0  0  0  0  0  0  0
   36.0060   27.1630   42.0350 H   0  0  0  0  0  0  0  0  0  0  0  0
   35.8520   28.7790   42.8940 H   0  0  0  0  0  0  0  0  0  0  0  0
   38.8740   26.9130   42.2730 H   0  0  0  0  0  0  0  0  0  0  0  0
   39.2030   27.1690   44.0380 H   0  0  0  0  0  0  0  0  0  0  0  0
   38.8700   29.5400   43.8390 H   0  0  0  0  0  0  0  0  0  0  0  0
   40.5850   29.1510   42.6910 C   0  0  0  0  0  3  0  0  0  0  0  0
   41.5700   28.1890   43.2180 C   0  0  0  0  0  2  0  0  0  0  0  0
   41.3750   28.3740   41.7360 C   0  0  0  0  0  2  0  0  0  0  0  0
  1  2  1  0  0  0  0
  2  3  2  0  0  0  0
  2 18  1  0  0  0  0
  3 23  1  0  0  0  0
  4  5  1  0  0  0  0
  4  3  1  0  0  0  0
  5 11  1  0  0  0  0
  6  5  1  0  0  0  0
  7  8  1  0  0  0  0
  7  6  2  0  0  0  0
  8  4  2  0  0  0  0
  9  8  1  0  0  0  0
  9  1  2  0  0  0  0
 10  1  1  0  0  0  0
 12  6  1  0  0  0  0
 13  9  1  0  0  0  0
 14 15  1  0  0  0  0
 14 20  1  0  0  0  0
 15 21  1  0  0  0  0
 16 22  1  0  0  0  0
 16 15  2  0  0  0  0
 17 16  1  0  0  0  0
 18 17  2  0  0  0  0
 18 19  1  0  0  0  0
 19 14  2  0  0  0  0
 23 25  1  0  0  0  0
 24 29  1  0  0  0  0
 25 31  1  6  0  0  0
 25 24  1  0  0  0  0
 25 26  1  0  0  0  0
 26 33  1  0  0  0  0
 26 27  1  0  0  0  0
 28 27  1  0  0  0  0
 28 35  1  0  0  0  0
 29 28  1  0  0  0  0
 29 36  1  1  0  0  0
 30 24  1  0  0  0  0
 32 26  1  0  0  0  0
 34 28  1  0  0  0  0
 37 29  1  0  0  0  0
 37 38  1  0  0  0  0
 39 37  1  0  0  0  0
 39 38  1  0  0  0  0
M  END
>  <minimizedAffinity>
-5.36210918

$$$$

 OpenBabel03252509153D

 39 43  0  0  1  0  0  0  0  0999 V2000
   35.0940   28.8050   39.5130 C   0  0  0  0  0  0  0  0  0  0  0  0
   36.4550   28.6490   39.7530 C   0  0  0  0  0  0  0  0  0  0  0  0
   37.4200   28.7500   38.7630 C   0  0  0  0  0  0  0  0  0  0  0  0
   37.0100   29.0220   37.4550 C   0  0  0  0  0  0  0  0  0  0  0  0
   37.6420   29.1860   36.2690 N   0  0  0  0  0  0  0  0  0  0  0  0
   36.7250   29.4370   35.3090 C   0  0  0  0  0  0  0  0  0  0  0  0
   35.5370   29.4240   35.9190 N   0  0  0  0  0  0  0  0  0  0  0  0
   35.6700   29.1730   37.2360 C   0  0  0  0  0  0  0  0  0  0  0  0
   34.6800   29.0790   38.2000 C   0  0  0  0  0  0  0  0  0  0  0  0
   34.3800   28.7170   40.3180 H   0  0  0  0  0  0  0  0  0  0  0  0
   38.6810   29.1170   36.1800 H   0  0  0  0  0  0  0  0  0  0  0  0
   36.9400   29.6130   34.2500 H   0  0  0  0  0  0  0  0  0  0  0  0
   33.6330   29.2080   37.9640 H   0  0  0  0  0  0  0  0  0  0  0  0
   37.6570   29.1290   43.1890 C   0  0  0  0  0  0  0  0  0  0  0  0
   37.7170   27.8280   43.6770 C   0  0  0  0  0  0  0  0  0  0  0  0
   37.3440   26.7930   42.8260 C   0  0  0  0  0  0  0  0  0  0  0  0
   36.9340   27.0780   41.5460 N   0  0  0  0  0  0  0  0  0  0  0  0
   36.8940   28.3630   41.1180 C   0  0  0  0  0  0  0  0  0  0  0  0
   37.2480   29.4100   41.9140 N   0  0  0  0  0  0  0  0  0  0  0  0
   37.9350   29.9660   43.8080 H   0  0  0  0  0  0  0  0  0  0  0  0
   38.0480   27.6520   44.6980 H   0  0  0  0  0  0  0  0  0  0  0  0
   37.3780   25.7770   43.1680 H   0  0  0  0  0  0  0  0  0  0  0  0
   39.1420   28.5460   39.1020 S   0  0  0  0  0  0  0  0  0  0  0  0
   40.4590   30.3200   37.6770 N   0  0  0  0  0  0  0  0  0  0  0  0
   40.0790   30.1070   39.0560 C   0  0  1  0  0  0  0  0  0  0  0  0
   39.0840   31.1820   39.5110 C   0  0  0  0  0  0  0  0  0  0  0  0
   39.4550   32.4530   39.1190 O   0  0  0  0  0  0  0  0  0  0  0  0
   40.7190   32.5740   38.5890 C   0  0  0  0  0  0  0  0  0  0  0  0
   40.8250   31.6740   37.3940 C   0  0  1  0  0  0  0  0  0  0  0  0
   41.1640   29.6080   37.4360 H   0  0  0  0  0  0  0  0  0  0  0  0
   40.9530   30.0870   39.7350 H   0  0  0  0  0  0  0  0  0  0  0  0
   39.0430   31.2310   40.5930 H   0  0  0  0  0  0  0  0  0  0  0  0
   38.1040   30.9690   39.0360 H   0  0  0  0  0  0  0  0  0  0  0  0
   41.4440   32.2840   39.3800 H   0  0  0  0  0  0  0  0  0  0  0  0
   40.8550   33.6190   38.3020 H   0  0  0  0  0  0  0  0  0  0  0  0
   40.0500   32.0530   36.6670 H   0  0  0  0  0  0  0  0  0  0  0  0
   42.1340   31.7970   36.6600 C   0  0  0  0  0  3  0  0  0  0  0  0
   43.4360   31.6300   37.3310 C   0  0  0  0  0  2  0  0  0  0  0  0
   42.9670   30.6560   36.2830 C   0  0  0  0  0  2  0  0  0  0  0  0
  1  2  1  0  0  0  0
  1 10  1  0  0  0  0
  2 18  1  0  0  0  0
  3 23  1  0  0  0  0
  3  2  2  0  0  0  0
  4  3  1  0  0  0  0
  5  4  1  0  0  0  0
  6  7  2  0  0  0  0
  6  5  1  0  0  0  0
  7  8  1  0  0  0  0
  8  4  2  0  0  0  0
  8  9  1  0  0  0  0
  9  1  2  0  0  0  0
 11  5  1  0  0  0  0
 12  6  1  0  0  0  0
 13  9  1  0  0  0  0
 14 15  1  0  0  0  0
 14 20  1  0  0  0  0
 15 21  1  0  0  0  0
 16 22  1  0  0  0  0
 16 15  2  0  0  0  0
 17 16  1  0  0  0  0
 18 17  2  0  0  0  0
 18 19  1  0  0  0  0
 19 14  2  0  0  0  0
 24 25  1  0  0  0  0
 25 23  1  0  0  0  0
 25 26  1  0  0  0  0
 25 31  1  1  0  0  0
 26 32  1  0  0  0  0
 27 26  1  0  0  0  0
 28 27  1  0  0  0  0
 28 34  1  0  0  0  0
 29 36  1  6  0  0  0
 29 24  1  0  0  0  0
 29 28  1  0  0  0  0
 30 24  1  0  0  0  0
 33 26  1  0  0  0  0
 35 28  1  0  0  0  0
 37 38  1  0  0  0  0
 37 29  1  0  0  0  0
 39 37  1  0  0  0  0
 39 38  1  0  0  0  0
M  END
>  <minimizedAffinity>
-5.31414175

$$$$

 OpenBabel03252509153D

 39 43  0  0  1  0  0  0  0  0999 V2000
   34.7400   28.8100   38.5150 C   0  0  0  0  0  0  0  0  0  0  0  0
   36.1120   28.7770   38.7470 C   0  0  0  0  0  0  0  0  0  0  0  0
   37.0560   28.8560   37.7350 C   0  0  0  0  0  0  0  0  0  0  0  0
   36.6150   28.9750   36.4150 C   0  0  0  0  0  0  0  0  0  0  0  0
   37.2220   29.0750   35.2090 N   0  0  0  0  0  0  0  0  0  0  0  0
   36.2800   29.1680   34.2450 C   0  0  0  0  0  0  0  0  0  0  0  0
   35.1010   29.1240   34.8730 N   0  0  0  0  0  0  0  0  0  0  0  0
   35.2650   29.0060   36.2050 C   0  0  0  0  0  0  0  0  0  0  0  0
   34.2940   28.9290   37.1900 C   0  0  0  0  0  0  0  0  0  0  0  0
   34.0430   28.7440   39.3380 H   0  0  0  0  0  0  0  0  0  0  0  0
   38.2620   29.0740   35.1100 H   0  0  0  0  0  0  0  0  0  0  0  0
   36.4700   29.2600   33.1720 H   0  0  0  0  0  0  0  0  0  0  0  0
   33.2380   28.9590   36.9600 H   0  0  0  0  0  0  0  0  0  0  0  0
   37.0830   27.3060   41.9670 C   0  0  0  0  0  0  0  0  0  0  0  0
   37.4680   28.4180   42.7080 C   0  0  0  0  0  0  0  0  0  0  0  0
   37.3930   29.6670   42.1000 C   0  0  0  0  0  0  0  0  0  0  0  0
   36.9480   29.7670   40.8050 N   0  0  0  0  0  0  0  0  0  0  0  0
   36.5840   28.6520   40.1250 C   0  0  0  0  0  0  0  0  0  0  0  0
   36.6400   27.4100   40.6770 N   0  0  0  0  0  0  0  0  0  0  0  0
   37.1230   26.3160   42.3920 H   0  0  0  0  0  0  0  0  0  0  0  0
   37.8150   28.2880   43.7310 H   0  0  0  0  0  0  0  0  0  0  0  0
   37.6810   30.5470   42.6420 H   0  0  0  0  0  0  0  0  0  0  0  0
   38.7930   28.8120   38.0640 S   0  0  0  0  0  0  0  0  0  0  0  0
   39.2080   31.1860   39.1140 N   0  0  0  0  0  0  0  0  0  0  0  0
   39.5950   30.4420   37.9370 C   0  0  1  0  0  0  0  0  0  0  0  0
   41.1000   30.1470   37.9590 C   0  0  0  0  0  0  0  0  0  0  0  0
   41.8550   31.2460   38.3210 O   0  0  0  0  0  0  0  0  0  0  0  0
   41.1780   32.4420   38.3920 C   0  0  0  0  0  0  0  0  0  0  0  0
   40.0620   32.3020   39.3840 C   0  0  1  0  0  0  0  0  0  0  0  0
   38.2040   31.4040   39.0270 H   0  0  0  0  0  0  0  0  0  0  0  0
   39.3250   30.9660   36.9990 H   0  0  0  0  0  0  0  0  0  0  0  0
   41.4540   29.8890   36.9670 H   0  0  0  0  0  0  0  0  0  0  0  0
   41.2870   29.3610   38.7180 H   0  0  0  0  0  0  0  0  0  0  0  0
   40.7900   32.6700   37.3760 H   0  0  0  0  0  0  0  0  0  0  0  0
   41.8910   33.2030   38.7150 H   0  0  0  0  0  0  0  0  0  0  0  0
   40.5650   32.0690   40.3670 H   0  0  0  0  0  0  0  0  0  0  0  0
   39.3090   33.5830   39.6300 C   0  0  0  0  0  3  0  0  0  0  0  0
   37.8490   33.6170   39.8320 C   0  0  0  0  0  2  0  0  0  0  0  0
   38.8000   33.9900   40.9390 C   0  0  0  0  0  2  0  0  0  0  0  0
  1  2  1  0  0  0  0
  1 10  1  0  0  0  0
  2 18  1  0  0  0  0
  3 23  1  0  0  0  0
  3  2  2  0  0  0  0
  4  3  1  0  0  0  0
  5  4  1  0  0  0  0
  6  7  2  0  0  0  0
  6  5  1  0  0  0  0
  7  8  1  0  0  0  0
  8  4  2  0  0  0  0
  8  9  1  0  0  0  0
  9  1  2  0  0  0  0
 11  5  1  0  0  0  0
 12  6  1  0  0  0  0
 13  9  1  0  0  0  0
 14 20  1  0  0  0  0
 14 15  1  0  0  0  0
 15 21  1  0  0  0  0
 16 22  1  0  0  0  0
 16 15  2  0  0  0  0
 17 16  1  0  0  0  0
 18 19  1  0  0  0  0
 18 17  2  0  0  0  0
 19 14  2  0  0  0  0
 24 29  1  0  0  0  0
 25 31  1  6  0  0  0
 25 26  1  0  0  0  0
 25 23  1  0  0  0  0
 25 24  1  0  0  0  0
 26 27  1  0  0  0  0
 26 33  1  0  0  0  0
 27 28  1  0  0  0  0
 28 35  1  0  0  0  0
 28 29  1  0  0  0  0
 29 37  1  0  0  0  0
 29 36  1  1  0  0  0
 30 24  1  0  0  0  0
 32 26  1  0  0  0  0
 34 28  1  0  0  0  0
 37 38  1  0  0  0  0
 37 39  1  0  0  0  0
 38 39  1  0  0  0  0
M  END
>  <minimizedAffinity>
-5.27944183

$$$$

 OpenBabel03252509153D

 39 43  0  0  1  0  0  0  0  0999 V2000
   36.9280   29.8920   39.7660 C   0  0  0  0  0  0  0  0  0  0  0  0
   37.8780   29.6980   40.7640 C   0  0  0  0  0  0  0  0  0  0  0  0
   38.6440   30.7230   41.2960 C   0  0  0  0  0  0  0  0  0  0  0  0
   38.4560   32.0200   40.8110 C   0  0  0  0  0  0  0  0  0  0  0  0
   39.0000   33.2300   41.0800 N   0  0  0  0  0  0  0  0  0  0  0  0
   38.4230   34.1610   40.2890 C   0  0  0  0  0  0  0  0  0  0  0  0
   37.5280   33.5090   39.5400 N   0  0  0  0  0  0  0  0  0  0  0  0
   37.5180   32.1940   39.8320 C   0  0  0  0  0  0  0  0  0  0  0  0
   36.7370   31.1940   39.2770 C   0  0  0  0  0  0  0  0  0  0  0  0
   36.3570   29.0600   39.3830 H   0  0  0  0  0  0  0  0  0  0  0  0
   39.7460   33.3550   41.8000 H   0  0  0  0  0  0  0  0  0  0  0  0
   38.6590   35.2300   40.2820 H   0  0  0  0  0  0  0  0  0  0  0  0
   36.0100   31.3950   38.5020 H   0  0  0  0  0  0  0  0  0  0  0  0
   39.2340   26.3140   41.1970 C   0  0  0  0  0  0  0  0  0  0  0  0
   38.4670   25.8070   42.2410 C   0  0  0  0  0  0  0  0  0  0  0  0
   37.4890   26.6290   42.7910 C   0  0  0  0  0  0  0  0  0  0  0  0
   37.3090   27.8980   42.2970 N   0  0  0  0  0  0  0  0  0  0  0  0
   38.0830   28.3440   41.2780 C   0  0  0  0  0  0  0  0  0  0  0  0
   39.0530   27.5780   40.7080 N   0  0  0  0  0  0  0  0  0  0  0  0
   40.0060   25.7170   40.7370 H   0  0  0  0  0  0  0  0  0  0  0  0
   38.6470   24.7960   42.5980 H   0  0  0  0  0  0  0  0  0  0  0  0
   36.8770   26.2720   43.5970 H   0  0  0  0  0  0  0  0  0  0  0  0
   39.8430   30.4420   42.5630 S   0  0  0  0  0  0  0  0  0  0  0  0
   41.7030   32.2680   42.2150 N   0  0  0  0  0  0  0  0  0  0  0  0
   41.5450   30.8400   42.0510 C   0  0  1  0  0  0  0  0  0  0  0  0
   42.4440   30.0840   43.0370 C   0  0  0  0  0  0  0  0  0  0  0  0
   43.7230   30.6030   43.0990 O   0  0  0  0  0  0  0  0  0  0  0  0
   44.0370   31.5430   42.1450 C   0  0  0  0  0  0  0  0  0  0  0  0
   43.0710   32.6850   42.2620 C   0  0  1  0  0  0  0  0  0  0  0  0
   41.1210   32.7290   41.4990 H   0  0  0  0  0  0  0  0  0  0  0  0
   41.7550   30.5090   41.0150 H   0  0  0  0  0  0  0  0  0  0  0  0
   42.5820   29.0570   42.7180 H   0  0  0  0  0  0  0  0  0  0  0  0
   42.0050   30.1820   44.0510 H   0  0  0  0  0  0  0  0  0  0  0  0
   43.9640   31.0520   41.1510 H   0  0  0  0  0  0  0  0  0  0  0  0
   45.0580   31.8780   42.3390 H   0  0  0  0  0  0  0  0  0  0  0  0
   43.2260   33.1010   43.2990 H   0  0  0  0  0  0  0  0  0  0  0  0
   43.3770   33.8320   41.3360 C   0  0  0  0  0  3  0  0  0  0  0  0
   43.9860   33.6370   40.0080 C   0  0  0  0  0  2  0  0  0  0  0  0
   42.5810   34.1600   40.1550 C   0  0  0  0  0  2  0  0  0  0  0  0
  1  2  1  0  0  0  0
  2 18  1  0  0  0  0
  2  3  2  0  0  0  0
  3 23  1  0  0  0  0
  4  5  1  0  0  0  0
  4  3  1  0  0  0  0
  5 11  1  0  0  0  0
  6  5  1  0  0  0  0
  7  8  1  0  0  0  0
  7  6  2  0  0  0  0
  8  4  2  0  0  0  0
  9  1  2  0  0  0  0
  9  8  1  0  0  0  0
 10  1  1  0  0  0  0
 12  6  1  0  0  0  0
 13  9  1  0  0  0  0
 14 15  1  0  0  0  0
 15 21  1  0  0  0  0
 15 16  2  0  0  0  0
 16 22  1  0  0  0  0
 17 16  1  0  0  0  0
 18 17  2  0  0  0  0
 19 14  2  0  0  0  0
 19 18  1  0  0  0  0
 20 14  1  0  0  0  0
 24 29  1  0  0  0  0
 25 31  1  6  0  0  0
 25 24  1  0  0  0  0
 25 23  1  0  0  0  0
 25 26  1  0  0  0  0
 26 27  1  0  0  0  0
 26 33  1  0  0  0  0
 28 29  1  0  0  0  0
 28 35  1  0  0  0  0
 28 27  1  0  0  0  0
 29 36  1  1  0  0  0
 30 24  1  0  0  0  0
 32 26  1  0  0  0  0
 34 28  1  0  0  0  0
 37 29  1  0  0  0  0
 38 39  1  0  0  0  0
 38 37  1  0  0  0  0
 39 37  1  0  0  0  0
M  END
>  <minimizedAffinity>
-5.21258497

$$$$
