
 OpenBabel03252501563D

 15 16  0  0  0  0  0  0  0  0999 V2000
   44.9880   34.8990   44.8880 C   0  0  0  0  0  0  0  0  0  0  0  0
   45.5310   35.1810   43.6380 C   0  0  0  0  0  0  0  0  0  0  0  0
   46.6430   34.4430   43.2210 C   0  0  0  0  0  0  0  0  0  0  0  0
   47.1230   33.4990   44.0560 N   0  0  0  0  0  0  0  0  0  0  0  0
   46.5820   33.2410   45.2600 C   0  0  0  0  0  0  0  0  0  0  0  0
   45.5040   33.9370   45.6990 N   0  0  0  0  0  0  0  0  0  0  0  0
   44.1240   35.4150   45.3060 H   0  0  0  0  0  0  0  0  0  0  0  0
   47.1370   32.4490   45.7430 H   0  0  0  0  0  0  0  0  0  0  0  0
   44.8640   36.2520   42.8700 C   0  0  0  0  0  0  0  0  0  0  0  0
   44.9970   36.2110   41.7840 H   0  0  0  0  0  0  0  0  0  0  0  0
   45.2200   37.2150   43.3250 H   0  0  0  0  0  0  0  0  0  0  0  0
   43.7690   36.1760   43.0480 H   0  0  0  0  0  0  0  0  0  0  0  0
   47.1850   34.7760   41.8910 C   0  0  0  0  0  0  0  0  0  0  0  0
   48.5150   34.0440   41.5670 C   0  0  0  0  0  0  0  0  0  0  0  0
   48.5070   35.5070   41.7890 C   0  0  0  0  0  0  0  0  0  0  0  0
  1  7  1  0  0  0  0
  1  6  1  0  0  0  0
  2  1  2  0  0  0  0
  3  2  1  0  0  0  0
  3  4  2  0  0  0  0
  4  5  1  0  0  0  0
  5  6  2  0  0  0  0
  5  8  1  0  0  0  0
  9 12  1  0  0  0  0
  9 11  1  0  0  0  0
  9  2  1  0  0  0  0
 10  9  1  0  0  0  0
 13  3  1  0  0  0  0
 14 15  1  0  0  0  0
 14 13  1  0  0  0  0
 15 13  1  0  0  0  0
M  END
>  <minimizedAffinity>
-3.79082751

>  <minimizedRMSD>
1.89145887

$$$$
