
 OpenBabel03252504423D

 39 42  0  0  0  0  0  0  0  0999 V2000
   46.3170   32.0990   48.0020 C   0  0  0  0  0  0  0  0  0  0  0  0
   45.8510   31.5330   49.1500 C   0  0  0  0  0  0  0  0  0  0  0  0
   46.8570   30.8200   49.6580 N   0  0  0  0  0  0  0  0  0  0  0  0
   47.9440   30.9090   48.8840 C   0  0  0  0  0  0  0  0  0  0  0  0
   47.5930   31.7170   47.8430 N   0  0  0  0  0  0  0  0  0  0  0  0
   49.2440   30.3410   49.0020 N   0  0  0  0  0  0  0  0  0  0  0  0
   50.2460   31.1140   49.7720 C   0  0  0  0  0  0  0  0  0  0  0  0
   50.3500   30.3800   51.1080 C   0  0  0  0  0  0  0  0  0  0  0  0
   50.5220   28.9020   50.8790 C   0  0  0  0  0  0  0  0  0  0  0  0
   50.9210   28.6470   49.4340 C   0  0  0  0  0  0  0  0  0  0  0  0
   49.8190   29.1280   48.5160 C   0  0  0  0  0  0  0  0  0  0  0  0
   44.8510   31.6420   49.5690 H   0  0  0  0  0  0  0  0  0  0  0  0
   46.8430   30.2540   50.5390 H   0  0  0  0  0  0  0  0  0  0  0  0
   51.2020   31.1510   49.2390 H   0  0  0  0  0  0  0  0  0  0  0  0
   49.8670   32.1290   50.0040 H   0  0  0  0  0  0  0  0  0  0  0  0
   49.4320   30.5380   51.6770 H   0  0  0  0  0  0  0  0  0  0  0  0
   51.2460   30.7730   51.6510 H   0  0  0  0  0  0  0  0  0  0  0  0
   49.5740   28.3460   51.0290 H   0  0  0  0  0  0  0  0  0  0  0  0
   51.3040   28.4450   51.5370 H   0  0  0  0  0  0  0  0  0  0  0  0
   51.0940   27.5670   49.2880 H   0  0  0  0  0  0  0  0  0  0  0  0
   51.8550   29.2130   49.2590 H   0  0  0  0  0  0  0  0  0  0  0  0
   50.1980   29.2320   47.4760 H   0  0  0  0  0  0  0  0  0  0  0  0
   49.0440   28.3100   48.5410 H   0  0  0  0  0  0  0  0  0  0  0  0
   45.5540   32.9930   47.0800 C   0  0  0  0  0  0  0  0  0  0  0  0
   45.4200   33.9850   47.5690 H   0  0  0  0  0  0  0  0  0  0  0  0
   44.5460   32.5580   46.8790 H   0  0  0  0  0  0  0  0  0  0  0  0
   45.8480   33.9550   44.8280 C   0  0  0  0  0  3  0  0  0  0  0  0
   46.2870   33.1970   45.8140 C   0  0  0  0  0  3  0  0  0  0  0  0
   46.6780   34.0610   43.6330 C   0  0  0  0  0  0  0  0  0  0  0  0
   46.3960   35.0150   42.6150 C   0  0  0  0  0  0  0  0  0  0  0  0
   47.2310   35.0450   41.5180 C   0  0  0  0  0  0  0  0  0  0  0  0
   48.2680   34.1870   41.4390 N   0  0  0  0  0  0  0  0  0  0  0  0
   48.5150   33.2930   42.4170 C   0  0  0  0  0  0  0  0  0  0  0  0
   47.7470   33.2270   43.4840 N   0  0  0  0  0  0  0  0  0  0  0  0
   45.5460   35.6590   42.7630 H   0  0  0  0  0  0  0  0  0  0  0  0
   46.9910   35.7780   40.7620 H   0  0  0  0  0  0  0  0  0  0  0  0
   49.6710   32.3710   42.2830 C   0  0  0  0  0  3  0  0  0  0  0  0
   51.0530   32.9420   42.1320 C   0  0  0  0  0  2  0  0  0  0  0  0
   50.3830   32.2000   41.0060 C   0  0  0  0  0  2  0  0  0  0  0  0
  1  2  2  0  0  0  0
  2 12  1  0  0  0  0
  2  3  1  0  0  0  0
  3 13  1  0  0  0  0
  4  6  1  0  0  0  0
  4  3  1  0  0  0  0
  5  1  1  0  0  0  0
  5  4  2  0  0  0  0
  6  7  1  0  0  0  0
  7 15  1  0  0  0  0
  7  8  1  0  0  0  0
  8 17  1  0  0  0  0
  8 16  1  0  0  0  0
  9 18  1  0  0  0  0
  9  8  1  0  0  0  0
  9 19  1  0  0  0  0
 10  9  1  0  0  0  0
 11 23  1  0  0  0  0
 11  6  1  0  0  0  0
 11 10  1  0  0  0  0
 14  7  1  0  0  0  0
 20 10  1  0  0  0  0
 21 10  1  0  0  0  0
 22 11  1  0  0  0  0
 24 25  1  0  0  0  0
 24  1  1  0  0  0  0
 26 24  1  0  0  0  0
 27 28  2  0  0  0  0
 28 24  1  0  0  0  0
 29 27  1  0  0  0  0
 30 35  1  0  0  0  0
 30 29  2  0  0  0  0
 31 30  1  0  0  0  0
 32 31  2  0  0  0  0
 32 33  1  0  0  0  0
 33 34  2  0  0  0  0
 34 29  1  0  0  0  0
 36 31  1  0  0  0  0
 37 33  1  0  0  0  0
 38 37  1  0  0  0  0
 39 38  1  0  0  0  0
 39 37  1  0  0  0  0
M  END
>  <minimizedAffinity>
-5.86762905

>  <minimizedRMSD>
0.548015833

$$$$
