
 OpenBabel03252509183D

 35 38  0  0  1  0  0  0  0  0999 V2000
   47.5170   32.5190   40.8650 C   0  0  1  0  0  0  0  0  0  0  0  0
   47.9880   31.1930   40.3750 C   0  0  0  0  0  0  0  0  0  0  0  0
   49.4530   31.1010   40.1000 C   0  0  0  0  0  0  0  0  0  0  0  0
   50.3020   31.7850   41.1400 C   0  0  0  0  0  0  0  0  0  0  0  0
   49.7600   33.1320   41.5580 C   0  0  0  0  0  0  0  0  0  0  0  0
   48.6400   33.5480   40.6070 C   0  0  2  0  0  0  0  0  0  0  0  0
   47.4170   32.5330   41.9740 H   0  0  0  0  0  0  0  0  0  0  0  0
   47.7070   30.4140   41.1160 H   0  0  0  0  0  0  0  0  0  0  0  0
   47.4670   30.8800   39.4230 H   0  0  0  0  0  0  0  0  0  0  0  0
   49.7160   30.0150   40.1500 H   0  0  0  0  0  0  0  0  0  0  0  0
   49.6550   31.4250   39.0640 H   0  0  0  0  0  0  0  0  0  0  0  0
   51.3010   31.9790   40.6600 H   0  0  0  0  0  0  0  0  0  0  0  0
   50.5120   31.1210   42.0020 H   0  0  0  0  0  0  0  0  0  0  0  0
   50.5350   33.9030   41.6390 H   0  0  0  0  0  0  0  0  0  0  0  0
   49.2800   33.0060   42.5650 H   0  0  0  0  0  0  0  0  0  0  0  0
   48.9560   33.5360   39.5620 H   0  0  0  0  0  0  0  0  0  0  0  0
   43.7480   33.9060   40.0280 C   0  0  0  0  0  0  0  0  0  0  0  0
   44.3970   33.3920   38.8950 C   0  0  0  0  0  0  0  0  0  0  0  0
   45.6410   32.9030   39.0440 C   0  0  0  0  0  0  0  0  0  0  0  0
   46.2560   32.9170   40.3130 C   0  0  0  0  0  0  0  0  0  0  0  0
   44.9800   33.6760   41.3700 S   0  0  0  0  0  0  0  0  0  0  0  0
   43.9240   33.3830   37.9250 H   0  0  0  0  0  0  0  0  0  0  0  0
   46.2930   32.4710   38.3020 H   0  0  0  0  0  0  0  0  0  0  0  0
   40.5230   35.5550   39.1800 C   0  0  0  0  0  0  0  0  0  0  0  0
   39.8530   35.4230   40.4240 C   0  0  0  0  0  0  0  0  0  0  0  0
   40.5330   34.7780   41.4890 C   0  0  0  0  0  0  0  0  0  0  0  0
   41.7920   34.3270   41.2440 N   0  0  0  0  0  0  0  0  0  0  0  0
   42.3940   34.4780   40.0300 C   0  0  0  0  0  0  0  0  0  0  0  0
   41.7640   35.0910   38.9970 N   0  0  0  0  0  0  0  0  0  0  0  0
   40.0230   36.0400   38.3650 H   0  0  0  0  0  0  0  0  0  0  0  0
   38.8500   35.7990   40.5710 H   0  0  0  0  0  0  0  0  0  0  0  0
   40.0570   34.6640   42.4330 H   0  0  0  0  0  0  0  0  0  0  0  0
   48.1210   34.8910   41.0740 C   0  0  0  0  0  3  0  0  0  0  0  0
   48.2970   35.2040   42.5140 C   0  0  0  0  0  2  0  0  0  0  0  0
   49.1290   35.9090   41.4540 C   0  0  0  0  0  2  0  0  0  0  0  0
  1  7  1  1  0  0  0
  2  1  1  0  0  0  0
  2  8  1  0  0  0  0
  3 10  1  0  0  0  0
  3  2  1  0  0  0  0
  3  4  1  0  0  0  0
  4  5  1  0  0  0  0
  4 13  1  0  0  0  0
  5 14  1  0  0  0  0
  5 15  1  0  0  0  0
  6 16  1  6  0  0  0
  6  1  1  0  0  0  0
  6 33  1  0  0  0  0
  6  5  1  0  0  0  0
  9  2  1  0  0  0  0
 11  3  1  0  0  0  0
 12  4  1  0  0  0  0
 17 28  1  0  0  0  0
 17 21  1  0  0  0  0
 18 19  1  0  0  0  0
 18 17  2  0  0  0  0
 19 20  2  0  0  0  0
 20  1  1  0  0  0  0
 20 21  1  0  0  0  0
 22 18  1  0  0  0  0
 23 19  1  0  0  0  0
 24 25  1  0  0  0  0
 25 31  1  0  0  0  0
 25 26  2  0  0  0  0
 26 32  1  0  0  0  0
 27 26  1  0  0  0  0
 28 27  2  0  0  0  0
 29 24  2  0  0  0  0
 29 28  1  0  0  0  0
 30 24  1  0  0  0  0
 33 35  1  0  0  0  0
 33 34  1  0  0  0  0
 35 34  1  0  0  0  0
M  END
>  <minimizedAffinity>
-4.8960247

>  <minimizedRMSD>
7.72065115

$$$$
