
 OpenBabel03252504423D

 39 42  0  0  0  0  0  0  0  0999 V2000
   46.3080   32.1140   48.0090 C   0  0  0  0  0  0  0  0  0  0  0  0
   45.8400   31.5450   49.1550 C   0  0  0  0  0  0  0  0  0  0  0  0
   46.8520   30.8460   49.6730 N   0  0  0  0  0  0  0  0  0  0  0  0
   47.9430   30.9460   48.9070 C   0  0  0  0  0  0  0  0  0  0  0  0
   47.5910   31.7470   47.8610 N   0  0  0  0  0  0  0  0  0  0  0  0
   49.2490   30.3950   49.0370 N   0  0  0  0  0  0  0  0  0  0  0  0
   50.2350   31.1840   49.8130 C   0  0  0  0  0  0  0  0  0  0  0  0
   50.3380   30.4550   51.1520 C   0  0  0  0  0  0  0  0  0  0  0  0
   50.5310   28.9790   50.9290 C   0  0  0  0  0  0  0  0  0  0  0  0
   50.9450   28.7240   49.4880 C   0  0  0  0  0  0  0  0  0  0  0  0
   49.8440   29.1890   48.5590 C   0  0  0  0  0  0  0  0  0  0  0  0
   44.8350   31.6420   49.5650 H   0  0  0  0  0  0  0  0  0  0  0  0
   46.8380   30.2820   50.5560 H   0  0  0  0  0  0  0  0  0  0  0  0
   51.1950   31.2310   49.2880 H   0  0  0  0  0  0  0  0  0  0  0  0
   49.8410   32.1940   50.0400 H   0  0  0  0  0  0  0  0  0  0  0  0
   49.4140   30.6020   51.7130 H   0  0  0  0  0  0  0  0  0  0  0  0
   51.2240   30.8610   51.7010 H   0  0  0  0  0  0  0  0  0  0  0  0
   49.5890   28.4110   51.0730 H   0  0  0  0  0  0  0  0  0  0  0  0
   51.3130   28.5340   51.5940 H   0  0  0  0  0  0  0  0  0  0  0  0
   51.1320   27.6460   49.3460 H   0  0  0  0  0  0  0  0  0  0  0  0
   51.8730   29.3020   49.3190 H   0  0  0  0  0  0  0  0  0  0  0  0
   50.2300   29.2950   47.5220 H   0  0  0  0  0  0  0  0  0  0  0  0
   49.0790   28.3610   48.5810 H   0  0  0  0  0  0  0  0  0  0  0  0
   45.5420   32.9950   47.0790 C   0  0  0  0  0  0  0  0  0  0  0  0
   45.3960   33.9880   47.5620 H   0  0  0  0  0  0  0  0  0  0  0  0
   44.5390   32.5500   46.8750 H   0  0  0  0  0  0  0  0  0  0  0  0
   45.8420   33.9550   44.8270 C   0  0  0  0  0  3  0  0  0  0  0  0
   46.2790   33.2000   45.8150 C   0  0  0  0  0  3  0  0  0  0  0  0
   46.6760   34.0620   43.6340 C   0  0  0  0  0  0  0  0  0  0  0  0
   46.3970   35.0140   42.6150 C   0  0  0  0  0  0  0  0  0  0  0  0
   47.2350   35.0450   41.5200 C   0  0  0  0  0  0  0  0  0  0  0  0
   48.2740   34.1890   41.4460 N   0  0  0  0  0  0  0  0  0  0  0  0
   48.5180   33.2950   42.4250 C   0  0  0  0  0  0  0  0  0  0  0  0
   47.7460   33.2280   43.4890 N   0  0  0  0  0  0  0  0  0  0  0  0
   45.5450   35.6580   42.7600 H   0  0  0  0  0  0  0  0  0  0  0  0
   46.9970   35.7780   40.7630 H   0  0  0  0  0  0  0  0  0  0  0  0
   49.6750   32.3740   42.2960 C   0  0  0  0  0  3  0  0  0  0  0  0
   51.0560   32.9460   42.1420 C   0  0  0  0  0  2  0  0  0  0  0  0
   50.3880   32.1970   41.0190 C   0  0  0  0  0  2  0  0  0  0  0  0
  1  2  2  0  0  0  0
  2 12  1  0  0  0  0
  2  3  1  0  0  0  0
  3 13  1  0  0  0  0
  4  6  1  0  0  0  0
  4  3  1  0  0  0  0
  5  1  1  0  0  0  0
  5  4  2  0  0  0  0
  6  7  1  0  0  0  0
  7 15  1  0  0  0  0
  7  8  1  0  0  0  0
  8 17  1  0  0  0  0
  8 16  1  0  0  0  0
  9 18  1  0  0  0  0
  9  8  1  0  0  0  0
  9 19  1  0  0  0  0
 10  9  1  0  0  0  0
 11 23  1  0  0  0  0
 11  6  1  0  0  0  0
 11 10  1  0  0  0  0
 14  7  1  0  0  0  0
 20 10  1  0  0  0  0
 21 10  1  0  0  0  0
 22 11  1  0  0  0  0
 24 25  1  0  0  0  0
 24  1  1  0  0  0  0
 26 24  1  0  0  0  0
 27 28  2  0  0  0  0
 28 24  1  0  0  0  0
 29 27  1  0  0  0  0
 30 35  1  0  0  0  0
 30 29  2  0  0  0  0
 31 30  1  0  0  0  0
 32 31  2  0  0  0  0
 32 33  1  0  0  0  0
 33 34  2  0  0  0  0
 34 29  1  0  0  0  0
 36 31  1  0  0  0  0
 37 33  1  0  0  0  0
 38 37  1  0  0  0  0
 39 38  1  0  0  0  0
 39 37  1  0  0  0  0
M  END
>  <minimizedAffinity>
-5.87902164

>  <minimizedRMSD>
0.448699981

$$$$
