
 OpenBabel03252509113D

 25 28  0  0  0  0  0  0  0  0999 V2000
   46.8640   33.0280   46.4380 C   0  0  0  0  0  0  0  0  0  0  0  0
   46.5430   32.6720   45.1300 C   0  0  0  0  0  0  0  0  0  0  0  0
   45.8660   31.4880   44.8100 C   0  0  0  0  0  0  0  0  0  0  0  0
   45.4960   30.6310   45.8360 C   0  0  0  0  0  0  0  0  0  0  0  0
   44.8630   29.4380   45.9150 N   0  0  0  0  0  0  0  0  0  0  0  0
   44.7850   29.0560   47.2120 C   0  0  0  0  0  0  0  0  0  0  0  0
   45.3780   30.0290   47.9290 N   0  0  0  0  0  0  0  0  0  0  0  0
   45.8220   31.0030   47.1160 C   0  0  0  0  0  0  0  0  0  0  0  0
   46.4900   32.1640   47.4690 C   0  0  0  0  0  0  0  0  0  0  0  0
   47.3950   33.9670   46.6120 H   0  0  0  0  0  0  0  0  0  0  0  0
   44.4990   28.8910   45.1090 H   0  0  0  0  0  0  0  0  0  0  0  0
   44.3140   28.1240   47.5250 H   0  0  0  0  0  0  0  0  0  0  0  0
   46.7350   32.4350   48.4760 H   0  0  0  0  0  0  0  0  0  0  0  0
   48.5130   34.3450   42.5170 C   0  0  0  0  0  0  0  0  0  0  0  0
   47.5970   35.2400   41.9680 C   0  0  0  0  0  0  0  0  0  0  0  0
   46.3030   35.2650   42.5010 C   0  0  0  0  0  0  0  0  0  0  0  0
   46.0280   34.4040   43.5280 N   0  0  0  0  0  0  0  0  0  0  0  0
   46.9210   33.5520   44.0400 C   0  0  0  0  0  0  0  0  0  0  0  0
   48.1500   33.5330   43.5300 N   0  0  0  0  0  0  0  0  0  0  0  0
   49.5230   34.2270   42.2050 H   0  0  0  0  0  0  0  0  0  0  0  0
   47.9250   35.8610   41.1730 H   0  0  0  0  0  0  0  0  0  0  0  0
   45.5850   35.9400   42.1000 H   0  0  0  0  0  0  0  0  0  0  0  0
   45.5630   31.1550   43.3970 C   0  0  0  0  0  3  0  0  0  0  0  0
   45.8350   29.6710   43.0260 C   0  0  0  0  0  2  0  0  0  0  0  0
   46.6390   30.7700   42.4370 C   0  0  0  0  0  2  0  0  0  0  0  0
  1 10  1  0  0  0  0
  1  9  1  0  0  0  0
  2  1  2  0  0  0  0
  3  2  1  0  0  0  0
  3  4  2  0  0  0  0
  4  5  1  0  0  0  0
  4  8  1  0  0  0  0
  5  6  1  0  0  0  0
  6 12  1  0  0  0  0
  6  7  2  0  0  0  0
  8  9  2  0  0  0  0
  8  7  1  0  0  0  0
  9 13  1  0  0  0  0
 11  5  1  0  0  0  0
 14 19  1  0  0  0  0
 15 16  1  0  0  0  0
 15 14  2  0  0  0  0
 16 17  2  0  0  0  0
 17 18  1  0  0  0  0
 18  2  1  0  0  0  0
 19 18  2  0  0  0  0
 20 14  1  0  0  0  0
 21 15  1  0  0  0  0
 22 16  1  0  0  0  0
 23  3  1  0  0  0  0
 24 23  1  0  0  0  0
 25 24  1  0  0  0  0
 25 23  1  0  0  0  0
M  END
>  <minimizedAffinity>
-4.03961372

>  <minimizedRMSD>
3.18291402

$$$$
