
 OpenBabel03252507333D

 43 46  0  0  1  0  0  0  0  0999 V2000
   47.4670   30.9760   45.8020 C   0  0  2  0  0  0  0  0  0  0  0  0
   46.7050   29.7430   45.2290 C   0  0  0  0  0  0  0  0  0  0  0  0
   47.3310   28.4920   45.7400 C   0  0  0  0  0  0  0  0  0  0  0  0
   47.6740   28.4730   47.1900 C   0  0  0  0  0  0  0  0  0  0  0  0
   48.1670   29.7280   47.7030 C   0  0  0  0  0  0  0  0  0  0  0  0
   47.3460   30.9550   47.2470 C   0  0  2  0  0  0  0  0  0  0  0  0
   48.5090   30.7980   45.4640 H   0  0  0  0  0  0  0  0  0  0  0  0
   46.8520   29.8310   44.1340 H   0  0  0  0  0  0  0  0  0  0  0  0
   45.6260   29.8420   45.4020 H   0  0  0  0  0  0  0  0  0  0  0  0
   48.1400   28.2330   45.0320 H   0  0  0  0  0  0  0  0  0  0  0  0
   46.5650   27.6770   45.5770 H   0  0  0  0  0  0  0  0  0  0  0  0
   48.6820   27.8940   47.1290 H   0  0  0  0  0  0  0  0  0  0  0  0
   47.2120   27.7140   47.8220 H   0  0  0  0  0  0  0  0  0  0  0  0
   49.2100   30.0340   47.4810 H   0  0  0  0  0  0  0  0  0  0  0  0
   48.1050   29.7330   48.8210 H   0  0  0  0  0  0  0  0  0  0  0  0
   47.7920   31.7410   47.8580 H   0  0  0  0  0  0  0  0  0  0  0  0
   46.9930   32.2130   45.2150 C   0  0  0  0  0  0  0  0  0  0  0  0
   45.9360   32.8590   45.8480 C   0  0  0  0  0  0  0  0  0  0  0  0
   45.4240   34.0550   45.2970 C   0  0  0  0  0  0  0  0  0  0  0  0
   46.0300   34.5150   44.1330 N   0  0  0  0  0  0  0  0  0  0  0  0
   47.0440   33.8460   43.5760 C   0  0  0  0  0  0  0  0  0  0  0  0
   47.5170   32.7160   44.1050 N   0  0  0  0  0  0  0  0  0  0  0  0
   45.3610   32.7130   46.7360 H   0  0  0  0  0  0  0  0  0  0  0  0
   44.6380   34.6750   45.6290 H   0  0  0  0  0  0  0  0  0  0  0  0
   47.6520   34.3950   42.3590 C   0  0  0  0  0  0  0  0  0  0  0  0
   48.5410   35.4450   42.4200 C   0  0  0  0  0  0  0  0  0  0  0  0
   49.1590   36.0220   41.3400 C   0  0  0  0  0  0  0  0  0  0  0  0
   48.8200   35.4620   40.1330 C   0  0  0  0  0  0  0  0  0  0  0  0
   47.9320   34.4070   40.0370 C   0  0  0  0  0  0  0  0  0  0  0  0
   47.3460   33.8740   41.1600 N   0  0  0  0  0  0  0  0  0  0  0  0
   48.7440   35.8210   43.4320 H   0  0  0  0  0  0  0  0  0  0  0  0
   49.8520   36.8470   41.4260 H   0  0  0  0  0  0  0  0  0  0  0  0
   49.2400   35.8270   39.2040 H   0  0  0  0  0  0  0  0  0  0  0  0
   47.5340   33.7650   38.7510 C   0  0  0  0  0  0  0  0  0  0  0  0
   48.1230   34.2400   37.4750 C   0  0  0  0  0  0  0  0  0  0  0  0
   48.6430   32.9430   38.0870 C   0  0  0  0  0  0  0  0  0  0  0  0
   45.9470   30.7470   47.6260 N   0  0  0  0  0  0  0  0  0  0  0  0
   45.3370   30.5630   48.8800 C   0  0  0  0  0  0  0  0  0  0  0  0
   45.1210   31.5260   49.7000 O   0  0  0  0  0  0  0  0  0  0  0  0
   44.9660   29.2160   49.1710 N   0  0  0  0  0  0  0  0  0  0  0  0
   45.1590   30.6380   46.8810 H   0  0  0  0  0  0  0  0  0  0  0  0
   44.3720   28.5370   48.6550 H   0  0  0  0  0  0  0  0  0  0  0  0
   45.2310   28.6170   50.0030 H   0  0  0  0  0  0  0  0  0  0  0  0
  1  7  1  6  0  0  0
  1  6  1  0  0  0  0
  2  9  1  0  0  0  0
  2  3  1  0  0  0  0
  2  1  1  0  0  0  0
  3  4  1  0  0  0  0
  4  5  1  0  0  0  0
  4 13  1  0  0  0  0
  5 15  1  0  0  0  0
  6 37  1  0  0  0  0
  6  5  1  0  0  0  0
  6 16  1  1  0  0  0
  8  2  1  0  0  0  0
 10  3  1  0  0  0  0
 11  3  1  0  0  0  0
 12  4  1  0  0  0  0
 14  5  1  0  0  0  0
 17  1  1  0  0  0  0
 17 18  1  0  0  0  0
 18 23  1  0  0  0  0
 19 24  1  0  0  0  0
 19 18  2  0  0  0  0
 20 19  1  0  0  0  0
 21 22  1  0  0  0  0
 21 20  2  0  0  0  0
 22 17  2  0  0  0  0
 25 26  1  0  0  0  0
 25 21  1  0  0  0  0
 26 31  1  0  0  0  0
 27 32  1  0  0  0  0
 27 26  2  0  0  0  0
 28 27  1  0  0  0  0
 29 28  2  0  0  0  0
 29 30  1  0  0  0  0
 30 25  2  0  0  0  0
 33 28  1  0  0  0  0
 34 29  1  0  0  0  0
 35 36  1  0  0  0  0
 35 34  1  0  0  0  0
 36 34  1  0  0  0  0
 37 38  1  0  0  0  0
 38 40  1  0  0  0  0
 38 39  2  0  0  0  0
 40 43  1  0  0  0  0
 41 37  1  0  0  0  0
 42 40  1  0  0  0  0
M  END
>  <minimizedAffinity>
-6.09681892

>  <minimizedRMSD>
1.35265207

$$$$
