
 OpenBabel03252503483D

 38 41  0  0  1  0  0  0  0  0999 V2000
   39.1390   28.3990   39.0210 C   0  0  0  0  0  0  0  0  0  0  0  0
   37.7970   28.7400   39.1570 C   0  0  0  0  0  0  0  0  0  0  0  0
   37.5010   30.1000   39.2190 C   0  0  0  0  0  0  0  0  0  0  0  0
   38.4670   31.0430   39.1470 N   0  0  0  0  0  0  0  0  0  0  0  0
   39.7650   30.6640   39.0130 C   0  0  0  0  0  0  0  0  0  0  0  0
   40.1040   29.3600   38.9510 N   0  0  0  0  0  0  0  0  0  0  0  0
   39.4140   27.3550   38.9700 H   0  0  0  0  0  0  0  0  0  0  0  0
   36.5660   30.6110   39.3410 H   0  0  0  0  0  0  0  0  0  0  0  0
   41.1460   32.0190   37.4460 C   0  0  2  0  0  0  0  0  0  0  0  0
   40.7760   31.7170   38.9310 C   0  0  1  0  0  0  0  0  0  0  0  0
   40.3760   32.9560   39.2960 O   0  0  0  0  0  0  0  0  0  0  0  0
   41.3120   33.8440   38.8430 C   0  0  0  0  0  0  0  0  0  0  0  0
   42.0800   33.1980   37.7090 C   0  0  2  0  0  0  0  0  0  0  0  0
   41.6700   31.1650   37.0130 H   0  0  0  0  0  0  0  0  0  0  0  0
   41.7360   31.3790   39.3540 H   0  0  0  0  0  0  0  0  0  0  0  0
   42.0570   33.9770   39.6790 H   0  0  0  0  0  0  0  0  0  0  0  0
   40.9400   34.8180   38.5240 H   0  0  0  0  0  0  0  0  0  0  0  0
   43.0270   32.7210   38.0760 H   0  0  0  0  0  0  0  0  0  0  0  0
   40.0760   32.4920   36.7860 O   0  0  0  0  0  0  0  0  0  0  0  0
   39.5050   33.0060   37.3810 H   0  0  0  0  0  0  0  0  0  0  0  0
   42.2620   34.0060   36.6240 O   0  0  0  0  0  0  0  0  0  0  0  0
   41.9060   33.5470   35.8190 H   0  0  0  0  0  0  0  0  0  0  0  0
   36.7650   27.7290   39.2260 C   0  0  0  0  0  0  0  0  0  0  0  0
   36.4360   27.3410   38.2360 H   0  0  0  0  0  0  0  0  0  0  0  0
   35.8490   28.1640   39.6780 H   0  0  0  0  0  0  0  0  0  0  0  0
   37.2060   26.5870   40.0470 C   0  0  0  0  0  0  0  0  0  0  0  0
   37.7690   25.4230   39.5330 C   0  0  0  0  0  0  0  0  0  0  0  0
   38.1470   24.3600   40.3130 C   0  0  0  0  0  0  0  0  0  0  0  0
   37.9580   24.4490   41.6670 C   0  0  0  0  0  0  0  0  0  0  0  0
   37.3970   25.6100   42.1900 C   0  0  0  0  0  0  0  0  0  0  0  0
   37.0030   26.7220   41.4060 C   0  0  0  0  0  0  0  0  0  0  0  0
   37.8700   25.4580   38.4550 H   0  0  0  0  0  0  0  0  0  0  0  0
   38.5660   23.5330   39.7810 H   0  0  0  0  0  0  0  0  0  0  0  0
   38.2640   23.6010   42.2360 H   0  0  0  0  0  0  0  0  0  0  0  0
   37.3200   25.5230   43.2770 H   0  0  0  0  0  0  0  0  0  0  0  0
   36.5700   27.8540   42.2220 C   0  0  0  0  0  3  0  0  0  0  0  0
   37.6890   28.7250   42.7660 C   0  0  0  0  0  2  0  0  0  0  0  0
   36.8920   27.8440   43.6780 C   0  0  0  0  0  2  0  0  0  0  0  0
  1  2  1  0  0  0  0
  2  3  2  0  0  0  0
  2 23  1  0  0  0  0
  3  8  1  0  0  0  0
  4  3  1  0  0  0  0
  5  4  2  0  0  0  0
  6  5  1  0  0  0  0
  6  1  2  0  0  0  0
  7  1  1  0  0  0  0
  9 14  1  6  0  0  0
  9 13  1  0  0  0  0
  9 10  1  0  0  0  0
 10  5  1  0  0  0  0
 10 11  1  0  0  0  0
 10 15  1  1  0  0  0
 12 11  1  0  0  0  0
 12 16  1  0  0  0  0
 13 18  1  1  0  0  0
 13 12  1  0  0  0  0
 17 12  1  0  0  0  0
 19 20  1  0  0  0  0
 19  9  1  0  0  0  0
 21 13  1  0  0  0  0
 22 21  1  0  0  0  0
 23 25  1  0  0  0  0
 23 26  1  0  0  0  0
 24 23  1  0  0  0  0
 26 31  1  0  0  0  0
 27 26  2  0  0  0  0
 27 28  1  0  0  0  0
 28 29  2  0  0  0  0
 29 30  1  0  0  0  0
 29 34  1  0  0  0  0
 30 35  1  0  0  0  0
 31 30  2  0  0  0  0
 31 36  1  0  0  0  0
 32 27  1  0  0  0  0
 33 28  1  0  0  0  0
 36 37  1  0  0  0  0
 36 38  1  0  0  0  0
 37 38  1  0  0  0  0
M  END
>  <minimizedAffinity>
-6.41823387

$$$$

 OpenBabel03252503483D

 38 41  0  0  1  0  0  0  0  0999 V2000
   39.2280   28.6960   39.3280 C   0  0  0  0  0  0  0  0  0  0  0  0
   37.8770   29.0170   39.2380 C   0  0  0  0  0  0  0  0  0  0  0  0
   37.5650   30.3630   39.0600 C   0  0  0  0  0  0  0  0  0  0  0  0
   38.5240   31.3120   38.9770 N   0  0  0  0  0  0  0  0  0  0  0  0
   39.8310   30.9520   39.0690 C   0  0  0  0  0  0  0  0  0  0  0  0
   40.1850   29.6630   39.2440 N   0  0  0  0  0  0  0  0  0  0  0  0
   39.5150   27.6640   39.4670 H   0  0  0  0  0  0  0  0  0  0  0  0
   36.6180   30.8620   38.9840 H   0  0  0  0  0  0  0  0  0  0  0  0
   41.2840   32.2090   37.4840 C   0  0  2  0  0  0  0  0  0  0  0  0
   40.8370   32.0090   38.9650 C   0  0  1  0  0  0  0  0  0  0  0  0
   40.4070   33.2660   39.2190 O   0  0  0  0  0  0  0  0  0  0  0  0
   41.3590   34.1310   38.7530 C   0  0  0  0  0  0  0  0  0  0  0  0
   42.1920   33.4160   37.7110 C   0  0  2  0  0  0  0  0  0  0  0  0
   41.8370   31.3330   37.1430 H   0  0  0  0  0  0  0  0  0  0  0  0
   41.7750   31.7140   39.4630 H   0  0  0  0  0  0  0  0  0  0  0  0
   42.0560   34.3330   39.6160 H   0  0  0  0  0  0  0  0  0  0  0  0
   40.9960   35.0750   38.3450 H   0  0  0  0  0  0  0  0  0  0  0  0
   43.1220   32.9780   38.1620 H   0  0  0  0  0  0  0  0  0  0  0  0
   40.2470   32.6200   36.7350 O   0  0  0  0  0  0  0  0  0  0  0  0
   39.6400   33.1690   37.2610 H   0  0  0  0  0  0  0  0  0  0  0  0
   42.4250   34.1450   36.5820 O   0  0  0  0  0  0  0  0  0  0  0  0
   42.1180   33.6260   35.7940 H   0  0  0  0  0  0  0  0  0  0  0  0
   36.8520   27.9990   39.3190 C   0  0  0  0  0  0  0  0  0  0  0  0
   36.9650   27.1740   38.5810 H   0  0  0  0  0  0  0  0  0  0  0  0
   35.8630   28.4490   39.0920 H   0  0  0  0  0  0  0  0  0  0  0  0
   36.8080   27.4100   40.6690 C   0  0  0  0  0  0  0  0  0  0  0  0
   36.5440   28.1290   41.8310 C   0  0  0  0  0  0  0  0  0  0  0  0
   36.5360   27.5670   43.0810 C   0  0  0  0  0  0  0  0  0  0  0  0
   36.8040   26.2280   43.1920 C   0  0  0  0  0  0  0  0  0  0  0  0
   37.0690   25.5000   42.0360 C   0  0  0  0  0  0  0  0  0  0  0  0
   37.0780   26.0580   40.7340 C   0  0  0  0  0  0  0  0  0  0  0  0
   36.3480   29.1750   41.6290 H   0  0  0  0  0  0  0  0  0  0  0  0
   36.3160   28.2400   43.8810 H   0  0  0  0  0  0  0  0  0  0  0  0
   36.7900   25.8310   44.1810 H   0  0  0  0  0  0  0  0  0  0  0  0
   37.2570   24.4540   42.2950 H   0  0  0  0  0  0  0  0  0  0  0  0
   37.2520   25.0450   39.6950 C   0  0  0  0  0  3  0  0  0  0  0  0
   35.9650   24.4580   39.1410 C   0  0  0  0  0  2  0  0  0  0  0  0
   36.8720   23.6360   40.0050 C   0  0  0  0  0  2  0  0  0  0  0  0
  1  7  1  0  0  0  0
  2 23  1  0  0  0  0
  2  1  2  0  0  0  0
  3  2  1  0  0  0  0
  4  3  2  0  0  0  0
  4  5  1  0  0  0  0
  5  6  2  0  0  0  0
  6  1  1  0  0  0  0
  8  3  1  0  0  0  0
  9 14  1  6  0  0  0
  9 13  1  0  0  0  0
  9 10  1  0  0  0  0
 10  5  1  0  0  0  0
 10 11  1  0  0  0  0
 10 15  1  1  0  0  0
 12 11  1  0  0  0  0
 12 16  1  0  0  0  0
 13 18  1  1  0  0  0
 13 12  1  0  0  0  0
 17 12  1  0  0  0  0
 19 20  1  0  0  0  0
 19  9  1  0  0  0  0
 21 13  1  0  0  0  0
 22 21  1  0  0  0  0
 23 26  1  0  0  0  0
 24 23  1  0  0  0  0
 25 23  1  0  0  0  0
 26 31  2  0  0  0  0
 26 27  1  0  0  0  0
 27 28  2  0  0  0  0
 28 29  1  0  0  0  0
 28 33  1  0  0  0  0
 29 34  1  0  0  0  0
 30 35  1  0  0  0  0
 30 29  2  0  0  0  0
 31 30  1  0  0  0  0
 32 27  1  0  0  0  0
 36 38  1  0  0  0  0
 36 31  1  0  0  0  0
 37 36  1  0  0  0  0
 37 38  1  0  0  0  0
M  END
>  <minimizedAffinity>
-6.24227762

$$$$

 OpenBabel03252503483D

 38 41  0  0  1  0  0  0  0  0999 V2000
   37.5230   28.4710   43.1530 C   0  0  0  0  0  0  0  0  0  0  0  0
   36.9080   27.4650   42.4130 C   0  0  0  0  0  0  0  0  0  0  0  0
   36.5280   27.7900   41.1120 C   0  0  0  0  0  0  0  0  0  0  0  0
   36.7470   29.0180   40.5920 N   0  0  0  0  0  0  0  0  0  0  0  0
   37.3520   29.9690   41.3510 C   0  0  0  0  0  0  0  0  0  0  0  0
   37.7370   29.7050   42.6160 N   0  0  0  0  0  0  0  0  0  0  0  0
   37.8330   28.2630   44.1670 H   0  0  0  0  0  0  0  0  0  0  0  0
   36.0280   27.2110   40.3600 H   0  0  0  0  0  0  0  0  0  0  0  0
   38.9230   31.3060   39.9550 C   0  0  2  0  0  0  0  0  0  0  0  0
   37.5780   31.2810   40.7450 C   0  0  1  0  0  0  0  0  0  0  0  0
   36.7440   31.6230   39.7380 O   0  0  0  0  0  0  0  0  0  0  0  0
   37.2980   32.6890   39.0850 C   0  0  0  0  0  0  0  0  0  0  0  0
   38.7840   32.7090   39.3700 C   0  0  2  0  0  0  0  0  0  0  0  0
   39.7620   31.2260   40.6470 H   0  0  0  0  0  0  0  0  0  0  0  0
   37.7390   32.0510   41.5170 H   0  0  0  0  0  0  0  0  0  0  0  0
   36.8800   33.6140   39.5730 H   0  0  0  0  0  0  0  0  0  0  0  0
   37.1320   32.7350   38.0080 H   0  0  0  0  0  0  0  0  0  0  0  0
   39.0250   33.3900   40.2300 H   0  0  0  0  0  0  0  0  0  0  0  0
   38.8770   30.4370   38.9310 O   0  0  0  0  0  0  0  0  0  0  0  0
   37.9730   30.3660   38.5810 H   0  0  0  0  0  0  0  0  0  0  0  0
   39.5630   32.9250   38.2710 O   0  0  0  0  0  0  0  0  0  0  0  0
   40.2180   32.1840   38.1910 H   0  0  0  0  0  0  0  0  0  0  0  0
   36.6810   26.1490   42.9700 C   0  0  0  0  0  0  0  0  0  0  0  0
   35.6130   25.9170   43.1760 H   0  0  0  0  0  0  0  0  0  0  0  0
   37.1840   26.0720   43.9560 H   0  0  0  0  0  0  0  0  0  0  0  0
   37.2180   25.1060   42.0780 C   0  0  0  0  0  0  0  0  0  0  0  0
   36.4810   24.4730   41.0820 C   0  0  0  0  0  0  0  0  0  0  0  0
   36.9910   23.4840   40.2800 C   0  0  0  0  0  0  0  0  0  0  0  0
   38.2920   23.0990   40.4720 C   0  0  0  0  0  0  0  0  0  0  0  0
   39.0370   23.7290   41.4650 C   0  0  0  0  0  0  0  0  0  0  0  0
   38.5330   24.7540   42.3020 C   0  0  0  0  0  0  0  0  0  0  0  0
   35.4680   24.8500   41.0170 H   0  0  0  0  0  0  0  0  0  0  0  0
   36.3110   23.0880   39.5570 H   0  0  0  0  0  0  0  0  0  0  0  0
   38.6490   22.3270   39.8300 H   0  0  0  0  0  0  0  0  0  0  0  0
   40.0480   23.3120   41.4850 H   0  0  0  0  0  0  0  0  0  0  0  0
   39.5650   25.3280   43.1630 C   0  0  0  0  0  3  0  0  0  0  0  0
   40.4600   26.3620   42.5010 C   0  0  0  0  0  2  0  0  0  0  0  0
   40.9930   25.0110   42.8690 C   0  0  0  0  0  2  0  0  0  0  0  0
  1  7  1  0  0  0  0
  2 23  1  0  0  0  0
  2  1  2  0  0  0  0
  3  2  1  0  0  0  0
  4  3  2  0  0  0  0
  4  5  1  0  0  0  0
  5  6  2  0  0  0  0
  6  1  1  0  0  0  0
  8  3  1  0  0  0  0
  9 14  1  1  0  0  0
  9 10  1  0  0  0  0
 10  5  1  0  0  0  0
 10 15  1  1  0  0  0
 11 10  1  0  0  0  0
 12 13  1  0  0  0  0
 12 16  1  0  0  0  0
 12 11  1  0  0  0  0
 13  9  1  0  0  0  0
 13 18  1  1  0  0  0
 17 12  1  0  0  0  0
 19  9  1  0  0  0  0
 20 19  1  0  0  0  0
 21 13  1  0  0  0  0
 22 21  1  0  0  0  0
 23 24  1  0  0  0  0
 23 25  1  0  0  0  0
 26 31  1  0  0  0  0
 26 23  1  0  0  0  0
 27 26  2  0  0  0  0
 28 29  2  0  0  0  0
 28 27  1  0  0  0  0
 29 30  1  0  0  0  0
 30 35  1  0  0  0  0
 30 31  2  0  0  0  0
 31 36  1  0  0  0  0
 32 27  1  0  0  0  0
 33 28  1  0  0  0  0
 34 29  1  0  0  0  0
 37 38  1  0  0  0  0
 37 36  1  0  0  0  0
 38 36  1  0  0  0  0
M  END
>  <minimizedAffinity>
-5.82799673

$$$$

 OpenBabel03252503483D

 38 41  0  0  1  0  0  0  0  0999 V2000
   40.3270   31.4850   40.1650 C   0  0  0  0  0  0  0  0  0  0  0  0
   39.4670   32.5720   40.0500 C   0  0  0  0  0  0  0  0  0  0  0  0
   40.0190   33.7580   39.5690 C   0  0  0  0  0  0  0  0  0  0  0  0
   41.3240   33.8490   39.2280 N   0  0  0  0  0  0  0  0  0  0  0  0
   42.1270   32.7610   39.3560 C   0  0  0  0  0  0  0  0  0  0  0  0
   41.6410   31.5900   39.8190 N   0  0  0  0  0  0  0  0  0  0  0  0
   39.9410   30.5460   40.5350 H   0  0  0  0  0  0  0  0  0  0  0  0
   39.5810   34.7240   39.4110 H   0  0  0  0  0  0  0  0  0  0  0  0
   43.6680   33.0390   37.4200 C   0  0  2  0  0  0  0  0  0  0  0  0
   43.5300   32.9010   38.9670 C   0  0  1  0  0  0  0  0  0  0  0  0
   44.1350   34.0540   39.3300 O   0  0  0  0  0  0  0  0  0  0  0  0
   45.2930   34.1580   38.6100 C   0  0  0  0  0  0  0  0  0  0  0  0
   45.1730   33.2900   37.3750 C   0  0  2  0  0  0  0  0  0  0  0  0
   43.3900   32.1020   36.9370 H   0  0  0  0  0  0  0  0  0  0  0  0
   44.0940   31.9770   39.1780 H   0  0  0  0  0  0  0  0  0  0  0  0
   46.1020   33.6870   39.2380 H   0  0  0  0  0  0  0  0  0  0  0  0
   45.5940   35.1660   38.3200 H   0  0  0  0  0  0  0  0  0  0  0  0
   45.6250   32.2760   37.5440 H   0  0  0  0  0  0  0  0  0  0  0  0
   43.0610   34.1610   36.9960 O   0  0  0  0  0  0  0  0  0  0  0  0
   43.1180   34.8580   37.6720 H   0  0  0  0  0  0  0  0  0  0  0  0
   45.5960   33.8900   36.2260 O   0  0  0  0  0  0  0  0  0  0  0  0
   44.8610   33.8610   35.5590 H   0  0  0  0  0  0  0  0  0  0  0  0
   38.0690   32.4700   40.4090 C   0  0  0  0  0  0  0  0  0  0  0  0
   37.4970   33.4190   40.2990 H   0  0  0  0  0  0  0  0  0  0  0  0
   37.9790   32.2090   41.4830 H   0  0  0  0  0  0  0  0  0  0  0  0
   37.3990   31.4310   39.6070 C   0  0  0  0  0  0  0  0  0  0  0  0
   37.2910   31.4590   38.2200 C   0  0  0  0  0  0  0  0  0  0  0  0
   36.6380   30.4950   37.4950 C   0  0  0  0  0  0  0  0  0  0  0  0
   36.0620   29.4520   38.1710 C   0  0  0  0  0  0  0  0  0  0  0  0
   36.1670   29.4150   39.5590 C   0  0  0  0  0  0  0  0  0  0  0  0
   36.8390   30.3960   40.3290 C   0  0  0  0  0  0  0  0  0  0  0  0
   37.7780   32.3240   37.7880 H   0  0  0  0  0  0  0  0  0  0  0  0
   36.6360   30.6460   36.4370 H   0  0  0  0  0  0  0  0  0  0  0  0
   35.5640   28.7270   37.5710 H   0  0  0  0  0  0  0  0  0  0  0  0
   35.6620   28.5240   39.9410 H   0  0  0  0  0  0  0  0  0  0  0  0
   36.9100   30.0410   41.7440 C   0  0  0  0  0  3  0  0  0  0  0  0
   38.1430   29.2530   42.1530 C   0  0  0  0  0  2  0  0  0  0  0  0
   36.7940   28.6030   42.1230 C   0  0  0  0  0  2  0  0  0  0  0  0
  1  7  1  0  0  0  0
  2  1  1  0  0  0  0
  2 23  1  0  0  0  0
  3  2  2  0  0  0  0
  4  5  2  0  0  0  0
  4  3  1  0  0  0  0
  5  6  1  0  0  0  0
  6  1  2  0  0  0  0
  8  3  1  0  0  0  0
  9 14  1  6  0  0  0
  9 10  1  0  0  0  0
 10 15  1  1  0  0  0
 10 11  1  0  0  0  0
 10  5  1  0  0  0  0
 12 16  1  0  0  0  0
 12 11  1  0  0  0  0
 13  9  1  0  0  0  0
 13 18  1  1  0  0  0
 13 12  1  0  0  0  0
 17 12  1  0  0  0  0
 19  9  1  0  0  0  0
 19 20  1  0  0  0  0
 21 13  1  0  0  0  0
 22 21  1  0  0  0  0
 23 25  1  0  0  0  0
 24 23  1  0  0  0  0
 26 31  1  0  0  0  0
 26 23  1  0  0  0  0
 27 26  2  0  0  0  0
 28 29  2  0  0  0  0
 28 27  1  0  0  0  0
 29 30  1  0  0  0  0
 30 35  1  0  0  0  0
 30 31  2  0  0  0  0
 31 36  1  0  0  0  0
 32 27  1  0  0  0  0
 33 28  1  0  0  0  0
 34 29  1  0  0  0  0
 36 38  1  0  0  0  0
 36 37  1  0  0  0  0
 38 37  1  0  0  0  0
M  END
>  <minimizedAffinity>
-5.74513245

$$$$

 OpenBabel03252503483D

 38 41  0  0  1  0  0  0  0  0999 V2000
   36.9380   30.4760   39.0740 C   0  0  0  0  0  0  0  0  0  0  0  0
   36.1210   29.9990   40.0940 C   0  0  0  0  0  0  0  0  0  0  0  0
   35.0320   29.2180   39.7090 C   0  0  0  0  0  0  0  0  0  0  0  0
   34.7830   28.9360   38.4110 N   0  0  0  0  0  0  0  0  0  0  0  0
   35.6080   29.4230   37.4480 C   0  0  0  0  0  0  0  0  0  0  0  0
   36.6740   30.1840   37.7690 N   0  0  0  0  0  0  0  0  0  0  0  0
   37.7930   31.0860   39.3270 H   0  0  0  0  0  0  0  0  0  0  0  0
   34.2560   28.7580   40.2890 H   0  0  0  0  0  0  0  0  0  0  0  0
   36.4060   29.6360   35.0990 C   0  0  2  0  0  0  0  0  0  0  0  0
   35.3060   29.0850   36.0570 C   0  0  1  0  0  0  0  0  0  0  0  0
   35.3900   27.7760   35.7310 O   0  0  0  0  0  0  0  0  0  0  0  0
   35.4150   27.6900   34.3670 C   0  0  0  0  0  0  0  0  0  0  0  0
   35.8740   29.0190   33.8080 C   0  0  2  0  0  0  0  0  0  0  0  0
   36.3720   30.7260   35.0820 H   0  0  0  0  0  0  0  0  0  0  0  0
   34.4000   29.6090   35.7100 H   0  0  0  0  0  0  0  0  0  0  0  0
   34.3440   27.5720   34.0350 H   0  0  0  0  0  0  0  0  0  0  0  0
   36.0200   26.8870   33.9440 H   0  0  0  0  0  0  0  0  0  0  0  0
   35.0000   29.6700   33.5330 H   0  0  0  0  0  0  0  0  0  0  0  0
   37.5890   29.0560   35.3640 O   0  0  0  0  0  0  0  0  0  0  0  0
   37.4610   28.1430   35.6740 H   0  0  0  0  0  0  0  0  0  0  0  0
   36.8100   28.9190   32.8210 O   0  0  0  0  0  0  0  0  0  0  0  0
   37.6040   29.4560   33.0760 H   0  0  0  0  0  0  0  0  0  0  0  0
   36.3940   30.2960   41.4830 C   0  0  0  0  0  0  0  0  0  0  0  0
   35.4880   30.5080   42.0930 H   0  0  0  0  0  0  0  0  0  0  0  0
   37.0050   31.2200   41.5510 H   0  0  0  0  0  0  0  0  0  0  0  0
   37.1320   29.1890   42.1180 C   0  0  0  0  0  0  0  0  0  0  0  0
   36.5980   27.9280   42.3590 C   0  0  0  0  0  0  0  0  0  0  0  0
   37.2930   26.9200   42.9770 C   0  0  0  0  0  0  0  0  0  0  0  0
   38.5780   27.1690   43.3790 C   0  0  0  0  0  0  0  0  0  0  0  0
   39.1220   28.4280   43.1400 C   0  0  0  0  0  0  0  0  0  0  0  0
   38.4260   29.4830   42.5010 C   0  0  0  0  0  0  0  0  0  0  0  0
   35.5780   27.8390   42.0040 H   0  0  0  0  0  0  0  0  0  0  0  0
   36.7560   26.0030   43.0940 H   0  0  0  0  0  0  0  0  0  0  0  0
   39.0820   26.3610   43.8560 H   0  0  0  0  0  0  0  0  0  0  0  0
   40.1490   28.4620   43.5150 H   0  0  0  0  0  0  0  0  0  0  0  0
   39.2750   30.6470   42.2610 C   0  0  0  0  0  3  0  0  0  0  0  0
   40.1270   30.5790   41.0040 C   0  0  0  0  0  2  0  0  0  0  0  0
   40.7540   30.4800   42.3610 C   0  0  0  0  0  2  0  0  0  0  0  0
  1  7  1  0  0  0  0
  1  2  1  0  0  0  0
  2 23  1  0  0  0  0
  3  2  2  0  0  0  0
  3  8  1  0  0  0  0
  4  3  1  0  0  0  0
  5  6  1  0  0  0  0
  5  4  2  0  0  0  0
  6  1  2  0  0  0  0
  9 14  1  6  0  0  0
  9 19  1  0  0  0  0
  9 10  1  0  0  0  0
 10 15  1  6  0  0  0
 10  5  1  0  0  0  0
 11 10  1  0  0  0  0
 12 11  1  0  0  0  0
 13 18  1  6  0  0  0
 13 12  1  0  0  0  0
 13  9  1  0  0  0  0
 16 12  1  0  0  0  0
 17 12  1  0  0  0  0
 19 20  1  0  0  0  0
 21 22  1  0  0  0  0
 21 13  1  0  0  0  0
 23 25  1  0  0  0  0
 23 24  1  0  0  0  0
 23 26  1  0  0  0  0
 26 27  2  0  0  0  0
 26 31  1  0  0  0  0
 27 28  1  0  0  0  0
 28 33  1  0  0  0  0
 28 29  2  0  0  0  0
 29 34  1  0  0  0  0
 30 29  1  0  0  0  0
 30 35  1  0  0  0  0
 31 30  2  0  0  0  0
 32 27  1  0  0  0  0
 36 38  1  0  0  0  0
 36 31  1  0  0  0  0
 37 36  1  0  0  0  0
 37 38  1  0  0  0  0
M  END
>  <minimizedAffinity>
-5.71027279

$$$$

 OpenBabel03252503483D

 38 41  0  0  1  0  0  0  0  0999 V2000
   37.7860   30.2040   39.0490 C   0  0  0  0  0  0  0  0  0  0  0  0
   36.8120   30.4850   40.0020 C   0  0  0  0  0  0  0  0  0  0  0  0
   36.9310   31.6960   40.6810 C   0  0  0  0  0  0  0  0  0  0  0  0
   37.9410   32.5570   40.4270 N   0  0  0  0  0  0  0  0  0  0  0  0
   38.8710   32.2420   39.4870 C   0  0  0  0  0  0  0  0  0  0  0  0
   38.8000   31.0820   38.8040 N   0  0  0  0  0  0  0  0  0  0  0  0
   37.7320   29.2750   38.5000 H   0  0  0  0  0  0  0  0  0  0  0  0
   36.3340   32.1270   41.4600 H   0  0  0  0  0  0  0  0  0  0  0  0
   41.0520   33.1000   40.3280 C   0  0  2  0  0  0  0  0  0  0  0  0
   39.9410   33.2070   39.2380 C   0  0  1  0  0  0  0  0  0  0  0  0
   40.7050   32.9790   38.1460 O   0  0  0  0  0  0  0  0  0  0  0  0
   41.8290   33.7510   38.2590 C   0  0  0  0  0  0  0  0  0  0  0  0
   42.0280   34.1030   39.7170 C   0  0  2  0  0  0  0  0  0  0  0  0
   40.6620   33.4350   41.2900 H   0  0  0  0  0  0  0  0  0  0  0  0
   39.5800   34.2410   39.3630 H   0  0  0  0  0  0  0  0  0  0  0  0
   41.6010   34.7240   37.7380 H   0  0  0  0  0  0  0  0  0  0  0  0
   42.7490   33.3260   37.8560 H   0  0  0  0  0  0  0  0  0  0  0  0
   41.5810   35.1040   39.9600 H   0  0  0  0  0  0  0  0  0  0  0  0
   41.6360   31.8910   40.2810 O   0  0  0  0  0  0  0  0  0  0  0  0
   41.6500   31.5520   39.3700 H   0  0  0  0  0  0  0  0  0  0  0  0
   43.3110   33.9580   40.1590 O   0  0  0  0  0  0  0  0  0  0  0  0
   43.3140   33.3540   40.9460 H   0  0  0  0  0  0  0  0  0  0  0  0
   35.7270   29.5640   40.2660 C   0  0  0  0  0  0  0  0  0  0  0  0
   34.8780   29.6390   39.5510 H   0  0  0  0  0  0  0  0  0  0  0  0
   35.2830   29.7890   41.2580 H   0  0  0  0  0  0  0  0  0  0  0  0
   36.2120   28.1730   40.2660 C   0  0  0  0  0  0  0  0  0  0  0  0
   36.1940   27.3370   39.1530 C   0  0  0  0  0  0  0  0  0  0  0  0
   36.6250   26.0350   39.1810 C   0  0  0  0  0  0  0  0  0  0  0  0
   37.0940   25.5320   40.3660 C   0  0  0  0  0  0  0  0  0  0  0  0
   37.1170   26.3610   41.4830 C   0  0  0  0  0  0  0  0  0  0  0  0
   36.6820   27.7090   41.4780 C   0  0  0  0  0  0  0  0  0  0  0  0
   35.8040   27.8340   38.2740 H   0  0  0  0  0  0  0  0  0  0  0  0
   36.5540   25.5130   38.2510 H   0  0  0  0  0  0  0  0  0  0  0  0
   37.4170   24.5160   40.3450 H   0  0  0  0  0  0  0  0  0  0  0  0
   37.5200   25.8120   42.3390 H   0  0  0  0  0  0  0  0  0  0  0  0
   36.9400   28.3830   42.7490 C   0  0  0  0  0  3  0  0  0  0  0  0
   38.3230   28.9960   42.8870 C   0  0  0  0  0  2  0  0  0  0  0  0
   37.9400   27.7840   43.6800 C   0  0  0  0  0  2  0  0  0  0  0  0
  1  2  1  0  0  0  0
  2 23  1  0  0  0  0
  2  3  2  0  0  0  0
  3  8  1  0  0  0  0
  4  3  1  0  0  0  0
  5  4  2  0  0  0  0
  6  1  2  0  0  0  0
  6  5  1  0  0  0  0
  7  1  1  0  0  0  0
  9 14  1  1  0  0  0
 10 15  1  6  0  0  0
 10  5  1  0  0  0  0
 10  9  1  0  0  0  0
 11 12  1  0  0  0  0
 11 10  1  0  0  0  0
 12 13  1  0  0  0  0
 13 18  1  1  0  0  0
 13 21  1  0  0  0  0
 13  9  1  0  0  0  0
 16 12  1  0  0  0  0
 17 12  1  0  0  0  0
 19  9  1  0  0  0  0
 20 19  1  0  0  0  0
 21 22  1  0  0  0  0
 23 26  1  0  0  0  0
 23 25  1  0  0  0  0
 24 23  1  0  0  0  0
 26 31  1  0  0  0  0
 27 28  1  0  0  0  0
 27 26  2  0  0  0  0
 28 29  2  0  0  0  0
 29 30  1  0  0  0  0
 30 35  1  0  0  0  0
 31 30  2  0  0  0  0
 31 36  1  0  0  0  0
 32 27  1  0  0  0  0
 33 28  1  0  0  0  0
 34 29  1  0  0  0  0
 36 37  1  0  0  0  0
 36 38  1  0  0  0  0
 37 38  1  0  0  0  0
M  END
>  <minimizedAffinity>
-5.63711119

$$$$

 OpenBabel03252503483D

 38 41  0  0  1  0  0  0  0  0999 V2000
   39.2300   29.1070   40.4870 C   0  0  0  0  0  0  0  0  0  0  0  0
   38.0070   29.6280   40.8960 C   0  0  0  0  0  0  0  0  0  0  0  0
   37.8630   31.0130   40.8270 C   0  0  0  0  0  0  0  0  0  0  0  0
   38.8600   31.8100   40.3830 N   0  0  0  0  0  0  0  0  0  0  0  0
   40.0380   31.2570   39.9920 C   0  0  0  0  0  0  0  0  0  0  0  0
   40.2270   29.9230   40.0420 N   0  0  0  0  0  0  0  0  0  0  0  0
   39.3850   28.0380   40.5240 H   0  0  0  0  0  0  0  0  0  0  0  0
   37.0440   31.6490   41.0990 H   0  0  0  0  0  0  0  0  0  0  0  0
   41.1420   32.1610   37.9510 C   0  0  2  0  0  0  0  0  0  0  0  0
   41.0850   32.1560   39.5100 C   0  0  1  0  0  0  0  0  0  0  0  0
   40.8740   33.4770   39.7100 O   0  0  0  0  0  0  0  0  0  0  0  0
   41.7540   34.1610   38.9180 C   0  0  0  0  0  0  0  0  0  0  0  0
   42.2000   33.2510   37.7930 C   0  0  2  0  0  0  0  0  0  0  0  0
   41.4880   31.1920   37.5900 H   0  0  0  0  0  0  0  0  0  0  0  0
   42.0850   31.7840   39.7860 H   0  0  0  0  0  0  0  0  0  0  0  0
   42.6730   34.3440   39.5450 H   0  0  0  0  0  0  0  0  0  0  0  0
   41.3980   35.1060   38.5040 H   0  0  0  0  0  0  0  0  0  0  0  0
   43.1650   32.7350   38.0440 H   0  0  0  0  0  0  0  0  0  0  0  0
   39.9930   32.6390   37.4450 O   0  0  0  0  0  0  0  0  0  0  0  0
   39.6090   33.3090   38.0370 H   0  0  0  0  0  0  0  0  0  0  0  0
   42.2010   33.8390   36.5630 O   0  0  0  0  0  0  0  0  0  0  0  0
   41.6410   33.2980   35.9470 H   0  0  0  0  0  0  0  0  0  0  0  0
   36.9390   28.7720   41.3640 C   0  0  0  0  0  0  0  0  0  0  0  0
   35.9740   29.2970   41.5410 H   0  0  0  0  0  0  0  0  0  0  0  0
   37.2130   28.3420   42.3500 H   0  0  0  0  0  0  0  0  0  0  0  0
   36.6990   27.6710   40.4140 C   0  0  0  0  0  0  0  0  0  0  0  0
   36.2560   27.8470   39.1070 C   0  0  0  0  0  0  0  0  0  0  0  0
   36.0120   26.8060   38.2470 C   0  0  0  0  0  0  0  0  0  0  0  0
   36.2120   25.5290   38.7000 C   0  0  0  0  0  0  0  0  0  0  0  0
   36.6560   25.3440   40.0060 C   0  0  0  0  0  0  0  0  0  0  0  0
   36.9190   26.4020   40.9100 C   0  0  0  0  0  0  0  0  0  0  0  0
   36.1290   28.8920   38.8540 H   0  0  0  0  0  0  0  0  0  0  0  0
   35.6770   27.0910   37.2730 H   0  0  0  0  0  0  0  0  0  0  0  0
   36.0090   24.7500   38.0020 H   0  0  0  0  0  0  0  0  0  0  0  0
   36.7690   24.2750   40.2080 H   0  0  0  0  0  0  0  0  0  0  0  0
   37.5000   25.9310   42.1660 C   0  0  0  0  0  3  0  0  0  0  0  0
   39.0150   25.8130   42.1740 C   0  0  0  0  0  2  0  0  0  0  0  0
   38.1510   24.5890   42.1880 C   0  0  0  0  0  2  0  0  0  0  0  0
  1  7  1  0  0  0  0
  1  2  1  0  0  0  0
  2 23  1  0  0  0  0
  3  2  2  0  0  0  0
  3  8  1  0  0  0  0
  4  3  1  0  0  0  0
  5  6  1  0  0  0  0
  5  4  2  0  0  0  0
  6  1  2  0  0  0  0
  9 14  1  6  0  0  0
  9 10  1  0  0  0  0
 10 11  1  0  0  0  0
 10 15  1  1  0  0  0
 10  5  1  0  0  0  0
 12 16  1  0  0  0  0
 12 11  1  0  0  0  0
 13  9  1  0  0  0  0
 13 18  1  1  0  0  0
 13 12  1  0  0  0  0
 17 12  1  0  0  0  0
 19  9  1  0  0  0  0
 19 20  1  0  0  0  0
 21 13  1  0  0  0  0
 22 21  1  0  0  0  0
 23 24  1  0  0  0  0
 23 25  1  0  0  0  0
 26 31  1  0  0  0  0
 26 23  1  0  0  0  0
 27 26  2  0  0  0  0
 28 29  2  0  0  0  0
 28 27  1  0  0  0  0
 29 30  1  0  0  0  0
 30 35  1  0  0  0  0
 30 31  2  0  0  0  0
 31 36  1  0  0  0  0
 32 27  1  0  0  0  0
 33 28  1  0  0  0  0
 34 29  1  0  0  0  0
 36 37  1  0  0  0  0
 36 38  1  0  0  0  0
 37 38  1  0  0  0  0
M  END
>  <minimizedAffinity>
-5.59447575

$$$$

 OpenBabel03252503483D

 38 41  0  0  1  0  0  0  0  0999 V2000
   37.6660   28.4580   40.0870 C   0  0  0  0  0  0  0  0  0  0  0  0
   36.6410   28.4220   41.0270 C   0  0  0  0  0  0  0  0  0  0  0  0
   35.3730   28.7900   40.5840 C   0  0  0  0  0  0  0  0  0  0  0  0
   35.1460   29.1620   39.3050 N   0  0  0  0  0  0  0  0  0  0  0  0
   36.1760   29.1810   38.4200 C   0  0  0  0  0  0  0  0  0  0  0  0
   37.4230   28.8350   38.8000 N   0  0  0  0  0  0  0  0  0  0  0  0
   38.6660   28.1810   40.3880 H   0  0  0  0  0  0  0  0  0  0  0  0
   34.4390   28.8650   41.1070 H   0  0  0  0  0  0  0  0  0  0  0  0
   37.0120   29.1080   36.0750 C   0  0  2  0  0  0  0  0  0  0  0  0
   35.8840   29.5810   37.0440 C   0  0  1  0  0  0  0  0  0  0  0  0
   34.8370   28.9630   36.4540 O   0  0  0  0  0  0  0  0  0  0  0  0
   34.9220   29.1960   35.1090 C   0  0  0  0  0  0  0  0  0  0  0  0
   36.3540   29.5520   34.7700 C   0  0  2  0  0  0  0  0  0  0  0  0
   37.9320   29.6550   36.2810 H   0  0  0  0  0  0  0  0  0  0  0  0
   35.9180   30.6780   36.9340 H   0  0  0  0  0  0  0  0  0  0  0  0
   34.3190   30.1270   34.9080 H   0  0  0  0  0  0  0  0  0  0  0  0
   34.5810   28.3910   34.4560 H   0  0  0  0  0  0  0  0  0  0  0  0
   36.5040   30.6640   34.7520 H   0  0  0  0  0  0  0  0  0  0  0  0
   37.0770   27.7660   36.0560 O   0  0  0  0  0  0  0  0  0  0  0  0
   36.1960   27.3770   36.1920 H   0  0  0  0  0  0  0  0  0  0  0  0
   36.8420   28.9180   33.6660 O   0  0  0  0  0  0  0  0  0  0  0  0
   37.6740   28.4360   33.9140 H   0  0  0  0  0  0  0  0  0  0  0  0
   36.8850   28.0160   42.3950 C   0  0  0  0  0  0  0  0  0  0  0  0
   35.9690   27.9490   43.0230 H   0  0  0  0  0  0  0  0  0  0  0  0
   37.5200   28.7740   42.8990 H   0  0  0  0  0  0  0  0  0  0  0  0
   37.5730   26.7140   42.4380 C   0  0  0  0  0  0  0  0  0  0  0  0
   37.0130   25.5170   41.9990 C   0  0  0  0  0  0  0  0  0  0  0  0
   37.6600   24.3110   42.0750 C   0  0  0  0  0  0  0  0  0  0  0  0
   38.9210   24.2820   42.6100 C   0  0  0  0  0  0  0  0  0  0  0  0
   39.4890   25.4740   43.0500 C   0  0  0  0  0  0  0  0  0  0  0  0
   38.8430   26.7320   42.9790 C   0  0  0  0  0  0  0  0  0  0  0  0
   36.0170   25.6540   41.5970 H   0  0  0  0  0  0  0  0  0  0  0  0
   37.1090   23.4750   41.6990 H   0  0  0  0  0  0  0  0  0  0  0  0
   39.3870   23.3240   42.6520 H   0  0  0  0  0  0  0  0  0  0  0  0
   40.4910   25.2800   43.4430 H   0  0  0  0  0  0  0  0  0  0  0  0
   39.7160   27.8310   43.3860 C   0  0  0  0  0  3  0  0  0  0  0  0
   40.6050   28.3910   42.2890 C   0  0  0  0  0  2  0  0  0  0  0  0
   41.1880   27.5940   43.4150 C   0  0  0  0  0  2  0  0  0  0  0  0
  1  7  1  0  0  0  0
  1  2  1  0  0  0  0
  2 23  1  0  0  0  0
  3  2  2  0  0  0  0
  3  8  1  0  0  0  0
  4  3  1  0  0  0  0
  5  6  1  0  0  0  0
  5  4  2  0  0  0  0
  6  1  2  0  0  0  0
  9 14  1  1  0  0  0
  9 10  1  0  0  0  0
 10 15  1  6  0  0  0
 10  5  1  0  0  0  0
 11 10  1  0  0  0  0
 12 11  1  0  0  0  0
 13 18  1  6  0  0  0
 13 12  1  0  0  0  0
 13  9  1  0  0  0  0
 16 12  1  0  0  0  0
 17 12  1  0  0  0  0
 19  9  1  0  0  0  0
 19 20  1  0  0  0  0
 21 22  1  0  0  0  0
 21 13  1  0  0  0  0
 23 26  1  0  0  0  0
 23 25  1  0  0  0  0
 23 24  1  0  0  0  0
 26 31  1  0  0  0  0
 27 28  1  0  0  0  0
 27 26  2  0  0  0  0
 28 29  2  0  0  0  0
 29 34  1  0  0  0  0
 29 30  1  0  0  0  0
 30 35  1  0  0  0  0
 31 30  2  0  0  0  0
 31 36  1  0  0  0  0
 32 27  1  0  0  0  0
 33 28  1  0  0  0  0
 36 38  1  0  0  0  0
 37 36  1  0  0  0  0
 37 38  1  0  0  0  0
M  END
>  <minimizedAffinity>
-5.58225393

$$$$

 OpenBabel03252503483D

 38 41  0  0  1  0  0  0  0  0999 V2000
   34.5200   29.0360   35.6340 C   0  0  0  0  0  0  0  0  0  0  0  0
   33.5280   28.9740   36.6060 C   0  0  0  0  0  0  0  0  0  0  0  0
   33.9430   29.0930   37.9310 C   0  0  0  0  0  0  0  0  0  0  0  0
   35.2440   29.2630   38.2570 N   0  0  0  0  0  0  0  0  0  0  0  0
   36.1790   29.3190   37.2740 C   0  0  0  0  0  0  0  0  0  0  0  0
   35.8290   29.2070   35.9760 N   0  0  0  0  0  0  0  0  0  0  0  0
   34.2430   28.9470   34.5930 H   0  0  0  0  0  0  0  0  0  0  0  0
   33.3880   29.0570   38.8490 H   0  0  0  0  0  0  0  0  0  0  0  0
   37.9730   31.0180   37.5860 C   0  0  2  0  0  0  0  0  0  0  0  0
   37.5730   29.5120   37.6710 C   0  0  1  0  0  0  0  0  0  0  0  0
   37.8550   29.3000   38.9760 O   0  0  0  0  0  0  0  0  0  0  0  0
   39.0850   29.8440   39.2280 C   0  0  0  0  0  0  0  0  0  0  0  0
   39.3780   30.8850   38.1680 C   0  0  2  0  0  0  0  0  0  0  0  0
   37.9850   31.3400   36.5440 H   0  0  0  0  0  0  0  0  0  0  0  0
   38.2600   29.0400   36.9500 H   0  0  0  0  0  0  0  0  0  0  0  0
   39.8370   29.0210   39.0650 H   0  0  0  0  0  0  0  0  0  0  0  0
   39.2270   30.2800   40.2180 H   0  0  0  0  0  0  0  0  0  0  0  0
   39.9830   30.4510   37.3280 H   0  0  0  0  0  0  0  0  0  0  0  0
   37.2450   31.7420   38.4520 O   0  0  0  0  0  0  0  0  0  0  0  0
   37.0320   31.2190   39.2440 H   0  0  0  0  0  0  0  0  0  0  0  0
   39.8830   32.0540   38.6560 O   0  0  0  0  0  0  0  0  0  0  0  0
   39.3090   32.8040   38.3500 H   0  0  0  0  0  0  0  0  0  0  0  0
   32.1350   28.8000   36.2550 C   0  0  0  0  0  0  0  0  0  0  0  0
   31.5110   28.3570   37.0620 H   0  0  0  0  0  0  0  0  0  0  0  0
   32.0530   28.0860   35.4090 H   0  0  0  0  0  0  0  0  0  0  0  0
   31.5330   30.0840   35.8550 C   0  0  0  0  0  0  0  0  0  0  0  0
   31.6940   30.6690   34.6030 C   0  0  0  0  0  0  0  0  0  0  0  0
   31.1480   31.8790   34.2610 C   0  0  0  0  0  0  0  0  0  0  0  0
   30.4090   32.5480   35.2010 C   0  0  0  0  0  0  0  0  0  0  0  0
   30.2420   31.9700   36.4560 C   0  0  0  0  0  0  0  0  0  0  0  0
   30.7920   30.7200   36.8310 C   0  0  0  0  0  0  0  0  0  0  0  0
   32.2940   30.0590   33.9390 H   0  0  0  0  0  0  0  0  0  0  0  0
   31.3530   32.2040   33.2630 H   0  0  0  0  0  0  0  0  0  0  0  0
   30.0040   33.4850   34.8950 H   0  0  0  0  0  0  0  0  0  0  0  0
   29.6290   32.6230   37.0830 H   0  0  0  0  0  0  0  0  0  0  0  0
   30.3510   30.2920   38.1570 C   0  0  0  0  0  3  0  0  0  0  0  0
   29.0810   29.4580   38.1790 C   0  0  0  0  0  2  0  0  0  0  0  0
   29.0850   30.8620   38.7030 C   0  0  0  0  0  2  0  0  0  0  0  0
  1  6  2  0  0  0  0
  1  2  1  0  0  0  0
  2  3  2  0  0  0  0
  3  4  1  0  0  0  0
  3  8  1  0  0  0  0
  5 10  1  0  0  0  0
  5  4  2  0  0  0  0
  6  5  1  0  0  0  0
  7  1  1  0  0  0  0
  9 14  1  6  0  0  0
  9 10  1  0  0  0  0
  9 13  1  0  0  0  0
  9 19  1  0  0  0  0
 10 15  1  6  0  0  0
 10 11  1  0  0  0  0
 11 12  1  0  0  0  0
 12 17  1  0  0  0  0
 13 18  1  6  0  0  0
 13 21  1  0  0  0  0
 13 12  1  0  0  0  0
 16 12  1  0  0  0  0
 19 20  1  0  0  0  0
 22 21  1  0  0  0  0
 23  2  1  0  0  0  0
 23 24  1  0  0  0  0
 25 23  1  0  0  0  0
 26 23  1  0  0  0  0
 26 31  1  0  0  0  0
 27 26  2  0  0  0  0
 28 27  1  0  0  0  0
 28 29  2  0  0  0  0
 29 30  1  0  0  0  0
 30 31  2  0  0  0  0
 30 35  1  0  0  0  0
 31 36  1  0  0  0  0
 32 27  1  0  0  0  0
 33 28  1  0  0  0  0
 34 29  1  0  0  0  0
 36 37  1  0  0  0  0
 36 38  1  0  0  0  0
 37 38  1  0  0  0  0
M  END
>  <minimizedAffinity>
-5.50426483

$$$$
