
 OpenBabel03242520373D

 29 32  0  0  1  0  0  0  0  0999 V2000
   45.9160   33.7300   42.8530 C   0  0  0  0  0  0  0  0  0  0  0  0
   47.1360   33.1170   42.4030 C   0  0  0  0  0  0  0  0  0  0  0  0
   47.8850   32.4600   43.3440 C   0  0  0  0  0  0  0  0  0  0  0  0
   47.4580   32.4140   44.6300 N   0  0  0  0  0  0  0  0  0  0  0  0
   46.3150   32.9970   45.0150 C   0  0  0  0  0  0  0  0  0  0  0  0
   45.5410   33.6590   44.1190 N   0  0  0  0  0  0  0  0  0  0  0  0
   45.2870   34.2580   42.1570 H   0  0  0  0  0  0  0  0  0  0  0  0
   48.8100   31.9870   43.0390 H   0  0  0  0  0  0  0  0  0  0  0  0
   47.5720   33.2040   40.9880 C   0  0  1  0  0  0  0  0  0  0  0  0
   47.0340   34.1870   40.0950 C   0  0  0  0  0  0  0  0  0  0  0  0
   48.4080   34.4280   40.5760 C   0  0  1  0  0  0  0  0  0  0  0  0
   48.1360   32.2740   40.6920 H   0  0  0  0  0  0  0  0  0  0  0  0
   46.2120   34.8470   40.4380 H   0  0  0  0  0  0  0  0  0  0  0  0
   46.8560   33.8880   39.0220 H   0  0  0  0  0  0  0  0  0  0  0  0
   49.1830   34.2940   39.7760 H   0  0  0  0  0  0  0  0  0  0  0  0
   48.7590   35.4700   41.5680 C   0  0  0  0  0  0  0  0  0  0  0  0
   49.3710   36.5620   40.9780 F   0  0  0  0  0  0  0  0  0  0  0  0
   49.5890   34.9720   42.5790 F   0  0  0  0  0  0  0  0  0  0  0  0
   47.5840   35.9210   42.1210 F   0  0  0  0  0  0  0  0  0  0  0  0
   45.9020   32.9010   46.4570 C   0  0  2  0  0  0  0  0  0  0  0  0
   47.0740   32.6210   47.3820 C   0  0  0  0  0  0  0  0  0  0  0  0
   45.9890   31.6040   47.1610 C   0  0  1  0  0  0  0  0  0  0  0  0
   45.1740   33.6630   46.7870 H   0  0  0  0  0  0  0  0  0  0  0  0
   47.1090   33.1360   48.3590 H   0  0  0  0  0  0  0  0  0  0  0  0
   48.0460   32.3610   46.9540 H   0  0  0  0  0  0  0  0  0  0  0  0
   46.2290   30.7460   46.4520 H   0  0  0  0  0  0  0  0  0  0  0  0
   44.9590   31.2940   48.1860 C   0  0  0  0  0  0  0  0  0  0  0  0
   45.0480   30.0580   49.0030 C   0  0  0  0  0  0  0  0  0  0  0  0
   45.2840   31.4270   49.6450 C   0  0  0  0  0  0  0  0  0  0  0  0
  1  6  1  0  0  0  0
  2  1  2  0  0  0  0
  2  3  1  0  0  0  0
  3  4  2  0  0  0  0
  4  5  1  0  0  0  0
  5 20  1  0  0  0  0
  6  5  2  0  0  0  0
  7  1  1  0  0  0  0
  8  3  1  0  0  0  0
  9 12  1  6  0  0  0
  9  2  1  0  0  0  0
 10 13  1  0  0  0  0
 10 11  1  0  0  0  0
 10  9  1  0  0  0  0
 11 15  1  6  0  0  0
 11  9  1  0  0  0  0
 11 16  1  0  0  0  0
 14 10  1  0  0  0  0
 16 19  1  0  0  0  0
 16 18  1  0  0  0  0
 17 16  1  0  0  0  0
 20 23  1  1  0  0  0
 20 22  1  0  0  0  0
 20 21  1  0  0  0  0
 21 24  1  0  0  0  0
 22 26  1  6  0  0  0
 22 21  1  0  0  0  0
 22 27  1  0  0  0  0
 25 21  1  0  0  0  0
 27 28  1  0  0  0  0
 27 29  1  0  0  0  0
 28 29  1  0  0  0  0
M  END
>  <minimizedAffinity>
-5.63193083

>  <minimizedRMSD>
0.240878686

$$$$
