
 OpenBabel03242515053D

 33 35  0  0  0  0  0  0  0  0999 V2000
   41.8550   35.1310   41.4780 C   0  0  0  0  0  0  0  0  0  0  0  0
   41.3780   34.1170   41.5140 H   0  0  0  0  0  0  0  0  0  0  0  0
   41.9020   35.4780   42.5390 H   0  0  0  0  0  0  0  0  0  0  0  0
   40.9320   36.0220   40.7150 C   0  0  0  0  0  0  0  0  0  0  0  0
   41.5430   36.7520   40.1440 H   0  0  0  0  0  0  0  0  0  0  0  0
   40.2510   36.6240   41.3640 H   0  0  0  0  0  0  0  0  0  0  0  0
   41.7860   36.2730   37.7990 Cl  0  0  0  0  0  0  0  0  0  0  0  0
   40.4520   35.2950   38.3570 C   0  0  0  0  0  0  0  0  0  0  0  0
   40.1500   35.2540   39.7180 C   0  0  0  0  0  0  0  0  0  0  0  0
   39.0890   34.4640   40.0720 C   0  0  0  0  0  0  0  0  0  0  0  0
   38.2950   33.7090   39.2130 C   0  0  0  0  0  0  0  0  0  0  0  0
   38.6200   33.7700   37.8770 C   0  0  0  0  0  0  0  0  0  0  0  0
   37.6750   32.8480   36.7040 Cl  0  0  0  0  0  0  0  0  0  0  0  0
   39.6850   34.5560   37.4660 C   0  0  0  0  0  0  0  0  0  0  0  0
   38.8180   34.4020   41.1220 H   0  0  0  0  0  0  0  0  0  0  0  0
   37.4760   33.1140   39.5990 H   0  0  0  0  0  0  0  0  0  0  0  0
   39.9600   34.6210   36.4170 H   0  0  0  0  0  0  0  0  0  0  0  0
   43.4860   34.9850   40.7570 S   0  0  0  0  0  0  0  0  0  0  0  0
   44.7710   34.7120   41.9750 C   0  0  0  0  0  0  0  0  0  0  0  0
   46.0700   34.5340   41.4820 C   0  0  0  0  0  0  0  0  0  0  0  0
   47.0970   34.3190   42.3990 C   0  0  0  0  0  0  0  0  0  0  0  0
   46.7800   34.2940   43.7120 N   0  0  0  0  0  0  0  0  0  0  0  0
   45.5240   34.4660   44.1710 C   0  0  0  0  0  0  0  0  0  0  0  0
   44.5380   34.6730   43.2940 N   0  0  0  0  0  0  0  0  0  0  0  0
   46.2860   34.5610   40.4220 H   0  0  0  0  0  0  0  0  0  0  0  0
   45.3180   34.4170   45.5990 C   0  0  0  0  0  0  0  0  0  0  0  0
   44.4530   35.1930   46.0900 O   0  0  0  0  0  0  0  0  0  0  0  0
   46.1210   33.4790   46.3500 N   0  0  0  0  0  0  0  0  0  0  0  0
   45.5990   33.0200   47.1260 H   0  0  0  0  0  0  0  0  0  0  0  0
   47.1240   33.3510   46.0530 H   0  0  0  0  0  0  0  0  0  0  0  0
   48.4830   34.1280   41.9070 C   0  0  0  0  0  3  0  0  0  0  0  0
   48.9660   32.6950   42.0620 C   0  0  0  0  0  2  0  0  0  0  0  0
   48.7870   33.3230   40.7120 C   0  0  0  0  0  2  0  0  0  0  0  0
  1  2  1  0  0  0  0
  1  3  1  0  0  0  0
  4  6  1  0  0  0  0
  4  1  1  0  0  0  0
  5  4  1  0  0  0  0
  7  8  1  0  0  0  0
  8  9  1  0  0  0  0
  9 10  2  0  0  0  0
  9  4  1  0  0  0  0
 10 15  1  0  0  0  0
 11 16  1  0  0  0  0
 11 10  1  0  0  0  0
 12 11  2  0  0  0  0
 13 12  1  0  0  0  0
 14 12  1  0  0  0  0
 14  8  2  0  0  0  0
 17 14  1  0  0  0  0
 18  1  1  0  0  0  0
 18 19  1  0  0  0  0
 19 24  1  0  0  0  0
 20 19  2  0  0  0  0
 20 21  1  0  0  0  0
 21 22  2  0  0  0  0
 22 23  1  0  0  0  0
 23 26  1  0  0  0  0
 24 23  2  0  0  0  0
 25 20  1  0  0  0  0
 26 27  2  0  0  0  0
 26 28  1  0  0  0  0
 28 29  1  0  0  0  0
 30 28  1  0  0  0  0
 31 32  1  0  0  0  0
 31 21  1  0  0  0  0
 33 31  1  0  0  0  0
 33 32  1  0  0  0  0
M  END
>  <minimizedAffinity>
-6.49915981

>  <minimizedRMSD>
0.141810328

$$$$
