
 OpenBabel03252501423D

 39 42  0  0  0  0  0  0  0  0999 V2000
   42.9750   32.3110   39.3840 Cl  0  0  0  0  0  0  0  0  0  0  0  0
   41.9120   33.5990   39.8990 C   0  0  0  0  0  0  0  0  0  0  0  0
   42.3690   34.7800   40.4910 C   0  0  0  0  0  0  0  0  0  0  0  0
   41.4980   35.7560   40.8770 C   0  0  0  0  0  0  0  0  0  0  0  0
   40.1270   35.6480   40.7120 C   0  0  0  0  0  0  0  0  0  0  0  0
   39.6280   34.4710   40.1180 C   0  0  0  0  0  0  0  0  0  0  0  0
   37.9080   34.2460   39.8690 Cl  0  0  0  0  0  0  0  0  0  0  0  0
   40.5470   33.5090   39.7430 C   0  0  0  0  0  0  0  0  0  0  0  0
   41.9140   36.6440   41.3280 H   0  0  0  0  0  0  0  0  0  0  0  0
   39.4250   36.4030   41.0080 H   0  0  0  0  0  0  0  0  0  0  0  0
   39.8930   31.3720   41.3030 F   0  0  0  0  0  0  0  0  0  0  0  0
   39.7200   31.2170   39.9440 C   0  0  0  0  0  0  0  0  0  0  0  0
   40.0420   32.2810   39.1260 C   0  0  0  0  0  0  0  0  0  0  0  0
   39.8520   32.0830   37.7550 C   0  0  0  0  0  0  0  0  0  0  0  0
   39.3660   30.8660   37.3050 C   0  0  0  0  0  0  0  0  0  0  0  0
   39.0580   29.8250   38.1930 C   0  0  0  0  0  0  0  0  0  0  0  0
   39.2360   29.9930   39.5570 C   0  0  0  0  0  0  0  0  0  0  0  0
   40.1030   32.9100   37.1210 H   0  0  0  0  0  0  0  0  0  0  0  0
   39.2430   30.7790   36.2320 H   0  0  0  0  0  0  0  0  0  0  0  0
   38.6800   28.8890   37.7920 H   0  0  0  0  0  0  0  0  0  0  0  0
   39.0110   29.2170   40.2690 H   0  0  0  0  0  0  0  0  0  0  0  0
   43.7610   34.8820   40.6560 O   0  0  0  0  0  0  0  0  0  0  0  0
   44.3190   34.3340   41.8130 C   0  0  0  0  0  0  0  0  0  0  0  0
   44.0570   33.1890   42.3380 O   0  0  0  0  0  0  0  0  0  0  0  0
   45.2980   35.0580   42.5580 N   0  0  0  0  0  0  0  0  0  0  0  0
   45.6640   35.9750   42.2760 H   0  0  0  0  0  0  0  0  0  0  0  0
   45.6650   34.2940   43.7330 C   0  0  0  0  0  0  0  0  0  0  0  0
   45.2120   34.4920   44.9990 C   0  0  0  0  0  0  0  0  0  0  0  0
   45.6900   33.6500   45.9760 C   0  0  0  0  0  0  0  0  0  0  0  0
   46.5730   32.6880   45.6080 N   0  0  0  0  0  0  0  0  0  0  0  0
   46.9970   32.5230   44.3460 C   0  0  0  0  0  0  0  0  0  0  0  0
   46.5420   33.3370   43.3750 N   0  0  0  0  0  0  0  0  0  0  0  0
   45.3350   33.7980   46.9870 H   0  0  0  0  0  0  0  0  0  0  0  0
   44.2940   35.5430   45.1960 N   0  0  0  0  0  0  0  0  0  0  0  0
   43.2620   35.4780   45.4310 H   0  0  0  0  0  0  0  0  0  0  0  0
   44.6990   36.4990   45.0950 H   0  0  0  0  0  0  0  0  0  0  0  0
   47.9770   31.4180   44.0780 C   0  0  0  0  0  0  0  0  0  0  0  0
   47.9220   30.6430   42.8420 C   0  0  0  0  0  0  0  0  0  0  0  0
   48.9350   31.7360   42.9400 C   0  0  0  0  0  0  0  0  0  0  0  0
  1  2  1  0  0  0  0
  2  3  1  0  0  0  0
  3 22  1  0  0  0  0
  3  4  2  0  0  0  0
  4  9  1  0  0  0  0
  5  4  1  0  0  0  0
  5 10  1  0  0  0  0
  6  5  2  0  0  0  0
  7  6  1  0  0  0  0
  8  2  2  0  0  0  0
  8  6  1  0  0  0  0
 12 11  1  0  0  0  0
 13  8  1  0  0  0  0
 13 12  2  0  0  0  0
 14 13  1  0  0  0  0
 15 14  2  0  0  0  0
 15 16  1  0  0  0  0
 16 17  2  0  0  0  0
 17 12  1  0  0  0  0
 17 21  1  0  0  0  0
 18 14  1  0  0  0  0
 19 15  1  0  0  0  0
 20 16  1  0  0  0  0
 22 23  1  0  0  0  0
 23 24  2  0  0  0  0
 23 25  1  0  0  0  0
 25 27  1  0  0  0  0
 26 25  1  0  0  0  0
 27 28  1  0  0  0  0
 28 34  1  0  0  0  0
 28 29  2  0  0  0  0
 29 33  1  0  0  0  0
 30 29  1  0  0  0  0
 31 30  2  0  0  0  0
 32 27  2  0  0  0  0
 32 31  1  0  0  0  0
 34 35  1  0  0  0  0
 36 34  1  0  0  0  0
 37 31  1  0  0  0  0
 38 39  1  0  0  0  0
 38 37  1  0  0  0  0
 39 37  1  0  0  0  0
M  END
>  <minimizedAffinity>
-6.09990978

>  <minimizedRMSD>
0.342652649

$$$$
