
 OpenBabel03242521403D

 15 16  0  0  0  0  0  0  0  0999 V2000
   45.4740   34.8680   44.0650 C   0  0  0  0  0  0  0  0  0  0  0  0
   46.4060   35.0980   43.0370 C   0  0  0  0  0  0  0  0  0  0  0  0
   47.5150   34.2240   42.9530 C   0  0  0  0  0  0  0  0  0  0  0  0
   47.6040   33.2290   43.8610 N   0  0  0  0  0  0  0  0  0  0  0  0
   46.6760   33.0500   44.8360 C   0  0  0  0  0  0  0  0  0  0  0  0
   45.6170   33.8660   44.9360 N   0  0  0  0  0  0  0  0  0  0  0  0
   46.2660   35.9160   42.3460 H   0  0  0  0  0  0  0  0  0  0  0  0
   46.8550   32.2200   45.5040 H   0  0  0  0  0  0  0  0  0  0  0  0
   44.3040   35.8050   44.1410 C   0  0  0  0  0  0  0  0  0  0  0  0
   44.6010   36.8660   44.0070 H   0  0  0  0  0  0  0  0  0  0  0  0
   43.8530   35.6750   45.1670 H   0  0  0  0  0  0  0  0  0  0  0  0
   43.4950   35.5220   43.4340 H   0  0  0  0  0  0  0  0  0  0  0  0
   48.5180   34.4190   41.8980 C   0  0  0  0  0  0  0  0  0  0  0  0
   49.8350   34.9940   42.4190 C   0  0  0  0  0  0  0  0  0  0  0  0
   48.9520   35.7560   41.4630 C   0  0  0  0  0  0  0  0  0  0  0  0
  1  9  1  0  0  0  0
  1  6  1  0  0  0  0
  2  1  2  0  0  0  0
  3  2  1  0  0  0  0
  3  4  2  0  0  0  0
  4  5  1  0  0  0  0
  5  6  2  0  0  0  0
  5  8  1  0  0  0  0
  7  2  1  0  0  0  0
  9 11  1  0  0  0  0
 10  9  1  0  0  0  0
 12  9  1  0  0  0  0
 13 14  1  0  0  0  0
 13  3  1  0  0  0  0
 15 13  1  0  0  0  0
 15 14  1  0  0  0  0
M  END
>  <minimizedAffinity>
-4.00241423

>  <minimizedRMSD>
2.22743511

$$$$
