
 OpenBabel03242523013D

 25 27  0  0  0  0  0  0  0  0999 V2000
   36.9210   29.8750   37.6320 Cl  0  0  0  0  0  0  0  0  0  0  0  0
   37.0040   29.1420   39.2070 C   0  0  0  0  0  0  0  0  0  0  0  0
   37.5320   29.7860   40.2730 C   0  0  0  0  0  0  0  0  0  0  0  0
   37.5450   29.1070   41.4710 C   0  0  0  0  0  0  0  0  0  0  0  0
   37.0600   27.8540   41.6100 C   0  0  0  0  0  0  0  0  0  0  0  0
   36.5260   27.1970   40.5390 C   0  0  0  0  0  0  0  0  0  0  0  0
   36.5050   27.8620   39.3340 C   0  0  0  0  0  0  0  0  0  0  0  0
   37.9740   29.6280   42.3390 H   0  0  0  0  0  0  0  0  0  0  0  0
   36.1230   26.1950   40.5830 H   0  0  0  0  0  0  0  0  0  0  0  0
   36.0820   27.3470   38.4760 H   0  0  0  0  0  0  0  0  0  0  0  0
   37.8330   33.5640   40.1030 C   0  0  0  0  0  0  0  0  0  0  0  0
   37.2990   32.2850   40.2990 C   0  0  0  0  0  0  0  0  0  0  0  0
   38.0500   31.1500   40.0820 C   0  0  0  0  0  0  0  0  0  0  0  0
   39.3460   31.3340   39.6660 N   0  0  0  0  0  0  0  0  0  0  0  0
   39.8390   32.5780   39.4860 C   0  0  0  0  0  0  0  0  0  0  0  0
   39.1040   33.6800   39.6970 N   0  0  0  0  0  0  0  0  0  0  0  0
   37.2290   34.4240   40.2790 H   0  0  0  0  0  0  0  0  0  0  0  0
   36.2930   32.1550   40.6220 H   0  0  0  0  0  0  0  0  0  0  0  0
   41.2580   32.7100   39.0320 C   0  0  0  0  0  3  0  0  0  0  0  0
   41.4950   32.8150   37.5320 C   0  0  0  0  0  2  0  0  0  0  0  0
   41.7500   33.9700   38.4280 C   0  0  0  0  0  2  0  0  0  0  0  0
   37.0820   27.1310   42.9230 C   0  0  0  0  0  0  0  0  0  0  0  0
   35.9660   27.4450   43.6140 F   0  0  0  0  0  0  0  0  0  0  0  0
   38.2540   27.4210   43.6240 F   0  0  0  0  0  0  0  0  0  0  0  0
   37.0970   25.7630   42.6400 F   0  0  0  0  0  0  0  0  0  0  0  0
  1  2  1  0  0  0  0
  2  7  2  0  0  0  0
  2  3  1  0  0  0  0
  3  4  2  0  0  0  0
  4  5  1  0  0  0  0
  4  8  1  0  0  0  0
  5 22  1  0  0  0  0
  6  9  1  0  0  0  0
  6  5  2  0  0  0  0
  7  6  1  0  0  0  0
 10  7  1  0  0  0  0
 11 17  1  0  0  0  0
 11 12  1  0  0  0  0
 12 18  1  0  0  0  0
 13  3  1  0  0  0  0
 13 12  2  0  0  0  0
 14 13  1  0  0  0  0
 15 14  2  0  0  0  0
 15 16  1  0  0  0  0
 16 11  2  0  0  0  0
 19 15  1  0  0  0  0
 20 21  1  0  0  0  0
 20 19  1  0  0  0  0
 21 19  1  0  0  0  0
 22 23  1  0  0  0  0
 22 24  1  0  0  0  0
 25 22  1  0  0  0  0
M  END
>  <minimizedAffinity>
-5.37823296

$$$$

 OpenBabel03242523013D

 25 27  0  0  0  0  0  0  0  0999 V2000
   36.5320   27.6720   38.4720 Cl  0  0  0  0  0  0  0  0  0  0  0  0
   37.0190   29.2710   38.9490 C   0  0  0  0  0  0  0  0  0  0  0  0
   37.4410   29.5510   40.2030 C   0  0  0  0  0  0  0  0  0  0  0  0
   37.8010   30.8540   40.4660 C   0  0  0  0  0  0  0  0  0  0  0  0
   37.7490   31.8320   39.5370 C   0  0  0  0  0  0  0  0  0  0  0  0
   37.3240   31.5590   38.2690 C   0  0  0  0  0  0  0  0  0  0  0  0
   36.9600   30.2610   37.9890 C   0  0  0  0  0  0  0  0  0  0  0  0
   38.1450   31.0840   41.4850 H   0  0  0  0  0  0  0  0  0  0  0  0
   37.2580   32.2950   37.4800 H   0  0  0  0  0  0  0  0  0  0  0  0
   36.6210   30.0340   36.9820 H   0  0  0  0  0  0  0  0  0  0  0  0
   36.5100   27.0800   42.9280 C   0  0  0  0  0  0  0  0  0  0  0  0
   36.4240   28.1290   42.0050 C   0  0  0  0  0  0  0  0  0  0  0  0
   37.4840   28.4580   41.1870 C   0  0  0  0  0  0  0  0  0  0  0  0
   38.6270   27.7080   41.3220 N   0  0  0  0  0  0  0  0  0  0  0  0
   38.6850   26.7010   42.2190 C   0  0  0  0  0  0  0  0  0  0  0  0
   37.6510   26.3850   43.0130 N   0  0  0  0  0  0  0  0  0  0  0  0
   35.6740   26.8480   43.5470 H   0  0  0  0  0  0  0  0  0  0  0  0
   35.5330   28.7030   41.9090 H   0  0  0  0  0  0  0  0  0  0  0  0
   39.9590   25.9220   42.3160 C   0  0  0  0  0  3  0  0  0  0  0  0
   40.7510   26.0550   43.6090 C   0  0  0  0  0  2  0  0  0  0  0  0
   40.0830   24.7790   43.2510 C   0  0  0  0  0  2  0  0  0  0  0  0
   38.1460   33.2450   39.8420 C   0  0  0  0  0  0  0  0  0  0  0  0
   37.1040   34.0600   39.5740 F   0  0  0  0  0  0  0  0  0  0  0  0
   39.3010   33.5940   39.1410 F   0  0  0  0  0  0  0  0  0  0  0  0
   38.4560   33.3020   41.2030 F   0  0  0  0  0  0  0  0  0  0  0  0
  1  2  1  0  0  0  0
  2  3  1  0  0  0  0
  3  4  2  0  0  0  0
  3 13  1  0  0  0  0
  4  8  1  0  0  0  0
  5 22  1  0  0  0  0
  5  4  1  0  0  0  0
  6  5  2  0  0  0  0
  7  6  1  0  0  0  0
  7  2  2  0  0  0  0
  9  6  1  0  0  0  0
 10  7  1  0  0  0  0
 11 16  1  0  0  0  0
 11 17  1  0  0  0  0
 12 11  2  0  0  0  0
 13 14  2  0  0  0  0
 13 12  1  0  0  0  0
 14 15  1  0  0  0  0
 15 19  1  0  0  0  0
 15 16  2  0  0  0  0
 18 12  1  0  0  0  0
 19 21  1  0  0  0  0
 19 20  1  0  0  0  0
 21 20  1  0  0  0  0
 22 25  1  0  0  0  0
 23 22  1  0  0  0  0
 24 22  1  0  0  0  0
M  END
>  <minimizedAffinity>
-5.13351631

$$$$

 OpenBabel03242523013D

 25 27  0  0  0  0  0  0  0  0999 V2000
   37.3190   28.2030   37.0070 Cl  0  0  0  0  0  0  0  0  0  0  0  0
   35.6290   28.5940   37.1250 C   0  0  0  0  0  0  0  0  0  0  0  0
   34.9860   28.6550   38.3140 C   0  0  0  0  0  0  0  0  0  0  0  0
   33.6470   28.9750   38.2850 C   0  0  0  0  0  0  0  0  0  0  0  0
   32.9760   29.2230   37.1410 C   0  0  0  0  0  0  0  0  0  0  0  0
   33.6160   29.1650   35.9370 C   0  0  0  0  0  0  0  0  0  0  0  0
   34.9560   28.8460   35.9470 C   0  0  0  0  0  0  0  0  0  0  0  0
   33.1220   29.0240   39.2510 H   0  0  0  0  0  0  0  0  0  0  0  0
   33.1380   29.3520   34.9860 H   0  0  0  0  0  0  0  0  0  0  0  0
   35.4740   28.7970   34.9940 H   0  0  0  0  0  0  0  0  0  0  0  0
   36.7310   29.0140   41.6640 C   0  0  0  0  0  0  0  0  0  0  0  0
   35.9960   29.3220   40.5130 C   0  0  0  0  0  0  0  0  0  0  0  0
   35.7520   28.3780   39.5390 C   0  0  0  0  0  0  0  0  0  0  0  0
   36.2630   27.1210   39.7530 N   0  0  0  0  0  0  0  0  0  0  0  0
   36.9680   26.8470   40.8710 C   0  0  0  0  0  0  0  0  0  0  0  0
   37.2040   27.7700   41.8160 N   0  0  0  0  0  0  0  0  0  0  0  0
   36.9050   29.7640   42.4000 H   0  0  0  0  0  0  0  0  0  0  0  0
   35.6050   30.3000   40.3590 H   0  0  0  0  0  0  0  0  0  0  0  0
   37.4970   25.4590   41.0440 C   0  0  0  0  0  3  0  0  0  0  0  0
   36.9480   24.6520   42.2110 C   0  0  0  0  0  2  0  0  0  0  0  0
   36.6320   24.2790   40.8100 C   0  0  0  0  0  2  0  0  0  0  0  0
   31.5170   29.5710   37.1300 C   0  0  0  0  0  0  0  0  0  0  0  0
   31.1220   29.8360   38.3940 F   0  0  0  0  0  0  0  0  0  0  0  0
   30.7740   28.5520   36.5330 F   0  0  0  0  0  0  0  0  0  0  0  0
   31.3700   30.7100   36.3360 F   0  0  0  0  0  0  0  0  0  0  0  0
  1  2  1  0  0  0  0
  2  3  1  0  0  0  0
  3 13  1  0  0  0  0
  4  3  2  0  0  0  0
  4  8  1  0  0  0  0
  5  4  1  0  0  0  0
  6  7  1  0  0  0  0
  6  5  2  0  0  0  0
  7  2  2  0  0  0  0
  9  6  1  0  0  0  0
 10  7  1  0  0  0  0
 11 16  1  0  0  0  0
 11 17  1  0  0  0  0
 12 11  2  0  0  0  0
 13 14  2  0  0  0  0
 13 12  1  0  0  0  0
 14 15  1  0  0  0  0
 15 19  1  0  0  0  0
 15 16  2  0  0  0  0
 18 12  1  0  0  0  0
 19 20  1  0  0  0  0
 21 19  1  0  0  0  0
 21 20  1  0  0  0  0
 22  5  1  0  0  0  0
 22 23  1  0  0  0  0
 24 22  1  0  0  0  0
 25 22  1  0  0  0  0
M  END
>  <minimizedAffinity>
-5.00226831

$$$$

 OpenBabel03242523013D

 25 27  0  0  0  0  0  0  0  0999 V2000
   37.2290   27.6460   37.6580 Cl  0  0  0  0  0  0  0  0  0  0  0  0
   35.5790   28.1760   37.5090 C   0  0  0  0  0  0  0  0  0  0  0  0
   34.9700   28.9100   38.4690 C   0  0  0  0  0  0  0  0  0  0  0  0
   33.6610   29.2730   38.2420 C   0  0  0  0  0  0  0  0  0  0  0  0
   32.9870   28.9290   37.1240 C   0  0  0  0  0  0  0  0  0  0  0  0
   33.5930   28.1890   36.1510 C   0  0  0  0  0  0  0  0  0  0  0  0
   34.9030   27.8170   36.3610 C   0  0  0  0  0  0  0  0  0  0  0  0
   33.1630   29.8690   39.0210 H   0  0  0  0  0  0  0  0  0  0  0  0
   33.1100   27.8810   35.2350 H   0  0  0  0  0  0  0  0  0  0  0  0
   35.3940   27.2280   35.5920 H   0  0  0  0  0  0  0  0  0  0  0  0
   37.0680   30.7830   41.0150 C   0  0  0  0  0  0  0  0  0  0  0  0
   36.3460   30.4890   39.8520 C   0  0  0  0  0  0  0  0  0  0  0  0
   35.7380   29.2650   39.6720 C   0  0  0  0  0  0  0  0  0  0  0  0
   35.8740   28.3500   40.6880 N   0  0  0  0  0  0  0  0  0  0  0  0
   36.5750   28.6570   41.7990 C   0  0  0  0  0  0  0  0  0  0  0  0
   37.1660   29.8490   41.9700 N   0  0  0  0  0  0  0  0  0  0  0  0
   37.5280   31.7380   41.1270 H   0  0  0  0  0  0  0  0  0  0  0  0
   36.2470   31.2060   39.0730 H   0  0  0  0  0  0  0  0  0  0  0  0
   36.6850   27.6160   42.8680 C   0  0  0  0  0  3  0  0  0  0  0  0
   37.6620   26.4760   42.6210 C   0  0  0  0  0  2  0  0  0  0  0  0
   37.9190   27.4850   43.6780 C   0  0  0  0  0  2  0  0  0  0  0  0
   31.5610   29.3340   36.8950 C   0  0  0  0  0  0  0  0  0  0  0  0
   30.8740   28.2700   36.4290 F   0  0  0  0  0  0  0  0  0  0  0  0
   31.4950   30.4380   36.0440 F   0  0  0  0  0  0  0  0  0  0  0  0
   31.0430   29.7320   38.1300 F   0  0  0  0  0  0  0  0  0  0  0  0
  2  1  1  0  0  0  0
  2  3  1  0  0  0  0
  3 13  1  0  0  0  0
  4  3  2  0  0  0  0
  4  8  1  0  0  0  0
  5  4  1  0  0  0  0
  6  7  1  0  0  0  0
  6  5  2  0  0  0  0
  7  2  2  0  0  0  0
  9  6  1  0  0  0  0
 10  7  1  0  0  0  0
 11 17  1  0  0  0  0
 11 16  1  0  0  0  0
 12 11  2  0  0  0  0
 13 12  1  0  0  0  0
 13 14  2  0  0  0  0
 14 15  1  0  0  0  0
 15 16  2  0  0  0  0
 15 19  1  0  0  0  0
 18 12  1  0  0  0  0
 19 21  1  0  0  0  0
 20 19  1  0  0  0  0
 20 21  1  0  0  0  0
 22  5  1  0  0  0  0
 22 25  1  0  0  0  0
 23 22  1  0  0  0  0
 24 22  1  0  0  0  0
M  END
>  <minimizedAffinity>
-4.98026657

$$$$

 OpenBabel03242523013D

 25 27  0  0  0  0  0  0  0  0999 V2000
   36.5300   27.6120   43.2980 Cl  0  0  0  0  0  0  0  0  0  0  0  0
   36.6660   28.3250   41.7180 C   0  0  0  0  0  0  0  0  0  0  0  0
   36.9260   27.5860   40.6150 C   0  0  0  0  0  0  0  0  0  0  0  0
   37.0120   28.2590   39.4170 C   0  0  0  0  0  0  0  0  0  0  0  0
   36.8490   29.5950   39.3120 C   0  0  0  0  0  0  0  0  0  0  0  0
   36.5860   30.3490   40.4200 C   0  0  0  0  0  0  0  0  0  0  0  0
   36.4970   29.6910   41.6260 C   0  0  0  0  0  0  0  0  0  0  0  0
   37.2240   27.6610   38.5190 H   0  0  0  0  0  0  0  0  0  0  0  0
   36.4460   31.4200   40.4040 H   0  0  0  0  0  0  0  0  0  0  0  0
   36.2880   30.2830   42.5130 H   0  0  0  0  0  0  0  0  0  0  0  0
   38.0730   24.1730   41.8130 C   0  0  0  0  0  0  0  0  0  0  0  0
   37.9410   25.5620   41.7000 C   0  0  0  0  0  0  0  0  0  0  0  0
   37.0980   26.1330   40.7700 C   0  0  0  0  0  0  0  0  0  0  0  0
   36.3940   25.2740   39.9620 N   0  0  0  0  0  0  0  0  0  0  0  0
   36.5380   23.9380   40.0900 C   0  0  0  0  0  0  0  0  0  0  0  0
   37.3600   23.3870   40.9960 N   0  0  0  0  0  0  0  0  0  0  0  0
   38.7320   23.7600   42.5400 H   0  0  0  0  0  0  0  0  0  0  0  0
   38.4910   26.2180   42.3330 H   0  0  0  0  0  0  0  0  0  0  0  0
   35.7430   23.0570   39.1790 C   0  0  0  0  0  3  0  0  0  0  0  0
   34.2800   22.8370   39.5350 C   0  0  0  0  0  2  0  0  0  0  0  0
   34.6640   23.6150   38.3310 C   0  0  0  0  0  2  0  0  0  0  0  0
   36.9460   30.3110   37.9980 C   0  0  0  0  0  0  0  0  0  0  0  0
   35.9340   29.9020   37.2030 F   0  0  0  0  0  0  0  0  0  0  0  0
   38.2010   30.1130   37.4220 F   0  0  0  0  0  0  0  0  0  0  0  0
   36.8220   31.6760   38.2610 F   0  0  0  0  0  0  0  0  0  0  0  0
  2  1  1  0  0  0  0
  3 13  1  0  0  0  0
  3  2  2  0  0  0  0
  4  3  1  0  0  0  0
  5  4  2  0  0  0  0
  5  6  1  0  0  0  0
  6  7  2  0  0  0  0
  7  2  1  0  0  0  0
  7 10  1  0  0  0  0
  8  4  1  0  0  0  0
  9  6  1  0  0  0  0
 11 17  1  0  0  0  0
 12 11  1  0  0  0  0
 12 18  1  0  0  0  0
 13 12  2  0  0  0  0
 14 15  2  0  0  0  0
 14 13  1  0  0  0  0
 15 16  1  0  0  0  0
 16 11  2  0  0  0  0
 19 20  1  0  0  0  0
 19 15  1  0  0  0  0
 21 19  1  0  0  0  0
 21 20  1  0  0  0  0
 22 25  1  0  0  0  0
 22  5  1  0  0  0  0
 23 22  1  0  0  0  0
 24 22  1  0  0  0  0
M  END
>  <minimizedAffinity>
-4.93517733

$$$$

 OpenBabel03242523013D

 25 27  0  0  0  0  0  0  0  0999 V2000
   39.2820   29.8930   39.5440 Cl  0  0  0  0  0  0  0  0  0  0  0  0
   37.6440   29.5220   39.0940 C   0  0  0  0  0  0  0  0  0  0  0  0
   36.8260   28.7940   39.8890 C   0  0  0  0  0  0  0  0  0  0  0  0
   35.5490   28.5630   39.4290 C   0  0  0  0  0  0  0  0  0  0  0  0
   35.1010   29.0270   38.2420 C   0  0  0  0  0  0  0  0  0  0  0  0
   35.9190   29.7610   37.4340 C   0  0  0  0  0  0  0  0  0  0  0  0
   37.2000   30.0020   37.8790 C   0  0  0  0  0  0  0  0  0  0  0  0
   34.8830   27.9710   40.0730 H   0  0  0  0  0  0  0  0  0  0  0  0
   35.6230   30.1600   36.4740 H   0  0  0  0  0  0  0  0  0  0  0  0
   37.8580   30.5860   37.2420 H   0  0  0  0  0  0  0  0  0  0  0  0
   37.7620   28.5080   43.5550 C   0  0  0  0  0  0  0  0  0  0  0  0
   37.2470   29.0110   42.3540 C   0  0  0  0  0  0  0  0  0  0  0  0
   37.3520   28.3070   41.1740 C   0  0  0  0  0  0  0  0  0  0  0  0
   37.9840   27.0890   41.2330 N   0  0  0  0  0  0  0  0  0  0  0  0
   38.4720   26.6250   42.4030 C   0  0  0  0  0  0  0  0  0  0  0  0
   38.3690   27.3140   43.5490 N   0  0  0  0  0  0  0  0  0  0  0  0
   37.6670   29.0750   44.4520 H   0  0  0  0  0  0  0  0  0  0  0  0
   36.7580   29.9560   42.3210 H   0  0  0  0  0  0  0  0  0  0  0  0
   39.1500   25.2910   42.4000 C   0  0  0  0  0  3  0  0  0  0  0  0
   40.6600   25.2860   42.2130 C   0  0  0  0  0  2  0  0  0  0  0  0
   40.0500   24.8920   43.5070 C   0  0  0  0  0  2  0  0  0  0  0  0
   33.7060   28.7640   37.7580 C   0  0  0  0  0  0  0  0  0  0  0  0
   32.8310   29.2160   38.6820 F   0  0  0  0  0  0  0  0  0  0  0  0
   33.5350   27.4100   37.4660 F   0  0  0  0  0  0  0  0  0  0  0  0
   33.5440   29.4690   36.5640 F   0  0  0  0  0  0  0  0  0  0  0  0
  2  1  1  0  0  0  0
  2  3  1  0  0  0  0
  3 13  1  0  0  0  0
  4  3  2  0  0  0  0
  4  8  1  0  0  0  0
  5  4  1  0  0  0  0
  6  7  1  0  0  0  0
  6  5  2  0  0  0  0
  7  2  2  0  0  0  0
  9  6  1  0  0  0  0
 10  7  1  0  0  0  0
 11 17  1  0  0  0  0
 12 11  2  0  0  0  0
 13 14  2  0  0  0  0
 13 12  1  0  0  0  0
 14 15  1  0  0  0  0
 15 16  2  0  0  0  0
 16 11  1  0  0  0  0
 18 12  1  0  0  0  0
 19 15  1  0  0  0  0
 19 21  1  0  0  0  0
 20 19  1  0  0  0  0
 20 21  1  0  0  0  0
 22  5  1  0  0  0  0
 22 23  1  0  0  0  0
 24 22  1  0  0  0  0
 25 22  1  0  0  0  0
M  END
>  <minimizedAffinity>
-4.93115759

$$$$

 OpenBabel03242523013D

 25 27  0  0  0  0  0  0  0  0999 V2000
   37.3410   28.0110   36.4070 Cl  0  0  0  0  0  0  0  0  0  0  0  0
   35.6780   28.4420   36.6750 C   0  0  0  0  0  0  0  0  0  0  0  0
   35.0360   28.1500   37.8300 C   0  0  0  0  0  0  0  0  0  0  0  0
   33.7190   28.5410   37.9290 C   0  0  0  0  0  0  0  0  0  0  0  0
   33.0680   29.1870   36.9380 C   0  0  0  0  0  0  0  0  0  0  0  0
   33.7080   29.4850   35.7700 C   0  0  0  0  0  0  0  0  0  0  0  0
   35.0260   29.1020   35.6540 C   0  0  0  0  0  0  0  0  0  0  0  0
   33.1950   28.3050   38.8670 H   0  0  0  0  0  0  0  0  0  0  0  0
   33.2450   29.9980   34.9400 H   0  0  0  0  0  0  0  0  0  0  0  0
   35.5430   29.3350   34.7280 H   0  0  0  0  0  0  0  0  0  0  0  0
   36.9540   25.5240   39.7850 C   0  0  0  0  0  0  0  0  0  0  0  0
   36.2500   26.1560   38.7530 C   0  0  0  0  0  0  0  0  0  0  0  0
   35.7800   27.4460   38.8850 C   0  0  0  0  0  0  0  0  0  0  0  0
   36.0370   28.0790   40.0770 N   0  0  0  0  0  0  0  0  0  0  0  0
   36.7180   27.4490   41.0570 C   0  0  0  0  0  0  0  0  0  0  0  0
   37.1720   26.1940   40.9240 N   0  0  0  0  0  0  0  0  0  0  0  0
   37.3050   24.5270   39.6540 H   0  0  0  0  0  0  0  0  0  0  0  0
   36.0580   25.6550   37.8340 H   0  0  0  0  0  0  0  0  0  0  0  0
   36.9640   28.1940   42.3300 C   0  0  0  0  0  3  0  0  0  0  0  0
   36.5070   27.5260   43.6190 C   0  0  0  0  0  2  0  0  0  0  0  0
   37.9500   27.7030   43.3220 C   0  0  0  0  0  2  0  0  0  0  0  0
   31.6340   29.6040   37.0660 C   0  0  0  0  0  0  0  0  0  0  0  0
   30.8490   28.6350   36.5470 F   0  0  0  0  0  0  0  0  0  0  0  0
   31.4280   30.8470   36.4660 F   0  0  0  0  0  0  0  0  0  0  0  0
   31.3670   29.7530   38.4290 F   0  0  0  0  0  0  0  0  0  0  0  0
  1  2  1  0  0  0  0
  2  3  1  0  0  0  0
  3  4  2  0  0  0  0
  3 13  1  0  0  0  0
  4  8  1  0  0  0  0
  5 22  1  0  0  0  0
  5  4  1  0  0  0  0
  6  5  2  0  0  0  0
  7  6  1  0  0  0  0
  7  2  2  0  0  0  0
  9  6  1  0  0  0  0
 10  7  1  0  0  0  0
 11 16  1  0  0  0  0
 12 13  1  0  0  0  0
 12 11  2  0  0  0  0
 13 14  2  0  0  0  0
 14 15  1  0  0  0  0
 15 19  1  0  0  0  0
 16 15  2  0  0  0  0
 17 11  1  0  0  0  0
 18 12  1  0  0  0  0
 19 21  1  0  0  0  0
 19 20  1  0  0  0  0
 21 20  1  0  0  0  0
 22 25  1  0  0  0  0
 23 22  1  0  0  0  0
 24 22  1  0  0  0  0
M  END
>  <minimizedAffinity>
-4.87876129

$$$$

 OpenBabel03242523013D

 25 27  0  0  0  0  0  0  0  0999 V2000
   35.3520   29.2900   39.7980 Cl  0  0  0  0  0  0  0  0  0  0  0  0
   36.9080   29.8580   39.2720 C   0  0  0  0  0  0  0  0  0  0  0  0
   38.0380   29.6210   39.9780 C   0  0  0  0  0  0  0  0  0  0  0  0
   39.2140   30.1200   39.4640 C   0  0  0  0  0  0  0  0  0  0  0  0
   39.2720   30.8180   38.3100 C   0  0  0  0  0  0  0  0  0  0  0  0
   38.1380   31.0630   37.5910 C   0  0  0  0  0  0  0  0  0  0  0  0
   36.9530   30.5710   38.0910 C   0  0  0  0  0  0  0  0  0  0  0  0
   40.1330   29.9280   40.0360 H   0  0  0  0  0  0  0  0  0  0  0  0
   38.1170   31.6140   36.6620 H   0  0  0  0  0  0  0  0  0  0  0  0
   36.0450   30.7600   37.5250 H   0  0  0  0  0  0  0  0  0  0  0  0
   37.6350   28.6730   43.6300 C   0  0  0  0  0  0  0  0  0  0  0  0
   37.7290   29.4400   42.4630 C   0  0  0  0  0  0  0  0  0  0  0  0
   37.9320   28.8560   41.2300 C   0  0  0  0  0  0  0  0  0  0  0  0
   38.0360   27.4870   41.2030 N   0  0  0  0  0  0  0  0  0  0  0  0
   37.9420   26.7680   42.3420 C   0  0  0  0  0  0  0  0  0  0  0  0
   37.7450   27.3410   43.5390 N   0  0  0  0  0  0  0  0  0  0  0  0
   37.4780   29.1510   44.5690 H   0  0  0  0  0  0  0  0  0  0  0  0
   37.6460   30.5010   42.4960 H   0  0  0  0  0  0  0  0  0  0  0  0
   38.0640   25.2810   42.2440 C   0  0  0  0  0  3  0  0  0  0  0  0
   36.8170   24.5120   41.8320 C   0  0  0  0  0  2  0  0  0  0  0  0
   37.9940   24.5960   40.9320 C   0  0  0  0  0  2  0  0  0  0  0  0
   40.5630   31.3530   37.7660 C   0  0  0  0  0  0  0  0  0  0  0  0
   41.1860   30.3740   37.0760 F   0  0  0  0  0  0  0  0  0  0  0  0
   41.3500   31.8770   38.7930 F   0  0  0  0  0  0  0  0  0  0  0  0
   40.2440   32.4100   36.9100 F   0  0  0  0  0  0  0  0  0  0  0  0
  2  1  1  0  0  0  0
  2  3  1  0  0  0  0
  3 13  1  0  0  0  0
  4  3  2  0  0  0  0
  4  8  1  0  0  0  0
  5  4  1  0  0  0  0
  6  7  1  0  0  0  0
  6  5  2  0  0  0  0
  7  2  2  0  0  0  0
  9  6  1  0  0  0  0
 10  7  1  0  0  0  0
 11 17  1  0  0  0  0
 12 18  1  0  0  0  0
 12 11  2  0  0  0  0
 13 12  1  0  0  0  0
 14 13  2  0  0  0  0
 14 15  1  0  0  0  0
 15 16  2  0  0  0  0
 16 11  1  0  0  0  0
 19 15  1  0  0  0  0
 20 19  1  0  0  0  0
 21 20  1  0  0  0  0
 21 19  1  0  0  0  0
 22  5  1  0  0  0  0
 22 24  1  0  0  0  0
 23 22  1  0  0  0  0
 25 22  1  0  0  0  0
M  END
>  <minimizedAffinity>
-4.87633181

$$$$

 OpenBabel03242523013D

 25 27  0  0  0  0  0  0  0  0999 V2000
   35.8280   30.7800   40.7600 Cl  0  0  0  0  0  0  0  0  0  0  0  0
   37.4810   31.3110   40.6690 C   0  0  0  0  0  0  0  0  0  0  0  0
   38.5030   30.5680   41.1510 C   0  0  0  0  0  0  0  0  0  0  0  0
   39.7710   31.0910   41.0230 C   0  0  0  0  0  0  0  0  0  0  0  0
   40.0170   32.2870   40.4480 C   0  0  0  0  0  0  0  0  0  0  0  0
   38.9920   33.0440   39.9590 C   0  0  0  0  0  0  0  0  0  0  0  0
   37.7180   32.5360   40.0790 C   0  0  0  0  0  0  0  0  0  0  0  0
   40.6040   30.4890   41.4150 H   0  0  0  0  0  0  0  0  0  0  0  0
   39.1220   34.0080   39.4890 H   0  0  0  0  0  0  0  0  0  0  0  0
   36.8950   33.1310   39.6920 H   0  0  0  0  0  0  0  0  0  0  0  0
   37.8860   27.8080   43.6800 C   0  0  0  0  0  0  0  0  0  0  0  0
   38.1860   29.0610   43.1330 C   0  0  0  0  0  0  0  0  0  0  0  0
   38.1940   29.2700   41.7700 C   0  0  0  0  0  0  0  0  0  0  0  0
   37.8920   28.1910   40.9760 N   0  0  0  0  0  0  0  0  0  0  0  0
   37.6050   26.9920   41.5270 C   0  0  0  0  0  0  0  0  0  0  0  0
   37.6000   26.7930   42.8530 N   0  0  0  0  0  0  0  0  0  0  0  0
   37.8870   27.6750   44.7370 H   0  0  0  0  0  0  0  0  0  0  0  0
   38.4180   29.8900   43.7590 H   0  0  0  0  0  0  0  0  0  0  0  0
   37.2860   25.8570   40.6070 C   0  0  0  0  0  3  0  0  0  0  0  0
   38.3010   24.7260   40.5280 C   0  0  0  0  0  2  0  0  0  0  0  0
   36.9650   24.5120   41.1390 C   0  0  0  0  0  2  0  0  0  0  0  0
   41.4060   32.8390   40.3180 C   0  0  0  0  0  0  0  0  0  0  0  0
   42.2900   31.8900   40.6900 F   0  0  0  0  0  0  0  0  0  0  0  0
   41.5360   34.0190   41.0520 F   0  0  0  0  0  0  0  0  0  0  0  0
   41.5960   33.1660   38.9730 F   0  0  0  0  0  0  0  0  0  0  0  0
  2  1  1  0  0  0  0
  2  3  1  0  0  0  0
  3 13  1  0  0  0  0
  4  3  2  0  0  0  0
  4  8  1  0  0  0  0
  5  4  1  0  0  0  0
  6  7  1  0  0  0  0
  6  5  2  0  0  0  0
  7  2  2  0  0  0  0
  9  6  1  0  0  0  0
 10  7  1  0  0  0  0
 11 17  1  0  0  0  0
 12 11  1  0  0  0  0
 12 18  1  0  0  0  0
 13 12  2  0  0  0  0
 14 15  2  0  0  0  0
 14 13  1  0  0  0  0
 15 16  1  0  0  0  0
 16 11  2  0  0  0  0
 19 21  1  0  0  0  0
 19 15  1  0  0  0  0
 20 19  1  0  0  0  0
 20 21  1  0  0  0  0
 22  5  1  0  0  0  0
 22 23  1  0  0  0  0
 22 24  1  0  0  0  0
 25 22  1  0  0  0  0
M  END
>  <minimizedAffinity>
-4.83323002

$$$$
