
 OpenBabel03242515053D

 33 35  0  0  0  0  0  0  0  0999 V2000
   41.8540   35.1350   41.4800 C   0  0  0  0  0  0  0  0  0  0  0  0
   41.3740   34.1220   41.5200 H   0  0  0  0  0  0  0  0  0  0  0  0
   41.9020   35.4860   42.5400 H   0  0  0  0  0  0  0  0  0  0  0  0
   40.9310   36.0250   40.7150 C   0  0  0  0  0  0  0  0  0  0  0  0
   41.5430   36.7550   40.1440 H   0  0  0  0  0  0  0  0  0  0  0  0
   40.2500   36.6280   41.3620 H   0  0  0  0  0  0  0  0  0  0  0  0
   41.7870   36.2740   37.7990 Cl  0  0  0  0  0  0  0  0  0  0  0  0
   40.4530   35.2960   38.3570 C   0  0  0  0  0  0  0  0  0  0  0  0
   40.1500   35.2570   39.7180 C   0  0  0  0  0  0  0  0  0  0  0  0
   39.0900   34.4660   40.0720 C   0  0  0  0  0  0  0  0  0  0  0  0
   38.2960   33.7100   39.2130 C   0  0  0  0  0  0  0  0  0  0  0  0
   38.6220   33.7700   37.8780 C   0  0  0  0  0  0  0  0  0  0  0  0
   37.6780   32.8470   36.7050 Cl  0  0  0  0  0  0  0  0  0  0  0  0
   39.6870   34.5560   37.4670 C   0  0  0  0  0  0  0  0  0  0  0  0
   38.8170   34.4050   41.1220 H   0  0  0  0  0  0  0  0  0  0  0  0
   37.4770   33.1150   39.6000 H   0  0  0  0  0  0  0  0  0  0  0  0
   39.9620   34.6200   36.4180 H   0  0  0  0  0  0  0  0  0  0  0  0
   43.4830   34.9830   40.7580 S   0  0  0  0  0  0  0  0  0  0  0  0
   44.7700   34.7110   41.9750 C   0  0  0  0  0  0  0  0  0  0  0  0
   46.0680   34.5340   41.4810 C   0  0  0  0  0  0  0  0  0  0  0  0
   47.0950   34.3190   42.3980 C   0  0  0  0  0  0  0  0  0  0  0  0
   46.7790   34.2940   43.7110 N   0  0  0  0  0  0  0  0  0  0  0  0
   45.5240   34.4660   44.1700 C   0  0  0  0  0  0  0  0  0  0  0  0
   44.5370   34.6720   43.2940 N   0  0  0  0  0  0  0  0  0  0  0  0
   46.2830   34.5600   40.4210 H   0  0  0  0  0  0  0  0  0  0  0  0
   45.3180   34.4170   45.5990 C   0  0  0  0  0  0  0  0  0  0  0  0
   44.4540   35.1930   46.0900 O   0  0  0  0  0  0  0  0  0  0  0  0
   46.1220   33.4790   46.3490 N   0  0  0  0  0  0  0  0  0  0  0  0
   45.6000   33.0200   47.1250 H   0  0  0  0  0  0  0  0  0  0  0  0
   47.1240   33.3520   46.0520 H   0  0  0  0  0  0  0  0  0  0  0  0
   48.4810   34.1280   41.9050 C   0  0  0  0  0  3  0  0  0  0  0  0
   48.9640   32.6950   42.0580 C   0  0  0  0  0  2  0  0  0  0  0  0
   48.7850   33.3260   40.7080 C   0  0  0  0  0  2  0  0  0  0  0  0
  1  2  1  0  0  0  0
  1  3  1  0  0  0  0
  4  6  1  0  0  0  0
  4  1  1  0  0  0  0
  5  4  1  0  0  0  0
  7  8  1  0  0  0  0
  8  9  1  0  0  0  0
  9 10  2  0  0  0  0
  9  4  1  0  0  0  0
 10 15  1  0  0  0  0
 11 16  1  0  0  0  0
 11 10  1  0  0  0  0
 12 11  2  0  0  0  0
 13 12  1  0  0  0  0
 14 12  1  0  0  0  0
 14  8  2  0  0  0  0
 17 14  1  0  0  0  0
 18  1  1  0  0  0  0
 18 19  1  0  0  0  0
 19 24  1  0  0  0  0
 20 19  2  0  0  0  0
 20 21  1  0  0  0  0
 21 22  2  0  0  0  0
 22 23  1  0  0  0  0
 23 26  1  0  0  0  0
 24 23  2  0  0  0  0
 25 20  1  0  0  0  0
 26 27  2  0  0  0  0
 26 28  1  0  0  0  0
 28 29  1  0  0  0  0
 30 28  1  0  0  0  0
 31 32  1  0  0  0  0
 31 21  1  0  0  0  0
 33 31  1  0  0  0  0
 33 32  1  0  0  0  0
M  END
>  <minimizedAffinity>
-6.49897337

>  <minimizedRMSD>
0.197740585

$$$$
