
 OpenBabel03252504423D

 39 42  0  0  0  0  0  0  0  0999 V2000
   46.4150   32.2040   47.7590 C   0  0  0  0  0  0  0  0  0  0  0  0
   45.9460   31.8400   48.9860 C   0  0  0  0  0  0  0  0  0  0  0  0
   46.9220   31.1480   49.5760 N   0  0  0  0  0  0  0  0  0  0  0  0
   47.9920   31.0560   48.7780 C   0  0  0  0  0  0  0  0  0  0  0  0
   47.6620   31.7250   47.6360 N   0  0  0  0  0  0  0  0  0  0  0  0
   49.2580   30.4330   48.9560 N   0  0  0  0  0  0  0  0  0  0  0  0
   50.3240   31.2470   49.5870 C   0  0  0  0  0  0  0  0  0  0  0  0
   50.4190   30.7090   51.0140 C   0  0  0  0  0  0  0  0  0  0  0  0
   50.4990   29.2060   51.0020 C   0  0  0  0  0  0  0  0  0  0  0  0
   50.8450   28.7200   49.6030 C   0  0  0  0  0  0  0  0  0  0  0  0
   49.7500   29.1300   48.6430 C   0  0  0  0  0  0  0  0  0  0  0  0
   44.9650   32.0700   49.4010 H   0  0  0  0  0  0  0  0  0  0  0  0
   46.8980   30.7170   50.5300 H   0  0  0  0  0  0  0  0  0  0  0  0
   51.2660   31.1470   49.0390 H   0  0  0  0  0  0  0  0  0  0  0  0
   50.0110   32.3060   49.6750 H   0  0  0  0  0  0  0  0  0  0  0  0
   49.5270   31.0040   51.5700 H   0  0  0  0  0  0  0  0  0  0  0  0
   51.3500   31.1210   51.4790 H   0  0  0  0  0  0  0  0  0  0  0  0
   49.5240   28.7360   51.2470 H   0  0  0  0  0  0  0  0  0  0  0  0
   51.2700   28.8020   51.7060 H   0  0  0  0  0  0  0  0  0  0  0  0
   50.9510   27.6210   49.6130 H   0  0  0  0  0  0  0  0  0  0  0  0
   51.8060   29.1960   49.3310 H   0  0  0  0  0  0  0  0  0  0  0  0
   50.1070   29.0580   47.5920 H   0  0  0  0  0  0  0  0  0  0  0  0
   48.9290   28.3730   48.8010 H   0  0  0  0  0  0  0  0  0  0  0  0
   45.6820   32.9990   46.7300 C   0  0  0  0  0  0  0  0  0  0  0  0
   45.4830   34.0180   47.1360 H   0  0  0  0  0  0  0  0  0  0  0  0
   44.7040   32.5130   46.5010 H   0  0  0  0  0  0  0  0  0  0  0  0
   46.1210   33.8760   44.4660 C   0  0  0  0  0  3  0  0  0  0  0  0
   46.4860   33.1420   45.4990 C   0  0  0  0  0  3  0  0  0  0  0  0
   47.0150   33.9200   43.3150 C   0  0  0  0  0  0  0  0  0  0  0  0
   47.0300   35.0320   42.4270 C   0  0  0  0  0  0  0  0  0  0  0  0
   47.9040   34.9890   41.3620 C   0  0  0  0  0  0  0  0  0  0  0  0
   48.7050   33.9170   41.1930 N   0  0  0  0  0  0  0  0  0  0  0  0
   48.6730   32.8760   42.0480 C   0  0  0  0  0  0  0  0  0  0  0  0
   47.8550   32.8710   43.0790 N   0  0  0  0  0  0  0  0  0  0  0  0
   46.3550   35.8430   42.6410 H   0  0  0  0  0  0  0  0  0  0  0  0
   47.8920   35.8460   40.7050 H   0  0  0  0  0  0  0  0  0  0  0  0
   49.5760   31.7190   41.8180 C   0  0  0  0  0  3  0  0  0  0  0  0
   49.7990   30.7300   42.9260 C   0  0  0  0  0  2  0  0  0  0  0  0
   50.9030   31.6340   42.4470 C   0  0  0  0  0  2  0  0  0  0  0  0
  1  2  2  0  0  0  0
  2 12  1  0  0  0  0
  2  3  1  0  0  0  0
  3 13  1  0  0  0  0
  4  6  1  0  0  0  0
  4  3  1  0  0  0  0
  5  1  1  0  0  0  0
  5  4  2  0  0  0  0
  6  7  1  0  0  0  0
  7 15  1  0  0  0  0
  7  8  1  0  0  0  0
  8 17  1  0  0  0  0
  8 16  1  0  0  0  0
  9  8  1  0  0  0  0
  9 18  1  0  0  0  0
  9 19  1  0  0  0  0
 10 20  1  0  0  0  0
 10  9  1  0  0  0  0
 11 23  1  0  0  0  0
 11  6  1  0  0  0  0
 11 10  1  0  0  0  0
 14  7  1  0  0  0  0
 21 10  1  0  0  0  0
 22 11  1  0  0  0  0
 24 25  1  0  0  0  0
 24  1  1  0  0  0  0
 26 24  1  0  0  0  0
 27 28  2  0  0  0  0
 28 24  1  0  0  0  0
 29 27  1  0  0  0  0
 30 35  1  0  0  0  0
 30 29  2  0  0  0  0
 31 30  1  0  0  0  0
 32 31  2  0  0  0  0
 32 33  1  0  0  0  0
 33 34  2  0  0  0  0
 34 29  1  0  0  0  0
 36 31  1  0  0  0  0
 37 33  1  0  0  0  0
 37 39  1  0  0  0  0
 37 38  1  0  0  0  0
 39 38  1  0  0  0  0
M  END
>  <minimizedAffinity>
-5.56955051

>  <minimizedRMSD>
0.447349429

$$$$
