
 OpenBabel03252506473D

 36 39  0  0  1  0  0  0  0  0999 V2000
   37.7400   29.5160   39.8730 N   0  0  1  0  0  0  0  0  0  0  0  0
   37.1200   28.8740   38.7360 C   0  0  0  0  0  0  0  0  0  0  0  0
   35.7740   29.4420   38.3980 C   0  0  0  0  0  0  0  0  0  0  0  0
   34.8060   29.0700   39.5240 C   0  0  0  0  0  0  0  0  0  0  0  0
   35.5010   29.1340   40.8580 C   0  0  0  0  0  0  0  0  0  0  0  0
   36.7220   30.0240   40.7460 C   0  0  2  0  0  0  0  0  0  0  0  0
   37.7620   28.8810   37.8250 H   0  0  0  0  0  0  0  0  0  0  0  0
   36.9410   27.8060   39.0210 H   0  0  0  0  0  0  0  0  0  0  0  0
   35.7950   30.5230   38.2130 H   0  0  0  0  0  0  0  0  0  0  0  0
   35.4240   28.9570   37.4790 H   0  0  0  0  0  0  0  0  0  0  0  0
   34.4230   28.0620   39.2900 H   0  0  0  0  0  0  0  0  0  0  0  0
   33.9580   29.7980   39.4540 H   0  0  0  0  0  0  0  0  0  0  0  0
   35.9090   28.0960   41.0320 H   0  0  0  0  0  0  0  0  0  0  0  0
   34.8920   29.4660   41.6910 H   0  0  0  0  0  0  0  0  0  0  0  0
   37.1680   30.0410   41.7630 H   0  0  0  0  0  0  0  0  0  0  0  0
   38.6500   28.2250   41.9210 C   0  0  1  0  0  0  0  0  0  0  0  0
   39.7000   29.0940   41.3380 C   0  0  0  0  0  0  0  0  0  0  0  0
   38.6180   28.5770   40.4780 C   0  0  2  0  0  0  0  0  0  0  0  0
   37.9270   28.7240   42.6200 H   0  0  0  0  0  0  0  0  0  0  0  0
   39.6750   30.1710   41.6030 H   0  0  0  0  0  0  0  0  0  0  0  0
   40.7280   28.7100   41.2220 H   0  0  0  0  0  0  0  0  0  0  0  0
   38.8680   27.7060   39.8070 H   0  0  0  0  0  0  0  0  0  0  0  0
   38.1620   25.7760   42.0990 C   0  0  0  0  0  0  0  0  0  0  0  0
   38.9970   26.8700   42.3470 C   0  0  0  0  0  0  0  0  0  0  0  0
   40.2120   26.6090   43.0230 C   0  0  0  0  0  0  0  0  0  0  0  0
   40.4920   25.3370   43.3840 N   0  0  0  0  0  0  0  0  0  0  0  0
   39.6710   24.3080   43.1300 C   0  0  0  0  0  0  0  0  0  0  0  0
   38.4910   24.5180   42.4810 N   0  0  0  0  0  0  0  0  0  0  0  0
   37.2140   25.9290   41.5790 H   0  0  0  0  0  0  0  0  0  0  0  0
   40.9080   27.4310   43.2480 H   0  0  0  0  0  0  0  0  0  0  0  0
   40.0600   23.3650   43.4920 H   0  0  0  0  0  0  0  0  0  0  0  0
   36.3220   31.3690   40.4270 N   0  0  0  0  0  0  0  0  0  0  0  0
   35.6630   31.2950   39.5970 H   0  0  0  0  0  0  0  0  0  0  0  0
   37.4780   32.1340   40.0560 C   0  0  0  0  0  3  0  0  0  0  0  0
   37.3840   32.7680   38.6660 C   0  0  0  0  0  2  0  0  0  0  0  0
   37.4920   33.5940   39.9200 C   0  0  0  0  0  2  0  0  0  0  0  0
  1  2  1  6  0  0  0
  1 18  1  0  0  0  0
  1  6  1  0  0  0  0
  2  8  1  0  0  0  0
  3  2  1  0  0  0  0
  3  4  1  0  0  0  0
  4  5  1  0  0  0  0
  5 13  1  0  0  0  0
  5 14  1  0  0  0  0
  6  5  1  0  0  0  0
  6 15  1  1  0  0  0
  7  2  1  0  0  0  0
  9  3  1  0  0  0  0
 10  3  1  0  0  0  0
 11  4  1  0  0  0  0
 12  4  1  0  0  0  0
 16 24  1  0  0  0  0
 16 19  1  1  0  0  0
 17 20  1  0  0  0  0
 17 16  1  0  0  0  0
 18 22  1  6  0  0  0
 18 17  1  0  0  0  0
 18 16  1  0  0  0  0
 21 17  1  0  0  0  0
 23 24  2  0  0  0  0
 23 28  1  0  0  0  0
 24 25  1  0  0  0  0
 25 30  1  0  0  0  0
 25 26  2  0  0  0  0
 27 26  1  0  0  0  0
 27 31  1  0  0  0  0
 28 27  2  0  0  0  0
 29 23  1  0  0  0  0
 32  6  1  0  0  0  0
 33 32  1  0  0  0  0
 34 32  1  0  0  0  0
 35 36  1  0  0  0  0
 35 34  1  0  0  0  0
 36 34  1  0  0  0  0
M  END
>  <minimizedAffinity>
-4.81256056

$$$$

 OpenBabel03252506473D

 36 39  0  0  1  0  0  0  0  0999 V2000
   36.9180   29.7610   40.8280 N   0  0  1  0  0  0  0  0  0  0  0  0
   37.3990   31.1220   40.8980 C   0  0  0  0  0  0  0  0  0  0  0  0
   36.9510   31.9670   39.7430 C   0  0  0  0  0  0  0  0  0  0  0  0
   37.6550   31.4590   38.4820 C   0  0  0  0  0  0  0  0  0  0  0  0
   37.7650   29.9570   38.5110 C   0  0  0  0  0  0  0  0  0  0  0  0
   36.7230   29.3950   39.4560 C   0  0  2  0  0  0  0  0  0  0  0  0
   37.1330   31.6320   41.8520 H   0  0  0  0  0  0  0  0  0  0  0  0
   38.5160   31.0780   40.8320 H   0  0  0  0  0  0  0  0  0  0  0  0
   35.8600   31.9920   39.6240 H   0  0  0  0  0  0  0  0  0  0  0  0
   37.2870   32.9940   39.9260 H   0  0  0  0  0  0  0  0  0  0  0  0
   38.6380   31.9580   38.4480 H   0  0  0  0  0  0  0  0  0  0  0  0
   37.0400   31.8210   37.6190 H   0  0  0  0  0  0  0  0  0  0  0  0
   38.7560   29.7400   39.0040 H   0  0  0  0  0  0  0  0  0  0  0  0
   37.6820   29.4610   37.5500 H   0  0  0  0  0  0  0  0  0  0  0  0
   36.8480   28.2920   39.4100 H   0  0  0  0  0  0  0  0  0  0  0  0
   37.4930   27.9780   42.6110 C   0  0  1  0  0  0  0  0  0  0  0  0
   38.1370   29.2740   42.9360 C   0  0  0  0  0  0  0  0  0  0  0  0
   37.8390   28.9370   41.5310 C   0  0  2  0  0  0  0  0  0  0  0  0
   36.4200   27.8690   42.9210 H   0  0  0  0  0  0  0  0  0  0  0  0
   37.5080   30.0470   43.4240 H   0  0  0  0  0  0  0  0  0  0  0  0
   39.1820   29.2950   43.2890 H   0  0  0  0  0  0  0  0  0  0  0  0
   38.7010   28.5900   40.8930 H   0  0  0  0  0  0  0  0  0  0  0  0
   37.8730   25.5470   42.1550 C   0  0  0  0  0  0  0  0  0  0  0  0
   38.2540   26.7400   42.7770 C   0  0  0  0  0  0  0  0  0  0  0  0
   39.4240   26.7050   43.5700 C   0  0  0  0  0  0  0  0  0  0  0  0
   40.0980   25.5400   43.6790 N   0  0  0  0  0  0  0  0  0  0  0  0
   39.7090   24.4110   43.0700 C   0  0  0  0  0  0  0  0  0  0  0  0
   38.5860   24.4030   42.2960 N   0  0  0  0  0  0  0  0  0  0  0  0
   36.9770   25.5250   41.5320 H   0  0  0  0  0  0  0  0  0  0  0  0
   39.7710   27.6140   44.0850 H   0  0  0  0  0  0  0  0  0  0  0  0
   40.3700   23.5780   43.2710 H   0  0  0  0  0  0  0  0  0  0  0  0
   35.4030   29.6990   38.9700 N   0  0  0  0  0  0  0  0  0  0  0  0
   34.7650   29.6950   39.8200 H   0  0  0  0  0  0  0  0  0  0  0  0
   34.9870   28.6790   38.0510 C   0  0  0  0  0  3  0  0  0  0  0  0
   33.5370   28.8190   37.5800 C   0  0  0  0  0  2  0  0  0  0  0  0
   34.7030   28.9140   36.6320 C   0  0  0  0  0  2  0  0  0  0  0  0
  1  2  1  6  0  0  0
  1 18  1  0  0  0  0
  2  7  1  0  0  0  0
  3 10  1  0  0  0  0
  3  2  1  0  0  0  0
  4  5  1  0  0  0  0
  4  3  1  0  0  0  0
  5 13  1  0  0  0  0
  5  6  1  0  0  0  0
  6 15  1  6  0  0  0
  6  1  1  0  0  0  0
  8  2  1  0  0  0  0
  9  3  1  0  0  0  0
 11  4  1  0  0  0  0
 12  4  1  0  0  0  0
 14  5  1  0  0  0  0
 16 24  1  0  0  0  0
 16 19  1  1  0  0  0
 16 17  1  0  0  0  0
 17 21  1  0  0  0  0
 17 20  1  0  0  0  0
 18 22  1  6  0  0  0
 18 16  1  0  0  0  0
 18 17  1  0  0  0  0
 23 28  2  0  0  0  0
 23 24  1  0  0  0  0
 24 25  2  0  0  0  0
 25 26  1  0  0  0  0
 25 30  1  0  0  0  0
 27 31  1  0  0  0  0
 27 26  2  0  0  0  0
 28 27  1  0  0  0  0
 29 23  1  0  0  0  0
 32  6  1  0  0  0  0
 32 33  1  0  0  0  0
 34 32  1  0  0  0  0
 35 34  1  0  0  0  0
 36 35  1  0  0  0  0
 36 34  1  0  0  0  0
M  END
>  <minimizedAffinity>
-4.75939369

$$$$

 OpenBabel03252506473D

 36 39  0  0  1  0  0  0  0  0999 V2000
   38.2990   27.3580   40.9830 N   0  0  1  0  0  0  0  0  0  0  0  0
   39.7100   27.3910   41.2930 C   0  0  0  0  0  0  0  0  0  0  0  0
   40.1050   26.4090   42.3550 C   0  0  0  0  0  0  0  0  0  0  0  0
   39.4900   26.8700   43.6800 C   0  0  0  0  0  0  0  0  0  0  0  0
   38.1180   27.4450   43.4490 C   0  0  0  0  0  0  0  0  0  0  0  0
   37.5680   26.9250   42.1370 C   0  0  2  0  0  0  0  0  0  0  0  0
   40.3590   27.2460   40.3990 H   0  0  0  0  0  0  0  0  0  0  0  0
   39.9290   28.4050   41.7150 H   0  0  0  0  0  0  0  0  0  0  0  0
   39.8300   25.3750   42.1120 H   0  0  0  0  0  0  0  0  0  0  0  0
   41.1960   26.4450   42.4610 H   0  0  0  0  0  0  0  0  0  0  0  0
   40.1920   27.6020   44.1150 H   0  0  0  0  0  0  0  0  0  0  0  0
   39.4630   25.9650   44.3380 H   0  0  0  0  0  0  0  0  0  0  0  0
   38.2810   28.5500   43.2820 H   0  0  0  0  0  0  0  0  0  0  0  0
   37.3940   27.2660   44.2370 H   0  0  0  0  0  0  0  0  0  0  0  0
   36.5540   27.3700   42.0450 H   0  0  0  0  0  0  0  0  0  0  0  0
   37.5320   29.8020   41.3380 C   0  0  1  0  0  0  0  0  0  0  0  0
   36.5100   29.0330   40.5890 C   0  0  0  0  0  0  0  0  0  0  0  0
   37.9290   28.6420   40.4990 C   0  0  2  0  0  0  0  0  0  0  0  0
   37.5160   29.6870   42.4550 H   0  0  0  0  0  0  0  0  0  0  0  0
   35.8330   28.3800   41.1750 H   0  0  0  0  0  0  0  0  0  0  0  0
   36.0080   29.4900   39.7190 H   0  0  0  0  0  0  0  0  0  0  0  0
   38.4870   28.9430   39.5670 H   0  0  0  0  0  0  0  0  0  0  0  0
   39.0560   31.7870   41.2690 C   0  0  0  0  0  0  0  0  0  0  0  0
   37.8520   31.1660   40.9190 C   0  0  0  0  0  0  0  0  0  0  0  0
   36.9530   31.9120   40.1220 C   0  0  0  0  0  0  0  0  0  0  0  0
   37.3020   33.1630   39.7500 N   0  0  0  0  0  0  0  0  0  0  0  0
   38.4640   33.7320   40.1010 C   0  0  0  0  0  0  0  0  0  0  0  0
   39.3580   33.0460   40.8680 N   0  0  0  0  0  0  0  0  0  0  0  0
   39.7810   31.2500   41.8820 H   0  0  0  0  0  0  0  0  0  0  0  0
   35.9890   31.4760   39.8180 H   0  0  0  0  0  0  0  0  0  0  0  0
   38.5720   34.7360   39.7120 H   0  0  0  0  0  0  0  0  0  0  0  0
   37.4070   25.4970   42.2040 N   0  0  0  0  0  0  0  0  0  0  0  0
   38.3360   25.1080   42.5450 H   0  0  0  0  0  0  0  0  0  0  0  0
   37.1270   24.9880   40.8920 C   0  0  0  0  0  3  0  0  0  0  0  0
   37.6680   23.5780   40.6420 C   0  0  0  0  0  2  0  0  0  0  0  0
   36.1950   23.8890   40.6150 C   0  0  0  0  0  2  0  0  0  0  0  0
  1  2  1  1  0  0  0
  1  6  1  0  0  0  0
  2  8  1  0  0  0  0
  2  3  1  0  0  0  0
  3 10  1  0  0  0  0
  3  4  1  0  0  0  0
  4 11  1  0  0  0  0
  4 12  1  0  0  0  0
  5  4  1  0  0  0  0
  5 14  1  0  0  0  0
  6 15  1  6  0  0  0
  6 32  1  0  0  0  0
  6  5  1  0  0  0  0
  7  2  1  0  0  0  0
  9  3  1  0  0  0  0
 13  5  1  0  0  0  0
 16 19  1  1  0  0  0
 17 20  1  0  0  0  0
 17 16  1  0  0  0  0
 18 22  1  6  0  0  0
 18 17  1  0  0  0  0
 18  1  1  0  0  0  0
 18 16  1  0  0  0  0
 21 17  1  0  0  0  0
 23 29  1  0  0  0  0
 24 23  1  0  0  0  0
 24 16  1  0  0  0  0
 25 24  2  0  0  0  0
 26 27  2  0  0  0  0
 26 25  1  0  0  0  0
 27 28  1  0  0  0  0
 28 23  2  0  0  0  0
 30 25  1  0  0  0  0
 31 27  1  0  0  0  0
 32 33  1  0  0  0  0
 34 32  1  0  0  0  0
 35 34  1  0  0  0  0
 36 35  1  0  0  0  0
 36 34  1  0  0  0  0
M  END
>  <minimizedAffinity>
-4.72486925

$$$$

 OpenBabel03252506473D

 36 39  0  0  1  0  0  0  0  0999 V2000
   37.3230   30.1910   40.7430 N   0  0  1  0  0  0  0  0  0  0  0  0
   35.9540   30.5110   40.4080 C   0  0  0  0  0  0  0  0  0  0  0  0
   35.0710   29.3040   40.3100 C   0  0  0  0  0  0  0  0  0  0  0  0
   35.5040   28.4960   39.0840 C   0  0  0  0  0  0  0  0  0  0  0  0
   37.0020   28.5310   38.9350 C   0  0  0  0  0  0  0  0  0  0  0  0
   37.6330   28.8730   40.2690 C   0  0  2  0  0  0  0  0  0  0  0  0
   35.4940   31.2490   41.1040 H   0  0  0  0  0  0  0  0  0  0  0  0
   35.9660   30.9670   39.3850 H   0  0  0  0  0  0  0  0  0  0  0  0
   35.0680   28.6950   41.2240 H   0  0  0  0  0  0  0  0  0  0  0  0
   34.0440   29.6480   40.1410 H   0  0  0  0  0  0  0  0  0  0  0  0
   34.9790   28.9320   38.2180 H   0  0  0  0  0  0  0  0  0  0  0  0
   35.1200   27.4570   39.2480 H   0  0  0  0  0  0  0  0  0  0  0  0
   37.2150   29.4200   38.2720 H   0  0  0  0  0  0  0  0  0  0  0  0
   37.4580   27.6270   38.5450 H   0  0  0  0  0  0  0  0  0  0  0  0
   38.7290   28.8600   40.0890 H   0  0  0  0  0  0  0  0  0  0  0  0
   38.9060   32.2180   41.0110 C   0  0  1  0  0  0  0  0  0  0  0  0
   37.6690   32.6070   40.2920 C   0  0  0  0  0  0  0  0  0  0  0  0
   38.1530   31.2160   40.2140 C   0  0  2  0  0  0  0  0  0  0  0  0
   38.8370   32.1880   42.1310 H   0  0  0  0  0  0  0  0  0  0  0  0
   36.7650   32.8040   40.9030 H   0  0  0  0  0  0  0  0  0  0  0  0
   37.7320   33.2640   39.4060 H   0  0  0  0  0  0  0  0  0  0  0  0
   38.6890   30.9110   39.2700 H   0  0  0  0  0  0  0  0  0  0  0  0
   40.2930   33.6730   39.5200 C   0  0  0  0  0  0  0  0  0  0  0  0
   40.1960   32.7220   40.5420 C   0  0  0  0  0  0  0  0  0  0  0  0
   41.4060   32.2730   41.1190 C   0  0  0  0  0  0  0  0  0  0  0  0
   42.5710   32.7810   40.6590 N   0  0  0  0  0  0  0  0  0  0  0  0
   42.6330   33.6930   39.6780 C   0  0  0  0  0  0  0  0  0  0  0  0
   41.4890   34.1510   39.0960 N   0  0  0  0  0  0  0  0  0  0  0  0
   39.3860   34.0490   39.0450 H   0  0  0  0  0  0  0  0  0  0  0  0
   41.3910   31.5240   41.9250 H   0  0  0  0  0  0  0  0  0  0  0  0
   43.6480   33.9840   39.4420 H   0  0  0  0  0  0  0  0  0  0  0  0
   37.3410   27.8420   41.2290 N   0  0  0  0  0  0  0  0  0  0  0  0
   36.2840   27.7390   41.2440 H   0  0  0  0  0  0  0  0  0  0  0  0
   37.8010   28.2540   42.5240 C   0  0  0  0  0  3  0  0  0  0  0  0
   36.9150   27.7800   43.6800 C   0  0  0  0  0  2  0  0  0  0  0  0
   38.3490   27.3420   43.5340 C   0  0  0  0  0  2  0  0  0  0  0  0
  1  2  1  6  0  0  0
  2  7  1  0  0  0  0
  3  2  1  0  0  0  0
  3  9  1  0  0  0  0
  4 12  1  0  0  0  0
  4  3  1  0  0  0  0
  5  4  1  0  0  0  0
  5  6  1  0  0  0  0
  6 15  1  6  0  0  0
  6  1  1  0  0  0  0
  6 32  1  0  0  0  0
  8  2  1  0  0  0  0
 10  3  1  0  0  0  0
 11  4  1  0  0  0  0
 13  5  1  0  0  0  0
 14  5  1  0  0  0  0
 16 19  1  1  0  0  0
 17 20  1  0  0  0  0
 17 16  1  0  0  0  0
 18 22  1  6  0  0  0
 18 17  1  0  0  0  0
 18  1  1  0  0  0  0
 18 16  1  0  0  0  0
 21 17  1  0  0  0  0
 23 24  1  0  0  0  0
 24 16  1  0  0  0  0
 24 25  2  0  0  0  0
 25 30  1  0  0  0  0
 26 25  1  0  0  0  0
 27 26  2  0  0  0  0
 28 23  2  0  0  0  0
 28 27  1  0  0  0  0
 29 23  1  0  0  0  0
 31 27  1  0  0  0  0
 32 33  1  0  0  0  0
 32 34  1  0  0  0  0
 34 36  1  0  0  0  0
 34 35  1  0  0  0  0
 36 35  1  0  0  0  0
M  END
>  <minimizedAffinity>
-4.67520523

$$$$

 OpenBabel03252506473D

 36 39  0  0  1  0  0  0  0  0999 V2000
   37.7210   28.5480   40.8910 N   0  0  1  0  0  0  0  0  0  0  0  0
   37.3260   29.4030   41.9870 C   0  0  0  0  0  0  0  0  0  0  0  0
   37.8580   28.9470   43.3130 C   0  0  0  0  0  0  0  0  0  0  0  0
   37.1560   27.6360   43.6800 C   0  0  0  0  0  0  0  0  0  0  0  0
   36.9510   26.7890   42.4510 C   0  0  0  0  0  0  0  0  0  0  0  0
   37.9290   27.2160   41.3770 C   0  0  2  0  0  0  0  0  0  0  0  0
   37.5990   30.4720   41.8300 H   0  0  0  0  0  0  0  0  0  0  0  0
   36.2110   29.3410   42.0650 H   0  0  0  0  0  0  0  0  0  0  0  0
   38.9500   28.8480   43.3300 H   0  0  0  0  0  0  0  0  0  0  0  0
   37.5830   29.6970   44.0640 H   0  0  0  0  0  0  0  0  0  0  0  0
   36.2080   27.9130   44.1710 H   0  0  0  0  0  0  0  0  0  0  0  0
   37.8160   27.1340   44.4330 H   0  0  0  0  0  0  0  0  0  0  0  0
   35.9350   27.0800   42.0560 H   0  0  0  0  0  0  0  0  0  0  0  0
   37.0270   25.7180   42.6000 H   0  0  0  0  0  0  0  0  0  0  0  0
   37.7360   26.5400   40.5170 H   0  0  0  0  0  0  0  0  0  0  0  0
   36.5820   29.7920   38.9300 C   0  0  1  0  0  0  0  0  0  0  0  0
   35.6450   29.6350   40.0690 C   0  0  0  0  0  0  0  0  0  0  0  0
   36.7320   28.6570   39.8760 C   0  0  2  0  0  0  0  0  0  0  0  0
   37.2980   30.6540   38.9950 H   0  0  0  0  0  0  0  0  0  0  0  0
   35.7420   30.3510   40.9110 H   0  0  0  0  0  0  0  0  0  0  0  0
   34.5980   29.3410   39.8830 H   0  0  0  0  0  0  0  0  0  0  0  0
   36.4540   27.6640   39.4200 H   0  0  0  0  0  0  0  0  0  0  0  0
   36.9120   29.7640   36.4500 C   0  0  0  0  0  0  0  0  0  0  0  0
   36.0970   29.5660   37.5690 C   0  0  0  0  0  0  0  0  0  0  0  0
   34.7770   29.1190   37.3320 C   0  0  0  0  0  0  0  0  0  0  0  0
   34.3830   28.9120   36.0560 N   0  0  0  0  0  0  0  0  0  0  0  0
   35.1870   29.1110   35.0020 C   0  0  0  0  0  0  0  0  0  0  0  0
   36.4670   29.5410   35.1890 N   0  0  0  0  0  0  0  0  0  0  0  0
   37.9380   30.1080   36.5830 H   0  0  0  0  0  0  0  0  0  0  0  0
   34.0900   28.9480   38.1750 H   0  0  0  0  0  0  0  0  0  0  0  0
   34.7010   28.8940   34.0590 H   0  0  0  0  0  0  0  0  0  0  0  0
   39.2780   26.9770   41.8180 N   0  0  0  0  0  0  0  0  0  0  0  0
   39.9120   27.4270   41.0930 H   0  0  0  0  0  0  0  0  0  0  0  0
   39.5220   25.5640   41.8580 C   0  0  0  0  0  3  0  0  0  0  0  0
   40.9920   25.1920   42.0740 C   0  0  0  0  0  2  0  0  0  0  0  0
   39.9170   24.8300   43.0650 C   0  0  0  0  0  2  0  0  0  0  0  0
  1  6  1  0  0  0  0
  1  2  1  1  0  0  0
  2  8  1  0  0  0  0
  2  3  1  0  0  0  0
  3  9  1  0  0  0  0
  3  4  1  0  0  0  0
  3 10  1  0  0  0  0
  4 11  1  0  0  0  0
  4 12  1  0  0  0  0
  5 14  1  0  0  0  0
  5  4  1  0  0  0  0
  6 15  1  6  0  0  0
  6 32  1  0  0  0  0
  6  5  1  0  0  0  0
  7  2  1  0  0  0  0
 13  5  1  0  0  0  0
 16 19  1  1  0  0  0
 16 18  1  0  0  0  0
 16 17  1  0  0  0  0
 17 20  1  0  0  0  0
 18 22  1  6  0  0  0
 18 17  1  0  0  0  0
 18  1  1  0  0  0  0
 21 17  1  0  0  0  0
 23 29  1  0  0  0  0
 23 24  1  0  0  0  0
 24 16  1  0  0  0  0
 25 24  2  0  0  0  0
 25 30  1  0  0  0  0
 26 25  1  0  0  0  0
 27 28  1  0  0  0  0
 27 26  2  0  0  0  0
 28 23  2  0  0  0  0
 31 27  1  0  0  0  0
 32 34  1  0  0  0  0
 33 32  1  0  0  0  0
 34 35  1  0  0  0  0
 34 36  1  0  0  0  0
 35 36  1  0  0  0  0
M  END
>  <minimizedAffinity>
-4.67306614

$$$$

 OpenBabel03252506473D

 36 39  0  0  1  0  0  0  0  0999 V2000
   37.8320   31.4270   39.6240 N   0  0  1  0  0  0  0  0  0  0  0  0
   36.9460   32.5260   39.9340 C   0  0  0  0  0  0  0  0  0  0  0  0
   37.5070   33.8630   39.5500 C   0  0  0  0  0  0  0  0  0  0  0  0
   38.6960   34.1600   40.4670 C   0  0  0  0  0  0  0  0  0  0  0  0
   39.4760   32.9010   40.7410 C   0  0  0  0  0  0  0  0  0  0  0  0
   39.1890   31.8860   39.6540 C   0  0  2  0  0  0  0  0  0  0  0  0
   35.9320   32.4110   39.4890 H   0  0  0  0  0  0  0  0  0  0  0  0
   36.8310   32.5500   41.0480 H   0  0  0  0  0  0  0  0  0  0  0  0
   37.7790   33.9290   38.4890 H   0  0  0  0  0  0  0  0  0  0  0  0
   36.7370   34.6200   39.7410 H   0  0  0  0  0  0  0  0  0  0  0  0
   38.2820   34.6140   41.3830 H   0  0  0  0  0  0  0  0  0  0  0  0
   39.3110   34.9300   39.9340 H   0  0  0  0  0  0  0  0  0  0  0  0
   39.0200   32.4660   41.6770 H   0  0  0  0  0  0  0  0  0  0  0  0
   40.5490   33.0250   40.8420 H   0  0  0  0  0  0  0  0  0  0  0  0
   39.8090   31.0000   39.9080 H   0  0  0  0  0  0  0  0  0  0  0  0
   36.5450   29.2950   40.3220 C   0  0  1  0  0  0  0  0  0  0  0  0
   36.2660   30.4080   41.2600 C   0  0  0  0  0  0  0  0  0  0  0  0
   37.5480   30.3700   40.5310 C   0  0  2  0  0  0  0  0  0  0  0  0
   35.9440   29.2870   39.3730 H   0  0  0  0  0  0  0  0  0  0  0  0
   35.5190   31.1650   40.9460 H   0  0  0  0  0  0  0  0  0  0  0  0
   36.2440   30.2180   42.3470 H   0  0  0  0  0  0  0  0  0  0  0  0
   38.4540   30.0220   41.1030 H   0  0  0  0  0  0  0  0  0  0  0  0
   36.7280   27.6780   42.2230 C   0  0  0  0  0  0  0  0  0  0  0  0
   36.7740   27.9520   40.8520 C   0  0  0  0  0  0  0  0  0  0  0  0
   37.0410   26.8640   39.9890 C   0  0  0  0  0  0  0  0  0  0  0  0
   37.2320   25.6400   40.5290 N   0  0  0  0  0  0  0  0  0  0  0  0
   37.1810   25.4080   41.8480 C   0  0  0  0  0  0  0  0  0  0  0  0
   36.9270   26.4300   42.7140 N   0  0  0  0  0  0  0  0  0  0  0  0
   36.5250   28.4850   42.9280 H   0  0  0  0  0  0  0  0  0  0  0  0
   37.0910   27.0200   38.9010 H   0  0  0  0  0  0  0  0  0  0  0  0
   37.3580   24.3700   42.0970 H   0  0  0  0  0  0  0  0  0  0  0  0
   39.6480   32.3830   38.3840 N   0  0  0  0  0  0  0  0  0  0  0  0
   39.3440   31.6690   37.6580 H   0  0  0  0  0  0  0  0  0  0  0  0
   41.0800   32.4750   38.3980 C   0  0  0  0  0  3  0  0  0  0  0  0
   41.7290   32.2780   37.0250 C   0  0  0  0  0  2  0  0  0  0  0  0
   41.8420   33.5710   37.7900 C   0  0  0  0  0  2  0  0  0  0  0  0
  1  6  1  0  0  0  0
  1  2  1  1  0  0  0
  1 18  1  0  0  0  0
  2  8  1  0  0  0  0
  3 10  1  0  0  0  0
  3  2  1  0  0  0  0
  3  4  1  0  0  0  0
  4  5  1  0  0  0  0
  4 11  1  0  0  0  0
  5 14  1  0  0  0  0
  5 13  1  0  0  0  0
  6 15  1  1  0  0  0
  6  5  1  0  0  0  0
  7  2  1  0  0  0  0
  9  3  1  0  0  0  0
 12  4  1  0  0  0  0
 16 19  1  6  0  0  0
 16 18  1  0  0  0  0
 16 24  1  0  0  0  0
 16 17  1  0  0  0  0
 17 21  1  0  0  0  0
 18 22  1  1  0  0  0
 18 17  1  0  0  0  0
 20 17  1  0  0  0  0
 23 28  1  0  0  0  0
 23 29  1  0  0  0  0
 24 23  2  0  0  0  0
 25 26  2  0  0  0  0
 25 24  1  0  0  0  0
 26 27  1  0  0  0  0
 27 31  1  0  0  0  0
 27 28  2  0  0  0  0
 30 25  1  0  0  0  0
 32 34  1  0  0  0  0
 32  6  1  0  0  0  0
 33 32  1  0  0  0  0
 35 36  1  0  0  0  0
 35 34  1  0  0  0  0
 36 34  1  0  0  0  0
M  END
>  <minimizedAffinity>
-4.59953165

$$$$

 OpenBabel03252506473D

 36 39  0  0  1  0  0  0  0  0999 V2000
   38.2620   26.2200   42.2520 N   0  0  1  0  0  0  0  0  0  0  0  0
   37.2580   25.2250   41.9500 C   0  0  0  0  0  0  0  0  0  0  0  0
   37.8220   23.8440   41.7950 C   0  0  0  0  0  0  0  0  0  0  0  0
   38.6710   23.8180   40.5210 C   0  0  0  0  0  0  0  0  0  0  0  0
   39.4130   25.1190   40.3580 C   0  0  0  0  0  0  0  0  0  0  0  0
   39.5200   25.8090   41.7020 C   0  0  2  0  0  0  0  0  0  0  0  0
   36.4270   25.2020   42.6920 H   0  0  0  0  0  0  0  0  0  0  0  0
   36.8220   25.4920   40.9540 H   0  0  0  0  0  0  0  0  0  0  0  0
   38.3880   23.5070   42.6730 H   0  0  0  0  0  0  0  0  0  0  0  0
   36.9850   23.1500   41.6560 H   0  0  0  0  0  0  0  0  0  0  0  0
   37.9800   23.6140   39.6860 H   0  0  0  0  0  0  0  0  0  0  0  0
   39.3660   22.9470   40.6320 H   0  0  0  0  0  0  0  0  0  0  0  0
   38.7320   25.7760   39.7440 H   0  0  0  0  0  0  0  0  0  0  0  0
   40.4000   25.0450   39.9140 H   0  0  0  0  0  0  0  0  0  0  0  0
   40.0930   26.7410   41.5100 H   0  0  0  0  0  0  0  0  0  0  0  0
   37.7370   28.7340   42.5540 C   0  0  1  0  0  0  0  0  0  0  0  0
   36.4980   27.9670   42.2790 C   0  0  0  0  0  0  0  0  0  0  0  0
   37.7920   27.4720   41.7720 C   0  0  2  0  0  0  0  0  0  0  0  0
   38.0930   28.7320   43.6180 H   0  0  0  0  0  0  0  0  0  0  0  0
   36.0370   27.4230   43.1290 H   0  0  0  0  0  0  0  0  0  0  0  0
   35.7470   28.3690   41.5770 H   0  0  0  0  0  0  0  0  0  0  0  0
   38.0130   27.6400   40.6800 H   0  0  0  0  0  0  0  0  0  0  0  0
   36.9310   30.6450   41.1530 C   0  0  0  0  0  0  0  0  0  0  0  0
   37.9400   30.0250   41.8960 C   0  0  0  0  0  0  0  0  0  0  0  0
   39.1740   30.7070   42.0000 C   0  0  0  0  0  0  0  0  0  0  0  0
   39.3060   31.9030   41.3850 N   0  0  0  0  0  0  0  0  0  0  0  0
   38.3200   32.4750   40.6790 C   0  0  0  0  0  0  0  0  0  0  0  0
   37.1150   31.8480   40.5560 N   0  0  0  0  0  0  0  0  0  0  0  0
   35.9620   30.1570   41.0450 H   0  0  0  0  0  0  0  0  0  0  0  0
   40.0050   30.2660   42.5710 H   0  0  0  0  0  0  0  0  0  0  0  0
   38.6060   33.4300   40.2600 H   0  0  0  0  0  0  0  0  0  0  0  0
   40.2980   25.0040   42.6070 N   0  0  0  0  0  0  0  0  0  0  0  0
   39.6350   24.2720   42.9990 H   0  0  0  0  0  0  0  0  0  0  0  0
   40.7900   25.8280   43.6740 C   0  0  0  0  0  3  0  0  0  0  0  0
   42.3120   25.9960   43.6790 C   0  0  0  0  0  2  0  0  0  0  0  0
   41.3760   27.1600   43.4840 C   0  0  0  0  0  2  0  0  0  0  0  0
  1  2  1  6  0  0  0
  2  7  1  0  0  0  0
  3  2  1  0  0  0  0
  3  9  1  0  0  0  0
  4 12  1  0  0  0  0
  4  3  1  0  0  0  0
  5  4  1  0  0  0  0
  5  6  1  0  0  0  0
  6 15  1  6  0  0  0
  6  1  1  0  0  0  0
  6 32  1  0  0  0  0
  8  2  1  0  0  0  0
 10  3  1  0  0  0  0
 11  4  1  0  0  0  0
 13  5  1  0  0  0  0
 14  5  1  0  0  0  0
 16 19  1  1  0  0  0
 17 16  1  0  0  0  0
 17 20  1  0  0  0  0
 18 22  1  6  0  0  0
 18  1  1  0  0  0  0
 18 17  1  0  0  0  0
 18 16  1  0  0  0  0
 21 17  1  0  0  0  0
 23 24  1  0  0  0  0
 24 25  2  0  0  0  0
 24 16  1  0  0  0  0
 25 30  1  0  0  0  0
 26 25  1  0  0  0  0
 27 26  2  0  0  0  0
 28 27  1  0  0  0  0
 28 23  2  0  0  0  0
 29 23  1  0  0  0  0
 31 27  1  0  0  0  0
 32 33  1  0  0  0  0
 32 34  1  0  0  0  0
 34 35  1  0  0  0  0
 36 34  1  0  0  0  0
 36 35  1  0  0  0  0
M  END
>  <minimizedAffinity>
-4.59666348

$$$$

 OpenBabel03252506473D

 36 39  0  0  1  0  0  0  0  0999 V2000
   40.4640   32.0720   40.9640 N   0  0  1  0  0  0  0  0  0  0  0  0
   41.8650   32.3990   41.1050 C   0  0  0  0  0  0  0  0  0  0  0  0
   42.3370   33.4190   40.1130 C   0  0  0  0  0  0  0  0  0  0  0  0
   42.3110   32.7770   38.7230 C   0  0  0  0  0  0  0  0  0  0  0  0
   41.1160   31.8710   38.5850 C   0  0  0  0  0  0  0  0  0  0  0  0
   40.0650   32.2670   39.6010 C   0  0  2  0  0  0  0  0  0  0  0  0
   42.1360   32.7330   42.1330 H   0  0  0  0  0  0  0  0  0  0  0  0
   42.4420   31.4650   40.8850 H   0  0  0  0  0  0  0  0  0  0  0  0
   41.7610   34.3520   40.1450 H   0  0  0  0  0  0  0  0  0  0  0  0
   43.3780   33.6660   40.3500 H   0  0  0  0  0  0  0  0  0  0  0  0
   43.2680   32.2410   38.6060 H   0  0  0  0  0  0  0  0  0  0  0  0
   42.2840   33.6250   37.9930 H   0  0  0  0  0  0  0  0  0  0  0  0
   41.4740   30.8520   38.9150 H   0  0  0  0  0  0  0  0  0  0  0  0
   40.6650   31.8330   37.6000 H   0  0  0  0  0  0  0  0  0  0  0  0
   39.2120   31.5760   39.4280 H   0  0  0  0  0  0  0  0  0  0  0  0
   39.5160   30.3760   42.6710 C   0  0  1  0  0  0  0  0  0  0  0  0
   40.9980   30.3500   42.6710 C   0  0  0  0  0  0  0  0  0  0  0  0
   40.2740   30.7500   41.4500 C   0  0  2  0  0  0  0  0  0  0  0  0
   39.0360   31.1850   43.2840 H   0  0  0  0  0  0  0  0  0  0  0  0
   41.5220   31.1440   43.2420 H   0  0  0  0  0  0  0  0  0  0  0  0
   41.5300   29.3830   42.7050 H   0  0  0  0  0  0  0  0  0  0  0  0
   40.1920   29.9830   40.6280 H   0  0  0  0  0  0  0  0  0  0  0  0
   37.4140   29.0390   42.4300 C   0  0  0  0  0  0  0  0  0  0  0  0
   38.7780   29.1150   42.7290 C   0  0  0  0  0  0  0  0  0  0  0  0
   39.4260   27.9080   43.0810 C   0  0  0  0  0  0  0  0  0  0  0  0
   38.7010   26.7680   43.1070 N   0  0  0  0  0  0  0  0  0  0  0  0
   37.3940   26.7260   42.8140 C   0  0  0  0  0  0  0  0  0  0  0  0
   36.7330   27.8680   42.4710 N   0  0  0  0  0  0  0  0  0  0  0  0
   36.8710   29.9450   42.1530 H   0  0  0  0  0  0  0  0  0  0  0  0
   40.4980   27.9070   43.3280 H   0  0  0  0  0  0  0  0  0  0  0  0
   36.9810   25.7290   42.8870 H   0  0  0  0  0  0  0  0  0  0  0  0
   39.5990   33.6020   39.3320 N   0  0  0  0  0  0  0  0  0  0  0  0
   40.3530   34.2580   39.6930 H   0  0  0  0  0  0  0  0  0  0  0  0
   38.3780   33.8330   40.0480 C   0  0  0  0  0  3  0  0  0  0  0  0
   37.1740   34.1240   39.1470 C   0  0  0  0  0  2  0  0  0  0  0  0
   37.2330   32.9160   40.0440 C   0  0  0  0  0  2  0  0  0  0  0  0
  1  2  1  6  0  0  0
  1 18  1  0  0  0  0
  2  7  1  0  0  0  0
  3  9  1  0  0  0  0
  3 10  1  0  0  0  0
  3  2  1  0  0  0  0
  4  3  1  0  0  0  0
  5  4  1  0  0  0  0
  5 13  1  0  0  0  0
  5  6  1  0  0  0  0
  6 15  1  6  0  0  0
  6  1  1  0  0  0  0
  8  2  1  0  0  0  0
 11  4  1  0  0  0  0
 12  4  1  0  0  0  0
 14  5  1  0  0  0  0
 16 24  1  0  0  0  0
 16 19  1  1  0  0  0
 17 16  1  0  0  0  0
 17 21  1  0  0  0  0
 17 20  1  0  0  0  0
 18 22  1  6  0  0  0
 18 17  1  0  0  0  0
 18 16  1  0  0  0  0
 23 28  2  0  0  0  0
 23 24  1  0  0  0  0
 24 25  2  0  0  0  0
 25 26  1  0  0  0  0
 25 30  1  0  0  0  0
 27 31  1  0  0  0  0
 27 26  2  0  0  0  0
 28 27  1  0  0  0  0
 29 23  1  0  0  0  0
 32  6  1  0  0  0  0
 32 33  1  0  0  0  0
 32 34  1  0  0  0  0
 35 36  1  0  0  0  0
 35 34  1  0  0  0  0
 36 34  1  0  0  0  0
M  END
>  <minimizedAffinity>
-4.49926567

$$$$

 OpenBabel03252506473D

 36 39  0  0  1  0  0  0  0  0999 V2000
   39.1000   29.8590   42.0930 N   0  0  1  0  0  0  0  0  0  0  0  0
   40.4310   30.0340   42.6290 C   0  0  0  0  0  0  0  0  0  0  0  0
   41.0900   31.3020   42.1730 C   0  0  0  0  0  0  0  0  0  0  0  0
   41.3780   31.1750   40.6750 C   0  0  0  0  0  0  0  0  0  0  0  0
   40.2580   30.4430   39.9850 C   0  0  0  0  0  0  0  0  0  0  0  0
   39.0040   30.5300   40.8300 C   0  0  2  0  0  0  0  0  0  0  0  0
   40.4660   29.9800   43.7410 H   0  0  0  0  0  0  0  0  0  0  0  0
   41.0590   29.1990   42.2250 H   0  0  0  0  0  0  0  0  0  0  0  0
   40.5050   32.2010   42.4050 H   0  0  0  0  0  0  0  0  0  0  0  0
   42.0500   31.3900   42.6940 H   0  0  0  0  0  0  0  0  0  0  0  0
   42.3470   30.6550   40.5840 H   0  0  0  0  0  0  0  0  0  0  0  0
   41.4960   32.2210   40.2950 H   0  0  0  0  0  0  0  0  0  0  0  0
   40.5530   29.3540   40.0090 H   0  0  0  0  0  0  0  0  0  0  0  0
   40.0330   30.7710   38.9760 H   0  0  0  0  0  0  0  0  0  0  0  0
   38.2210   29.9920   40.2530 H   0  0  0  0  0  0  0  0  0  0  0  0
   37.5090   27.8280   42.2620 C   0  0  1  0  0  0  0  0  0  0  0  0
   38.5580   27.7630   43.3080 C   0  0  0  0  0  0  0  0  0  0  0  0
   38.8320   28.4640   42.0400 C   0  0  2  0  0  0  0  0  0  0  0  0
   36.6230   28.4770   42.4920 H   0  0  0  0  0  0  0  0  0  0  0  0
   38.4110   28.3820   44.2160 H   0  0  0  0  0  0  0  0  0  0  0  0
   39.0570   26.8030   43.5260 H   0  0  0  0  0  0  0  0  0  0  0  0
   39.4600   27.9210   41.2770 H   0  0  0  0  0  0  0  0  0  0  0  0
   37.1560   25.3520   42.1540 C   0  0  0  0  0  0  0  0  0  0  0  0
   37.1400   26.6100   41.5410 C   0  0  0  0  0  0  0  0  0  0  0  0
   36.7370   26.6600   40.1870 C   0  0  0  0  0  0  0  0  0  0  0  0
   36.3930   25.5070   39.5710 N   0  0  0  0  0  0  0  0  0  0  0  0
   36.4170   24.3160   40.1840 C   0  0  0  0  0  0  0  0  0  0  0  0
   36.8000   24.2250   41.4890 N   0  0  0  0  0  0  0  0  0  0  0  0
   37.4590   25.2640   43.1980 H   0  0  0  0  0  0  0  0  0  0  0  0
   36.7080   27.6220   39.6530 H   0  0  0  0  0  0  0  0  0  0  0  0
   36.1090   23.5060   39.5360 H   0  0  0  0  0  0  0  0  0  0  0  0
   38.5850   31.9030   40.9480 N   0  0  0  0  0  0  0  0  0  0  0  0
   38.4520   32.0840   41.9860 H   0  0  0  0  0  0  0  0  0  0  0  0
   37.3360   32.0790   40.2640 C   0  0  0  0  0  3  0  0  0  0  0  0
   37.2260   33.4030   39.5020 C   0  0  0  0  0  2  0  0  0  0  0  0
   37.1860   32.0690   38.8050 C   0  0  0  0  0  2  0  0  0  0  0  0
  1  2  1  6  0  0  0
  2  7  1  0  0  0  0
  3  9  1  0  0  0  0
  3  2  1  0  0  0  0
  3 10  1  0  0  0  0
  4  3  1  0  0  0  0
  5 13  1  0  0  0  0
  5  4  1  0  0  0  0
  5  6  1  0  0  0  0
  6 15  1  6  0  0  0
  6 32  1  0  0  0  0
  6  1  1  0  0  0  0
  8  2  1  0  0  0  0
 11  4  1  0  0  0  0
 12  4  1  0  0  0  0
 14  5  1  0  0  0  0
 16 19  1  1  0  0  0
 16 17  1  0  0  0  0
 17 21  1  0  0  0  0
 17 20  1  0  0  0  0
 18 22  1  6  0  0  0
 18  1  1  0  0  0  0
 18 16  1  0  0  0  0
 18 17  1  0  0  0  0
 23 29  1  0  0  0  0
 24 23  1  0  0  0  0
 24 16  1  0  0  0  0
 25 24  2  0  0  0  0
 26 27  2  0  0  0  0
 26 25  1  0  0  0  0
 27 28  1  0  0  0  0
 28 23  2  0  0  0  0
 30 25  1  0  0  0  0
 31 27  1  0  0  0  0
 32 33  1  0  0  0  0
 34 32  1  0  0  0  0
 35 34  1  0  0  0  0
 36 35  1  0  0  0  0
 36 34  1  0  0  0  0
M  END
>  <minimizedAffinity>
-4.49552679

$$$$
