
 OpenBabel03252508263D

 35 39  0  0  1  0  0  0  0  0999 V2000
   46.6350   32.4630   45.7510 C   0  0  1  0  0  0  0  0  0  0  0  0
   47.0210   32.7400   47.1420 C   0  0  0  0  0  0  0  0  0  0  0  0
   45.6420   32.0810   46.7330 C   0  0  2  0  0  0  0  0  0  0  0  0
   47.4690   31.7850   45.3440 H   0  0  0  0  0  0  0  0  0  0  0  0
   46.9850   33.7530   47.5330 H   0  0  0  0  0  0  0  0  0  0  0  0
   47.5950   32.0480   47.7800 H   0  0  0  0  0  0  0  0  0  0  0  0
   44.8810   32.7990   47.1780 H   0  0  0  0  0  0  0  0  0  0  0  0
   45.3460   30.7100   47.1560 C   0  0  0  0  0  0  0  0  0  0  0  0
   45.2240   30.2410   48.4250 C   0  0  0  0  0  0  0  0  0  0  0  0
   45.0700   28.9080   48.7890 C   0  0  0  0  0  0  0  0  0  0  0  0
   45.0410   27.9760   47.7420 C   0  0  0  0  0  0  0  0  0  0  0  0
   45.1620   28.4300   46.4270 C   0  0  0  0  0  0  0  0  0  0  0  0
   45.0620   27.4770   45.4290 C   0  0  0  0  0  0  0  0  0  0  0  0
   45.1040   27.8960   44.1010 C   0  0  0  0  0  0  0  0  0  0  0  0
   45.2390   29.2320   43.7840 C   0  0  0  0  0  0  0  0  0  0  0  0
   45.3350   30.1310   44.8190 C   0  0  0  0  0  0  0  0  0  0  0  0
   45.3080   29.7690   46.1590 C   0  0  0  0  0  0  0  0  0  0  0  0
   45.2510   30.9970   49.2080 H   0  0  0  0  0  0  0  0  0  0  0  0
   44.9780   28.6100   49.8210 H   0  0  0  0  0  0  0  0  0  0  0  0
   44.9260   26.9520   48.0260 H   0  0  0  0  0  0  0  0  0  0  0  0
   44.9550   26.4370   45.7080 H   0  0  0  0  0  0  0  0  0  0  0  0
   45.0190   27.0590   43.3990 H   0  0  0  0  0  0  0  0  0  0  0  0
   45.2470   29.3490   42.7290 H   0  0  0  0  0  0  0  0  0  0  0  0
   45.3420   31.0690   44.3390 H   0  0  0  0  0  0  0  0  0  0  0  0
   44.9860   35.3630   44.1700 C   0  0  0  0  0  0  0  0  0  0  0  0
   45.7780   35.5590   42.9870 C   0  0  0  0  0  0  0  0  0  0  0  0
   46.8830   34.6700   42.7820 C   0  0  0  0  0  0  0  0  0  0  0  0
   47.1370   33.7060   43.6810 N   0  0  0  0  0  0  0  0  0  0  0  0
   46.3360   33.5710   44.7970 C   0  0  0  0  0  0  0  0  0  0  0  0
   45.2990   34.3720   45.0310 N   0  0  0  0  0  0  0  0  0  0  0  0
   44.1700   36.0570   44.2740 H   0  0  0  0  0  0  0  0  0  0  0  0
   45.5380   36.3480   42.2880 H   0  0  0  0  0  0  0  0  0  0  0  0
   47.6860   34.8850   41.5640 C   0  0  0  0  0  3  0  0  0  0  0  0
   48.8950   35.7400   41.6980 C   0  0  0  0  0  2  0  0  0  0  0  0
   48.9990   34.2430   41.3980 C   0  0  0  0  0  2  0  0  0  0  0  0
  1  4  1  6  0  0  0
  1  3  1  0  0  0  0
  1  2  1  0  0  0  0
  2  5  1  0  0  0  0
  2  6  1  0  0  0  0
  3  2  1  0  0  0  0
  3  8  1  0  0  0  0
  3  7  1  1  0  0  0
  8  9  1  0  0  0  0
  9 10  2  0  0  0  0
  9 18  1  0  0  0  0
 10 19  1  0  0  0  0
 11 20  1  0  0  0  0
 11 10  1  0  0  0  0
 12 11  2  0  0  0  0
 13 21  1  0  0  0  0
 13 12  1  0  0  0  0
 14 13  2  0  0  0  0
 15 14  1  0  0  0  0
 15 16  2  0  0  0  0
 16 17  1  0  0  0  0
 17 12  1  0  0  0  0
 17  8  2  0  0  0  0
 22 14  1  0  0  0  0
 23 15  1  0  0  0  0
 24 16  1  0  0  0  0
 25 31  1  0  0  0  0
 25 30  1  0  0  0  0
 26 25  2  0  0  0  0
 27 26  1  0  0  0  0
 27 28  2  0  0  0  0
 28 29  1  0  0  0  0
 29 30  2  0  0  0  0
 29  1  1  0  0  0  0
 32 26  1  0  0  0  0
 33 34  1  0  0  0  0
 33 27  1  0  0  0  0
 35 33  1  0  0  0  0
 35 34  1  0  0  0  0
M  END
>  <minimizedAffinity>
-5.43695545

>  <minimizedRMSD>
0.686058283

$$$$
