
 OpenBabel03242515513D

 14 15  0  0  0  0  0  0  0  0999 V2000
   44.5610   35.6470   45.1760 C   0  0  0  0  0  0  0  0  0  0  0  0
   45.1130   35.7680   43.9010 C   0  0  0  0  0  0  0  0  0  0  0  0
   45.9710   34.7740   43.4200 C   0  0  0  0  0  0  0  0  0  0  0  0
   46.2090   33.7290   44.2590 N   0  0  0  0  0  0  0  0  0  0  0  0
   45.6680   33.6270   45.4890 C   0  0  0  0  0  0  0  0  0  0  0  0
   44.8340   34.5990   45.9510 N   0  0  0  0  0  0  0  0  0  0  0  0
   43.8900   36.3590   45.6360 H   0  0  0  0  0  0  0  0  0  0  0  0
   46.3720   34.8970   42.4480 H   0  0  0  0  0  0  0  0  0  0  0  0
   44.7500   36.9400   43.1520 N   0  0  0  0  0  0  0  0  0  0  0  0
   45.5890   37.4140   42.7390 H   0  0  0  0  0  0  0  0  0  0  0  0
   43.7600   37.2510   43.0540 H   0  0  0  0  0  0  0  0  0  0  0  0
   46.0160   32.4180   46.3140 C   0  0  0  0  0  0  0  0  0  0  0  0
   45.6600   32.3760   47.7540 C   0  0  0  0  0  0  0  0  0  0  0  0
   47.0680   32.6220   47.3580 C   0  0  0  0  0  0  0  0  0  0  0  0
  1  7  1  0  0  0  0
  1  6  1  0  0  0  0
  2  1  2  0  0  0  0
  3  2  1  0  0  0  0
  3  4  2  0  0  0  0
  4  5  1  0  0  0  0
  5  6  2  0  0  0  0
  5 12  1  0  0  0  0
  8  3  1  0  0  0  0
  9  2  1  0  0  0  0
 10  9  1  0  0  0  0
 11  9  1  0  0  0  0
 12 14  1  0  0  0  0
 12 13  1  0  0  0  0
 14 13  1  0  0  0  0
M  END
>  <minimizedAffinity>
-3.86665034

>  <minimizedRMSD>
0.95445168

$$$$
