
 OpenBabel03242518583D

 19 21  0  0  1  0  0  0  0  0999 V2000
   45.6380   34.0800   42.7740 C   0  0  1  0  0  0  0  0  0  0  0  0
   45.6410   35.6140   42.9430 C   0  0  0  0  0  0  0  0  0  0  0  0
   46.5480   34.9130   42.0140 C   0  0  1  0  0  0  0  0  0  0  0  0
   44.7170   33.6560   42.3210 H   0  0  0  0  0  0  0  0  0  0  0  0
   45.9420   36.0410   43.9020 H   0  0  0  0  0  0  0  0  0  0  0  0
   44.7530   36.1410   42.4970 H   0  0  0  0  0  0  0  0  0  0  0  0
   46.3550   35.0250   40.9180 H   0  0  0  0  0  0  0  0  0  0  0  0
   46.0740   33.3670   44.0130 C   0  0  0  0  0  0  0  0  0  0  0  0
   46.7830   32.1390   43.8490 C   0  0  0  0  0  0  0  0  0  0  0  0
   47.2040   31.4790   44.9990 C   0  0  0  0  0  0  0  0  0  0  0  0
   46.9120   32.0510   46.2000 N   0  0  0  0  0  0  0  0  0  0  0  0
   46.2350   33.2210   46.3140 C   0  0  0  0  0  0  0  0  0  0  0  0
   45.8230   33.8670   45.2240 N   0  0  0  0  0  0  0  0  0  0  0  0
   47.0050   31.7010   42.8880 H   0  0  0  0  0  0  0  0  0  0  0  0
   47.7480   30.5430   44.9650 H   0  0  0  0  0  0  0  0  0  0  0  0
   46.0600   33.5820   47.3400 H   0  0  0  0  0  0  0  0  0  0  0  0
   48.0150   35.0080   42.4250 C   0  0  0  0  0  0  0  0  0  0  0  0
   48.8890   35.6830   41.3380 C   0  0  0  0  0  0  0  0  0  0  0  0
   49.0650   34.2600   41.6990 C   0  0  0  0  0  0  0  0  0  0  0  0
  1  4  1  6  0  0  0
  1  2  1  0  0  0  0
  1  8  1  0  0  0  0
  2  5  1  0  0  0  0
  3  7  1  6  0  0  0
  3 17  1  0  0  0  0
  3  1  1  0  0  0  0
  3  2  1  0  0  0  0
  6  2  1  0  0  0  0
  8 13  1  0  0  0  0
  9  8  2  0  0  0  0
  9 10  1  0  0  0  0
 10 11  2  0  0  0  0
 11 12  1  0  0  0  0
 12 16  1  0  0  0  0
 13 12  2  0  0  0  0
 14  9  1  0  0  0  0
 15 10  1  0  0  0  0
 18 19  1  0  0  0  0
 18 17  1  0  0  0  0
 19 17  1  0  0  0  0
M  END
>  <minimizedAffinity>
-3.82942104

>  <minimizedRMSD>
1.4303571

$$$$
