
 OpenBabel03252505463D

 22 24  0  0  1  0  0  0  0  0999 V2000
   46.3940   33.1510   43.6000 C   0  0  1  0  0  0  0  0  0  0  0  0
   47.5710   34.1520   43.3540 C   0  0  1  0  0  0  0  0  0  0  0  0
   47.5880   32.7020   42.9570 C   0  0  0  0  0  0  0  0  0  0  0  0
   45.4810   33.3830   42.9970 H   0  0  0  0  0  0  0  0  0  0  0  0
   48.1440   34.4940   44.2110 H   0  0  0  0  0  0  0  0  0  0  0  0
   48.3540   32.0920   43.4870 H   0  0  0  0  0  0  0  0  0  0  0  0
   47.5530   32.4530   41.8650 H   0  0  0  0  0  0  0  0  0  0  0  0
   46.1170   32.9890   45.0380 C   0  0  0  0  0  0  0  0  0  0  0  0
   45.3190   33.9670   45.6960 C   0  0  0  0  0  0  0  0  0  0  0  0
   45.0240   33.8420   47.0560 C   0  0  0  0  0  0  0  0  0  0  0  0
   45.5390   32.7480   47.6890 N   0  0  0  0  0  0  0  0  0  0  0  0
   46.3000   31.8300   47.0200 C   0  0  0  0  0  0  0  0  0  0  0  0
   46.5780   31.9540   45.7320 N   0  0  0  0  0  0  0  0  0  0  0  0
   44.9370   34.8170   45.1430 H   0  0  0  0  0  0  0  0  0  0  0  0
   44.4270   34.5640   47.5700 H   0  0  0  0  0  0  0  0  0  0  0  0
   46.8340   30.6490   47.7800 C   0  0  0  0  0  3  0  0  0  0  0  0
   48.2560   30.2760   47.6750 C   0  0  0  0  0  2  0  0  0  0  0  0
   47.7380   30.9380   48.9630 C   0  0  0  0  0  2  0  0  0  0  0  0
   47.3210   35.1130   42.2160 C   0  0  0  0  0  0  0  0  0  0  0  0
   48.4430   35.8410   41.8860 F   0  0  0  0  0  0  0  0  0  0  0  0
   46.9650   34.3660   41.0820 F   0  0  0  0  0  0  0  0  0  0  0  0
   46.2460   35.9290   42.4910 F   0  0  0  0  0  0  0  0  0  0  0  0
  1  4  1  6  0  0  0
  1  8  1  0  0  0  0
  2  1  1  0  0  0  0
  2  5  1  1  0  0  0
  3  2  1  0  0  0  0
  3  6  1  0  0  0  0
  3  1  1  0  0  0  0
  7  3  1  0  0  0  0
  8  9  2  0  0  0  0
  8 13  1  0  0  0  0
  9 10  1  0  0  0  0
 10 15  1  0  0  0  0
 10 11  2  0  0  0  0
 12 11  1  0  0  0  0
 12 16  1  0  0  0  0
 13 12  2  0  0  0  0
 14  9  1  0  0  0  0
 16 18  1  0  0  0  0
 17 16  1  0  0  0  0
 17 18  1  0  0  0  0
 19 22  1  0  0  0  0
 19  2  1  0  0  0  0
 20 19  1  0  0  0  0
 21 19  1  0  0  0  0
M  END
>  <minimizedAffinity>
-4.23280859

>  <minimizedRMSD>
2.79854131

$$$$
