
 OpenBabel03242511253D

 22 24  0  0  0  0  0  0  0  0999 V2000
   44.8840   33.1790   41.1160 Cl  0  0  0  0  0  0  0  0  0  0  0  0
   46.4040   34.0240   40.9520 C   0  0  0  0  0  0  0  0  0  0  0  0
   46.9040   34.7680   41.9770 C   0  0  0  0  0  0  0  0  0  0  0  0
   48.1140   35.4510   41.8720 C   0  0  0  0  0  0  0  0  0  0  0  0
   48.7830   35.3350   40.6740 C   0  0  0  0  0  0  0  0  0  0  0  0
   48.2840   34.5900   39.6450 C   0  0  0  0  0  0  0  0  0  0  0  0
   47.1050   33.9310   39.7640 C   0  0  0  0  0  0  0  0  0  0  0  0
   48.5040   36.0390   42.6880 H   0  0  0  0  0  0  0  0  0  0  0  0
   49.7190   35.8430   40.5470 H   0  0  0  0  0  0  0  0  0  0  0  0
   48.8630   34.5370   38.7200 H   0  0  0  0  0  0  0  0  0  0  0  0
   45.6140   34.0090   45.3520 C   0  0  0  0  0  0  0  0  0  0  0  0
   44.7040   35.0520   45.5740 C   0  0  0  0  0  0  0  0  0  0  0  0
   44.5420   36.0070   44.5640 C   0  0  0  0  0  0  0  0  0  0  0  0
   45.2660   35.8820   43.4240 N   0  0  0  0  0  0  0  0  0  0  0  0
   46.1430   34.8550   43.2370 C   0  0  0  0  0  0  0  0  0  0  0  0
   46.3020   33.9380   44.2030 N   0  0  0  0  0  0  0  0  0  0  0  0
   45.7170   33.2860   46.1510 H   0  0  0  0  0  0  0  0  0  0  0  0
   44.1200   35.1690   46.4730 H   0  0  0  0  0  0  0  0  0  0  0  0
   43.8430   36.8370   44.6950 H   0  0  0  0  0  0  0  0  0  0  0  0
   46.5230   33.1070   38.6680 C   0  0  0  0  0  0  0  0  0  0  0  0
   46.8270   33.4230   37.2540 C   0  0  0  0  0  0  0  0  0  0  0  0
   47.3880   32.1750   37.8970 C   0  0  0  0  0  0  0  0  0  0  0  0
  2  1  1  0  0  0  0
  2  3  1  0  0  0  0
  3 15  1  0  0  0  0
  4  3  2  0  0  0  0
  4  8  1  0  0  0  0
  5  4  1  0  0  0  0
  6  7  1  0  0  0  0
  6  5  2  0  0  0  0
  7  2  2  0  0  0  0
  9  5  1  0  0  0  0
 10  6  1  0  0  0  0
 11 12  1  0  0  0  0
 11 17  1  0  0  0  0
 12 18  1  0  0  0  0
 13 19  1  0  0  0  0
 13 12  2  0  0  0  0
 14 13  1  0  0  0  0
 15 14  2  0  0  0  0
 15 16  1  0  0  0  0
 16 11  2  0  0  0  0
 20  7  1  0  0  0  0
 21 22  1  0  0  0  0
 21 20  1  0  0  0  0
 22 20  1  0  0  0  0
M  END
>  <minimizedAffinity>
-5.27669239

>  <minimizedRMSD>
0.822659075

$$$$
