
 OpenBabel03252509243D

 21 23  0  0  1  0  0  0  0  0999 V2000
   44.6890   35.2810   45.0970 C   0  0  0  0  0  0  0  0  0  0  0  0
   45.1810   35.6620   43.8310 C   0  0  0  0  0  0  0  0  0  0  0  0
   46.1970   34.8920   43.3370 C   0  0  0  0  0  0  0  0  0  0  0  0
   46.6940   33.8120   44.0580 N   0  0  0  0  0  0  0  0  0  0  0  0
   46.1930   33.4910   45.2560 C   0  0  0  0  0  0  0  0  0  0  0  0
   45.1770   34.2360   45.7800 N   0  0  0  0  0  0  0  0  0  0  0  0
   43.8830   35.8680   45.5200 H   0  0  0  0  0  0  0  0  0  0  0  0
   46.6830   32.6320   45.6870 H   0  0  0  0  0  0  0  0  0  0  0  0
   46.7210   35.1700   41.9510 C   0  0  1  0  0  0  0  0  0  0  0  0
   48.2520   35.4110   41.9970 C   0  0  0  0  0  0  0  0  0  0  0  0
   47.5430   34.2090   41.3130 C   0  0  2  0  0  0  0  0  0  0  0  0
   46.1760   35.9610   41.4040 H   0  0  0  0  0  0  0  0  0  0  0  0
   48.6080   36.2070   41.3500 H   0  0  0  0  0  0  0  0  0  0  0  0
   48.8000   35.2140   42.9130 H   0  0  0  0  0  0  0  0  0  0  0  0
   47.7530   33.2430   41.8210 H   0  0  0  0  0  0  0  0  0  0  0  0
   47.6010   34.1620   39.8080 C   0  0  0  0  0  3  0  0  0  0  0  0
   48.3400   33.0980   39.0980 C   0  0  0  0  0  2  0  0  0  0  0  0
   46.8480   32.9830   39.1590 C   0  0  0  0  0  2  0  0  0  0  0  0
   44.6840   36.7940   43.1280 N   0  0  0  0  0  0  0  0  0  0  0  0
   44.2710   36.8860   42.2060 H   0  0  0  0  0  0  0  0  0  0  0  0
   44.7070   37.7540   43.5660 H   0  0  0  0  0  0  0  0  0  0  0  0
  1  7  1  0  0  0  0
  1  6  1  0  0  0  0
  2  1  2  0  0  0  0
  3  2  1  0  0  0  0
  3  4  2  0  0  0  0
  4  5  1  0  0  0  0
  5  8  1  0  0  0  0
  5  6  2  0  0  0  0
  9 12  1  6  0  0  0
  9 10  1  0  0  0  0
  9  3  1  0  0  0  0
 10 14  1  0  0  0  0
 11 15  1  1  0  0  0
 11  9  1  0  0  0  0
 11 10  1  0  0  0  0
 13 10  1  0  0  0  0
 16 11  1  0  0  0  0
 17 18  1  0  0  0  0
 17 16  1  0  0  0  0
 18 16  1  0  0  0  0
 19 21  1  0  0  0  0
 19  2  1  0  0  0  0
 20 19  1  0  0  0  0
M  END
>  <minimizedAffinity>
-4.39012098

>  <minimizedRMSD>
0.316312194

$$$$
