
 OpenBabel03252503413D

 15 16  0  0  0  0  0  0  0  0999 V2000
   44.7530   35.1690   45.0170 C   0  0  0  0  0  0  0  0  0  0  0  0
   45.4170   35.1140   43.7930 C   0  0  0  0  0  0  0  0  0  0  0  0
   46.4500   34.1980   43.6350 C   0  0  0  0  0  0  0  0  0  0  0  0
   46.7580   33.4000   44.6880 N   0  0  0  0  0  0  0  0  0  0  0  0
   46.1000   33.4740   45.8560 C   0  0  0  0  0  0  0  0  0  0  0  0
   45.0830   34.3560   46.0550 N   0  0  0  0  0  0  0  0  0  0  0  0
   43.9370   35.8480   45.2330 H   0  0  0  0  0  0  0  0  0  0  0  0
   46.9130   34.2060   42.6870 H   0  0  0  0  0  0  0  0  0  0  0  0
   44.9090   36.0810   42.7880 C   0  0  0  0  0  0  0  0  0  0  0  0
   43.9880   35.7120   42.2750 H   0  0  0  0  0  0  0  0  0  0  0  0
   45.7470   36.2360   42.0610 H   0  0  0  0  0  0  0  0  0  0  0  0
   44.6850   37.0410   43.2640 H   0  0  0  0  0  0  0  0  0  0  0  0
   46.4660   32.5750   47.0040 C   0  0  0  0  0  0  0  0  0  0  0  0
   45.4370   32.4650   48.0620 C   0  0  0  0  0  0  0  0  0  0  0  0
   45.7440   31.3040   47.1050 C   0  0  0  0  0  0  0  0  0  0  0  0
  1  7  1  0  0  0  0
  1  6  1  0  0  0  0
  2  1  2  0  0  0  0
  3  2  1  0  0  0  0
  3  4  2  0  0  0  0
  4  5  1  0  0  0  0
  5  6  2  0  0  0  0
  5 13  1  0  0  0  0
  8  3  1  0  0  0  0
  9 12  1  0  0  0  0
  9  2  1  0  0  0  0
 10  9  1  0  0  0  0
 11  9  1  0  0  0  0
 13 15  1  0  0  0  0
 13 14  1  0  0  0  0
 15 14  1  0  0  0  0
M  END
>  <minimizedAffinity>
-3.70380545

>  <minimizedRMSD>
1.1482048

$$$$
