
 OpenBabel03252508423D

 22 24  0  0  0  0  0  0  0  0999 V2000
   45.8090   34.4020   41.6220 C   0  0  0  0  0  0  0  0  0  0  0  0
   46.0910   34.3330   42.9630 C   0  0  0  0  0  0  0  0  0  0  0  0
   47.3930   34.3410   43.4120 C   0  0  0  0  0  0  0  0  0  0  0  0
   48.4080   34.4190   42.4860 C   0  0  0  0  0  0  0  0  0  0  0  0
   48.1940   34.4910   41.1120 C   0  0  0  0  0  0  0  0  0  0  0  0
   46.8470   34.4780   40.7360 C   0  0  0  0  0  0  0  0  0  0  0  0
   47.6770   34.2900   44.4420 H   0  0  0  0  0  0  0  0  0  0  0  0
   49.4540   34.4280   42.7730 H   0  0  0  0  0  0  0  0  0  0  0  0
   48.9970   34.5510   40.3890 H   0  0  0  0  0  0  0  0  0  0  0  0
   46.6030   34.5320   39.6680 H   0  0  0  0  0  0  0  0  0  0  0  0
   42.2740   35.3620   40.7420 C   0  0  0  0  0  0  0  0  0  0  0  0
   43.6220   35.5250   41.1520 C   0  0  0  0  0  0  0  0  0  0  0  0
   44.4120   34.3890   41.2190 C   0  0  0  0  0  0  0  0  0  0  0  0
   43.8530   33.1870   40.8880 N   0  0  0  0  0  0  0  0  0  0  0  0
   42.5600   33.0640   40.4980 C   0  0  0  0  0  0  0  0  0  0  0  0
   41.7660   34.1640   40.4260 N   0  0  0  0  0  0  0  0  0  0  0  0
   41.6650   36.2630   40.6950 H   0  0  0  0  0  0  0  0  0  0  0  0
   44.0490   36.4720   41.4100 H   0  0  0  0  0  0  0  0  0  0  0  0
   42.2770   32.0500   40.2730 H   0  0  0  0  0  0  0  0  0  0  0  0
   44.9790   34.2490   43.9490 C   0  0  0  0  0  0  0  0  0  0  0  0
   44.6870   35.5670   44.6910 C   0  0  0  0  0  0  0  0  0  0  0  0
   45.2780   34.3730   45.4250 C   0  0  0  0  0  0  0  0  0  0  0  0
  1  2  1  0  0  0  0
  2  3  2  0  0  0  0
  2 20  1  0  0  0  0
  3  7  1  0  0  0  0
  4  8  1  0  0  0  0
  4  3  1  0  0  0  0
  5  4  2  0  0  0  0
  6  5  1  0  0  0  0
  6  1  2  0  0  0  0
  9  5  1  0  0  0  0
 10  6  1  0  0  0  0
 11 12  1  0  0  0  0
 12 13  2  0  0  0  0
 12 18  1  0  0  0  0
 13  1  1  0  0  0  0
 14 13  1  0  0  0  0
 15 14  2  0  0  0  0
 16 15  1  0  0  0  0
 16 11  2  0  0  0  0
 17 11  1  0  0  0  0
 19 15  1  0  0  0  0
 20 21  1  0  0  0  0
 20 22  1  0  0  0  0
 21 22  1  0  0  0  0
M  END
>  <minimizedAffinity>
-4.63960981

>  <minimizedRMSD>
3.8255403

$$$$
