
 OpenBabel03252502323D

 18 19  0  0  0  0  0  0  0  0999 V2000
   47.8530   34.7800   42.4600 C   0  0  0  0  0  0  0  0  0  0  0  0
   48.0470   33.5800   43.1680 C   0  0  0  0  0  0  0  0  0  0  0  0
   47.0350   33.1840   44.0640 C   0  0  0  0  0  0  0  0  0  0  0  0
   45.9390   33.9770   44.1890 N   0  0  0  0  0  0  0  0  0  0  0  0
   45.7840   35.1200   43.4970 C   0  0  0  0  0  0  0  0  0  0  0  0
   46.7380   35.5180   42.6360 N   0  0  0  0  0  0  0  0  0  0  0  0
   48.9370   33.0180   43.0100 H   0  0  0  0  0  0  0  0  0  0  0  0
   48.9320   35.1900   41.5140 C   0  0  0  0  0  0  0  0  0  0  0  0
   48.5610   35.0090   40.2070 F   0  0  0  0  0  0  0  0  0  0  0  0
   49.2780   36.5130   41.7760 F   0  0  0  0  0  0  0  0  0  0  0  0
   50.0940   34.4530   41.8070 F   0  0  0  0  0  0  0  0  0  0  0  0
   44.5710   35.9560   43.6650 C   0  0  0  0  0  0  0  0  0  0  0  0
   43.6310   35.6690   42.7030 F   0  0  0  0  0  0  0  0  0  0  0  0
   44.9070   37.3180   43.6310 F   0  0  0  0  0  0  0  0  0  0  0  0
   43.9880   35.7650   44.9080 F   0  0  0  0  0  0  0  0  0  0  0  0
   47.2180   31.9390   44.8090 C   0  0  0  0  0  0  0  0  0  0  0  0
   46.1370   31.2310   45.5160 C   0  0  0  0  0  0  0  0  0  0  0  0
   47.0470   32.1370   46.3240 C   0  0  0  0  0  0  0  0  0  0  0  0
  1  6  2  0  0  0  0
  1  2  1  0  0  0  0
  2  3  2  0  0  0  0
  3  4  1  0  0  0  0
  3 16  1  0  0  0  0
  5 12  1  0  0  0  0
  5  4  2  0  0  0  0
  6  5  1  0  0  0  0
  7  2  1  0  0  0  0
  8 10  1  0  0  0  0
  8 11  1  0  0  0  0
  8  1  1  0  0  0  0
  9  8  1  0  0  0  0
 12 15  1  0  0  0  0
 13 12  1  0  0  0  0
 14 12  1  0  0  0  0
 16 17  1  0  0  0  0
 16 18  1  0  0  0  0
 17 18  1  0  0  0  0
M  END
>  <minimizedAffinity>
-5.30683565

>  <minimizedRMSD>
0.885781527

$$$$
