
 OpenBabel03252505473D

 22 24  0  0  1  0  0  0  0  0999 V2000
   37.5570   28.2130   42.8830 C   0  0  1  0  0  0  0  0  0  0  0  0
   38.2350   26.9850   42.1910 C   0  0  1  0  0  0  0  0  0  0  0  0
   38.3840   27.3310   43.6450 C   0  0  0  0  0  0  0  0  0  0  0  0
   36.4430   28.1310   42.9400 H   0  0  0  0  0  0  0  0  0  0  0  0
   39.0490   27.1700   41.4950 H   0  0  0  0  0  0  0  0  0  0  0  0
   39.4210   27.6040   43.9470 H   0  0  0  0  0  0  0  0  0  0  0  0
   37.9030   26.6580   44.4010 H   0  0  0  0  0  0  0  0  0  0  0  0
   38.0200   29.4830   42.2990 C   0  0  0  0  0  0  0  0  0  0  0  0
   39.2730   30.0140   42.7160 C   0  0  0  0  0  0  0  0  0  0  0  0
   39.7520   31.2100   42.1760 C   0  0  0  0  0  0  0  0  0  0  0  0
   38.9560   31.8160   41.2470 N   0  0  0  0  0  0  0  0  0  0  0  0
   37.7590   31.2730   40.8720 C   0  0  0  0  0  0  0  0  0  0  0  0
   37.3090   30.1400   41.3880 N   0  0  0  0  0  0  0  0  0  0  0  0
   39.8640   29.4900   43.4590 H   0  0  0  0  0  0  0  0  0  0  0  0
   40.6890   31.6260   42.4750 H   0  0  0  0  0  0  0  0  0  0  0  0
   36.9340   31.9930   39.8430 C   0  0  0  0  0  3  0  0  0  0  0  0
   37.3030   33.3540   39.4120 C   0  0  0  0  0  2  0  0  0  0  0  0
   37.5430   32.1660   38.4650 C   0  0  0  0  0  2  0  0  0  0  0  0
   37.2830   25.8460   41.9100 C   0  0  0  0  0  0  0  0  0  0  0  0
   36.5810   26.0250   40.7370 F   0  0  0  0  0  0  0  0  0  0  0  0
   38.0370   24.6710   41.7650 F   0  0  0  0  0  0  0  0  0  0  0  0
   36.4430   25.6350   42.9810 F   0  0  0  0  0  0  0  0  0  0  0  0
  1  4  1  1  0  0  0
  1  3  1  0  0  0  0
  2  5  1  6  0  0  0
  2  1  1  0  0  0  0
  2  3  1  0  0  0  0
  3  6  1  0  0  0  0
  3  7  1  0  0  0  0
  8  9  1  0  0  0  0
  8  1  1  0  0  0  0
  9 14  1  0  0  0  0
 10 15  1  0  0  0  0
 10  9  2  0  0  0  0
 11 10  1  0  0  0  0
 12 11  2  0  0  0  0
 12 13  1  0  0  0  0
 13  8  2  0  0  0  0
 16 12  1  0  0  0  0
 17 16  1  0  0  0  0
 18 17  1  0  0  0  0
 18 16  1  0  0  0  0
 19  2  1  0  0  0  0
 19 22  1  0  0  0  0
 20 19  1  0  0  0  0
 21 19  1  0  0  0  0
M  END
>  <minimizedAffinity>
-4.92015553

$$$$

 OpenBabel03252505473D

 22 24  0  0  1  0  0  0  0  0999 V2000
   38.3900   29.3600   42.9730 C   0  0  1  0  0  0  0  0  0  0  0  0
   38.1010   28.0700   42.1370 C   0  0  1  0  0  0  0  0  0  0  0  0
   38.9440   28.1080   43.3810 C   0  0  0  0  0  0  0  0  0  0  0  0
   37.4830   29.7700   43.4850 H   0  0  0  0  0  0  0  0  0  0  0  0
   38.5650   27.9740   41.1600 H   0  0  0  0  0  0  0  0  0  0  0  0
   40.0150   27.8520   43.2150 H   0  0  0  0  0  0  0  0  0  0  0  0
   38.5450   27.6160   44.3050 H   0  0  0  0  0  0  0  0  0  0  0  0
   39.1130   30.3660   42.1770 C   0  0  0  0  0  0  0  0  0  0  0  0
   40.4670   30.6580   42.5080 C   0  0  0  0  0  0  0  0  0  0  0  0
   41.1910   31.5970   41.7690 C   0  0  0  0  0  0  0  0  0  0  0  0
   40.5270   32.1970   40.7370 N   0  0  0  0  0  0  0  0  0  0  0  0
   39.2270   31.8870   40.4510 C   0  0  0  0  0  0  0  0  0  0  0  0
   38.5450   30.9980   41.1550 N   0  0  0  0  0  0  0  0  0  0  0  0
   40.9430   30.1510   43.3400 H   0  0  0  0  0  0  0  0  0  0  0  0
   42.2070   31.8310   42.0010 H   0  0  0  0  0  0  0  0  0  0  0  0
   38.5600   32.5850   39.3000 C   0  0  0  0  0  3  0  0  0  0  0  0
   37.2570   32.1150   38.7970 C   0  0  0  0  0  2  0  0  0  0  0  0
   37.3320   33.4170   39.6120 C   0  0  0  0  0  2  0  0  0  0  0  0
   36.7090   27.5170   42.3380 C   0  0  0  0  0  0  0  0  0  0  0  0
   35.7490   28.2610   41.6870 F   0  0  0  0  0  0  0  0  0  0  0  0
   36.6690   26.2240   41.7940 F   0  0  0  0  0  0  0  0  0  0  0  0
   36.4260   27.3790   43.6790 F   0  0  0  0  0  0  0  0  0  0  0  0
  1  3  1  0  0  0  0
  1  4  1  1  0  0  0
  2  5  1  6  0  0  0
  2 19  1  0  0  0  0
  2  1  1  0  0  0  0
  2  3  1  0  0  0  0
  3  7  1  0  0  0  0
  6  3  1  0  0  0  0
  8  9  1  0  0  0  0
  8  1  1  0  0  0  0
  9 14  1  0  0  0  0
 10 15  1  0  0  0  0
 10  9  2  0  0  0  0
 11 10  1  0  0  0  0
 12 11  2  0  0  0  0
 12 13  1  0  0  0  0
 13  8  2  0  0  0  0
 16 18  1  0  0  0  0
 16 12  1  0  0  0  0
 17 16  1  0  0  0  0
 17 18  1  0  0  0  0
 19 22  1  0  0  0  0
 20 19  1  0  0  0  0
 21 19  1  0  0  0  0
M  END
>  <minimizedAffinity>
-4.78577995

$$$$

 OpenBabel03252505473D

 22 24  0  0  1  0  0  0  0  0999 V2000
   38.1540   32.2280   40.6220 C   0  0  1  0  0  0  0  0  0  0  0  0
   38.6130   32.3410   39.1310 C   0  0  1  0  0  0  0  0  0  0  0  0
   37.7250   33.3350   39.8260 C   0  0  0  0  0  0  0  0  0  0  0  0
   38.9910   32.3500   41.3540 H   0  0  0  0  0  0  0  0  0  0  0  0
   38.1980   31.6430   38.4090 H   0  0  0  0  0  0  0  0  0  0  0  0
   36.6960   33.4000   39.4070 H   0  0  0  0  0  0  0  0  0  0  0  0
   38.1410   34.3520   40.0460 H   0  0  0  0  0  0  0  0  0  0  0  0
   37.3540   31.0120   40.8480 C   0  0  0  0  0  0  0  0  0  0  0  0
   36.1740   30.8140   40.0760 C   0  0  0  0  0  0  0  0  0  0  0  0
   35.3950   29.6680   40.2530 C   0  0  0  0  0  0  0  0  0  0  0  0
   35.8340   28.7770   41.1900 N   0  0  0  0  0  0  0  0  0  0  0  0
   36.9740   29.0030   41.9090 C   0  0  0  0  0  0  0  0  0  0  0  0
   37.7080   30.0920   41.7390 N   0  0  0  0  0  0  0  0  0  0  0  0
   35.8730   31.5570   39.3460 H   0  0  0  0  0  0  0  0  0  0  0  0
   34.5060   29.5000   39.6850 H   0  0  0  0  0  0  0  0  0  0  0  0
   37.3990   27.9780   42.9230 C   0  0  0  0  0  3  0  0  0  0  0  0
   36.3890   27.2160   43.6790 C   0  0  0  0  0  2  0  0  0  0  0  0
   37.1880   26.5210   42.5640 C   0  0  0  0  0  2  0  0  0  0  0  0
   40.0480   32.7840   38.9710 C   0  0  0  0  0  0  0  0  0  0  0  0
   40.2540   34.0710   39.4190 F   0  0  0  0  0  0  0  0  0  0  0  0
   40.8560   31.9420   39.7500 F   0  0  0  0  0  0  0  0  0  0  0  0
   40.4680   32.6230   37.6690 F   0  0  0  0  0  0  0  0  0  0  0  0
  1  8  1  0  0  0  0
  1  4  1  1  0  0  0
  2  5  1  6  0  0  0
  2  3  1  0  0  0  0
  2  1  1  0  0  0  0
  3  7  1  0  0  0  0
  3  1  1  0  0  0  0
  6  3  1  0  0  0  0
  8 13  1  0  0  0  0
  9 10  1  0  0  0  0
  9  8  2  0  0  0  0
 10 11  2  0  0  0  0
 11 12  1  0  0  0  0
 12 16  1  0  0  0  0
 13 12  2  0  0  0  0
 14  9  1  0  0  0  0
 15 10  1  0  0  0  0
 16 17  1  0  0  0  0
 18 16  1  0  0  0  0
 18 17  1  0  0  0  0
 19  2  1  0  0  0  0
 19 20  1  0  0  0  0
 19 21  1  0  0  0  0
 22 19  1  0  0  0  0
M  END
>  <minimizedAffinity>
-4.72370672

$$$$

 OpenBabel03252505473D

 22 24  0  0  1  0  0  0  0  0999 V2000
   36.8810   30.0700   41.4770 C   0  0  1  0  0  0  0  0  0  0  0  0
   37.1350   30.2170   39.9410 C   0  0  1  0  0  0  0  0  0  0  0  0
   35.7780   30.0670   40.5690 C   0  0  0  0  0  0  0  0  0  0  0  0
   37.1310   30.9930   42.0590 H   0  0  0  0  0  0  0  0  0  0  0  0
   37.5910   29.3860   39.4110 H   0  0  0  0  0  0  0  0  0  0  0  0
   35.2450   29.1310   40.2870 H   0  0  0  0  0  0  0  0  0  0  0  0
   35.0880   30.9500   40.5550 H   0  0  0  0  0  0  0  0  0  0  0  0
   37.5160   28.8540   42.0130 C   0  0  0  0  0  0  0  0  0  0  0  0
   38.7530   28.9760   42.7080 C   0  0  0  0  0  0  0  0  0  0  0  0
   39.3800   27.8480   43.2420 C   0  0  0  0  0  0  0  0  0  0  0  0
   38.7420   26.6550   43.0550 N   0  0  0  0  0  0  0  0  0  0  0  0
   37.5550   26.5810   42.3820 C   0  0  0  0  0  0  0  0  0  0  0  0
   36.9650   27.6530   41.8770 N   0  0  0  0  0  0  0  0  0  0  0  0
   39.2150   29.9500   42.8260 H   0  0  0  0  0  0  0  0  0  0  0  0
   40.3080   27.9170   43.7670 H   0  0  0  0  0  0  0  0  0  0  0  0
   36.9080   25.2350   42.2140 C   0  0  0  0  0  3  0  0  0  0  0  0
   36.7970   24.6220   40.8790 C   0  0  0  0  0  2  0  0  0  0  0  0
   37.8160   24.0660   41.8870 C   0  0  0  0  0  2  0  0  0  0  0  0
   37.4780   31.6260   39.5160 C   0  0  0  0  0  0  0  0  0  0  0  0
   38.8350   31.8650   39.5340 F   0  0  0  0  0  0  0  0  0  0  0  0
   37.0460   31.8020   38.1920 F   0  0  0  0  0  0  0  0  0  0  0  0
   36.7870   32.5470   40.2710 F   0  0  0  0  0  0  0  0  0  0  0  0
  1  8  1  0  0  0  0
  1  4  1  1  0  0  0
  2  5  1  6  0  0  0
  2  3  1  0  0  0  0
  2  1  1  0  0  0  0
  3  1  1  0  0  0  0
  6  3  1  0  0  0  0
  7  3  1  0  0  0  0
  8  9  1  0  0  0  0
  9 14  1  0  0  0  0
  9 10  2  0  0  0  0
 10 15  1  0  0  0  0
 11 10  1  0  0  0  0
 12 11  2  0  0  0  0
 13  8  2  0  0  0  0
 13 12  1  0  0  0  0
 16 12  1  0  0  0  0
 17 18  1  0  0  0  0
 17 16  1  0  0  0  0
 18 16  1  0  0  0  0
 19 20  1  0  0  0  0
 19  2  1  0  0  0  0
 19 22  1  0  0  0  0
 21 19  1  0  0  0  0
M  END
>  <minimizedAffinity>
-4.67021179

$$$$

 OpenBabel03252505473D

 22 24  0  0  1  0  0  0  0  0999 V2000
   37.0330   27.1580   42.5860 C   0  0  1  0  0  0  0  0  0  0  0  0
   38.0050   26.1950   41.8280 C   0  0  1  0  0  0  0  0  0  0  0  0
   38.3500   26.9320   43.0910 C   0  0  0  0  0  0  0  0  0  0  0  0
   36.1560   26.6350   43.0420 H   0  0  0  0  0  0  0  0  0  0  0  0
   38.4110   26.5180   40.8730 H   0  0  0  0  0  0  0  0  0  0  0  0
   39.1660   27.6810   42.9750 H   0  0  0  0  0  0  0  0  0  0  0  0
   38.4730   26.3390   44.0340 H   0  0  0  0  0  0  0  0  0  0  0  0
   36.6540   28.3080   41.7470 C   0  0  0  0  0  0  0  0  0  0  0  0
   37.1910   29.5900   42.0580 C   0  0  0  0  0  0  0  0  0  0  0  0
   36.8650   30.7030   41.2800 C   0  0  0  0  0  0  0  0  0  0  0  0
   36.0200   30.4810   40.2300 N   0  0  0  0  0  0  0  0  0  0  0  0
   35.5280   29.2340   39.9640 C   0  0  0  0  0  0  0  0  0  0  0  0
   35.8390   28.1830   40.7050 N   0  0  0  0  0  0  0  0  0  0  0  0
   37.8570   29.7080   42.9060 H   0  0  0  0  0  0  0  0  0  0  0  0
   37.2560   31.6730   41.4960 H   0  0  0  0  0  0  0  0  0  0  0  0
   34.6040   29.0630   38.7910 C   0  0  0  0  0  3  0  0  0  0  0  0
   35.1120   29.2040   37.4150 C   0  0  0  0  0  2  0  0  0  0  0  0
   34.7680   27.8070   37.9580 C   0  0  0  0  0  2  0  0  0  0  0  0
   37.6810   24.7320   42.0230 C   0  0  0  0  0  0  0  0  0  0  0  0
   37.8190   24.0040   40.8610 F   0  0  0  0  0  0  0  0  0  0  0  0
   38.5890   24.2030   42.9520 F   0  0  0  0  0  0  0  0  0  0  0  0
   36.4300   24.5770   42.5770 F   0  0  0  0  0  0  0  0  0  0  0  0
  1  4  1  1  0  0  0
  1  3  1  0  0  0  0
  2  5  1  6  0  0  0
  2 19  1  0  0  0  0
  2  1  1  0  0  0  0
  2  3  1  0  0  0  0
  3  7  1  0  0  0  0
  6  3  1  0  0  0  0
  8  9  1  0  0  0  0
  8  1  1  0  0  0  0
  9 14  1  0  0  0  0
 10 15  1  0  0  0  0
 10  9  2  0  0  0  0
 11 10  1  0  0  0  0
 12 11  2  0  0  0  0
 12 13  1  0  0  0  0
 13  8  2  0  0  0  0
 16 12  1  0  0  0  0
 17 18  1  0  0  0  0
 17 16  1  0  0  0  0
 18 16  1  0  0  0  0
 19 22  1  0  0  0  0
 19 21  1  0  0  0  0
 20 19  1  0  0  0  0
M  END
>  <minimizedAffinity>
-4.66080236

$$$$

 OpenBabel03252505473D

 22 24  0  0  1  0  0  0  0  0999 V2000
   37.1470   25.4010   42.2410 C   0  0  1  0  0  0  0  0  0  0  0  0
   37.8400   24.8370   40.9570 C   0  0  1  0  0  0  0  0  0  0  0  0
   38.2950   24.5600   42.3620 C   0  0  0  0  0  0  0  0  0  0  0  0
   36.1220   24.9850   42.4110 H   0  0  0  0  0  0  0  0  0  0  0  0
   38.3940   25.5260   40.3250 H   0  0  0  0  0  0  0  0  0  0  0  0
   39.3040   24.9650   42.6040 H   0  0  0  0  0  0  0  0  0  0  0  0
   38.1650   23.5220   42.7650 H   0  0  0  0  0  0  0  0  0  0  0  0
   37.1910   26.8730   42.2740 C   0  0  0  0  0  0  0  0  0  0  0  0
   38.0330   27.5120   43.2280 C   0  0  0  0  0  0  0  0  0  0  0  0
   38.1120   28.9050   43.2830 C   0  0  0  0  0  0  0  0  0  0  0  0
   37.3470   29.5910   42.3830 N   0  0  0  0  0  0  0  0  0  0  0  0
   36.5530   28.9390   41.4810 C   0  0  0  0  0  0  0  0  0  0  0  0
   36.4810   27.6180   41.4340 N   0  0  0  0  0  0  0  0  0  0  0  0
   38.6180   26.9160   43.9200 H   0  0  0  0  0  0  0  0  0  0  0  0
   38.7360   29.4050   43.9910 H   0  0  0  0  0  0  0  0  0  0  0  0
   35.7390   29.7570   40.5190 C   0  0  0  0  0  3  0  0  0  0  0  0
   36.3600   30.3170   39.3060 C   0  0  0  0  0  2  0  0  0  0  0  0
   35.4000   29.1220   39.1850 C   0  0  0  0  0  2  0  0  0  0  0  0
   37.0810   23.7040   40.3070 C   0  0  0  0  0  0  0  0  0  0  0  0
   35.7180   23.8280   40.4620 F   0  0  0  0  0  0  0  0  0  0  0  0
   37.3450   23.7350   38.9290 F   0  0  0  0  0  0  0  0  0  0  0  0
   37.5380   22.4860   40.7590 F   0  0  0  0  0  0  0  0  0  0  0  0
  1  8  1  0  0  0  0
  1  3  1  0  0  0  0
  1  4  1  1  0  0  0
  2  5  1  6  0  0  0
  2  1  1  0  0  0  0
  2  3  1  0  0  0  0
  3  6  1  0  0  0  0
  3  7  1  0  0  0  0
  8  9  1  0  0  0  0
  9 10  2  0  0  0  0
  9 14  1  0  0  0  0
 10 15  1  0  0  0  0
 11 10  1  0  0  0  0
 12 11  2  0  0  0  0
 13 12  1  0  0  0  0
 13  8  2  0  0  0  0
 16 12  1  0  0  0  0
 17 16  1  0  0  0  0
 18 17  1  0  0  0  0
 18 16  1  0  0  0  0
 19 20  1  0  0  0  0
 19 22  1  0  0  0  0
 19  2  1  0  0  0  0
 21 19  1  0  0  0  0
M  END
>  <minimizedAffinity>
-4.62533569

$$$$

 OpenBabel03252505473D

 22 24  0  0  1  0  0  0  0  0999 V2000
   37.9600   31.4840   40.8950 C   0  0  1  0  0  0  0  0  0  0  0  0
   37.5190   30.9950   39.4760 C   0  0  1  0  0  0  0  0  0  0  0  0
   36.5720   31.4370   40.5560 C   0  0  0  0  0  0  0  0  0  0  0  0
   38.5120   32.4570   40.8770 H   0  0  0  0  0  0  0  0  0  0  0  0
   37.6290   29.9400   39.2370 H   0  0  0  0  0  0  0  0  0  0  0  0
   35.8980   30.6330   40.9300 H   0  0  0  0  0  0  0  0  0  0  0  0
   36.0180   32.4000   40.4120 H   0  0  0  0  0  0  0  0  0  0  0  0
   38.6690   30.4250   41.6330 C   0  0  0  0  0  0  0  0  0  0  0  0
   40.0850   30.5010   41.7500 C   0  0  0  0  0  0  0  0  0  0  0  0
   40.7930   29.5230   42.4520 C   0  0  0  0  0  0  0  0  0  0  0  0
   40.0510   28.5180   43.0040 N   0  0  0  0  0  0  0  0  0  0  0  0
   38.6910   28.4820   42.8700 C   0  0  0  0  0  0  0  0  0  0  0  0
   38.0250   29.4110   42.2020 N   0  0  0  0  0  0  0  0  0  0  0  0
   40.6240   31.3230   41.2910 H   0  0  0  0  0  0  0  0  0  0  0  0
   41.8560   29.5610   42.5520 H   0  0  0  0  0  0  0  0  0  0  0  0
   37.9370   27.3460   43.5040 C   0  0  0  0  0  3  0  0  0  0  0  0
   36.4700   27.4010   43.6230 C   0  0  0  0  0  2  0  0  0  0  0  0
   37.1140   26.4650   42.5870 C   0  0  0  0  0  2  0  0  0  0  0  0
   37.7490   32.0140   38.3850 C   0  0  0  0  0  0  0  0  0  0  0  0
   39.0830   32.3140   38.2180 F   0  0  0  0  0  0  0  0  0  0  0  0
   37.2920   31.4710   37.1750 F   0  0  0  0  0  0  0  0  0  0  0  0
   36.9960   33.1460   38.6070 F   0  0  0  0  0  0  0  0  0  0  0  0
  1  4  1  1  0  0  0
  1  8  1  0  0  0  0
  2  5  1  6  0  0  0
  2  3  1  0  0  0  0
  2  1  1  0  0  0  0
  3  1  1  0  0  0  0
  3  6  1  0  0  0  0
  7  3  1  0  0  0  0
  8  9  2  0  0  0  0
  8 13  1  0  0  0  0
  9 10  1  0  0  0  0
 10 15  1  0  0  0  0
 10 11  2  0  0  0  0
 12 11  1  0  0  0  0
 12 16  1  0  0  0  0
 13 12  2  0  0  0  0
 14  9  1  0  0  0  0
 16 17  1  0  0  0  0
 18 16  1  0  0  0  0
 18 17  1  0  0  0  0
 19 22  1  0  0  0  0
 19  2  1  0  0  0  0
 20 19  1  0  0  0  0
 21 19  1  0  0  0  0
M  END
>  <minimizedAffinity>
-4.62207747

$$$$

 OpenBabel03252505473D

 22 24  0  0  1  0  0  0  0  0999 V2000
   36.4300   29.0050   39.8640 C   0  0  1  0  0  0  0  0  0  0  0  0
   34.8720   29.1200   39.7850 C   0  0  1  0  0  0  0  0  0  0  0  0
   35.8100   30.2920   39.8670 C   0  0  0  0  0  0  0  0  0  0  0  0
   36.8930   28.6040   38.9270 H   0  0  0  0  0  0  0  0  0  0  0  0
   34.2880   28.8210   40.6510 H   0  0  0  0  0  0  0  0  0  0  0  0
   35.7050   30.8960   40.7970 H   0  0  0  0  0  0  0  0  0  0  0  0
   35.9190   30.9470   38.9650 H   0  0  0  0  0  0  0  0  0  0  0  0
   36.8550   28.2870   41.0770 C   0  0  0  0  0  0  0  0  0  0  0  0
   37.3280   29.0400   42.1890 C   0  0  0  0  0  0  0  0  0  0  0  0
   37.7300   28.3970   43.3630 C   0  0  0  0  0  0  0  0  0  0  0  0
   37.6380   27.0350   43.3680 N   0  0  0  0  0  0  0  0  0  0  0  0
   37.1770   26.3480   42.2790 C   0  0  0  0  0  0  0  0  0  0  0  0
   36.7990   26.9620   41.1690 N   0  0  0  0  0  0  0  0  0  0  0  0
   37.3800   30.1220   42.1290 H   0  0  0  0  0  0  0  0  0  0  0  0
   38.0870   28.9430   44.2080 H   0  0  0  0  0  0  0  0  0  0  0  0
   37.1020   24.8490   42.3550 C   0  0  0  0  0  3  0  0  0  0  0  0
   36.7320   24.0600   41.1670 C   0  0  0  0  0  2  0  0  0  0  0  0
   38.1920   24.0650   41.6510 C   0  0  0  0  0  2  0  0  0  0  0  0
   34.3140   28.8580   38.4060 C   0  0  0  0  0  0  0  0  0  0  0  0
   34.4180   27.5330   38.0400 F   0  0  0  0  0  0  0  0  0  0  0  0
   32.9480   29.1770   38.4180 F   0  0  0  0  0  0  0  0  0  0  0  0
   34.8950   29.6910   37.4760 F   0  0  0  0  0  0  0  0  0  0  0  0
  1  4  1  6  0  0  0
  1  3  1  0  0  0  0
  1  8  1  0  0  0  0
  2  1  1  0  0  0  0
  2  3  1  0  0  0  0
  2  5  1  1  0  0  0
  3  6  1  0  0  0  0
  7  3  1  0  0  0  0
  8 13  2  0  0  0  0
  8  9  1  0  0  0  0
  9 10  2  0  0  0  0
 10 11  1  0  0  0  0
 10 15  1  0  0  0  0
 12 16  1  0  0  0  0
 12 11  2  0  0  0  0
 13 12  1  0  0  0  0
 14  9  1  0  0  0  0
 17 18  1  0  0  0  0
 17 16  1  0  0  0  0
 18 16  1  0  0  0  0
 19 21  1  0  0  0  0
 19  2  1  0  0  0  0
 20 19  1  0  0  0  0
 22 19  1  0  0  0  0
M  END
>  <minimizedAffinity>
-4.60793877

$$$$

 OpenBabel03252505473D

 22 24  0  0  1  0  0  0  0  0999 V2000
   38.1050   27.7350   42.9330 C   0  0  1  0  0  0  0  0  0  0  0  0
   39.1780   26.9240   42.1360 C   0  0  1  0  0  0  0  0  0  0  0  0
   39.4900   27.8750   43.2560 C   0  0  0  0  0  0  0  0  0  0  0  0
   37.4400   27.0930   43.5630 H   0  0  0  0  0  0  0  0  0  0  0  0
   39.3760   27.2040   41.1050 H   0  0  0  0  0  0  0  0  0  0  0  0
   40.0830   28.7650   42.9480 H   0  0  0  0  0  0  0  0  0  0  0  0
   39.8640   27.4490   44.2230 H   0  0  0  0  0  0  0  0  0  0  0  0
   37.3630   28.6550   42.0540 C   0  0  0  0  0  0  0  0  0  0  0  0
   36.1110   28.2350   41.5220 C   0  0  0  0  0  0  0  0  0  0  0  0
   35.3720   29.0830   40.6940 C   0  0  0  0  0  0  0  0  0  0  0  0
   35.9190   30.3080   40.4390 N   0  0  0  0  0  0  0  0  0  0  0  0
   37.1240   30.6740   40.9700 C   0  0  0  0  0  0  0  0  0  0  0  0
   37.8210   29.8660   41.7530 N   0  0  0  0  0  0  0  0  0  0  0  0
   35.7250   27.2500   41.7580 H   0  0  0  0  0  0  0  0  0  0  0  0
   34.4300   28.7880   40.2850 H   0  0  0  0  0  0  0  0  0  0  0  0
   37.6650   32.0380   40.6480 C   0  0  0  0  0  3  0  0  0  0  0  0
   38.6440   32.2130   39.5600 C   0  0  0  0  0  2  0  0  0  0  0  0
   37.1940   32.6840   39.3600 C   0  0  0  0  0  2  0  0  0  0  0  0
   39.2380   25.4630   42.5160 C   0  0  0  0  0  0  0  0  0  0  0  0
   37.9880   24.8890   42.5980 F   0  0  0  0  0  0  0  0  0  0  0  0
   39.9420   24.7780   41.5140 F   0  0  0  0  0  0  0  0  0  0  0  0
   39.9570   25.2890   43.6780 F   0  0  0  0  0  0  0  0  0  0  0  0
  1  3  1  0  0  0  0
  1  4  1  1  0  0  0
  2  5  1  6  0  0  0
  2 19  1  0  0  0  0
  2  1  1  0  0  0  0
  2  3  1  0  0  0  0
  3  7  1  0  0  0  0
  6  3  1  0  0  0  0
  8  1  1  0  0  0  0
  9 14  1  0  0  0  0
  9  8  2  0  0  0  0
 10  9  1  0  0  0  0
 11 10  2  0  0  0  0
 11 12  1  0  0  0  0
 12 13  2  0  0  0  0
 13  8  1  0  0  0  0
 15 10  1  0  0  0  0
 16 12  1  0  0  0  0
 17 16  1  0  0  0  0
 18 17  1  0  0  0  0
 18 16  1  0  0  0  0
 19 20  1  0  0  0  0
 19 22  1  0  0  0  0
 21 19  1  0  0  0  0
M  END
>  <minimizedAffinity>
-4.52913952

$$$$
