
 OpenBabel03252509213D

 19 21  0  0  0  0  0  0  0  0999 V2000
   45.2590   33.8750   46.0590 C   0  0  0  0  0  0  0  0  0  0  0  0
   45.6420   33.8770   44.6950 C   0  0  0  0  0  0  0  0  0  0  0  0
   46.7000   33.0210   44.3860 C   0  0  0  0  0  0  0  0  0  0  0  0
   47.3050   32.2450   45.3590 N   0  0  0  0  0  0  0  0  0  0  0  0
   46.8890   32.2920   46.6370 C   0  0  0  0  0  0  0  0  0  0  0  0
   45.8740   33.1030   46.9750 N   0  0  0  0  0  0  0  0  0  0  0  0
   44.4530   34.5160   46.3410 H   0  0  0  0  0  0  0  0  0  0  0  0
   47.4740   31.6220   47.2500 H   0  0  0  0  0  0  0  0  0  0  0  0
   47.0930   32.9180   42.9310 C   0  0  0  0  0  0  0  0  0  0  0  0
   48.4830   33.5240   42.6920 C   0  0  0  0  0  0  0  0  0  0  0  0
   48.1490   32.0010   42.5860 C   0  0  0  0  0  0  0  0  0  0  0  0
   46.3820   33.4440   42.2760 H   0  0  0  0  0  0  0  0  0  0  0  0
   48.6840   34.0420   41.7470 H   0  0  0  0  0  0  0  0  0  0  0  0
   49.0570   33.8280   43.5650 H   0  0  0  0  0  0  0  0  0  0  0  0
   48.1940   31.6240   41.5270 H   0  0  0  0  0  0  0  0  0  0  0  0
   48.6950   31.3810   43.3070 H   0  0  0  0  0  0  0  0  0  0  0  0
   45.0010   34.6990   43.6600 C   0  0  0  0  0  3  0  0  0  0  0  0
   44.5310   36.0510   44.1570 C   0  0  0  0  0  2  0  0  0  0  0  0
   45.6460   35.9340   43.1520 C   0  0  0  0  0  2  0  0  0  0  0  0
  1  7  1  0  0  0  0
  1  6  1  0  0  0  0
  2  1  2  0  0  0  0
  3  2  1  0  0  0  0
  3  4  2  0  0  0  0
  4  5  1  0  0  0  0
  5  6  2  0  0  0  0
  5  8  1  0  0  0  0
  9  3  1  0  0  0  0
 10  9  1  0  0  0  0
 10 14  1  0  0  0  0
 11 10  1  0  0  0  0
 11  9  1  0  0  0  0
 11 16  1  0  0  0  0
 12  9  1  0  0  0  0
 13 10  1  0  0  0  0
 15 11  1  0  0  0  0
 17 18  1  0  0  0  0
 17  2  1  0  0  0  0
 19 17  1  0  0  0  0
 19 18  1  0  0  0  0
M  END
>  <minimizedAffinity>
-3.30596113

>  <minimizedRMSD>
2.49284554

$$$$
