
 OpenBabel03252509213D

 19 21  0  0  0  0  0  0  0  0999 V2000
   45.2730   34.4210   45.1830 C   0  0  0  0  0  0  0  0  0  0  0  0
   46.0180   34.5200   43.9810 C   0  0  0  0  0  0  0  0  0  0  0  0
   47.0440   33.5830   43.8530 C   0  0  0  0  0  0  0  0  0  0  0  0
   47.2880   32.6440   44.8400 N   0  0  0  0  0  0  0  0  0  0  0  0
   46.5400   32.6050   45.9570 C   0  0  0  0  0  0  0  0  0  0  0  0
   45.5430   33.4900   46.1190 N   0  0  0  0  0  0  0  0  0  0  0  0
   44.4780   35.1190   45.3250 H   0  0  0  0  0  0  0  0  0  0  0  0
   46.8730   31.8120   46.6090 H   0  0  0  0  0  0  0  0  0  0  0  0
   47.8140   33.5870   42.5530 C   0  0  0  0  0  0  0  0  0  0  0  0
   49.1890   34.2440   42.7300 C   0  0  0  0  0  0  0  0  0  0  0  0
   48.9620   32.7230   42.4530 C   0  0  0  0  0  0  0  0  0  0  0  0
   47.2810   34.1350   41.7620 H   0  0  0  0  0  0  0  0  0  0  0  0
   49.6110   34.8280   41.9060 H   0  0  0  0  0  0  0  0  0  0  0  0
   49.4970   34.5060   43.7420 H   0  0  0  0  0  0  0  0  0  0  0  0
   49.3040   32.4180   41.4260 H   0  0  0  0  0  0  0  0  0  0  0  0
   49.3240   32.0710   43.2580 H   0  0  0  0  0  0  0  0  0  0  0  0
   45.7600   35.5150   42.9320 C   0  0  0  0  0  3  0  0  0  0  0  0
   44.3260   35.5290   42.4410 C   0  0  0  0  0  2  0  0  0  0  0  0
   44.9060   36.7000   43.1910 C   0  0  0  0  0  2  0  0  0  0  0  0
  1  7  1  0  0  0  0
  1  6  1  0  0  0  0
  2  1  2  0  0  0  0
  3  2  1  0  0  0  0
  3  4  2  0  0  0  0
  4  5  1  0  0  0  0
  5  6  2  0  0  0  0
  5  8  1  0  0  0  0
  9 10  1  0  0  0  0
  9  3  1  0  0  0  0
 10 14  1  0  0  0  0
 11  9  1  0  0  0  0
 11 10  1  0  0  0  0
 11 16  1  0  0  0  0
 12  9  1  0  0  0  0
 13 10  1  0  0  0  0
 15 11  1  0  0  0  0
 17 19  1  0  0  0  0
 17  2  1  0  0  0  0
 18 17  1  0  0  0  0
 18 19  1  0  0  0  0
M  END
>  <minimizedAffinity>
-3.75425577

>  <minimizedRMSD>
1.80282986

$$$$
