
 OpenBabel03252508423D

 22 24  0  0  0  0  0  0  0  0999 V2000
   36.6050   26.9910   40.1370 C   0  0  0  0  0  0  0  0  0  0  0  0
   36.6270   27.8830   41.1780 C   0  0  0  0  0  0  0  0  0  0  0  0
   35.9870   29.0990   41.0810 C   0  0  0  0  0  0  0  0  0  0  0  0
   35.3240   29.4010   39.9130 C   0  0  0  0  0  0  0  0  0  0  0  0
   35.2610   28.5440   38.8170 C   0  0  0  0  0  0  0  0  0  0  0  0
   35.9350   27.3310   38.9950 C   0  0  0  0  0  0  0  0  0  0  0  0
   35.9670   29.8360   41.8550 H   0  0  0  0  0  0  0  0  0  0  0  0
   34.8010   30.3410   39.7710 H   0  0  0  0  0  0  0  0  0  0  0  0
   34.7380   28.7880   37.9020 H   0  0  0  0  0  0  0  0  0  0  0  0
   35.9270   26.6050   38.1720 H   0  0  0  0  0  0  0  0  0  0  0  0
   37.5190   23.4310   40.9660 C   0  0  0  0  0  0  0  0  0  0  0  0
   36.7180   24.5970   40.8590 C   0  0  0  0  0  0  0  0  0  0  0  0
   37.3010   25.7270   40.3100 C   0  0  0  0  0  0  0  0  0  0  0  0
   38.6040   25.6530   39.9040 N   0  0  0  0  0  0  0  0  0  0  0  0
   39.3450   24.5230   40.0190 C   0  0  0  0  0  0  0  0  0  0  0  0
   38.7930   23.4030   40.5560 N   0  0  0  0  0  0  0  0  0  0  0  0
   37.0460   22.5520   41.4000 H   0  0  0  0  0  0  0  0  0  0  0  0
   35.6980   24.6430   41.1800 H   0  0  0  0  0  0  0  0  0  0  0  0
   40.3510   24.6330   39.6540 H   0  0  0  0  0  0  0  0  0  0  0  0
   37.3500   27.5380   42.4330 C   0  0  0  0  0  3  0  0  0  0  0  0
   36.4360   27.3210   43.6530 C   0  0  0  0  0  2  0  0  0  0  0  0
   37.3670   28.5210   43.5800 C   0  0  0  0  0  2  0  0  0  0  0  0
  1 13  1  0  0  0  0
  1  2  1  0  0  0  0
  2 20  1  0  0  0  0
  3  2  2  0  0  0  0
  3  7  1  0  0  0  0
  4  3  1  0  0  0  0
  5  6  1  0  0  0  0
  5  4  2  0  0  0  0
  6  1  2  0  0  0  0
  8  4  1  0  0  0  0
  9  5  1  0  0  0  0
 10  6  1  0  0  0  0
 11 17  1  0  0  0  0
 12 11  1  0  0  0  0
 12 18  1  0  0  0  0
 13 12  2  0  0  0  0
 14 15  2  0  0  0  0
 14 13  1  0  0  0  0
 15 16  1  0  0  0  0
 16 11  2  0  0  0  0
 19 15  1  0  0  0  0
 20 22  1  0  0  0  0
 20 21  1  0  0  0  0
 22 21  1  0  0  0  0
M  END
>  <minimizedAffinity>
-4.65108633

$$$$

 OpenBabel03252508423D

 22 24  0  0  0  0  0  0  0  0999 V2000
   37.5490   29.3470   41.5740 C   0  0  0  0  0  0  0  0  0  0  0  0
   37.0940   28.2440   40.8970 C   0  0  0  0  0  0  0  0  0  0  0  0
   36.8040   27.0760   41.5650 C   0  0  0  0  0  0  0  0  0  0  0  0
   36.9800   27.0370   42.9300 C   0  0  0  0  0  0  0  0  0  0  0  0
   37.4380   28.1180   43.6800 C   0  0  0  0  0  0  0  0  0  0  0  0
   37.7110   29.2660   42.9290 C   0  0  0  0  0  0  0  0  0  0  0  0
   36.4460   26.1830   41.0960 H   0  0  0  0  0  0  0  0  0  0  0  0
   36.7700   26.1480   43.5160 H   0  0  0  0  0  0  0  0  0  0  0  0
   37.5750   28.0800   44.7520 H   0  0  0  0  0  0  0  0  0  0  0  0
   38.0750   30.1570   43.4540 H   0  0  0  0  0  0  0  0  0  0  0  0
   37.3240   32.6560   39.7860 C   0  0  0  0  0  0  0  0  0  0  0  0
   36.9030   31.5390   40.5520 C   0  0  0  0  0  0  0  0  0  0  0  0
   37.8360   30.5470   40.8050 C   0  0  0  0  0  0  0  0  0  0  0  0
   39.0990   30.7010   40.3060 N   0  0  0  0  0  0  0  0  0  0  0  0
   39.4720   31.7810   39.5760 C   0  0  0  0  0  0  0  0  0  0  0  0
   38.5730   32.7660   39.3160 N   0  0  0  0  0  0  0  0  0  0  0  0
   36.5800   33.4260   39.5960 H   0  0  0  0  0  0  0  0  0  0  0  0
   35.9110   31.4290   40.9380 H   0  0  0  0  0  0  0  0  0  0  0  0
   40.5000   31.7480   39.2590 H   0  0  0  0  0  0  0  0  0  0  0  0
   36.9100   28.3060   39.4220 C   0  0  0  0  0  3  0  0  0  0  0  0
   35.4480   28.4780   38.9700 C   0  0  0  0  0  2  0  0  0  0  0  0
   36.1970   27.1800   38.7090 C   0  0  0  0  0  2  0  0  0  0  0  0
  1  6  1  0  0  0  0
  2  3  1  0  0  0  0
  2  1  2  0  0  0  0
  3  4  2  0  0  0  0
  4  8  1  0  0  0  0
  4  5  1  0  0  0  0
  5  9  1  0  0  0  0
  6 10  1  0  0  0  0
  6  5  2  0  0  0  0
  7  3  1  0  0  0  0
 11 12  1  0  0  0  0
 12 13  2  0  0  0  0
 12 18  1  0  0  0  0
 13  1  1  0  0  0  0
 14 13  1  0  0  0  0
 15 14  2  0  0  0  0
 16 15  1  0  0  0  0
 16 11  2  0  0  0  0
 17 11  1  0  0  0  0
 19 15  1  0  0  0  0
 20  2  1  0  0  0  0
 21 20  1  0  0  0  0
 22 21  1  0  0  0  0
 22 20  1  0  0  0  0
M  END
>  <minimizedAffinity>
-4.49926996

$$$$

 OpenBabel03252508423D

 22 24  0  0  0  0  0  0  0  0999 V2000
   36.8900   26.6310   40.2330 C   0  0  0  0  0  0  0  0  0  0  0  0
   36.9760   26.7650   41.5950 C   0  0  0  0  0  0  0  0  0  0  0  0
   37.0060   25.6580   42.4130 C   0  0  0  0  0  0  0  0  0  0  0  0
   36.9480   24.4100   41.8340 C   0  0  0  0  0  0  0  0  0  0  0  0
   36.8600   24.2010   40.4590 C   0  0  0  0  0  0  0  0  0  0  0  0
   36.8350   25.3750   39.6980 C   0  0  0  0  0  0  0  0  0  0  0  0
   37.0720   25.6950   43.4800 H   0  0  0  0  0  0  0  0  0  0  0  0
   36.9670   23.4970   42.4210 H   0  0  0  0  0  0  0  0  0  0  0  0
   36.8150   23.2180   40.0110 H   0  0  0  0  0  0  0  0  0  0  0  0
   36.7670   25.2870   38.6070 H   0  0  0  0  0  0  0  0  0  0  0  0
   35.8230   29.6620   38.2650 C   0  0  0  0  0  0  0  0  0  0  0  0
   35.6970   28.4850   39.0470 C   0  0  0  0  0  0  0  0  0  0  0  0
   36.8630   27.8440   39.4310 C   0  0  0  0  0  0  0  0  0  0  0  0
   38.0580   28.3780   39.0390 N   0  0  0  0  0  0  0  0  0  0  0  0
   38.1460   29.5060   38.2900 C   0  0  0  0  0  0  0  0  0  0  0  0
   37.0150   30.1510   37.9010 N   0  0  0  0  0  0  0  0  0  0  0  0
   34.8980   30.1530   37.9700 H   0  0  0  0  0  0  0  0  0  0  0  0
   34.7550   28.0760   39.3490 H   0  0  0  0  0  0  0  0  0  0  0  0
   39.1590   29.7920   38.0670 H   0  0  0  0  0  0  0  0  0  0  0  0
   37.0370   28.1220   42.2030 C   0  0  0  0  0  3  0  0  0  0  0  0
   38.4400   28.5410   42.6820 C   0  0  0  0  0  2  0  0  0  0  0  0
   37.3250   28.2680   43.6800 C   0  0  0  0  0  2  0  0  0  0  0  0
  1  2  1  0  0  0  0
  2 20  1  0  0  0  0
  2  3  2  0  0  0  0
  3  7  1  0  0  0  0
  4  3  1  0  0  0  0
  4  8  1  0  0  0  0
  5  4  2  0  0  0  0
  6  1  2  0  0  0  0
  6  5  1  0  0  0  0
  9  5  1  0  0  0  0
 10  6  1  0  0  0  0
 11 12  1  0  0  0  0
 12 18  1  0  0  0  0
 12 13  2  0  0  0  0
 13  1  1  0  0  0  0
 14 13  1  0  0  0  0
 15 14  2  0  0  0  0
 16 11  2  0  0  0  0
 16 15  1  0  0  0  0
 17 11  1  0  0  0  0
 19 15  1  0  0  0  0
 20 21  1  0  0  0  0
 20 22  1  0  0  0  0
 21 22  1  0  0  0  0
M  END
>  <minimizedAffinity>
-4.44953108

$$$$

 OpenBabel03252508423D

 22 24  0  0  0  0  0  0  0  0999 V2000
   39.2430   26.8450   42.8520 C   0  0  0  0  0  0  0  0  0  0  0  0
   38.2790   25.9440   42.4760 C   0  0  0  0  0  0  0  0  0  0  0  0
   36.9420   26.2510   42.5920 C   0  0  0  0  0  0  0  0  0  0  0  0
   36.5910   27.4840   43.0930 C   0  0  0  0  0  0  0  0  0  0  0  0
   37.5160   28.4460   43.4940 C   0  0  0  0  0  0  0  0  0  0  0  0
   38.8520   28.0580   43.3450 C   0  0  0  0  0  0  0  0  0  0  0  0
   36.1440   25.5930   42.3170 H   0  0  0  0  0  0  0  0  0  0  0  0
   35.5560   27.7880   43.2110 H   0  0  0  0  0  0  0  0  0  0  0  0
   37.2330   29.4120   43.8880 H   0  0  0  0  0  0  0  0  0  0  0  0
   39.6360   28.7660   43.6410 H   0  0  0  0  0  0  0  0  0  0  0  0
   42.7080   25.4680   43.3940 C   0  0  0  0  0  0  0  0  0  0  0  0
   41.3550   25.7880   43.6800 C   0  0  0  0  0  0  0  0  0  0  0  0
   40.6350   26.4540   42.7020 C   0  0  0  0  0  0  0  0  0  0  0  0
   41.2630   26.7610   41.5280 N   0  0  0  0  0  0  0  0  0  0  0  0
   42.5590   26.4410   41.2840 C   0  0  0  0  0  0  0  0  0  0  0  0
   43.2840   25.7890   42.2300 N   0  0  0  0  0  0  0  0  0  0  0  0
   43.2610   24.9460   44.1730 H   0  0  0  0  0  0  0  0  0  0  0  0
   40.8740   25.5420   44.6030 H   0  0  0  0  0  0  0  0  0  0  0  0
   42.9000   26.7540   40.3130 H   0  0  0  0  0  0  0  0  0  0  0  0
   38.6790   24.6160   41.9360 C   0  0  0  0  0  3  0  0  0  0  0  0
   38.5880   24.5000   40.4030 C   0  0  0  0  0  2  0  0  0  0  0  0
   37.6380   23.7230   41.3010 C   0  0  0  0  0  2  0  0  0  0  0  0
  1  6  1  0  0  0  0
  2  3  1  0  0  0  0
  2  1  2  0  0  0  0
  3  4  2  0  0  0  0
  4  8  1  0  0  0  0
  4  5  1  0  0  0  0
  5  9  1  0  0  0  0
  6  5  2  0  0  0  0
  6 10  1  0  0  0  0
  7  3  1  0  0  0  0
 11 12  1  0  0  0  0
 11 17  1  0  0  0  0
 12 18  1  0  0  0  0
 13  1  1  0  0  0  0
 13 12  2  0  0  0  0
 14 13  1  0  0  0  0
 15 14  2  0  0  0  0
 15 16  1  0  0  0  0
 16 11  2  0  0  0  0
 19 15  1  0  0  0  0
 20  2  1  0  0  0  0
 21 22  1  0  0  0  0
 21 20  1  0  0  0  0
 22 20  1  0  0  0  0
M  END
>  <minimizedAffinity>
-4.30450249

$$$$

 OpenBabel03252508423D

 22 24  0  0  0  0  0  0  0  0999 V2000
   37.2150   30.5380   39.8100 C   0  0  0  0  0  0  0  0  0  0  0  0
   36.9240   29.6910   40.8490 C   0  0  0  0  0  0  0  0  0  0  0  0
   35.9710   28.7070   40.7120 C   0  0  0  0  0  0  0  0  0  0  0  0
   35.3130   28.5910   39.5080 C   0  0  0  0  0  0  0  0  0  0  0  0
   35.5580   29.4160   38.4130 C   0  0  0  0  0  0  0  0  0  0  0  0
   36.5390   30.3890   38.6320 C   0  0  0  0  0  0  0  0  0  0  0  0
   35.6990   28.0160   41.4820 H   0  0  0  0  0  0  0  0  0  0  0  0
   34.5510   27.8380   39.3340 H   0  0  0  0  0  0  0  0  0  0  0  0
   35.0370   29.3200   37.4700 H   0  0  0  0  0  0  0  0  0  0  0  0
   36.7840   31.0750   37.8120 H   0  0  0  0  0  0  0  0  0  0  0  0
   39.0520   33.7240   40.6270 C   0  0  0  0  0  0  0  0  0  0  0  0
   37.9560   32.8390   40.4600 C   0  0  0  0  0  0  0  0  0  0  0  0
   38.2330   31.5530   40.0250 C   0  0  0  0  0  0  0  0  0  0  0  0
   39.5350   31.2140   39.7860 N   0  0  0  0  0  0  0  0  0  0  0  0
   40.5620   32.0840   39.9560 C   0  0  0  0  0  0  0  0  0  0  0  0
   40.3130   33.3510   40.3800 N   0  0  0  0  0  0  0  0  0  0  0  0
   38.8180   34.7310   40.9690 H   0  0  0  0  0  0  0  0  0  0  0  0
   36.9400   33.1160   40.6510 H   0  0  0  0  0  0  0  0  0  0  0  0
   41.5230   31.6600   39.7230 H   0  0  0  0  0  0  0  0  0  0  0  0
   37.6460   29.8320   42.1420 C   0  0  0  0  0  3  0  0  0  0  0  0
   38.7530   28.7850   42.3700 C   0  0  0  0  0  2  0  0  0  0  0  0
   37.4840   28.7720   43.2080 C   0  0  0  0  0  2  0  0  0  0  0  0
  1 13  1  0  0  0  0
  1  2  1  0  0  0  0
  2 20  1  0  0  0  0
  3  2  2  0  0  0  0
  3  7  1  0  0  0  0
  4  3  1  0  0  0  0
  5  6  1  0  0  0  0
  5  4  2  0  0  0  0
  6  1  2  0  0  0  0
  8  4  1  0  0  0  0
  9  5  1  0  0  0  0
 10  6  1  0  0  0  0
 11 17  1  0  0  0  0
 12 11  1  0  0  0  0
 12 18  1  0  0  0  0
 13 12  2  0  0  0  0
 14 15  2  0  0  0  0
 14 13  1  0  0  0  0
 15 16  1  0  0  0  0
 16 11  2  0  0  0  0
 19 15  1  0  0  0  0
 20 21  1  0  0  0  0
 20 22  1  0  0  0  0
 21 22  1  0  0  0  0
M  END
>  <minimizedAffinity>
-4.26136971

$$$$

 OpenBabel03252508423D

 22 24  0  0  0  0  0  0  0  0999 V2000
   39.3610   28.9260   41.8430 C   0  0  0  0  0  0  0  0  0  0  0  0
   38.8870   27.7560   42.3800 C   0  0  0  0  0  0  0  0  0  0  0  0
   39.6600   27.0110   43.2430 C   0  0  0  0  0  0  0  0  0  0  0  0
   40.9210   27.4660   43.5560 C   0  0  0  0  0  0  0  0  0  0  0  0
   41.4640   28.6440   43.0480 C   0  0  0  0  0  0  0  0  0  0  0  0
   40.6180   29.3420   42.1800 C   0  0  0  0  0  0  0  0  0  0  0  0
   39.3500   26.0920   43.6940 H   0  0  0  0  0  0  0  0  0  0  0  0
   41.5810   26.9280   44.2280 H   0  0  0  0  0  0  0  0  0  0  0  0
   42.4560   28.9950   43.2970 H   0  0  0  0  0  0  0  0  0  0  0  0
   40.9800   30.2800   41.7410 H   0  0  0  0  0  0  0  0  0  0  0  0
   37.6320   30.3270   38.8030 C   0  0  0  0  0  0  0  0  0  0  0  0
   38.5460   29.5500   39.5600 C   0  0  0  0  0  0  0  0  0  0  0  0
   38.4900   29.6600   40.9390 C   0  0  0  0  0  0  0  0  0  0  0  0
   37.5650   30.5030   41.4870 N   0  0  0  0  0  0  0  0  0  0  0  0
   36.7040   31.2350   40.7360 C   0  0  0  0  0  0  0  0  0  0  0  0
   36.7420   31.1430   39.3800 N   0  0  0  0  0  0  0  0  0  0  0  0
   37.6890   30.2310   37.7200 H   0  0  0  0  0  0  0  0  0  0  0  0
   39.2660   28.8920   39.1190 H   0  0  0  0  0  0  0  0  0  0  0  0
   36.0410   31.8480   41.3210 H   0  0  0  0  0  0  0  0  0  0  0  0
   37.5210   27.2800   42.0290 C   0  0  0  0  0  3  0  0  0  0  0  0
   36.5140   27.3250   43.1940 C   0  0  0  0  0  2  0  0  0  0  0  0
   36.9980   25.9970   42.6330 C   0  0  0  0  0  2  0  0  0  0  0  0
  1  6  2  0  0  0  0
  1  2  1  0  0  0  0
  2  3  2  0  0  0  0
  3  4  1  0  0  0  0
  3  7  1  0  0  0  0
  4  8  1  0  0  0  0
  5  9  1  0  0  0  0
  5  4  2  0  0  0  0
  6  5  1  0  0  0  0
 10  6  1  0  0  0  0
 11 16  2  0  0  0  0
 11 12  1  0  0  0  0
 12 13  2  0  0  0  0
 13 14  1  0  0  0  0
 13  1  1  0  0  0  0
 15 19  1  0  0  0  0
 15 14  2  0  0  0  0
 16 15  1  0  0  0  0
 17 11  1  0  0  0  0
 18 12  1  0  0  0  0
 20  2  1  0  0  0  0
 20 22  1  0  0  0  0
 20 21  1  0  0  0  0
 22 21  1  0  0  0  0
M  END
>  <minimizedAffinity>
-4.2380619

$$$$

 OpenBabel03252508423D

 22 24  0  0  0  0  0  0  0  0999 V2000
   36.9430   26.9460   41.0180 C   0  0  0  0  0  0  0  0  0  0  0  0
   36.7390   26.2840   39.8340 C   0  0  0  0  0  0  0  0  0  0  0  0
   36.6250   24.9120   39.8030 C   0  0  0  0  0  0  0  0  0  0  0  0
   36.7210   24.2170   40.9870 C   0  0  0  0  0  0  0  0  0  0  0  0
   36.9270   24.8240   42.2240 C   0  0  0  0  0  0  0  0  0  0  0  0
   37.0320   26.2180   42.1710 C   0  0  0  0  0  0  0  0  0  0  0  0
   36.4660   24.3370   38.9150 H   0  0  0  0  0  0  0  0  0  0  0  0
   36.6410   23.1350   41.0330 H   0  0  0  0  0  0  0  0  0  0  0  0
   37.0020   24.2720   43.1510 H   0  0  0  0  0  0  0  0  0  0  0  0
   37.1950   26.7640   43.1080 H   0  0  0  0  0  0  0  0  0  0  0  0
   36.2230   30.6440   40.9830 C   0  0  0  0  0  0  0  0  0  0  0  0
   35.9650   29.2500   41.0330 C   0  0  0  0  0  0  0  0  0  0  0  0
   37.0530   28.3950   40.9760 C   0  0  0  0  0  0  0  0  0  0  0  0
   38.3020   28.9390   40.8760 N   0  0  0  0  0  0  0  0  0  0  0  0
   38.5180   30.2770   40.8300 C   0  0  0  0  0  0  0  0  0  0  0  0
   37.4650   31.1350   40.8840 N   0  0  0  0  0  0  0  0  0  0  0  0
   35.3580   31.3030   41.0280 H   0  0  0  0  0  0  0  0  0  0  0  0
   34.9810   28.8360   41.1120 H   0  0  0  0  0  0  0  0  0  0  0  0
   39.5580   30.5400   40.7510 H   0  0  0  0  0  0  0  0  0  0  0  0
   36.6380   27.0530   38.5640 C   0  0  0  0  0  3  0  0  0  0  0  0
   35.2090   27.1660   38.0010 C   0  0  0  0  0  2  0  0  0  0  0  0
   36.2660   26.3390   37.2850 C   0  0  0  0  0  2  0  0  0  0  0  0
  1  6  1  0  0  0  0
  2  1  2  0  0  0  0
  3  2  1  0  0  0  0
  3  4  2  0  0  0  0
  4  8  1  0  0  0  0
  4  5  1  0  0  0  0
  5  9  1  0  0  0  0
  6  5  2  0  0  0  0
  6 10  1  0  0  0  0
  7  3  1  0  0  0  0
 11 17  1  0  0  0  0
 11 12  1  0  0  0  0
 12 18  1  0  0  0  0
 13  1  1  0  0  0  0
 13 12  2  0  0  0  0
 14 13  1  0  0  0  0
 15 14  2  0  0  0  0
 15 16  1  0  0  0  0
 16 11  2  0  0  0  0
 19 15  1  0  0  0  0
 20  2  1  0  0  0  0
 21 20  1  0  0  0  0
 22 21  1  0  0  0  0
 22 20  1  0  0  0  0
M  END
>  <minimizedAffinity>
-4.23112488

$$$$

 OpenBabel03252508423D

 22 24  0  0  0  0  0  0  0  0999 V2000
   37.5250   26.5550   41.7010 C   0  0  0  0  0  0  0  0  0  0  0  0
   38.7370   26.4630   42.3370 C   0  0  0  0  0  0  0  0  0  0  0  0
   39.1250   27.4100   43.2580 C   0  0  0  0  0  0  0  0  0  0  0  0
   38.2690   28.4540   43.5290 C   0  0  0  0  0  0  0  0  0  0  0  0
   37.0260   28.6090   42.9210 C   0  0  0  0  0  0  0  0  0  0  0  0
   36.7060   27.6070   41.9990 C   0  0  0  0  0  0  0  0  0  0  0  0
   40.0550   27.3950   43.7870 H   0  0  0  0  0  0  0  0  0  0  0  0
   38.5140   29.2330   44.2430 H   0  0  0  0  0  0  0  0  0  0  0  0
   36.3580   29.4320   43.1380 H   0  0  0  0  0  0  0  0  0  0  0  0
   35.7400   27.6650   41.4810 H   0  0  0  0  0  0  0  0  0  0  0  0
   36.2910   23.4070   40.0390 C   0  0  0  0  0  0  0  0  0  0  0  0
   36.5690   24.3260   41.0840 C   0  0  0  0  0  0  0  0  0  0  0  0
   37.1810   25.5190   40.7400 C   0  0  0  0  0  0  0  0  0  0  0  0
   37.4790   25.7420   39.4250 N   0  0  0  0  0  0  0  0  0  0  0  0
   37.2010   24.8440   38.4480 C   0  0  0  0  0  0  0  0  0  0  0  0
   36.6010   23.6650   38.7630 N   0  0  0  0  0  0  0  0  0  0  0  0
   35.8110   22.4730   40.3250 H   0  0  0  0  0  0  0  0  0  0  0  0
   36.3300   24.1400   42.1110 H   0  0  0  0  0  0  0  0  0  0  0  0
   37.5000   25.1720   37.4680 H   0  0  0  0  0  0  0  0  0  0  0  0
   39.6490   25.3270   42.0300 C   0  0  0  0  0  3  0  0  0  0  0  0
   39.7090   24.2470   43.1270 C   0  0  0  0  0  2  0  0  0  0  0  0
   40.9090   25.1390   42.8440 C   0  0  0  0  0  2  0  0  0  0  0  0
  1  6  2  0  0  0  0
  1  2  1  0  0  0  0
  2  3  2  0  0  0  0
  3  4  1  0  0  0  0
  3  7  1  0  0  0  0
  4  8  1  0  0  0  0
  5  9  1  0  0  0  0
  5  4  2  0  0  0  0
  6  5  1  0  0  0  0
 10  6  1  0  0  0  0
 11 17  1  0  0  0  0
 11 12  1  0  0  0  0
 12 18  1  0  0  0  0
 13 12  2  0  0  0  0
 13  1  1  0  0  0  0
 14 13  1  0  0  0  0
 15 16  1  0  0  0  0
 15 14  2  0  0  0  0
 16 11  2  0  0  0  0
 19 15  1  0  0  0  0
 20  2  1  0  0  0  0
 20 22  1  0  0  0  0
 20 21  1  0  0  0  0
 22 21  1  0  0  0  0
M  END
>  <minimizedAffinity>
-4.22703743

$$$$

 OpenBabel03252508423D

 22 24  0  0  0  0  0  0  0  0999 V2000
   37.4440   29.3300   41.2410 C   0  0  0  0  0  0  0  0  0  0  0  0
   38.3720   29.6600   42.1960 C   0  0  0  0  0  0  0  0  0  0  0  0
   38.3690   29.0410   43.4260 C   0  0  0  0  0  0  0  0  0  0  0  0
   37.4150   28.0820   43.6780 C   0  0  0  0  0  0  0  0  0  0  0  0
   36.4440   27.6990   42.7550 C   0  0  0  0  0  0  0  0  0  0  0  0
   36.5130   28.3730   41.5320 C   0  0  0  0  0  0  0  0  0  0  0  0
   39.0640   29.2530   44.2110 H   0  0  0  0  0  0  0  0  0  0  0  0
   37.3570   27.5570   44.6260 H   0  0  0  0  0  0  0  0  0  0  0  0
   35.6960   26.9450   42.9610 H   0  0  0  0  0  0  0  0  0  0  0  0
   35.7790   28.1220   40.7560 H   0  0  0  0  0  0  0  0  0  0  0  0
   37.9940   30.2490   37.6290 C   0  0  0  0  0  0  0  0  0  0  0  0
   37.9950   29.4520   38.8020 C   0  0  0  0  0  0  0  0  0  0  0  0
   37.5060   30.0240   39.9640 C   0  0  0  0  0  0  0  0  0  0  0  0
   37.0530   31.3120   39.9140 N   0  0  0  0  0  0  0  0  0  0  0  0
   37.0650   32.0500   38.7760 C   0  0  0  0  0  0  0  0  0  0  0  0
   37.5410   31.5090   37.6240 N   0  0  0  0  0  0  0  0  0  0  0  0
   38.3830   29.7860   36.7230 H   0  0  0  0  0  0  0  0  0  0  0  0
   38.3530   28.4440   38.8290 H   0  0  0  0  0  0  0  0  0  0  0  0
   36.6740   33.0440   38.9070 H   0  0  0  0  0  0  0  0  0  0  0  0
   39.3960   30.7000   41.9040 C   0  0  0  0  0  3  0  0  0  0  0  0
   40.7900   30.1400   41.5630 C   0  0  0  0  0  2  0  0  0  0  0  0
   40.5500   30.9000   42.8590 C   0  0  0  0  0  2  0  0  0  0  0  0
  1  6  2  0  0  0  0
  1  2  1  0  0  0  0
  2  3  2  0  0  0  0
  3  4  1  0  0  0  0
  3  7  1  0  0  0  0
  4  8  1  0  0  0  0
  5  9  1  0  0  0  0
  5  4  2  0  0  0  0
  6  5  1  0  0  0  0
 10  6  1  0  0  0  0
 11 12  1  0  0  0  0
 12 18  1  0  0  0  0
 12 13  2  0  0  0  0
 13  1  1  0  0  0  0
 14 13  1  0  0  0  0
 15 19  1  0  0  0  0
 15 14  2  0  0  0  0
 16 11  2  0  0  0  0
 16 15  1  0  0  0  0
 17 11  1  0  0  0  0
 20  2  1  0  0  0  0
 20 22  1  0  0  0  0
 21 20  1  0  0  0  0
 21 22  1  0  0  0  0
M  END
>  <minimizedAffinity>
-4.22475147

$$$$
