
 OpenBabel03242513323D

 31 34  0  0  0  0  0  0  0  0999 V2000
   39.3340   31.5860   40.5040 C   0  0  0  0  0  0  0  0  0  0  0  0
   39.1890   32.3570   39.3720 C   0  0  0  0  0  0  0  0  0  0  0  0
   37.9180   32.4760   38.8730 C   0  0  0  0  0  0  0  0  0  0  0  0
   36.8320   31.8580   39.4690 C   0  0  0  0  0  0  0  0  0  0  0  0
   37.0080   31.0960   40.5970 C   0  0  0  0  0  0  0  0  0  0  0  0
   38.2870   30.9450   41.1440 C   0  0  0  0  0  0  0  0  0  0  0  0
   37.7840   33.0760   37.9860 H   0  0  0  0  0  0  0  0  0  0  0  0
   35.8700   32.0140   38.9970 H   0  0  0  0  0  0  0  0  0  0  0  0
   36.1590   30.6120   41.0620 H   0  0  0  0  0  0  0  0  0  0  0  0
   42.1220   33.1420   37.1480 C   0  0  0  0  0  0  0  0  0  0  0  0
   40.9940   32.5060   37.6760 C   0  0  0  0  0  0  0  0  0  0  0  0
   40.3510   32.9770   38.7940 C   0  0  0  0  0  0  0  0  0  0  0  0
   40.9000   34.1020   39.3380 N   0  0  0  0  0  0  0  0  0  0  0  0
   41.9850   34.7230   38.8410 C   0  0  0  0  0  0  0  0  0  0  0  0
   42.5930   34.2410   37.7450 N   0  0  0  0  0  0  0  0  0  0  0  0
   42.6250   32.7670   36.2650 H   0  0  0  0  0  0  0  0  0  0  0  0
   40.6290   31.6240   37.1810 H   0  0  0  0  0  0  0  0  0  0  0  0
   42.2410   35.5970   39.4370 H   0  0  0  0  0  0  0  0  0  0  0  0
   40.5990   31.4340   41.0480 O   0  0  0  0  0  0  0  0  0  0  0  0
   41.3100   30.9390   40.5290 H   0  0  0  0  0  0  0  0  0  0  0  0
   38.5110   30.1940   42.2670 O   0  0  0  0  0  0  0  0  0  0  0  0
   37.9770   28.9840   42.5260 C   0  0  0  0  0  0  0  0  0  0  0  0
   37.2850   28.5080   43.6210 C   0  0  0  0  0  0  0  0  0  0  0  0
   36.8480   27.2250   43.6320 C   0  0  0  0  0  0  0  0  0  0  0  0
   37.1390   26.4380   42.4880 C   0  0  0  0  0  0  0  0  0  0  0  0
   38.0490   27.5830   41.4070 S   0  0  0  0  0  0  0  0  0  0  0  0
   37.1140   29.1870   44.4440 H   0  0  0  0  0  0  0  0  0  0  0  0
   36.3100   26.7470   44.4090 H   0  0  0  0  0  0  0  0  0  0  0  0
   36.8210   25.0590   42.1880 C   0  0  0  0  0  3  0  0  0  0  0  0
   37.1280   24.5580   40.8530 C   0  0  0  0  0  2  0  0  0  0  0  0
   37.9600   24.0490   42.0090 C   0  0  0  0  0  2  0  0  0  0  0  0
  1 19  1  0  0  0  0
  1  6  1  0  0  0  0
  2  1  2  0  0  0  0
  3  2  1  0  0  0  0
  3  4  2  0  0  0  0
  4  5  1  0  0  0  0
  5  9  1  0  0  0  0
  5  6  2  0  0  0  0
  6 21  1  0  0  0  0
  7  3  1  0  0  0  0
  8  4  1  0  0  0  0
 10 11  2  0  0  0  0
 10 15  1  0  0  0  0
 11 12  1  0  0  0  0
 12 13  2  0  0  0  0
 12  2  1  0  0  0  0
 14 13  1  0  0  0  0
 14 18  1  0  0  0  0
 15 14  2  0  0  0  0
 16 10  1  0  0  0  0
 17 11  1  0  0  0  0
 20 19  1  0  0  0  0
 21 22  1  0  0  0  0
 22 23  2  0  0  0  0
 23 24  1  0  0  0  0
 23 27  1  0  0  0  0
 24 28  1  0  0  0  0
 25 24  2  0  0  0  0
 26 25  1  0  0  0  0
 26 22  1  0  0  0  0
 29 25  1  0  0  0  0
 30 31  1  0  0  0  0
 30 29  1  0  0  0  0
 31 29  1  0  0  0  0
M  END
>  <minimizedAffinity>
-5.85885334

$$$$

 OpenBabel03242513323D

 31 34  0  0  0  0  0  0  0  0999 V2000
   39.5170   32.4290   38.9410 C   0  0  0  0  0  0  0  0  0  0  0  0
   40.4180   33.4210   39.2600 C   0  0  0  0  0  0  0  0  0  0  0  0
   39.9180   34.5070   39.9300 C   0  0  0  0  0  0  0  0  0  0  0  0
   38.5800   34.6090   40.2720 C   0  0  0  0  0  0  0  0  0  0  0  0
   37.7060   33.6040   39.9410 C   0  0  0  0  0  0  0  0  0  0  0  0
   38.1710   32.4750   39.2560 C   0  0  0  0  0  0  0  0  0  0  0  0
   40.6080   35.2950   40.1880 H   0  0  0  0  0  0  0  0  0  0  0  0
   38.2850   35.5070   40.8000 H   0  0  0  0  0  0  0  0  0  0  0  0
   36.6610   33.6840   40.2070 H   0  0  0  0  0  0  0  0  0  0  0  0
   43.7890   33.8940   37.6550 C   0  0  0  0  0  0  0  0  0  0  0  0
   42.4460   34.0860   37.9940 C   0  0  0  0  0  0  0  0  0  0  0  0
   41.7970   33.2630   38.8810 C   0  0  0  0  0  0  0  0  0  0  0  0
   42.5630   32.2560   39.3950 N   0  0  0  0  0  0  0  0  0  0  0  0
   43.8560   32.0620   39.0770 C   0  0  0  0  0  0  0  0  0  0  0  0
   44.4660   32.8820   38.2070 N   0  0  0  0  0  0  0  0  0  0  0  0
   44.2960   34.5460   36.9550 H   0  0  0  0  0  0  0  0  0  0  0  0
   41.9180   34.9060   37.5400 H   0  0  0  0  0  0  0  0  0  0  0  0
   44.2620   31.2020   39.6070 H   0  0  0  0  0  0  0  0  0  0  0  0
   39.9730   31.3090   38.2630 O   0  0  0  0  0  0  0  0  0  0  0  0
   40.3180   31.4030   37.3190 H   0  0  0  0  0  0  0  0  0  0  0  0
   37.3350   31.4470   38.9040 O   0  0  0  0  0  0  0  0  0  0  0  0
   36.9090   30.4630   39.7200 C   0  0  0  0  0  0  0  0  0  0  0  0
   35.6770   29.8540   39.8450 C   0  0  0  0  0  0  0  0  0  0  0  0
   35.5070   28.8700   40.7620 C   0  0  0  0  0  0  0  0  0  0  0  0
   36.6350   28.5250   41.5520 C   0  0  0  0  0  0  0  0  0  0  0  0
   37.9340   29.6440   40.9430 S   0  0  0  0  0  0  0  0  0  0  0  0
   34.8800   30.1880   39.1970 H   0  0  0  0  0  0  0  0  0  0  0  0
   34.6160   28.3290   40.9520 H   0  0  0  0  0  0  0  0  0  0  0  0
   36.7860   27.5380   42.5990 C   0  0  0  0  0  3  0  0  0  0  0  0
   38.0770   27.4440   43.2720 C   0  0  0  0  0  2  0  0  0  0  0  0
   36.9080   28.0030   44.0540 C   0  0  0  0  0  2  0  0  0  0  0  0
  1  6  2  0  0  0  0
  1  2  1  0  0  0  0
  2  3  2  0  0  0  0
  3  7  1  0  0  0  0
  3  4  1  0  0  0  0
  4  8  1  0  0  0  0
  5  9  1  0  0  0  0
  5  4  2  0  0  0  0
  6  5  1  0  0  0  0
 10 11  2  0  0  0  0
 10 15  1  0  0  0  0
 11 12  1  0  0  0  0
 12  2  1  0  0  0  0
 12 13  2  0  0  0  0
 14 13  1  0  0  0  0
 14 18  1  0  0  0  0
 15 14  2  0  0  0  0
 16 10  1  0  0  0  0
 17 11  1  0  0  0  0
 19  1  1  0  0  0  0
 20 19  1  0  0  0  0
 21  6  1  0  0  0  0
 21 22  1  0  0  0  0
 22 23  2  0  0  0  0
 22 26  1  0  0  0  0
 23 24  1  0  0  0  0
 24 28  1  0  0  0  0
 24 25  2  0  0  0  0
 25 29  1  0  0  0  0
 26 25  1  0  0  0  0
 27 23  1  0  0  0  0
 29 30  1  0  0  0  0
 29 31  1  0  0  0  0
 30 31  1  0  0  0  0
M  END
>  <minimizedAffinity>
-5.72278118

$$$$

 OpenBabel03242513323D

 31 34  0  0  0  0  0  0  0  0999 V2000
   38.6020   27.0660   42.1250 C   0  0  0  0  0  0  0  0  0  0  0  0
   37.5010   26.2390   42.1640 C   0  0  0  0  0  0  0  0  0  0  0  0
   36.5190   26.5720   43.0600 C   0  0  0  0  0  0  0  0  0  0  0  0
   36.6210   27.6790   43.8860 C   0  0  0  0  0  0  0  0  0  0  0  0
   37.7310   28.4840   43.8240 C   0  0  0  0  0  0  0  0  0  0  0  0
   38.7600   28.1840   42.9240 C   0  0  0  0  0  0  0  0  0  0  0  0
   35.6490   25.9370   43.1060 H   0  0  0  0  0  0  0  0  0  0  0  0
   35.7920   27.8560   44.5590 H   0  0  0  0  0  0  0  0  0  0  0  0
   37.8110   29.3480   44.4700 H   0  0  0  0  0  0  0  0  0  0  0  0
   36.5620   23.8750   39.3910 C   0  0  0  0  0  0  0  0  0  0  0  0
   36.5800   24.9990   40.2230 C   0  0  0  0  0  0  0  0  0  0  0  0
   37.4470   25.1030   41.2830 C   0  0  0  0  0  0  0  0  0  0  0  0
   38.2750   24.0310   41.4530 N   0  0  0  0  0  0  0  0  0  0  0  0
   38.2670   22.9450   40.6610 C   0  0  0  0  0  0  0  0  0  0  0  0
   37.4100   22.8690   39.6300 N   0  0  0  0  0  0  0  0  0  0  0  0
   35.8770   23.7970   38.5560 H   0  0  0  0  0  0  0  0  0  0  0  0
   35.8910   25.7980   40.0140 H   0  0  0  0  0  0  0  0  0  0  0  0
   39.0120   22.2200   40.9850 H   0  0  0  0  0  0  0  0  0  0  0  0
   39.6230   26.7710   41.2350 O   0  0  0  0  0  0  0  0  0  0  0  0
   40.1660   25.9290   41.3580 H   0  0  0  0  0  0  0  0  0  0  0  0
   39.8860   28.9580   42.8280 O   0  0  0  0  0  0  0  0  0  0  0  0
   39.9920   30.1160   42.1460 C   0  0  0  0  0  0  0  0  0  0  0  0
   41.0290   31.0200   42.0420 C   0  0  0  0  0  0  0  0  0  0  0  0
   40.8760   32.1280   41.2760 C   0  0  0  0  0  0  0  0  0  0  0  0
   39.6290   32.2880   40.6190 C   0  0  0  0  0  0  0  0  0  0  0  0
   38.6920   30.8140   41.1260 S   0  0  0  0  0  0  0  0  0  0  0  0
   41.9400   30.8080   42.5820 H   0  0  0  0  0  0  0  0  0  0  0  0
   41.5940   32.8910   41.1170 H   0  0  0  0  0  0  0  0  0  0  0  0
   39.1520   33.3380   39.7450 C   0  0  0  0  0  3  0  0  0  0  0  0
   37.7280   33.6510   39.7620 C   0  0  0  0  0  2  0  0  0  0  0  0
   38.6830   34.6640   40.3550 C   0  0  0  0  0  2  0  0  0  0  0  0
  1  2  2  0  0  0  0
  1  6  1  0  0  0  0
  2  3  1  0  0  0  0
  3  7  1  0  0  0  0
  3  4  2  0  0  0  0
  4  8  1  0  0  0  0
  5  4  1  0  0  0  0
  5  9  1  0  0  0  0
  6  5  2  0  0  0  0
 10 15  2  0  0  0  0
 10 11  1  0  0  0  0
 11 12  2  0  0  0  0
 12 13  1  0  0  0  0
 12  2  1  0  0  0  0
 14 18  1  0  0  0  0
 14 13  2  0  0  0  0
 15 14  1  0  0  0  0
 16 10  1  0  0  0  0
 17 11  1  0  0  0  0
 19 20  1  0  0  0  0
 19  1  1  0  0  0  0
 21  6  1  0  0  0  0
 22 21  1  0  0  0  0
 23 22  2  0  0  0  0
 23 27  1  0  0  0  0
 24 23  1  0  0  0  0
 25 26  1  0  0  0  0
 25 24  2  0  0  0  0
 26 22  1  0  0  0  0
 28 24  1  0  0  0  0
 29 30  1  0  0  0  0
 29 31  1  0  0  0  0
 29 25  1  0  0  0  0
 30 31  1  0  0  0  0
M  END
>  <minimizedAffinity>
-5.42637444

$$$$

 OpenBabel03242513323D

 31 34  0  0  0  0  0  0  0  0999 V2000
   38.2610   30.2390   41.2590 C   0  0  0  0  0  0  0  0  0  0  0  0
   37.8320   31.2990   40.4920 C   0  0  0  0  0  0  0  0  0  0  0  0
   36.5480   31.2300   40.0180 C   0  0  0  0  0  0  0  0  0  0  0  0
   35.7200   30.1540   40.2900 C   0  0  0  0  0  0  0  0  0  0  0  0
   36.1760   29.1110   41.0570 C   0  0  0  0  0  0  0  0  0  0  0  0
   37.4810   29.1380   41.5640 C   0  0  0  0  0  0  0  0  0  0  0  0
   36.1930   32.0510   39.4150 H   0  0  0  0  0  0  0  0  0  0  0  0
   34.7230   30.1940   39.8690 H   0  0  0  0  0  0  0  0  0  0  0  0
   35.5300   28.2710   41.2690 H   0  0  0  0  0  0  0  0  0  0  0  0
   39.3860   34.7230   40.3400 C   0  0  0  0  0  0  0  0  0  0  0  0
   38.4800   33.6920   40.6040 C   0  0  0  0  0  0  0  0  0  0  0  0
   38.7340   32.3920   40.2410 C   0  0  0  0  0  0  0  0  0  0  0  0
   39.9280   32.1970   39.6100 N   0  0  0  0  0  0  0  0  0  0  0  0
   40.8080   33.1800   39.3500 C   0  0  0  0  0  0  0  0  0  0  0  0
   40.5350   34.4430   39.7160 N   0  0  0  0  0  0  0  0  0  0  0  0
   39.1810   35.7470   40.6280 H   0  0  0  0  0  0  0  0  0  0  0  0
   37.5610   33.9380   41.1070 H   0  0  0  0  0  0  0  0  0  0  0  0
   41.6880   32.7910   38.8400 H   0  0  0  0  0  0  0  0  0  0  0  0
   39.5520   30.2620   41.7620 O   0  0  0  0  0  0  0  0  0  0  0  0
   40.3370   30.2180   41.1280 H   0  0  0  0  0  0  0  0  0  0  0  0
   37.9790   28.1200   42.3340 O   0  0  0  0  0  0  0  0  0  0  0  0
   37.8730   26.8030   42.0650 C   0  0  0  0  0  0  0  0  0  0  0  0
   36.9860   25.8500   42.5220 C   0  0  0  0  0  0  0  0  0  0  0  0
   37.0980   24.5700   42.0890 C   0  0  0  0  0  0  0  0  0  0  0  0
   38.1450   24.2910   41.1730 C   0  0  0  0  0  0  0  0  0  0  0  0
   38.9560   25.9040   40.9540 S   0  0  0  0  0  0  0  0  0  0  0  0
   36.2220   26.1620   43.2190 H   0  0  0  0  0  0  0  0  0  0  0  0
   36.4820   23.7530   42.3640 H   0  0  0  0  0  0  0  0  0  0  0  0
   38.5310   23.0520   40.5310 C   0  0  0  0  0  3  0  0  0  0  0  0
   37.4750   22.1970   40.0010 C   0  0  0  0  0  2  0  0  0  0  0  0
   38.3700   22.9140   39.0130 C   0  0  0  0  0  2  0  0  0  0  0  0
  1  6  1  0  0  0  0
  1 19  1  0  0  0  0
  2  1  2  0  0  0  0
  3  4  2  0  0  0  0
  3  2  1  0  0  0  0
  4  5  1  0  0  0  0
  5  9  1  0  0  0  0
  5  6  2  0  0  0  0
  6 21  1  0  0  0  0
  7  3  1  0  0  0  0
  8  4  1  0  0  0  0
 10 11  1  0  0  0  0
 10 16  1  0  0  0  0
 11 17  1  0  0  0  0
 12  2  1  0  0  0  0
 12 11  2  0  0  0  0
 13 12  1  0  0  0  0
 14 13  2  0  0  0  0
 14 15  1  0  0  0  0
 15 10  2  0  0  0  0
 18 14  1  0  0  0  0
 20 19  1  0  0  0  0
 22 21  1  0  0  0  0
 22 23  2  0  0  0  0
 23 27  1  0  0  0  0
 24 28  1  0  0  0  0
 24 23  1  0  0  0  0
 25 24  2  0  0  0  0
 26 25  1  0  0  0  0
 26 22  1  0  0  0  0
 29 25  1  0  0  0  0
 30 29  1  0  0  0  0
 31 30  1  0  0  0  0
 31 29  1  0  0  0  0
M  END
>  <minimizedAffinity>
-5.36558771

$$$$

 OpenBabel03242513323D

 31 34  0  0  0  0  0  0  0  0999 V2000
   38.1850   28.8940   41.5030 C   0  0  0  0  0  0  0  0  0  0  0  0
   37.2880   27.9250   41.1080 C   0  0  0  0  0  0  0  0  0  0  0  0
   36.0610   28.3650   40.6870 C   0  0  0  0  0  0  0  0  0  0  0  0
   35.7300   29.7100   40.6580 C   0  0  0  0  0  0  0  0  0  0  0  0
   36.6450   30.6510   41.0580 C   0  0  0  0  0  0  0  0  0  0  0  0
   37.9120   30.2510   41.4950 C   0  0  0  0  0  0  0  0  0  0  0  0
   35.3440   27.6210   40.3740 H   0  0  0  0  0  0  0  0  0  0  0  0
   34.7340   29.9530   40.3090 H   0  0  0  0  0  0  0  0  0  0  0  0
   36.3860   31.7010   41.0350 H   0  0  0  0  0  0  0  0  0  0  0  0
   37.5410   24.2820   42.0170 C   0  0  0  0  0  0  0  0  0  0  0  0
   37.1240   25.6170   42.0030 C   0  0  0  0  0  0  0  0  0  0  0  0
   37.6840   26.5430   41.1580 C   0  0  0  0  0  0  0  0  0  0  0  0
   38.6680   26.0570   40.3460 N   0  0  0  0  0  0  0  0  0  0  0  0
   39.0780   24.7750   40.3500 C   0  0  0  0  0  0  0  0  0  0  0  0
   38.5130   23.8900   41.1870 N   0  0  0  0  0  0  0  0  0  0  0  0
   37.0960   23.5550   42.6860 H   0  0  0  0  0  0  0  0  0  0  0  0
   36.3410   25.9130   42.6780 H   0  0  0  0  0  0  0  0  0  0  0  0
   39.8710   24.6170   39.6220 H   0  0  0  0  0  0  0  0  0  0  0  0
   39.4410   28.5010   41.9370 O   0  0  0  0  0  0  0  0  0  0  0  0
   39.5300   27.9650   42.7880 H   0  0  0  0  0  0  0  0  0  0  0  0
   38.8560   31.1550   41.9040 O   0  0  0  0  0  0  0  0  0  0  0  0
   39.3380   32.1780   41.1710 C   0  0  0  0  0  0  0  0  0  0  0  0
   38.7450   33.3440   40.7330 C   0  0  0  0  0  0  0  0  0  0  0  0
   39.4630   34.2250   39.9950 C   0  0  0  0  0  0  0  0  0  0  0  0
   40.8110   33.8790   39.7150 C   0  0  0  0  0  0  0  0  0  0  0  0
   41.0130   32.2690   40.5350 S   0  0  0  0  0  0  0  0  0  0  0  0
   37.7120   33.5160   40.9990 H   0  0  0  0  0  0  0  0  0  0  0  0
   39.1230   35.1490   39.6040 H   0  0  0  0  0  0  0  0  0  0  0  0
   41.8290   34.5860   38.9680 C   0  0  0  0  0  3  0  0  0  0  0  0
   43.1250   33.9400   38.7930 C   0  0  0  0  0  2  0  0  0  0  0  0
   42.2310   34.0740   37.5800 C   0  0  0  0  0  2  0  0  0  0  0  0
  1 19  1  0  0  0  0
  2 12  1  0  0  0  0
  2  1  2  0  0  0  0
  3  2  1  0  0  0  0
  4  3  2  0  0  0  0
  4  5  1  0  0  0  0
  5  6  2  0  0  0  0
  6  1  1  0  0  0  0
  6 21  1  0  0  0  0
  7  3  1  0  0  0  0
  8  4  1  0  0  0  0
  9  5  1  0  0  0  0
 10 16  1  0  0  0  0
 11 10  1  0  0  0  0
 11 17  1  0  0  0  0
 12 11  2  0  0  0  0
 13 14  2  0  0  0  0
 13 12  1  0  0  0  0
 14 15  1  0  0  0  0
 15 10  2  0  0  0  0
 18 14  1  0  0  0  0
 19 20  1  0  0  0  0
 22 21  1  0  0  0  0
 23 27  1  0  0  0  0
 23 22  2  0  0  0  0
 24 23  1  0  0  0  0
 25 24  2  0  0  0  0
 25 26  1  0  0  0  0
 26 22  1  0  0  0  0
 28 24  1  0  0  0  0
 29 25  1  0  0  0  0
 30 29  1  0  0  0  0
 31 30  1  0  0  0  0
 31 29  1  0  0  0  0
M  END
>  <minimizedAffinity>
-5.36389303

$$$$

 OpenBabel03242513323D

 31 34  0  0  0  0  0  0  0  0999 V2000
   37.6900   26.4340   41.7460 C   0  0  0  0  0  0  0  0  0  0  0  0
   38.5170   25.3320   41.7420 C   0  0  0  0  0  0  0  0  0  0  0  0
   39.4610   25.2730   42.7330 C   0  0  0  0  0  0  0  0  0  0  0  0
   39.5850   26.2650   43.6920 C   0  0  0  0  0  0  0  0  0  0  0  0
   38.7470   27.3510   43.6690 C   0  0  0  0  0  0  0  0  0  0  0  0
   37.7660   27.4550   42.6770 C   0  0  0  0  0  0  0  0  0  0  0  0
   40.1180   24.4180   42.7460 H   0  0  0  0  0  0  0  0  0  0  0  0
   40.3630   26.1250   44.4310 H   0  0  0  0  0  0  0  0  0  0  0  0
   38.8440   28.1260   44.4180 H   0  0  0  0  0  0  0  0  0  0  0  0
   37.7160   22.1240   39.9440 C   0  0  0  0  0  0  0  0  0  0  0  0
   37.8680   23.0650   40.9670 C   0  0  0  0  0  0  0  0  0  0  0  0
   38.3430   24.3300   40.7230 C   0  0  0  0  0  0  0  0  0  0  0  0
   38.6500   24.5850   39.4170 N   0  0  0  0  0  0  0  0  0  0  0  0
   38.5080   23.6880   38.4250 C   0  0  0  0  0  0  0  0  0  0  0  0
   38.0410   22.4580   38.6910 N   0  0  0  0  0  0  0  0  0  0  0  0
   37.3400   21.1270   40.1420 H   0  0  0  0  0  0  0  0  0  0  0  0
   37.6010   22.7780   41.9680 H   0  0  0  0  0  0  0  0  0  0  0  0
   38.8140   24.1120   37.4700 H   0  0  0  0  0  0  0  0  0  0  0  0
   36.7180   26.5390   40.7640 O   0  0  0  0  0  0  0  0  0  0  0  0
   36.9930   26.6560   39.7990 H   0  0  0  0  0  0  0  0  0  0  0  0
   36.9080   28.5210   42.6150 O   0  0  0  0  0  0  0  0  0  0  0  0
   37.0560   29.6090   41.8330 C   0  0  0  0  0  0  0  0  0  0  0  0
   36.1520   30.3000   41.0530 C   0  0  0  0  0  0  0  0  0  0  0  0
   36.5650   31.3830   40.3500 C   0  0  0  0  0  0  0  0  0  0  0  0
   37.9340   31.7400   40.4650 C   0  0  0  0  0  0  0  0  0  0  0  0
   38.6020   30.4890   41.6030 S   0  0  0  0  0  0  0  0  0  0  0  0
   35.1310   29.9480   41.0310 H   0  0  0  0  0  0  0  0  0  0  0  0
   35.9700   31.9920   39.7200 H   0  0  0  0  0  0  0  0  0  0  0  0
   38.6800   32.8210   39.8570 C   0  0  0  0  0  3  0  0  0  0  0  0
   38.0970   34.1570   39.8850 C   0  0  0  0  0  2  0  0  0  0  0  0
   39.3080   33.8940   40.7540 C   0  0  0  0  0  2  0  0  0  0  0  0
  1  6  1  0  0  0  0
  2  1  2  0  0  0  0
  2  3  1  0  0  0  0
  3  7  1  0  0  0  0
  3  4  2  0  0  0  0
  4  8  1  0  0  0  0
  5  4  1  0  0  0  0
  5  9  1  0  0  0  0
  6  5  2  0  0  0  0
 10 16  1  0  0  0  0
 10 11  1  0  0  0  0
 11 17  1  0  0  0  0
 12 11  2  0  0  0  0
 12  2  1  0  0  0  0
 13 12  1  0  0  0  0
 14 15  1  0  0  0  0
 14 13  2  0  0  0  0
 15 10  2  0  0  0  0
 18 14  1  0  0  0  0
 19  1  1  0  0  0  0
 20 19  1  0  0  0  0
 21  6  1  0  0  0  0
 22 21  1  0  0  0  0
 23 22  2  0  0  0  0
 24 25  2  0  0  0  0
 24 23  1  0  0  0  0
 25 26  1  0  0  0  0
 26 22  1  0  0  0  0
 27 23  1  0  0  0  0
 28 24  1  0  0  0  0
 29 30  1  0  0  0  0
 29 25  1  0  0  0  0
 29 31  1  0  0  0  0
 30 31  1  0  0  0  0
M  END
>  <minimizedAffinity>
-5.31109238

$$$$

 OpenBabel03242513323D

 31 34  0  0  0  0  0  0  0  0999 V2000
   36.5030   30.0070   39.5060 C   0  0  0  0  0  0  0  0  0  0  0  0
   36.6520   30.4870   38.2230 C   0  0  0  0  0  0  0  0  0  0  0  0
   37.1590   31.7540   38.1010 C   0  0  0  0  0  0  0  0  0  0  0  0
   37.5040   32.5190   39.2030 C   0  0  0  0  0  0  0  0  0  0  0  0
   37.3430   32.0130   40.4680 C   0  0  0  0  0  0  0  0  0  0  0  0
   36.8290   30.7230   40.6430 C   0  0  0  0  0  0  0  0  0  0  0  0
   37.2830   32.1480   37.1040 H   0  0  0  0  0  0  0  0  0  0  0  0
   37.8950   33.5080   38.9990 H   0  0  0  0  0  0  0  0  0  0  0  0
   37.6110   32.6110   41.3290 H   0  0  0  0  0  0  0  0  0  0  0  0
   36.7400   28.4440   35.0640 C   0  0  0  0  0  0  0  0  0  0  0  0
   37.1470   29.2600   36.1240 C   0  0  0  0  0  0  0  0  0  0  0  0
   36.2790   29.6490   37.1140 C   0  0  0  0  0  0  0  0  0  0  0  0
   35.0050   29.1800   36.9760 N   0  0  0  0  0  0  0  0  0  0  0  0
   34.6010   28.3950   35.9610 C   0  0  0  0  0  0  0  0  0  0  0  0
   35.4710   28.0280   35.0060 N   0  0  0  0  0  0  0  0  0  0  0  0
   37.4290   28.1390   34.2850 H   0  0  0  0  0  0  0  0  0  0  0  0
   38.1720   29.5830   36.1530 H   0  0  0  0  0  0  0  0  0  0  0  0
   33.5460   28.1450   36.0580 H   0  0  0  0  0  0  0  0  0  0  0  0
   35.9940   28.7300   39.6820 O   0  0  0  0  0  0  0  0  0  0  0  0
   35.0410   28.5300   39.4160 H   0  0  0  0  0  0  0  0  0  0  0  0
   36.6510   30.1780   41.8870 O   0  0  0  0  0  0  0  0  0  0  0  0
   37.4460   29.2560   42.4660 C   0  0  0  0  0  0  0  0  0  0  0  0
   37.1480   28.1360   43.2140 C   0  0  0  0  0  0  0  0  0  0  0  0
   38.1530   27.3610   43.6900 C   0  0  0  0  0  0  0  0  0  0  0  0
   39.4770   27.7650   43.3790 C   0  0  0  0  0  0  0  0  0  0  0  0
   39.2380   29.2740   42.3930 S   0  0  0  0  0  0  0  0  0  0  0  0
   36.1070   27.9130   43.3960 H   0  0  0  0  0  0  0  0  0  0  0  0
   38.0520   26.4820   44.2720 H   0  0  0  0  0  0  0  0  0  0  0  0
   40.7500   27.1700   43.7270 C   0  0  0  0  0  3  0  0  0  0  0  0
   40.8410   25.7150   43.7610 C   0  0  0  0  0  2  0  0  0  0  0  0
   41.5580   26.4440   42.6460 C   0  0  0  0  0  2  0  0  0  0  0  0
  1 19  1  0  0  0  0
  1  6  1  0  0  0  0
  2  1  2  0  0  0  0
  3  2  1  0  0  0  0
  3  4  2  0  0  0  0
  4  5  1  0  0  0  0
  5  6  2  0  0  0  0
  5  9  1  0  0  0  0
  6 21  1  0  0  0  0
  7  3  1  0  0  0  0
  8  4  1  0  0  0  0
 10 11  1  0  0  0  0
 11 17  1  0  0  0  0
 11 12  2  0  0  0  0
 12  2  1  0  0  0  0
 13 12  1  0  0  0  0
 14 18  1  0  0  0  0
 14 13  2  0  0  0  0
 15 10  2  0  0  0  0
 15 14  1  0  0  0  0
 16 10  1  0  0  0  0
 20 19  1  0  0  0  0
 21 22  1  0  0  0  0
 22 23  2  0  0  0  0
 23 27  1  0  0  0  0
 23 24  1  0  0  0  0
 24 28  1  0  0  0  0
 25 24  2  0  0  0  0
 25 29  1  0  0  0  0
 26 22  1  0  0  0  0
 26 25  1  0  0  0  0
 29 30  1  0  0  0  0
 31 29  1  0  0  0  0
 31 30  1  0  0  0  0
M  END
>  <minimizedAffinity>
-5.27485323

$$$$

 OpenBabel03242513323D

 31 34  0  0  0  0  0  0  0  0999 V2000
   38.4000   27.4450   41.6630 C   0  0  0  0  0  0  0  0  0  0  0  0
   37.3810   26.5680   41.9630 C   0  0  0  0  0  0  0  0  0  0  0  0
   36.6630   26.8340   43.0990 C   0  0  0  0  0  0  0  0  0  0  0  0
   36.9400   27.9230   43.9080 C   0  0  0  0  0  0  0  0  0  0  0  0
   37.9620   28.7790   43.5830 C   0  0  0  0  0  0  0  0  0  0  0  0
   38.7230   28.5490   42.4320 C   0  0  0  0  0  0  0  0  0  0  0  0
   35.8600   26.1580   43.3520 H   0  0  0  0  0  0  0  0  0  0  0  0
   36.3140   28.0440   44.7840 H   0  0  0  0  0  0  0  0  0  0  0  0
   38.1780   29.6290   44.2150 H   0  0  0  0  0  0  0  0  0  0  0  0
   37.2370   23.1070   40.4940 C   0  0  0  0  0  0  0  0  0  0  0  0
   37.4960   24.1600   41.3760 C   0  0  0  0  0  0  0  0  0  0  0  0
   37.1360   25.4530   41.0870 C   0  0  0  0  0  0  0  0  0  0  0  0
   36.5150   25.6200   39.8830 N   0  0  0  0  0  0  0  0  0  0  0  0
   36.2610   24.6150   39.0260 C   0  0  0  0  0  0  0  0  0  0  0  0
   36.6230   23.3590   39.3340 N   0  0  0  0  0  0  0  0  0  0  0  0
   37.5230   22.0880   40.7270 H   0  0  0  0  0  0  0  0  0  0  0  0
   37.9910   23.9370   42.3050 H   0  0  0  0  0  0  0  0  0  0  0  0
   35.7590   24.9820   38.1320 H   0  0  0  0  0  0  0  0  0  0  0  0
   39.1570   27.2200   40.5240 O   0  0  0  0  0  0  0  0  0  0  0  0
   39.7440   26.4010   40.4670 H   0  0  0  0  0  0  0  0  0  0  0  0
   39.7530   29.3760   42.0680 O   0  0  0  0  0  0  0  0  0  0  0  0
   39.6260   30.6100   41.5410 C   0  0  0  0  0  0  0  0  0  0  0  0
   38.5380   31.2590   40.9930 C   0  0  0  0  0  0  0  0  0  0  0  0
   38.6780   32.5230   40.5240 C   0  0  0  0  0  0  0  0  0  0  0  0
   39.9670   33.1080   40.6310 C   0  0  0  0  0  0  0  0  0  0  0  0
   40.9600   31.8030   41.4170 S   0  0  0  0  0  0  0  0  0  0  0  0
   37.5980   30.7270   40.9570 H   0  0  0  0  0  0  0  0  0  0  0  0
   37.9230   33.1220   40.0850 H   0  0  0  0  0  0  0  0  0  0  0  0
   40.4430   34.4160   40.2340 C   0  0  0  0  0  3  0  0  0  0  0  0
   41.8560   34.7200   40.4310 C   0  0  0  0  0  2  0  0  0  0  0  0
   41.3610   34.5390   39.0120 C   0  0  0  0  0  2  0  0  0  0  0  0
  1  2  2  0  0  0  0
  1  6  1  0  0  0  0
  2  3  1  0  0  0  0
  3  7  1  0  0  0  0
  3  4  2  0  0  0  0
  4  8  1  0  0  0  0
  5  4  1  0  0  0  0
  5  9  1  0  0  0  0
  6  5  2  0  0  0  0
 10 16  1  0  0  0  0
 10 11  1  0  0  0  0
 11 17  1  0  0  0  0
 12 11  2  0  0  0  0
 12  2  1  0  0  0  0
 13 12  1  0  0  0  0
 14 15  1  0  0  0  0
 14 13  2  0  0  0  0
 15 10  2  0  0  0  0
 18 14  1  0  0  0  0
 19  1  1  0  0  0  0
 20 19  1  0  0  0  0
 21  6  1  0  0  0  0
 22 21  1  0  0  0  0
 23 22  2  0  0  0  0
 24 25  2  0  0  0  0
 24 23  1  0  0  0  0
 25 26  1  0  0  0  0
 26 22  1  0  0  0  0
 27 23  1  0  0  0  0
 28 24  1  0  0  0  0
 29 30  1  0  0  0  0
 29 25  1  0  0  0  0
 31 29  1  0  0  0  0
 31 30  1  0  0  0  0
M  END
>  <minimizedAffinity>
-5.26135302

$$$$

 OpenBabel03242513323D

 31 34  0  0  0  0  0  0  0  0999 V2000
   37.4910   27.8800   40.7180 C   0  0  0  0  0  0  0  0  0  0  0  0
   37.5700   26.8860   41.6690 C   0  0  0  0  0  0  0  0  0  0  0  0
   37.6310   27.2950   42.9760 C   0  0  0  0  0  0  0  0  0  0  0  0
   37.6160   28.6330   43.3300 C   0  0  0  0  0  0  0  0  0  0  0  0
   37.5360   29.6010   42.3600 C   0  0  0  0  0  0  0  0  0  0  0  0
   37.4710   29.2320   41.0110 C   0  0  0  0  0  0  0  0  0  0  0  0
   37.6940   26.5310   43.7350 H   0  0  0  0  0  0  0  0  0  0  0  0
   37.6690   28.8520   44.3890 H   0  0  0  0  0  0  0  0  0  0  0  0
   37.5250   30.6460   42.6370 H   0  0  0  0  0  0  0  0  0  0  0  0
   38.6010   23.3240   41.0290 C   0  0  0  0  0  0  0  0  0  0  0  0
   38.6330   24.6540   41.4580 C   0  0  0  0  0  0  0  0  0  0  0  0
   37.5820   25.5110   41.2450 C   0  0  0  0  0  0  0  0  0  0  0  0
   36.5190   24.9610   40.5880 N   0  0  0  0  0  0  0  0  0  0  0  0
   36.4760   23.6840   40.1690 C   0  0  0  0  0  0  0  0  0  0  0  0
   37.5180   22.8670   40.3910 N   0  0  0  0  0  0  0  0  0  0  0  0
   39.4330   22.6510   41.1990 H   0  0  0  0  0  0  0  0  0  0  0  0
   39.5130   25.0020   41.9700 H   0  0  0  0  0  0  0  0  0  0  0  0
   35.5320   23.4690   39.6700 H   0  0  0  0  0  0  0  0  0  0  0  0
   37.4270   27.5180   39.3820 O   0  0  0  0  0  0  0  0  0  0  0  0
   38.2170   27.0630   38.9490 H   0  0  0  0  0  0  0  0  0  0  0  0
   37.3920   30.1620   40.0090 O   0  0  0  0  0  0  0  0  0  0  0  0
   37.9100   31.4060   40.0450 C   0  0  0  0  0  0  0  0  0  0  0  0
   37.3080   32.6460   39.9780 C   0  0  0  0  0  0  0  0  0  0  0  0
   38.0710   33.7650   40.0370 C   0  0  0  0  0  0  0  0  0  0  0  0
   39.4730   33.5800   40.1640 C   0  0  0  0  0  0  0  0  0  0  0  0
   39.6590   31.7720   40.1990 S   0  0  0  0  0  0  0  0  0  0  0  0
   36.2330   32.6810   39.8810 H   0  0  0  0  0  0  0  0  0  0  0  0
   37.7300   34.7660   39.9970 H   0  0  0  0  0  0  0  0  0  0  0  0
   40.5460   34.5470   40.2520 C   0  0  0  0  0  3  0  0  0  0  0  0
   41.9130   34.0470   40.3470 C   0  0  0  0  0  2  0  0  0  0  0  0
   41.4940   34.7240   39.0600 C   0  0  0  0  0  2  0  0  0  0  0  0
  1  6  2  0  0  0  0
  1  2  1  0  0  0  0
  2  3  2  0  0  0  0
  3  4  1  0  0  0  0
  3  7  1  0  0  0  0
  4  8  1  0  0  0  0
  5  9  1  0  0  0  0
  5  4  2  0  0  0  0
  6  5  1  0  0  0  0
 10 16  1  0  0  0  0
 10 11  1  0  0  0  0
 11 17  1  0  0  0  0
 12 11  2  0  0  0  0
 12  2  1  0  0  0  0
 13 12  1  0  0  0  0
 14 15  1  0  0  0  0
 14 13  2  0  0  0  0
 15 10  2  0  0  0  0
 18 14  1  0  0  0  0
 19  1  1  0  0  0  0
 20 19  1  0  0  0  0
 21 22  1  0  0  0  0
 21  6  1  0  0  0  0
 22 26  1  0  0  0  0
 23 24  1  0  0  0  0
 23 22  2  0  0  0  0
 24 25  2  0  0  0  0
 25 26  1  0  0  0  0
 25 29  1  0  0  0  0
 27 23  1  0  0  0  0
 28 24  1  0  0  0  0
 29 30  1  0  0  0  0
 31 29  1  0  0  0  0
 31 30  1  0  0  0  0
M  END
>  <minimizedAffinity>
-5.25507355

$$$$
