
 OpenBabel03252508403D

 35 38  0  0  0  0  0  0  0  0999 V2000
   37.9700   28.9500   39.6150 C   0  0  0  0  0  0  0  0  0  0  0  0
   37.6230   30.0860   38.9500 C   0  0  0  0  0  0  0  0  0  0  0  0
   36.4840   30.0470   38.1850 C   0  0  0  0  0  0  0  0  0  0  0  0
   35.6930   28.9320   38.0650 C   0  0  0  0  0  0  0  0  0  0  0  0
   36.0720   27.8050   38.7480 C   0  0  0  0  0  0  0  0  0  0  0  0
   37.2070   27.7920   39.5290 C   0  0  0  0  0  0  0  0  0  0  0  0
   36.2030   30.9460   37.6550 H   0  0  0  0  0  0  0  0  0  0  0  0
   34.7940   28.9540   37.4420 H   0  0  0  0  0  0  0  0  0  0  0  0
   35.4490   26.9120   38.6580 H   0  0  0  0  0  0  0  0  0  0  0  0
   39.1680   33.2670   40.2630 C   0  0  0  0  0  0  0  0  0  0  0  0
   38.2970   32.1560   40.1570 C   0  0  0  0  0  0  0  0  0  0  0  0
   38.4890   31.2440   39.1050 C   0  0  0  0  0  0  0  0  0  0  0  0
   39.5090   31.5110   38.2690 N   0  0  0  0  0  0  0  0  0  0  0  0
   40.3170   32.5650   38.3910 C   0  0  0  0  0  0  0  0  0  0  0  0
   40.1400   33.4440   39.3920 N   0  0  0  0  0  0  0  0  0  0  0  0
   38.9380   34.1590   41.3330 N   0  0  0  0  0  0  0  0  0  0  0  0
   37.4810   31.9360   40.8180 H   0  0  0  0  0  0  0  0  0  0  0  0
   41.1270   32.7460   37.6970 H   0  0  0  0  0  0  0  0  0  0  0  0
   39.4090   33.7320   42.1750 H   0  0  0  0  0  0  0  0  0  0  0  0
   38.3900   34.8920   40.8710 H   0  0  0  0  0  0  0  0  0  0  0  0
   37.5240   26.5460   40.2150 C   0  0  0  0  0  0  0  0  0  0  0  0
   38.1490   25.5930   39.4390 C   0  0  0  0  0  0  0  0  0  0  0  0
   38.5260   24.3390   39.9330 C   0  0  0  0  0  0  0  0  0  0  0  0
   38.2460   24.0690   41.2640 C   0  0  0  0  0  0  0  0  0  0  0  0
   37.6270   25.0060   42.0440 C   0  0  0  0  0  0  0  0  0  0  0  0
   37.2640   26.2400   41.5280 C   0  0  0  0  0  0  0  0  0  0  0  0
   38.4010   25.7270   38.3950 H   0  0  0  0  0  0  0  0  0  0  0  0
   39.0160   23.5940   39.3240 H   0  0  0  0  0  0  0  0  0  0  0  0
   38.5030   23.1190   41.7350 H   0  0  0  0  0  0  0  0  0  0  0  0
   37.3940   24.8380   43.0710 H   0  0  0  0  0  0  0  0  0  0  0  0
   36.5830   27.3400   42.2860 C   0  0  0  0  0  3  0  0  0  0  0  0
   36.1610   27.1840   43.6800 C   0  0  0  0  0  2  0  0  0  0  0  0
   37.4130   27.9730   43.4230 C   0  0  0  0  0  2  0  0  0  0  0  0
   40.1080   28.8600   41.1120 N   0  0  0  0  0  0  0  0  0  0  0  0
   39.1520   28.9040   40.4400 C   0  0  0  0  0  0  0  0  0  0  0  0
  1 35  1  0  0  0  0
  2 12  1  0  0  0  0
  2  1  2  0  0  0  0
  3  2  1  0  0  0  0
  4  3  2  0  0  0  0
  4  5  1  0  0  0  0
  5  6  2  0  0  0  0
  6  1  1  0  0  0  0
  6 21  1  0  0  0  0
  7  3  1  0  0  0  0
  8  4  1  0  0  0  0
  9  5  1  0  0  0  0
 10 16  1  0  0  0  0
 11 10  1  0  0  0  0
 11 17  1  0  0  0  0
 12 11  2  0  0  0  0
 13 14  2  0  0  0  0
 13 12  1  0  0  0  0
 14 15  1  0  0  0  0
 15 10  2  0  0  0  0
 16 19  1  0  0  0  0
 18 14  1  0  0  0  0
 20 16  1  0  0  0  0
 21 26  1  0  0  0  0
 22 23  1  0  0  0  0
 22 21  2  0  0  0  0
 23 24  2  0  0  0  0
 24 29  1  0  0  0  0
 24 25  1  0  0  0  0
 25 30  1  0  0  0  0
 26 25  2  0  0  0  0
 26 31  1  0  0  0  0
 27 22  1  0  0  0  0
 28 23  1  0  0  0  0
 31 33  1  0  0  0  0
 31 32  1  0  0  0  0
 33 32  1  0  0  0  0
 35 34  3  0  0  0  0
M  END
>  <minimizedAffinity>
-5.95918608

$$$$

 OpenBabel03252508403D

 35 38  0  0  0  0  0  0  0  0999 V2000
   37.7680   29.6500   39.4420 C   0  0  0  0  0  0  0  0  0  0  0  0
   37.0130   30.4680   38.6590 C   0  0  0  0  0  0  0  0  0  0  0  0
   36.9360   31.7900   39.0160 C   0  0  0  0  0  0  0  0  0  0  0  0
   37.5760   32.3160   40.1100 C   0  0  0  0  0  0  0  0  0  0  0  0
   38.3280   31.4640   40.8780 C   0  0  0  0  0  0  0  0  0  0  0  0
   38.4380   30.1270   40.5630 C   0  0  0  0  0  0  0  0  0  0  0  0
   36.3380   32.4450   38.3970 H   0  0  0  0  0  0  0  0  0  0  0  0
   37.4820   33.3790   40.3510 H   0  0  0  0  0  0  0  0  0  0  0  0
   38.8420   31.8730   41.7520 H   0  0  0  0  0  0  0  0  0  0  0  0
   36.2850   29.2530   35.1620 C   0  0  0  0  0  0  0  0  0  0  0  0
   36.9720   29.8470   36.2480 C   0  0  0  0  0  0  0  0  0  0  0  0
   36.3520   29.8700   37.5090 C   0  0  0  0  0  0  0  0  0  0  0  0
   35.1300   29.3120   37.5780 N   0  0  0  0  0  0  0  0  0  0  0  0
   34.5030   28.7580   36.5390 C   0  0  0  0  0  0  0  0  0  0  0  0
   35.0870   28.7310   35.3290 N   0  0  0  0  0  0  0  0  0  0  0  0
   36.9440   29.2520   33.9130 N   0  0  0  0  0  0  0  0  0  0  0  0
   37.9470   30.2940   36.2020 H   0  0  0  0  0  0  0  0  0  0  0  0
   33.5190   28.3180   36.6350 H   0  0  0  0  0  0  0  0  0  0  0  0
   37.5980   28.4250   33.9290 H   0  0  0  0  0  0  0  0  0  0  0  0
   36.5250   30.0730   33.4630 H   0  0  0  0  0  0  0  0  0  0  0  0
   39.2600   29.3050   41.4410 C   0  0  0  0  0  0  0  0  0  0  0  0
   40.6030   29.2740   41.1270 C   0  0  0  0  0  0  0  0  0  0  0  0
   41.5370   28.5370   41.8620 C   0  0  0  0  0  0  0  0  0  0  0  0
   41.0670   27.8150   42.9480 C   0  0  0  0  0  0  0  0  0  0  0  0
   39.7380   27.8380   43.2690 C   0  0  0  0  0  0  0  0  0  0  0  0
   38.8340   28.5770   42.5240 C   0  0  0  0  0  0  0  0  0  0  0  0
   41.0460   29.8090   40.2970 H   0  0  0  0  0  0  0  0  0  0  0  0
   42.5890   28.5130   41.6150 H   0  0  0  0  0  0  0  0  0  0  0  0
   41.7220   27.2120   43.5780 H   0  0  0  0  0  0  0  0  0  0  0  0
   39.3360   27.2970   44.0960 H   0  0  0  0  0  0  0  0  0  0  0  0
   37.3600   28.6760   42.7810 C   0  0  0  0  0  3  0  0  0  0  0  0
   36.4030   27.7140   42.2290 C   0  0  0  0  0  2  0  0  0  0  0  0
   36.7690   27.5680   43.6790 C   0  0  0  0  0  2  0  0  0  0  0  0
   38.0120   27.1100   38.8860 N   0  0  0  0  0  0  0  0  0  0  0  0
   37.9030   28.2460   39.1390 C   0  0  0  0  0  0  0  0  0  0  0  0
  1  6  1  0  0  0  0
  2  3  1  0  0  0  0
  2  1  2  0  0  0  0
  3  4  2  0  0  0  0
  4  8  1  0  0  0  0
  4  5  1  0  0  0  0
  5  9  1  0  0  0  0
  6  5  2  0  0  0  0
  6 21  1  0  0  0  0
  7  3  1  0  0  0  0
 10 15  2  0  0  0  0
 10 11  1  0  0  0  0
 11 12  2  0  0  0  0
 12 13  1  0  0  0  0
 12  2  1  0  0  0  0
 14 18  1  0  0  0  0
 14 13  2  0  0  0  0
 15 14  1  0  0  0  0
 16 19  1  0  0  0  0
 16 10  1  0  0  0  0
 17 11  1  0  0  0  0
 20 16  1  0  0  0  0
 21 26  1  0  0  0  0
 22 21  2  0  0  0  0
 22 23  1  0  0  0  0
 23 24  2  0  0  0  0
 24 25  1  0  0  0  0
 24 29  1  0  0  0  0
 25 30  1  0  0  0  0
 26 31  1  0  0  0  0
 26 25  2  0  0  0  0
 27 22  1  0  0  0  0
 28 23  1  0  0  0  0
 31 33  1  0  0  0  0
 32 31  1  0  0  0  0
 32 33  1  0  0  0  0
 34 35  3  0  0  0  0
 35  1  1  0  0  0  0
M  END
>  <minimizedAffinity>
-5.7975378

$$$$

 OpenBabel03252508403D

 35 38  0  0  0  0  0  0  0  0999 V2000
   38.2780   29.1220   39.5620 C   0  0  0  0  0  0  0  0  0  0  0  0
   37.9350   30.2540   38.8880 C   0  0  0  0  0  0  0  0  0  0  0  0
   36.7530   30.2420   38.1920 C   0  0  0  0  0  0  0  0  0  0  0  0
   35.9140   29.1570   38.1470 C   0  0  0  0  0  0  0  0  0  0  0  0
   36.2890   28.0320   38.8370 C   0  0  0  0  0  0  0  0  0  0  0  0
   37.4670   27.9930   39.5520 C   0  0  0  0  0  0  0  0  0  0  0  0
   36.4760   31.1380   37.6550 H   0  0  0  0  0  0  0  0  0  0  0  0
   34.9810   29.2000   37.5770 H   0  0  0  0  0  0  0  0  0  0  0  0
   35.6280   27.1630   38.8080 H   0  0  0  0  0  0  0  0  0  0  0  0
   40.6850   32.7090   38.0830 C   0  0  0  0  0  0  0  0  0  0  0  0
   39.8160   31.5980   37.9620 C   0  0  0  0  0  0  0  0  0  0  0  0
   38.8530   31.3810   38.9630 C   0  0  0  0  0  0  0  0  0  0  0  0
   38.8380   32.2690   39.9730 N   0  0  0  0  0  0  0  0  0  0  0  0
   39.6670   33.3090   40.0640 C   0  0  0  0  0  0  0  0  0  0  0  0
   40.5930   33.5250   39.1130 N   0  0  0  0  0  0  0  0  0  0  0  0
   41.6380   32.8890   37.0570 N   0  0  0  0  0  0  0  0  0  0  0  0
   39.8210   30.8840   37.1610 H   0  0  0  0  0  0  0  0  0  0  0  0
   39.6240   34.0020   40.8940 H   0  0  0  0  0  0  0  0  0  0  0  0
   41.1340   33.3900   36.2760 H   0  0  0  0  0  0  0  0  0  0  0  0
   42.4680   32.4550   37.4740 H   0  0  0  0  0  0  0  0  0  0  0  0
   37.7750   26.7530   40.2510 C   0  0  0  0  0  0  0  0  0  0  0  0
   38.4370   25.8060   39.4990 C   0  0  0  0  0  0  0  0  0  0  0  0
   38.8120   24.5580   40.0090 C   0  0  0  0  0  0  0  0  0  0  0  0
   38.4910   24.2870   41.3310 C   0  0  0  0  0  0  0  0  0  0  0  0
   37.8350   25.2190   42.0870 C   0  0  0  0  0  0  0  0  0  0  0  0
   37.4760   26.4470   41.5560 C   0  0  0  0  0  0  0  0  0  0  0  0
   38.7220   25.9400   38.4640 H   0  0  0  0  0  0  0  0  0  0  0  0
   39.3310   23.8160   39.4190 H   0  0  0  0  0  0  0  0  0  0  0  0
   38.7430   23.3420   41.8130 H   0  0  0  0  0  0  0  0  0  0  0  0
   37.5710   25.0500   43.1060 H   0  0  0  0  0  0  0  0  0  0  0  0
   36.7570   27.5410   42.2880 C   0  0  0  0  0  3  0  0  0  0  0  0
   36.3240   27.3970   43.6800 C   0  0  0  0  0  2  0  0  0  0  0  0
   37.5570   28.2150   43.4220 C   0  0  0  0  0  2  0  0  0  0  0  0
   40.4990   28.9960   40.9300 N   0  0  0  0  0  0  0  0  0  0  0  0
   39.5030   29.0490   40.3190 C   0  0  0  0  0  0  0  0  0  0  0  0
  1 35  1  0  0  0  0
  2 12  1  0  0  0  0
  2  1  2  0  0  0  0
  3  2  1  0  0  0  0
  4  3  2  0  0  0  0
  4  5  1  0  0  0  0
  5  6  2  0  0  0  0
  6  1  1  0  0  0  0
  6 21  1  0  0  0  0
  7  3  1  0  0  0  0
  8  4  1  0  0  0  0
  9  5  1  0  0  0  0
 10 15  1  0  0  0  0
 11 10  2  0  0  0  0
 11 12  1  0  0  0  0
 12 13  2  0  0  0  0
 13 14  1  0  0  0  0
 14 18  1  0  0  0  0
 15 14  2  0  0  0  0
 16 20  1  0  0  0  0
 16 10  1  0  0  0  0
 17 11  1  0  0  0  0
 19 16  1  0  0  0  0
 21 26  1  0  0  0  0
 22 23  1  0  0  0  0
 22 21  2  0  0  0  0
 23 24  2  0  0  0  0
 24 29  1  0  0  0  0
 24 25  1  0  0  0  0
 25 30  1  0  0  0  0
 26 25  2  0  0  0  0
 26 31  1  0  0  0  0
 27 22  1  0  0  0  0
 28 23  1  0  0  0  0
 31 33  1  0  0  0  0
 31 32  1  0  0  0  0
 33 32  1  0  0  0  0
 35 34  3  0  0  0  0
M  END
>  <minimizedAffinity>
-5.74162102

$$$$

 OpenBabel03252508403D

 35 38  0  0  0  0  0  0  0  0999 V2000
   37.8650   28.9190   40.1600 C   0  0  0  0  0  0  0  0  0  0  0  0
   37.7410   30.2720   40.0680 C   0  0  0  0  0  0  0  0  0  0  0  0
   36.4970   30.8080   40.2840 C   0  0  0  0  0  0  0  0  0  0  0  0
   35.3910   30.0530   40.5840 C   0  0  0  0  0  0  0  0  0  0  0  0
   35.5500   28.6930   40.6690 C   0  0  0  0  0  0  0  0  0  0  0  0
   36.7790   28.1050   40.4600 C   0  0  0  0  0  0  0  0  0  0  0  0
   36.3920   31.8820   40.2140 H   0  0  0  0  0  0  0  0  0  0  0  0
   34.4200   30.5310   40.7480 H   0  0  0  0  0  0  0  0  0  0  0  0
   34.6760   28.0840   40.9070 H   0  0  0  0  0  0  0  0  0  0  0  0
   40.3870   32.1800   38.1740 C   0  0  0  0  0  0  0  0  0  0  0  0
   39.2080   31.4410   38.4310 C   0  0  0  0  0  0  0  0  0  0  0  0
   38.9380   31.0340   39.7490 C   0  0  0  0  0  0  0  0  0  0  0  0
   39.8450   31.3910   40.6760 N   0  0  0  0  0  0  0  0  0  0  0  0
   40.9500   32.0890   40.4090 C   0  0  0  0  0  0  0  0  0  0  0  0
   41.2170   32.4820   39.1510 N   0  0  0  0  0  0  0  0  0  0  0  0
   40.6200   32.5670   36.8360 N   0  0  0  0  0  0  0  0  0  0  0  0
   38.4790   31.1510   37.6980 H   0  0  0  0  0  0  0  0  0  0  0  0
   41.6560   32.3580   41.1830 H   0  0  0  0  0  0  0  0  0  0  0  0
   40.0560   33.4470   36.6850 H   0  0  0  0  0  0  0  0  0  0  0  0
   41.2580   31.8300   36.5200 H   0  0  0  0  0  0  0  0  0  0  0  0
   36.8460   26.6540   40.5720 C   0  0  0  0  0  0  0  0  0  0  0  0
   37.0540   26.1740   41.8480 C   0  0  0  0  0  0  0  0  0  0  0  0
   37.1450   24.8090   42.1390 C   0  0  0  0  0  0  0  0  0  0  0  0
   37.0170   23.9210   41.0820 C   0  0  0  0  0  0  0  0  0  0  0  0
   36.8110   24.3850   39.8120 C   0  0  0  0  0  0  0  0  0  0  0  0
   36.7250   25.7430   39.5520 C   0  0  0  0  0  0  0  0  0  0  0  0
   37.1630   26.8000   42.7230 H   0  0  0  0  0  0  0  0  0  0  0  0
   37.3070   24.4340   43.1390 H   0  0  0  0  0  0  0  0  0  0  0  0
   37.0740   22.8400   41.2140 H   0  0  0  0  0  0  0  0  0  0  0  0
   36.7070   23.7370   38.9710 H   0  0  0  0  0  0  0  0  0  0  0  0
   36.5020   26.3650   38.2050 C   0  0  0  0  0  3  0  0  0  0  0  0
   36.2060   25.5640   37.0140 C   0  0  0  0  0  2  0  0  0  0  0  0
   35.0580   26.2780   37.6680 C   0  0  0  0  0  2  0  0  0  0  0  0
   40.1640   27.7430   39.7710 N   0  0  0  0  0  0  0  0  0  0  0  0
   39.1370   28.2730   39.9460 C   0  0  0  0  0  0  0  0  0  0  0  0
  1  6  1  0  0  0  0
  2  1  2  0  0  0  0
  2  3  1  0  0  0  0
  3  4  2  0  0  0  0
  4  5  1  0  0  0  0
  4  8  1  0  0  0  0
  5  9  1  0  0  0  0
  6 21  1  0  0  0  0
  6  5  2  0  0  0  0
  7  3  1  0  0  0  0
 10 11  2  0  0  0  0
 10 15  1  0  0  0  0
 11 12  1  0  0  0  0
 12  2  1  0  0  0  0
 12 13  2  0  0  0  0
 14 13  1  0  0  0  0
 14 18  1  0  0  0  0
 15 14  2  0  0  0  0
 16 10  1  0  0  0  0
 17 11  1  0  0  0  0
 19 16  1  0  0  0  0
 20 16  1  0  0  0  0
 21 22  1  0  0  0  0
 22 23  2  0  0  0  0
 22 27  1  0  0  0  0
 23 28  1  0  0  0  0
 24 29  1  0  0  0  0
 24 23  1  0  0  0  0
 25 24  2  0  0  0  0
 26 25  1  0  0  0  0
 26 21  2  0  0  0  0
 30 25  1  0  0  0  0
 31 26  1  0  0  0  0
 32 33  1  0  0  0  0
 32 31  1  0  0  0  0
 33 31  1  0  0  0  0
 34 35  3  0  0  0  0
 35  1  1  0  0  0  0
M  END
>  <minimizedAffinity>
-5.62693739

$$$$

 OpenBabel03252508403D

 35 38  0  0  0  0  0  0  0  0999 V2000
   38.4640   27.6940   41.4030 C   0  0  0  0  0  0  0  0  0  0  0  0
   38.9120   27.5300   42.6780 C   0  0  0  0  0  0  0  0  0  0  0  0
   37.9740   27.5040   43.6790 C   0  0  0  0  0  0  0  0  0  0  0  0
   36.6260   27.6320   43.4540 C   0  0  0  0  0  0  0  0  0  0  0  0
   36.2080   27.7950   42.1580 C   0  0  0  0  0  0  0  0  0  0  0  0
   37.1100   27.8290   41.1170 C   0  0  0  0  0  0  0  0  0  0  0  0
   38.3230   27.3740   44.6930 H   0  0  0  0  0  0  0  0  0  0  0  0
   35.9190   27.6030   44.2890 H   0  0  0  0  0  0  0  0  0  0  0  0
   35.1370   27.8980   41.9690 H   0  0  0  0  0  0  0  0  0  0  0  0
   42.3460   26.0630   43.2120 C   0  0  0  0  0  0  0  0  0  0  0  0
   40.9440   26.1350   43.0270 C   0  0  0  0  0  0  0  0  0  0  0  0
   40.3480   27.3980   42.8710 C   0  0  0  0  0  0  0  0  0  0  0  0
   41.1790   28.4550   42.9110 N   0  0  0  0  0  0  0  0  0  0  0  0
   42.4980   28.3610   43.0860 C   0  0  0  0  0  0  0  0  0  0  0  0
   43.0780   27.1580   43.2380 N   0  0  0  0  0  0  0  0  0  0  0  0
   42.9040   24.7750   43.3660 N   0  0  0  0  0  0  0  0  0  0  0  0
   40.2730   25.2980   42.9940 H   0  0  0  0  0  0  0  0  0  0  0  0
   43.1340   29.2350   43.1130 H   0  0  0  0  0  0  0  0  0  0  0  0
   43.0310   24.3930   42.3910 H   0  0  0  0  0  0  0  0  0  0  0  0
   42.9710   24.7050   44.3870 H   0  0  0  0  0  0  0  0  0  0  0  0
   36.5670   28.0070   39.7760 C   0  0  0  0  0  0  0  0  0  0  0  0
   36.3930   29.3170   39.3840 C   0  0  0  0  0  0  0  0  0  0  0  0
   35.8820   29.6720   38.1310 C   0  0  0  0  0  0  0  0  0  0  0  0
   35.5450   28.6430   37.2650 C   0  0  0  0  0  0  0  0  0  0  0  0
   35.7140   27.3400   37.6430 C   0  0  0  0  0  0  0  0  0  0  0  0
   36.2210   27.0160   38.8900 C   0  0  0  0  0  0  0  0  0  0  0  0
   36.6310   30.1740   40.0000 H   0  0  0  0  0  0  0  0  0  0  0  0
   35.7460   30.7000   37.8250 H   0  0  0  0  0  0  0  0  0  0  0  0
   35.1410   28.8250   36.2680 H   0  0  0  0  0  0  0  0  0  0  0  0
   35.4670   26.5200   37.0070 H   0  0  0  0  0  0  0  0  0  0  0  0
   36.4480   25.6280   39.4110 C   0  0  0  0  0  3  0  0  0  0  0  0
   36.1280   24.4360   38.6220 C   0  0  0  0  0  2  0  0  0  0  0  0
   37.5730   24.8360   38.7120 C   0  0  0  0  0  2  0  0  0  0  0  0
   40.1210   27.7650   39.3850 N   0  0  0  0  0  0  0  0  0  0  0  0
   39.3820   27.7340   40.2910 C   0  0  0  0  0  0  0  0  0  0  0  0
  1  2  1  0  0  0  0
  2 12  1  0  0  0  0
  2  3  2  0  0  0  0
  3  7  1  0  0  0  0
  4  3  1  0  0  0  0
  4  8  1  0  0  0  0
  5  4  2  0  0  0  0
  6  1  2  0  0  0  0
  6  5  1  0  0  0  0
  9  5  1  0  0  0  0
 10 15  1  0  0  0  0
 10 16  1  0  0  0  0
 11 10  2  0  0  0  0
 12 13  2  0  0  0  0
 12 11  1  0  0  0  0
 13 14  1  0  0  0  0
 14 18  1  0  0  0  0
 14 15  2  0  0  0  0
 16 20  1  0  0  0  0
 17 11  1  0  0  0  0
 19 16  1  0  0  0  0
 21  6  1  0  0  0  0
 22 21  1  0  0  0  0
 22 27  1  0  0  0  0
 23 22  2  0  0  0  0
 24 25  2  0  0  0  0
 24 23  1  0  0  0  0
 25 26  1  0  0  0  0
 26 31  1  0  0  0  0
 26 21  2  0  0  0  0
 28 23  1  0  0  0  0
 29 24  1  0  0  0  0
 30 25  1  0  0  0  0
 32 33  1  0  0  0  0
 32 31  1  0  0  0  0
 33 31  1  0  0  0  0
 34 35  3  0  0  0  0
 35  1  1  0  0  0  0
M  END
>  <minimizedAffinity>
-5.57864952

$$$$

 OpenBabel03252508403D

 35 38  0  0  0  0  0  0  0  0999 V2000
   38.3850   30.2390   39.7750 C   0  0  0  0  0  0  0  0  0  0  0  0
   38.3340   31.2000   38.8130 C   0  0  0  0  0  0  0  0  0  0  0  0
   37.3080   31.1310   37.9040 C   0  0  0  0  0  0  0  0  0  0  0  0
   36.3470   30.1510   37.9240 C   0  0  0  0  0  0  0  0  0  0  0  0
   36.4280   29.1980   38.9060 C   0  0  0  0  0  0  0  0  0  0  0  0
   37.4390   29.2220   39.8430 C   0  0  0  0  0  0  0  0  0  0  0  0
   37.2620   31.8920   37.1380 H   0  0  0  0  0  0  0  0  0  0  0  0
   35.5490   30.1420   37.1750 H   0  0  0  0  0  0  0  0  0  0  0  0
   35.6680   28.4140   38.9300 H   0  0  0  0  0  0  0  0  0  0  0  0
   41.3460   33.2770   37.8920 C   0  0  0  0  0  0  0  0  0  0  0  0
   40.3590   32.2650   37.8290 C   0  0  0  0  0  0  0  0  0  0  0  0
   39.3720   32.2190   38.8290 C   0  0  0  0  0  0  0  0  0  0  0  0
   39.4510   33.1650   39.7830 N   0  0  0  0  0  0  0  0  0  0  0  0
   40.3920   34.1100   39.8200 C   0  0  0  0  0  0  0  0  0  0  0  0
   41.3410   34.1610   38.8690 N   0  0  0  0  0  0  0  0  0  0  0  0
   42.3190   33.2850   36.8690 N   0  0  0  0  0  0  0  0  0  0  0  0
   40.2870   31.5060   37.0730 H   0  0  0  0  0  0  0  0  0  0  0  0
   40.4230   34.8540   40.6040 H   0  0  0  0  0  0  0  0  0  0  0  0
   41.8790   33.7890   36.0530 H   0  0  0  0  0  0  0  0  0  0  0  0
   43.0920   32.7870   37.3220 H   0  0  0  0  0  0  0  0  0  0  0  0
   37.4380   28.1660   40.8460 C   0  0  0  0  0  0  0  0  0  0  0  0
   36.7160   28.4430   41.9870 C   0  0  0  0  0  0  0  0  0  0  0  0
   36.6070   27.5430   43.0530 C   0  0  0  0  0  0  0  0  0  0  0  0
   37.2630   26.3270   42.9310 C   0  0  0  0  0  0  0  0  0  0  0  0
   37.9820   26.0410   41.8030 C   0  0  0  0  0  0  0  0  0  0  0  0
   38.0730   26.9510   40.7630 C   0  0  0  0  0  0  0  0  0  0  0  0
   36.1780   29.3650   42.1580 H   0  0  0  0  0  0  0  0  0  0  0  0
   36.0400   27.7610   43.9470 H   0  0  0  0  0  0  0  0  0  0  0  0
   37.2340   25.5650   43.7100 H   0  0  0  0  0  0  0  0  0  0  0  0
   38.5000   25.1190   41.6700 H   0  0  0  0  0  0  0  0  0  0  0  0
   38.8300   26.7470   39.4840 C   0  0  0  0  0  3  0  0  0  0  0  0
   39.4390   25.4620   39.1330 C   0  0  0  0  0  2  0  0  0  0  0  0
   38.1500   25.8230   38.4530 C   0  0  0  0  0  2  0  0  0  0  0  0
   40.2790   30.2270   41.5730 N   0  0  0  0  0  0  0  0  0  0  0  0
   39.4310   30.2360   40.7690 C   0  0  0  0  0  0  0  0  0  0  0  0
  1  6  1  0  0  0  0
  1 35  1  0  0  0  0
  2 12  1  0  0  0  0
  2  1  2  0  0  0  0
  3  4  2  0  0  0  0
  3  2  1  0  0  0  0
  4  5  1  0  0  0  0
  5  9  1  0  0  0  0
  5  6  2  0  0  0  0
  6 21  1  0  0  0  0
  7  3  1  0  0  0  0
  8  4  1  0  0  0  0
 10 15  1  0  0  0  0
 11 10  2  0  0  0  0
 11 12  1  0  0  0  0
 12 13  2  0  0  0  0
 13 14  1  0  0  0  0
 14 18  1  0  0  0  0
 15 14  2  0  0  0  0
 16 20  1  0  0  0  0
 16 10  1  0  0  0  0
 17 11  1  0  0  0  0
 19 16  1  0  0  0  0
 21 22  1  0  0  0  0
 22 27  1  0  0  0  0
 22 23  2  0  0  0  0
 23 28  1  0  0  0  0
 24 23  1  0  0  0  0
 24 29  1  0  0  0  0
 25 24  2  0  0  0  0
 26 21  2  0  0  0  0
 26 25  1  0  0  0  0
 30 25  1  0  0  0  0
 31 26  1  0  0  0  0
 32 31  1  0  0  0  0
 33 32  1  0  0  0  0
 33 31  1  0  0  0  0
 35 34  3  0  0  0  0
M  END
>  <minimizedAffinity>
-5.53343248

$$$$

 OpenBabel03252508403D

 35 38  0  0  0  0  0  0  0  0999 V2000
   38.4150   29.0150   40.9470 C   0  0  0  0  0  0  0  0  0  0  0  0
   38.5280   30.3710   40.9530 C   0  0  0  0  0  0  0  0  0  0  0  0
   37.3680   31.1020   40.9500 C   0  0  0  0  0  0  0  0  0  0  0  0
   36.1180   30.5350   40.9420 C   0  0  0  0  0  0  0  0  0  0  0  0
   36.0390   29.1660   40.9350 C   0  0  0  0  0  0  0  0  0  0  0  0
   37.1750   28.3860   40.9380 C   0  0  0  0  0  0  0  0  0  0  0  0
   37.4510   32.1800   40.9560 H   0  0  0  0  0  0  0  0  0  0  0  0
   35.2230   31.1650   40.9410 H   0  0  0  0  0  0  0  0  0  0  0  0
   35.0490   28.7050   40.9280 H   0  0  0  0  0  0  0  0  0  0  0  0
   41.8610   31.6970   42.1230 C   0  0  0  0  0  0  0  0  0  0  0  0
   40.5560   31.1510   42.1700 C   0  0  0  0  0  0  0  0  0  0  0  0
   39.8710   30.9300   40.9630 C   0  0  0  0  0  0  0  0  0  0  0  0
   40.5310   31.2640   39.8380 N   0  0  0  0  0  0  0  0  0  0  0  0
   41.7620   31.7780   39.8200 C   0  0  0  0  0  0  0  0  0  0  0  0
   42.4240   31.9940   40.9690 N   0  0  0  0  0  0  0  0  0  0  0  0
   42.5120   31.9040   43.3590 N   0  0  0  0  0  0  0  0  0  0  0  0
   40.0220   30.8820   43.0610 H   0  0  0  0  0  0  0  0  0  0  0  0
   42.2590   32.0340   38.8940 H   0  0  0  0  0  0  0  0  0  0  0  0
   42.9310   30.9730   43.6270 H   0  0  0  0  0  0  0  0  0  0  0  0
   42.3230   32.8980   43.5230 H   0  0  0  0  0  0  0  0  0  0  0  0
   36.9860   26.9410   40.9300 C   0  0  0  0  0  0  0  0  0  0  0  0
   37.0210   26.3400   42.1700 C   0  0  0  0  0  0  0  0  0  0  0  0
   36.8580   24.9620   42.3500 C   0  0  0  0  0  0  0  0  0  0  0  0
   36.6540   24.1900   41.2150 C   0  0  0  0  0  0  0  0  0  0  0  0
   36.6180   24.7760   39.9800 C   0  0  0  0  0  0  0  0  0  0  0  0
   36.7820   26.1430   39.8310 C   0  0  0  0  0  0  0  0  0  0  0  0
   37.1740   26.8710   43.1000 H   0  0  0  0  0  0  0  0  0  0  0  0
   36.8850   24.4910   43.3220 H   0  0  0  0  0  0  0  0  0  0  0  0
   36.5180   23.1090   41.2590 H   0  0  0  0  0  0  0  0  0  0  0  0
   36.4640   24.2190   39.0830 H   0  0  0  0  0  0  0  0  0  0  0  0
   36.7610   26.8920   38.5320 C   0  0  0  0  0  3  0  0  0  0  0  0
   36.4030   26.2490   37.2650 C   0  0  0  0  0  2  0  0  0  0  0  0
   35.3630   27.1130   37.9180 C   0  0  0  0  0  2  0  0  0  0  0  0
   40.5340   27.4880   40.9570 N   0  0  0  0  0  0  0  0  0  0  0  0
   39.5840   28.1700   40.9480 C   0  0  0  0  0  0  0  0  0  0  0  0
  1 35  1  0  0  0  0
  1  2  1  0  0  0  0
  2 12  1  0  0  0  0
  3  2  2  0  0  0  0
  3  7  1  0  0  0  0
  4  3  1  0  0  0  0
  5  6  1  0  0  0  0
  5  4  2  0  0  0  0
  6  1  2  0  0  0  0
  8  4  1  0  0  0  0
  9  5  1  0  0  0  0
 10 11  1  0  0  0  0
 10 16  1  0  0  0  0
 11 17  1  0  0  0  0
 12 11  2  0  0  0  0
 13 12  1  0  0  0  0
 14 13  2  0  0  0  0
 14 15  1  0  0  0  0
 15 10  2  0  0  0  0
 16 20  1  0  0  0  0
 16 19  1  0  0  0  0
 18 14  1  0  0  0  0
 21  6  1  0  0  0  0
 21 22  1  0  0  0  0
 22 23  2  0  0  0  0
 22 27  1  0  0  0  0
 23 28  1  0  0  0  0
 24 29  1  0  0  0  0
 24 23  1  0  0  0  0
 25 24  2  0  0  0  0
 26 25  1  0  0  0  0
 26 21  2  0  0  0  0
 30 25  1  0  0  0  0
 31 26  1  0  0  0  0
 32 33  1  0  0  0  0
 32 31  1  0  0  0  0
 33 31  1  0  0  0  0
 35 34  3  0  0  0  0
M  END
>  <minimizedAffinity>
-5.53080177

$$$$

 OpenBabel03252508403D

 35 38  0  0  0  0  0  0  0  0999 V2000
   39.1950   30.5860   40.0490 C   0  0  0  0  0  0  0  0  0  0  0  0
   39.5250   31.6980   39.3380 C   0  0  0  0  0  0  0  0  0  0  0  0
   38.5800   32.6870   39.2360 C   0  0  0  0  0  0  0  0  0  0  0  0
   37.3360   32.6050   39.8120 C   0  0  0  0  0  0  0  0  0  0  0  0
   37.0360   31.4710   40.5220 C   0  0  0  0  0  0  0  0  0  0  0  0
   37.9510   30.4490   40.6540 C   0  0  0  0  0  0  0  0  0  0  0  0
   38.8360   33.5730   38.6730 H   0  0  0  0  0  0  0  0  0  0  0  0
   36.6180   33.4240   39.7020 H   0  0  0  0  0  0  0  0  0  0  0  0
   36.0490   31.3960   40.9840 H   0  0  0  0  0  0  0  0  0  0  0  0
   42.4510   31.1170   37.0280 C   0  0  0  0  0  0  0  0  0  0  0  0
   41.1430   31.0390   37.5630 C   0  0  0  0  0  0  0  0  0  0  0  0
   40.8520   31.7440   38.7440 C   0  0  0  0  0  0  0  0  0  0  0  0
   41.8660   32.4500   39.2770 N   0  0  0  0  0  0  0  0  0  0  0  0
   43.0910   32.5080   38.7520 C   0  0  0  0  0  0  0  0  0  0  0  0
   43.3790   31.8360   37.6240 N   0  0  0  0  0  0  0  0  0  0  0  0
   42.6990   30.3930   35.8410 N   0  0  0  0  0  0  0  0  0  0  0  0
   40.3280   30.4790   37.1460 H   0  0  0  0  0  0  0  0  0  0  0  0
   43.8810   33.0870   39.2110 H   0  0  0  0  0  0  0  0  0  0  0  0
   42.3580   31.0020   35.0510 H   0  0  0  0  0  0  0  0  0  0  0  0
   43.1230   29.5360   36.2130 H   0  0  0  0  0  0  0  0  0  0  0  0
   37.5360   29.2860   41.4270 C   0  0  0  0  0  0  0  0  0  0  0  0
   37.7550   29.3780   42.7860 C   0  0  0  0  0  0  0  0  0  0  0  0
   37.4190   28.3550   43.6790 C   0  0  0  0  0  0  0  0  0  0  0  0
   36.8430   27.2100   43.1500 C   0  0  0  0  0  0  0  0  0  0  0  0
   36.6220   27.1070   41.8050 C   0  0  0  0  0  0  0  0  0  0  0  0
   36.9640   28.1350   40.9420 C   0  0  0  0  0  0  0  0  0  0  0  0
   38.1980   30.2350   43.2740 H   0  0  0  0  0  0  0  0  0  0  0  0
   37.5900   28.4280   44.7440 H   0  0  0  0  0  0  0  0  0  0  0  0
   36.5490   26.3620   43.7700 H   0  0  0  0  0  0  0  0  0  0  0  0
   36.1820   26.2440   41.3580 H   0  0  0  0  0  0  0  0  0  0  0  0
   36.7700   28.1330   39.4550 C   0  0  0  0  0  3  0  0  0  0  0  0
   35.9910   27.0990   38.7700 C   0  0  0  0  0  2  0  0  0  0  0  0
   35.3340   28.4330   38.9760 C   0  0  0  0  0  2  0  0  0  0  0  0
   40.8920   28.6210   40.3330 N   0  0  0  0  0  0  0  0  0  0  0  0
   40.1290   29.4980   40.2050 C   0  0  0  0  0  0  0  0  0  0  0  0
  1 35  1  0  0  0  0
  1  6  1  0  0  0  0
  2  1  2  0  0  0  0
  3  2  1  0  0  0  0
  3  4  2  0  0  0  0
  4  5  1  0  0  0  0
  5  6  2  0  0  0  0
  5  9  1  0  0  0  0
  6 21  1  0  0  0  0
  7  3  1  0  0  0  0
  8  4  1  0  0  0  0
 10 11  2  0  0  0  0
 10 15  1  0  0  0  0
 11 12  1  0  0  0  0
 12 13  2  0  0  0  0
 12  2  1  0  0  0  0
 14 18  1  0  0  0  0
 14 13  1  0  0  0  0
 15 14  2  0  0  0  0
 16 20  1  0  0  0  0
 16 10  1  0  0  0  0
 17 11  1  0  0  0  0
 19 16  1  0  0  0  0
 21 22  1  0  0  0  0
 22 27  1  0  0  0  0
 22 23  2  0  0  0  0
 23 28  1  0  0  0  0
 24 23  1  0  0  0  0
 24 29  1  0  0  0  0
 25 24  2  0  0  0  0
 26 21  2  0  0  0  0
 26 25  1  0  0  0  0
 30 25  1  0  0  0  0
 31 26  1  0  0  0  0
 32 33  1  0  0  0  0
 32 31  1  0  0  0  0
 33 31  1  0  0  0  0
 35 34  3  0  0  0  0
M  END
>  <minimizedAffinity>
-5.49712133

$$$$

 OpenBabel03252508403D

 35 38  0  0  0  0  0  0  0  0999 V2000
   38.5650   28.0000   41.4890 C   0  0  0  0  0  0  0  0  0  0  0  0
   38.9340   28.6840   42.6060 C   0  0  0  0  0  0  0  0  0  0  0  0
   38.0810   28.6490   43.6790 C   0  0  0  0  0  0  0  0  0  0  0  0
   36.8920   27.9650   43.6770 C   0  0  0  0  0  0  0  0  0  0  0  0
   36.5490   27.2860   42.5350 C   0  0  0  0  0  0  0  0  0  0  0  0
   37.3710   27.2900   41.4290 C   0  0  0  0  0  0  0  0  0  0  0  0
   38.3700   29.1900   44.5700 H   0  0  0  0  0  0  0  0  0  0  0  0
   36.2470   27.9680   44.5610 H   0  0  0  0  0  0  0  0  0  0  0  0
   35.6050   26.7380   42.5230 H   0  0  0  0  0  0  0  0  0  0  0  0
   41.5270   31.3840   42.1350 C   0  0  0  0  0  0  0  0  0  0  0  0
   40.2680   30.7390   42.1560 C   0  0  0  0  0  0  0  0  0  0  0  0
   40.2030   29.3960   42.5660 C   0  0  0  0  0  0  0  0  0  0  0  0
   41.3710   28.8250   42.9120 N   0  0  0  0  0  0  0  0  0  0  0  0
   42.5460   29.4560   42.8850 C   0  0  0  0  0  0  0  0  0  0  0  0
   42.6190   30.7400   42.4930 N   0  0  0  0  0  0  0  0  0  0  0  0
   41.5470   32.7330   41.7160 N   0  0  0  0  0  0  0  0  0  0  0  0
   39.3310   31.1850   41.8820 H   0  0  0  0  0  0  0  0  0  0  0  0
   43.4650   28.9620   43.1710 H   0  0  0  0  0  0  0  0  0  0  0  0
   41.2870   33.3050   42.5640 H   0  0  0  0  0  0  0  0  0  0  0  0
   41.8110   32.6340   40.7300 H   0  0  0  0  0  0  0  0  0  0  0  0
   36.9190   26.5390   40.2660 C   0  0  0  0  0  0  0  0  0  0  0  0
   37.1790   25.1850   40.3050 C   0  0  0  0  0  0  0  0  0  0  0  0
   36.8160   24.3130   39.2740 C   0  0  0  0  0  0  0  0  0  0  0  0
   36.1670   24.8580   38.1760 C   0  0  0  0  0  0  0  0  0  0  0  0
   35.9030   26.1980   38.1260 C   0  0  0  0  0  0  0  0  0  0  0  0
   36.2750   27.0400   39.1620 C   0  0  0  0  0  0  0  0  0  0  0  0
   37.6790   24.6850   41.1240 H   0  0  0  0  0  0  0  0  0  0  0  0
   37.0200   23.2520   39.3060 H   0  0  0  0  0  0  0  0  0  0  0  0
   35.8460   24.2540   37.3260 H   0  0  0  0  0  0  0  0  0  0  0  0
   35.4070   26.6570   37.3010 H   0  0  0  0  0  0  0  0  0  0  0  0
   36.0390   28.5200   39.2150 C   0  0  0  0  0  3  0  0  0  0  0  0
   35.5470   29.2760   38.0600 C   0  0  0  0  0  2  0  0  0  0  0  0
   34.5610   28.9570   39.1470 C   0  0  0  0  0  2  0  0  0  0  0  0
   40.0860   27.9680   39.3660 N   0  0  0  0  0  0  0  0  0  0  0  0
   39.4020   27.9860   40.3140 C   0  0  0  0  0  0  0  0  0  0  0  0
  1  2  1  0  0  0  0
  2  3  2  0  0  0  0
  3  7  1  0  0  0  0
  4  3  1  0  0  0  0
  4  8  1  0  0  0  0
  5  4  2  0  0  0  0
  6  1  2  0  0  0  0
  6  5  1  0  0  0  0
  9  5  1  0  0  0  0
 10 11  2  0  0  0  0
 10 15  1  0  0  0  0
 11 12  1  0  0  0  0
 12  2  1  0  0  0  0
 12 13  2  0  0  0  0
 14 13  1  0  0  0  0
 14 18  1  0  0  0  0
 15 14  2  0  0  0  0
 16 10  1  0  0  0  0
 16 19  1  0  0  0  0
 17 11  1  0  0  0  0
 20 16  1  0  0  0  0
 21 22  1  0  0  0  0
 21  6  1  0  0  0  0
 22 27  1  0  0  0  0
 23 28  1  0  0  0  0
 23 22  2  0  0  0  0
 24 23  1  0  0  0  0
 25 24  2  0  0  0  0
 25 26  1  0  0  0  0
 26 31  1  0  0  0  0
 26 21  2  0  0  0  0
 29 24  1  0  0  0  0
 30 25  1  0  0  0  0
 32 33  1  0  0  0  0
 32 31  1  0  0  0  0
 33 31  1  0  0  0  0
 34 35  3  0  0  0  0
 35  1  1  0  0  0  0
M  END
>  <minimizedAffinity>
-5.43093491

$$$$
