
 OpenBabel03252504083D

 13 14  0  0  0  0  0  0  0  0999 V2000
   35.8460   29.7180   40.7890 C   0  0  0  0  0  0  0  0  0  0  0  0
   36.6490   28.7740   41.4470 C   0  0  0  0  0  0  0  0  0  0  0  0
   36.8500   27.5320   40.7980 C   0  0  0  0  0  0  0  0  0  0  0  0
   36.2650   27.3290   39.5970 N   0  0  0  0  0  0  0  0  0  0  0  0
   35.5040   28.2690   39.0080 C   0  0  0  0  0  0  0  0  0  0  0  0
   35.2870   29.4620   39.5900 N   0  0  0  0  0  0  0  0  0  0  0  0
   37.4670   26.8000   41.2980 H   0  0  0  0  0  0  0  0  0  0  0  0
   35.0580   28.0390   38.0320 H   0  0  0  0  0  0  0  0  0  0  0  0
   37.2470   29.0780   42.7530 C   0  0  0  0  0  3  0  0  0  0  0  0
   37.6460   27.9740   43.6780 C   0  0  0  0  0  2  0  0  0  0  0  0
   38.6750   28.8860   42.9830 C   0  0  0  0  0  2  0  0  0  0  0  0
   35.6480   30.9200   41.4090 O   0  0  0  0  0  0  0  0  0  0  0  0
   36.4030   31.5670   41.6410 H   0  0  0  0  0  0  0  0  0  0  0  0
  1 12  1  0  0  0  0
  1  2  1  0  0  0  0
  2  9  1  0  0  0  0
  3  7  1  0  0  0  0
  3  2  2  0  0  0  0
  4  3  1  0  0  0  0
  5  6  1  0  0  0  0
  5  4  2  0  0  0  0
  6  1  2  0  0  0  0
  8  5  1  0  0  0  0
  9 11  1  0  0  0  0
  9 10  1  0  0  0  0
 11 10  1  0  0  0  0
 12 13  1  0  0  0  0
M  END
>  <minimizedAffinity>
-3.88419867

$$$$

 OpenBabel03252504083D

 13 14  0  0  0  0  0  0  0  0999 V2000
   36.8470   30.6620   41.1840 C   0  0  0  0  0  0  0  0  0  0  0  0
   37.3750   29.3900   41.4560 C   0  0  0  0  0  0  0  0  0  0  0  0
   38.7740   29.2270   41.3140 C   0  0  0  0  0  0  0  0  0  0  0  0
   39.5130   30.2920   40.9290 N   0  0  0  0  0  0  0  0  0  0  0  0
   38.9560   31.4920   40.6810 C   0  0  0  0  0  0  0  0  0  0  0  0
   37.6320   31.6900   40.8040 N   0  0  0  0  0  0  0  0  0  0  0  0
   39.1880   28.2520   41.5210 H   0  0  0  0  0  0  0  0  0  0  0  0
   39.6140   32.3140   40.3720 H   0  0  0  0  0  0  0  0  0  0  0  0
   36.4990   28.2870   41.8690 C   0  0  0  0  0  3  0  0  0  0  0  0
   36.9910   26.8770   41.8350 C   0  0  0  0  0  2  0  0  0  0  0  0
   36.6950   27.6180   43.1510 C   0  0  0  0  0  2  0  0  0  0  0  0
   35.4980   30.8270   41.3190 O   0  0  0  0  0  0  0  0  0  0  0  0
   34.9980   30.6920   42.2000 H   0  0  0  0  0  0  0  0  0  0  0  0
  1 12  1  0  0  0  0
  1  2  1  0  0  0  0
  2  9  1  0  0  0  0
  3  2  2  0  0  0  0
  3  7  1  0  0  0  0
  4  3  1  0  0  0  0
  5  6  1  0  0  0  0
  5  4  2  0  0  0  0
  6  1  2  0  0  0  0
  8  5  1  0  0  0  0
  9 11  1  0  0  0  0
 10  9  1  0  0  0  0
 10 11  1  0  0  0  0
 12 13  1  0  0  0  0
M  END
>  <minimizedAffinity>
-3.84386444

$$$$

 OpenBabel03252504083D

 13 14  0  0  0  0  0  0  0  0999 V2000
   36.7740   30.1920   41.5080 C   0  0  0  0  0  0  0  0  0  0  0  0
   37.5240   31.1600   40.8220 C   0  0  0  0  0  0  0  0  0  0  0  0
   38.8780   31.3180   41.2020 C   0  0  0  0  0  0  0  0  0  0  0  0
   39.3670   30.5360   42.1920 N   0  0  0  0  0  0  0  0  0  0  0  0
   38.6040   29.6210   42.8170 C   0  0  0  0  0  0  0  0  0  0  0  0
   37.3140   29.4390   42.4870 N   0  0  0  0  0  0  0  0  0  0  0  0
   39.4610   32.0610   40.6800 H   0  0  0  0  0  0  0  0  0  0  0  0
   39.0640   29.0200   43.6120 H   0  0  0  0  0  0  0  0  0  0  0  0
   36.9130   31.9670   39.7580 C   0  0  0  0  0  3  0  0  0  0  0  0
   37.3850   33.3610   39.5010 C   0  0  0  0  0  2  0  0  0  0  0  0
   37.6210   32.2100   38.5060 C   0  0  0  0  0  2  0  0  0  0  0  0
   35.4660   30.0330   41.1460 O   0  0  0  0  0  0  0  0  0  0  0  0
   35.1690   29.7530   40.2100 H   0  0  0  0  0  0  0  0  0  0  0  0
  1  6  1  0  0  0  0
  2  3  1  0  0  0  0
  2  1  2  0  0  0  0
  3  4  2  0  0  0  0
  4  5  1  0  0  0  0
  5  8  1  0  0  0  0
  6  5  2  0  0  0  0
  7  3  1  0  0  0  0
  9  2  1  0  0  0  0
 10  9  1  0  0  0  0
 11 10  1  0  0  0  0
 11  9  1  0  0  0  0
 12  1  1  0  0  0  0
 13 12  1  0  0  0  0
M  END
>  <minimizedAffinity>
-3.7942915

$$$$

 OpenBabel03252504083D

 13 14  0  0  0  0  0  0  0  0999 V2000
   36.3590   31.1260   40.3950 C   0  0  0  0  0  0  0  0  0  0  0  0
   36.2060   30.2280   39.3270 C   0  0  0  0  0  0  0  0  0  0  0  0
   36.9560   30.4850   38.1540 C   0  0  0  0  0  0  0  0  0  0  0  0
   37.7660   31.5660   38.1290 N   0  0  0  0  0  0  0  0  0  0  0  0
   37.8770   32.3970   39.1820 C   0  0  0  0  0  0  0  0  0  0  0  0
   37.1830   32.1900   40.3150 N   0  0  0  0  0  0  0  0  0  0  0  0
   36.8430   29.7980   37.3280 H   0  0  0  0  0  0  0  0  0  0  0  0
   38.5530   33.2560   39.0950 H   0  0  0  0  0  0  0  0  0  0  0  0
   35.3020   29.0760   39.4390 C   0  0  0  0  0  3  0  0  0  0  0  0
   34.2630   28.8260   38.3950 C   0  0  0  0  0  2  0  0  0  0  0  0
   35.4800   27.9020   38.5910 C   0  0  0  0  0  2  0  0  0  0  0  0
   35.6390   30.8850   41.5310 O   0  0  0  0  0  0  0  0  0  0  0  0
   35.7350   30.0370   42.0920 H   0  0  0  0  0  0  0  0  0  0  0  0
  1 12  1  0  0  0  0
  2  9  1  0  0  0  0
  2  1  2  0  0  0  0
  3  2  1  0  0  0  0
  4  3  2  0  0  0  0
  4  5  1  0  0  0  0
  5  6  2  0  0  0  0
  6  1  1  0  0  0  0
  7  3  1  0  0  0  0
  8  5  1  0  0  0  0
 10 11  1  0  0  0  0
 10  9  1  0  0  0  0
 11  9  1  0  0  0  0
 12 13  1  0  0  0  0
M  END
>  <minimizedAffinity>
-3.7176826

$$$$

 OpenBabel03252504083D

 13 14  0  0  0  0  0  0  0  0999 V2000
   36.3370   29.7920   41.3860 C   0  0  0  0  0  0  0  0  0  0  0  0
   36.0120   28.8120   40.4360 C   0  0  0  0  0  0  0  0  0  0  0  0
   36.6790   27.5670   40.5370 C   0  0  0  0  0  0  0  0  0  0  0  0
   37.5800   27.3950   41.5300 N   0  0  0  0  0  0  0  0  0  0  0  0
   37.8550   28.3700   42.4170 C   0  0  0  0  0  0  0  0  0  0  0  0
   37.2450   29.5660   42.3570 N   0  0  0  0  0  0  0  0  0  0  0  0
   36.4340   26.8080   39.8090 H   0  0  0  0  0  0  0  0  0  0  0  0
   38.5980   28.1640   43.1980 H   0  0  0  0  0  0  0  0  0  0  0  0
   35.0190   29.0830   39.3880 C   0  0  0  0  0  3  0  0  0  0  0  0
   35.4560   29.5110   38.0250 C   0  0  0  0  0  2  0  0  0  0  0  0
   34.8110   28.1390   38.2960 C   0  0  0  0  0  2  0  0  0  0  0  0
   35.6980   30.9960   41.2960 O   0  0  0  0  0  0  0  0  0  0  0  0
   34.6850   31.1050   41.3740 H   0  0  0  0  0  0  0  0  0  0  0  0
  1  6  1  0  0  0  0
  2  3  1  0  0  0  0
  2  1  2  0  0  0  0
  3  4  2  0  0  0  0
  4  5  1  0  0  0  0
  5  8  1  0  0  0  0
  6  5  2  0  0  0  0
  7  3  1  0  0  0  0
  9  2  1  0  0  0  0
 10 11  1  0  0  0  0
 10  9  1  0  0  0  0
 11  9  1  0  0  0  0
 12 13  1  0  0  0  0
 12  1  1  0  0  0  0
M  END
>  <minimizedAffinity>
-3.68918204

$$$$

 OpenBabel03252504083D

 13 14  0  0  0  0  0  0  0  0999 V2000
   37.1010   28.4540   42.5290 C   0  0  0  0  0  0  0  0  0  0  0  0
   38.0470   27.4180   42.4970 C   0  0  0  0  0  0  0  0  0  0  0  0
   38.0920   26.6200   41.3280 C   0  0  0  0  0  0  0  0  0  0  0  0
   37.2320   26.8980   40.3220 N   0  0  0  0  0  0  0  0  0  0  0  0
   36.3430   27.9050   40.4040 C   0  0  0  0  0  0  0  0  0  0  0  0
   36.2670   28.6860   41.4950 N   0  0  0  0  0  0  0  0  0  0  0  0
   38.8170   25.8210   41.2950 H   0  0  0  0  0  0  0  0  0  0  0  0
   35.6740   28.0760   39.5510 H   0  0  0  0  0  0  0  0  0  0  0  0
   38.9440   27.1860   43.6350 C   0  0  0  0  0  3  0  0  0  0  0  0
   39.8110   25.9700   43.6790 C   0  0  0  0  0  2  0  0  0  0  0  0
   40.3830   27.3890   43.5050 C   0  0  0  0  0  2  0  0  0  0  0  0
   37.0510   29.2290   43.6530 O   0  0  0  0  0  0  0  0  0  0  0  0
   37.8350   29.7920   43.9860 H   0  0  0  0  0  0  0  0  0  0  0  0
  1 12  1  0  0  0  0
  2  1  1  0  0  0  0
  2  9  1  0  0  0  0
  3  2  2  0  0  0  0
  4  5  2  0  0  0  0
  4  3  1  0  0  0  0
  5  6  1  0  0  0  0
  6  1  2  0  0  0  0
  7  3  1  0  0  0  0
  8  5  1  0  0  0  0
  9 10  1  0  0  0  0
 11  9  1  0  0  0  0
 11 10  1  0  0  0  0
 12 13  1  0  0  0  0
M  END
>  <minimizedAffinity>
-3.68154311

$$$$

 OpenBabel03252504083D

 13 14  0  0  0  0  0  0  0  0999 V2000
   35.7750   30.2610   40.4170 C   0  0  0  0  0  0  0  0  0  0  0  0
   36.6470   30.9360   39.5490 C   0  0  0  0  0  0  0  0  0  0  0  0
   36.6830   30.5010   38.2030 C   0  0  0  0  0  0  0  0  0  0  0  0
   35.8850   29.4740   37.8330 N   0  0  0  0  0  0  0  0  0  0  0  0
   35.0640   28.8610   38.7070 C   0  0  0  0  0  0  0  0  0  0  0  0
   35.0000   29.2430   39.9940 N   0  0  0  0  0  0  0  0  0  0  0  0
   37.3520   31.0150   37.5280 H   0  0  0  0  0  0  0  0  0  0  0  0
   34.4430   28.0350   38.3400 H   0  0  0  0  0  0  0  0  0  0  0  0
   37.4810   32.0420   40.0350 C   0  0  0  0  0  3  0  0  0  0  0  0
   38.5870   32.5830   39.1890 C   0  0  0  0  0  2  0  0  0  0  0  0
   37.3140   33.3910   39.5030 C   0  0  0  0  0  2  0  0  0  0  0  0
   35.7340   30.6740   41.7190 O   0  0  0  0  0  0  0  0  0  0  0  0
   35.4600   31.6160   42.0040 H   0  0  0  0  0  0  0  0  0  0  0  0
  1 12  1  0  0  0  0
  2  9  1  0  0  0  0
  2  1  2  0  0  0  0
  3  2  1  0  0  0  0
  4  3  2  0  0  0  0
  4  5  1  0  0  0  0
  5  6  2  0  0  0  0
  6  1  1  0  0  0  0
  7  3  1  0  0  0  0
  8  5  1  0  0  0  0
 10 11  1  0  0  0  0
 10  9  1  0  0  0  0
 11  9  1  0  0  0  0
 12 13  1  0  0  0  0
M  END
>  <minimizedAffinity>
-3.64965367

$$$$

 OpenBabel03252504083D

 13 14  0  0  0  0  0  0  0  0999 V2000
   36.8810   29.0970   42.2350 C   0  0  0  0  0  0  0  0  0  0  0  0
   36.8120   27.7830   41.7460 C   0  0  0  0  0  0  0  0  0  0  0  0
   36.4620   27.6170   40.3850 C   0  0  0  0  0  0  0  0  0  0  0  0
   36.2170   28.7190   39.6420 N   0  0  0  0  0  0  0  0  0  0  0  0
   36.2980   29.9590   40.1600 C   0  0  0  0  0  0  0  0  0  0  0  0
   36.6270   30.1610   41.4470 N   0  0  0  0  0  0  0  0  0  0  0  0
   36.4060   26.6090   40.0020 H   0  0  0  0  0  0  0  0  0  0  0  0
   36.0860   30.8100   39.5000 H   0  0  0  0  0  0  0  0  0  0  0  0
   37.0940   26.6410   42.6250 C   0  0  0  0  0  3  0  0  0  0  0  0
   37.0590   25.2470   42.0880 C   0  0  0  0  0  2  0  0  0  0  0  0
   38.3640   25.9280   42.5380 C   0  0  0  0  0  2  0  0  0  0  0  0
   37.2190   29.2660   43.5480 O   0  0  0  0  0  0  0  0  0  0  0  0
   38.1080   28.9580   43.9460 H   0  0  0  0  0  0  0  0  0  0  0  0
  1 12  1  0  0  0  0
  2  1  1  0  0  0  0
  2  9  1  0  0  0  0
  3  2  2  0  0  0  0
  4  5  2  0  0  0  0
  4  3  1  0  0  0  0
  5  6  1  0  0  0  0
  6  1  2  0  0  0  0
  7  3  1  0  0  0  0
  8  5  1  0  0  0  0
 10 11  1  0  0  0  0
 10  9  1  0  0  0  0
 11  9  1  0  0  0  0
 12 13  1  0  0  0  0
M  END
>  <minimizedAffinity>
-3.62052917

$$$$

 OpenBabel03252504083D

 13 14  0  0  0  0  0  0  0  0999 V2000
   37.2150   28.1540   42.6710 C   0  0  0  0  0  0  0  0  0  0  0  0
   36.5720   28.0200   41.4300 C   0  0  0  0  0  0  0  0  0  0  0  0
   36.9040   26.8880   40.6490 C   0  0  0  0  0  0  0  0  0  0  0  0
   37.8110   26.0100   41.1360 N   0  0  0  0  0  0  0  0  0  0  0  0
   38.3980   26.1860   42.3330 C   0  0  0  0  0  0  0  0  0  0  0  0
   38.1110   27.2470   43.1070 N   0  0  0  0  0  0  0  0  0  0  0  0
   36.4140   26.7770   39.6940 H   0  0  0  0  0  0  0  0  0  0  0  0
   39.1250   25.4350   42.6680 H   0  0  0  0  0  0  0  0  0  0  0  0
   35.5980   29.0220   40.9780 C   0  0  0  0  0  3  0  0  0  0  0  0
   36.0240   30.1400   40.0840 C   0  0  0  0  0  2  0  0  0  0  0  0
   35.0940   29.0080   39.6090 C   0  0  0  0  0  2  0  0  0  0  0  0
   36.8990   29.2440   43.4310 O   0  0  0  0  0  0  0  0  0  0  0  0
   35.9580   29.4370   43.7790 H   0  0  0  0  0  0  0  0  0  0  0  0
  1  6  1  0  0  0  0
  1 12  1  0  0  0  0
  2  1  2  0  0  0  0
  3  4  2  0  0  0  0
  3  2  1  0  0  0  0
  4  5  1  0  0  0  0
  5  8  1  0  0  0  0
  5  6  2  0  0  0  0
  7  3  1  0  0  0  0
  9  2  1  0  0  0  0
 10  9  1  0  0  0  0
 11 10  1  0  0  0  0
 11  9  1  0  0  0  0
 12 13  1  0  0  0  0
M  END
>  <minimizedAffinity>
-3.60542107

$$$$
