
 OpenBabel03242516013D

 22 24  0  0  0  0  0  0  0  0999 V2000
   44.7990   33.2560   41.2060 Cl  0  0  0  0  0  0  0  0  0  0  0  0
   46.3310   34.0760   41.0730 C   0  0  0  0  0  0  0  0  0  0  0  0
   46.8350   34.7900   42.1050 C   0  0  0  0  0  0  0  0  0  0  0  0
   48.0610   35.4010   41.8860 C   0  0  0  0  0  0  0  0  0  0  0  0
   48.7330   35.3030   40.7100 C   0  0  0  0  0  0  0  0  0  0  0  0
   48.2040   34.5730   39.6700 C   0  0  0  0  0  0  0  0  0  0  0  0
   46.9960   33.9630   39.8690 C   0  0  0  0  0  0  0  0  0  0  0  0
   48.4920   35.9830   42.7010 H   0  0  0  0  0  0  0  0  0  0  0  0
   49.6860   35.8090   40.6140 H   0  0  0  0  0  0  0  0  0  0  0  0
   48.7950   34.5450   38.7750 H   0  0  0  0  0  0  0  0  0  0  0  0
   44.4670   35.9300   44.8250 C   0  0  0  0  0  0  0  0  0  0  0  0
   45.1750   35.8770   43.6160 C   0  0  0  0  0  0  0  0  0  0  0  0
   46.0870   34.8720   43.3490 C   0  0  0  0  0  0  0  0  0  0  0  0
   46.2590   33.9340   44.3280 N   0  0  0  0  0  0  0  0  0  0  0  0
   45.5740   33.9970   45.4840 C   0  0  0  0  0  0  0  0  0  0  0  0
   44.6920   34.9760   45.7340 N   0  0  0  0  0  0  0  0  0  0  0  0
   43.7640   36.7390   44.9840 H   0  0  0  0  0  0  0  0  0  0  0  0
   45.0170   36.6370   42.8540 H   0  0  0  0  0  0  0  0  0  0  0  0
   45.8160   33.1820   46.1680 H   0  0  0  0  0  0  0  0  0  0  0  0
   46.4140   33.1710   38.7520 C   0  0  0  0  0  0  0  0  0  0  0  0
   47.0040   31.7740   38.5240 C   0  0  0  0  0  0  0  0  0  0  0  0
   47.2300   32.8420   37.5480 C   0  0  0  0  0  0  0  0  0  0  0  0
  2  1  1  0  0  0  0
  2  3  1  0  0  0  0
  3 13  1  0  0  0  0
  4  3  2  0  0  0  0
  4  8  1  0  0  0  0
  5  4  1  0  0  0  0
  6  7  1  0  0  0  0
  6  5  2  0  0  0  0
  7  2  2  0  0  0  0
  9  5  1  0  0  0  0
 10  6  1  0  0  0  0
 11 17  1  0  0  0  0
 11 16  1  0  0  0  0
 12 11  2  0  0  0  0
 13 12  1  0  0  0  0
 13 14  2  0  0  0  0
 14 15  1  0  0  0  0
 15 16  2  0  0  0  0
 15 19  1  0  0  0  0
 18 12  1  0  0  0  0
 20  7  1  0  0  0  0
 21 20  1  0  0  0  0
 22 21  1  0  0  0  0
 22 20  1  0  0  0  0
M  END
>  <minimizedAffinity>
-5.23707342

>  <minimizedRMSD>
0.103518389

$$$$
