
 OpenBabel03252505583D

 30 32  0  0  0  0  0  0  0  0999 V2000
   45.3130   31.3940   47.8060 C   0  0  0  0  0  0  0  0  0  0  0  0
   44.6610   31.3350   48.7140 H   0  0  0  0  0  0  0  0  0  0  0  0
   44.7380   31.1070   46.9000 H   0  0  0  0  0  0  0  0  0  0  0  0
   46.4940   30.5380   47.8880 C   0  0  0  0  0  0  0  0  0  0  0  0
   46.7140   29.2670   47.3670 C   0  0  0  0  0  0  0  0  0  0  0  0
   47.9320   28.6890   47.5990 C   0  0  0  0  0  0  0  0  0  0  0  0
   48.8920   29.2960   48.2960 N   0  0  0  0  0  0  0  0  0  0  0  0
   48.6660   30.5200   48.7930 C   0  0  0  0  0  0  0  0  0  0  0  0
   47.4710   31.1560   48.5980 N   0  0  0  0  0  0  0  0  0  0  0  0
   45.8580   28.9030   46.8310 H   0  0  0  0  0  0  0  0  0  0  0  0
   48.0420   27.6940   47.1650 H   0  0  0  0  0  0  0  0  0  0  0  0
   49.8030   31.1140   49.5560 C   0  0  0  0  0  0  0  0  0  0  0  0
   49.7870   32.4850   49.4820 F   0  0  0  0  0  0  0  0  0  0  0  0
   51.0120   30.6290   49.0670 F   0  0  0  0  0  0  0  0  0  0  0  0
   49.7470   30.7670   50.8940 F   0  0  0  0  0  0  0  0  0  0  0  0
   45.7540   32.7290   47.6760 O   0  0  0  0  0  0  0  0  0  0  0  0
   44.9510   34.9710   45.0380 C   0  0  0  0  0  0  0  0  0  0  0  0
   45.8380   34.6280   44.0180 C   0  0  0  0  0  0  0  0  0  0  0  0
   46.7220   33.5830   44.2950 C   0  0  0  0  0  0  0  0  0  0  0  0
   46.6950   32.9670   45.4840 N   0  0  0  0  0  0  0  0  0  0  0  0
   45.8220   33.3360   46.4320 C   0  0  0  0  0  0  0  0  0  0  0  0
   44.9600   34.3260   46.2120 N   0  0  0  0  0  0  0  0  0  0  0  0
   44.2360   35.7730   44.8930 H   0  0  0  0  0  0  0  0  0  0  0  0
   45.8100   35.3570   42.7260 C   0  0  0  0  0  0  0  0  0  0  0  0
   45.0340   36.4740   42.9920 F   0  0  0  0  0  0  0  0  0  0  0  0
   45.1080   34.5410   41.8300 F   0  0  0  0  0  0  0  0  0  0  0  0
   47.0590   35.6420   42.3090 F   0  0  0  0  0  0  0  0  0  0  0  0
   47.6930   33.1770   43.2370 C   0  0  0  0  0  0  0  0  0  0  0  0
   47.3340   32.1270   42.2450 C   0  0  0  0  0  0  0  0  0  0  0  0
   48.1690   31.7010   43.3980 C   0  0  0  0  0  0  0  0  0  0  0  0
  1  4  1  0  0  0  0
  1  2  1  0  0  0  0
  3  1  1  0  0  0  0
  4  9  1  0  0  0  0
  5  6  1  0  0  0  0
  5  4  2  0  0  0  0
  6  7  2  0  0  0  0
  7  8  1  0  0  0  0
  8 12  1  0  0  0  0
  9  8  2  0  0  0  0
 10  5  1  0  0  0  0
 11  6  1  0  0  0  0
 12 15  1  0  0  0  0
 13 12  1  0  0  0  0
 14 12  1  0  0  0  0
 16  1  1  0  0  0  0
 17 22  1  0  0  0  0
 18 19  1  0  0  0  0
 18 17  2  0  0  0  0
 19 20  2  0  0  0  0
 20 21  1  0  0  0  0
 21 16  1  0  0  0  0
 22 21  2  0  0  0  0
 23 17  1  0  0  0  0
 24 25  1  0  0  0  0
 24 18  1  0  0  0  0
 26 24  1  0  0  0  0
 27 24  1  0  0  0  0
 28 30  1  0  0  0  0
 28 19  1  0  0  0  0
 29 28  1  0  0  0  0
 29 30  1  0  0  0  0
M  END
>  <minimizedAffinity>
-5.6190896

>  <minimizedRMSD>
0.261801183

$$$$
