
 OpenBabel03252505463D

 22 24  0  0  1  0  0  0  0  0999 V2000
   45.6000   33.1080   43.5410 C   0  0  1  0  0  0  0  0  0  0  0  0
   46.8970   33.6930   42.8940 C   0  0  1  0  0  0  0  0  0  0  0  0
   46.0820   32.5770   42.3060 C   0  0  0  0  0  0  0  0  0  0  0  0
   44.7440   33.8290   43.5500 H   0  0  0  0  0  0  0  0  0  0  0  0
   47.8510   33.4860   43.3710 H   0  0  0  0  0  0  0  0  0  0  0  0
   46.6160   31.6020   42.2480 H   0  0  0  0  0  0  0  0  0  0  0  0
   45.5040   32.7810   41.3670 H   0  0  0  0  0  0  0  0  0  0  0  0
   45.8770   32.5160   44.8610 C   0  0  0  0  0  0  0  0  0  0  0  0
   46.1700   33.3820   45.9530 C   0  0  0  0  0  0  0  0  0  0  0  0
   46.4270   32.8600   47.2230 C   0  0  0  0  0  0  0  0  0  0  0  0
   46.3770   31.5000   47.3400 N   0  0  0  0  0  0  0  0  0  0  0  0
   46.0900   30.7040   46.2670 C   0  0  0  0  0  0  0  0  0  0  0  0
   45.8490   31.2030   45.0650 N   0  0  0  0  0  0  0  0  0  0  0  0
   46.1970   34.4550   45.8010 H   0  0  0  0  0  0  0  0  0  0  0  0
   46.6490   33.4910   48.0550 H   0  0  0  0  0  0  0  0  0  0  0  0
   46.0500   29.2150   46.4690 C   0  0  0  0  0  3  0  0  0  0  0  0
   47.0260   28.3440   45.7880 C   0  0  0  0  0  2  0  0  0  0  0  0
   47.1610   28.5990   47.2990 C   0  0  0  0  0  2  0  0  0  0  0  0
   46.6920   35.0370   42.2340 C   0  0  0  0  0  0  0  0  0  0  0  0
   47.8800   35.6220   41.8520 F   0  0  0  0  0  0  0  0  0  0  0  0
   45.9350   34.8410   41.0690 F   0  0  0  0  0  0  0  0  0  0  0  0
   45.9480   35.8700   43.0400 F   0  0  0  0  0  0  0  0  0  0  0  0
  1  4  1  6  0  0  0
  1  8  1  0  0  0  0
  2  5  1  1  0  0  0
  2  1  1  0  0  0  0
  3  2  1  0  0  0  0
  3  1  1  0  0  0  0
  6  3  1  0  0  0  0
  7  3  1  0  0  0  0
  8 13  2  0  0  0  0
  8  9  1  0  0  0  0
  9 10  2  0  0  0  0
 10 11  1  0  0  0  0
 10 15  1  0  0  0  0
 12 16  1  0  0  0  0
 12 11  2  0  0  0  0
 13 12  1  0  0  0  0
 14  9  1  0  0  0  0
 16 18  1  0  0  0  0
 17 16  1  0  0  0  0
 17 18  1  0  0  0  0
 19  2  1  0  0  0  0
 19 22  1  0  0  0  0
 20 19  1  0  0  0  0
 21 19  1  0  0  0  0
M  END
>  <minimizedAffinity>
-3.6778183

>  <minimizedRMSD>
3.03648305

$$$$
