
 OpenBabel03252507403D

 13 14  0  0  0  0  0  0  0  0999 V2000
   37.1220   28.9050   41.7560 C   0  0  0  0  0  0  0  0  0  0  0  0
   37.8440   30.1000   41.6290 C   0  0  0  0  0  0  0  0  0  0  0  0
   37.3570   31.0780   40.7700 C   0  0  0  0  0  0  0  0  0  0  0  0
   36.1990   30.8270   40.0880 N   0  0  0  0  0  0  0  0  0  0  0  0
   35.5300   29.6600   40.2370 C   0  0  0  0  0  0  0  0  0  0  0  0
   35.9740   28.7000   41.0580 N   0  0  0  0  0  0  0  0  0  0  0  0
   37.8720   32.0170   40.6330 H   0  0  0  0  0  0  0  0  0  0  0  0
   34.6180   29.5060   39.6790 H   0  0  0  0  0  0  0  0  0  0  0  0
   37.6090   27.8330   42.6650 C   0  0  0  0  0  3  0  0  0  0  0  0
   36.5760   27.4120   43.6800 C   0  0  0  0  0  2  0  0  0  0  0  0
   36.9480   26.5060   42.5630 C   0  0  0  0  0  2  0  0  0  0  0  0
   39.3550   30.3590   42.5530 S   0  0  0  0  0  0  0  0  0  0  0  0
   39.3070   31.6770   43.0510 H   0  0  0  0  0  0  0  0  0  0  0  0
  1  9  1  0  0  0  0
  2  1  1  0  0  0  0
  2 12  1  0  0  0  0
  3  2  2  0  0  0  0
  4  5  2  0  0  0  0
  4  3  1  0  0  0  0
  5  6  1  0  0  0  0
  6  1  2  0  0  0  0
  7  3  1  0  0  0  0
  8  5  1  0  0  0  0
  9 10  1  0  0  0  0
 11  9  1  0  0  0  0
 11 10  1  0  0  0  0
 12 13  1  0  0  0  0
M  END
>  <minimizedAffinity>
-3.45339847

$$$$

 OpenBabel03252507403D

 13 14  0  0  0  0  0  0  0  0999 V2000
   38.6340   26.5340   42.7920 C   0  0  0  0  0  0  0  0  0  0  0  0
   38.6510   25.1770   42.4370 C   0  0  0  0  0  0  0  0  0  0  0  0
   39.7860   24.4310   42.7310 C   0  0  0  0  0  0  0  0  0  0  0  0
   40.8320   25.0550   43.3520 N   0  0  0  0  0  0  0  0  0  0  0  0
   40.7780   26.3680   43.6800 C   0  0  0  0  0  0  0  0  0  0  0  0
   39.6980   27.1120   43.4090 N   0  0  0  0  0  0  0  0  0  0  0  0
   39.8540   23.3830   42.4800 H   0  0  0  0  0  0  0  0  0  0  0  0
   41.6280   26.8190   44.1700 H   0  0  0  0  0  0  0  0  0  0  0  0
   37.4390   27.3670   42.4940 C   0  0  0  0  0  3  0  0  0  0  0  0
   36.4930   27.4740   43.6650 C   0  0  0  0  0  2  0  0  0  0  0  0
   37.3020   28.6450   43.2390 C   0  0  0  0  0  2  0  0  0  0  0  0
   37.2440   24.4270   41.6240 S   0  0  0  0  0  0  0  0  0  0  0  0
   37.0400   23.1730   42.2370 H   0  0  0  0  0  0  0  0  0  0  0  0
  1  6  1  0  0  0  0
  2  3  1  0  0  0  0
  2  1  2  0  0  0  0
  3  4  2  0  0  0  0
  4  5  1  0  0  0  0
  5  8  1  0  0  0  0
  6  5  2  0  0  0  0
  7  3  1  0  0  0  0
  9  1  1  0  0  0  0
  9 11  1  0  0  0  0
  9 10  1  0  0  0  0
 11 10  1  0  0  0  0
 12 13  1  0  0  0  0
 12  2  1  0  0  0  0
M  END
>  <minimizedAffinity>
-3.37380791

$$$$

 OpenBabel03252507403D

 13 14  0  0  0  0  0  0  0  0999 V2000
   37.7550   29.4230   41.7830 C   0  0  0  0  0  0  0  0  0  0  0  0
   38.7930   30.3570   41.6550 C   0  0  0  0  0  0  0  0  0  0  0  0
   38.5140   31.5770   41.0510 C   0  0  0  0  0  0  0  0  0  0  0  0
   37.2410   31.8080   40.6090 N   0  0  0  0  0  0  0  0  0  0  0  0
   36.2640   30.8810   40.7510 C   0  0  0  0  0  0  0  0  0  0  0  0
   36.5030   29.6980   41.3290 N   0  0  0  0  0  0  0  0  0  0  0  0
   39.2750   32.3330   40.9250 H   0  0  0  0  0  0  0  0  0  0  0  0
   35.2730   31.1070   40.3880 H   0  0  0  0  0  0  0  0  0  0  0  0
   38.0120   28.1060   42.4240 C   0  0  0  0  0  3  0  0  0  0  0  0
   37.1720   27.8800   43.6560 C   0  0  0  0  0  2  0  0  0  0  0  0
   36.9030   27.1180   42.4100 C   0  0  0  0  0  2  0  0  0  0  0  0
   40.4370   29.9850   42.2560 S   0  0  0  0  0  0  0  0  0  0  0  0
   40.9020   31.1430   42.9140 H   0  0  0  0  0  0  0  0  0  0  0  0
  1  9  1  0  0  0  0
  2  1  1  0  0  0  0
  2 12  1  0  0  0  0
  3  2  2  0  0  0  0
  4  5  2  0  0  0  0
  4  3  1  0  0  0  0
  5  6  1  0  0  0  0
  6  1  2  0  0  0  0
  7  3  1  0  0  0  0
  8  5  1  0  0  0  0
  9 10  1  0  0  0  0
 11  9  1  0  0  0  0
 11 10  1  0  0  0  0
 12 13  1  0  0  0  0
M  END
>  <minimizedAffinity>
-3.288414

$$$$

 OpenBabel03252507403D

 13 14  0  0  0  0  0  0  0  0999 V2000
   36.7070   29.4030   41.4260 C   0  0  0  0  0  0  0  0  0  0  0  0
   37.9230   30.0150   41.7600 C   0  0  0  0  0  0  0  0  0  0  0  0
   38.7140   29.4240   42.7380 C   0  0  0  0  0  0  0  0  0  0  0  0
   38.2670   28.2750   43.3290 N   0  0  0  0  0  0  0  0  0  0  0  0
   37.0860   27.7130   42.9800 C   0  0  0  0  0  0  0  0  0  0  0  0
   36.3030   28.2590   42.0410 N   0  0  0  0  0  0  0  0  0  0  0  0
   39.6590   29.8520   43.0350 H   0  0  0  0  0  0  0  0  0  0  0  0
   36.7730   26.8050   43.4740 H   0  0  0  0  0  0  0  0  0  0  0  0
   35.8310   30.0030   40.3840 C   0  0  0  0  0  3  0  0  0  0  0  0
   35.9420   29.3040   39.0530 C   0  0  0  0  0  2  0  0  0  0  0  0
   34.7130   29.1680   39.8760 C   0  0  0  0  0  2  0  0  0  0  0  0
   38.4440   31.5200   40.9440 S   0  0  0  0  0  0  0  0  0  0  0  0
   39.8150   31.3700   40.6500 H   0  0  0  0  0  0  0  0  0  0  0  0
  1  2  2  0  0  0  0
  1  6  1  0  0  0  0
  2  3  1  0  0  0  0
  3  7  1  0  0  0  0
  3  4  2  0  0  0  0
  5  4  1  0  0  0  0
  5  8  1  0  0  0  0
  6  5  2  0  0  0  0
  9  1  1  0  0  0  0
 10 11  1  0  0  0  0
 10  9  1  0  0  0  0
 11  9  1  0  0  0  0
 12  2  1  0  0  0  0
 13 12  1  0  0  0  0
M  END
>  <minimizedAffinity>
-3.27261233

$$$$

 OpenBabel03252507403D

 13 14  0  0  0  0  0  0  0  0999 V2000
   38.8500   28.1300   43.1630 C   0  0  0  0  0  0  0  0  0  0  0  0
   39.7630   29.0120   42.5670 C   0  0  0  0  0  0  0  0  0  0  0  0
   41.1020   28.6400   42.5130 C   0  0  0  0  0  0  0  0  0  0  0  0
   41.4640   27.4340   43.0450 N   0  0  0  0  0  0  0  0  0  0  0  0
   40.5520   26.6100   43.6140 C   0  0  0  0  0  0  0  0  0  0  0  0
   39.2570   26.9400   43.6790 N   0  0  0  0  0  0  0  0  0  0  0  0
   41.8480   29.2790   42.0660 H   0  0  0  0  0  0  0  0  0  0  0  0
   40.8840   25.6660   44.0210 H   0  0  0  0  0  0  0  0  0  0  0  0
   37.4090   28.4900   43.2400 C   0  0  0  0  0  3  0  0  0  0  0  0
   36.5750   27.7950   42.1940 C   0  0  0  0  0  2  0  0  0  0  0  0
   36.4620   27.4130   43.6250 C   0  0  0  0  0  2  0  0  0  0  0  0
   39.2170   30.5760   41.8900 S   0  0  0  0  0  0  0  0  0  0  0  0
   39.8730   30.7360   40.6530 H   0  0  0  0  0  0  0  0  0  0  0  0
  1  9  1  0  0  0  0
  1  6  1  0  0  0  0
  2  1  2  0  0  0  0
  3  2  1  0  0  0  0
  3  4  2  0  0  0  0
  4  5  1  0  0  0  0
  5  6  2  0  0  0  0
  5  8  1  0  0  0  0
  7  3  1  0  0  0  0
  9 11  1  0  0  0  0
 10  9  1  0  0  0  0
 10 11  1  0  0  0  0
 12  2  1  0  0  0  0
 13 12  1  0  0  0  0
M  END
>  <minimizedAffinity>
-3.27103424

$$$$

 OpenBabel03252507403D

 13 14  0  0  0  0  0  0  0  0999 V2000
   37.8260   29.5860   42.2820 C   0  0  0  0  0  0  0  0  0  0  0  0
   37.4060   30.3890   41.2110 C   0  0  0  0  0  0  0  0  0  0  0  0
   38.2150   31.4520   40.8260 C   0  0  0  0  0  0  0  0  0  0  0  0
   39.3800   31.6640   41.5090 N   0  0  0  0  0  0  0  0  0  0  0  0
   39.7510   30.8670   42.5390 C   0  0  0  0  0  0  0  0  0  0  0  0
   38.9930   29.8360   42.9320 N   0  0  0  0  0  0  0  0  0  0  0  0
   37.9410   32.1030   40.0090 H   0  0  0  0  0  0  0  0  0  0  0  0
   40.6800   31.0720   43.0490 H   0  0  0  0  0  0  0  0  0  0  0  0
   36.9890   28.4390   42.7250 C   0  0  0  0  0  3  0  0  0  0  0  0
   37.5100   27.1110   42.2360 C   0  0  0  0  0  2  0  0  0  0  0  0
   37.6080   27.4760   43.6720 C   0  0  0  0  0  2  0  0  0  0  0  0
   35.8670   30.0520   40.3630 S   0  0  0  0  0  0  0  0  0  0  0  0
   36.1240   30.1880   38.9830 H   0  0  0  0  0  0  0  0  0  0  0  0
  1  9  1  0  0  0  0
  1  6  1  0  0  0  0
  2  1  2  0  0  0  0
  3  2  1  0  0  0  0
  3  4  2  0  0  0  0
  4  5  1  0  0  0  0
  5  6  2  0  0  0  0
  5  8  1  0  0  0  0
  7  3  1  0  0  0  0
  9 11  1  0  0  0  0
 10  9  1  0  0  0  0
 10 11  1  0  0  0  0
 12  2  1  0  0  0  0
 13 12  1  0  0  0  0
M  END
>  <minimizedAffinity>
-3.25646639

$$$$

 OpenBabel03252507403D

 13 14  0  0  0  0  0  0  0  0999 V2000
   37.6150   29.7720   41.9250 C   0  0  0  0  0  0  0  0  0  0  0  0
   36.7400   28.6800   41.8350 C   0  0  0  0  0  0  0  0  0  0  0  0
   35.6820   28.7540   40.9370 C   0  0  0  0  0  0  0  0  0  0  0  0
   35.5440   29.8880   40.1850 N   0  0  0  0  0  0  0  0  0  0  0  0
   36.4100   30.9220   40.3010 C   0  0  0  0  0  0  0  0  0  0  0  0
   37.4390   30.8790   41.1570 N   0  0  0  0  0  0  0  0  0  0  0  0
   34.9770   27.9440   40.8260 H   0  0  0  0  0  0  0  0  0  0  0  0
   36.2640   31.7970   39.6870 H   0  0  0  0  0  0  0  0  0  0  0  0
   38.7600   29.7320   42.8740 C   0  0  0  0  0  3  0  0  0  0  0  0
   40.0670   29.3970   42.2010 C   0  0  0  0  0  2  0  0  0  0  0  0
   39.8110   30.7680   42.7100 C   0  0  0  0  0  2  0  0  0  0  0  0
   36.9810   27.2270   42.8520 S   0  0  0  0  0  0  0  0  0  0  0  0
   36.7730   26.1080   42.0190 H   0  0  0  0  0  0  0  0  0  0  0  0
  1  9  1  0  0  0  0
  2  1  1  0  0  0  0
  2 12  1  0  0  0  0
  3  2  2  0  0  0  0
  4  5  2  0  0  0  0
  4  3  1  0  0  0  0
  5  6  1  0  0  0  0
  6  1  2  0  0  0  0
  7  3  1  0  0  0  0
  8  5  1  0  0  0  0
 10 11  1  0  0  0  0
 10  9  1  0  0  0  0
 11  9  1  0  0  0  0
 13 12  1  0  0  0  0
M  END
>  <minimizedAffinity>
-3.24911118

$$$$

 OpenBabel03252507403D

 13 14  0  0  0  0  0  0  0  0999 V2000
   37.2070   30.5800   41.1070 C   0  0  0  0  0  0  0  0  0  0  0  0
   38.0040   31.6740   40.7420 C   0  0  0  0  0  0  0  0  0  0  0  0
   39.2320   31.8370   41.3730 C   0  0  0  0  0  0  0  0  0  0  0  0
   39.6040   30.9230   42.3190 N   0  0  0  0  0  0  0  0  0  0  0  0
   38.8060   29.8780   42.6440 C   0  0  0  0  0  0  0  0  0  0  0  0
   37.6190   29.6950   42.0540 N   0  0  0  0  0  0  0  0  0  0  0  0
   39.8860   32.6620   41.1320 H   0  0  0  0  0  0  0  0  0  0  0  0
   39.1410   29.1800   43.3970 H   0  0  0  0  0  0  0  0  0  0  0  0
   35.8870   30.3700   40.4560 C   0  0  0  0  0  3  0  0  0  0  0  0
   35.9470   29.3900   39.3110 C   0  0  0  0  0  2  0  0  0  0  0  0
   35.2750   29.0220   40.5840 C   0  0  0  0  0  2  0  0  0  0  0  0
   37.4520   32.8330   39.4950 S   0  0  0  0  0  0  0  0  0  0  0  0
   38.5620   33.1000   38.6670 H   0  0  0  0  0  0  0  0  0  0  0  0
  1  6  1  0  0  0  0
  2  1  2  0  0  0  0
  2  3  1  0  0  0  0
  3  4  2  0  0  0  0
  4  5  1  0  0  0  0
  5  8  1  0  0  0  0
  6  5  2  0  0  0  0
  7  3  1  0  0  0  0
  9 11  1  0  0  0  0
  9  1  1  0  0  0  0
 10  9  1  0  0  0  0
 10 11  1  0  0  0  0
 12  2  1  0  0  0  0
 13 12  1  0  0  0  0
M  END
>  <minimizedAffinity>
-3.24638867

$$$$

 OpenBabel03252507403D

 13 14  0  0  0  0  0  0  0  0999 V2000
   36.6210   28.6860   41.2720 C   0  0  0  0  0  0  0  0  0  0  0  0
   36.5170   28.4030   39.9030 C   0  0  0  0  0  0  0  0  0  0  0  0
   36.4300   29.4680   39.0130 C   0  0  0  0  0  0  0  0  0  0  0  0
   36.4490   30.7390   39.5160 N   0  0  0  0  0  0  0  0  0  0  0  0
   36.5500   30.9720   40.8460 C   0  0  0  0  0  0  0  0  0  0  0  0
   36.6360   29.9670   41.7260 N   0  0  0  0  0  0  0  0  0  0  0  0
   36.3470   29.3090   37.9480 H   0  0  0  0  0  0  0  0  0  0  0  0
   36.5620   31.9920   41.1980 H   0  0  0  0  0  0  0  0  0  0  0  0
   36.7170   27.5750   42.2560 C   0  0  0  0  0  3  0  0  0  0  0  0
   38.1210   27.3610   42.7630 C   0  0  0  0  0  2  0  0  0  0  0  0
   37.0780   27.9360   43.6510 C   0  0  0  0  0  2  0  0  0  0  0  0
   36.4980   26.7130   39.3160 S   0  0  0  0  0  0  0  0  0  0  0  0
   37.3350   26.6660   38.1820 H   0  0  0  0  0  0  0  0  0  0  0  0
  1  6  1  0  0  0  0
  1  9  1  0  0  0  0
  2  1  2  0  0  0  0
  3  4  2  0  0  0  0
  3  2  1  0  0  0  0
  4  5  1  0  0  0  0
  5  8  1  0  0  0  0
  5  6  2  0  0  0  0
  7  3  1  0  0  0  0
  9 10  1  0  0  0  0
  9 11  1  0  0  0  0
 10 11  1  0  0  0  0
 12  2  1  0  0  0  0
 13 12  1  0  0  0  0
M  END
>  <minimizedAffinity>
-3.23954368

$$$$
