
 OpenBabel03252505013D

 26 28  0  0  1  0  0  0  0  0999 V2000
   37.3270   27.8760   42.4960 C   0  0  2  0  0  0  0  0  0  0  0  0
   38.3580   28.7950   43.0380 C   0  0  0  0  0  0  0  0  0  0  0  0
   39.7660   28.3140   42.9190 C   0  0  0  0  0  0  0  0  0  0  0  0
   39.7790   26.9970   43.6780 C   0  0  0  0  0  0  0  0  0  0  0  0
   38.9840   25.9630   42.9610 C   0  0  0  0  0  0  0  0  0  0  0  0
   37.7160   26.4700   42.3480 C   0  0  0  0  0  0  0  0  0  0  0  0
   36.4200   27.9040   43.1740 H   0  0  0  0  0  0  0  0  0  0  0  0
   38.2650   29.8290   42.6050 H   0  0  0  0  0  0  0  0  0  0  0  0
   38.1660   28.9470   44.1260 H   0  0  0  0  0  0  0  0  0  0  0  0
   40.4450   28.9910   43.4300 H   0  0  0  0  0  0  0  0  0  0  0  0
   39.9990   28.1200   41.8470 H   0  0  0  0  0  0  0  0  0  0  0  0
   39.3520   27.1890   44.6800 H   0  0  0  0  0  0  0  0  0  0  0  0
   40.8050   26.6360   43.6950 H   0  0  0  0  0  0  0  0  0  0  0  0
   39.2420   24.9170   42.8350 H   0  0  0  0  0  0  0  0  0  0  0  0
   37.3250   29.1500   39.0270 C   0  0  0  0  0  0  0  0  0  0  0  0
   35.9640   29.4950   38.8410 C   0  0  0  0  0  0  0  0  0  0  0  0
   35.0740   29.2870   39.9140 C   0  0  0  0  0  0  0  0  0  0  0  0
   35.5730   28.7700   41.0580 N   0  0  0  0  0  0  0  0  0  0  0  0
   36.8710   28.4490   41.2150 C   0  0  0  0  0  0  0  0  0  0  0  0
   37.7470   28.6340   40.2120 N   0  0  0  0  0  0  0  0  0  0  0  0
   38.0090   29.3090   38.2040 H   0  0  0  0  0  0  0  0  0  0  0  0
   35.6650   29.9000   37.8920 H   0  0  0  0  0  0  0  0  0  0  0  0
   34.0330   29.5500   39.7770 H   0  0  0  0  0  0  0  0  0  0  0  0
   36.9490   25.4620   41.6270 C   0  0  0  0  0  3  0  0  0  0  0  0
   37.3860   24.9810   40.2700 C   0  0  0  0  0  2  0  0  0  0  0  0
   37.4260   24.0560   41.4230 C   0  0  0  0  0  2  0  0  0  0  0  0
  1  2  1  0  0  0  0
  1  7  1  1  0  0  0
  2  9  1  0  0  0  0
  3  2  1  0  0  0  0
  3 10  1  0  0  0  0
  3  4  1  0  0  0  0
  4 13  1  0  0  0  0
  4 12  1  0  0  0  0
  5  4  1  0  0  0  0
  6  1  1  0  0  0  0
  6  5  2  0  0  0  0
  8  2  1  0  0  0  0
 11  3  1  0  0  0  0
 14  5  1  0  0  0  0
 15 20  1  0  0  0  0
 16 15  2  0  0  0  0
 16 17  1  0  0  0  0
 17 18  2  0  0  0  0
 18 19  1  0  0  0  0
 19  1  1  0  0  0  0
 20 19  2  0  0  0  0
 21 15  1  0  0  0  0
 22 16  1  0  0  0  0
 23 17  1  0  0  0  0
 24  6  1  0  0  0  0
 25 26  1  0  0  0  0
 25 24  1  0  0  0  0
 26 24  1  0  0  0  0
M  END
>  <minimizedAffinity>
-4.56559563

$$$$

 OpenBabel03252505013D

 26 28  0  0  1  0  0  0  0  0999 V2000
   36.3320   28.1620   41.4370 C   0  0  2  0  0  0  0  0  0  0  0  0
   36.7290   27.7780   42.8150 C   0  0  0  0  0  0  0  0  0  0  0  0
   37.7630   26.7060   42.9040 C   0  0  0  0  0  0  0  0  0  0  0  0
   37.1420   25.5210   42.1840 C   0  0  0  0  0  0  0  0  0  0  0  0
   37.0270   25.7890   40.7240 C   0  0  0  0  0  0  0  0  0  0  0  0
   36.6130   27.1860   40.3800 C   0  0  0  0  0  0  0  0  0  0  0  0
   35.2180   28.3630   41.4200 H   0  0  0  0  0  0  0  0  0  0  0  0
   37.0430   28.6710   43.4220 H   0  0  0  0  0  0  0  0  0  0  0  0
   35.8290   27.3960   43.3530 H   0  0  0  0  0  0  0  0  0  0  0  0
   37.9200   26.4120   43.9390 H   0  0  0  0  0  0  0  0  0  0  0  0
   38.6770   27.0300   42.3550 H   0  0  0  0  0  0  0  0  0  0  0  0
   36.1420   25.3520   42.6260 H   0  0  0  0  0  0  0  0  0  0  0  0
   37.8210   24.6780   42.2870 H   0  0  0  0  0  0  0  0  0  0  0  0
   37.2260   25.0910   39.9180 H   0  0  0  0  0  0  0  0  0  0  0  0
   36.7870   31.7300   40.5900 C   0  0  0  0  0  0  0  0  0  0  0  0
   38.1940   31.8730   40.6650 C   0  0  0  0  0  0  0  0  0  0  0  0
   38.9590   30.7390   41.0020 C   0  0  0  0  0  0  0  0  0  0  0  0
   38.3040   29.5800   41.2320 N   0  0  0  0  0  0  0  0  0  0  0  0
   36.9660   29.4640   41.1540 C   0  0  0  0  0  0  0  0  0  0  0  0
   36.2040   30.5260   40.8370 N   0  0  0  0  0  0  0  0  0  0  0  0
   36.1980   32.6010   40.3320 H   0  0  0  0  0  0  0  0  0  0  0  0
   38.6200   32.8380   40.4640 H   0  0  0  0  0  0  0  0  0  0  0  0
   40.0350   30.8430   41.0590 H   0  0  0  0  0  0  0  0  0  0  0  0
   36.5230   27.4540   38.9490 C   0  0  0  0  0  3  0  0  0  0  0  0
   35.6100   26.6480   38.0660 C   0  0  0  0  0  2  0  0  0  0  0  0
   35.3240   28.0780   38.3030 C   0  0  0  0  0  2  0  0  0  0  0  0
  1  7  1  1  0  0  0
  1  2  1  0  0  0  0
  2  3  1  0  0  0  0
  2  9  1  0  0  0  0
  2  8  1  0  0  0  0
  3 10  1  0  0  0  0
  4 13  1  0  0  0  0
  4 12  1  0  0  0  0
  4  3  1  0  0  0  0
  5  4  1  0  0  0  0
  6  5  2  0  0  0  0
  6  1  1  0  0  0  0
 11  3  1  0  0  0  0
 14  5  1  0  0  0  0
 15 16  2  0  0  0  0
 15 20  1  0  0  0  0
 16 17  1  0  0  0  0
 17 23  1  0  0  0  0
 17 18  2  0  0  0  0
 19 18  1  0  0  0  0
 19  1  1  0  0  0  0
 20 19  2  0  0  0  0
 21 15  1  0  0  0  0
 22 16  1  0  0  0  0
 24  6  1  0  0  0  0
 25 26  1  0  0  0  0
 25 24  1  0  0  0  0
 26 24  1  0  0  0  0
M  END
>  <minimizedAffinity>
-4.42403603

$$$$

 OpenBabel03252505013D

 26 28  0  0  1  0  0  0  0  0999 V2000
   39.8920   29.2010   42.9270 C   0  0  2  0  0  0  0  0  0  0  0  0
   41.2710   28.6840   42.7420 C   0  0  0  0  0  0  0  0  0  0  0  0
   41.3710   27.2220   42.4630 C   0  0  0  0  0  0  0  0  0  0  0  0
   40.7150   26.5620   43.6640 C   0  0  0  0  0  0  0  0  0  0  0  0
   39.2500   26.8250   43.6800 C   0  0  0  0  0  0  0  0  0  0  0  0
   38.8650   28.2140   43.2750 C   0  0  0  0  0  0  0  0  0  0  0  0
   39.9010   29.9800   43.7480 H   0  0  0  0  0  0  0  0  0  0  0  0
   41.8350   29.2670   41.9630 H   0  0  0  0  0  0  0  0  0  0  0  0
   41.8500   28.8680   43.6790 H   0  0  0  0  0  0  0  0  0  0  0  0
   42.4110   26.9070   42.4450 H   0  0  0  0  0  0  0  0  0  0  0  0
   40.7830   26.9820   41.5470 H   0  0  0  0  0  0  0  0  0  0  0  0
   41.1930   26.9770   44.5710 H   0  0  0  0  0  0  0  0  0  0  0  0
   40.8310   25.4860   43.5540 H   0  0  0  0  0  0  0  0  0  0  0  0
   38.4660   26.1200   43.9330 H   0  0  0  0  0  0  0  0  0  0  0  0
   39.1290   29.9580   39.3910 C   0  0  0  0  0  0  0  0  0  0  0  0
   38.8570   31.3470   39.4400 C   0  0  0  0  0  0  0  0  0  0  0  0
   38.9460   31.9970   40.6870 C   0  0  0  0  0  0  0  0  0  0  0  0
   39.2860   31.2560   41.7640 N   0  0  0  0  0  0  0  0  0  0  0  0
   39.5410   29.9360   41.6960 C   0  0  0  0  0  0  0  0  0  0  0  0
   39.4650   29.2840   40.5230 N   0  0  0  0  0  0  0  0  0  0  0  0
   39.0600   29.4580   38.4340 H   0  0  0  0  0  0  0  0  0  0  0  0
   38.5940   31.8490   38.5270 H   0  0  0  0  0  0  0  0  0  0  0  0
   38.7410   33.0600   40.7290 H   0  0  0  0  0  0  0  0  0  0  0  0
   37.4290   28.4650   43.2690 C   0  0  0  0  0  3  0  0  0  0  0  0
   36.5510   27.9080   42.1820 C   0  0  0  0  0  2  0  0  0  0  0  0
   36.4080   27.4080   43.5650 C   0  0  0  0  0  2  0  0  0  0  0  0
  1  6  1  0  0  0  0
  1  7  1  1  0  0  0
  2  1  1  0  0  0  0
  2  9  1  0  0  0  0
  3  2  1  0  0  0  0
  3  4  1  0  0  0  0
  4  5  1  0  0  0  0
  4 12  1  0  0  0  0
  5 14  1  0  0  0  0
  6  5  2  0  0  0  0
  8  2  1  0  0  0  0
 10  3  1  0  0  0  0
 11  3  1  0  0  0  0
 13  4  1  0  0  0  0
 15 16  2  0  0  0  0
 15 20  1  0  0  0  0
 16 17  1  0  0  0  0
 17 23  1  0  0  0  0
 17 18  2  0  0  0  0
 19 18  1  0  0  0  0
 19  1  1  0  0  0  0
 20 19  2  0  0  0  0
 21 15  1  0  0  0  0
 22 16  1  0  0  0  0
 24  6  1  0  0  0  0
 24 26  1  0  0  0  0
 25 24  1  0  0  0  0
 25 26  1  0  0  0  0
M  END
>  <minimizedAffinity>
-4.39926386

$$$$

 OpenBabel03252505013D

 26 28  0  0  1  0  0  0  0  0999 V2000
   37.8870   30.1040   42.1120 C   0  0  2  0  0  0  0  0  0  0  0  0
   38.8190   29.2820   42.9240 C   0  0  0  0  0  0  0  0  0  0  0  0
   38.7590   27.8130   42.6700 C   0  0  0  0  0  0  0  0  0  0  0  0
   37.3190   27.4360   42.9750 C   0  0  0  0  0  0  0  0  0  0  0  0
   36.3940   28.0140   41.9610 C   0  0  0  0  0  0  0  0  0  0  0  0
   36.7370   29.4060   41.5310 C   0  0  0  0  0  0  0  0  0  0  0  0
   37.4810   30.9410   42.7580 H   0  0  0  0  0  0  0  0  0  0  0  0
   39.8800   29.6460   42.8390 H   0  0  0  0  0  0  0  0  0  0  0  0
   38.5760   29.4270   44.0040 H   0  0  0  0  0  0  0  0  0  0  0  0
   39.3920   27.2770   43.3740 H   0  0  0  0  0  0  0  0  0  0  0  0
   38.9690   27.6170   41.5940 H   0  0  0  0  0  0  0  0  0  0  0  0
   37.0810   27.8240   43.9830 H   0  0  0  0  0  0  0  0  0  0  0  0
   37.2340   26.3550   42.8840 H   0  0  0  0  0  0  0  0  0  0  0  0
   35.5350   27.5260   41.5130 H   0  0  0  0  0  0  0  0  0  0  0  0
   39.5110   32.7300   40.0810 C   0  0  0  0  0  0  0  0  0  0  0  0
   40.2410   31.9650   39.1400 C   0  0  0  0  0  0  0  0  0  0  0  0
   40.1580   30.5600   39.2190 C   0  0  0  0  0  0  0  0  0  0  0  0
   39.3850   30.0260   40.1890 N   0  0  0  0  0  0  0  0  0  0  0  0
   38.6970   30.7720   41.0740 C   0  0  0  0  0  0  0  0  0  0  0  0
   38.7540   32.1140   41.0290 N   0  0  0  0  0  0  0  0  0  0  0  0
   39.5750   33.8080   40.0220 H   0  0  0  0  0  0  0  0  0  0  0  0
   40.8280   32.4840   38.4060 H   0  0  0  0  0  0  0  0  0  0  0  0
   40.7140   29.9710   38.5010 H   0  0  0  0  0  0  0  0  0  0  0  0
   35.8440   29.9630   40.5220 C   0  0  0  0  0  3  0  0  0  0  0  0
   35.9620   29.5610   39.0770 C   0  0  0  0  0  2  0  0  0  0  0  0
   34.7650   29.1690   39.8500 C   0  0  0  0  0  2  0  0  0  0  0  0
  1  7  1  1  0  0  0
  1  2  1  0  0  0  0
  2  9  1  0  0  0  0
  3  2  1  0  0  0  0
  3  4  1  0  0  0  0
  3 10  1  0  0  0  0
  4 12  1  0  0  0  0
  5  4  1  0  0  0  0
  6  5  2  0  0  0  0
  6  1  1  0  0  0  0
  8  2  1  0  0  0  0
 11  3  1  0  0  0  0
 13  4  1  0  0  0  0
 14  5  1  0  0  0  0
 15 20  1  0  0  0  0
 16 17  1  0  0  0  0
 16 15  2  0  0  0  0
 17 18  2  0  0  0  0
 18 19  1  0  0  0  0
 19  1  1  0  0  0  0
 20 19  2  0  0  0  0
 21 15  1  0  0  0  0
 22 16  1  0  0  0  0
 23 17  1  0  0  0  0
 24  6  1  0  0  0  0
 25 26  1  0  0  0  0
 25 24  1  0  0  0  0
 26 24  1  0  0  0  0
M  END
>  <minimizedAffinity>
-4.37264681

$$$$

 OpenBabel03252505013D

 26 28  0  0  1  0  0  0  0  0999 V2000
   36.0840   28.7800   40.2870 C   0  0  2  0  0  0  0  0  0  0  0  0
   36.0100   27.6900   39.2830 C   0  0  0  0  0  0  0  0  0  0  0  0
   36.7530   27.9440   38.0130 C   0  0  0  0  0  0  0  0  0  0  0  0
   36.1320   29.2160   37.4600 C   0  0  0  0  0  0  0  0  0  0  0  0
   36.4710   30.3870   38.3150 C   0  0  0  0  0  0  0  0  0  0  0  0
   36.4450   30.1090   39.7860 C   0  0  0  0  0  0  0  0  0  0  0  0
   35.0770   28.8760   40.7960 H   0  0  0  0  0  0  0  0  0  0  0  0
   36.3160   26.7000   39.7180 H   0  0  0  0  0  0  0  0  0  0  0  0
   34.9420   27.5360   38.9990 H   0  0  0  0  0  0  0  0  0  0  0  0
   36.5640   27.1500   37.2950 H   0  0  0  0  0  0  0  0  0  0  0  0
   37.8260   28.1320   38.2460 H   0  0  0  0  0  0  0  0  0  0  0  0
   35.0370   29.0630   37.4290 H   0  0  0  0  0  0  0  0  0  0  0  0
   36.5810   29.4070   36.4880 H   0  0  0  0  0  0  0  0  0  0  0  0
   36.7410   31.3810   37.9760 H   0  0  0  0  0  0  0  0  0  0  0  0
   39.1590   27.6900   42.0230 C   0  0  0  0  0  0  0  0  0  0  0  0
   38.7020   27.5170   43.3520 C   0  0  0  0  0  0  0  0  0  0  0  0
   37.3430   27.7750   43.6240 C   0  0  0  0  0  0  0  0  0  0  0  0
   36.5570   28.1720   42.6000 N   0  0  0  0  0  0  0  0  0  0  0  0
   37.0110   28.3290   41.3430 C   0  0  0  0  0  0  0  0  0  0  0  0
   38.3010   28.0930   41.0470 N   0  0  0  0  0  0  0  0  0  0  0  0
   40.2020   27.4920   41.8120 H   0  0  0  0  0  0  0  0  0  0  0  0
   39.4060   27.1980   44.0970 H   0  0  0  0  0  0  0  0  0  0  0  0
   36.9880   27.6440   44.6390 H   0  0  0  0  0  0  0  0  0  0  0  0
   36.8000   31.2510   40.6210 C   0  0  0  0  0  3  0  0  0  0  0  0
   38.2370   31.6500   40.8160 C   0  0  0  0  0  2  0  0  0  0  0  0
   37.3240   32.5420   40.0700 C   0  0  0  0  0  2  0  0  0  0  0  0
  1  7  1  1  0  0  0
  1 19  1  0  0  0  0
  2  8  1  0  0  0  0
  2  1  1  0  0  0  0
  3 11  1  0  0  0  0
  3  2  1  0  0  0  0
  4  3  1  0  0  0  0
  4  5  1  0  0  0  0
  5  6  2  0  0  0  0
  6  1  1  0  0  0  0
  6 24  1  0  0  0  0
  9  2  1  0  0  0  0
 10  3  1  0  0  0  0
 12  4  1  0  0  0  0
 13  4  1  0  0  0  0
 14  5  1  0  0  0  0
 15 16  1  0  0  0  0
 16 17  2  0  0  0  0
 16 22  1  0  0  0  0
 17 23  1  0  0  0  0
 18 17  1  0  0  0  0
 19 18  2  0  0  0  0
 20 19  1  0  0  0  0
 20 15  2  0  0  0  0
 21 15  1  0  0  0  0
 24 25  1  0  0  0  0
 26 24  1  0  0  0  0
 26 25  1  0  0  0  0
M  END
>  <minimizedAffinity>
-4.33316946

$$$$

 OpenBabel03252505013D

 26 28  0  0  1  0  0  0  0  0999 V2000
   37.8020   29.9440   39.6400 C   0  0  2  0  0  0  0  0  0  0  0  0
   37.2110   29.7790   38.2890 C   0  0  0  0  0  0  0  0  0  0  0  0
   35.7290   29.6120   38.2580 C   0  0  0  0  0  0  0  0  0  0  0  0
   35.4710   28.3750   39.1030 C   0  0  0  0  0  0  0  0  0  0  0  0
   35.7740   28.6400   40.5370 C   0  0  0  0  0  0  0  0  0  0  0  0
   36.9940   29.4740   40.7690 C   0  0  0  0  0  0  0  0  0  0  0  0
   38.7880   29.3880   39.6780 H   0  0  0  0  0  0  0  0  0  0  0  0
   37.5220   30.6060   37.5930 H   0  0  0  0  0  0  0  0  0  0  0  0
   37.6430   28.8640   37.8190 H   0  0  0  0  0  0  0  0  0  0  0  0
   35.3900   29.3930   37.2490 H   0  0  0  0  0  0  0  0  0  0  0  0
   35.2490   30.4930   38.7440 H   0  0  0  0  0  0  0  0  0  0  0  0
   36.1180   27.5680   38.7130 H   0  0  0  0  0  0  0  0  0  0  0  0
   34.4070   28.1560   39.0520 H   0  0  0  0  0  0  0  0  0  0  0  0
   35.1990   28.3070   41.3940 H   0  0  0  0  0  0  0  0  0  0  0  0
   37.5260   33.6260   39.8110 C   0  0  0  0  0  0  0  0  0  0  0  0
   38.8610   34.0090   40.0850 C   0  0  0  0  0  0  0  0  0  0  0  0
   39.8320   32.9940   40.2000 C   0  0  0  0  0  0  0  0  0  0  0  0
   39.4310   31.7140   40.0430 N   0  0  0  0  0  0  0  0  0  0  0  0
   38.1560   31.3700   39.7830 C   0  0  0  0  0  0  0  0  0  0  0  0
   37.2030   32.3120   39.6660 N   0  0  0  0  0  0  0  0  0  0  0  0
   36.7800   34.4040   39.7220 H   0  0  0  0  0  0  0  0  0  0  0  0
   39.0810   35.0540   40.1930 H   0  0  0  0  0  0  0  0  0  0  0  0
   40.8550   33.2820   40.4080 H   0  0  0  0  0  0  0  0  0  0  0  0
   37.2770   29.7520   42.1730 C   0  0  0  0  0  3  0  0  0  0  0  0
   37.5230   28.6340   43.1490 C   0  0  0  0  0  2  0  0  0  0  0  0
   38.6260   29.5520   42.7950 C   0  0  0  0  0  2  0  0  0  0  0  0
  1  7  1  1  0  0  0
  1 19  1  0  0  0  0
  1  6  1  0  0  0  0
  2  1  1  0  0  0  0
  3  2  1  0  0  0  0
  3 11  1  0  0  0  0
  3  4  1  0  0  0  0
  4  5  1  0  0  0  0
  5  6  2  0  0  0  0
  5 14  1  0  0  0  0
  6 24  1  0  0  0  0
  8  2  1  0  0  0  0
  9  2  1  0  0  0  0
 10  3  1  0  0  0  0
 12  4  1  0  0  0  0
 13  4  1  0  0  0  0
 15 16  1  0  0  0  0
 16 22  1  0  0  0  0
 16 17  2  0  0  0  0
 17 23  1  0  0  0  0
 18 17  1  0  0  0  0
 19 18  2  0  0  0  0
 20 19  1  0  0  0  0
 20 15  2  0  0  0  0
 21 15  1  0  0  0  0
 24 26  1  0  0  0  0
 24 25  1  0  0  0  0
 26 25  1  0  0  0  0
M  END
>  <minimizedAffinity>
-4.32709408

$$$$

 OpenBabel03252505013D

 26 28  0  0  1  0  0  0  0  0999 V2000
   37.4190   27.9450   40.8780 C   0  0  2  0  0  0  0  0  0  0  0  0
   36.9210   26.9790   41.8880 C   0  0  0  0  0  0  0  0  0  0  0  0
   36.6360   27.5560   43.2340 C   0  0  0  0  0  0  0  0  0  0  0  0
   37.9630   28.1490   43.6790 C   0  0  0  0  0  0  0  0  0  0  0  0
   38.3190   29.3320   42.8490 C   0  0  0  0  0  0  0  0  0  0  0  0
   38.0060   29.1860   41.3930 C   0  0  0  0  0  0  0  0  0  0  0  0
   38.2100   27.4370   40.2450 H   0  0  0  0  0  0  0  0  0  0  0  0
   36.0270   26.4080   41.5140 H   0  0  0  0  0  0  0  0  0  0  0  0
   37.6940   26.1880   42.0390 H   0  0  0  0  0  0  0  0  0  0  0  0
   36.3780   26.7700   43.9390 H   0  0  0  0  0  0  0  0  0  0  0  0
   35.8860   28.3730   43.1330 H   0  0  0  0  0  0  0  0  0  0  0  0
   38.7290   27.3580   43.5760 H   0  0  0  0  0  0  0  0  0  0  0  0
   37.8360   28.5150   44.6950 H   0  0  0  0  0  0  0  0  0  0  0  0
   38.7550   30.2620   43.1980 H   0  0  0  0  0  0  0  0  0  0  0  0
   34.1830   29.1300   39.5440 C   0  0  0  0  0  0  0  0  0  0  0  0
   34.2560   28.7240   38.1890 C   0  0  0  0  0  0  0  0  0  0  0  0
   35.4160   28.0470   37.7620 C   0  0  0  0  0  0  0  0  0  0  0  0
   36.3900   27.8240   38.6710 N   0  0  0  0  0  0  0  0  0  0  0  0
   36.3000   28.2170   39.9550 C   0  0  0  0  0  0  0  0  0  0  0  0
   35.2090   28.8660   40.3970 N   0  0  0  0  0  0  0  0  0  0  0  0
   33.2930   29.6500   39.8730 H   0  0  0  0  0  0  0  0  0  0  0  0
   33.4280   28.9480   37.5440 H   0  0  0  0  0  0  0  0  0  0  0  0
   35.4760   27.7330   36.7270 H   0  0  0  0  0  0  0  0  0  0  0  0
   38.3350   30.3540   40.5840 C   0  0  0  0  0  3  0  0  0  0  0  0
   37.4760   31.5880   40.6220 C   0  0  0  0  0  2  0  0  0  0  0  0
   38.8500   31.6360   41.1640 C   0  0  0  0  0  2  0  0  0  0  0  0
  1  7  1  6  0  0  0
  1  6  1  0  0  0  0
  1  2  1  0  0  0  0
  2  9  1  0  0  0  0
  2  3  1  0  0  0  0
  3  4  1  0  0  0  0
  3 10  1  0  0  0  0
  4 13  1  0  0  0  0
  5 14  1  0  0  0  0
  5  4  1  0  0  0  0
  6  5  2  0  0  0  0
  8  2  1  0  0  0  0
 11  3  1  0  0  0  0
 12  4  1  0  0  0  0
 15 21  1  0  0  0  0
 15 20  1  0  0  0  0
 16 15  2  0  0  0  0
 17 16  1  0  0  0  0
 17 18  2  0  0  0  0
 18 19  1  0  0  0  0
 19 20  2  0  0  0  0
 19  1  1  0  0  0  0
 22 16  1  0  0  0  0
 23 17  1  0  0  0  0
 24 25  1  0  0  0  0
 24 26  1  0  0  0  0
 24  6  1  0  0  0  0
 25 26  1  0  0  0  0
M  END
>  <minimizedAffinity>
-4.32056999

$$$$

 OpenBabel03252505013D

 26 28  0  0  1  0  0  0  0  0999 V2000
   37.2730   26.6010   42.5400 C   0  0  2  0  0  0  0  0  0  0  0  0
   36.5700   27.8260   42.0820 C   0  0  0  0  0  0  0  0  0  0  0  0
   37.4560   28.9750   41.7320 C   0  0  0  0  0  0  0  0  0  0  0  0
   38.2310   29.2560   43.0090 C   0  0  0  0  0  0  0  0  0  0  0  0
   39.1800   28.1480   43.3080 C   0  0  0  0  0  0  0  0  0  0  0  0
   38.6410   26.7790   43.0360 C   0  0  0  0  0  0  0  0  0  0  0  0
   36.6720   26.1260   43.3740 H   0  0  0  0  0  0  0  0  0  0  0  0
   35.8640   27.6100   41.2340 H   0  0  0  0  0  0  0  0  0  0  0  0
   35.8990   28.1800   42.9000 H   0  0  0  0  0  0  0  0  0  0  0  0
   36.8640   29.8590   41.5090 H   0  0  0  0  0  0  0  0  0  0  0  0
   38.1670   28.6610   40.9340 H   0  0  0  0  0  0  0  0  0  0  0  0
   37.4930   29.3650   43.8260 H   0  0  0  0  0  0  0  0  0  0  0  0
   38.8390   30.1410   42.8380 H   0  0  0  0  0  0  0  0  0  0  0  0
   40.1950   28.2450   43.6760 H   0  0  0  0  0  0  0  0  0  0  0  0
   36.5730   23.5530   40.5700 C   0  0  0  0  0  0  0  0  0  0  0  0
   37.1290   23.8830   39.3100 C   0  0  0  0  0  0  0  0  0  0  0  0
   37.7370   25.1460   39.1640 C   0  0  0  0  0  0  0  0  0  0  0  0
   37.7550   25.9670   40.2360 N   0  0  0  0  0  0  0  0  0  0  0  0
   37.2220   25.6350   41.4250 C   0  0  0  0  0  0  0  0  0  0  0  0
   36.6320   24.4390   41.6010 N   0  0  0  0  0  0  0  0  0  0  0  0
   36.1050   22.5840   40.6840 H   0  0  0  0  0  0  0  0  0  0  0  0
   37.0640   23.1600   38.5190 H   0  0  0  0  0  0  0  0  0  0  0  0
   38.1650   25.4020   38.2030 H   0  0  0  0  0  0  0  0  0  0  0  0
   39.5790   25.6960   43.3080 C   0  0  0  0  0  3  0  0  0  0  0  0
   40.6800   25.3640   42.3380 C   0  0  0  0  0  2  0  0  0  0  0  0
   41.0160   25.9230   43.6640 C   0  0  0  0  0  2  0  0  0  0  0  0
  1  6  1  0  0  0  0
  1  7  1  1  0  0  0
  2  1  1  0  0  0  0
  2  9  1  0  0  0  0
  3  2  1  0  0  0  0
  3  4  1  0  0  0  0
  4  5  1  0  0  0  0
  4 12  1  0  0  0  0
  5 14  1  0  0  0  0
  6  5  2  0  0  0  0
  6 24  1  0  0  0  0
  8  2  1  0  0  0  0
 10  3  1  0  0  0  0
 11  3  1  0  0  0  0
 13  4  1  0  0  0  0
 15 21  1  0  0  0  0
 15 20  1  0  0  0  0
 16 15  2  0  0  0  0
 17 16  1  0  0  0  0
 17 18  2  0  0  0  0
 18 19  1  0  0  0  0
 19 20  2  0  0  0  0
 19  1  1  0  0  0  0
 22 16  1  0  0  0  0
 23 17  1  0  0  0  0
 24 26  1  0  0  0  0
 25 24  1  0  0  0  0
 25 26  1  0  0  0  0
M  END
>  <minimizedAffinity>
-4.29738426

$$$$

 OpenBabel03252505013D

 26 28  0  0  1  0  0  0  0  0999 V2000
   37.1730   27.2050   42.4220 C   0  0  2  0  0  0  0  0  0  0  0  0
   37.9270   27.5740   43.6460 C   0  0  0  0  0  0  0  0  0  0  0  0
   39.3820   27.2410   43.6220 C   0  0  0  0  0  0  0  0  0  0  0  0
   39.4210   25.7360   43.4100 C   0  0  0  0  0  0  0  0  0  0  0  0
   38.9490   25.3810   42.0440 C   0  0  0  0  0  0  0  0  0  0  0  0
   37.7800   26.1830   41.5630 C   0  0  0  0  0  0  0  0  0  0  0  0
   36.1500   26.8260   42.7240 H   0  0  0  0  0  0  0  0  0  0  0  0
   37.7820   28.6560   43.9150 H   0  0  0  0  0  0  0  0  0  0  0  0
   37.4910   27.0250   44.5140 H   0  0  0  0  0  0  0  0  0  0  0  0
   39.8360   27.4460   44.5890 H   0  0  0  0  0  0  0  0  0  0  0  0
   39.8600   27.7460   42.7520 H   0  0  0  0  0  0  0  0  0  0  0  0
   38.7700   25.2770   44.1770 H   0  0  0  0  0  0  0  0  0  0  0  0
   40.4610   25.4220   43.4650 H   0  0  0  0  0  0  0  0  0  0  0  0
   39.3730   24.6310   41.3850 H   0  0  0  0  0  0  0  0  0  0  0  0
   37.6780   30.5040   40.8370 C   0  0  0  0  0  0  0  0  0  0  0  0
   36.4060   30.7550   40.2660 C   0  0  0  0  0  0  0  0  0  0  0  0
   35.3980   29.7850   40.4420 C   0  0  0  0  0  0  0  0  0  0  0  0
   35.7050   28.6740   41.1450 N   0  0  0  0  0  0  0  0  0  0  0  0
   36.9210   28.4550   41.6800 C   0  0  0  0  0  0  0  0  0  0  0  0
   37.9060   29.3580   41.5310 N   0  0  0  0  0  0  0  0  0  0  0  0
   38.4520   31.2480   40.7020 H   0  0  0  0  0  0  0  0  0  0  0  0
   36.2600   31.6700   39.7240 H   0  0  0  0  0  0  0  0  0  0  0  0
   34.4240   29.9720   40.0090 H   0  0  0  0  0  0  0  0  0  0  0  0
   37.3320   25.8490   40.2160 C   0  0  0  0  0  3  0  0  0  0  0  0
   38.0400   26.3980   39.0080 C   0  0  0  0  0  2  0  0  0  0  0  0
   38.0970   24.9490   39.2950 C   0  0  0  0  0  2  0  0  0  0  0  0
  1  7  1  1  0  0  0
  1  2  1  0  0  0  0
  2  8  1  0  0  0  0
  2  9  1  0  0  0  0
  3  2  1  0  0  0  0
  3 10  1  0  0  0  0
  4 13  1  0  0  0  0
  4  3  1  0  0  0  0
  4 12  1  0  0  0  0
  5  4  1  0  0  0  0
  6  5  2  0  0  0  0
  6  1  1  0  0  0  0
 11  3  1  0  0  0  0
 14  5  1  0  0  0  0
 15 20  1  0  0  0  0
 16 17  1  0  0  0  0
 16 15  2  0  0  0  0
 17 18  2  0  0  0  0
 18 19  1  0  0  0  0
 19  1  1  0  0  0  0
 20 19  2  0  0  0  0
 21 15  1  0  0  0  0
 22 16  1  0  0  0  0
 23 17  1  0  0  0  0
 24  6  1  0  0  0  0
 25 26  1  0  0  0  0
 25 24  1  0  0  0  0
 26 24  1  0  0  0  0
M  END
>  <minimizedAffinity>
-4.28796005

$$$$
