
 OpenBabel03252508543D

 37 40  0  0  1  0  0  0  0  0999 V2000
   43.3510   34.4380   40.7950 C   0  0  0  0  0  0  0  0  0  0  0  0
   43.2720   35.6830   40.4930 O   0  0  0  0  0  0  0  0  0  0  0  0
   41.9970   34.0350   40.4710 N   0  0  0  0  0  0  0  0  0  0  0  0
   41.6110   34.2370   39.0860 C   0  0  0  0  0  0  0  0  0  0  0  0
   40.7840   35.5380   39.0840 C   0  0  0  0  0  0  0  0  0  0  0  0
   39.9940   35.5440   40.3880 C   0  0  0  0  0  0  0  0  0  0  0  0
   39.6760   34.1130   40.8340 C   0  0  0  0  0  0  0  0  0  0  0  0
   40.9640   33.4610   41.3140 C   0  0  1  0  0  0  0  0  0  0  0  0
   41.0240   33.4000   38.6770 H   0  0  0  0  0  0  0  0  0  0  0  0
   42.4480   34.4220   38.4060 H   0  0  0  0  0  0  0  0  0  0  0  0
   41.4840   36.3970   39.1670 H   0  0  0  0  0  0  0  0  0  0  0  0
   40.1350   35.6050   38.1900 H   0  0  0  0  0  0  0  0  0  0  0  0
   39.0560   36.0770   40.2080 H   0  0  0  0  0  0  0  0  0  0  0  0
   40.5800   36.0110   41.2040 H   0  0  0  0  0  0  0  0  0  0  0  0
   38.8950   34.1400   41.5940 H   0  0  0  0  0  0  0  0  0  0  0  0
   39.3990   33.5670   39.9020 H   0  0  0  0  0  0  0  0  0  0  0  0
   41.1790   33.8000   42.3440 H   0  0  0  0  0  0  0  0  0  0  0  0
   40.8910   31.9540   41.2080 C   0  0  0  0  0  0  0  0  0  0  0  0
   39.5310   31.3640   41.3480 C   0  0  0  0  0  0  0  0  0  0  0  0
   40.5290   31.2690   42.4790 C   0  0  0  0  0  0  0  0  0  0  0  0
   44.4260   33.7480   41.2790 O   0  0  0  0  0  0  0  0  0  0  0  0
   45.7520   34.0970   41.1120 C   0  0  0  0  0  0  0  0  0  0  0  0
   46.3900   34.7410   42.1820 C   0  0  0  0  0  0  0  0  0  0  0  0
   47.7410   35.0910   41.9970 C   0  0  0  0  0  0  0  0  0  0  0  0
   48.3370   34.7840   40.8070 N   0  0  0  0  0  0  0  0  0  0  0  0
   47.6810   34.1690   39.8230 C   0  0  0  0  0  0  0  0  0  0  0  0
   46.3880   33.8250   39.9740 N   0  0  0  0  0  0  0  0  0  0  0  0
   48.2610   35.5900   42.8060 H   0  0  0  0  0  0  0  0  0  0  0  0
   48.2120   33.9530   38.8990 H   0  0  0  0  0  0  0  0  0  0  0  0
   45.6620   35.0200   43.4060 C   0  0  0  0  0  0  0  0  0  0  0  0
   45.0210   36.2200   43.6350 C   0  0  0  0  0  0  0  0  0  0  0  0
   44.4640   36.0830   44.8830 C   0  0  0  0  0  0  0  0  0  0  0  0
   44.7550   34.8570   45.3780 N   0  0  0  0  0  0  0  0  0  0  0  0
   45.4750   34.2410   44.4700 N   0  0  0  0  0  0  0  0  0  0  0  0
   44.9740   37.0840   42.9710 H   0  0  0  0  0  0  0  0  0  0  0  0
   43.8800   36.8960   45.3410 H   0  0  0  0  0  0  0  0  0  0  0  0
   44.4190   34.5540   46.3260 H   0  0  0  0  0  0  0  0  0  0  0  0
  1 21  1  0  0  0  0
  2  1  2  0  0  0  0
  3  1  1  0  0  0  0
  3  8  1  0  0  0  0
  4  3  1  0  0  0  0
  5  4  1  0  0  0  0
  5 11  1  0  0  0  0
  5  6  1  0  0  0  0
  6  7  1  0  0  0  0
  6 14  1  0  0  0  0
  7  8  1  0  0  0  0
  7 15  1  0  0  0  0
  8 17  1  1  0  0  0
  9  4  1  0  0  0  0
 10  4  1  0  0  0  0
 12  5  1  0  0  0  0
 13  6  1  0  0  0  0
 16  7  1  0  0  0  0
 18  8  1  0  0  0  0
 18 19  1  0  0  0  0
 18 20  1  0  0  0  0
 19 20  1  0  0  0  0
 22 21  1  0  0  0  0
 22 23  1  0  0  0  0
 23 30  1  0  0  0  0
 24 23  2  0  0  0  0
 24 28  1  0  0  0  0
 25 24  1  0  0  0  0
 26 27  1  0  0  0  0
 26 25  2  0  0  0  0
 27 22  2  0  0  0  0
 29 26  1  0  0  0  0
 30 31  1  0  0  0  0
 30 34  2  0  0  0  0
 31 32  2  0  0  0  0
 32 36  1  0  0  0  0
 32 33  1  0  0  0  0
 33 37  1  0  0  0  0
 34 33  1  0  0  0  0
 35 31  1  0  0  0  0
M  END
>  <minimizedAffinity>
-6.44847202

>  <minimizedRMSD>
0.167428911

$$$$
