
 OpenBabel03252506063D

 37 41  0  0  0  0  0  0  0  0999 V2000
   44.8140   35.9940   43.2430 Cl  0  0  0  0  0  0  0  0  0  0  0  0
   45.5590   34.7450   44.2020 C   0  0  0  0  0  0  0  0  0  0  0  0
   46.6540   34.0610   43.7120 C   0  0  0  0  0  0  0  0  0  0  0  0
   47.1680   33.0950   44.5460 C   0  0  0  0  0  0  0  0  0  0  0  0
   46.6650   32.7850   45.7960 C   0  0  0  0  0  0  0  0  0  0  0  0
   45.5770   33.4850   46.2490 C   0  0  0  0  0  0  0  0  0  0  0  0
   44.9720   33.0630   47.8340 Cl  0  0  0  0  0  0  0  0  0  0  0  0
   45.0320   34.4580   45.4500 C   0  0  0  0  0  0  0  0  0  0  0  0
   48.0370   32.5530   44.1570 H   0  0  0  0  0  0  0  0  0  0  0  0
   44.1760   34.9740   45.8610 H   0  0  0  0  0  0  0  0  0  0  0  0
   47.3560   31.7190   46.5340 C   0  0  0  0  0  0  0  0  0  0  0  0
   47.4710   30.4230   46.0570 C   0  0  0  0  0  0  0  0  0  0  0  0
   48.1180   29.4220   46.7460 C   0  0  0  0  0  0  0  0  0  0  0  0
   48.6870   29.6820   47.9630 C   0  0  0  0  0  0  0  0  0  0  0  0
   49.3060   28.6820   48.6010 N   0  0  0  0  0  0  0  0  0  0  0  0
   49.8940   28.8640   49.8090 C   0  0  0  0  0  0  0  0  0  0  0  0
   49.8230   30.1390   50.3590 C   0  0  0  0  0  0  0  0  0  0  0  0
   49.1900   31.1530   49.7030 C   0  0  0  0  0  0  0  0  0  0  0  0
   48.5960   30.9620   48.4750 C   0  0  0  0  0  0  0  0  0  0  0  0
   47.9460   31.9640   47.7810 C   0  0  0  0  0  0  0  0  0  0  0  0
   47.0000   30.2820   45.0920 H   0  0  0  0  0  0  0  0  0  0  0  0
   48.1640   28.4300   46.3020 H   0  0  0  0  0  0  0  0  0  0  0  0
   50.3710   28.0140   50.2580 H   0  0  0  0  0  0  0  0  0  0  0  0
   50.2970   30.2710   51.3260 H   0  0  0  0  0  0  0  0  0  0  0  0
   49.1440   32.1410   50.1450 H   0  0  0  0  0  0  0  0  0  0  0  0
   47.8890   32.9520   48.2010 H   0  0  0  0  0  0  0  0  0  0  0  0
   48.7990   35.4920   41.1450 C   0  0  0  0  0  0  0  0  0  0  0  0
   48.3390   34.8990   39.9690 C   0  0  0  0  0  0  0  0  0  0  0  0
   47.2550   33.9750   40.0540 C   0  0  0  0  0  0  0  0  0  0  0  0
   46.7670   33.7590   41.2910 N   0  0  0  0  0  0  0  0  0  0  0  0
   47.2290   34.3410   42.4050 C   0  0  0  0  0  0  0  0  0  0  0  0
   48.2540   35.2190   42.3410 N   0  0  0  0  0  0  0  0  0  0  0  0
   49.6280   36.1930   41.0460 H   0  0  0  0  0  0  0  0  0  0  0  0
   48.7310   35.0790   39.0030 H   0  0  0  0  0  0  0  0  0  0  0  0
   46.6830   33.2850   38.8730 C   0  0  0  0  0  0  0  0  0  0  0  0
   47.4420   32.2920   38.1110 C   0  0  0  0  0  0  0  0  0  0  0  0
   47.3770   33.6850   37.5370 C   0  0  0  0  0  0  0  0  0  0  0  0
  1  2  1  0  0  0  0
  2  8  1  0  0  0  0
  3  2  2  0  0  0  0
  3  4  1  0  0  0  0
  4  5  2  0  0  0  0
  5  6  1  0  0  0  0
  5 11  1  0  0  0  0
  6  7  1  0  0  0  0
  8 10  1  0  0  0  0
  8  6  2  0  0  0  0
  9  4  1  0  0  0  0
 11 20  1  0  0  0  0
 12 11  2  0  0  0  0
 12 13  1  0  0  0  0
 13 14  2  0  0  0  0
 14 19  1  0  0  0  0
 14 15  1  0  0  0  0
 15 16  2  0  0  0  0
 16 23  1  0  0  0  0
 16 17  1  0  0  0  0
 17 24  1  0  0  0  0
 18 25  1  0  0  0  0
 18 17  2  0  0  0  0
 19 18  1  0  0  0  0
 20 26  1  0  0  0  0
 20 19  2  0  0  0  0
 21 12  1  0  0  0  0
 22 13  1  0  0  0  0
 27 32  1  0  0  0  0
 28 29  1  0  0  0  0
 28 27  2  0  0  0  0
 29 30  2  0  0  0  0
 30 31  1  0  0  0  0
 31  3  1  0  0  0  0
 32 31  2  0  0  0  0
 33 27  1  0  0  0  0
 34 28  1  0  0  0  0
 35 29  1  0  0  0  0
 36 35  1  0  0  0  0
 37 36  1  0  0  0  0
 37 35  1  0  0  0  0
M  END
>  <minimizedAffinity>
-6.82274532

>  <minimizedRMSD>
0.141201526

$$$$
