
 OpenBabel03252505403D

 22 24  0  0  1  0  0  0  0  0999 V2000
   37.6650   29.0920   41.5570 C   0  0  0  0  0  0  0  0  0  0  0  0
   36.3320   29.3870   41.1680 C   0  0  0  0  0  0  0  0  0  0  0  0
   36.0570   30.6620   40.6910 C   0  0  0  0  0  0  0  0  0  0  0  0
   37.0800   31.5520   40.6260 N   0  0  0  0  0  0  0  0  0  0  0  0
   38.3410   31.2310   41.0080 C   0  0  0  0  0  0  0  0  0  0  0  0
   38.6280   29.9890   41.4750 N   0  0  0  0  0  0  0  0  0  0  0  0
   35.5380   28.6460   41.2360 H   0  0  0  0  0  0  0  0  0  0  0  0
   35.0780   30.9410   40.3850 H   0  0  0  0  0  0  0  0  0  0  0  0
   37.9650   27.7320   42.0830 C   0  0  1  0  0  0  0  0  0  0  0  0
   37.7240   27.5760   43.5960 C   0  0  0  0  0  0  0  0  0  0  0  0
   36.9020   26.8530   42.5750 C   0  0  2  0  0  0  0  0  0  0  0  0
   38.9810   27.3940   41.7390 H   0  0  0  0  0  0  0  0  0  0  0  0
   37.3600   28.4560   44.1370 H   0  0  0  0  0  0  0  0  0  0  0  0
   38.5170   26.9990   44.1090 H   0  0  0  0  0  0  0  0  0  0  0  0
   35.8760   27.2600   42.4610 H   0  0  0  0  0  0  0  0  0  0  0  0
   36.9860   25.3520   42.4650 C   0  0  0  0  0  3  0  0  0  0  0  0
   36.9400   24.6710   41.1290 C   0  0  0  0  0  2  0  0  0  0  0  0
   38.2030   24.6560   41.9940 C   0  0  0  0  0  2  0  0  0  0  0  0
   39.3130   32.3650   40.8630 C   0  0  0  0  0  0  0  0  0  0  0  0
   40.4660   32.1390   41.5750 F   0  0  0  0  0  0  0  0  0  0  0  0
   38.7300   33.5450   41.3340 F   0  0  0  0  0  0  0  0  0  0  0  0
   39.5560   32.5780   39.5110 F   0  0  0  0  0  0  0  0  0  0  0  0
  1  9  1  0  0  0  0
  2  7  1  0  0  0  0
  2  1  2  0  0  0  0
  3  2  1  0  0  0  0
  4  3  2  0  0  0  0
  4  5  1  0  0  0  0
  5  6  2  0  0  0  0
  6  1  1  0  0  0  0
  8  3  1  0  0  0  0
  9 12  1  6  0  0  0
  9 11  1  0  0  0  0
  9 10  1  0  0  0  0
 10 14  1  0  0  0  0
 10 13  1  0  0  0  0
 11 15  1  6  0  0  0
 11 10  1  0  0  0  0
 16 11  1  0  0  0  0
 17 18  1  0  0  0  0
 17 16  1  0  0  0  0
 18 16  1  0  0  0  0
 19  5  1  0  0  0  0
 19 21  1  0  0  0  0
 19 20  1  0  0  0  0
 22 19  1  0  0  0  0
M  END
>  <minimizedAffinity>
-4.67342854

$$$$

 OpenBabel03252505403D

 22 24  0  0  1  0  0  0  0  0999 V2000
   37.6690   26.9450   41.8450 C   0  0  0  0  0  0  0  0  0  0  0  0
   38.3210   27.4940   42.9800 C   0  0  0  0  0  0  0  0  0  0  0  0
   38.1230   28.8400   43.2610 C   0  0  0  0  0  0  0  0  0  0  0  0
   37.3170   29.5510   42.4320 N   0  0  0  0  0  0  0  0  0  0  0  0
   36.7120   28.9900   41.3560 C   0  0  0  0  0  0  0  0  0  0  0  0
   36.8940   27.6760   41.0670 N   0  0  0  0  0  0  0  0  0  0  0  0
   38.9600   26.8900   43.6210 H   0  0  0  0  0  0  0  0  0  0  0  0
   38.5840   29.3050   44.0970 H   0  0  0  0  0  0  0  0  0  0  0  0
   37.8880   25.5070   41.5280 C   0  0  1  0  0  0  0  0  0  0  0  0
   36.8540   24.5590   42.1630 C   0  0  0  0  0  0  0  0  0  0  0  0
   36.9520   24.7620   40.6830 C   0  0  2  0  0  0  0  0  0  0  0  0
   38.9580   25.2210   41.7210 H   0  0  0  0  0  0  0  0  0  0  0  0
   36.0680   25.0150   42.7740 H   0  0  0  0  0  0  0  0  0  0  0  0
   37.3030   23.6360   42.5780 H   0  0  0  0  0  0  0  0  0  0  0  0
   36.1240   25.3700   40.2610 H   0  0  0  0  0  0  0  0  0  0  0  0
   37.3980   23.6290   39.7940 C   0  0  0  0  0  3  0  0  0  0  0  0
   38.8510   23.2820   39.6560 C   0  0  0  0  0  2  0  0  0  0  0  0
   37.8600   22.3310   40.3310 C   0  0  0  0  0  2  0  0  0  0  0  0
   35.8760   29.9580   40.5710 C   0  0  0  0  0  0  0  0  0  0  0  0
   34.6060   29.4770   40.3610 F   0  0  0  0  0  0  0  0  0  0  0  0
   36.4700   30.1890   39.3280 F   0  0  0  0  0  0  0  0  0  0  0  0
   35.8790   31.1850   41.2240 F   0  0  0  0  0  0  0  0  0  0  0  0
  1  2  1  0  0  0  0
  2  3  2  0  0  0  0
  2  7  1  0  0  0  0
  3  8  1  0  0  0  0
  4  3  1  0  0  0  0
  5  4  2  0  0  0  0
  6  5  1  0  0  0  0
  6  1  2  0  0  0  0
  9 12  1  6  0  0  0
  9  1  1  0  0  0  0
  9 10  1  0  0  0  0
 10 14  1  0  0  0  0
 10 13  1  0  0  0  0
 11 15  1  6  0  0  0
 11  9  1  0  0  0  0
 11 10  1  0  0  0  0
 16 18  1  0  0  0  0
 16 11  1  0  0  0  0
 17 16  1  0  0  0  0
 17 18  1  0  0  0  0
 19 22  1  0  0  0  0
 19  5  1  0  0  0  0
 20 19  1  0  0  0  0
 21 19  1  0  0  0  0
M  END
>  <minimizedAffinity>
-4.62691927

$$$$

 OpenBabel03252505403D

 22 24  0  0  1  0  0  0  0  0999 V2000
   37.6540   28.9350   41.2260 C   0  0  0  0  0  0  0  0  0  0  0  0
   37.7630   29.4490   42.5450 C   0  0  0  0  0  0  0  0  0  0  0  0
   37.7660   28.5470   43.6010 C   0  0  0  0  0  0  0  0  0  0  0  0
   37.6630   27.2260   43.3100 N   0  0  0  0  0  0  0  0  0  0  0  0
   37.5610   26.7730   42.0360 C   0  0  0  0  0  0  0  0  0  0  0  0
   37.5580   27.6410   40.9910 N   0  0  0  0  0  0  0  0  0  0  0  0
   37.8430   30.5180   42.7370 H   0  0  0  0  0  0  0  0  0  0  0  0
   37.8450   28.8750   44.6090 H   0  0  0  0  0  0  0  0  0  0  0  0
   37.6350   29.8960   40.0890 C   0  0  1  0  0  0  0  0  0  0  0  0
   36.2220   30.3290   39.6560 C   0  0  0  0  0  0  0  0  0  0  0  0
   37.1990   31.2820   40.2700 C   0  0  2  0  0  0  0  0  0  0  0  0
   38.2820   29.5220   39.2490 H   0  0  0  0  0  0  0  0  0  0  0  0
   35.3780   29.9040   40.2100 H   0  0  0  0  0  0  0  0  0  0  0  0
   36.0950   30.3720   38.5570 H   0  0  0  0  0  0  0  0  0  0  0  0
   36.9540   31.5570   41.3170 H   0  0  0  0  0  0  0  0  0  0  0  0
   37.7640   32.4150   39.4510 C   0  0  0  0  0  3  0  0  0  0  0  0
   37.1050   33.7620   39.4380 C   0  0  0  0  0  2  0  0  0  0  0  0
   38.4880   33.5520   40.0590 C   0  0  0  0  0  2  0  0  0  0  0  0
   37.4480   25.2800   41.9420 C   0  0  0  0  0  0  0  0  0  0  0  0
   37.3530   24.8590   40.6380 F   0  0  0  0  0  0  0  0  0  0  0  0
   36.3070   24.8520   42.6260 F   0  0  0  0  0  0  0  0  0  0  0  0
   38.5250   24.7060   42.6090 F   0  0  0  0  0  0  0  0  0  0  0  0
  1  2  1  0  0  0  0
  2  7  1  0  0  0  0
  2  3  2  0  0  0  0
  3  8  1  0  0  0  0
  4  3  1  0  0  0  0
  5  4  2  0  0  0  0
  6  1  2  0  0  0  0
  6  5  1  0  0  0  0
  9 12  1  6  0  0  0
  9 11  1  0  0  0  0
  9  1  1  0  0  0  0
 10  9  1  0  0  0  0
 10 13  1  0  0  0  0
 10 11  1  0  0  0  0
 11 15  1  1  0  0  0
 14 10  1  0  0  0  0
 16 18  1  0  0  0  0
 16 11  1  0  0  0  0
 17 16  1  0  0  0  0
 17 18  1  0  0  0  0
 19  5  1  0  0  0  0
 19 22  1  0  0  0  0
 19 21  1  0  0  0  0
 20 19  1  0  0  0  0
M  END
>  <minimizedAffinity>
-4.53934908

$$$$

 OpenBabel03252505403D

 22 24  0  0  1  0  0  0  0  0999 V2000
   37.6040   29.2460   40.0640 C   0  0  0  0  0  0  0  0  0  0  0  0
   37.3220   28.4210   38.9440 C   0  0  0  0  0  0  0  0  0  0  0  0
   36.9100   27.1160   39.1790 C   0  0  0  0  0  0  0  0  0  0  0  0
   36.8020   26.7050   40.4680 N   0  0  0  0  0  0  0  0  0  0  0  0
   37.0810   27.5240   41.5130 C   0  0  0  0  0  0  0  0  0  0  0  0
   37.4840   28.8040   41.3010 N   0  0  0  0  0  0  0  0  0  0  0  0
   37.4220   28.7870   37.9230 H   0  0  0  0  0  0  0  0  0  0  0  0
   36.6850   26.4530   38.3800 H   0  0  0  0  0  0  0  0  0  0  0  0
   38.0610   30.6420   39.8200 C   0  0  1  0  0  0  0  0  0  0  0  0
   36.9160   31.6550   39.6360 C   0  0  0  0  0  0  0  0  0  0  0  0
   37.8430   31.6980   40.8110 C   0  0  2  0  0  0  0  0  0  0  0  0
   38.8350   30.6640   39.0050 H   0  0  0  0  0  0  0  0  0  0  0  0
   35.8930   31.2690   39.7010 H   0  0  0  0  0  0  0  0  0  0  0  0
   37.0990   32.3790   38.8200 H   0  0  0  0  0  0  0  0  0  0  0  0
   37.3780   31.3560   41.7580 H   0  0  0  0  0  0  0  0  0  0  0  0
   38.7980   32.8540   40.9760 C   0  0  0  0  0  3  0  0  0  0  0  0
   40.1430   32.8450   40.3120 C   0  0  0  0  0  2  0  0  0  0  0  0
   39.0510   33.8360   39.8990 C   0  0  0  0  0  2  0  0  0  0  0  0
   36.9060   26.8650   42.8490 C   0  0  0  0  0  0  0  0  0  0  0  0
   35.8910   27.4440   43.5710 F   0  0  0  0  0  0  0  0  0  0  0  0
   38.0880   26.9770   43.5850 F   0  0  0  0  0  0  0  0  0  0  0  0
   36.7110   25.5020   42.6540 F   0  0  0  0  0  0  0  0  0  0  0  0
  1  6  1  0  0  0  0
  2  3  1  0  0  0  0
  2  1  2  0  0  0  0
  3  4  2  0  0  0  0
  4  5  1  0  0  0  0
  5 19  1  0  0  0  0
  6  5  2  0  0  0  0
  7  2  1  0  0  0  0
  8  3  1  0  0  0  0
  9 12  1  6  0  0  0
  9  1  1  0  0  0  0
  9 11  1  0  0  0  0
 10 13  1  0  0  0  0
 10  9  1  0  0  0  0
 10 11  1  0  0  0  0
 11 16  1  0  0  0  0
 11 15  1  1  0  0  0
 14 10  1  0  0  0  0
 17 16  1  0  0  0  0
 18 17  1  0  0  0  0
 18 16  1  0  0  0  0
 19 20  1  0  0  0  0
 19 21  1  0  0  0  0
 22 19  1  0  0  0  0
M  END
>  <minimizedAffinity>
-4.32048225

$$$$

 OpenBabel03252505403D

 22 24  0  0  1  0  0  0  0  0999 V2000
   38.9100   28.3390   42.3330 C   0  0  0  0  0  0  0  0  0  0  0  0
   39.9910   28.0040   43.1890 C   0  0  0  0  0  0  0  0  0  0  0  0
   40.1530   26.6730   43.5480 C   0  0  0  0  0  0  0  0  0  0  0  0
   39.2670   25.7690   43.0590 N   0  0  0  0  0  0  0  0  0  0  0  0
   38.2460   26.1280   42.2430 C   0  0  0  0  0  0  0  0  0  0  0  0
   38.0730   27.4250   41.8800 N   0  0  0  0  0  0  0  0  0  0  0  0
   40.6810   28.7590   43.5620 H   0  0  0  0  0  0  0  0  0  0  0  0
   40.9440   26.3630   44.1870 H   0  0  0  0  0  0  0  0  0  0  0  0
   38.7190   29.7660   41.9550 C   0  0  1  0  0  0  0  0  0  0  0  0
   39.4940   30.1910   40.6940 C   0  0  0  0  0  0  0  0  0  0  0  0
   37.9990   30.1420   40.7360 C   0  0  2  0  0  0  0  0  0  0  0  0
   38.8820   30.4320   42.8450 H   0  0  0  0  0  0  0  0  0  0  0  0
   40.1000   29.4250   40.1980 H   0  0  0  0  0  0  0  0  0  0  0  0
   39.9710   31.1860   40.7880 H   0  0  0  0  0  0  0  0  0  0  0  0
   37.5660   29.2890   40.1730 H   0  0  0  0  0  0  0  0  0  0  0  0
   37.1990   31.4160   40.6360 C   0  0  0  0  0  3  0  0  0  0  0  0
   37.8770   32.7410   40.4490 C   0  0  0  0  0  2  0  0  0  0  0  0
   36.9960   32.1290   39.3570 C   0  0  0  0  0  2  0  0  0  0  0  0
   37.3810   24.9740   41.8280 C   0  0  0  0  0  0  0  0  0  0  0  0
   36.3100   24.8140   42.6730 F   0  0  0  0  0  0  0  0  0  0  0  0
   38.1320   23.7960   41.8440 F   0  0  0  0  0  0  0  0  0  0  0  0
   36.9930   25.1560   40.5060 F   0  0  0  0  0  0  0  0  0  0  0  0
  1  2  1  0  0  0  0
  2  3  2  0  0  0  0
  2  7  1  0  0  0  0
  3  8  1  0  0  0  0
  4  3  1  0  0  0  0
  5  4  2  0  0  0  0
  6  5  1  0  0  0  0
  6  1  2  0  0  0  0
  9  1  1  0  0  0  0
  9 12  1  1  0  0  0
 10 11  1  0  0  0  0
 10 14  1  0  0  0  0
 10  9  1  0  0  0  0
 11 15  1  6  0  0  0
 11  9  1  0  0  0  0
 13 10  1  0  0  0  0
 16 11  1  0  0  0  0
 17 16  1  0  0  0  0
 18 17  1  0  0  0  0
 18 16  1  0  0  0  0
 19 21  1  0  0  0  0
 19  5  1  0  0  0  0
 19 20  1  0  0  0  0
 22 19  1  0  0  0  0
M  END
>  <minimizedAffinity>
-4.31405687

$$$$

 OpenBabel03252505403D

 22 24  0  0  1  0  0  0  0  0999 V2000
   36.5020   28.3960   39.5170 C   0  0  0  0  0  0  0  0  0  0  0  0
   37.4490   29.4540   39.5460 C   0  0  0  0  0  0  0  0  0  0  0  0
   38.1900   29.6380   40.7060 C   0  0  0  0  0  0  0  0  0  0  0  0
   37.9650   28.7950   41.7450 N   0  0  0  0  0  0  0  0  0  0  0  0
   37.0510   27.7950   41.6800 C   0  0  0  0  0  0  0  0  0  0  0  0
   36.3180   27.6000   40.5530 N   0  0  0  0  0  0  0  0  0  0  0  0
   37.6000   30.1100   38.6900 H   0  0  0  0  0  0  0  0  0  0  0  0
   38.9120   30.4130   40.7850 H   0  0  0  0  0  0  0  0  0  0  0  0
   35.6920   28.2010   38.2830 C   0  0  1  0  0  0  0  0  0  0  0  0
   34.2620   28.7640   38.3750 C   0  0  0  0  0  0  0  0  0  0  0  0
   35.2900   29.3360   37.4490 C   0  0  2  0  0  0  0  0  0  0  0  0
   35.7490   27.1320   37.9430 H   0  0  0  0  0  0  0  0  0  0  0  0
   33.9750   29.2470   39.3150 H   0  0  0  0  0  0  0  0  0  0  0  0
   33.5000   28.0940   37.9330 H   0  0  0  0  0  0  0  0  0  0  0  0
   35.6880   30.3170   37.7790 H   0  0  0  0  0  0  0  0  0  0  0  0
   35.1130   29.2130   35.9570 C   0  0  0  0  0  3  0  0  0  0  0  0
   36.1970   29.6410   35.0130 C   0  0  0  0  0  2  0  0  0  0  0  0
   35.7950   28.1710   35.1590 C   0  0  0  0  0  2  0  0  0  0  0  0
   36.9560   26.9920   42.9430 C   0  0  0  0  0  0  0  0  0  0  0  0
   38.1130   27.0670   43.6800 F   0  0  0  0  0  0  0  0  0  0  0  0
   36.7220   25.6510   42.6290 F   0  0  0  0  0  0  0  0  0  0  0  0
   35.8410   27.4120   43.6600 F   0  0  0  0  0  0  0  0  0  0  0  0
  1  2  2  0  0  0  0
  1  6  1  0  0  0  0
  2  3  1  0  0  0  0
  3  8  1  0  0  0  0
  3  4  2  0  0  0  0
  5  4  1  0  0  0  0
  5 19  1  0  0  0  0
  6  5  2  0  0  0  0
  7  2  1  0  0  0  0
  9 12  1  6  0  0  0
  9 10  1  0  0  0  0
  9  1  1  0  0  0  0
 10 13  1  0  0  0  0
 11 15  1  1  0  0  0
 11  9  1  0  0  0  0
 11 10  1  0  0  0  0
 14 10  1  0  0  0  0
 16 11  1  0  0  0  0
 17 18  1  0  0  0  0
 17 16  1  0  0  0  0
 18 16  1  0  0  0  0
 19 22  1  0  0  0  0
 19 20  1  0  0  0  0
 21 19  1  0  0  0  0
M  END
>  <minimizedAffinity>
-4.24211502

$$$$

 OpenBabel03252505403D

 22 24  0  0  1  0  0  0  0  0999 V2000
   37.1490   28.1850   40.4850 C   0  0  0  0  0  0  0  0  0  0  0  0
   36.1260   27.7890   39.5830 C   0  0  0  0  0  0  0  0  0  0  0  0
   35.6300   28.7380   38.6990 C   0  0  0  0  0  0  0  0  0  0  0  0
   36.1520   29.9890   38.7490 N   0  0  0  0  0  0  0  0  0  0  0  0
   37.1290   30.3300   39.6260 C   0  0  0  0  0  0  0  0  0  0  0  0
   37.6270   29.4140   40.4970 N   0  0  0  0  0  0  0  0  0  0  0  0
   35.7330   26.7740   39.5730 H   0  0  0  0  0  0  0  0  0  0  0  0
   34.8650   28.4990   38.0010 H   0  0  0  0  0  0  0  0  0  0  0  0
   37.6760   27.1780   41.4460 C   0  0  1  0  0  0  0  0  0  0  0  0
   36.9350   27.1490   42.7960 C   0  0  0  0  0  0  0  0  0  0  0  0
   36.8870   26.0060   41.8310 C   0  0  2  0  0  0  0  0  0  0  0  0
   38.7930   27.2670   41.5330 H   0  0  0  0  0  0  0  0  0  0  0  0
   36.1050   27.8530   42.9250 H   0  0  0  0  0  0  0  0  0  0  0  0
   37.6130   27.0500   43.6650 H   0  0  0  0  0  0  0  0  0  0  0  0
   35.9150   25.9090   41.3040 H   0  0  0  0  0  0  0  0  0  0  0  0
   37.5270   24.6890   42.1900 C   0  0  0  0  0  3  0  0  0  0  0  0
   37.6230   23.5780   41.1860 C   0  0  0  0  0  2  0  0  0  0  0  0
   38.8690   24.2990   41.7060 C   0  0  0  0  0  2  0  0  0  0  0  0
   37.5520   31.7650   39.5190 C   0  0  0  0  0  0  0  0  0  0  0  0
   38.9190   31.8890   39.4760 F   0  0  0  0  0  0  0  0  0  0  0  0
   37.0810   32.4760   40.6250 F   0  0  0  0  0  0  0  0  0  0  0  0
   36.9310   32.3340   38.4130 F   0  0  0  0  0  0  0  0  0  0  0  0
  1  6  1  0  0  0  0
  1  9  1  0  0  0  0
  2  1  2  0  0  0  0
  3  4  2  0  0  0  0
  3  2  1  0  0  0  0
  4  5  1  0  0  0  0
  5  6  2  0  0  0  0
  7  2  1  0  0  0  0
  8  3  1  0  0  0  0
  9 12  1  1  0  0  0
  9 11  1  0  0  0  0
  9 10  1  0  0  0  0
 10 13  1  0  0  0  0
 10 14  1  0  0  0  0
 11 15  1  6  0  0  0
 11 16  1  0  0  0  0
 11 10  1  0  0  0  0
 17 18  1  0  0  0  0
 17 16  1  0  0  0  0
 18 16  1  0  0  0  0
 19  5  1  0  0  0  0
 19 21  1  0  0  0  0
 20 19  1  0  0  0  0
 22 19  1  0  0  0  0
M  END
>  <minimizedAffinity>
-4.23491192

$$$$

 OpenBabel03252505403D

 22 24  0  0  1  0  0  0  0  0999 V2000
   36.7060   28.6250   40.0090 C   0  0  0  0  0  0  0  0  0  0  0  0
   36.2180   29.3460   41.1290 C   0  0  0  0  0  0  0  0  0  0  0  0
   36.1990   30.7330   41.0570 C   0  0  0  0  0  0  0  0  0  0  0  0
   36.6500   31.3170   39.9180 N   0  0  0  0  0  0  0  0  0  0  0  0
   37.1100   30.5930   38.8680 C   0  0  0  0  0  0  0  0  0  0  0  0
   37.1340   29.2360   38.9210 N   0  0  0  0  0  0  0  0  0  0  0  0
   35.8650   28.8410   42.0260 H   0  0  0  0  0  0  0  0  0  0  0  0
   35.8450   31.3260   41.8650 H   0  0  0  0  0  0  0  0  0  0  0  0
   36.7440   27.1380   40.0840 C   0  0  1  0  0  0  0  0  0  0  0  0
   38.1470   26.5350   39.8870 C   0  0  0  0  0  0  0  0  0  0  0  0
   37.4120   26.4480   41.1890 C   0  0  2  0  0  0  0  0  0  0  0  0
   35.9510   26.6930   39.4230 H   0  0  0  0  0  0  0  0  0  0  0  0
   38.9720   27.2340   39.7160 H   0  0  0  0  0  0  0  0  0  0  0  0
   38.1490   25.6320   39.2470 H   0  0  0  0  0  0  0  0  0  0  0  0
   37.8190   27.1180   41.9750 H   0  0  0  0  0  0  0  0  0  0  0  0
   36.9430   25.1110   41.7020 C   0  0  0  0  0  3  0  0  0  0  0  0
   37.1060   23.8670   40.8800 C   0  0  0  0  0  2  0  0  0  0  0  0
   37.8770   24.0710   42.1870 C   0  0  0  0  0  2  0  0  0  0  0  0
   37.5680   31.4380   37.7170 C   0  0  0  0  0  0  0  0  0  0  0  0
   37.1360   30.9350   36.5140 F   0  0  0  0  0  0  0  0  0  0  0  0
   38.9640   31.4850   37.6970 F   0  0  0  0  0  0  0  0  0  0  0  0
   37.1490   32.7470   37.9270 F   0  0  0  0  0  0  0  0  0  0  0  0
  1  9  1  0  0  0  0
  1  2  1  0  0  0  0
  2  7  1  0  0  0  0
  3  2  2  0  0  0  0
  3  8  1  0  0  0  0
  4  3  1  0  0  0  0
  5  6  1  0  0  0  0
  5  4  2  0  0  0  0
  6  1  2  0  0  0  0
  9 12  1  6  0  0  0
  9 11  1  0  0  0  0
 10  9  1  0  0  0  0
 10 11  1  0  0  0  0
 11 16  1  0  0  0  0
 11 15  1  1  0  0  0
 13 10  1  0  0  0  0
 14 10  1  0  0  0  0
 16 18  1  0  0  0  0
 17 16  1  0  0  0  0
 17 18  1  0  0  0  0
 19 22  1  0  0  0  0
 19  5  1  0  0  0  0
 20 19  1  0  0  0  0
 21 19  1  0  0  0  0
M  END
>  <minimizedAffinity>
-4.23367929

$$$$

 OpenBabel03252505403D

 22 24  0  0  1  0  0  0  0  0999 V2000
   37.1200   27.8780   39.0190 C   0  0  0  0  0  0  0  0  0  0  0  0
   37.1400   26.6560   38.2960 C   0  0  0  0  0  0  0  0  0  0  0  0
   37.1000   25.4690   39.0160 C   0  0  0  0  0  0  0  0  0  0  0  0
   37.0440   25.5470   40.3690 N   0  0  0  0  0  0  0  0  0  0  0  0
   37.0270   26.7350   41.0240 C   0  0  0  0  0  0  0  0  0  0  0  0
   37.0640   27.9050   40.3360 N   0  0  0  0  0  0  0  0  0  0  0  0
   37.1860   26.6350   37.2090 H   0  0  0  0  0  0  0  0  0  0  0  0
   37.1130   24.5250   38.5290 H   0  0  0  0  0  0  0  0  0  0  0  0
   37.1780   29.1550   38.2560 C   0  0  1  0  0  0  0  0  0  0  0  0
   35.8020   29.6870   37.8160 C   0  0  0  0  0  0  0  0  0  0  0  0
   36.6550   30.4020   38.8180 C   0  0  2  0  0  0  0  0  0  0  0  0
   37.9330   29.0820   37.4260 H   0  0  0  0  0  0  0  0  0  0  0  0
   34.9240   29.0960   38.0980 H   0  0  0  0  0  0  0  0  0  0  0  0
   35.7960   30.0830   36.7830 H   0  0  0  0  0  0  0  0  0  0  0  0
   36.2820   30.3200   39.8590 H   0  0  0  0  0  0  0  0  0  0  0  0
   37.2490   31.7460   38.4800 C   0  0  0  0  0  3  0  0  0  0  0  0
   37.2400   32.8670   39.4770 C   0  0  0  0  0  2  0  0  0  0  0  0
   38.5440   32.2040   39.0270 C   0  0  0  0  0  2  0  0  0  0  0  0
   36.9740   26.5900   42.5170 C   0  0  0  0  0  0  0  0  0  0  0  0
   36.4990   25.3570   42.8900 F   0  0  0  0  0  0  0  0  0  0  0  0
   36.1310   27.5670   43.0520 F   0  0  0  0  0  0  0  0  0  0  0  0
   38.2360   26.8540   43.0370 F   0  0  0  0  0  0  0  0  0  0  0  0
  1  6  1  0  0  0  0
  2  3  1  0  0  0  0
  2  1  2  0  0  0  0
  3  4  2  0  0  0  0
  4  5  1  0  0  0  0
  5 19  1  0  0  0  0
  6  5  2  0  0  0  0
  7  2  1  0  0  0  0
  8  3  1  0  0  0  0
  9 12  1  6  0  0  0
  9 11  1  0  0  0  0
  9  1  1  0  0  0  0
 10 13  1  0  0  0  0
 10  9  1  0  0  0  0
 10 11  1  0  0  0  0
 11 15  1  1  0  0  0
 14 10  1  0  0  0  0
 16 11  1  0  0  0  0
 16 18  1  0  0  0  0
 16 17  1  0  0  0  0
 18 17  1  0  0  0  0
 19 20  1  0  0  0  0
 19 22  1  0  0  0  0
 19 21  1  0  0  0  0
M  END
>  <minimizedAffinity>
-4.22823763

$$$$
