
 OpenBabel03252504423D

 39 42  0  0  0  0  0  0  0  0999 V2000
   46.3080   32.1140   48.0060 C   0  0  0  0  0  0  0  0  0  0  0  0
   45.8400   31.5470   49.1530 C   0  0  0  0  0  0  0  0  0  0  0  0
   46.8520   30.8500   49.6720 N   0  0  0  0  0  0  0  0  0  0  0  0
   47.9440   30.9500   48.9060 C   0  0  0  0  0  0  0  0  0  0  0  0
   47.5900   31.7490   47.8580 N   0  0  0  0  0  0  0  0  0  0  0  0
   49.2500   30.4000   49.0370 N   0  0  0  0  0  0  0  0  0  0  0  0
   50.2350   31.1910   49.8110 C   0  0  0  0  0  0  0  0  0  0  0  0
   50.3390   30.4640   51.1510 C   0  0  0  0  0  0  0  0  0  0  0  0
   50.5330   28.9880   50.9310 C   0  0  0  0  0  0  0  0  0  0  0  0
   50.9470   28.7320   49.4900 C   0  0  0  0  0  0  0  0  0  0  0  0
   49.8460   29.1940   48.5610 C   0  0  0  0  0  0  0  0  0  0  0  0
   44.8350   31.6440   49.5630 H   0  0  0  0  0  0  0  0  0  0  0  0
   46.8390   30.2870   50.5560 H   0  0  0  0  0  0  0  0  0  0  0  0
   51.1950   31.2380   49.2860 H   0  0  0  0  0  0  0  0  0  0  0  0
   49.8400   32.2010   50.0360 H   0  0  0  0  0  0  0  0  0  0  0  0
   49.4140   30.6120   51.7130 H   0  0  0  0  0  0  0  0  0  0  0  0
   51.2240   30.8720   51.7000 H   0  0  0  0  0  0  0  0  0  0  0  0
   49.5910   28.4190   51.0760 H   0  0  0  0  0  0  0  0  0  0  0  0
   51.3160   28.5450   51.5970 H   0  0  0  0  0  0  0  0  0  0  0  0
   51.1360   27.6530   49.3500 H   0  0  0  0  0  0  0  0  0  0  0  0
   51.8740   29.3100   49.3200 H   0  0  0  0  0  0  0  0  0  0  0  0
   50.2320   29.2980   47.5230 H   0  0  0  0  0  0  0  0  0  0  0  0
   49.0820   28.3650   48.5840 H   0  0  0  0  0  0  0  0  0  0  0  0
   45.5400   32.9930   47.0740 C   0  0  0  0  0  0  0  0  0  0  0  0
   45.3950   33.9880   47.5540 H   0  0  0  0  0  0  0  0  0  0  0  0
   44.5370   32.5480   46.8730 H   0  0  0  0  0  0  0  0  0  0  0  0
   45.8500   33.9680   44.8290 C   0  0  0  0  0  3  0  0  0  0  0  0
   46.2760   33.1940   45.8090 C   0  0  0  0  0  3  0  0  0  0  0  0
   46.6810   34.0680   43.6340 C   0  0  0  0  0  0  0  0  0  0  0  0
   46.3990   35.0150   42.6100 C   0  0  0  0  0  0  0  0  0  0  0  0
   47.2340   35.0390   41.5130 C   0  0  0  0  0  0  0  0  0  0  0  0
   48.2730   34.1830   41.4410 N   0  0  0  0  0  0  0  0  0  0  0  0
   48.5200   33.2950   42.4240 C   0  0  0  0  0  0  0  0  0  0  0  0
   47.7510   33.2340   43.4910 N   0  0  0  0  0  0  0  0  0  0  0  0
   45.5470   35.6590   42.7540 H   0  0  0  0  0  0  0  0  0  0  0  0
   46.9940   35.7670   40.7530 H   0  0  0  0  0  0  0  0  0  0  0  0
   49.6770   32.3740   42.2970 C   0  0  0  0  0  3  0  0  0  0  0  0
   51.0580   32.9450   42.1420 C   0  0  0  0  0  2  0  0  0  0  0  0
   50.3900   32.1940   41.0210 C   0  0  0  0  0  2  0  0  0  0  0  0
  1  2  2  0  0  0  0
  2 12  1  0  0  0  0
  2  3  1  0  0  0  0
  3 13  1  0  0  0  0
  4  6  1  0  0  0  0
  4  3  1  0  0  0  0
  5  1  1  0  0  0  0
  5  4  2  0  0  0  0
  6  7  1  0  0  0  0
  7 15  1  0  0  0  0
  7  8  1  0  0  0  0
  8 17  1  0  0  0  0
  8 16  1  0  0  0  0
  9 18  1  0  0  0  0
  9  8  1  0  0  0  0
  9 19  1  0  0  0  0
 10  9  1  0  0  0  0
 11 23  1  0  0  0  0
 11  6  1  0  0  0  0
 11 10  1  0  0  0  0
 14  7  1  0  0  0  0
 20 10  1  0  0  0  0
 21 10  1  0  0  0  0
 22 11  1  0  0  0  0
 24 25  1  0  0  0  0
 24  1  1  0  0  0  0
 26 24  1  0  0  0  0
 27 28  2  0  0  0  0
 28 24  1  0  0  0  0
 29 27  1  0  0  0  0
 30 35  1  0  0  0  0
 30 29  2  0  0  0  0
 31 30  1  0  0  0  0
 32 31  2  0  0  0  0
 32 33  1  0  0  0  0
 33 34  2  0  0  0  0
 34 29  1  0  0  0  0
 36 31  1  0  0  0  0
 37 33  1  0  0  0  0
 38 37  1  0  0  0  0
 39 38  1  0  0  0  0
 39 37  1  0  0  0  0
M  END
>  <minimizedAffinity>
-5.87263489

>  <minimizedRMSD>
0.404576659

$$$$
