
 OpenBabel03252509183D

 35 38  0  0  1  0  0  0  0  0999 V2000
   46.2470   33.0780   43.5130 C   0  0  1  0  0  0  0  0  0  0  0  0
   45.6070   32.0130   44.3360 C   0  0  0  0  0  0  0  0  0  0  0  0
   46.3440   30.7160   44.3820 C   0  0  0  0  0  0  0  0  0  0  0  0
   47.8350   30.8780   44.5180 C   0  0  0  0  0  0  0  0  0  0  0  0
   48.3990   31.9620   43.6290 C   0  0  0  0  0  0  0  0  0  0  0  0
   47.3300   32.4130   42.6350 C   0  0  2  0  0  0  0  0  0  0  0  0
   46.8360   33.7820   44.1430 H   0  0  0  0  0  0  0  0  0  0  0  0
   45.4710   32.3910   45.3730 H   0  0  0  0  0  0  0  0  0  0  0  0
   44.5610   31.7720   43.9840 H   0  0  0  0  0  0  0  0  0  0  0  0
   46.0040   30.1910   45.3100 H   0  0  0  0  0  0  0  0  0  0  0  0
   46.0310   30.0840   43.5330 H   0  0  0  0  0  0  0  0  0  0  0  0
   48.2960   29.9120   44.1710 H   0  0  0  0  0  0  0  0  0  0  0  0
   48.1440   30.9890   45.5760 H   0  0  0  0  0  0  0  0  0  0  0  0
   49.3270   31.6690   43.1250 H   0  0  0  0  0  0  0  0  0  0  0  0
   48.6140   32.8540   44.2760 H   0  0  0  0  0  0  0  0  0  0  0  0
   46.9180   31.5800   42.0610 H   0  0  0  0  0  0  0  0  0  0  0  0
   43.3250   34.5900   41.0640 C   0  0  0  0  0  0  0  0  0  0  0  0
   43.9900   35.5900   41.7900 C   0  0  0  0  0  0  0  0  0  0  0  0
   44.9730   35.2170   42.6270 C   0  0  0  0  0  0  0  0  0  0  0  0
   45.3110   33.8540   42.7550 C   0  0  0  0  0  0  0  0  0  0  0  0
   44.1500   33.0420   41.6070 S   0  0  0  0  0  0  0  0  0  0  0  0
   43.7290   36.6330   41.6890 H   0  0  0  0  0  0  0  0  0  0  0  0
   45.5920   35.8310   43.2620 H   0  0  0  0  0  0  0  0  0  0  0  0
   41.2210   35.4550   38.1200 C   0  0  0  0  0  0  0  0  0  0  0  0
   39.9380   35.1590   38.6480 C   0  0  0  0  0  0  0  0  0  0  0  0
   39.8530   34.6790   39.9800 C   0  0  0  0  0  0  0  0  0  0  0  0
   41.0170   34.5350   40.6670 N   0  0  0  0  0  0  0  0  0  0  0  0
   42.2280   34.8330   40.1150 C   0  0  0  0  0  0  0  0  0  0  0  0
   42.3330   35.2930   38.8440 N   0  0  0  0  0  0  0  0  0  0  0  0
   41.3020   35.8180   37.1150 H   0  0  0  0  0  0  0  0  0  0  0  0
   39.0380   35.2910   38.0620 H   0  0  0  0  0  0  0  0  0  0  0  0
   38.9050   34.4490   40.4030 H   0  0  0  0  0  0  0  0  0  0  0  0
   47.9340   33.5060   41.7800 C   0  0  0  0  0  3  0  0  0  0  0  0
   48.8890   34.4210   42.4540 C   0  0  0  0  0  2  0  0  0  0  0  0
   49.3740   33.3860   41.4510 C   0  0  0  0  0  2  0  0  0  0  0  0
  1  7  1  1  0  0  0
  1  2  1  0  0  0  0
  2  3  1  0  0  0  0
  2  8  1  0  0  0  0
  3  4  1  0  0  0  0
  3 10  1  0  0  0  0
  4 13  1  0  0  0  0
  5 15  1  0  0  0  0
  5  4  1  0  0  0  0
  6 16  1  6  0  0  0
  6  1  1  0  0  0  0
  6  5  1  0  0  0  0
  9  2  1  0  0  0  0
 11  3  1  0  0  0  0
 12  4  1  0  0  0  0
 14  5  1  0  0  0  0
 17 21  1  0  0  0  0
 17 18  2  0  0  0  0
 18 19  1  0  0  0  0
 19 20  2  0  0  0  0
 19 23  1  0  0  0  0
 20  1  1  0  0  0  0
 21 20  1  0  0  0  0
 22 18  1  0  0  0  0
 24 25  2  0  0  0  0
 24 29  1  0  0  0  0
 25 26  1  0  0  0  0
 26 32  1  0  0  0  0
 26 27  2  0  0  0  0
 28 27  1  0  0  0  0
 28 17  1  0  0  0  0
 29 28  2  0  0  0  0
 30 24  1  0  0  0  0
 31 25  1  0  0  0  0
 33 34  1  0  0  0  0
 33  6  1  0  0  0  0
 35 33  1  0  0  0  0
 35 34  1  0  0  0  0
M  END
>  <minimizedAffinity>
-4.3718853

>  <minimizedRMSD>
6.54082537

$$$$
