
 OpenBabel03252501453D

 17 18  0  0  0  0  0  0  0  0999 V2000
   44.6150   35.7570   42.6570 C   0  0  0  0  0  0  0  0  0  0  0  0
   43.8010   35.1410   41.6810 C   0  0  0  0  0  0  0  0  0  0  0  0
   44.4050   34.3480   40.6990 C   0  0  0  0  0  0  0  0  0  0  0  0
   45.7620   34.2000   40.7210 N   0  0  0  0  0  0  0  0  0  0  0  0
   46.4980   34.8150   41.6810 C   0  0  0  0  0  0  0  0  0  0  0  0
   45.9320   35.5690   42.6180 N   0  0  0  0  0  0  0  0  0  0  0  0
   44.0550   36.3380   43.3590 H   0  0  0  0  0  0  0  0  0  0  0  0
   43.7970   33.8660   39.9410 H   0  0  0  0  0  0  0  0  0  0  0  0
   47.9830   34.6000   41.6340 C   0  0  0  0  0  0  0  0  0  0  0  0
   48.8920   35.7920   41.7660 C   0  0  0  0  0  0  0  0  0  0  0  0
   48.7110   35.2040   40.4150 C   0  0  0  0  0  0  0  0  0  0  0  0
   42.3430   35.3100   41.6730 C   0  0  0  0  0  0  0  0  0  0  0  0
   41.6170   35.5170   40.5970 C   0  0  0  0  0  0  0  0  0  0  0  0
   40.1280   35.6830   40.6590 C   0  0  0  0  0  0  0  0  0  0  0  0
   39.6970   35.2600   39.7080 H   0  0  0  0  0  0  0  0  0  0  0  0
   39.8070   36.7220   40.7760 H   0  0  0  0  0  0  0  0  0  0  0  0
   39.7750   35.0090   41.4600 H   0  0  0  0  0  0  0  0  0  0  0  0
  1  7  1  0  0  0  0
  2  1  2  0  0  0  0
  3  4  2  0  0  0  0
  3  2  1  0  0  0  0
  4  5  1  0  0  0  0
  5  6  2  0  0  0  0
  6  1  1  0  0  0  0
  8  3  1  0  0  0  0
  9  5  1  0  0  0  0
  9 10  1  0  0  0  0
 11  9  1  0  0  0  0
 11 10  1  0  0  0  0
 12  2  1  0  0  0  0
 13 14  1  0  0  0  0
 13 12  2  0  0  0  0
 14 16  1  0  0  0  0
 14 17  1  0  0  0  0
 15 14  1  0  0  0  0
M  END
>  <minimizedAffinity>
-4.33764839

>  <minimizedRMSD>
4.40319538

$$$$
