
 OpenBabel03242517073D

 28 30  0  0  1  0  0  0  0  0999 V2000
   46.4730   33.7340   42.8980 C   0  0  2  0  0  0  0  0  0  0  0  0
   45.8710   34.8570   42.1410 C   0  0  2  0  0  0  0  0  0  0  0  0
   45.5540   36.0440   43.0320 C   0  0  0  0  0  0  0  0  0  0  0  0
   44.7310   35.7170   44.2410 C   0  0  0  0  0  0  0  0  0  0  0  0
   45.0930   34.4000   44.8770 C   0  0  0  0  0  0  0  0  0  0  0  0
   46.4340   33.9110   44.4090 C   0  0  0  0  0  0  0  0  0  0  0  0
   45.8720   32.8000   42.6790 H   0  0  0  0  0  0  0  0  0  0  0  0
   46.6600   35.2590   41.4680 H   0  0  0  0  0  0  0  0  0  0  0  0
   44.8820   36.6960   42.3970 H   0  0  0  0  0  0  0  0  0  0  0  0
   46.3970   36.6710   43.2860 H   0  0  0  0  0  0  0  0  0  0  0  0
   44.8650   36.5820   44.9390 H   0  0  0  0  0  0  0  0  0  0  0  0
   43.6370   35.6820   44.0590 H   0  0  0  0  0  0  0  0  0  0  0  0
   45.2170   34.6070   45.9780 H   0  0  0  0  0  0  0  0  0  0  0  0
   44.3320   33.6220   44.7820 H   0  0  0  0  0  0  0  0  0  0  0  0
   46.5600   32.8890   44.8490 H   0  0  0  0  0  0  0  0  0  0  0  0
   47.2750   34.5160   44.7630 H   0  0  0  0  0  0  0  0  0  0  0  0
   47.8800   33.4970   42.5260 C   0  0  0  0  0  0  0  0  0  0  0  0
   48.7660   34.5600   42.7910 C   0  0  0  0  0  0  0  0  0  0  0  0
   50.1270   34.4520   42.4800 C   0  0  0  0  0  0  0  0  0  0  0  0
   50.5180   33.2560   41.9090 N   0  0  0  0  0  0  0  0  0  0  0  0
   49.6520   32.2520   41.6650 C   0  0  0  0  0  0  0  0  0  0  0  0
   48.3380   32.3740   41.9730 N   0  0  0  0  0  0  0  0  0  0  0  0
   48.5600   35.5250   43.2290 H   0  0  0  0  0  0  0  0  0  0  0  0
   50.8630   35.2090   42.6480 H   0  0  0  0  0  0  0  0  0  0  0  0
   50.0280   31.3400   41.2150 H   0  0  0  0  0  0  0  0  0  0  0  0
   44.7230   34.4710   41.2720 C   0  0  0  0  0  0  0  0  0  0  0  0
   43.4010   34.1080   41.7320 C   0  0  0  0  0  0  0  0  0  0  0  0
   43.6170   35.5050   41.1380 C   0  0  0  0  0  0  0  0  0  0  0  0
  1  7  1  6  0  0  0
  1  6  1  0  0  0  0
  2  8  1  6  0  0  0
  2  1  1  0  0  0  0
  2  3  1  0  0  0  0
  3 10  1  0  0  0  0
  3  4  1  0  0  0  0
  4  5  1  0  0  0  0
  4 11  1  0  0  0  0
  5 13  1  0  0  0  0
  6 16  1  0  0  0  0
  6 15  1  0  0  0  0
  6  5  1  0  0  0  0
  9  3  1  0  0  0  0
 12  4  1  0  0  0  0
 14  5  1  0  0  0  0
 17 18  1  0  0  0  0
 17  1  1  0  0  0  0
 18 23  1  0  0  0  0
 19 24  1  0  0  0  0
 19 18  2  0  0  0  0
 20 19  1  0  0  0  0
 21 20  2  0  0  0  0
 21 22  1  0  0  0  0
 22 17  2  0  0  0  0
 25 21  1  0  0  0  0
 26 27  1  0  0  0  0
 26  2  1  0  0  0  0
 28 26  1  0  0  0  0
 28 27  1  0  0  0  0
M  END
>  <minimizedAffinity>
-4.58318233

>  <minimizedRMSD>
2.06342769

$$$$
