
 OpenBabel03252508393D

 35 38  0  0  0  0  0  0  0  0999 V2000
   45.1340   33.9540   40.7100 C   0  0  0  0  0  0  0  0  0  0  0  0
   44.0910   33.6370   39.8950 C   0  0  0  0  0  0  0  0  0  0  0  0
   44.3880   33.1390   38.6520 C   0  0  0  0  0  0  0  0  0  0  0  0
   45.6710   32.9480   38.2020 C   0  0  0  0  0  0  0  0  0  0  0  0
   46.6990   33.2770   39.0480 C   0  0  0  0  0  0  0  0  0  0  0  0
   46.4540   33.7810   40.3070 C   0  0  0  0  0  0  0  0  0  0  0  0
   43.5640   32.8860   38.0000 H   0  0  0  0  0  0  0  0  0  0  0  0
   45.8540   32.5460   37.2010 H   0  0  0  0  0  0  0  0  0  0  0  0
   47.7230   33.1280   38.6990 H   0  0  0  0  0  0  0  0  0  0  0  0
   40.8060   35.2600   40.7940 C   0  0  0  0  0  0  0  0  0  0  0  0
   42.1130   35.1010   40.2730 C   0  0  0  0  0  0  0  0  0  0  0  0
   42.7490   33.8550   40.4110 C   0  0  0  0  0  0  0  0  0  0  0  0
   42.0440   32.8970   41.0400 N   0  0  0  0  0  0  0  0  0  0  0  0
   40.8120   33.0720   41.5220 C   0  0  0  0  0  0  0  0  0  0  0  0
   40.1960   34.2600   41.3970 N   0  0  0  0  0  0  0  0  0  0  0  0
   40.2050   36.5280   40.6350 N   0  0  0  0  0  0  0  0  0  0  0  0
   42.6830   35.8590   39.7710 H   0  0  0  0  0  0  0  0  0  0  0  0
   40.2770   32.2760   42.0230 H   0  0  0  0  0  0  0  0  0  0  0  0
   39.7990   36.5390   39.6610 H   0  0  0  0  0  0  0  0  0  0  0  0
   40.4000   36.9590   41.5450 H   0  0  0  0  0  0  0  0  0  0  0  0
   47.6130   34.0990   41.1300 C   0  0  0  0  0  0  0  0  0  0  0  0
   48.1390   35.3590   40.9380 C   0  0  0  0  0  0  0  0  0  0  0  0
   49.2510   35.8320   41.6420 C   0  0  0  0  0  0  0  0  0  0  0  0
   49.8310   34.9780   42.5670 C   0  0  0  0  0  0  0  0  0  0  0  0
   49.3180   33.7260   42.7660 C   0  0  0  0  0  0  0  0  0  0  0  0
   48.2150   33.2830   42.0540 C   0  0  0  0  0  0  0  0  0  0  0  0
   47.7450   36.0830   40.2370 H   0  0  0  0  0  0  0  0  0  0  0  0
   49.6620   36.8200   41.4910 H   0  0  0  0  0  0  0  0  0  0  0  0
   50.7000   35.2610   43.1620 H   0  0  0  0  0  0  0  0  0  0  0  0
   49.7340   33.0380   43.4680 H   0  0  0  0  0  0  0  0  0  0  0  0
   47.5700   31.9360   42.1880 C   0  0  0  0  0  3  0  0  0  0  0  0
   48.0700   30.7550   41.4810 C   0  0  0  0  0  2  0  0  0  0  0  0
   48.4000   30.8760   42.9410 C   0  0  0  0  0  2  0  0  0  0  0  0
   44.7350   34.9090   43.1080 N   0  0  0  0  0  0  0  0  0  0  0  0
   44.9110   34.4840   42.0320 C   0  0  0  0  0  0  0  0  0  0  0  0
  1 35  1  0  0  0  0
  2 12  1  0  0  0  0
  2  1  2  0  0  0  0
  3  2  1  0  0  0  0
  4  3  2  0  0  0  0
  4  5  1  0  0  0  0
  5  6  2  0  0  0  0
  6  1  1  0  0  0  0
  6 21  1  0  0  0  0
  7  3  1  0  0  0  0
  8  4  1  0  0  0  0
  9  5  1  0  0  0  0
 10 15  1  0  0  0  0
 11 12  1  0  0  0  0
 11 10  2  0  0  0  0
 12 13  2  0  0  0  0
 13 14  1  0  0  0  0
 14 18  1  0  0  0  0
 15 14  2  0  0  0  0
 16 10  1  0  0  0  0
 16 20  1  0  0  0  0
 17 11  1  0  0  0  0
 19 16  1  0  0  0  0
 21 26  1  0  0  0  0
 22 21  2  0  0  0  0
 22 23  1  0  0  0  0
 23 24  2  0  0  0  0
 24 25  1  0  0  0  0
 24 29  1  0  0  0  0
 25 30  1  0  0  0  0
 26 31  1  0  0  0  0
 26 25  2  0  0  0  0
 27 22  1  0  0  0  0
 28 23  1  0  0  0  0
 31 33  1  0  0  0  0
 32 31  1  0  0  0  0
 32 33  1  0  0  0  0
 35 34  3  0  0  0  0
M  END
>  <minimizedAffinity>
-5.87996626

>  <minimizedRMSD>
0.429081202

$$$$
