
 OpenBabel03252509113D

 25 28  0  0  0  0  0  0  0  0999 V2000
   47.5750   31.7730   44.1750 C   0  0  0  0  0  0  0  0  0  0  0  0
   47.1020   33.0450   43.8610 C   0  0  0  0  0  0  0  0  0  0  0  0
   46.2750   33.7810   44.7190 C   0  0  0  0  0  0  0  0  0  0  0  0
   45.9080   33.2230   45.9340 C   0  0  0  0  0  0  0  0  0  0  0  0
   45.1440   33.6110   46.9820 N   0  0  0  0  0  0  0  0  0  0  0  0
   45.1330   32.6310   47.9160 C   0  0  0  0  0  0  0  0  0  0  0  0
   45.9000   31.6370   47.4310 N   0  0  0  0  0  0  0  0  0  0  0  0
   46.3860   31.9700   46.2230 C   0  0  0  0  0  0  0  0  0  0  0  0
   47.2050   31.2150   45.3990 C   0  0  0  0  0  0  0  0  0  0  0  0
   48.2170   31.2570   43.4560 H   0  0  0  0  0  0  0  0  0  0  0  0
   44.6340   34.5140   47.0580 H   0  0  0  0  0  0  0  0  0  0  0  0
   44.5820   32.7150   48.8530 H   0  0  0  0  0  0  0  0  0  0  0  0
   47.5670   30.2360   45.6450 H   0  0  0  0  0  0  0  0  0  0  0  0
   47.1990   33.8580   40.2770 C   0  0  0  0  0  0  0  0  0  0  0  0
   48.2040   34.8200   40.2080 C   0  0  0  0  0  0  0  0  0  0  0  0
   48.8460   35.1850   41.3960 C   0  0  0  0  0  0  0  0  0  0  0  0
   48.4390   34.5690   42.5480 N   0  0  0  0  0  0  0  0  0  0  0  0
   47.4720   33.6480   42.5930 C   0  0  0  0  0  0  0  0  0  0  0  0
   46.8650   33.3050   41.4610 N   0  0  0  0  0  0  0  0  0  0  0  0
   46.6350   33.4930   39.4520 H   0  0  0  0  0  0  0  0  0  0  0  0
   48.4340   35.2290   39.2560 H   0  0  0  0  0  0  0  0  0  0  0  0
   49.6180   35.9180   41.3690 H   0  0  0  0  0  0  0  0  0  0  0  0
   45.7910   35.1260   44.3240 C   0  0  0  0  0  3  0  0  0  0  0  0
   44.4430   35.5290   44.9800 C   0  0  0  0  0  2  0  0  0  0  0  0
   44.5490   35.3040   43.5190 C   0  0  0  0  0  2  0  0  0  0  0  0
  1  9  1  0  0  0  0
  2  1  2  0  0  0  0
  2  3  1  0  0  0  0
  3  4  2  0  0  0  0
  4  8  1  0  0  0  0
  4  5  1  0  0  0  0
  5 11  1  0  0  0  0
  5  6  1  0  0  0  0
  6 12  1  0  0  0  0
  7  6  2  0  0  0  0
  8  7  1  0  0  0  0
  9 13  1  0  0  0  0
  9  8  2  0  0  0  0
 10  1  1  0  0  0  0
 14 19  1  0  0  0  0
 15 14  2  0  0  0  0
 15 16  1  0  0  0  0
 16 17  2  0  0  0  0
 17 18  1  0  0  0  0
 18  2  1  0  0  0  0
 19 18  2  0  0  0  0
 20 14  1  0  0  0  0
 21 15  1  0  0  0  0
 22 16  1  0  0  0  0
 23  3  1  0  0  0  0
 23 24  1  0  0  0  0
 25 23  1  0  0  0  0
 25 24  1  0  0  0  0
M  END
>  <minimizedAffinity>
-5.26694775

>  <minimizedRMSD>
1.69877315

$$$$
