
 OpenBabel03252509163D

 19 21  0  0  0  0  0  0  0  0999 V2000
   45.8810   33.2880   46.3960 C   0  0  0  0  0  0  0  0  0  0  0  0
   45.1460   33.1180   47.5950 C   0  0  0  0  0  0  0  0  0  0  0  0
   45.5480   32.2030   48.4990 C   0  0  0  0  0  0  0  0  0  0  0  0
   46.6980   31.4360   48.2140 C   0  0  0  0  0  0  0  0  0  0  0  0
   47.2130   32.0670   46.5770 S   0  0  0  0  0  0  0  0  0  0  0  0
   44.2610   33.7250   47.7910 H   0  0  0  0  0  0  0  0  0  0  0  0
   45.1070   31.9680   49.4240 H   0  0  0  0  0  0  0  0  0  0  0  0
   44.4490   36.0560   44.3700 C   0  0  0  0  0  0  0  0  0  0  0  0
   45.1450   35.8470   43.1510 C   0  0  0  0  0  0  0  0  0  0  0  0
   46.0600   34.7780   43.0920 C   0  0  0  0  0  0  0  0  0  0  0  0
   46.2210   34.0060   44.2120 N   0  0  0  0  0  0  0  0  0  0  0  0
   45.5290   34.2520   45.3490 C   0  0  0  0  0  0  0  0  0  0  0  0
   44.6410   35.2760   45.4340 N   0  0  0  0  0  0  0  0  0  0  0  0
   43.7440   36.8740   44.4290 H   0  0  0  0  0  0  0  0  0  0  0  0
   45.0020   36.4700   42.2800 H   0  0  0  0  0  0  0  0  0  0  0  0
   46.6320   34.5470   42.2050 H   0  0  0  0  0  0  0  0  0  0  0  0
   47.4410   30.3660   48.9210 C   0  0  0  0  0  3  0  0  0  0  0  0
   48.6630   29.7750   48.2330 C   0  0  0  0  0  2  0  0  0  0  0  0
   48.7630   30.6850   49.4500 C   0  0  0  0  0  2  0  0  0  0  0  0
  1  5  1  0  0  0  0
  1  2  2  0  0  0  0
  2  6  1  0  0  0  0
  2  3  1  0  0  0  0
  3  7  1  0  0  0  0
  4  3  2  0  0  0  0
  4 17  1  0  0  0  0
  5  4  1  0  0  0  0
  8 14  1  0  0  0  0
  8 13  1  0  0  0  0
  9  8  2  0  0  0  0
 10  9  1  0  0  0  0
 10 11  2  0  0  0  0
 11 12  1  0  0  0  0
 12 13  2  0  0  0  0
 12  1  1  0  0  0  0
 15  9  1  0  0  0  0
 16 10  1  0  0  0  0
 17 19  1  0  0  0  0
 18 17  1  0  0  0  0
 18 19  1  0  0  0  0
M  END
>  <minimizedAffinity>
-4.43988705

>  <minimizedRMSD>
0.565421939

$$$$
