
 OpenBabel03242510063D

 12 13  0  0  0  0  0  0  0  0999 V2000
   44.5620   35.8430   44.8690 C   0  0  0  0  0  0  0  0  0  0  0  0
   45.1330   35.9760   43.5800 C   0  0  0  0  0  0  0  0  0  0  0  0
   46.0010   34.9590   43.1390 C   0  0  0  0  0  0  0  0  0  0  0  0
   46.2390   33.9160   43.9730 N   0  0  0  0  0  0  0  0  0  0  0  0
   45.6740   33.8200   45.2040 C   0  0  0  0  0  0  0  0  0  0  0  0
   44.8460   34.7830   45.6300 N   0  0  0  0  0  0  0  0  0  0  0  0
   43.9020   36.6490   45.1630 H   0  0  0  0  0  0  0  0  0  0  0  0
   44.9680   36.7840   42.8970 H   0  0  0  0  0  0  0  0  0  0  0  0
   46.4760   35.0020   42.1520 H   0  0  0  0  0  0  0  0  0  0  0  0
   45.9780   32.6490   46.0680 C   0  0  0  0  0  0  0  0  0  0  0  0
   46.9860   32.6870   47.1290 C   0  0  0  0  0  0  0  0  0  0  0  0
   45.5050   32.6480   47.4950 C   0  0  0  0  0  0  0  0  0  0  0  0
  1  7  1  0  0  0  0
  1  6  1  0  0  0  0
  2  1  2  0  0  0  0
  3  2  1  0  0  0  0
  3  4  2  0  0  0  0
  4  5  1  0  0  0  0
  5  6  2  0  0  0  0
  5 10  1  0  0  0  0
  8  2  1  0  0  0  0
  9  3  1  0  0  0  0
 10 11  1  0  0  0  0
 10 12  1  0  0  0  0
 11 12  1  0  0  0  0
M  END
>  <minimizedAffinity>
-3.47593427

>  <minimizedRMSD>
0.955512047

$$$$
