
 OpenBabel03252508393D

 35 38  0  0  0  0  0  0  0  0999 V2000
   45.1250   33.9560   40.7240 C   0  0  0  0  0  0  0  0  0  0  0  0
   44.0820   33.6320   39.9120 C   0  0  0  0  0  0  0  0  0  0  0  0
   44.3790   33.1190   38.6750 C   0  0  0  0  0  0  0  0  0  0  0  0
   45.6610   32.9200   38.2280 C   0  0  0  0  0  0  0  0  0  0  0  0
   46.6890   33.2570   39.0700 C   0  0  0  0  0  0  0  0  0  0  0  0
   46.4440   33.7760   40.3230 C   0  0  0  0  0  0  0  0  0  0  0  0
   43.5540   32.8600   38.0260 H   0  0  0  0  0  0  0  0  0  0  0  0
   45.8440   32.5060   37.2320 H   0  0  0  0  0  0  0  0  0  0  0  0
   47.7130   33.1020   38.7240 H   0  0  0  0  0  0  0  0  0  0  0  0
   40.8030   35.2750   40.7990 C   0  0  0  0  0  0  0  0  0  0  0  0
   42.1100   35.1080   40.2810 C   0  0  0  0  0  0  0  0  0  0  0  0
   42.7390   33.8590   40.4250 C   0  0  0  0  0  0  0  0  0  0  0  0
   42.0290   32.9070   41.0570 N   0  0  0  0  0  0  0  0  0  0  0  0
   40.7980   33.0900   41.5360 C   0  0  0  0  0  0  0  0  0  0  0  0
   40.1880   34.2800   41.4050 N   0  0  0  0  0  0  0  0  0  0  0  0
   40.2090   36.5450   40.6340 N   0  0  0  0  0  0  0  0  0  0  0  0
   42.6840   35.8600   39.7760 H   0  0  0  0  0  0  0  0  0  0  0  0
   40.2580   32.2980   42.0390 H   0  0  0  0  0  0  0  0  0  0  0  0
   39.8040   36.5530   39.6590 H   0  0  0  0  0  0  0  0  0  0  0  0
   40.4030   36.9790   41.5420 H   0  0  0  0  0  0  0  0  0  0  0  0
   47.6040   34.1020   41.1430 C   0  0  0  0  0  0  0  0  0  0  0  0
   48.1280   35.3610   40.9410 C   0  0  0  0  0  0  0  0  0  0  0  0
   49.2410   35.8410   41.6410 C   0  0  0  0  0  0  0  0  0  0  0  0
   49.8220   34.9940   42.5720 C   0  0  0  0  0  0  0  0  0  0  0  0
   49.3110   33.7430   42.7810 C   0  0  0  0  0  0  0  0  0  0  0  0
   48.2080   33.2930   42.0730 C   0  0  0  0  0  0  0  0  0  0  0  0
   47.7330   36.0800   40.2350 H   0  0  0  0  0  0  0  0  0  0  0  0
   49.6510   36.8280   41.4830 H   0  0  0  0  0  0  0  0  0  0  0  0
   50.6920   35.2820   43.1640 H   0  0  0  0  0  0  0  0  0  0  0  0
   49.7280   33.0610   43.4870 H   0  0  0  0  0  0  0  0  0  0  0  0
   47.5640   31.9460   42.2180 C   0  0  0  0  0  3  0  0  0  0  0  0
   48.0340   30.9550   43.1880 C   0  0  0  0  0  2  0  0  0  0  0  0
   46.7900   31.7210   43.5330 C   0  0  0  0  0  2  0  0  0  0  0  0
   44.7270   34.9400   43.1100 N   0  0  0  0  0  0  0  0  0  0  0  0
   44.9020   34.5020   42.0400 C   0  0  0  0  0  0  0  0  0  0  0  0
  1 35  1  0  0  0  0
  2 12  1  0  0  0  0
  2  1  2  0  0  0  0
  3  2  1  0  0  0  0
  4  3  2  0  0  0  0
  4  5  1  0  0  0  0
  5  6  2  0  0  0  0
  6  1  1  0  0  0  0
  6 21  1  0  0  0  0
  7  3  1  0  0  0  0
  8  4  1  0  0  0  0
  9  5  1  0  0  0  0
 10 15  1  0  0  0  0
 11 12  1  0  0  0  0
 11 10  2  0  0  0  0
 12 13  2  0  0  0  0
 13 14  1  0  0  0  0
 14 18  1  0  0  0  0
 15 14  2  0  0  0  0
 16 10  1  0  0  0  0
 16 20  1  0  0  0  0
 17 11  1  0  0  0  0
 19 16  1  0  0  0  0
 21 26  1  0  0  0  0
 22 21  2  0  0  0  0
 22 23  1  0  0  0  0
 23 24  2  0  0  0  0
 24 25  1  0  0  0  0
 24 29  1  0  0  0  0
 25 30  1  0  0  0  0
 26 31  1  0  0  0  0
 26 25  2  0  0  0  0
 27 22  1  0  0  0  0
 28 23  1  0  0  0  0
 31 32  1  0  0  0  0
 31 33  1  0  0  0  0
 32 33  1  0  0  0  0
 35 34  3  0  0  0  0
M  END
>  <minimizedAffinity>
-5.91769075

>  <minimizedRMSD>
0.227293938

$$$$
