
 OpenBabel03252503543D

 30 32  0  0  1  0  0  0  0  0999 V2000
   45.6130   32.8100   46.4830 N   0  0  0  0  0  0  0  0  0  0  0  0
   45.2580   33.0210   47.8590 C   0  0  0  0  0  0  0  0  0  0  0  0
   46.0250   31.9790   48.6430 C   0  0  0  0  0  0  0  0  0  0  0  0
   45.3800   30.6540   48.3800 C   0  0  0  0  0  0  0  0  0  0  0  0
   45.4850   30.4090   46.9230 C   0  0  0  0  0  0  0  0  0  0  0  0
   45.9920   31.5140   46.0930 C   0  0  2  0  0  0  0  0  0  0  0  0
   44.1560   32.8440   47.9240 H   0  0  0  0  0  0  0  0  0  0  0  0
   45.4930   34.0540   48.2060 H   0  0  0  0  0  0  0  0  0  0  0  0
   47.0870   32.0010   48.4490 H   0  0  0  0  0  0  0  0  0  0  0  0
   45.8930   32.2800   49.7250 H   0  0  0  0  0  0  0  0  0  0  0  0
   44.3370   30.6280   48.7660 H   0  0  0  0  0  0  0  0  0  0  0  0
   45.9110   29.8890   49.0020 H   0  0  0  0  0  0  0  0  0  0  0  0
   45.9950   29.4770   46.7410 H   0  0  0  0  0  0  0  0  0  0  0  0
   44.4070   30.1530   46.6210 H   0  0  0  0  0  0  0  0  0  0  0  0
   45.5080   31.3590   45.0970 H   0  0  0  0  0  0  0  0  0  0  0  0
   46.0640   34.7890   43.3880 C   0  0  0  0  0  0  0  0  0  0  0  0
   46.2190   33.7670   44.3260 C   0  0  0  0  0  0  0  0  0  0  0  0
   45.5430   33.8280   45.5250 C   0  0  0  0  0  0  0  0  0  0  0  0
   44.7530   34.8780   45.7450 N   0  0  0  0  0  0  0  0  0  0  0  0
   44.5930   35.8760   44.8390 C   0  0  0  0  0  0  0  0  0  0  0  0
   45.2550   35.8200   43.6640 N   0  0  0  0  0  0  0  0  0  0  0  0
   46.8640   32.9620   44.0280 H   0  0  0  0  0  0  0  0  0  0  0  0
   43.9630   36.7450   44.9760 H   0  0  0  0  0  0  0  0  0  0  0  0
   46.8090   34.6780   42.1050 C   0  0  0  0  0  0  0  0  0  0  0  0
   45.9550   34.6710   41.0110 F   0  0  0  0  0  0  0  0  0  0  0  0
   47.7210   35.7160   42.0540 F   0  0  0  0  0  0  0  0  0  0  0  0
   47.5760   33.5050   42.1190 F   0  0  0  0  0  0  0  0  0  0  0  0
   47.4600   31.2970   45.7980 C   0  0  0  0  0  0  0  0  0  0  0  0
   47.8610   30.6480   44.4980 C   0  0  0  0  0  0  0  0  0  0  0  0
   47.9260   29.8480   45.7140 C   0  0  0  0  0  0  0  0  0  0  0  0
  1  2  1  0  0  0  0
  2  7  1  0  0  0  0
  2  8  1  0  0  0  0
  2  3  1  0  0  0  0
  3 10  1  0  0  0  0
  4  3  1  0  0  0  0
  4 11  1  0  0  0  0
  4 12  1  0  0  0  0
  5  4  1  0  0  0  0
  6 15  1  6  0  0  0
  6  1  1  0  0  0  0
  6  5  1  0  0  0  0
  9  3  1  0  0  0  0
 13  5  1  0  0  0  0
 14  5  1  0  0  0  0
 16 21  2  0  0  0  0
 16 17  1  0  0  0  0
 17 18  2  0  0  0  0
 18 19  1  0  0  0  0
 18  1  1  0  0  0  0
 20 23  1  0  0  0  0
 20 19  2  0  0  0  0
 21 20  1  0  0  0  0
 22 17  1  0  0  0  0
 24 27  1  0  0  0  0
 24 16  1  0  0  0  0
 25 24  1  0  0  0  0
 26 24  1  0  0  0  0
 28  6  1  0  0  0  0
 29 30  1  0  0  0  0
 29 28  1  0  0  0  0
 30 28  1  0  0  0  0
M  END
>  <minimizedAffinity>
-5.3390398

>  <minimizedRMSD>
0.572739959

$$$$
