
 OpenBabel03242513313D

 31 34  0  0  0  0  0  0  0  0999 V2000
   46.4610   33.6390   41.2820 C   0  0  0  0  0  0  0  0  0  0  0  0
   46.8160   34.6390   42.1610 C   0  0  0  0  0  0  0  0  0  0  0  0
   47.8760   35.4260   41.7940 C   0  0  0  0  0  0  0  0  0  0  0  0
   48.5600   35.2330   40.6050 C   0  0  0  0  0  0  0  0  0  0  0  0
   48.1830   34.2280   39.7500 C   0  0  0  0  0  0  0  0  0  0  0  0
   47.1060   33.3980   40.0820 C   0  0  0  0  0  0  0  0  0  0  0  0
   48.1690   36.2150   42.4690 H   0  0  0  0  0  0  0  0  0  0  0  0
   49.3830   35.9090   40.4080 H   0  0  0  0  0  0  0  0  0  0  0  0
   48.7170   34.0770   38.8220 H   0  0  0  0  0  0  0  0  0  0  0  0
   44.4840   35.9350   44.8150 C   0  0  0  0  0  0  0  0  0  0  0  0
   45.1880   35.8220   43.6120 C   0  0  0  0  0  0  0  0  0  0  0  0
   46.0700   34.7960   43.3820 C   0  0  0  0  0  0  0  0  0  0  0  0
   46.1990   33.9090   44.4110 N   0  0  0  0  0  0  0  0  0  0  0  0
   45.5270   34.0060   45.5730 C   0  0  0  0  0  0  0  0  0  0  0  0
   44.6700   35.0200   45.7720 N   0  0  0  0  0  0  0  0  0  0  0  0
   43.7890   36.7470   44.9920 H   0  0  0  0  0  0  0  0  0  0  0  0
   45.0240   36.5680   42.8540 H   0  0  0  0  0  0  0  0  0  0  0  0
   45.7890   33.1900   46.2440 H   0  0  0  0  0  0  0  0  0  0  0  0
   45.3950   32.8150   41.6080 O   0  0  0  0  0  0  0  0  0  0  0  0
   45.4660   32.1960   42.4010 H   0  0  0  0  0  0  0  0  0  0  0  0
   46.6950   32.3820   39.2600 O   0  0  0  0  0  0  0  0  0  0  0  0
   46.8830   32.3210   37.9270 C   0  0  0  0  0  0  0  0  0  0  0  0
   46.0420   32.6190   36.8740 C   0  0  0  0  0  0  0  0  0  0  0  0
   46.4840   32.4680   35.6010 C   0  0  0  0  0  0  0  0  0  0  0  0
   47.8140   32.0020   35.4340 C   0  0  0  0  0  0  0  0  0  0  0  0
   48.4050   31.7890   37.1410 S   0  0  0  0  0  0  0  0  0  0  0  0
   45.0470   32.9680   37.1050 H   0  0  0  0  0  0  0  0  0  0  0  0
   45.9380   32.6630   34.7150 H   0  0  0  0  0  0  0  0  0  0  0  0
   48.5760   31.7380   34.2320 C   0  0  0  0  0  0  0  0  0  0  0  0
   47.9800   32.0950   32.9500 C   0  0  0  0  0  0  0  0  0  0  0  0
   49.1540   32.9160   33.4390 C   0  0  0  0  0  0  0  0  0  0  0  0
  1 19  1  0  0  0  0
  1  2  1  0  0  0  0
  2 12  1  0  0  0  0
  3  2  2  0  0  0  0
  3  7  1  0  0  0  0
  4  3  1  0  0  0  0
  5  6  1  0  0  0  0
  5  4  2  0  0  0  0
  6  1  2  0  0  0  0
  8  4  1  0  0  0  0
  9  5  1  0  0  0  0
 10 16  1  0  0  0  0
 10 15  1  0  0  0  0
 11 10  2  0  0  0  0
 12 11  1  0  0  0  0
 12 13  2  0  0  0  0
 13 14  1  0  0  0  0
 14 15  2  0  0  0  0
 14 18  1  0  0  0  0
 17 11  1  0  0  0  0
 19 20  1  0  0  0  0
 21  6  1  0  0  0  0
 22 21  1  0  0  0  0
 23 27  1  0  0  0  0
 23 22  2  0  0  0  0
 24 23  1  0  0  0  0
 25 24  2  0  0  0  0
 25 26  1  0  0  0  0
 26 22  1  0  0  0  0
 28 24  1  0  0  0  0
 29 25  1  0  0  0  0
 30 31  1  0  0  0  0
 30 29  1  0  0  0  0
 31 29  1  0  0  0  0
M  END
>  <minimizedAffinity>
-5.49791288

>  <minimizedRMSD>
0.933519006

$$$$
