
 OpenBabel03252506023D

 22 24  0  0  0  0  0  0  0  0999 V2000
   44.9290   36.1930   43.1490 Cl  0  0  0  0  0  0  0  0  0  0  0  0
   45.5640   34.8830   44.0860 C   0  0  0  0  0  0  0  0  0  0  0  0
   46.5680   34.0920   43.5770 C   0  0  0  0  0  0  0  0  0  0  0  0
   47.0200   33.0660   44.3930 C   0  0  0  0  0  0  0  0  0  0  0  0
   46.5220   32.8080   45.6590 C   0  0  0  0  0  0  0  0  0  0  0  0
   45.5210   33.6160   46.1350 C   0  0  0  0  0  0  0  0  0  0  0  0
   44.9390   33.2530   47.7390 Cl  0  0  0  0  0  0  0  0  0  0  0  0
   45.0480   34.6410   45.3580 C   0  0  0  0  0  0  0  0  0  0  0  0
   47.8230   32.4760   43.9190 H   0  0  0  0  0  0  0  0  0  0  0  0
   44.2600   35.2570   45.7650 H   0  0  0  0  0  0  0  0  0  0  0  0
   48.7490   35.3850   40.9490 C   0  0  0  0  0  0  0  0  0  0  0  0
   48.2420   34.7620   39.7860 C   0  0  0  0  0  0  0  0  0  0  0  0
   47.1320   33.8840   39.9150 C   0  0  0  0  0  0  0  0  0  0  0  0
   46.6440   33.7140   41.1610 N   0  0  0  0  0  0  0  0  0  0  0  0
   47.1400   34.3130   42.2430 C   0  0  0  0  0  0  0  0  0  0  0  0
   48.1920   35.1510   42.1530 N   0  0  0  0  0  0  0  0  0  0  0  0
   49.5940   36.0480   40.8170 H   0  0  0  0  0  0  0  0  0  0  0  0
   48.6620   34.9240   38.8000 H   0  0  0  0  0  0  0  0  0  0  0  0
   46.6930   33.3770   39.0820 H   0  0  0  0  0  0  0  0  0  0  0  0
   47.1930   31.6380   46.2840 C   0  0  0  0  0  0  0  0  0  0  0  0
   46.7810   30.3240   45.6130 C   0  0  0  0  0  0  0  0  0  0  0  0
   46.5090   30.6050   47.0510 C   0  0  0  0  0  0  0  0  0  0  0  0
  1  2  1  0  0  0  0
  2  8  1  0  0  0  0
  3  2  2  0  0  0  0
  3  4  1  0  0  0  0
  4  5  2  0  0  0  0
  5  6  1  0  0  0  0
  5 20  1  0  0  0  0
  6  7  1  0  0  0  0
  8 10  1  0  0  0  0
  8  6  2  0  0  0  0
  9  4  1  0  0  0  0
 11 16  1  0  0  0  0
 12 13  1  0  0  0  0
 12 11  2  0  0  0  0
 13 14  2  0  0  0  0
 14 15  1  0  0  0  0
 15  3  1  0  0  0  0
 16 15  2  0  0  0  0
 17 11  1  0  0  0  0
 18 12  1  0  0  0  0
 19 13  1  0  0  0  0
 20 22  1  0  0  0  0
 21 20  1  0  0  0  0
 21 22  1  0  0  0  0
M  END
>  <minimizedAffinity>
-5.05246496

>  <minimizedRMSD>
0.240732104

$$$$
