
 OpenBabel03252502443D

 25 27  0  0  1  0  0  0  0  0999 V2000
   47.4370   34.8640   41.5860 C   0  0  0  0  0  0  0  0  0  0  0  0
   46.9120   34.8150   40.6360 H   0  0  0  0  0  0  0  0  0  0  0  0
   47.3240   35.8590   42.1210 H   0  0  0  0  0  0  0  0  0  0  0  0
   48.9320   34.6820   41.4780 C   0  0  1  0  0  0  0  0  0  0  0  0
   49.7770   35.3560   42.4810 C   0  0  0  0  0  0  0  0  0  0  0  0
   49.5580   33.8800   42.5510 C   0  0  2  0  0  0  0  0  0  0  0  0
   49.2440   34.5850   40.4180 H   0  0  0  0  0  0  0  0  0  0  0  0
   50.7340   35.7440   42.0370 H   0  0  0  0  0  0  0  0  0  0  0  0
   49.4270   36.0700   43.2320 H   0  0  0  0  0  0  0  0  0  0  0  0
   49.1100   33.2930   43.3170 H   0  0  0  0  0  0  0  0  0  0  0  0
   50.7830   33.0770   42.1240 C   0  0  0  0  0  0  0  0  0  0  0  0
   50.6990   32.0700   41.0650 C   0  0  0  0  0  0  0  0  0  0  0  0
   50.9160   31.6320   42.4910 C   0  0  0  0  0  0  0  0  0  0  0  0
   46.9390   33.7430   42.4790 C   0  0  0  0  0  0  0  0  0  0  0  0
   47.8020   33.5260   43.1870 H   0  0  0  0  0  0  0  0  0  0  0  0
   46.5470   32.8810   41.9670 H   0  0  0  0  0  0  0  0  0  0  0  0
   44.6520   36.0470   44.3470 C   0  0  0  0  0  0  0  0  0  0  0  0
   45.4130   35.5060   43.2940 C   0  0  0  0  0  0  0  0  0  0  0  0
   46.0690   34.3270   43.5330 C   0  0  0  0  0  0  0  0  0  0  0  0
   45.9560   33.7380   44.7550 N   0  0  0  0  0  0  0  0  0  0  0  0
   45.2340   34.2590   45.7330 C   0  0  0  0  0  0  0  0  0  0  0  0
   44.5800   35.4110   45.5420 N   0  0  0  0  0  0  0  0  0  0  0  0
   44.0920   36.9540   44.3060 H   0  0  0  0  0  0  0  0  0  0  0  0
   45.3430   36.1290   42.4220 H   0  0  0  0  0  0  0  0  0  0  0  0
   45.2400   33.6800   46.6430 H   0  0  0  0  0  0  0  0  0  0  0  0
  1  3  1  0  0  0  0
  1 14  1  0  0  0  0
  2  1  1  0  0  0  0
  4  7  1  6  0  0  0
  4  1  1  0  0  0  0
  4  5  1  0  0  0  0
  4  6  1  0  0  0  0
  5  6  1  0  0  0  0
  5  9  1  0  0  0  0
  6 10  1  1  0  0  0
  8  5  1  0  0  0  0
 11 13  1  0  0  0  0
 11  6  1  0  0  0  0
 12 11  1  0  0  0  0
 12 13  1  0  0  0  0
 14 15  1  0  0  0  0
 14 19  1  0  0  0  0
 16 14  1  0  0  0  0
 17 22  1  0  0  0  0
 18 19  1  0  0  0  0
 18 17  2  0  0  0  0
 19 20  2  0  0  0  0
 20 21  1  0  0  0  0
 21 25  1  0  0  0  0
 22 21  2  0  0  0  0
 23 17  1  0  0  0  0
 24 18  1  0  0  0  0
M  END
>  <minimizedAffinity>
-4.60034895

>  <minimizedRMSD>
0.621492147

$$$$
