
 OpenBabel03252507443D

 25 27  0  0  0  0  0  0  0  0999 V2000
   38.7720   29.5620   42.9210 C   0  0  0  0  0  0  0  0  0  0  0  0
   39.1890   30.2220   43.6720 H   0  0  0  0  0  0  0  0  0  0  0  0
   39.6640   29.0290   42.4760 H   0  0  0  0  0  0  0  0  0  0  0  0
   38.0430   30.2770   41.8570 C   0  0  0  0  0  0  0  0  0  0  0  0
   38.7740   31.2040   41.1140 C   0  0  0  0  0  0  0  0  0  0  0  0
   38.1420   31.9130   40.0920 C   0  0  0  0  0  0  0  0  0  0  0  0
   36.8240   31.6600   39.8670 N   0  0  0  0  0  0  0  0  0  0  0  0
   36.1440   30.7540   40.6070 C   0  0  0  0  0  0  0  0  0  0  0  0
   36.7600   30.0910   41.5720 N   0  0  0  0  0  0  0  0  0  0  0  0
   38.6940   32.6380   39.5030 H   0  0  0  0  0  0  0  0  0  0  0  0
   35.1020   30.6250   40.3500 H   0  0  0  0  0  0  0  0  0  0  0  0
   40.5190   31.4860   41.4700 S   0  0  0  0  0  0  0  0  0  0  0  0
   41.2400   30.2880   41.4330 H   0  0  0  0  0  0  0  0  0  0  0  0
   37.9630   28.5170   43.6050 C   0  0  0  0  0  0  0  0  0  0  0  0
   38.1750   28.5730   44.7000 H   0  0  0  0  0  0  0  0  0  0  0  0
   36.8650   28.7230   43.5180 H   0  0  0  0  0  0  0  0  0  0  0  0
   38.2730   27.1200   43.1920 C   0  0  0  0  0  0  0  0  0  0  0  0
   39.5410   26.5340   43.5240 C   0  0  0  0  0  0  0  0  0  0  0  0
   39.3830   24.8350   42.7830 S   0  0  0  0  0  0  0  0  0  0  0  0
   37.6450   25.2360   42.1670 C   0  0  0  0  0  0  0  0  0  0  0  0
   37.4880   26.3080   42.5210 N   0  0  0  0  0  0  0  0  0  0  0  0
   40.3320   27.0080   44.0640 H   0  0  0  0  0  0  0  0  0  0  0  0
   36.7980   24.2590   41.4040 C   0  0  0  0  0  3  0  0  0  0  0  0
   36.9120   24.3490   39.9170 C   0  0  0  0  0  2  0  0  0  0  0  0
   37.4760   23.1830   40.6330 C   0  0  0  0  0  2  0  0  0  0  0  0
  1 14  1  0  0  0  0
  1  2  1  0  0  0  0
  3  1  1  0  0  0  0
  4  1  1  0  0  0  0
  5 12  1  0  0  0  0
  5  4  2  0  0  0  0
  6  5  1  0  0  0  0
  7  6  2  0  0  0  0
  7  8  1  0  0  0  0
  8  9  2  0  0  0  0
  9  4  1  0  0  0  0
 10  6  1  0  0  0  0
 11  8  1  0  0  0  0
 13 12  1  0  0  0  0
 14 15  1  0  0  0  0
 16 14  1  0  0  0  0
 17 18  2  0  0  0  0
 17 14  1  0  0  0  0
 18 22  1  0  0  0  0
 19 18  1  0  0  0  0
 20 21  2  0  0  0  0
 20 19  1  0  0  0  0
 21 17  1  0  0  0  0
 23 20  1  0  0  0  0
 24 25  1  0  0  0  0
 24 23  1  0  0  0  0
 25 23  1  0  0  0  0
M  END
>  <minimizedAffinity>
-4.55792189

$$$$

 OpenBabel03252507443D

 25 27  0  0  0  0  0  0  0  0999 V2000
   36.5880   29.7770   41.5450 C   0  0  0  0  0  0  0  0  0  0  0  0
   36.2160   28.8090   41.2340 H   0  0  0  0  0  0  0  0  0  0  0  0
   35.7670   30.2110   42.1890 H   0  0  0  0  0  0  0  0  0  0  0  0
   36.8640   30.6860   40.4170 C   0  0  0  0  0  0  0  0  0  0  0  0
   36.8720   30.1150   39.1440 C   0  0  0  0  0  0  0  0  0  0  0  0
   37.1250   30.9220   38.0340 C   0  0  0  0  0  0  0  0  0  0  0  0
   37.3530   32.2460   38.2530 N   0  0  0  0  0  0  0  0  0  0  0  0
   37.3380   32.7670   39.5010 C   0  0  0  0  0  0  0  0  0  0  0  0
   37.0960   31.9860   40.5420 N   0  0  0  0  0  0  0  0  0  0  0  0
   37.1350   30.4970   37.0360 H   0  0  0  0  0  0  0  0  0  0  0  0
   37.5320   33.8290   39.5690 H   0  0  0  0  0  0  0  0  0  0  0  0
   36.5600   28.3520   38.9320 S   0  0  0  0  0  0  0  0  0  0  0  0
   35.3500   27.9800   39.5270 H   0  0  0  0  0  0  0  0  0  0  0  0
   37.7540   29.5690   42.4460 C   0  0  0  0  0  0  0  0  0  0  0  0
   38.6300   30.1130   42.0160 H   0  0  0  0  0  0  0  0  0  0  0  0
   37.5910   30.0430   43.4480 H   0  0  0  0  0  0  0  0  0  0  0  0
   38.1790   28.1490   42.5970 C   0  0  0  0  0  0  0  0  0  0  0  0
   39.4840   27.8370   43.1110 C   0  0  0  0  0  0  0  0  0  0  0  0
   39.4720   25.9780   43.0800 S   0  0  0  0  0  0  0  0  0  0  0  0
   37.7180   25.9730   42.3830 C   0  0  0  0  0  0  0  0  0  0  0  0
   37.4720   27.0830   42.3010 N   0  0  0  0  0  0  0  0  0  0  0  0
   40.2260   28.5430   43.4150 H   0  0  0  0  0  0  0  0  0  0  0  0
   36.9640   24.7150   42.0660 C   0  0  0  0  0  3  0  0  0  0  0  0
   36.6870   24.4910   40.6150 C   0  0  0  0  0  2  0  0  0  0  0  0
   37.6660   23.6350   41.3220 C   0  0  0  0  0  2  0  0  0  0  0  0
  1  3  1  0  0  0  0
  1 14  1  0  0  0  0
  2  1  1  0  0  0  0
  4  9  1  0  0  0  0
  4  1  1  0  0  0  0
  5  4  2  0  0  0  0
  6  7  2  0  0  0  0
  6  5  1  0  0  0  0
  7  8  1  0  0  0  0
  8 11  1  0  0  0  0
  8  9  2  0  0  0  0
 10  6  1  0  0  0  0
 12  5  1  0  0  0  0
 12 13  1  0  0  0  0
 14 17  1  0  0  0  0
 14 16  1  0  0  0  0
 15 14  1  0  0  0  0
 17 18  2  0  0  0  0
 18 22  1  0  0  0  0
 19 18  1  0  0  0  0
 20 19  1  0  0  0  0
 21 20  2  0  0  0  0
 21 17  1  0  0  0  0
 23 20  1  0  0  0  0
 24 25  1  0  0  0  0
 24 23  1  0  0  0  0
 25 23  1  0  0  0  0
M  END
>  <minimizedAffinity>
-4.45963907

$$$$

 OpenBabel03252507443D

 25 27  0  0  0  0  0  0  0  0999 V2000
   37.1110   27.1750   43.0190 C   0  0  0  0  0  0  0  0  0  0  0  0
   36.4400   26.8880   43.8180 H   0  0  0  0  0  0  0  0  0  0  0  0
   36.5670   26.8970   42.0680 H   0  0  0  0  0  0  0  0  0  0  0  0
   38.4080   26.4750   43.0670 C   0  0  0  0  0  0  0  0  0  0  0  0
   38.4710   25.2330   42.4360 C   0  0  0  0  0  0  0  0  0  0  0  0
   39.6710   24.5210   42.4460 C   0  0  0  0  0  0  0  0  0  0  0  0
   40.7360   25.0830   43.0780 N   0  0  0  0  0  0  0  0  0  0  0  0
   40.6420   26.2910   43.6800 C   0  0  0  0  0  0  0  0  0  0  0  0
   39.4950   26.9520   43.6610 N   0  0  0  0  0  0  0  0  0  0  0  0
   39.7390   23.5520   41.9610 H   0  0  0  0  0  0  0  0  0  0  0  0
   41.5440   26.6510   44.1540 H   0  0  0  0  0  0  0  0  0  0  0  0
   37.0160   24.5500   41.6180 S   0  0  0  0  0  0  0  0  0  0  0  0
   36.5000   25.4490   40.6780 H   0  0  0  0  0  0  0  0  0  0  0  0
   37.2290   28.6590   43.0100 C   0  0  0  0  0  0  0  0  0  0  0  0
   36.4560   29.0740   43.7010 H   0  0  0  0  0  0  0  0  0  0  0  0
   38.2060   28.9970   43.4410 H   0  0  0  0  0  0  0  0  0  0  0  0
   36.9890   29.2940   41.6840 C   0  0  0  0  0  0  0  0  0  0  0  0
   35.9940   28.7590   40.7970 C   0  0  0  0  0  0  0  0  0  0  0  0
   36.1220   29.9080   39.3400 S   0  0  0  0  0  0  0  0  0  0  0  0
   37.4880   30.8880   40.2000 C   0  0  0  0  0  0  0  0  0  0  0  0
   37.6080   30.3430   41.1940 N   0  0  0  0  0  0  0  0  0  0  0  0
   35.3710   27.9120   40.9870 H   0  0  0  0  0  0  0  0  0  0  0  0
   38.1550   32.0810   39.5800 C   0  0  0  0  0  3  0  0  0  0  0  0
   37.3540   33.3420   39.6100 C   0  0  0  0  0  2  0  0  0  0  0  0
   38.5550   33.2090   40.4640 C   0  0  0  0  0  2  0  0  0  0  0  0
  1  4  1  0  0  0  0
  1  2  1  0  0  0  0
  3  1  1  0  0  0  0
  4  9  1  0  0  0  0
  5  6  1  0  0  0  0
  5  4  2  0  0  0  0
  6  7  2  0  0  0  0
  7  8  1  0  0  0  0
  8 11  1  0  0  0  0
  9  8  2  0  0  0  0
 10  6  1  0  0  0  0
 12  5  1  0  0  0  0
 13 12  1  0  0  0  0
 14  1  1  0  0  0  0
 14 16  1  0  0  0  0
 14 15  1  0  0  0  0
 17 14  1  0  0  0  0
 18 22  1  0  0  0  0
 18 17  2  0  0  0  0
 19 20  1  0  0  0  0
 19 18  1  0  0  0  0
 20 21  2  0  0  0  0
 21 17  1  0  0  0  0
 23 24  1  0  0  0  0
 23 20  1  0  0  0  0
 23 25  1  0  0  0  0
 24 25  1  0  0  0  0
M  END
>  <minimizedAffinity>
-4.45564938

$$$$

 OpenBabel03252507443D

 25 27  0  0  0  0  0  0  0  0999 V2000
   36.9170   30.6610   39.9430 C   0  0  0  0  0  0  0  0  0  0  0  0
   37.3170   29.7600   39.4940 H   0  0  0  0  0  0  0  0  0  0  0  0
   35.9930   30.9010   39.3390 H   0  0  0  0  0  0  0  0  0  0  0  0
   37.8500   31.8020   39.8920 C   0  0  0  0  0  0  0  0  0  0  0  0
   39.1690   31.5140   39.5410 C   0  0  0  0  0  0  0  0  0  0  0  0
   40.1000   32.5510   39.4740 C   0  0  0  0  0  0  0  0  0  0  0  0
   39.6690   33.8100   39.7580 N   0  0  0  0  0  0  0  0  0  0  0  0
   38.3820   34.0540   40.0960 C   0  0  0  0  0  0  0  0  0  0  0  0
   37.5120   33.0580   40.1540 N   0  0  0  0  0  0  0  0  0  0  0  0
   41.1310   32.3470   39.2020 H   0  0  0  0  0  0  0  0  0  0  0  0
   38.1390   35.0870   40.3030 H   0  0  0  0  0  0  0  0  0  0  0  0
   39.6680   29.8200   39.1770 S   0  0  0  0  0  0  0  0  0  0  0  0
   38.8590   29.2600   38.1820 H   0  0  0  0  0  0  0  0  0  0  0  0
   36.4420   30.3340   41.3150 C   0  0  0  0  0  0  0  0  0  0  0  0
   36.6500   31.2120   41.9740 H   0  0  0  0  0  0  0  0  0  0  0  0
   35.3290   30.2130   41.3480 H   0  0  0  0  0  0  0  0  0  0  0  0
   37.1200   29.1680   41.9480 C   0  0  0  0  0  0  0  0  0  0  0  0
   38.2640   29.3690   42.7920 C   0  0  0  0  0  0  0  0  0  0  0  0
   38.6850   27.6270   43.2880 S   0  0  0  0  0  0  0  0  0  0  0  0
   37.2440   26.9600   42.2670 C   0  0  0  0  0  0  0  0  0  0  0  0
   36.7850   27.9040   41.8240 N   0  0  0  0  0  0  0  0  0  0  0  0
   38.7120   30.3100   43.0330 H   0  0  0  0  0  0  0  0  0  0  0  0
   36.9150   25.4990   42.1680 C   0  0  0  0  0  3  0  0  0  0  0  0
   37.4080   24.8210   40.9320 C   0  0  0  0  0  2  0  0  0  0  0  0
   38.0270   24.5140   42.2410 C   0  0  0  0  0  2  0  0  0  0  0  0
  1 14  1  0  0  0  0
  2  1  1  0  0  0  0
  3  1  1  0  0  0  0
  4  1  1  0  0  0  0
  4  9  1  0  0  0  0
  5  4  2  0  0  0  0
  6  5  1  0  0  0  0
  6  7  2  0  0  0  0
  7  8  1  0  0  0  0
  8  9  2  0  0  0  0
  8 11  1  0  0  0  0
 10  6  1  0  0  0  0
 12  5  1  0  0  0  0
 13 12  1  0  0  0  0
 14 16  1  0  0  0  0
 14 17  1  0  0  0  0
 14 15  1  0  0  0  0
 17 18  2  0  0  0  0
 18 22  1  0  0  0  0
 18 19  1  0  0  0  0
 20 19  1  0  0  0  0
 21 17  1  0  0  0  0
 21 20  2  0  0  0  0
 23 25  1  0  0  0  0
 23 20  1  0  0  0  0
 24 23  1  0  0  0  0
 24 25  1  0  0  0  0
M  END
>  <minimizedAffinity>
-4.44868708

$$$$

 OpenBabel03252507443D

 25 27  0  0  0  0  0  0  0  0999 V2000
   38.3740   28.0970   43.2860 C   0  0  0  0  0  0  0  0  0  0  0  0
   39.2560   28.5860   42.8910 H   0  0  0  0  0  0  0  0  0  0  0  0
   38.4920   28.1460   44.4090 H   0  0  0  0  0  0  0  0  0  0  0  0
   38.2490   26.6900   42.8630 C   0  0  0  0  0  0  0  0  0  0  0  0
   39.3830   25.8920   43.0080 C   0  0  0  0  0  0  0  0  0  0  0  0
   39.3300   24.5500   42.6260 C   0  0  0  0  0  0  0  0  0  0  0  0
   38.1550   24.0810   42.1270 N   0  0  0  0  0  0  0  0  0  0  0  0
   37.0720   24.8820   42.0000 C   0  0  0  0  0  0  0  0  0  0  0  0
   37.1420   26.1520   42.3660 N   0  0  0  0  0  0  0  0  0  0  0  0
   40.2020   23.9140   42.7310 H   0  0  0  0  0  0  0  0  0  0  0  0
   36.1870   24.4150   41.5920 H   0  0  0  0  0  0  0  0  0  0  0  0
   40.9080   26.5850   43.6780 S   0  0  0  0  0  0  0  0  0  0  0  0
   40.6820   27.1860   44.9220 H   0  0  0  0  0  0  0  0  0  0  0  0
   37.1850   28.9300   42.9580 C   0  0  0  0  0  0  0  0  0  0  0  0
   36.3680   28.2510   42.6120 H   0  0  0  0  0  0  0  0  0  0  0  0
   36.7690   29.4320   43.8690 H   0  0  0  0  0  0  0  0  0  0  0  0
   37.3990   29.9170   41.8620 C   0  0  0  0  0  0  0  0  0  0  0  0
   36.2800   30.4110   41.1080 C   0  0  0  0  0  0  0  0  0  0  0  0
   37.1080   31.5720   39.9140 S   0  0  0  0  0  0  0  0  0  0  0  0
   38.7970   31.1720   40.6550 C   0  0  0  0  0  0  0  0  0  0  0  0
   38.5470   30.4210   41.4750 N   0  0  0  0  0  0  0  0  0  0  0  0
   35.2560   30.1390   41.2490 H   0  0  0  0  0  0  0  0  0  0  0  0
   40.0760   31.7870   40.1630 C   0  0  0  0  0  3  0  0  0  0  0  0
   40.2540   33.2320   40.4990 C   0  0  0  0  0  2  0  0  0  0  0  0
   41.0920   32.2080   41.1630 C   0  0  0  0  0  2  0  0  0  0  0  0
  1  3  1  0  0  0  0
  2  1  1  0  0  0  0
  4  5  1  0  0  0  0
  4  1  1  0  0  0  0
  5 12  1  0  0  0  0
  6 10  1  0  0  0  0
  6  5  2  0  0  0  0
  7  6  1  0  0  0  0
  8  7  2  0  0  0  0
  8  9  1  0  0  0  0
  9  4  2  0  0  0  0
 11  8  1  0  0  0  0
 12 13  1  0  0  0  0
 14  1  1  0  0  0  0
 14 16  1  0  0  0  0
 15 14  1  0  0  0  0
 17 14  1  0  0  0  0
 18 22  1  0  0  0  0
 18 17  2  0  0  0  0
 19 20  1  0  0  0  0
 19 18  1  0  0  0  0
 20 21  2  0  0  0  0
 21 17  1  0  0  0  0
 23 24  1  0  0  0  0
 23 20  1  0  0  0  0
 23 25  1  0  0  0  0
 24 25  1  0  0  0  0
M  END
>  <minimizedAffinity>
-4.23454714

$$$$

 OpenBabel03252507443D

 25 27  0  0  0  0  0  0  0  0999 V2000
   37.5050   28.5030   43.3880 C   0  0  0  0  0  0  0  0  0  0  0  0
   36.5850   28.0830   43.0030 H   0  0  0  0  0  0  0  0  0  0  0  0
   37.2250   28.9480   44.3890 H   0  0  0  0  0  0  0  0  0  0  0  0
   38.0740   29.5530   42.5230 C   0  0  0  0  0  0  0  0  0  0  0  0
   37.3760   29.8420   41.3510 C   0  0  0  0  0  0  0  0  0  0  0  0
   37.8620   30.8270   40.4900 C   0  0  0  0  0  0  0  0  0  0  0  0
   39.0100   31.4660   40.8430 N   0  0  0  0  0  0  0  0  0  0  0  0
   39.6630   31.1620   41.9880 C   0  0  0  0  0  0  0  0  0  0  0  0
   39.1870   30.2240   42.7930 N   0  0  0  0  0  0  0  0  0  0  0  0
   37.3320   31.0660   39.5740 H   0  0  0  0  0  0  0  0  0  0  0  0
   40.5650   31.7260   42.1780 H   0  0  0  0  0  0  0  0  0  0  0  0
   35.8600   28.9520   40.9490 S   0  0  0  0  0  0  0  0  0  0  0  0
   34.9340   29.0370   41.9950 H   0  0  0  0  0  0  0  0  0  0  0  0
   38.4480   27.3890   43.6800 C   0  0  0  0  0  0  0  0  0  0  0  0
   39.4770   27.8160   43.7660 H   0  0  0  0  0  0  0  0  0  0  0  0
   38.2470   26.9300   44.6810 H   0  0  0  0  0  0  0  0  0  0  0  0
   38.5190   26.3410   42.6230 C   0  0  0  0  0  0  0  0  0  0  0  0
   39.7770   26.0240   42.0060 C   0  0  0  0  0  0  0  0  0  0  0  0
   39.2860   24.6930   40.8020 S   0  0  0  0  0  0  0  0  0  0  0  0
   37.4870   24.8170   41.3580 C   0  0  0  0  0  0  0  0  0  0  0  0
   37.5200   25.6290   42.1570 N   0  0  0  0  0  0  0  0  0  0  0  0
   40.7190   26.4760   42.2270 H   0  0  0  0  0  0  0  0  0  0  0  0
   36.3900   23.9700   40.7810 C   0  0  0  0  0  3  0  0  0  0  0  0
   35.9520   24.3520   39.4050 C   0  0  0  0  0  2  0  0  0  0  0  0
   36.7040   23.0960   39.6200 C   0  0  0  0  0  2  0  0  0  0  0  0
  1 14  1  0  0  0  0
  1  3  1  0  0  0  0
  2  1  1  0  0  0  0
  4  9  1  0  0  0  0
  4  1  1  0  0  0  0
  5  4  2  0  0  0  0
  6  7  2  0  0  0  0
  6  5  1  0  0  0  0
  7  8  1  0  0  0  0
  8 11  1  0  0  0  0
  8  9  2  0  0  0  0
 10  6  1  0  0  0  0
 12  5  1  0  0  0  0
 12 13  1  0  0  0  0
 14 15  1  0  0  0  0
 14 16  1  0  0  0  0
 17 14  1  0  0  0  0
 18 22  1  0  0  0  0
 18 17  2  0  0  0  0
 19 20  1  0  0  0  0
 19 18  1  0  0  0  0
 20 21  2  0  0  0  0
 21 17  1  0  0  0  0
 23 20  1  0  0  0  0
 24 25  1  0  0  0  0
 24 23  1  0  0  0  0
 25 23  1  0  0  0  0
M  END
>  <minimizedAffinity>
-4.23084021

$$$$

 OpenBabel03252507443D

 25 27  0  0  0  0  0  0  0  0999 V2000
   40.1570   29.3530   42.5680 C   0  0  0  0  0  0  0  0  0  0  0  0
   40.6960   29.2010   41.6410 H   0  0  0  0  0  0  0  0  0  0  0  0
   40.9080   29.1220   43.3810 H   0  0  0  0  0  0  0  0  0  0  0  0
   38.9850   28.4690   42.7130 C   0  0  0  0  0  0  0  0  0  0  0  0
   38.9740   27.3150   41.9320 C   0  0  0  0  0  0  0  0  0  0  0  0
   37.8930   26.4370   42.0240 C   0  0  0  0  0  0  0  0  0  0  0  0
   36.8900   26.7560   42.8850 N   0  0  0  0  0  0  0  0  0  0  0  0
   36.9320   27.8850   43.6290 C   0  0  0  0  0  0  0  0  0  0  0  0
   37.9650   28.7060   43.5290 N   0  0  0  0  0  0  0  0  0  0  0  0
   37.8660   25.5330   41.4240 H   0  0  0  0  0  0  0  0  0  0  0  0
   36.0870   28.0490   44.2830 H   0  0  0  0  0  0  0  0  0  0  0  0
   40.3410   26.9570   40.8110 S   0  0  0  0  0  0  0  0  0  0  0  0
   41.5640   26.9660   41.4910 H   0  0  0  0  0  0  0  0  0  0  0  0
   39.8380   30.8000   42.6980 C   0  0  0  0  0  0  0  0  0  0  0  0
   38.8570   30.8950   43.2230 H   0  0  0  0  0  0  0  0  0  0  0  0
   40.5680   31.3260   43.3650 H   0  0  0  0  0  0  0  0  0  0  0  0
   39.6900   31.5240   41.4040 C   0  0  0  0  0  0  0  0  0  0  0  0
   40.7290   32.4030   40.9460 C   0  0  0  0  0  0  0  0  0  0  0  0
   40.0320   33.0130   39.3340 S   0  0  0  0  0  0  0  0  0  0  0  0
   38.4770   31.9720   39.5820 C   0  0  0  0  0  0  0  0  0  0  0  0
   38.6690   31.4570   40.5810 N   0  0  0  0  0  0  0  0  0  0  0  0
   41.6470   32.6100   41.4530 H   0  0  0  0  0  0  0  0  0  0  0  0
   37.3440   31.9410   38.5980 C   0  0  0  0  0  3  0  0  0  0  0  0
   37.6250   31.2010   37.3310 C   0  0  0  0  0  2  0  0  0  0  0  0
   36.6790   30.6400   38.3210 C   0  0  0  0  0  2  0  0  0  0  0  0
  1 14  1  0  0  0  0
  1  4  1  0  0  0  0
  1  3  1  0  0  0  0
  2  1  1  0  0  0  0
  4  9  1  0  0  0  0
  5  6  1  0  0  0  0
  5  4  2  0  0  0  0
  6  7  2  0  0  0  0
  7  8  1  0  0  0  0
  8 11  1  0  0  0  0
  9  8  2  0  0  0  0
 10  6  1  0  0  0  0
 12 13  1  0  0  0  0
 12  5  1  0  0  0  0
 14 15  1  0  0  0  0
 14 16  1  0  0  0  0
 17 14  1  0  0  0  0
 18 17  2  0  0  0  0
 18 22  1  0  0  0  0
 19 20  1  0  0  0  0
 19 18  1  0  0  0  0
 20 21  2  0  0  0  0
 21 17  1  0  0  0  0
 23 20  1  0  0  0  0
 24 25  1  0  0  0  0
 24 23  1  0  0  0  0
 25 23  1  0  0  0  0
M  END
>  <minimizedAffinity>
-4.22063923

$$$$

 OpenBabel03252507443D

 25 27  0  0  0  0  0  0  0  0999 V2000
   37.7970   30.1560   38.1450 C   0  0  0  0  0  0  0  0  0  0  0  0
   38.6210   29.4530   38.1240 H   0  0  0  0  0  0  0  0  0  0  0  0
   37.6820   30.5000   37.0750 H   0  0  0  0  0  0  0  0  0  0  0  0
   38.0470   31.3210   39.0140 C   0  0  0  0  0  0  0  0  0  0  0  0
   39.1660   31.2540   39.8420 C   0  0  0  0  0  0  0  0  0  0  0  0
   39.4570   32.3260   40.6870 C   0  0  0  0  0  0  0  0  0  0  0  0
   38.6220   33.3990   40.6590 N   0  0  0  0  0  0  0  0  0  0  0  0
   37.5440   33.4320   39.8430 C   0  0  0  0  0  0  0  0  0  0  0  0
   37.2830   32.4060   39.0480 N   0  0  0  0  0  0  0  0  0  0  0  0
   40.3240   32.2920   41.3390 H   0  0  0  0  0  0  0  0  0  0  0  0
   36.9420   34.3290   39.8950 H   0  0  0  0  0  0  0  0  0  0  0  0
   40.2290   29.7970   39.8240 S   0  0  0  0  0  0  0  0  0  0  0  0
   40.6750   29.5150   38.5280 H   0  0  0  0  0  0  0  0  0  0  0  0
   36.5510   29.4140   38.4790 C   0  0  0  0  0  0  0  0  0  0  0  0
   35.8770   30.1010   39.0460 H   0  0  0  0  0  0  0  0  0  0  0  0
   35.9720   29.1450   37.5590 H   0  0  0  0  0  0  0  0  0  0  0  0
   36.7520   28.2180   39.3440 C   0  0  0  0  0  0  0  0  0  0  0  0
   36.9670   26.9270   38.7520 C   0  0  0  0  0  0  0  0  0  0  0  0
   37.1480   25.8430   40.2520 S   0  0  0  0  0  0  0  0  0  0  0  0
   36.9000   27.3300   41.3890 C   0  0  0  0  0  0  0  0  0  0  0  0
   36.7560   28.1910   40.6570 N   0  0  0  0  0  0  0  0  0  0  0  0
   37.0020   26.7120   37.7060 H   0  0  0  0  0  0  0  0  0  0  0  0
   36.9170   27.2300   42.8870 C   0  0  0  0  0  3  0  0  0  0  0  0
   38.2690   27.3440   43.5140 C   0  0  0  0  0  2  0  0  0  0  0  0
   37.2840   28.4360   43.6750 C   0  0  0  0  0  2  0  0  0  0  0  0
  1 14  1  0  0  0  0
  1  4  1  0  0  0  0
  2  1  1  0  0  0  0
  3  1  1  0  0  0  0
  4  9  2  0  0  0  0
  4  5  1  0  0  0  0
  5  6  2  0  0  0  0
  6 10  1  0  0  0  0
  7  6  1  0  0  0  0
  8 11  1  0  0  0  0
  8  7  2  0  0  0  0
  9  8  1  0  0  0  0
 12  5  1  0  0  0  0
 13 12  1  0  0  0  0
 14 15  1  0  0  0  0
 14 17  1  0  0  0  0
 16 14  1  0  0  0  0
 17 21  1  0  0  0  0
 18 17  2  0  0  0  0
 18 19  1  0  0  0  0
 19 20  1  0  0  0  0
 20 23  1  0  0  0  0
 21 20  2  0  0  0  0
 22 18  1  0  0  0  0
 23 24  1  0  0  0  0
 23 25  1  0  0  0  0
 24 25  1  0  0  0  0
M  END
>  <minimizedAffinity>
-4.16879368

$$$$

 OpenBabel03252507443D

 25 27  0  0  0  0  0  0  0  0999 V2000
   36.6100   30.7750   39.7820 C   0  0  0  0  0  0  0  0  0  0  0  0
   36.3450   31.8230   39.8430 H   0  0  0  0  0  0  0  0  0  0  0  0
   37.7300   30.7490   39.9320 H   0  0  0  0  0  0  0  0  0  0  0  0
   36.2720   30.1630   38.4830 C   0  0  0  0  0  0  0  0  0  0  0  0
   37.1260   30.4480   37.4190 C   0  0  0  0  0  0  0  0  0  0  0  0
   36.8620   29.8980   36.1630 C   0  0  0  0  0  0  0  0  0  0  0  0
   35.7680   29.0990   36.0400 N   0  0  0  0  0  0  0  0  0  0  0  0
   34.9590   28.8420   37.0940 C   0  0  0  0  0  0  0  0  0  0  0  0
   35.2260   29.3730   38.2770 N   0  0  0  0  0  0  0  0  0  0  0  0
   37.5150   30.1080   35.3230 H   0  0  0  0  0  0  0  0  0  0  0  0
   34.1170   28.1960   36.8930 H   0  0  0  0  0  0  0  0  0  0  0  0
   38.5580   31.5170   37.6580 S   0  0  0  0  0  0  0  0  0  0  0  0
   39.3650   31.0510   38.7020 H   0  0  0  0  0  0  0  0  0  0  0  0
   36.0180   30.0680   40.9510 C   0  0  0  0  0  0  0  0  0  0  0  0
   35.8080   30.8240   41.7460 H   0  0  0  0  0  0  0  0  0  0  0  0
   35.0170   29.6300   40.7040 H   0  0  0  0  0  0  0  0  0  0  0  0
   36.9040   29.0440   41.5720 C   0  0  0  0  0  0  0  0  0  0  0  0
   37.7610   29.4020   42.6680 C   0  0  0  0  0  0  0  0  0  0  0  0
   38.6110   27.7880   43.0310 S   0  0  0  0  0  0  0  0  0  0  0  0
   37.6540   26.9410   41.6430 C   0  0  0  0  0  0  0  0  0  0  0  0
   37.0080   27.7820   41.2250 N   0  0  0  0  0  0  0  0  0  0  0  0
   37.8420   30.3700   43.1150 H   0  0  0  0  0  0  0  0  0  0  0  0
   37.8220   25.4900   41.2970 C   0  0  0  0  0  3  0  0  0  0  0  0
   36.9620   24.5500   42.0780 C   0  0  0  0  0  2  0  0  0  0  0  0
   36.6900   24.7810   40.6420 C   0  0  0  0  0  2  0  0  0  0  0  0
  1  2  1  0  0  0  0
  1  3  1  0  0  0  0
  1 14  1  0  0  0  0
  4  1  1  0  0  0  0
  5 12  1  0  0  0  0
  5  4  2  0  0  0  0
  6  5  1  0  0  0  0
  7  6  2  0  0  0  0
  7  8  1  0  0  0  0
  8  9  2  0  0  0  0
  9  4  1  0  0  0  0
 10  6  1  0  0  0  0
 11  8  1  0  0  0  0
 12 13  1  0  0  0  0
 14 17  1  0  0  0  0
 14 15  1  0  0  0  0
 16 14  1  0  0  0  0
 17 18  2  0  0  0  0
 18 19  1  0  0  0  0
 18 22  1  0  0  0  0
 20 19  1  0  0  0  0
 21 17  1  0  0  0  0
 21 20  2  0  0  0  0
 23 20  1  0  0  0  0
 23 24  1  0  0  0  0
 25 23  1  0  0  0  0
 25 24  1  0  0  0  0
M  END
>  <minimizedAffinity>
-4.13307714

$$$$
