
 OpenBabel03252501383D

 29 31  0  0  0  0  0  0  0  0999 V2000
   44.3810   34.8370   42.0200 C   0  0  0  0  0  0  0  0  0  0  0  0
   44.1980   33.6090   42.3540 O   0  0  0  0  0  0  0  0  0  0  0  0
   45.3120   35.5180   42.8630 N   0  0  0  0  0  0  0  0  0  0  0  0
   45.5570   36.5060   42.7010 H   0  0  0  0  0  0  0  0  0  0  0  0
   45.7740   34.5860   43.8840 C   0  0  0  0  0  0  0  0  0  0  0  0
   45.2570   34.5300   45.1460 C   0  0  0  0  0  0  0  0  0  0  0  0
   45.8200   33.5780   45.9860 C   0  0  0  0  0  0  0  0  0  0  0  0
   46.8100   32.8020   45.5010 N   0  0  0  0  0  0  0  0  0  0  0  0
   47.2840   32.8960   44.2480 C   0  0  0  0  0  0  0  0  0  0  0  0
   46.7530   33.8170   43.4060 N   0  0  0  0  0  0  0  0  0  0  0  0
   45.4290   33.5140   46.9940 H   0  0  0  0  0  0  0  0  0  0  0  0
   48.0860   32.2400   43.9140 H   0  0  0  0  0  0  0  0  0  0  0  0
   44.2280   35.4140   45.4840 N   0  0  0  0  0  0  0  0  0  0  0  0
   43.3260   35.1690   45.0710 H   0  0  0  0  0  0  0  0  0  0  0  0
   44.3310   36.2530   46.0930 H   0  0  0  0  0  0  0  0  0  0  0  0
   43.7580   35.5010   40.9450 O   0  0  0  0  0  0  0  0  0  0  0  0
   43.5930   33.7040   38.6010 Cl  0  0  0  0  0  0  0  0  0  0  0  0
   42.2480   34.3290   39.5510 C   0  0  0  0  0  0  0  0  0  0  0  0
   42.4500   35.1800   40.6450 C   0  0  0  0  0  0  0  0  0  0  0  0
   41.3750   35.6370   41.3380 C   0  0  0  0  0  0  0  0  0  0  0  0
   40.0630   35.3130   41.0340 C   0  0  0  0  0  0  0  0  0  0  0  0
   39.8520   34.4580   39.9390 C   0  0  0  0  0  0  0  0  0  0  0  0
   38.2210   33.9940   39.4960 Cl  0  0  0  0  0  0  0  0  0  0  0  0
   40.9390   34.0020   39.2430 C   0  0  0  0  0  0  0  0  0  0  0  0
   41.5280   36.2940   42.1820 H   0  0  0  0  0  0  0  0  0  0  0  0
   39.2000   35.6800   41.5910 H   0  0  0  0  0  0  0  0  0  0  0  0
   40.8240   33.0860   38.0780 C   0  0  0  0  0  0  0  0  0  0  0  0
   40.0750   31.7680   38.3310 C   0  0  0  0  0  0  0  0  0  0  0  0
   41.5530   31.8340   37.9320 C   0  0  0  0  0  0  0  0  0  0  0  0
  1  2  2  0  0  0  0
  1  3  1  0  0  0  0
  3  5  1  0  0  0  0
  4  3  1  0  0  0  0
  5  6  1  0  0  0  0
  6 13  1  0  0  0  0
  6  7  2  0  0  0  0
  7 11  1  0  0  0  0
  8  7  1  0  0  0  0
  9  8  2  0  0  0  0
 10  5  2  0  0  0  0
 10  9  1  0  0  0  0
 12  9  1  0  0  0  0
 13 15  1  0  0  0  0
 14 13  1  0  0  0  0
 16  1  1  0  0  0  0
 17 18  1  0  0  0  0
 18 19  1  0  0  0  0
 19 16  1  0  0  0  0
 19 20  2  0  0  0  0
 20 25  1  0  0  0  0
 21 20  1  0  0  0  0
 21 26  1  0  0  0  0
 22 21  2  0  0  0  0
 23 22  1  0  0  0  0
 24 18  2  0  0  0  0
 24 22  1  0  0  0  0
 27 28  1  0  0  0  0
 27 24  1  0  0  0  0
 29 27  1  0  0  0  0
 29 28  1  0  0  0  0
M  END
>  <minimizedAffinity>
-6.13859606

>  <minimizedRMSD>
0.100916676

$$$$
