
 OpenBabel03242522043D

 29 31  0  0  1  0  0  0  0  0999 V2000
   39.9320   31.2550   40.6720 N   0  0  0  0  0  0  0  0  0  0  0  0
   40.4590   31.1750   39.3150 C   0  0  0  0  0  0  0  0  0  0  0  0
   40.7600   32.5460   38.7580 C   0  0  0  0  0  0  0  0  0  0  0  0
   39.6820   33.4640   38.8570 N   0  0  0  0  0  0  0  0  0  0  0  0
   38.8960   33.3910   40.0320 C   0  0  2  0  0  0  0  0  0  0  0  0
   39.3140   32.4780   41.1140 C   0  0  0  0  0  0  0  0  0  0  0  0
   39.6970   30.7130   38.6520 H   0  0  0  0  0  0  0  0  0  0  0  0
   41.3980   30.5960   39.3620 H   0  0  0  0  0  0  0  0  0  0  0  0
   41.1100   32.4300   37.7310 H   0  0  0  0  0  0  0  0  0  0  0  0
   41.6070   32.9620   39.3710 H   0  0  0  0  0  0  0  0  0  0  0  0
   40.0390   34.4170   38.6530 H   0  0  0  0  0  0  0  0  0  0  0  0
   38.8200   34.4180   40.4630 H   0  0  0  0  0  0  0  0  0  0  0  0
   40.0330   33.0020   41.7780 H   0  0  0  0  0  0  0  0  0  0  0  0
   38.4110   32.2680   41.7530 H   0  0  0  0  0  0  0  0  0  0  0  0
   41.1660   28.5020   42.8810 C   0  0  0  0  0  0  0  0  0  0  0  0
   41.2280   29.6020   42.0080 C   0  0  0  0  0  0  0  0  0  0  0  0
   40.0210   30.1460   41.5530 C   0  0  0  0  0  0  0  0  0  0  0  0
   38.8740   29.5680   41.9920 N   0  0  0  0  0  0  0  0  0  0  0  0
   38.8550   28.5100   42.8330 C   0  0  0  0  0  0  0  0  0  0  0  0
   40.0210   27.9740   43.2790 N   0  0  0  0  0  0  0  0  0  0  0  0
   42.0910   28.0730   43.2380 H   0  0  0  0  0  0  0  0  0  0  0  0
   42.1370   30.0460   41.6720 H   0  0  0  0  0  0  0  0  0  0  0  0
   37.5580   27.9270   43.2720 C   0  0  0  0  0  3  0  0  0  0  0  0
   37.0730   26.6330   42.6470 C   0  0  0  0  0  2  0  0  0  0  0  0
   36.4350   27.9280   42.2720 C   0  0  0  0  0  2  0  0  0  0  0  0
   37.4810   32.9860   39.6340 C   0  0  0  0  0  0  0  0  0  0  0  0
   37.5100   32.2970   38.4150 F   0  0  0  0  0  0  0  0  0  0  0  0
   36.8000   34.1610   39.3790 F   0  0  0  0  0  0  0  0  0  0  0  0
   36.8640   32.1950   40.5490 F   0  0  0  0  0  0  0  0  0  0  0  0
  1  6  1  0  0  0  0
  1 17  1  0  0  0  0
  2  8  1  0  0  0  0
  2  1  1  0  0  0  0
  3  4  1  0  0  0  0
  3  2  1  0  0  0  0
  3 10  1  0  0  0  0
  4  5  1  0  0  0  0
  5 12  1  1  0  0  0
  5  6  1  0  0  0  0
  6 14  1  0  0  0  0
  6 13  1  0  0  0  0
  7  2  1  0  0  0  0
  9  3  1  0  0  0  0
 11  4  1  0  0  0  0
 15 21  1  0  0  0  0
 15 20  1  0  0  0  0
 16 15  2  0  0  0  0
 17 18  2  0  0  0  0
 17 16  1  0  0  0  0
 18 19  1  0  0  0  0
 19 23  1  0  0  0  0
 19 20  2  0  0  0  0
 22 16  1  0  0  0  0
 24 23  1  0  0  0  0
 25 24  1  0  0  0  0
 25 23  1  0  0  0  0
 26  5  1  0  0  0  0
 26 29  1  0  0  0  0
 27 26  1  0  0  0  0
 28 26  1  0  0  0  0
M  END
>  <minimizedAffinity>
-5.29283047

$$$$

 OpenBabel03242522043D

 29 31  0  0  1  0  0  0  0  0999 V2000
   39.1550   26.7830   42.1750 N   0  0  0  0  0  0  0  0  0  0  0  0
   39.3540   26.0870   43.4410 C   0  0  0  0  0  0  0  0  0  0  0  0
   39.7900   24.6580   43.2220 C   0  0  0  0  0  0  0  0  0  0  0  0
   38.9590   23.9240   42.3360 N   0  0  0  0  0  0  0  0  0  0  0  0
   38.4430   24.6310   41.2240 C   0  0  2  0  0  0  0  0  0  0  0  0
   38.8960   26.0160   40.9860 C   0  0  0  0  0  0  0  0  0  0  0  0
   38.3930   26.0540   43.9970 H   0  0  0  0  0  0  0  0  0  0  0  0
   40.1500   26.6230   43.9880 H   0  0  0  0  0  0  0  0  0  0  0  0
   39.8840   24.1750   44.1960 H   0  0  0  0  0  0  0  0  0  0  0  0
   40.8130   24.7030   42.7550 H   0  0  0  0  0  0  0  0  0  0  0  0
   39.4430   23.0430   42.0820 H   0  0  0  0  0  0  0  0  0  0  0  0
   38.6630   24.0380   40.3040 H   0  0  0  0  0  0  0  0  0  0  0  0
   39.8280   25.9970   40.3830 H   0  0  0  0  0  0  0  0  0  0  0  0
   38.1270   26.5210   40.3360 H   0  0  0  0  0  0  0  0  0  0  0  0
   40.2160   30.3600   42.4290 C   0  0  0  0  0  0  0  0  0  0  0  0
   40.2950   28.9630   42.5600 C   0  0  0  0  0  0  0  0  0  0  0  0
   39.2120   28.2000   42.1080 C   0  0  0  0  0  0  0  0  0  0  0  0
   38.1600   28.8700   41.5730 N   0  0  0  0  0  0  0  0  0  0  0  0
   38.1200   30.2170   41.4640 C   0  0  0  0  0  0  0  0  0  0  0  0
   39.1670   30.9660   41.9010 N   0  0  0  0  0  0  0  0  0  0  0  0
   41.0460   30.9590   42.7750 H   0  0  0  0  0  0  0  0  0  0  0  0
   41.1300   28.4500   42.9820 H   0  0  0  0  0  0  0  0  0  0  0  0
   36.9320   30.8850   40.8670 C   0  0  0  0  0  3  0  0  0  0  0  0
   36.8340   31.0230   39.3600 C   0  0  0  0  0  2  0  0  0  0  0  0
   37.1590   32.2130   40.2000 C   0  0  0  0  0  2  0  0  0  0  0  0
   36.9250   24.6790   41.3520 C   0  0  0  0  0  0  0  0  0  0  0  0
   36.3570   23.5890   40.6790 F   0  0  0  0  0  0  0  0  0  0  0  0
   36.5130   25.7990   40.6570 F   0  0  0  0  0  0  0  0  0  0  0  0
   36.4860   24.6520   42.6370 F   0  0  0  0  0  0  0  0  0  0  0  0
  1  2  1  0  0  0  0
  2  8  1  0  0  0  0
  2  7  1  0  0  0  0
  3  2  1  0  0  0  0
  3  9  1  0  0  0  0
  4  3  1  0  0  0  0
  5 12  1  6  0  0  0
  5 26  1  0  0  0  0
  5  4  1  0  0  0  0
  6  5  1  0  0  0  0
  6  1  1  0  0  0  0
 10  3  1  0  0  0  0
 11  4  1  0  0  0  0
 13  6  1  0  0  0  0
 14  6  1  0  0  0  0
 15 16  1  0  0  0  0
 15 21  1  0  0  0  0
 16 22  1  0  0  0  0
 17  1  1  0  0  0  0
 17 16  2  0  0  0  0
 18 17  1  0  0  0  0
 19 18  2  0  0  0  0
 19 20  1  0  0  0  0
 20 15  2  0  0  0  0
 23 19  1  0  0  0  0
 24 25  1  0  0  0  0
 24 23  1  0  0  0  0
 25 23  1  0  0  0  0
 26 29  1  0  0  0  0
 27 26  1  0  0  0  0
 28 26  1  0  0  0  0
M  END
>  <minimizedAffinity>
-5.10797215

$$$$

 OpenBabel03242522043D

 29 31  0  0  1  0  0  0  0  0999 V2000
   38.6880   30.0930   40.5980 N   0  0  0  0  0  0  0  0  0  0  0  0
   39.0490   29.7280   39.2330 C   0  0  0  0  0  0  0  0  0  0  0  0
   39.9500   30.7650   38.6050 C   0  0  0  0  0  0  0  0  0  0  0  0
   39.4560   32.0930   38.6880 N   0  0  0  0  0  0  0  0  0  0  0  0
   38.7860   32.4430   39.8840 C   0  0  2  0  0  0  0  0  0  0  0  0
   38.7590   31.4730   40.9970 C   0  0  0  0  0  0  0  0  0  0  0  0
   38.1300   29.6750   38.6110 H   0  0  0  0  0  0  0  0  0  0  0  0
   39.5920   28.7680   39.2830 H   0  0  0  0  0  0  0  0  0  0  0  0
   40.1540   30.4640   37.5760 H   0  0  0  0  0  0  0  0  0  0  0  0
   40.9190   30.7350   39.1760 H   0  0  0  0  0  0  0  0  0  0  0  0
   40.2200   32.7460   38.4300 H   0  0  0  0  0  0  0  0  0  0  0  0
   39.2360   33.3900   40.2690 H   0  0  0  0  0  0  0  0  0  0  0  0
   39.6710   31.6020   41.6170 H   0  0  0  0  0  0  0  0  0  0  0  0
   37.8960   31.7470   41.6680 H   0  0  0  0  0  0  0  0  0  0  0  0
   37.4600   28.3060   43.6440 C   0  0  0  0  0  0  0  0  0  0  0  0
   37.8490   29.3850   42.8320 C   0  0  0  0  0  0  0  0  0  0  0  0
   38.2690   29.1050   41.5270 C   0  0  0  0  0  0  0  0  0  0  0  0
   38.2700   27.8040   41.1400 N   0  0  0  0  0  0  0  0  0  0  0  0
   37.8880   26.7920   41.9500 C   0  0  0  0  0  0  0  0  0  0  0  0
   37.4790   27.0540   43.2200 N   0  0  0  0  0  0  0  0  0  0  0  0
   37.1330   28.5110   44.6530 H   0  0  0  0  0  0  0  0  0  0  0  0
   37.8430   30.4030   43.1500 H   0  0  0  0  0  0  0  0  0  0  0  0
   37.9150   25.3880   41.4590 C   0  0  0  0  0  3  0  0  0  0  0  0
   36.7090   24.8320   40.7250 C   0  0  0  0  0  2  0  0  0  0  0  0
   36.9890   24.4110   42.1290 C   0  0  0  0  0  2  0  0  0  0  0  0
   37.3360   32.7650   39.5410 C   0  0  0  0  0  0  0  0  0  0  0  0
   37.1410   34.1520   39.5560 F   0  0  0  0  0  0  0  0  0  0  0  0
   36.5740   32.2720   40.5830 F   0  0  0  0  0  0  0  0  0  0  0  0
   36.9490   32.3000   38.3260 F   0  0  0  0  0  0  0  0  0  0  0  0
  1  6  1  0  0  0  0
  1 17  1  0  0  0  0
  2  8  1  0  0  0  0
  2  1  1  0  0  0  0
  3  4  1  0  0  0  0
  3 10  1  0  0  0  0
  3  2  1  0  0  0  0
  4  5  1  0  0  0  0
  5 12  1  1  0  0  0
  5  6  1  0  0  0  0
  6 13  1  0  0  0  0
  6 14  1  0  0  0  0
  7  2  1  0  0  0  0
  9  3  1  0  0  0  0
 11  4  1  0  0  0  0
 15 21  1  0  0  0  0
 16 22  1  0  0  0  0
 16 15  2  0  0  0  0
 17 16  1  0  0  0  0
 18 17  2  0  0  0  0
 18 19  1  0  0  0  0
 19 20  2  0  0  0  0
 20 15  1  0  0  0  0
 23 19  1  0  0  0  0
 23 25  1  0  0  0  0
 24 23  1  0  0  0  0
 24 25  1  0  0  0  0
 26 27  1  0  0  0  0
 26  5  1  0  0  0  0
 26 28  1  0  0  0  0
 29 26  1  0  0  0  0
M  END
>  <minimizedAffinity>
-5.0744977

$$$$

 OpenBabel03242522043D

 29 31  0  0  1  0  0  0  0  0999 V2000
   37.8770   29.1620   41.5810 N   0  0  0  0  0  0  0  0  0  0  0  0
   38.5920   30.1400   40.7700 C   0  0  0  0  0  0  0  0  0  0  0  0
   37.8560   31.4580   40.7170 C   0  0  0  0  0  0  0  0  0  0  0  0
   36.4920   31.3490   40.3400 N   0  0  0  0  0  0  0  0  0  0  0  0
   35.7890   30.2230   40.8320 C   0  0  2  0  0  0  0  0  0  0  0  0
   36.4630   29.3250   41.7920 C   0  0  0  0  0  0  0  0  0  0  0  0
   38.6680   29.7660   39.7260 H   0  0  0  0  0  0  0  0  0  0  0  0
   39.5770   30.3010   41.2430 H   0  0  0  0  0  0  0  0  0  0  0  0
   38.4120   32.1350   40.0660 H   0  0  0  0  0  0  0  0  0  0  0  0
   37.8790   31.8790   41.7600 H   0  0  0  0  0  0  0  0  0  0  0  0
   36.0220   32.2530   40.5350 H   0  0  0  0  0  0  0  0  0  0  0  0
   34.8460   30.5850   41.3090 H   0  0  0  0  0  0  0  0  0  0  0  0
   36.3140   29.7120   42.8210 H   0  0  0  0  0  0  0  0  0  0  0  0
   35.9310   28.3330   41.7620 H   0  0  0  0  0  0  0  0  0  0  0  0
   40.3240   26.9880   43.3890 C   0  0  0  0  0  0  0  0  0  0  0  0
   39.7600   28.1660   42.8690 C   0  0  0  0  0  0  0  0  0  0  0  0
   38.5590   28.0600   42.1590 C   0  0  0  0  0  0  0  0  0  0  0  0
   38.0230   26.8190   42.0260 N   0  0  0  0  0  0  0  0  0  0  0  0
   38.5950   25.7090   42.5410 C   0  0  0  0  0  0  0  0  0  0  0  0
   39.7630   25.8020   43.2300 N   0  0  0  0  0  0  0  0  0  0  0  0
   41.2510   27.0580   43.9380 H   0  0  0  0  0  0  0  0  0  0  0  0
   40.1930   29.1340   42.9820 H   0  0  0  0  0  0  0  0  0  0  0  0
   37.9520   24.3810   42.3550 C   0  0  0  0  0  3  0  0  0  0  0  0
   38.1250   23.6460   41.0390 C   0  0  0  0  0  2  0  0  0  0  0  0
   36.8240   24.3010   41.3630 C   0  0  0  0  0  2  0  0  0  0  0  0
   35.3700   29.3660   39.6440 C   0  0  0  0  0  0  0  0  0  0  0  0
   35.7220   30.0070   38.4490 F   0  0  0  0  0  0  0  0  0  0  0  0
   33.9890   29.3370   39.6560 F   0  0  0  0  0  0  0  0  0  0  0  0
   35.9330   28.1310   39.6390 F   0  0  0  0  0  0  0  0  0  0  0  0
  1  6  1  0  0  0  0
  1 17  1  0  0  0  0
  2  8  1  0  0  0  0
  2  1  1  0  0  0  0
  3  2  1  0  0  0  0
  3 10  1  0  0  0  0
  4 11  1  0  0  0  0
  4  3  1  0  0  0  0
  4  5  1  0  0  0  0
  5 12  1  1  0  0  0
  5  6  1  0  0  0  0
  6 13  1  0  0  0  0
  7  2  1  0  0  0  0
  9  3  1  0  0  0  0
 14  6  1  0  0  0  0
 15 21  1  0  0  0  0
 16 22  1  0  0  0  0
 16 15  2  0  0  0  0
 17 16  1  0  0  0  0
 18 17  2  0  0  0  0
 18 19  1  0  0  0  0
 19 20  2  0  0  0  0
 20 15  1  0  0  0  0
 23 19  1  0  0  0  0
 24 25  1  0  0  0  0
 24 23  1  0  0  0  0
 25 23  1  0  0  0  0
 26 28  1  0  0  0  0
 26  5  1  0  0  0  0
 27 26  1  0  0  0  0
 29 26  1  0  0  0  0
M  END
>  <minimizedAffinity>
-5.06436014

$$$$

 OpenBabel03242522043D

 29 31  0  0  1  0  0  0  0  0999 V2000
   38.3310   30.0120   39.0970 N   0  0  0  0  0  0  0  0  0  0  0  0
   38.3310   30.4600   37.7100 C   0  0  0  0  0  0  0  0  0  0  0  0
   39.4060   31.4910   37.4630 C   0  0  0  0  0  0  0  0  0  0  0  0
   39.3880   32.5810   38.3730 N   0  0  0  0  0  0  0  0  0  0  0  0
   39.0680   32.2740   39.7170 C   0  0  2  0  0  0  0  0  0  0  0  0
   38.9080   30.8590   40.1080 C   0  0  0  0  0  0  0  0  0  0  0  0
   37.3570   30.9410   37.4790 H   0  0  0  0  0  0  0  0  0  0  0  0
   38.5350   29.5750   37.0810 H   0  0  0  0  0  0  0  0  0  0  0  0
   39.3340   31.8200   36.4250 H   0  0  0  0  0  0  0  0  0  0  0  0
   40.3910   30.9650   37.5950 H   0  0  0  0  0  0  0  0  0  0  0  0
   40.2700   33.1160   38.2650 H   0  0  0  0  0  0  0  0  0  0  0  0
   39.8560   32.7200   40.3710 H   0  0  0  0  0  0  0  0  0  0  0  0
   39.8990   30.4400   40.3790 H   0  0  0  0  0  0  0  0  0  0  0  0
   38.2990   30.8340   41.0550 H   0  0  0  0  0  0  0  0  0  0  0  0
   36.6420   26.6760   39.0490 C   0  0  0  0  0  0  0  0  0  0  0  0
   37.1540   27.8880   38.5520 C   0  0  0  0  0  0  0  0  0  0  0  0
   37.7700   28.7590   39.4570 C   0  0  0  0  0  0  0  0  0  0  0  0
   37.8290   28.3670   40.7560 N   0  0  0  0  0  0  0  0  0  0  0  0
   37.3250   27.1930   41.1960 C   0  0  0  0  0  0  0  0  0  0  0  0
   36.7240   26.3410   40.3250 N   0  0  0  0  0  0  0  0  0  0  0  0
   36.1640   25.9960   38.3590 H   0  0  0  0  0  0  0  0  0  0  0  0
   37.1000   28.1820   37.5280 H   0  0  0  0  0  0  0  0  0  0  0  0
   37.4250   26.8290   42.6350 C   0  0  0  0  0  3  0  0  0  0  0  0
   36.4020   27.3720   43.6140 C   0  0  0  0  0  2  0  0  0  0  0  0
   37.7870   27.9290   43.5950 C   0  0  0  0  0  2  0  0  0  0  0  0
   37.7650   32.9820   40.0700 C   0  0  0  0  0  0  0  0  0  0  0  0
   37.1000   33.3630   38.8970 F   0  0  0  0  0  0  0  0  0  0  0  0
   38.1210   34.1610   40.6940 F   0  0  0  0  0  0  0  0  0  0  0  0
   36.9150   32.2200   40.8050 F   0  0  0  0  0  0  0  0  0  0  0  0
  1 17  1  0  0  0  0
  1  6  1  0  0  0  0
  2  1  1  0  0  0  0
  3 10  1  0  0  0  0
  3  2  1  0  0  0  0
  3  4  1  0  0  0  0
  4  5  1  0  0  0  0
  5 26  1  0  0  0  0
  5  6  1  0  0  0  0
  5 12  1  1  0  0  0
  6 13  1  0  0  0  0
  6 14  1  0  0  0  0
  7  2  1  0  0  0  0
  8  2  1  0  0  0  0
  9  3  1  0  0  0  0
 11  4  1  0  0  0  0
 15 20  1  0  0  0  0
 16 15  2  0  0  0  0
 16 17  1  0  0  0  0
 17 18  2  0  0  0  0
 18 19  1  0  0  0  0
 19 23  1  0  0  0  0
 20 19  2  0  0  0  0
 21 15  1  0  0  0  0
 22 16  1  0  0  0  0
 23 25  1  0  0  0  0
 23 24  1  0  0  0  0
 25 24  1  0  0  0  0
 26 28  1  0  0  0  0
 26 29  1  0  0  0  0
 27 26  1  0  0  0  0
M  END
>  <minimizedAffinity>
-5.06322289

$$$$

 OpenBabel03242522043D

 29 31  0  0  1  0  0  0  0  0999 V2000
   37.5060   29.7850   40.1560 N   0  0  0  0  0  0  0  0  0  0  0  0
   36.3210   29.8670   39.3100 C   0  0  0  0  0  0  0  0  0  0  0  0
   36.6750   30.2970   37.9060 C   0  0  0  0  0  0  0  0  0  0  0  0
   37.4600   31.4770   37.8380 N   0  0  0  0  0  0  0  0  0  0  0  0
   38.4450   31.6380   38.8420 C   0  0  2  0  0  0  0  0  0  0  0  0
   38.6800   30.5350   39.7950 C   0  0  0  0  0  0  0  0  0  0  0  0
   35.6290   30.6320   39.7210 H   0  0  0  0  0  0  0  0  0  0  0  0
   35.8750   28.8580   39.2720 H   0  0  0  0  0  0  0  0  0  0  0  0
   35.7510   30.3820   37.3310 H   0  0  0  0  0  0  0  0  0  0  0  0
   37.2880   29.4650   37.4610 H   0  0  0  0  0  0  0  0  0  0  0  0
   37.8280   31.5740   36.8730 H   0  0  0  0  0  0  0  0  0  0  0  0
   39.4170   31.8670   38.3410 H   0  0  0  0  0  0  0  0  0  0  0  0
   39.4160   29.8270   39.3610 H   0  0  0  0  0  0  0  0  0  0  0  0
   39.1790   30.9700   40.7050 H   0  0  0  0  0  0  0  0  0  0  0  0
   37.7250   28.5520   43.6800 C   0  0  0  0  0  0  0  0  0  0  0  0
   37.7540   29.4670   42.6120 C   0  0  0  0  0  0  0  0  0  0  0  0
   37.5100   28.9780   41.3240 C   0  0  0  0  0  0  0  0  0  0  0  0
   37.2610   27.6490   41.1990 N   0  0  0  0  0  0  0  0  0  0  0  0
   37.2420   26.8000   42.2510 C   0  0  0  0  0  0  0  0  0  0  0  0
   37.4790   27.2650   43.5060 N   0  0  0  0  0  0  0  0  0  0  0  0
   37.9120   28.9180   44.6790 H   0  0  0  0  0  0  0  0  0  0  0  0
   37.9500   30.5090   42.7260 H   0  0  0  0  0  0  0  0  0  0  0  0
   36.9630   25.3540   42.0390 C   0  0  0  0  0  3  0  0  0  0  0  0
   38.0990   24.4240   41.6590 C   0  0  0  0  0  2  0  0  0  0  0  0
   37.0930   24.8320   40.6350 C   0  0  0  0  0  2  0  0  0  0  0  0
   38.0870   32.8680   39.6680 C   0  0  0  0  0  0  0  0  0  0  0  0
   36.9110   33.4460   39.1720 F   0  0  0  0  0  0  0  0  0  0  0  0
   39.0840   33.7950   39.4330 F   0  0  0  0  0  0  0  0  0  0  0  0
   37.9000   32.6020   40.9860 F   0  0  0  0  0  0  0  0  0  0  0  0
  1 17  1  0  0  0  0
  2  7  1  0  0  0  0
  2  1  1  0  0  0  0
  3  2  1  0  0  0  0
  4  3  1  0  0  0  0
  4  5  1  0  0  0  0
  5 12  1  6  0  0  0
  5 26  1  0  0  0  0
  5  6  1  0  0  0  0
  6  1  1  0  0  0  0
  6 14  1  0  0  0  0
  8  2  1  0  0  0  0
  9  3  1  0  0  0  0
 10  3  1  0  0  0  0
 11  4  1  0  0  0  0
 13  6  1  0  0  0  0
 15 21  1  0  0  0  0
 16 22  1  0  0  0  0
 16 15  2  0  0  0  0
 17 16  1  0  0  0  0
 18 17  2  0  0  0  0
 18 19  1  0  0  0  0
 19 20  2  0  0  0  0
 20 15  1  0  0  0  0
 23 19  1  0  0  0  0
 24 23  1  0  0  0  0
 25 24  1  0  0  0  0
 25 23  1  0  0  0  0
 26 29  1  0  0  0  0
 27 26  1  0  0  0  0
 28 26  1  0  0  0  0
M  END
>  <minimizedAffinity>
-4.98420143

$$$$

 OpenBabel03242522043D

 29 31  0  0  1  0  0  0  0  0999 V2000
   38.0420   30.9780   41.0460 N   0  0  0  0  0  0  0  0  0  0  0  0
   39.2530   31.7870   41.1300 C   0  0  0  0  0  0  0  0  0  0  0  0
   38.9740   33.2340   40.7990 C   0  0  0  0  0  0  0  0  0  0  0  0
   38.2880   33.4290   39.5720 N   0  0  0  0  0  0  0  0  0  0  0  0
   37.2920   32.4780   39.2480 C   0  0  2  0  0  0  0  0  0  0  0  0
   36.9430   31.4430   40.2420 C   0  0  0  0  0  0  0  0  0  0  0  0
   39.9930   31.4180   40.3880 H   0  0  0  0  0  0  0  0  0  0  0  0
   39.6170   31.7230   42.1710 H   0  0  0  0  0  0  0  0  0  0  0  0
   39.9170   33.7810   40.8370 H   0  0  0  0  0  0  0  0  0  0  0  0
   38.3090   33.6270   41.6170 H   0  0  0  0  0  0  0  0  0  0  0  0
   37.9570   34.4110   39.5320 H   0  0  0  0  0  0  0  0  0  0  0  0
   36.3560   33.0300   38.9890 H   0  0  0  0  0  0  0  0  0  0  0  0
   36.1640   31.8400   40.9260 H   0  0  0  0  0  0  0  0  0  0  0  0
   36.4540   30.5910   39.6910 H   0  0  0  0  0  0  0  0  0  0  0  0
   36.7880   27.8440   42.6540 C   0  0  0  0  0  0  0  0  0  0  0  0
   36.7400   29.0560   41.9430 C   0  0  0  0  0  0  0  0  0  0  0  0
   37.9400   29.7470   41.7440 C   0  0  0  0  0  0  0  0  0  0  0  0
   39.0690   29.1910   42.2540 N   0  0  0  0  0  0  0  0  0  0  0  0
   39.0760   28.0220   42.9330 C   0  0  0  0  0  0  0  0  0  0  0  0
   37.9150   27.3450   43.1320 N   0  0  0  0  0  0  0  0  0  0  0  0
   35.8670   27.3020   42.8140 H   0  0  0  0  0  0  0  0  0  0  0  0
   35.8450   29.4800   41.5480 H   0  0  0  0  0  0  0  0  0  0  0  0
   40.3520   27.4740   43.4650 C   0  0  0  0  0  3  0  0  0  0  0  0
   41.2150   26.5990   42.5760 C   0  0  0  0  0  2  0  0  0  0  0  0
   40.4190   25.9870   43.6800 C   0  0  0  0  0  2  0  0  0  0  0  0
   37.7240   31.7480   37.9820 C   0  0  0  0  0  0  0  0  0  0  0  0
   37.2400   32.4240   36.8550 F   0  0  0  0  0  0  0  0  0  0  0  0
   37.0690   30.5310   37.9940 F   0  0  0  0  0  0  0  0  0  0  0  0
   39.0710   31.6310   37.8540 F   0  0  0  0  0  0  0  0  0  0  0  0
  1  2  1  0  0  0  0
  1 17  1  0  0  0  0
  2  8  1  0  0  0  0
  3  9  1  0  0  0  0
  3  2  1  0  0  0  0
  3 10  1  0  0  0  0
  4  3  1  0  0  0  0
  5 12  1  6  0  0  0
  5  4  1  0  0  0  0
  5  6  1  0  0  0  0
  6 13  1  0  0  0  0
  6  1  1  0  0  0  0
  7  2  1  0  0  0  0
 11  4  1  0  0  0  0
 14  6  1  0  0  0  0
 15 21  1  0  0  0  0
 15 20  1  0  0  0  0
 16 15  2  0  0  0  0
 17 16  1  0  0  0  0
 17 18  2  0  0  0  0
 18 19  1  0  0  0  0
 19 20  2  0  0  0  0
 19 23  1  0  0  0  0
 22 16  1  0  0  0  0
 23 25  1  0  0  0  0
 24 23  1  0  0  0  0
 24 25  1  0  0  0  0
 26 28  1  0  0  0  0
 26  5  1  0  0  0  0
 27 26  1  0  0  0  0
 29 26  1  0  0  0  0
M  END
>  <minimizedAffinity>
-4.91854477

$$$$

 OpenBabel03242522043D

 29 31  0  0  1  0  0  0  0  0999 V2000
   37.2250   29.1900   37.7890 N   0  0  0  0  0  0  0  0  0  0  0  0
   37.6930   27.8670   37.3960 C   0  0  0  0  0  0  0  0  0  0  0  0
   38.2970   27.8840   36.0120 C   0  0  0  0  0  0  0  0  0  0  0  0
   37.4680   28.4710   35.0210 N   0  0  0  0  0  0  0  0  0  0  0  0
   36.7090   29.5970   35.4200 C   0  0  2  0  0  0  0  0  0  0  0  0
   36.9200   30.1590   36.7690 C   0  0  0  0  0  0  0  0  0  0  0  0
   36.8310   27.1660   37.3680 H   0  0  0  0  0  0  0  0  0  0  0  0
   38.4700   27.5660   38.1210 H   0  0  0  0  0  0  0  0  0  0  0  0
   38.5910   26.8650   35.7540 H   0  0  0  0  0  0  0  0  0  0  0  0
   39.2300   28.5100   36.0780 H   0  0  0  0  0  0  0  0  0  0  0  0
   38.0360   28.6310   34.1680 H   0  0  0  0  0  0  0  0  0  0  0  0
   36.8850   30.4140   34.6800 H   0  0  0  0  0  0  0  0  0  0  0  0
   37.7550   30.8900   36.7340 H   0  0  0  0  0  0  0  0  0  0  0  0
   36.0050   30.7570   37.0370 H   0  0  0  0  0  0  0  0  0  0  0  0
   36.4180   30.9330   40.9980 C   0  0  0  0  0  0  0  0  0  0  0  0
   36.5150   30.7330   39.6100 C   0  0  0  0  0  0  0  0  0  0  0  0
   37.0670   29.5280   39.1590 C   0  0  0  0  0  0  0  0  0  0  0  0
   37.4690   28.6370   40.1010 N   0  0  0  0  0  0  0  0  0  0  0  0
   37.3600   28.8660   41.4280 C   0  0  0  0  0  0  0  0  0  0  0  0
   36.8260   30.0330   41.8760 N   0  0  0  0  0  0  0  0  0  0  0  0
   35.9940   31.8590   41.3570 H   0  0  0  0  0  0  0  0  0  0  0  0
   36.1940   31.4420   38.8810 H   0  0  0  0  0  0  0  0  0  0  0  0
   37.8230   27.8440   42.4040 C   0  0  0  0  0  3  0  0  0  0  0  0
   36.9890   26.5970   42.6300 C   0  0  0  0  0  2  0  0  0  0  0  0
   37.0100   27.6780   43.6590 C   0  0  0  0  0  2  0  0  0  0  0  0
   35.2310   29.2350   35.3180 C   0  0  0  0  0  0  0  0  0  0  0  0
   35.0950   27.9170   34.8650 F   0  0  0  0  0  0  0  0  0  0  0  0
   34.7080   30.0280   34.3150 F   0  0  0  0  0  0  0  0  0  0  0  0
   34.5620   29.3460   36.4940 F   0  0  0  0  0  0  0  0  0  0  0  0
  1 17  1  0  0  0  0
  2  1  1  0  0  0  0
  2  8  1  0  0  0  0
  3 10  1  0  0  0  0
  3  2  1  0  0  0  0
  4  5  1  0  0  0  0
  4  3  1  0  0  0  0
  5 12  1  6  0  0  0
  5  6  1  0  0  0  0
  6 14  1  0  0  0  0
  6  1  1  0  0  0  0
  7  2  1  0  0  0  0
  9  3  1  0  0  0  0
 11  4  1  0  0  0  0
 13  6  1  0  0  0  0
 15 21  1  0  0  0  0
 15 20  1  0  0  0  0
 16 15  2  0  0  0  0
 17 16  1  0  0  0  0
 17 18  2  0  0  0  0
 18 19  1  0  0  0  0
 19 20  2  0  0  0  0
 19 23  1  0  0  0  0
 22 16  1  0  0  0  0
 23 24  1  0  0  0  0
 23 25  1  0  0  0  0
 24 25  1  0  0  0  0
 26  5  1  0  0  0  0
 26 29  1  0  0  0  0
 27 26  1  0  0  0  0
 28 26  1  0  0  0  0
M  END
>  <minimizedAffinity>
-4.90033054

$$$$

 OpenBabel03242522043D

 29 31  0  0  1  0  0  0  0  0999 V2000
   38.1710   27.7140   41.9260 N   0  0  0  0  0  0  0  0  0  0  0  0
   38.4250   27.4600   43.3390 C   0  0  0  0  0  0  0  0  0  0  0  0
   39.4250   26.3440   43.5280 C   0  0  0  0  0  0  0  0  0  0  0  0
   39.1100   25.1540   42.8220 N   0  0  0  0  0  0  0  0  0  0  0  0
   38.5420   25.3160   41.5350 C   0  0  2  0  0  0  0  0  0  0  0  0
   38.4360   26.6750   40.9670 C   0  0  0  0  0  0  0  0  0  0  0  0
   37.4810   27.1390   43.8300 H   0  0  0  0  0  0  0  0  0  0  0  0
   38.8400   28.3880   43.7690 H   0  0  0  0  0  0  0  0  0  0  0  0
   39.5440   26.1690   44.5990 H   0  0  0  0  0  0  0  0  0  0  0  0
   40.4050   26.7210   43.1240 H   0  0  0  0  0  0  0  0  0  0  0  0
   39.9410   24.5320   42.8360 H   0  0  0  0  0  0  0  0  0  0  0  0
   39.1260   24.6910   40.8170 H   0  0  0  0  0  0  0  0  0  0  0  0
   39.3820   26.9270   40.4440 H   0  0  0  0  0  0  0  0  0  0  0  0
   37.6460   26.6490   40.1660 H   0  0  0  0  0  0  0  0  0  0  0  0
   35.9800   30.4860   40.7000 C   0  0  0  0  0  0  0  0  0  0  0  0
   36.3410   29.1890   41.1070 C   0  0  0  0  0  0  0  0  0  0  0  0
   37.6680   28.9690   41.4920 C   0  0  0  0  0  0  0  0  0  0  0  0
   38.5140   30.0290   41.4450 N   0  0  0  0  0  0  0  0  0  0  0  0
   38.1300   31.2630   41.0480 C   0  0  0  0  0  0  0  0  0  0  0  0
   36.8440   31.4870   40.6700 N   0  0  0  0  0  0  0  0  0  0  0  0
   34.9590   30.6680   40.4000 H   0  0  0  0  0  0  0  0  0  0  0  0
   35.6640   28.3650   41.1390 H   0  0  0  0  0  0  0  0  0  0  0  0
   39.1120   32.3790   41.0200 C   0  0  0  0  0  3  0  0  0  0  0  0
   39.7520   32.7770   39.7040 C   0  0  0  0  0  2  0  0  0  0  0  0
   40.5430   32.0240   40.7210 C   0  0  0  0  0  2  0  0  0  0  0  0
   37.1320   24.7360   41.5610 C   0  0  0  0  0  0  0  0  0  0  0  0
   37.1750   23.3700   41.2550 F   0  0  0  0  0  0  0  0  0  0  0  0
   36.4510   25.3290   40.5160 F   0  0  0  0  0  0  0  0  0  0  0  0
   36.5080   24.8780   42.7590 F   0  0  0  0  0  0  0  0  0  0  0  0
  1  2  1  0  0  0  0
  2  3  1  0  0  0  0
  2  8  1  0  0  0  0
  2  7  1  0  0  0  0
  3  9  1  0  0  0  0
  4 11  1  0  0  0  0
  4  3  1  0  0  0  0
  5 12  1  6  0  0  0
  5 26  1  0  0  0  0
  5  4  1  0  0  0  0
  6  5  1  0  0  0  0
  6  1  1  0  0  0  0
 10  3  1  0  0  0  0
 13  6  1  0  0  0  0
 14  6  1  0  0  0  0
 15 16  1  0  0  0  0
 16 22  1  0  0  0  0
 16 17  2  0  0  0  0
 17  1  1  0  0  0  0
 18 17  1  0  0  0  0
 19 18  2  0  0  0  0
 20 15  2  0  0  0  0
 20 19  1  0  0  0  0
 21 15  1  0  0  0  0
 23 19  1  0  0  0  0
 24 25  1  0  0  0  0
 24 23  1  0  0  0  0
 25 23  1  0  0  0  0
 26 29  1  0  0  0  0
 27 26  1  0  0  0  0
 28 26  1  0  0  0  0
M  END
>  <minimizedAffinity>
-4.88862801

$$$$
