
 OpenBabel03242522243D

 22 24  0  0  0  0  0  0  0  0999 V2000
   38.7600   33.6760   41.0500 Cl  0  0  0  0  0  0  0  0  0  0  0  0
   39.6340   32.9310   39.7230 C   0  0  0  0  0  0  0  0  0  0  0  0
   39.3340   31.6340   39.3450 C   0  0  0  0  0  0  0  0  0  0  0  0
   40.0390   31.0870   38.3020 C   0  0  0  0  0  0  0  0  0  0  0  0
   41.0240   31.7860   37.6360 C   0  0  0  0  0  0  0  0  0  0  0  0
   41.2890   33.0930   38.0570 C   0  0  0  0  0  0  0  0  0  0  0  0
   42.5300   34.0110   37.2370 Cl  0  0  0  0  0  0  0  0  0  0  0  0
   40.6060   33.6940   39.1040 C   0  0  0  0  0  0  0  0  0  0  0  0
   39.8040   30.0640   38.0030 H   0  0  0  0  0  0  0  0  0  0  0  0
   41.5380   31.3040   36.8320 H   0  0  0  0  0  0  0  0  0  0  0  0
   40.8490   34.7090   39.3930 H   0  0  0  0  0  0  0  0  0  0  0  0
   35.9580   30.2490   40.3550 C   0  0  0  0  0  0  0  0  0  0  0  0
   36.9640   30.9110   39.6330 C   0  0  0  0  0  0  0  0  0  0  0  0
   38.2860   30.9510   40.0870 C   0  0  0  0  0  0  0  0  0  0  0  0
   38.5230   30.3090   41.2640 N   0  0  0  0  0  0  0  0  0  0  0  0
   37.5560   29.6790   41.9480 C   0  0  0  0  0  0  0  0  0  0  0  0
   36.2940   29.6540   41.4930 N   0  0  0  0  0  0  0  0  0  0  0  0
   34.9430   30.2370   39.9760 H   0  0  0  0  0  0  0  0  0  0  0  0
   36.6980   31.3930   38.7160 H   0  0  0  0  0  0  0  0  0  0  0  0
   37.9790   29.0220   43.2210 C   0  0  0  0  0  3  0  0  0  0  0  0
   37.1030   27.9190   43.6800 C   0  0  0  0  0  2  0  0  0  0  0  0
   38.4690   27.6230   43.1990 C   0  0  0  0  0  2  0  0  0  0  0  0
  2  1  1  0  0  0  0
  3  2  1  0  0  0  0
  3 14  1  0  0  0  0
  4  3  2  0  0  0  0
  5  6  2  0  0  0  0
  5  4  1  0  0  0  0
  6  8  1  0  0  0  0
  7  6  1  0  0  0  0
  8 11  1  0  0  0  0
  8  2  2  0  0  0  0
  9  4  1  0  0  0  0
 10  5  1  0  0  0  0
 12 17  1  0  0  0  0
 13 14  1  0  0  0  0
 13 12  2  0  0  0  0
 14 15  2  0  0  0  0
 15 16  1  0  0  0  0
 16 20  1  0  0  0  0
 17 16  2  0  0  0  0
 18 12  1  0  0  0  0
 19 13  1  0  0  0  0
 20 21  1  0  0  0  0
 22 20  1  0  0  0  0
 22 21  1  0  0  0  0
M  END
>  <minimizedAffinity>
-4.93540764

$$$$

 OpenBabel03242522243D

 22 24  0  0  0  0  0  0  0  0999 V2000
   39.2020   30.1220   37.9150 Cl  0  0  0  0  0  0  0  0  0  0  0  0
   39.9260   31.6080   38.5050 C   0  0  0  0  0  0  0  0  0  0  0  0
   39.5190   32.1340   39.7180 C   0  0  0  0  0  0  0  0  0  0  0  0
   40.1090   33.2980   40.1470 C   0  0  0  0  0  0  0  0  0  0  0  0
   41.0790   33.9430   39.4090 C   0  0  0  0  0  0  0  0  0  0  0  0
   41.4540   33.3700   38.1890 C   0  0  0  0  0  0  0  0  0  0  0  0
   42.6810   34.1580   37.2260 Cl  0  0  0  0  0  0  0  0  0  0  0  0
   40.8920   32.1960   37.7110 C   0  0  0  0  0  0  0  0  0  0  0  0
   39.7880   33.7150   41.1040 H   0  0  0  0  0  0  0  0  0  0  0  0
   41.4990   34.8460   39.7960 H   0  0  0  0  0  0  0  0  0  0  0  0
   41.2160   31.7920   36.7600 H   0  0  0  0  0  0  0  0  0  0  0  0
   36.1500   30.8190   40.8400 C   0  0  0  0  0  0  0  0  0  0  0  0
   37.1350   31.5250   40.1310 C   0  0  0  0  0  0  0  0  0  0  0  0
   38.4920   31.4070   40.4480 C   0  0  0  0  0  0  0  0  0  0  0  0
   38.7840   30.5690   41.4800 N   0  0  0  0  0  0  0  0  0  0  0  0
   37.8360   29.8970   42.1520 C   0  0  0  0  0  0  0  0  0  0  0  0
   36.5400   30.0270   41.8310 N   0  0  0  0  0  0  0  0  0  0  0  0
   35.1070   30.9330   40.5690 H   0  0  0  0  0  0  0  0  0  0  0  0
   36.8260   32.1650   39.3320 H   0  0  0  0  0  0  0  0  0  0  0  0
   38.3200   29.0170   43.2580 C   0  0  0  0  0  3  0  0  0  0  0  0
   37.3970   27.9240   43.6400 C   0  0  0  0  0  2  0  0  0  0  0  0
   38.6760   27.6060   42.9720 C   0  0  0  0  0  2  0  0  0  0  0  0
  1  2  1  0  0  0  0
  2  3  1  0  0  0  0
  3  4  2  0  0  0  0
  3 14  1  0  0  0  0
  4  9  1  0  0  0  0
  5 10  1  0  0  0  0
  5  4  1  0  0  0  0
  6  5  2  0  0  0  0
  7  6  1  0  0  0  0
  8  6  1  0  0  0  0
  8  2  2  0  0  0  0
 11  8  1  0  0  0  0
 12 17  1  0  0  0  0
 13 14  1  0  0  0  0
 13 12  2  0  0  0  0
 14 15  2  0  0  0  0
 15 16  1  0  0  0  0
 16 20  1  0  0  0  0
 17 16  2  0  0  0  0
 18 12  1  0  0  0  0
 19 13  1  0  0  0  0
 20 21  1  0  0  0  0
 22 20  1  0  0  0  0
 22 21  1  0  0  0  0
M  END
>  <minimizedAffinity>
-4.90990353

$$$$

 OpenBabel03242522243D

 22 24  0  0  0  0  0  0  0  0999 V2000
   36.5800   27.3070   43.1990 Cl  0  0  0  0  0  0  0  0  0  0  0  0
   37.4500   26.4240   41.9560 C   0  0  0  0  0  0  0  0  0  0  0  0
   38.3340   27.0960   41.1290 C   0  0  0  0  0  0  0  0  0  0  0  0
   38.9960   26.3700   40.1690 C   0  0  0  0  0  0  0  0  0  0  0  0
   38.8030   25.0140   40.0120 C   0  0  0  0  0  0  0  0  0  0  0  0
   37.8990   24.3830   40.8730 C   0  0  0  0  0  0  0  0  0  0  0  0
   37.6290   22.6640   40.7050 Cl  0  0  0  0  0  0  0  0  0  0  0  0
   37.2060   25.0680   41.8590 C   0  0  0  0  0  0  0  0  0  0  0  0
   39.6930   26.8990   39.5150 H   0  0  0  0  0  0  0  0  0  0  0  0
   39.3480   24.5060   39.2450 H   0  0  0  0  0  0  0  0  0  0  0  0
   36.5160   24.5340   42.5010 H   0  0  0  0  0  0  0  0  0  0  0  0
   39.6110   30.4210   42.4130 C   0  0  0  0  0  0  0  0  0  0  0  0
   39.4640   29.0390   42.2090 C   0  0  0  0  0  0  0  0  0  0  0  0
   38.4920   28.5250   41.3450 C   0  0  0  0  0  0  0  0  0  0  0  0
   37.7100   29.4500   40.7240 N   0  0  0  0  0  0  0  0  0  0  0  0
   37.8570   30.7690   40.9230 C   0  0  0  0  0  0  0  0  0  0  0  0
   38.7960   31.2390   41.7570 N   0  0  0  0  0  0  0  0  0  0  0  0
   40.3740   30.7860   43.0890 H   0  0  0  0  0  0  0  0  0  0  0  0
   40.1180   28.3750   42.7350 H   0  0  0  0  0  0  0  0  0  0  0  0
   36.9210   31.6510   40.1650 C   0  0  0  0  0  3  0  0  0  0  0  0
   37.4430   33.0020   39.8560 C   0  0  0  0  0  2  0  0  0  0  0  0
   37.2350   32.0270   38.7660 C   0  0  0  0  0  2  0  0  0  0  0  0
  2  1  1  0  0  0  0
  3 14  1  0  0  0  0
  3  2  2  0  0  0  0
  4  3  1  0  0  0  0
  5  4  2  0  0  0  0
  5  6  1  0  0  0  0
  6  8  2  0  0  0  0
  7  6  1  0  0  0  0
  8  2  1  0  0  0  0
  8 11  1  0  0  0  0
  9  4  1  0  0  0  0
 10  5  1  0  0  0  0
 12 18  1  0  0  0  0
 13 12  1  0  0  0  0
 13 19  1  0  0  0  0
 14 13  2  0  0  0  0
 15 16  2  0  0  0  0
 15 14  1  0  0  0  0
 16 17  1  0  0  0  0
 17 12  2  0  0  0  0
 20 16  1  0  0  0  0
 21 20  1  0  0  0  0
 22 21  1  0  0  0  0
 22 20  1  0  0  0  0
M  END
>  <minimizedAffinity>
-4.74833202

$$$$

 OpenBabel03242522243D

 22 24  0  0  0  0  0  0  0  0999 V2000
   35.4120   29.8310   40.3910 Cl  0  0  0  0  0  0  0  0  0  0  0  0
   36.9260   30.6270   40.7850 C   0  0  0  0  0  0  0  0  0  0  0  0
   37.8770   29.9600   41.5380 C   0  0  0  0  0  0  0  0  0  0  0  0
   39.0490   30.6160   41.8250 C   0  0  0  0  0  0  0  0  0  0  0  0
   39.2950   31.9000   41.3890 C   0  0  0  0  0  0  0  0  0  0  0  0
   38.3020   32.5300   40.6310 C   0  0  0  0  0  0  0  0  0  0  0  0
   38.5780   34.1590   40.0600 Cl  0  0  0  0  0  0  0  0  0  0  0  0
   37.1020   31.9140   40.3130 C   0  0  0  0  0  0  0  0  0  0  0  0
   39.7990   30.0910   42.4190 H   0  0  0  0  0  0  0  0  0  0  0  0
   40.2270   32.3570   41.6450 H   0  0  0  0  0  0  0  0  0  0  0  0
   36.3640   32.4430   39.7240 H   0  0  0  0  0  0  0  0  0  0  0  0
   36.6330   27.0400   43.6030 C   0  0  0  0  0  0  0  0  0  0  0  0
   36.9400   28.3480   43.1950 C   0  0  0  0  0  0  0  0  0  0  0  0
   37.5560   28.6070   41.9670 C   0  0  0  0  0  0  0  0  0  0  0  0
   37.8330   27.5140   41.2060 N   0  0  0  0  0  0  0  0  0  0  0  0
   37.5360   26.2670   41.6030 C   0  0  0  0  0  0  0  0  0  0  0  0
   36.9450   26.0420   42.7850 N   0  0  0  0  0  0  0  0  0  0  0  0
   36.1550   26.8730   44.5610 H   0  0  0  0  0  0  0  0  0  0  0  0
   36.6910   29.1560   43.8510 H   0  0  0  0  0  0  0  0  0  0  0  0
   37.9040   25.1750   40.6510 C   0  0  0  0  0  3  0  0  0  0  0  0
   37.2500   23.8710   40.9100 C   0  0  0  0  0  2  0  0  0  0  0  0
   36.8880   24.6500   39.7070 C   0  0  0  0  0  2  0  0  0  0  0  0
  1  2  1  0  0  0  0
  2  3  1  0  0  0  0
  3  4  2  0  0  0  0
  3 14  1  0  0  0  0
  4  9  1  0  0  0  0
  5 10  1  0  0  0  0
  5  4  1  0  0  0  0
  6  5  2  0  0  0  0
  7  6  1  0  0  0  0
  8  6  1  0  0  0  0
  8  2  2  0  0  0  0
 11  8  1  0  0  0  0
 12 18  1  0  0  0  0
 13 12  1  0  0  0  0
 13 19  1  0  0  0  0
 14 13  2  0  0  0  0
 15 16  2  0  0  0  0
 15 14  1  0  0  0  0
 16 17  1  0  0  0  0
 17 12  2  0  0  0  0
 20 21  1  0  0  0  0
 20 16  1  0  0  0  0
 22 20  1  0  0  0  0
 22 21  1  0  0  0  0
M  END
>  <minimizedAffinity>
-4.67935658

$$$$

 OpenBabel03242522243D

 22 24  0  0  0  0  0  0  0  0999 V2000
   37.4480   29.6810   37.0210 Cl  0  0  0  0  0  0  0  0  0  0  0  0
   35.7400   29.2850   37.1000 C   0  0  0  0  0  0  0  0  0  0  0  0
   35.1030   29.2320   38.3280 C   0  0  0  0  0  0  0  0  0  0  0  0
   33.7660   28.9190   38.3480 C   0  0  0  0  0  0  0  0  0  0  0  0
   33.0570   28.6600   37.1950 C   0  0  0  0  0  0  0  0  0  0  0  0
   33.7460   28.7260   35.9800 C   0  0  0  0  0  0  0  0  0  0  0  0
   32.8800   28.4040   34.4960 Cl  0  0  0  0  0  0  0  0  0  0  0  0
   35.0950   29.0380   35.9030 C   0  0  0  0  0  0  0  0  0  0  0  0
   33.2630   28.8760   39.3160 H   0  0  0  0  0  0  0  0  0  0  0  0
   32.0180   28.4210   37.2760 H   0  0  0  0  0  0  0  0  0  0  0  0
   35.5850   29.0760   34.9380 H   0  0  0  0  0  0  0  0  0  0  0  0
   37.0650   31.0820   40.9850 C   0  0  0  0  0  0  0  0  0  0  0  0
   36.2890   30.8160   39.8460 C   0  0  0  0  0  0  0  0  0  0  0  0
   35.9070   29.5150   39.5060 C   0  0  0  0  0  0  0  0  0  0  0  0
   36.3360   28.5370   40.3510 N   0  0  0  0  0  0  0  0  0  0  0  0
   37.0770   28.8000   41.4390 C   0  0  0  0  0  0  0  0  0  0  0  0
   37.4320   30.0560   41.7440 N   0  0  0  0  0  0  0  0  0  0  0  0
   37.3440   32.1020   41.2200 H   0  0  0  0  0  0  0  0  0  0  0  0
   35.9910   31.6400   39.2310 H   0  0  0  0  0  0  0  0  0  0  0  0
   37.4660   27.6160   42.2630 C   0  0  0  0  0  3  0  0  0  0  0  0
   37.7790   27.9150   43.6800 C   0  0  0  0  0  2  0  0  0  0  0  0
   36.5650   27.1430   43.3410 C   0  0  0  0  0  2  0  0  0  0  0  0
  1  2  1  0  0  0  0
  2  3  1  0  0  0  0
  3  4  2  0  0  0  0
  3 14  1  0  0  0  0
  4  9  1  0  0  0  0
  5 10  1  0  0  0  0
  5  4  1  0  0  0  0
  6  5  2  0  0  0  0
  7  6  1  0  0  0  0
  8  6  1  0  0  0  0
  8  2  2  0  0  0  0
 11  8  1  0  0  0  0
 12 18  1  0  0  0  0
 12 17  1  0  0  0  0
 13 12  2  0  0  0  0
 14 13  1  0  0  0  0
 14 15  2  0  0  0  0
 15 16  1  0  0  0  0
 16 17  2  0  0  0  0
 16 20  1  0  0  0  0
 19 13  1  0  0  0  0
 20 22  1  0  0  0  0
 20 21  1  0  0  0  0
 22 21  1  0  0  0  0
M  END
>  <minimizedAffinity>
-4.64177179

$$$$

 OpenBabel03242522243D

 22 24  0  0  0  0  0  0  0  0999 V2000
   39.9640   28.3000   39.4710 Cl  0  0  0  0  0  0  0  0  0  0  0  0
   38.7170   29.3880   40.0550 C   0  0  0  0  0  0  0  0  0  0  0  0
   38.0590   29.1050   41.2390 C   0  0  0  0  0  0  0  0  0  0  0  0
   37.0890   29.9810   41.6640 C   0  0  0  0  0  0  0  0  0  0  0  0
   36.7620   31.1140   40.9490 C   0  0  0  0  0  0  0  0  0  0  0  0
   37.4560   31.3540   39.7590 C   0  0  0  0  0  0  0  0  0  0  0  0
   37.0690   32.7810   38.8260 Cl  0  0  0  0  0  0  0  0  0  0  0  0
   38.4440   30.5040   39.2860 C   0  0  0  0  0  0  0  0  0  0  0  0
   36.5690   29.7590   42.5970 H   0  0  0  0  0  0  0  0  0  0  0  0
   35.9980   31.7560   41.3320 H   0  0  0  0  0  0  0  0  0  0  0  0
   38.9520   30.7330   38.3580 H   0  0  0  0  0  0  0  0  0  0  0  0
   39.8740   26.7120   43.5450 C   0  0  0  0  0  0  0  0  0  0  0  0
   39.5020   27.8840   42.8670 C   0  0  0  0  0  0  0  0  0  0  0  0
   38.4500   27.8950   41.9450 C   0  0  0  0  0  0  0  0  0  0  0  0
   37.8210   26.7030   41.7560 N   0  0  0  0  0  0  0  0  0  0  0  0
   38.1830   25.5870   42.4080 C   0  0  0  0  0  0  0  0  0  0  0  0
   39.1950   25.6000   43.2880 N   0  0  0  0  0  0  0  0  0  0  0  0
   40.6930   26.7380   44.2530 H   0  0  0  0  0  0  0  0  0  0  0  0
   40.0450   28.7830   43.0700 H   0  0  0  0  0  0  0  0  0  0  0  0
   37.3930   24.3610   42.0890 C   0  0  0  0  0  3  0  0  0  0  0  0
   36.7140   24.3770   40.7720 C   0  0  0  0  0  2  0  0  0  0  0  0
   37.8460   23.4560   41.0050 C   0  0  0  0  0  2  0  0  0  0  0  0
  1  2  1  0  0  0  0
  2  3  1  0  0  0  0
  3  4  2  0  0  0  0
  3 14  1  0  0  0  0
  4  9  1  0  0  0  0
  5 10  1  0  0  0  0
  5  4  1  0  0  0  0
  6  5  2  0  0  0  0
  7  6  1  0  0  0  0
  8  6  1  0  0  0  0
  8  2  2  0  0  0  0
 11  8  1  0  0  0  0
 12 18  1  0  0  0  0
 13 19  1  0  0  0  0
 13 12  2  0  0  0  0
 14 13  1  0  0  0  0
 15 14  2  0  0  0  0
 15 16  1  0  0  0  0
 16 17  2  0  0  0  0
 17 12  1  0  0  0  0
 20 16  1  0  0  0  0
 21 22  1  0  0  0  0
 21 20  1  0  0  0  0
 22 20  1  0  0  0  0
M  END
>  <minimizedAffinity>
-4.62619019

$$$$

 OpenBabel03242522243D

 22 24  0  0  0  0  0  0  0  0999 V2000
   40.2750   27.7120   39.8670 Cl  0  0  0  0  0  0  0  0  0  0  0  0
   38.9780   27.4880   41.0280 C   0  0  0  0  0  0  0  0  0  0  0  0
   38.5390   28.5630   41.7810 C   0  0  0  0  0  0  0  0  0  0  0  0
   37.5220   28.3480   42.6790 C   0  0  0  0  0  0  0  0  0  0  0  0
   36.9410   27.1080   42.8450 C   0  0  0  0  0  0  0  0  0  0  0  0
   37.4210   26.0550   42.0600 C   0  0  0  0  0  0  0  0  0  0  0  0
   36.7090   24.4700   42.2420 Cl  0  0  0  0  0  0  0  0  0  0  0  0
   38.4450   26.2180   41.1390 C   0  0  0  0  0  0  0  0  0  0  0  0
   37.1740   29.1940   43.2740 H   0  0  0  0  0  0  0  0  0  0  0  0
   36.1530   27.0050   43.5610 H   0  0  0  0  0  0  0  0  0  0  0  0
   38.7820   25.3720   40.5540 H   0  0  0  0  0  0  0  0  0  0  0  0
   40.9660   31.4560   42.0450 C   0  0  0  0  0  0  0  0  0  0  0  0
   40.3400   30.2190   42.2650 C   0  0  0  0  0  0  0  0  0  0  0  0
   39.1930   29.8430   41.5590 C   0  0  0  0  0  0  0  0  0  0  0  0
   38.7350   30.7500   40.6550 N   0  0  0  0  0  0  0  0  0  0  0  0
   39.3400   31.9310   40.4500 C   0  0  0  0  0  0  0  0  0  0  0  0
   40.4380   32.2710   41.1390 N   0  0  0  0  0  0  0  0  0  0  0  0
   41.8530   31.7180   42.6090 H   0  0  0  0  0  0  0  0  0  0  0  0
   40.7610   29.5590   42.9940 H   0  0  0  0  0  0  0  0  0  0  0  0
   38.7120   32.8150   39.4220 C   0  0  0  0  0  3  0  0  0  0  0  0
   37.3140   32.4730   39.0700 C   0  0  0  0  0  2  0  0  0  0  0  0
   37.6030   33.7200   39.8090 C   0  0  0  0  0  2  0  0  0  0  0  0
  1  2  1  0  0  0  0
  2  8  2  0  0  0  0
  2  3  1  0  0  0  0
  3  4  2  0  0  0  0
  4  5  1  0  0  0  0
  4  9  1  0  0  0  0
  5 10  1  0  0  0  0
  6  7  1  0  0  0  0
  6  5  2  0  0  0  0
  8  6  1  0  0  0  0
 11  8  1  0  0  0  0
 12 13  1  0  0  0  0
 12 18  1  0  0  0  0
 13 19  1  0  0  0  0
 14  3  1  0  0  0  0
 14 13  2  0  0  0  0
 15 14  1  0  0  0  0
 16 15  2  0  0  0  0
 16 17  1  0  0  0  0
 17 12  2  0  0  0  0
 20 22  1  0  0  0  0
 20 16  1  0  0  0  0
 21 20  1  0  0  0  0
 21 22  1  0  0  0  0
M  END
>  <minimizedAffinity>
-4.54758263

$$$$

 OpenBabel03242522243D

 22 24  0  0  0  0  0  0  0  0999 V2000
   36.1140   28.8890   41.6030 Cl  0  0  0  0  0  0  0  0  0  0  0  0
   36.5430   29.9200   40.2480 C   0  0  0  0  0  0  0  0  0  0  0  0
   36.6450   29.3780   38.9790 C   0  0  0  0  0  0  0  0  0  0  0  0
   36.9830   30.2170   37.9450 C   0  0  0  0  0  0  0  0  0  0  0  0
   37.2190   31.5610   38.1390 C   0  0  0  0  0  0  0  0  0  0  0  0
   37.1030   32.0590   39.4410 C   0  0  0  0  0  0  0  0  0  0  0  0
   37.3950   33.7590   39.7270 Cl  0  0  0  0  0  0  0  0  0  0  0  0
   36.7650   31.2570   40.5200 C   0  0  0  0  0  0  0  0  0  0  0  0
   37.0640   29.7900   36.9430 H   0  0  0  0  0  0  0  0  0  0  0  0
   37.4790   32.1620   37.2940 H   0  0  0  0  0  0  0  0  0  0  0  0
   36.6880   31.6890   41.5090 H   0  0  0  0  0  0  0  0  0  0  0  0
   35.2550   26.0780   37.7500 C   0  0  0  0  0  0  0  0  0  0  0  0
   35.5020   27.4540   37.8780 C   0  0  0  0  0  0  0  0  0  0  0  0
   36.3840   27.9540   38.8410 C   0  0  0  0  0  0  0  0  0  0  0  0
   36.9790   27.0210   39.6330 N   0  0  0  0  0  0  0  0  0  0  0  0
   36.7380   25.7070   39.5040 C   0  0  0  0  0  0  0  0  0  0  0  0
   35.8870   25.2510   38.5740 N   0  0  0  0  0  0  0  0  0  0  0  0
   34.5650   25.7230   36.9940 H   0  0  0  0  0  0  0  0  0  0  0  0
   34.9950   28.1250   37.2160 H   0  0  0  0  0  0  0  0  0  0  0  0
   37.4710   24.8140   40.4510 C   0  0  0  0  0  3  0  0  0  0  0  0
   37.9220   25.4640   41.7040 C   0  0  0  0  0  2  0  0  0  0  0  0
   36.8490   24.4490   41.7470 C   0  0  0  0  0  2  0  0  0  0  0  0
  2  8  1  0  0  0  0
  2  1  1  0  0  0  0
  3  2  2  0  0  0  0
  4  5  2  0  0  0  0
  4  3  1  0  0  0  0
  5  6  1  0  0  0  0
  6  7  1  0  0  0  0
  6  8  2  0  0  0  0
  8 11  1  0  0  0  0
  9  4  1  0  0  0  0
 10  5  1  0  0  0  0
 12 13  2  0  0  0  0
 12 17  1  0  0  0  0
 13 14  1  0  0  0  0
 14  3  1  0  0  0  0
 14 15  2  0  0  0  0
 16 15  1  0  0  0  0
 16 20  1  0  0  0  0
 17 16  2  0  0  0  0
 18 12  1  0  0  0  0
 19 13  1  0  0  0  0
 20 21  1  0  0  0  0
 20 22  1  0  0  0  0
 21 22  1  0  0  0  0
M  END
>  <minimizedAffinity>
-4.53795004

$$$$

 OpenBabel03242522243D

 22 24  0  0  0  0  0  0  0  0999 V2000
   38.4420   28.8370   38.7530 Cl  0  0  0  0  0  0  0  0  0  0  0  0
   37.9140   28.4600   40.3830 C   0  0  0  0  0  0  0  0  0  0  0  0
   37.7520   29.4790   41.3060 C   0  0  0  0  0  0  0  0  0  0  0  0
   37.3360   29.1430   42.5710 C   0  0  0  0  0  0  0  0  0  0  0  0
   37.0820   27.8390   42.9370 C   0  0  0  0  0  0  0  0  0  0  0  0
   37.2620   26.8460   41.9680 C   0  0  0  0  0  0  0  0  0  0  0  0
   36.9490   25.1800   42.3950 Cl  0  0  0  0  0  0  0  0  0  0  0  0
   37.6780   27.1300   40.6770 C   0  0  0  0  0  0  0  0  0  0  0  0
   37.2080   29.9460   43.3000 H   0  0  0  0  0  0  0  0  0  0  0  0
   36.7620   27.6420   43.9380 H   0  0  0  0  0  0  0  0  0  0  0  0
   37.8030   26.3260   39.9620 H   0  0  0  0  0  0  0  0  0  0  0  0
   37.3240   32.9620   39.8840 C   0  0  0  0  0  0  0  0  0  0  0  0
   37.0430   31.6560   40.3150 C   0  0  0  0  0  0  0  0  0  0  0  0
   38.0350   30.8330   40.8570 C   0  0  0  0  0  0  0  0  0  0  0  0
   39.2770   31.3840   40.9370 N   0  0  0  0  0  0  0  0  0  0  0  0
   39.5380   32.6340   40.5230 C   0  0  0  0  0  0  0  0  0  0  0  0
   38.5700   33.4050   40.0060 N   0  0  0  0  0  0  0  0  0  0  0  0
   36.5330   33.5730   39.4680 H   0  0  0  0  0  0  0  0  0  0  0  0
   36.0410   31.2930   40.2190 H   0  0  0  0  0  0  0  0  0  0  0  0
   40.9510   33.0910   40.6800 C   0  0  0  0  0  3  0  0  0  0  0  0
   41.9680   32.0150   40.6170 C   0  0  0  0  0  2  0  0  0  0  0  0
   41.8810   33.0100   39.5280 C   0  0  0  0  0  2  0  0  0  0  0  0
  1  2  1  0  0  0  0
  2  8  2  0  0  0  0
  2  3  1  0  0  0  0
  3  4  2  0  0  0  0
  4  5  1  0  0  0  0
  4  9  1  0  0  0  0
  5 10  1  0  0  0  0
  6  7  1  0  0  0  0
  6  5  2  0  0  0  0
  8  6  1  0  0  0  0
 11  8  1  0  0  0  0
 12 17  2  0  0  0  0
 12 13  1  0  0  0  0
 13 14  2  0  0  0  0
 14 15  1  0  0  0  0
 14  3  1  0  0  0  0
 16 20  1  0  0  0  0
 16 15  2  0  0  0  0
 17 16  1  0  0  0  0
 18 12  1  0  0  0  0
 19 13  1  0  0  0  0
 21 20  1  0  0  0  0
 22 21  1  0  0  0  0
 22 20  1  0  0  0  0
M  END
>  <minimizedAffinity>
-4.46071959

$$$$
