
 OpenBabel03252502093D

 42 46  0  0  0  0  0  0  0  0999 V2000
   47.2890   32.2040   47.9460 C   0  0  0  0  0  0  0  0  0  0  0  0
   46.7650   30.9070   47.9740 C   0  0  0  0  0  0  0  0  0  0  0  0
   45.8530   30.5880   46.9970 C   0  0  0  0  0  0  0  0  0  0  0  0
   45.5170   31.4980   46.0860 N   0  0  0  0  0  0  0  0  0  0  0  0
   46.0080   32.7310   46.0470 C   0  0  0  0  0  0  0  0  0  0  0  0
   46.8970   33.0600   46.9940 N   0  0  0  0  0  0  0  0  0  0  0  0
   45.2840   29.3350   46.9880 N   0  0  0  0  0  0  0  0  0  0  0  0
   44.1510   28.9490   46.0980 C   0  0  0  0  0  0  0  0  0  0  0  0
   44.0560   27.4480   46.1940 C   0  0  0  0  0  0  0  0  0  0  0  0
   44.5730   27.1770   47.5670 C   0  0  0  0  0  0  0  0  0  0  0  0
   45.6300   28.2050   47.7900 C   0  0  0  0  0  0  0  0  0  0  0  0
   48.0160   32.5030   48.7070 H   0  0  0  0  0  0  0  0  0  0  0  0
   43.2430   29.4330   46.4790 H   0  0  0  0  0  0  0  0  0  0  0  0
   44.4450   29.2650   45.0690 H   0  0  0  0  0  0  0  0  0  0  0  0
   44.6210   26.9420   45.3840 H   0  0  0  0  0  0  0  0  0  0  0  0
   42.9960   27.1570   46.0900 H   0  0  0  0  0  0  0  0  0  0  0  0
   43.7160   27.2910   48.2630 H   0  0  0  0  0  0  0  0  0  0  0  0
   44.9430   26.1250   47.7050 H   0  0  0  0  0  0  0  0  0  0  0  0
   45.5570   28.3950   48.9030 H   0  0  0  0  0  0  0  0  0  0  0  0
   46.5990   27.7490   47.5060 H   0  0  0  0  0  0  0  0  0  0  0  0
   45.7780   33.8480   45.1040 C   0  0  0  0  0  0  0  0  0  0  0  0
   44.8580   34.7980   45.2750 N   0  0  0  0  0  0  0  0  0  0  0  0
   44.6260   35.8050   44.4490 C   0  0  0  0  0  0  0  0  0  0  0  0
   45.3570   35.9270   43.3140 N   0  0  0  0  0  0  0  0  0  0  0  0
   46.3190   35.0370   43.0190 C   0  0  0  0  0  0  0  0  0  0  0  0
   47.0790   35.1610   41.8720 C   0  0  0  0  0  0  0  0  0  0  0  0
   48.0630   34.2760   41.5710 C   0  0  0  0  0  0  0  0  0  0  0  0
   48.2770   33.2490   42.4520 C   0  0  0  0  0  0  0  0  0  0  0  0
   47.4900   33.1560   43.5960 C   0  0  0  0  0  0  0  0  0  0  0  0
   46.4990   34.0190   43.9310 C   0  0  0  0  0  0  0  0  0  0  0  0
   43.8490   36.5460   44.6630 H   0  0  0  0  0  0  0  0  0  0  0  0
   46.8380   36.0040   41.2350 H   0  0  0  0  0  0  0  0  0  0  0  0
   48.5900   34.4690   40.6580 H   0  0  0  0  0  0  0  0  0  0  0  0
   47.8500   32.0150   44.3730 N   0  0  0  0  0  0  0  0  0  0  0  0
   48.4860   31.8280   45.1620 H   0  0  0  0  0  0  0  0  0  0  0  0
   47.2720   31.2370   43.9400 H   0  0  0  0  0  0  0  0  0  0  0  0
   49.3630   32.2820   42.1150 C   0  0  0  0  0  0  0  0  0  0  0  0
   50.0120   32.2580   40.7890 C   0  0  0  0  0  0  0  0  0  0  0  0
   50.7630   32.8020   42.0070 C   0  0  0  0  0  0  0  0  0  0  0  0
   47.2290   30.0500   48.9370 N   0  0  0  0  0  0  0  0  0  0  0  0
   47.9090   29.2640   48.8350 H   0  0  0  0  0  0  0  0  0  0  0  0
   46.9780   30.0310   49.9710 H   0  0  0  0  0  0  0  0  0  0  0  0
  1  2  1  0  0  0  0
  1 12  1  0  0  0  0
  2 40  1  0  0  0  0
  3  2  2  0  0  0  0
  4  3  1  0  0  0  0
  5  4  2  0  0  0  0
  5  6  1  0  0  0  0
  6  1  2  0  0  0  0
  7  3  1  0  0  0  0
  7 11  1  0  0  0  0
  8  9  1  0  0  0  0
  8 13  1  0  0  0  0
  8  7  1  0  0  0  0
  9 10  1  0  0  0  0
 10 18  1  0  0  0  0
 10 11  1  0  0  0  0
 10 17  1  0  0  0  0
 11 19  1  0  0  0  0
 14  8  1  0  0  0  0
 15  9  1  0  0  0  0
 16  9  1  0  0  0  0
 20 11  1  0  0  0  0
 21 22  1  0  0  0  0
 21  5  1  0  0  0  0
 23 31  1  0  0  0  0
 23 22  2  0  0  0  0
 24 23  1  0  0  0  0
 25 24  2  0  0  0  0
 25 30  1  0  0  0  0
 26 25  1  0  0  0  0
 27 26  2  0  0  0  0
 27 28  1  0  0  0  0
 28 29  2  0  0  0  0
 29 30  1  0  0  0  0
 29 34  1  0  0  0  0
 30 21  2  0  0  0  0
 32 26  1  0  0  0  0
 33 27  1  0  0  0  0
 34 35  1  0  0  0  0
 36 34  1  0  0  0  0
 37 28  1  0  0  0  0
 38 39  1  0  0  0  0
 38 37  1  0  0  0  0
 39 37  1  0  0  0  0
 40 42  1  0  0  0  0
 41 40  1  0  0  0  0
M  END
>  <minimizedAffinity>
-6.86004972

>  <minimizedRMSD>
0.468638599

$$$$
