
 OpenBabel03252501393D

 29 31  0  0  0  0  0  0  0  0999 V2000
   38.3760   30.6120   41.1240 C   0  0  0  0  0  0  0  0  0  0  0  0
   39.6570   30.6590   41.2230 O   0  0  0  0  0  0  0  0  0  0  0  0
   37.8460   31.5690   40.2050 N   0  0  0  0  0  0  0  0  0  0  0  0
   36.8340   31.6330   40.0240 H   0  0  0  0  0  0  0  0  0  0  0  0
   38.9550   32.3390   39.6530 C   0  0  0  0  0  0  0  0  0  0  0  0
   39.4250   33.4930   40.2100 C   0  0  0  0  0  0  0  0  0  0  0  0
   40.4880   34.0910   39.5470 C   0  0  0  0  0  0  0  0  0  0  0  0
   40.9620   33.5000   38.4330 N   0  0  0  0  0  0  0  0  0  0  0  0
   40.4640   32.3610   37.9240 C   0  0  0  0  0  0  0  0  0  0  0  0
   39.4250   31.7540   38.5500 N   0  0  0  0  0  0  0  0  0  0  0  0
   40.8800   35.0090   39.9670 H   0  0  0  0  0  0  0  0  0  0  0  0
   40.8900   31.9320   37.0190 H   0  0  0  0  0  0  0  0  0  0  0  0
   38.8130   33.9680   41.3730 N   0  0  0  0  0  0  0  0  0  0  0  0
   39.0520   33.4310   42.2100 H   0  0  0  0  0  0  0  0  0  0  0  0
   38.1700   34.7850   41.4240 H   0  0  0  0  0  0  0  0  0  0  0  0
   37.5260   29.7320   41.8220 O   0  0  0  0  0  0  0  0  0  0  0  0
   36.6750   27.5910   39.9670 Cl  0  0  0  0  0  0  0  0  0  0  0  0
   37.6890   27.4100   41.3960 C   0  0  0  0  0  0  0  0  0  0  0  0
   38.0250   28.5030   42.2040 C   0  0  0  0  0  0  0  0  0  0  0  0
   38.8060   28.3040   43.2980 C   0  0  0  0  0  0  0  0  0  0  0  0
   39.3050   27.0690   43.6780 C   0  0  0  0  0  0  0  0  0  0  0  0
   38.9730   25.9680   42.8720 C   0  0  0  0  0  0  0  0  0  0  0  0
   39.5730   24.3730   43.2820 Cl  0  0  0  0  0  0  0  0  0  0  0  0
   38.1850   26.1740   41.7720 C   0  0  0  0  0  0  0  0  0  0  0  0
   39.0670   29.1460   43.9230 H   0  0  0  0  0  0  0  0  0  0  0  0
   39.9320   26.9110   44.5570 H   0  0  0  0  0  0  0  0  0  0  0  0
   37.7860   25.0790   40.8490 C   0  0  0  0  0  3  0  0  0  0  0  0
   36.5520   24.2630   41.2690 C   0  0  0  0  0  2  0  0  0  0  0  0
   37.9530   23.6590   41.1240 C   0  0  0  0  0  2  0  0  0  0  0  0
  1  2  2  0  0  0  0
  1 16  1  0  0  0  0
  3  1  1  0  0  0  0
  4  3  1  0  0  0  0
  5  3  1  0  0  0  0
  5  6  1  0  0  0  0
  6 13  1  0  0  0  0
  7 11  1  0  0  0  0
  7  6  2  0  0  0  0
  8  7  1  0  0  0  0
  9  8  2  0  0  0  0
  9 10  1  0  0  0  0
 10  5  2  0  0  0  0
 12  9  1  0  0  0  0
 13 15  1  0  0  0  0
 13 14  1  0  0  0  0
 16 19  1  0  0  0  0
 17 18  1  0  0  0  0
 18 24  2  0  0  0  0
 18 19  1  0  0  0  0
 19 20  2  0  0  0  0
 20 21  1  0  0  0  0
 20 25  1  0  0  0  0
 21 26  1  0  0  0  0
 22 23  1  0  0  0  0
 22 21  2  0  0  0  0
 24 22  1  0  0  0  0
 27 29  1  0  0  0  0
 27 28  1  0  0  0  0
 27 24  1  0  0  0  0
 29 28  1  0  0  0  0
M  END
>  <minimizedAffinity>
-5.82054424

$$$$

 OpenBabel03252501393D

 29 31  0  0  0  0  0  0  0  0999 V2000
   39.8980   31.0150   41.6760 C   0  0  0  0  0  0  0  0  0  0  0  0
   41.0070   30.7060   41.1040 O   0  0  0  0  0  0  0  0  0  0  0  0
   39.1850   32.0530   41.0000 N   0  0  0  0  0  0  0  0  0  0  0  0
   38.2760   32.3910   41.3470 H   0  0  0  0  0  0  0  0  0  0  0  0
   39.9650   32.4650   39.8390 C   0  0  0  0  0  0  0  0  0  0  0  0
   40.9360   33.4230   39.8820 C   0  0  0  0  0  0  0  0  0  0  0  0
   41.5760   33.6860   38.6790 C   0  0  0  0  0  0  0  0  0  0  0  0
   41.1980   32.9920   37.5880 N   0  0  0  0  0  0  0  0  0  0  0  0
   40.2350   32.0560   37.5970 C   0  0  0  0  0  0  0  0  0  0  0  0
   39.5920   31.7780   38.7580 N   0  0  0  0  0  0  0  0  0  0  0  0
   42.3510   34.4430   38.6850 H   0  0  0  0  0  0  0  0  0  0  0  0
   39.9740   31.5280   36.6810 H   0  0  0  0  0  0  0  0  0  0  0  0
   41.2010   34.0480   41.1050 N   0  0  0  0  0  0  0  0  0  0  0  0
   41.7120   33.4570   41.7640 H   0  0  0  0  0  0  0  0  0  0  0  0
   40.9210   35.0180   41.3580 H   0  0  0  0  0  0  0  0  0  0  0  0
   39.3830   30.4300   42.8490 O   0  0  0  0  0  0  0  0  0  0  0  0
   41.2130   28.2040   43.5180 Cl  0  0  0  0  0  0  0  0  0  0  0  0
   39.5210   28.0760   43.0470 C   0  0  0  0  0  0  0  0  0  0  0  0
   38.7510   29.2070   42.7490 C   0  0  0  0  0  0  0  0  0  0  0  0
   37.4520   29.0490   42.3840 C   0  0  0  0  0  0  0  0  0  0  0  0
   36.8210   27.8200   42.2850 C   0  0  0  0  0  0  0  0  0  0  0  0
   37.5860   26.6800   42.5820 C   0  0  0  0  0  0  0  0  0  0  0  0
   36.8560   25.0890   42.4890 Cl  0  0  0  0  0  0  0  0  0  0  0  0
   38.8950   26.8450   42.9480 C   0  0  0  0  0  0  0  0  0  0  0  0
   36.8550   29.9190   42.1540 H   0  0  0  0  0  0  0  0  0  0  0  0
   35.7770   27.6930   41.9920 H   0  0  0  0  0  0  0  0  0  0  0  0
   39.7860   25.7070   43.2940 C   0  0  0  0  0  3  0  0  0  0  0  0
   40.5470   25.0700   42.1200 C   0  0  0  0  0  2  0  0  0  0  0  0
   39.5180   24.3140   42.9670 C   0  0  0  0  0  2  0  0  0  0  0  0
  1 16  1  0  0  0  0
  2  1  2  0  0  0  0
  3  4  1  0  0  0  0
  3  1  1  0  0  0  0
  5  6  1  0  0  0  0
  5  3  1  0  0  0  0
  6 13  1  0  0  0  0
  7 11  1  0  0  0  0
  7  6  2  0  0  0  0
  8  9  2  0  0  0  0
  8  7  1  0  0  0  0
  9 10  1  0  0  0  0
 10  5  2  0  0  0  0
 12  9  1  0  0  0  0
 13 15  1  0  0  0  0
 13 14  1  0  0  0  0
 18 17  1  0  0  0  0
 19 16  1  0  0  0  0
 19 18  2  0  0  0  0
 20 19  1  0  0  0  0
 21 20  2  0  0  0  0
 21 22  1  0  0  0  0
 22 24  2  0  0  0  0
 23 22  1  0  0  0  0
 24 18  1  0  0  0  0
 24 27  1  0  0  0  0
 25 20  1  0  0  0  0
 26 21  1  0  0  0  0
 28 29  1  0  0  0  0
 28 27  1  0  0  0  0
 29 27  1  0  0  0  0
M  END
>  <minimizedAffinity>
-5.63092804

$$$$

 OpenBabel03252501393D

 29 31  0  0  0  0  0  0  0  0999 V2000
   39.4170   32.1950   40.1390 C   0  0  0  0  0  0  0  0  0  0  0  0
   40.4260   31.4020   40.0480 O   0  0  0  0  0  0  0  0  0  0  0  0
   39.6010   33.4240   39.4350 N   0  0  0  0  0  0  0  0  0  0  0  0
   38.8670   34.1460   39.4170 H   0  0  0  0  0  0  0  0  0  0  0  0
   40.9230   33.4080   38.8200 C   0  0  0  0  0  0  0  0  0  0  0  0
   41.1780   32.8810   37.5870 C   0  0  0  0  0  0  0  0  0  0  0  0
   42.4980   32.9530   37.1620 C   0  0  0  0  0  0  0  0  0  0  0  0
   43.4030   33.5240   37.9810 N   0  0  0  0  0  0  0  0  0  0  0  0
   43.1020   34.0300   39.1880 C   0  0  0  0  0  0  0  0  0  0  0  0
   41.8210   33.9730   39.6290 N   0  0  0  0  0  0  0  0  0  0  0  0
   42.7270   32.5410   36.1870 H   0  0  0  0  0  0  0  0  0  0  0  0
   43.8790   34.4800   39.8040 H   0  0  0  0  0  0  0  0  0  0  0  0
   40.1160   32.3240   36.8690 N   0  0  0  0  0  0  0  0  0  0  0  0
   39.4790   33.0200   36.4740 H   0  0  0  0  0  0  0  0  0  0  0  0
   39.9520   31.3050   36.7290 H   0  0  0  0  0  0  0  0  0  0  0  0
   38.2260   31.9370   40.8440 O   0  0  0  0  0  0  0  0  0  0  0  0
   36.4990   30.4710   38.9420 Cl  0  0  0  0  0  0  0  0  0  0  0  0
   37.1760   29.8540   40.4450 C   0  0  0  0  0  0  0  0  0  0  0  0
   37.9830   30.6470   41.2710 C   0  0  0  0  0  0  0  0  0  0  0  0
   38.4730   30.1200   42.4230 C   0  0  0  0  0  0  0  0  0  0  0  0
   38.2270   28.8250   42.8490 C   0  0  0  0  0  0  0  0  0  0  0  0
   37.4190   28.0230   42.0260 C   0  0  0  0  0  0  0  0  0  0  0  0
   37.0690   26.3700   42.4910 Cl  0  0  0  0  0  0  0  0  0  0  0  0
   36.9260   28.5590   40.8660 C   0  0  0  0  0  0  0  0  0  0  0  0
   39.0960   30.7300   43.0620 H   0  0  0  0  0  0  0  0  0  0  0  0
   38.6210   28.4030   43.7740 H   0  0  0  0  0  0  0  0  0  0  0  0
   36.0720   27.7920   39.9220 C   0  0  0  0  0  3  0  0  0  0  0  0
   36.6500   26.4550   39.4290 C   0  0  0  0  0  2  0  0  0  0  0  0
   36.3430   27.6340   38.5000 C   0  0  0  0  0  2  0  0  0  0  0  0
  1 16  1  0  0  0  0
  2  1  2  0  0  0  0
  3  1  1  0  0  0  0
  4  3  1  0  0  0  0
  5  3  1  0  0  0  0
  5 10  1  0  0  0  0
  6  5  2  0  0  0  0
  7  6  1  0  0  0  0
  7  8  2  0  0  0  0
  8  9  1  0  0  0  0
  9 10  2  0  0  0  0
  9 12  1  0  0  0  0
 11  7  1  0  0  0  0
 13  6  1  0  0  0  0
 14 13  1  0  0  0  0
 15 13  1  0  0  0  0
 16 19  1  0  0  0  0
 17 18  1  0  0  0  0
 18 24  2  0  0  0  0
 18 19  1  0  0  0  0
 19 20  2  0  0  0  0
 20 21  1  0  0  0  0
 20 25  1  0  0  0  0
 21 26  1  0  0  0  0
 22 23  1  0  0  0  0
 22 21  2  0  0  0  0
 24 22  1  0  0  0  0
 27 24  1  0  0  0  0
 28 27  1  0  0  0  0
 29 28  1  0  0  0  0
 29 27  1  0  0  0  0
M  END
>  <minimizedAffinity>
-5.63085604

$$$$

 OpenBabel03252501393D

 29 31  0  0  0  0  0  0  0  0999 V2000
   37.9020   31.0540   40.7480 C   0  0  0  0  0  0  0  0  0  0  0  0
   39.1200   30.9190   41.1390 O   0  0  0  0  0  0  0  0  0  0  0  0
   37.7310   32.0940   39.7830 N   0  0  0  0  0  0  0  0  0  0  0  0
   36.8070   32.3030   39.3800 H   0  0  0  0  0  0  0  0  0  0  0  0
   39.0290   32.7110   39.5380 C   0  0  0  0  0  0  0  0  0  0  0  0
   39.5610   33.6900   40.3250 C   0  0  0  0  0  0  0  0  0  0  0  0
   40.8100   34.1610   39.9400 C   0  0  0  0  0  0  0  0  0  0  0  0
   41.3850   33.6260   38.8450 N   0  0  0  0  0  0  0  0  0  0  0  0
   40.8190   32.6610   38.1020 C   0  0  0  0  0  0  0  0  0  0  0  0
   39.6010   32.1820   38.4550 N   0  0  0  0  0  0  0  0  0  0  0  0
   41.2550   34.9400   40.5470 H   0  0  0  0  0  0  0  0  0  0  0  0
   41.3350   32.2690   37.2270 H   0  0  0  0  0  0  0  0  0  0  0  0
   38.8250   34.1310   41.4290 N   0  0  0  0  0  0  0  0  0  0  0  0
   38.8170   33.4680   42.2070 H   0  0  0  0  0  0  0  0  0  0  0  0
   38.3180   35.0380   41.4910 H   0  0  0  0  0  0  0  0  0  0  0  0
   36.8050   30.2890   41.1890 O   0  0  0  0  0  0  0  0  0  0  0  0
   37.5610   28.4170   43.3510 Cl  0  0  0  0  0  0  0  0  0  0  0  0
   37.0460   27.9960   41.7210 C   0  0  0  0  0  0  0  0  0  0  0  0
   36.7130   28.9750   40.7770 C   0  0  0  0  0  0  0  0  0  0  0  0
   36.3270   28.5930   39.5320 C   0  0  0  0  0  0  0  0  0  0  0  0
   36.2370   27.2730   39.1210 C   0  0  0  0  0  0  0  0  0  0  0  0
   36.5680   26.2840   40.0630 C   0  0  0  0  0  0  0  0  0  0  0  0
   36.4690   24.5910   39.6220 Cl  0  0  0  0  0  0  0  0  0  0  0  0
   36.9570   26.6760   41.3160 C   0  0  0  0  0  0  0  0  0  0  0  0
   36.0710   29.3460   38.8010 H   0  0  0  0  0  0  0  0  0  0  0  0
   35.9270   26.9670   38.1210 H   0  0  0  0  0  0  0  0  0  0  0  0
   37.3170   25.7100   42.3870 C   0  0  0  0  0  3  0  0  0  0  0  0
   38.7940   25.2860   42.4400 C   0  0  0  0  0  2  0  0  0  0  0  0
   37.6460   24.3090   42.1650 C   0  0  0  0  0  2  0  0  0  0  0  0
  1  2  2  0  0  0  0
  1 16  1  0  0  0  0
  3  1  1  0  0  0  0
  4  3  1  0  0  0  0
  5  3  1  0  0  0  0
  5  6  1  0  0  0  0
  6 13  1  0  0  0  0
  7  6  2  0  0  0  0
  7 11  1  0  0  0  0
  8  7  1  0  0  0  0
  9 10  1  0  0  0  0
  9  8  2  0  0  0  0
 10  5  2  0  0  0  0
 12  9  1  0  0  0  0
 13 15  1  0  0  0  0
 13 14  1  0  0  0  0
 18 17  1  0  0  0  0
 19 16  1  0  0  0  0
 19 18  2  0  0  0  0
 20 19  1  0  0  0  0
 21 20  2  0  0  0  0
 21 22  1  0  0  0  0
 22 24  2  0  0  0  0
 23 22  1  0  0  0  0
 24 18  1  0  0  0  0
 24 27  1  0  0  0  0
 25 20  1  0  0  0  0
 26 21  1  0  0  0  0
 27 28  1  0  0  0  0
 29 27  1  0  0  0  0
 29 28  1  0  0  0  0
M  END
>  <minimizedAffinity>
-5.63019562

$$$$

 OpenBabel03252501393D

 29 31  0  0  0  0  0  0  0  0999 V2000
   37.1520   26.5620   41.9630 C   0  0  0  0  0  0  0  0  0  0  0  0
   37.7840   26.4900   40.8450 O   0  0  0  0  0  0  0  0  0  0  0  0
   36.6810   25.2960   42.4270 N   0  0  0  0  0  0  0  0  0  0  0  0
   36.1660   25.2090   43.3150 H   0  0  0  0  0  0  0  0  0  0  0  0
   37.0620   24.2790   41.4530 C   0  0  0  0  0  0  0  0  0  0  0  0
   38.2600   23.6260   41.4720 C   0  0  0  0  0  0  0  0  0  0  0  0
   38.4510   22.6890   40.4650 C   0  0  0  0  0  0  0  0  0  0  0  0
   37.4610   22.5010   39.5700 N   0  0  0  0  0  0  0  0  0  0  0  0
   36.2980   23.1710   39.5950 C   0  0  0  0  0  0  0  0  0  0  0  0
   36.0840   24.0920   40.5660 N   0  0  0  0  0  0  0  0  0  0  0  0
   39.3940   22.1560   40.4560 H   0  0  0  0  0  0  0  0  0  0  0  0
   35.5350   22.9750   38.8420 H   0  0  0  0  0  0  0  0  0  0  0  0
   39.1770   23.9460   42.4770 N   0  0  0  0  0  0  0  0  0  0  0  0
   38.9250   23.5730   43.3950 H   0  0  0  0  0  0  0  0  0  0  0  0
   40.0440   24.5080   42.3460 H   0  0  0  0  0  0  0  0  0  0  0  0
   36.9150   27.7370   42.7020 O   0  0  0  0  0  0  0  0  0  0  0  0
   35.3430   29.2790   40.7270 Cl  0  0  0  0  0  0  0  0  0  0  0  0
   36.9160   29.7080   41.3920 C   0  0  0  0  0  0  0  0  0  0  0  0
   37.5690   28.8930   42.3240 C   0  0  0  0  0  0  0  0  0  0  0  0
   38.7840   29.2700   42.8000 C   0  0  0  0  0  0  0  0  0  0  0  0
   39.4380   30.4310   42.4190 C   0  0  0  0  0  0  0  0  0  0  0  0
   38.7890   31.2540   41.4840 C   0  0  0  0  0  0  0  0  0  0  0  0
   39.5470   32.7440   40.9590 Cl  0  0  0  0  0  0  0  0  0  0  0  0
   37.5640   30.8690   41.0070 C   0  0  0  0  0  0  0  0  0  0  0  0
   39.2910   28.6430   43.5190 H   0  0  0  0  0  0  0  0  0  0  0  0
   40.4140   30.7330   42.8010 H   0  0  0  0  0  0  0  0  0  0  0  0
   36.7910   31.6730   40.0260 C   0  0  0  0  0  3  0  0  0  0  0  0
   37.1270   31.4300   38.5450 C   0  0  0  0  0  2  0  0  0  0  0  0
   37.3330   32.7770   39.2460 C   0  0  0  0  0  2  0  0  0  0  0  0
  1  3  1  0  0  0  0
  1 16  1  0  0  0  0
  2  1  2  0  0  0  0
  3  4  1  0  0  0  0
  5  6  1  0  0  0  0
  5  3  1  0  0  0  0
  6 13  1  0  0  0  0
  7  6  2  0  0  0  0
  8  9  2  0  0  0  0
  8  7  1  0  0  0  0
  9 10  1  0  0  0  0
 10  5  2  0  0  0  0
 11  7  1  0  0  0  0
 12  9  1  0  0  0  0
 13 14  1  0  0  0  0
 15 13  1  0  0  0  0
 17 18  1  0  0  0  0
 18 19  1  0  0  0  0
 19 16  1  0  0  0  0
 19 20  2  0  0  0  0
 20 25  1  0  0  0  0
 21 20  1  0  0  0  0
 21 26  1  0  0  0  0
 22 21  2  0  0  0  0
 23 22  1  0  0  0  0
 24 18  2  0  0  0  0
 24 22  1  0  0  0  0
 27 24  1  0  0  0  0
 28 29  1  0  0  0  0
 28 27  1  0  0  0  0
 29 27  1  0  0  0  0
M  END
>  <minimizedAffinity>
-5.61218691

$$$$

 OpenBabel03252501393D

 29 31  0  0  0  0  0  0  0  0999 V2000
   37.0970   30.3840   40.2280 C   0  0  0  0  0  0  0  0  0  0  0  0
   37.7930   30.5960   39.1680 O   0  0  0  0  0  0  0  0  0  0  0  0
   37.4400   31.2510   41.3100 N   0  0  0  0  0  0  0  0  0  0  0  0
   36.9540   31.1950   42.2170 H   0  0  0  0  0  0  0  0  0  0  0  0
   38.5170   32.1300   40.8700 C   0  0  0  0  0  0  0  0  0  0  0  0
   38.3130   33.2890   40.1790 C   0  0  0  0  0  0  0  0  0  0  0  0
   39.4570   33.9990   39.8420 C   0  0  0  0  0  0  0  0  0  0  0  0
   40.6530   33.5010   40.2140 N   0  0  0  0  0  0  0  0  0  0  0  0
   40.8010   32.3530   40.8950 C   0  0  0  0  0  0  0  0  0  0  0  0
   39.7010   31.6380   41.2380 N   0  0  0  0  0  0  0  0  0  0  0  0
   39.3230   34.9230   39.2920 H   0  0  0  0  0  0  0  0  0  0  0  0
   41.7950   32.0020   41.1680 H   0  0  0  0  0  0  0  0  0  0  0  0
   37.0000   33.6590   39.8740 N   0  0  0  0  0  0  0  0  0  0  0  0
   36.4750   34.0100   40.6780 H   0  0  0  0  0  0  0  0  0  0  0  0
   36.5610   33.5970   38.9310 H   0  0  0  0  0  0  0  0  0  0  0  0
   36.0880   29.4120   40.3730 O   0  0  0  0  0  0  0  0  0  0  0  0
   36.2000   27.3910   38.2160 Cl  0  0  0  0  0  0  0  0  0  0  0  0
   36.5260   27.1300   39.9260 C   0  0  0  0  0  0  0  0  0  0  0  0
   36.4380   28.1700   40.8600 C   0  0  0  0  0  0  0  0  0  0  0  0
   36.6950   27.9100   42.1690 C   0  0  0  0  0  0  0  0  0  0  0  0
   37.0470   26.6610   42.6560 C   0  0  0  0  0  0  0  0  0  0  0  0
   37.1380   25.6130   41.7250 C   0  0  0  0  0  0  0  0  0  0  0  0
   37.5860   24.0060   42.2610 Cl  0  0  0  0  0  0  0  0  0  0  0  0
   36.8770   25.8800   40.4070 C   0  0  0  0  0  0  0  0  0  0  0  0
   36.6280   28.7100   42.8920 H   0  0  0  0  0  0  0  0  0  0  0  0
   37.2530   26.4540   43.7060 H   0  0  0  0  0  0  0  0  0  0  0  0
   36.9560   24.8460   39.3430 C   0  0  0  0  0  3  0  0  0  0  0  0
   35.6920   23.9950   39.1380 C   0  0  0  0  0  2  0  0  0  0  0  0
   37.0370   23.4120   39.5840 C   0  0  0  0  0  2  0  0  0  0  0  0
  1 16  1  0  0  0  0
  1  3  1  0  0  0  0
  2  1  2  0  0  0  0
  3  4  1  0  0  0  0
  5 10  1  0  0  0  0
  5  3  1  0  0  0  0
  6  5  2  0  0  0  0
  7  6  1  0  0  0  0
  7  8  2  0  0  0  0
  8  9  1  0  0  0  0
  9 12  1  0  0  0  0
  9 10  2  0  0  0  0
 11  7  1  0  0  0  0
 13  6  1  0  0  0  0
 13 14  1  0  0  0  0
 15 13  1  0  0  0  0
 16 19  1  0  0  0  0
 17 18  1  0  0  0  0
 18 24  2  0  0  0  0
 18 19  1  0  0  0  0
 19 20  2  0  0  0  0
 20 21  1  0  0  0  0
 20 25  1  0  0  0  0
 21 26  1  0  0  0  0
 22 23  1  0  0  0  0
 22 21  2  0  0  0  0
 24 22  1  0  0  0  0
 27 29  1  0  0  0  0
 27 24  1  0  0  0  0
 28 27  1  0  0  0  0
 28 29  1  0  0  0  0
M  END
>  <minimizedAffinity>
-5.45126486

$$$$

 OpenBabel03252501393D

 29 31  0  0  0  0  0  0  0  0999 V2000
   39.6600   31.7160   38.1030 C   0  0  0  0  0  0  0  0  0  0  0  0
   40.5350   31.5440   39.0300 O   0  0  0  0  0  0  0  0  0  0  0  0
   40.2010   32.3080   36.9210 N   0  0  0  0  0  0  0  0  0  0  0  0
   39.6110   32.4940   36.0970 H   0  0  0  0  0  0  0  0  0  0  0  0
   41.6220   32.5560   37.1400 C   0  0  0  0  0  0  0  0  0  0  0  0
   42.5970   31.6350   36.8870 C   0  0  0  0  0  0  0  0  0  0  0  0
   43.8960   32.0450   37.1550 C   0  0  0  0  0  0  0  0  0  0  0  0
   44.0880   33.2910   37.6330 N   0  0  0  0  0  0  0  0  0  0  0  0
   43.0920   34.1610   37.8650 C   0  0  0  0  0  0  0  0  0  0  0  0
   41.8130   33.7880   37.6130 N   0  0  0  0  0  0  0  0  0  0  0  0
   44.6900   31.3340   36.9640 H   0  0  0  0  0  0  0  0  0  0  0  0
   43.3110   35.1550   38.2520 H   0  0  0  0  0  0  0  0  0  0  0  0
   42.2190   30.3840   36.3910 N   0  0  0  0  0  0  0  0  0  0  0  0
   41.9380   30.4010   35.4080 H   0  0  0  0  0  0  0  0  0  0  0  0
   42.2100   29.4980   36.9370 H   0  0  0  0  0  0  0  0  0  0  0  0
   38.2960   31.3780   38.1830 O   0  0  0  0  0  0  0  0  0  0  0  0
   37.3570   31.4440   40.9880 Cl  0  0  0  0  0  0  0  0  0  0  0  0
   37.4950   30.0260   39.9530 C   0  0  0  0  0  0  0  0  0  0  0  0
   37.9570   30.1180   38.6340 C   0  0  0  0  0  0  0  0  0  0  0  0
   38.0490   28.9900   37.8830 C   0  0  0  0  0  0  0  0  0  0  0  0
   37.7080   27.7270   38.3390 C   0  0  0  0  0  0  0  0  0  0  0  0
   37.2430   27.6260   39.6610 C   0  0  0  0  0  0  0  0  0  0  0  0
   36.7830   26.0640   40.3080 Cl  0  0  0  0  0  0  0  0  0  0  0  0
   37.1540   28.7660   40.4140 C   0  0  0  0  0  0  0  0  0  0  0  0
   38.4050   29.0580   36.8650 H   0  0  0  0  0  0  0  0  0  0  0  0
   37.7820   26.8210   37.7350 H   0  0  0  0  0  0  0  0  0  0  0  0
   36.6630   28.7700   41.8170 C   0  0  0  0  0  3  0  0  0  0  0  0
   37.7410   28.6280   42.9040 C   0  0  0  0  0  2  0  0  0  0  0  0
   36.6240   27.6020   42.6850 C   0  0  0  0  0  2  0  0  0  0  0  0
  1 16  1  0  0  0  0
  1  2  2  0  0  0  0
  3  5  1  0  0  0  0
  3  1  1  0  0  0  0
  4  3  1  0  0  0  0
  5 10  1  0  0  0  0
  6  5  2  0  0  0  0
  6  7  1  0  0  0  0
  7  8  2  0  0  0  0
  8  9  1  0  0  0  0
  9 12  1  0  0  0  0
 10  9  2  0  0  0  0
 11  7  1  0  0  0  0
 13  6  1  0  0  0  0
 13 15  1  0  0  0  0
 14 13  1  0  0  0  0
 16 19  1  0  0  0  0
 18 24  1  0  0  0  0
 18 17  1  0  0  0  0
 19 18  2  0  0  0  0
 20 21  2  0  0  0  0
 20 19  1  0  0  0  0
 21 22  1  0  0  0  0
 22 23  1  0  0  0  0
 22 24  2  0  0  0  0
 24 27  1  0  0  0  0
 25 20  1  0  0  0  0
 26 21  1  0  0  0  0
 27 29  1  0  0  0  0
 27 28  1  0  0  0  0
 29 28  1  0  0  0  0
M  END
>  <minimizedAffinity>
-5.44850349

$$$$

 OpenBabel03252501393D

 29 31  0  0  0  0  0  0  0  0999 V2000
   37.0710   27.6370   42.0280 C   0  0  0  0  0  0  0  0  0  0  0  0
   36.8870   26.6900   42.8780 O   0  0  0  0  0  0  0  0  0  0  0  0
   37.5210   27.1710   40.7540 N   0  0  0  0  0  0  0  0  0  0  0  0
   37.6990   27.8250   39.9780 H   0  0  0  0  0  0  0  0  0  0  0  0
   37.6490   25.7200   40.8150 C   0  0  0  0  0  0  0  0  0  0  0  0
   38.7620   25.0780   41.2760 C   0  0  0  0  0  0  0  0  0  0  0  0
   38.7060   23.6910   41.2610 C   0  0  0  0  0  0  0  0  0  0  0  0
   37.5850   23.1000   40.8020 N   0  0  0  0  0  0  0  0  0  0  0  0
   36.5150   23.7780   40.3580 C   0  0  0  0  0  0  0  0  0  0  0  0
   36.5400   25.1340   40.3610 N   0  0  0  0  0  0  0  0  0  0  0  0
   39.5770   23.1560   41.6210 H   0  0  0  0  0  0  0  0  0  0  0  0
   35.6360   23.2430   40.0000 H   0  0  0  0  0  0  0  0  0  0  0  0
   39.8410   25.8500   41.7160 N   0  0  0  0  0  0  0  0  0  0  0  0
   39.6840   26.2950   42.6230 H   0  0  0  0  0  0  0  0  0  0  0  0
   40.7350   25.9850   41.1990 H   0  0  0  0  0  0  0  0  0  0  0  0
   36.8690   29.0100   42.2660 O   0  0  0  0  0  0  0  0  0  0  0  0
   36.2460   30.8960   40.0730 Cl  0  0  0  0  0  0  0  0  0  0  0  0
   37.7340   30.8210   41.0120 C   0  0  0  0  0  0  0  0  0  0  0  0
   37.9170   29.8770   42.0300 C   0  0  0  0  0  0  0  0  0  0  0  0
   39.0880   29.8620   42.7180 C   0  0  0  0  0  0  0  0  0  0  0  0
   40.1380   30.7340   42.4790 C   0  0  0  0  0  0  0  0  0  0  0  0
   39.9620   31.6850   41.4590 C   0  0  0  0  0  0  0  0  0  0  0  0
   41.2400   32.8290   41.1030 Cl  0  0  0  0  0  0  0  0  0  0  0  0
   38.7800   31.6950   40.7690 C   0  0  0  0  0  0  0  0  0  0  0  0
   39.2330   29.1350   43.5030 H   0  0  0  0  0  0  0  0  0  0  0  0
   41.0780   30.7210   43.0320 H   0  0  0  0  0  0  0  0  0  0  0  0
   38.4890   32.6660   39.6810 C   0  0  0  0  0  3  0  0  0  0  0  0
   38.5160   34.1500   40.0810 C   0  0  0  0  0  2  0  0  0  0  0  0
   37.2610   33.4390   39.5660 C   0  0  0  0  0  2  0  0  0  0  0  0
  1 16  1  0  0  0  0
  1  2  2  0  0  0  0
  3  5  1  0  0  0  0
  3  1  1  0  0  0  0
  4  3  1  0  0  0  0
  5  6  1  0  0  0  0
  6 13  1  0  0  0  0
  7  6  2  0  0  0  0
  7 11  1  0  0  0  0
  8  7  1  0  0  0  0
  9 10  1  0  0  0  0
  9  8  2  0  0  0  0
 10  5  2  0  0  0  0
 12  9  1  0  0  0  0
 13 14  1  0  0  0  0
 15 13  1  0  0  0  0
 17 18  1  0  0  0  0
 18 19  1  0  0  0  0
 19 16  1  0  0  0  0
 19 20  2  0  0  0  0
 20 25  1  0  0  0  0
 21 20  1  0  0  0  0
 21 26  1  0  0  0  0
 22 21  2  0  0  0  0
 23 22  1  0  0  0  0
 24 18  2  0  0  0  0
 24 22  1  0  0  0  0
 27 28  1  0  0  0  0
 27 24  1  0  0  0  0
 29 27  1  0  0  0  0
 29 28  1  0  0  0  0
M  END
>  <minimizedAffinity>
-5.26614428

$$$$

 OpenBabel03252501393D

 29 31  0  0  0  0  0  0  0  0999 V2000
   40.0750   32.5710   40.7960 C   0  0  0  0  0  0  0  0  0  0  0  0
   40.9180   31.7290   40.3120 O   0  0  0  0  0  0  0  0  0  0  0  0
   40.5650   33.9130   40.8150 N   0  0  0  0  0  0  0  0  0  0  0  0
   39.9880   34.6880   41.1700 H   0  0  0  0  0  0  0  0  0  0  0  0
   41.9190   33.9150   40.2730 C   0  0  0  0  0  0  0  0  0  0  0  0
   43.0380   33.7380   41.0330 C   0  0  0  0  0  0  0  0  0  0  0  0
   44.2440   33.7700   40.3460 C   0  0  0  0  0  0  0  0  0  0  0  0
   44.2170   33.9680   39.0140 N   0  0  0  0  0  0  0  0  0  0  0  0
   43.0860   34.1370   38.3090 C   0  0  0  0  0  0  0  0  0  0  0  0
   41.8930   34.1100   38.9530 N   0  0  0  0  0  0  0  0  0  0  0  0
   45.1490   33.6330   40.9270 H   0  0  0  0  0  0  0  0  0  0  0  0
   43.1290   34.2930   37.2320 H   0  0  0  0  0  0  0  0  0  0  0  0
   42.8840   33.5440   42.4090 N   0  0  0  0  0  0  0  0  0  0  0  0
   42.5330   32.6160   42.6550 H   0  0  0  0  0  0  0  0  0  0  0  0
   43.0940   34.2510   43.1440 H   0  0  0  0  0  0  0  0  0  0  0  0
   38.7870   32.2650   41.2770 O   0  0  0  0  0  0  0  0  0  0  0  0
   37.0420   31.8140   38.9310 Cl  0  0  0  0  0  0  0  0  0  0  0  0
   37.5230   30.6220   40.1350 C   0  0  0  0  0  0  0  0  0  0  0  0
   38.3560   30.9550   41.2100 C   0  0  0  0  0  0  0  0  0  0  0  0
   38.6910   29.9960   42.1130 C   0  0  0  0  0  0  0  0  0  0  0  0
   38.2560   28.6830   42.0430 C   0  0  0  0  0  0  0  0  0  0  0  0
   37.4200   28.3400   40.9670 C   0  0  0  0  0  0  0  0  0  0  0  0
   36.8370   26.6960   40.8030 Cl  0  0  0  0  0  0  0  0  0  0  0  0
   37.0860   29.3110   40.0600 C   0  0  0  0  0  0  0  0  0  0  0  0
   39.3330   30.2500   42.9430 H   0  0  0  0  0  0  0  0  0  0  0  0
   38.5250   27.9130   42.7680 H   0  0  0  0  0  0  0  0  0  0  0  0
   36.2190   29.0500   38.8820 C   0  0  0  0  0  3  0  0  0  0  0  0
   34.7040   29.0700   39.1460 C   0  0  0  0  0  2  0  0  0  0  0  0
   35.4600   27.8270   38.6640 C   0  0  0  0  0  2  0  0  0  0  0  0
  1  3  1  0  0  0  0
  1 16  1  0  0  0  0
  2  1  2  0  0  0  0
  3  4  1  0  0  0  0
  5  3  1  0  0  0  0
  5  6  1  0  0  0  0
  6 13  1  0  0  0  0
  7 11  1  0  0  0  0
  7  6  2  0  0  0  0
  8  7  1  0  0  0  0
  9 10  1  0  0  0  0
  9  8  2  0  0  0  0
 10  5  2  0  0  0  0
 12  9  1  0  0  0  0
 13 14  1  0  0  0  0
 13 15  1  0  0  0  0
 17 18  1  0  0  0  0
 18 19  1  0  0  0  0
 19 16  1  0  0  0  0
 19 20  2  0  0  0  0
 20 25  1  0  0  0  0
 21 20  1  0  0  0  0
 21 26  1  0  0  0  0
 22 21  2  0  0  0  0
 23 22  1  0  0  0  0
 24 18  2  0  0  0  0
 24 22  1  0  0  0  0
 27 28  1  0  0  0  0
 27 24  1  0  0  0  0
 29 27  1  0  0  0  0
 29 28  1  0  0  0  0
M  END
>  <minimizedAffinity>
-5.17983246

$$$$
