
 OpenBabel03252508263D

 35 39  0  0  1  0  0  0  0  0999 V2000
   46.8090   32.3330   45.7580 C   0  0  1  0  0  0  0  0  0  0  0  0
   47.0210   32.6990   47.1650 C   0  0  0  0  0  0  0  0  0  0  0  0
   45.7060   31.9970   46.6340 C   0  0  2  0  0  0  0  0  0  0  0  0
   47.6900   31.6430   45.4960 H   0  0  0  0  0  0  0  0  0  0  0  0
   46.9310   33.7330   47.4850 H   0  0  0  0  0  0  0  0  0  0  0  0
   47.5190   32.0560   47.9100 H   0  0  0  0  0  0  0  0  0  0  0  0
   44.8920   32.7300   46.9400 H   0  0  0  0  0  0  0  0  0  0  0  0
   45.3710   30.6500   47.1030 C   0  0  0  0  0  0  0  0  0  0  0  0
   45.2660   30.2200   48.3880 C   0  0  0  0  0  0  0  0  0  0  0  0
   45.0730   28.9040   48.7920 C   0  0  0  0  0  0  0  0  0  0  0  0
   44.9790   27.9460   47.7720 C   0  0  0  0  0  0  0  0  0  0  0  0
   45.0810   28.3600   46.4430 C   0  0  0  0  0  0  0  0  0  0  0  0
   44.9170   27.3860   45.4740 C   0  0  0  0  0  0  0  0  0  0  0  0
   44.9380   27.7670   44.1340 C   0  0  0  0  0  0  0  0  0  0  0  0
   45.1140   29.0890   43.7770 C   0  0  0  0  0  0  0  0  0  0  0  0
   45.2730   30.0100   44.7840 C   0  0  0  0  0  0  0  0  0  0  0  0
   45.2690   29.6850   46.1340 C   0  0  0  0  0  0  0  0  0  0  0  0
   45.3440   30.9950   49.1480 H   0  0  0  0  0  0  0  0  0  0  0  0
   44.9980   28.6370   49.8330 H   0  0  0  0  0  0  0  0  0  0  0  0
   44.8340   26.9350   48.0870 H   0  0  0  0  0  0  0  0  0  0  0  0
   44.7790   26.3580   45.7850 H   0  0  0  0  0  0  0  0  0  0  0  0
   44.8020   26.9160   43.4580 H   0  0  0  0  0  0  0  0  0  0  0  0
   45.0970   29.1770   42.7190 H   0  0  0  0  0  0  0  0  0  0  0  0
   45.3020   30.9340   44.2790 H   0  0  0  0  0  0  0  0  0  0  0  0
   45.2890   35.0280   43.7450 C   0  0  0  0  0  0  0  0  0  0  0  0
   46.2790   35.2440   42.7240 C   0  0  0  0  0  0  0  0  0  0  0  0
   47.4640   34.4410   42.7780 C   0  0  0  0  0  0  0  0  0  0  0  0
   47.6080   33.5340   43.7590 N   0  0  0  0  0  0  0  0  0  0  0  0
   46.6190   33.3770   44.7080 C   0  0  0  0  0  0  0  0  0  0  0  0
   45.5020   34.0990   44.6990 N   0  0  0  0  0  0  0  0  0  0  0  0
   44.4200   35.6570   43.6560 H   0  0  0  0  0  0  0  0  0  0  0  0
   46.1220   35.9850   41.9520 H   0  0  0  0  0  0  0  0  0  0  0  0
   48.4680   34.6740   41.7260 C   0  0  0  0  0  3  0  0  0  0  0  0
   48.8790   33.4950   40.9170 C   0  0  0  0  0  2  0  0  0  0  0  0
   48.0950   34.6580   40.3020 C   0  0  0  0  0  2  0  0  0  0  0  0
  1  4  1  6  0  0  0
  1  3  1  0  0  0  0
  1  2  1  0  0  0  0
  2  5  1  0  0  0  0
  2  6  1  0  0  0  0
  3  7  1  6  0  0  0
  3  8  1  0  0  0  0
  3  2  1  0  0  0  0
  8  9  1  0  0  0  0
  9 10  2  0  0  0  0
  9 18  1  0  0  0  0
 10 19  1  0  0  0  0
 11 20  1  0  0  0  0
 11 10  1  0  0  0  0
 12 11  2  0  0  0  0
 13 21  1  0  0  0  0
 13 12  1  0  0  0  0
 14 13  2  0  0  0  0
 15 14  1  0  0  0  0
 15 16  2  0  0  0  0
 16 17  1  0  0  0  0
 17 12  1  0  0  0  0
 17  8  2  0  0  0  0
 22 14  1  0  0  0  0
 23 15  1  0  0  0  0
 24 16  1  0  0  0  0
 25 30  1  0  0  0  0
 26 27  1  0  0  0  0
 26 25  2  0  0  0  0
 27 28  2  0  0  0  0
 28 29  1  0  0  0  0
 29  1  1  0  0  0  0
 30 29  2  0  0  0  0
 31 25  1  0  0  0  0
 32 26  1  0  0  0  0
 33 27  1  0  0  0  0
 34 33  1  0  0  0  0
 35 34  1  0  0  0  0
 35 33  1  0  0  0  0
M  END
>  <minimizedAffinity>
-5.05541706

>  <minimizedRMSD>
1.22834921

$$$$
