
 OpenBabel03242515063D

 33 35  0  0  0  0  0  0  0  0999 V2000
   41.1210   28.2700   42.4570 C   0  0  0  0  0  0  0  0  0  0  0  0
   40.7850   27.9080   41.4510 H   0  0  0  0  0  0  0  0  0  0  0  0
   42.1960   27.9750   42.5380 H   0  0  0  0  0  0  0  0  0  0  0  0
   40.3330   27.5180   43.4780 C   0  0  0  0  0  0  0  0  0  0  0  0
   39.7700   28.2500   44.0940 H   0  0  0  0  0  0  0  0  0  0  0  0
   40.9630   26.9310   44.1890 H   0  0  0  0  0  0  0  0  0  0  0  0
   37.4010   28.1390   44.0420 Cl  0  0  0  0  0  0  0  0  0  0  0  0
   37.9570   26.8330   43.0250 C   0  0  0  0  0  0  0  0  0  0  0  0
   39.3260   26.6410   42.8370 C   0  0  0  0  0  0  0  0  0  0  0  0
   39.6770   25.5950   42.0260 C   0  0  0  0  0  0  0  0  0  0  0  0
   38.8080   24.7170   41.3810 C   0  0  0  0  0  0  0  0  0  0  0  0
   37.4650   24.9350   41.5870 C   0  0  0  0  0  0  0  0  0  0  0  0
   36.2800   23.8790   40.8150 Cl  0  0  0  0  0  0  0  0  0  0  0  0
   37.0570   25.9810   42.4000 C   0  0  0  0  0  0  0  0  0  0  0  0
   40.7320   25.4080   41.8510 H   0  0  0  0  0  0  0  0  0  0  0  0
   39.1930   23.9190   40.7580 H   0  0  0  0  0  0  0  0  0  0  0  0
   36.0020   26.1710   42.5780 H   0  0  0  0  0  0  0  0  0  0  0  0
   40.9130   30.0440   42.5410 S   0  0  0  0  0  0  0  0  0  0  0  0
   39.5490   30.6410   41.5440 C   0  0  0  0  0  0  0  0  0  0  0  0
   38.6600   29.6740   41.0600 C   0  0  0  0  0  0  0  0  0  0  0  0
   37.5860   30.1000   40.2800 C   0  0  0  0  0  0  0  0  0  0  0  0
   37.4650   31.4230   40.0370 N   0  0  0  0  0  0  0  0  0  0  0  0
   38.3300   32.3420   40.5100 C   0  0  0  0  0  0  0  0  0  0  0  0
   39.3600   31.9360   41.2580 N   0  0  0  0  0  0  0  0  0  0  0  0
   38.7900   28.6210   41.2760 H   0  0  0  0  0  0  0  0  0  0  0  0
   38.0880   33.7260   40.1780 C   0  0  0  0  0  0  0  0  0  0  0  0
   38.8450   34.5910   40.6970 O   0  0  0  0  0  0  0  0  0  0  0  0
   36.9950   34.0060   39.2730 N   0  0  0  0  0  0  0  0  0  0  0  0
   37.2030   34.7760   38.6040 H   0  0  0  0  0  0  0  0  0  0  0  0
   36.1210   33.4270   39.3730 H   0  0  0  0  0  0  0  0  0  0  0  0
   36.6280   29.0970   39.7540 C   0  0  0  0  0  3  0  0  0  0  0  0
   35.4150   28.9200   40.6540 C   0  0  0  0  0  2  0  0  0  0  0  0
   35.2920   29.4700   39.2630 C   0  0  0  0  0  2  0  0  0  0  0  0
  1  3  1  0  0  0  0
  1 18  1  0  0  0  0
  1  4  1  0  0  0  0
  2  1  1  0  0  0  0
  4  5  1  0  0  0  0
  4  6  1  0  0  0  0
  8  7  1  0  0  0  0
  9  8  1  0  0  0  0
  9  4  1  0  0  0  0
 10  9  2  0  0  0  0
 11 12  2  0  0  0  0
 11 10  1  0  0  0  0
 12 14  1  0  0  0  0
 13 12  1  0  0  0  0
 14 17  1  0  0  0  0
 14  8  2  0  0  0  0
 15 10  1  0  0  0  0
 16 11  1  0  0  0  0
 19 18  1  0  0  0  0
 20 25  1  0  0  0  0
 20 19  2  0  0  0  0
 21 20  1  0  0  0  0
 22 21  2  0  0  0  0
 22 23  1  0  0  0  0
 23 24  2  0  0  0  0
 24 19  1  0  0  0  0
 26 23  1  0  0  0  0
 26 27  2  0  0  0  0
 28 30  1  0  0  0  0
 28 26  1  0  0  0  0
 29 28  1  0  0  0  0
 31 21  1  0  0  0  0
 31 32  1  0  0  0  0
 33 31  1  0  0  0  0
 33 32  1  0  0  0  0
M  END
>  <minimizedAffinity>
-5.61581087

$$$$

 OpenBabel03242515063D

 33 35  0  0  0  0  0  0  0  0999 V2000
   37.3520   31.7680   39.6830 C   0  0  0  0  0  0  0  0  0  0  0  0
   36.5370   31.8520   38.9160 H   0  0  0  0  0  0  0  0  0  0  0  0
   37.9950   30.9190   39.3440 H   0  0  0  0  0  0  0  0  0  0  0  0
   36.7000   31.3990   40.9740 C   0  0  0  0  0  0  0  0  0  0  0  0
   35.6050   31.3250   40.8040 H   0  0  0  0  0  0  0  0  0  0  0  0
   36.8400   32.1580   41.7800 H   0  0  0  0  0  0  0  0  0  0  0  0
   34.8830   29.0350   40.3350 Cl  0  0  0  0  0  0  0  0  0  0  0  0
   36.3950   28.9140   41.2000 C   0  0  0  0  0  0  0  0  0  0  0  0
   37.1470   30.0650   41.4380 C   0  0  0  0  0  0  0  0  0  0  0  0
   38.3180   29.8830   42.1220 C   0  0  0  0  0  0  0  0  0  0  0  0
   38.8220   28.6750   42.5990 C   0  0  0  0  0  0  0  0  0  0  0  0
   38.0560   27.5600   42.3470 C   0  0  0  0  0  0  0  0  0  0  0  0
   38.6060   25.9780   42.9080 Cl  0  0  0  0  0  0  0  0  0  0  0  0
   36.8610   27.6890   41.6580 C   0  0  0  0  0  0  0  0  0  0  0  0
   38.9370   30.7520   42.3300 H   0  0  0  0  0  0  0  0  0  0  0  0
   39.7650   28.6420   43.1310 H   0  0  0  0  0  0  0  0  0  0  0  0
   36.2400   26.8230   41.4490 H   0  0  0  0  0  0  0  0  0  0  0  0
   38.2620   33.3060   39.7410 S   0  0  0  0  0  0  0  0  0  0  0  0
   40.0380   33.0720   39.7660 C   0  0  0  0  0  0  0  0  0  0  0  0
   40.5410   32.2130   40.7510 C   0  0  0  0  0  0  0  0  0  0  0  0
   41.9180   32.0070   40.8020 C   0  0  0  0  0  0  0  0  0  0  0  0
   42.6890   32.6490   39.8980 N   0  0  0  0  0  0  0  0  0  0  0  0
   42.1910   33.4730   38.9560 C   0  0  0  0  0  0  0  0  0  0  0  0
   40.8710   33.6720   38.9040 N   0  0  0  0  0  0  0  0  0  0  0  0
   39.8910   31.7170   41.4590 H   0  0  0  0  0  0  0  0  0  0  0  0
   43.1220   34.0980   38.0470 C   0  0  0  0  0  0  0  0  0  0  0  0
   44.2900   34.3210   38.4710 O   0  0  0  0  0  0  0  0  0  0  0  0
   42.6390   34.4180   36.7220 N   0  0  0  0  0  0  0  0  0  0  0  0
   43.3470   34.2580   35.9770 H   0  0  0  0  0  0  0  0  0  0  0  0
   41.6500   34.7710   36.6390 H   0  0  0  0  0  0  0  0  0  0  0  0
   42.4800   31.1020   41.8340 C   0  0  0  0  0  3  0  0  0  0  0  0
   43.1910   31.8550   42.9480 C   0  0  0  0  0  2  0  0  0  0  0  0
   41.9510   31.0520   43.2070 C   0  0  0  0  0  2  0  0  0  0  0  0
  1 18  1  0  0  0  0
  1  4  1  0  0  0  0
  2  1  1  0  0  0  0
  3  1  1  0  0  0  0
  4  9  1  0  0  0  0
  4  6  1  0  0  0  0
  5  4  1  0  0  0  0
  7  8  1  0  0  0  0
  8  9  2  0  0  0  0
  8 14  1  0  0  0  0
  9 10  1  0  0  0  0
 10 15  1  0  0  0  0
 10 11  2  0  0  0  0
 11 16  1  0  0  0  0
 12 11  1  0  0  0  0
 12 13  1  0  0  0  0
 14 12  2  0  0  0  0
 17 14  1  0  0  0  0
 18 19  1  0  0  0  0
 19 20  1  0  0  0  0
 20 21  2  0  0  0  0
 20 25  1  0  0  0  0
 21 31  1  0  0  0  0
 22 21  1  0  0  0  0
 23 22  2  0  0  0  0
 24 23  1  0  0  0  0
 24 19  2  0  0  0  0
 26 27  2  0  0  0  0
 26 23  1  0  0  0  0
 28 26  1  0  0  0  0
 29 28  1  0  0  0  0
 30 28  1  0  0  0  0
 31 32  1  0  0  0  0
 31 33  1  0  0  0  0
 32 33  1  0  0  0  0
M  END
>  <minimizedAffinity>
-5.52248812

$$$$

 OpenBabel03242515063D

 33 35  0  0  0  0  0  0  0  0999 V2000
   37.3990   28.8490   43.0980 C   0  0  0  0  0  0  0  0  0  0  0  0
   36.7950   29.5120   43.7720 H   0  0  0  0  0  0  0  0  0  0  0  0
   36.7130   28.5660   42.2620 H   0  0  0  0  0  0  0  0  0  0  0  0
   37.7400   27.6250   43.8820 C   0  0  0  0  0  0  0  0  0  0  0  0
   36.8790   27.3800   44.5390 H   0  0  0  0  0  0  0  0  0  0  0  0
   38.6200   27.7540   44.5560 H   0  0  0  0  0  0  0  0  0  0  0  0
   40.4510   26.2350   44.0130 Cl  0  0  0  0  0  0  0  0  0  0  0  0
   39.1390   25.7460   42.9690 C   0  0  0  0  0  0  0  0  0  0  0  0
   37.9390   26.4580   42.9920 C   0  0  0  0  0  0  0  0  0  0  0  0
   36.9620   26.0090   42.1440 C   0  0  0  0  0  0  0  0  0  0  0  0
   37.0540   24.9270   41.2720 C   0  0  0  0  0  0  0  0  0  0  0  0
   38.2500   24.2470   41.2750 C   0  0  0  0  0  0  0  0  0  0  0  0
   38.4680   22.8580   40.2060 Cl  0  0  0  0  0  0  0  0  0  0  0  0
   39.2720   24.6600   42.1150 C   0  0  0  0  0  0  0  0  0  0  0  0
   36.0110   26.5330   42.1280 H   0  0  0  0  0  0  0  0  0  0  0  0
   36.2160   24.6550   40.6410 H   0  0  0  0  0  0  0  0  0  0  0  0
   40.2250   24.1400   42.1340 H   0  0  0  0  0  0  0  0  0  0  0  0
   38.8230   29.7550   42.5090 S   0  0  0  0  0  0  0  0  0  0  0  0
   38.7260   30.1640   40.7670 C   0  0  0  0  0  0  0  0  0  0  0  0
   37.8630   29.3820   39.9890 C   0  0  0  0  0  0  0  0  0  0  0  0
   37.7620   29.6710   38.6300 C   0  0  0  0  0  0  0  0  0  0  0  0
   38.5020   30.6880   38.1400 N   0  0  0  0  0  0  0  0  0  0  0  0
   39.3290   31.4310   38.9020 C   0  0  0  0  0  0  0  0  0  0  0  0
   39.4280   31.1580   40.2060 N   0  0  0  0  0  0  0  0  0  0  0  0
   37.2860   28.5740   40.4180 H   0  0  0  0  0  0  0  0  0  0  0  0
   40.0660   32.4920   38.2560 C   0  0  0  0  0  0  0  0  0  0  0  0
   40.4820   33.4380   38.9800 O   0  0  0  0  0  0  0  0  0  0  0  0
   40.2680   32.3810   36.8290 N   0  0  0  0  0  0  0  0  0  0  0  0
   41.2070   32.7080   36.5200 H   0  0  0  0  0  0  0  0  0  0  0  0
   39.4740   31.9950   36.2550 H   0  0  0  0  0  0  0  0  0  0  0  0
   36.8550   28.8590   37.7810 C   0  0  0  0  0  3  0  0  0  0  0  0
   35.3980   29.2700   37.9250 C   0  0  0  0  0  2  0  0  0  0  0  0
   36.1390   29.4290   36.6290 C   0  0  0  0  0  2  0  0  0  0  0  0
  1  2  1  0  0  0  0
  1  4  1  0  0  0  0
  3  1  1  0  0  0  0
  4  5  1  0  0  0  0
  4  6  1  0  0  0  0
  8  9  1  0  0  0  0
  8  7  1  0  0  0  0
  9  4  1  0  0  0  0
 10  9  2  0  0  0  0
 11 12  2  0  0  0  0
 11 10  1  0  0  0  0
 12 14  1  0  0  0  0
 13 12  1  0  0  0  0
 14 17  1  0  0  0  0
 14  8  2  0  0  0  0
 15 10  1  0  0  0  0
 16 11  1  0  0  0  0
 18  1  1  0  0  0  0
 19 18  1  0  0  0  0
 20 25  1  0  0  0  0
 20 19  2  0  0  0  0
 21 20  1  0  0  0  0
 22 21  2  0  0  0  0
 22 23  1  0  0  0  0
 23 24  2  0  0  0  0
 24 19  1  0  0  0  0
 26 23  1  0  0  0  0
 26 27  2  0  0  0  0
 28 26  1  0  0  0  0
 29 28  1  0  0  0  0
 30 28  1  0  0  0  0
 31 32  1  0  0  0  0
 31 21  1  0  0  0  0
 33 31  1  0  0  0  0
 33 32  1  0  0  0  0
M  END
>  <minimizedAffinity>
-5.48707008

$$$$

 OpenBabel03242515063D

 33 35  0  0  0  0  0  0  0  0999 V2000
   36.6140   26.9180   37.7460 C   0  0  0  0  0  0  0  0  0  0  0  0
   36.4880   26.9470   36.6320 H   0  0  0  0  0  0  0  0  0  0  0  0
   37.6870   27.1680   37.9330 H   0  0  0  0  0  0  0  0  0  0  0  0
   36.3600   25.5120   38.1780 C   0  0  0  0  0  0  0  0  0  0  0  0
   36.6910   24.8320   37.3660 H   0  0  0  0  0  0  0  0  0  0  0  0
   35.2820   25.2850   38.3550 H   0  0  0  0  0  0  0  0  0  0  0  0
   35.2200   23.3830   40.0380 Cl  0  0  0  0  0  0  0  0  0  0  0  0
   36.7380   24.2060   40.2920 C   0  0  0  0  0  0  0  0  0  0  0  0
   37.1630   25.1660   39.3740 C   0  0  0  0  0  0  0  0  0  0  0  0
   38.3640   25.7650   39.6470 C   0  0  0  0  0  0  0  0  0  0  0  0
   39.1880   25.5100   40.7400 C   0  0  0  0  0  0  0  0  0  0  0  0
   38.7400   24.5570   41.6260 C   0  0  0  0  0  0  0  0  0  0  0  0
   39.7120   24.1590   43.0460 Cl  0  0  0  0  0  0  0  0  0  0  0  0
   37.5300   23.9220   41.3960 C   0  0  0  0  0  0  0  0  0  0  0  0
   38.7340   26.5190   38.9580 H   0  0  0  0  0  0  0  0  0  0  0  0
   40.1230   26.0430   40.8610 H   0  0  0  0  0  0  0  0  0  0  0  0
   37.1560   23.1670   42.0820 H   0  0  0  0  0  0  0  0  0  0  0  0
   35.5150   28.1180   38.4900 S   0  0  0  0  0  0  0  0  0  0  0  0
   36.3000   29.0880   39.7750 C   0  0  0  0  0  0  0  0  0  0  0  0
   36.4330   28.4760   41.0270 C   0  0  0  0  0  0  0  0  0  0  0  0
   37.0380   29.2010   42.0520 C   0  0  0  0  0  0  0  0  0  0  0  0
   37.4610   30.4530   41.7780 N   0  0  0  0  0  0  0  0  0  0  0  0
   37.3250   31.0300   40.5680 C   0  0  0  0  0  0  0  0  0  0  0  0
   36.7460   30.3370   39.5830 N   0  0  0  0  0  0  0  0  0  0  0  0
   36.0810   27.4690   41.2090 H   0  0  0  0  0  0  0  0  0  0  0  0
   37.8200   32.3770   40.4050 C   0  0  0  0  0  0  0  0  0  0  0  0
   39.0280   32.5940   40.6970 O   0  0  0  0  0  0  0  0  0  0  0  0
   36.8870   33.3680   39.9180 N   0  0  0  0  0  0  0  0  0  0  0  0
   37.3180   34.0490   39.2590 H   0  0  0  0  0  0  0  0  0  0  0  0
   35.8940   33.3110   40.2630 H   0  0  0  0  0  0  0  0  0  0  0  0
   37.1930   28.5770   43.3890 C   0  0  0  0  0  3  0  0  0  0  0  0
   36.7500   27.1220   43.4100 C   0  0  0  0  0  2  0  0  0  0  0  0
   38.1780   27.5160   43.6510 C   0  0  0  0  0  2  0  0  0  0  0  0
  1  3  1  0  0  0  0
  1  4  1  0  0  0  0
  1 18  1  0  0  0  0
  2  1  1  0  0  0  0
  4  6  1  0  0  0  0
  4  9  1  0  0  0  0
  5  4  1  0  0  0  0
  7  8  1  0  0  0  0
  8 14  1  0  0  0  0
  9 10  1  0  0  0  0
  9  8  2  0  0  0  0
 10 11  2  0  0  0  0
 11 16  1  0  0  0  0
 11 12  1  0  0  0  0
 12 13  1  0  0  0  0
 14 12  2  0  0  0  0
 14 17  1  0  0  0  0
 15 10  1  0  0  0  0
 18 19  1  0  0  0  0
 19 20  1  0  0  0  0
 20 25  1  0  0  0  0
 20 21  2  0  0  0  0
 21 31  1  0  0  0  0
 22 21  1  0  0  0  0
 23 22  2  0  0  0  0
 24 19  2  0  0  0  0
 24 23  1  0  0  0  0
 26 23  1  0  0  0  0
 26 27  2  0  0  0  0
 28 30  1  0  0  0  0
 28 26  1  0  0  0  0
 29 28  1  0  0  0  0
 31 32  1  0  0  0  0
 31 33  1  0  0  0  0
 32 33  1  0  0  0  0
M  END
>  <minimizedAffinity>
-5.4335351

$$$$

 OpenBabel03242515063D

 33 35  0  0  0  0  0  0  0  0999 V2000
   37.6390   27.3970   37.8450 C   0  0  0  0  0  0  0  0  0  0  0  0
   38.4720   28.0700   38.1790 H   0  0  0  0  0  0  0  0  0  0  0  0
   37.8210   27.2110   36.7580 H   0  0  0  0  0  0  0  0  0  0  0  0
   36.3680   28.1650   38.0000 C   0  0  0  0  0  0  0  0  0  0  0  0
   35.7640   27.6840   38.7980 H   0  0  0  0  0  0  0  0  0  0  0  0
   35.7300   28.1670   37.0840 H   0  0  0  0  0  0  0  0  0  0  0  0
   35.3630   28.9360   40.7740 Cl  0  0  0  0  0  0  0  0  0  0  0  0
   36.2180   30.0130   39.6980 C   0  0  0  0  0  0  0  0  0  0  0  0
   36.6320   29.5520   38.4480 C   0  0  0  0  0  0  0  0  0  0  0  0
   37.2950   30.4600   37.6660 C   0  0  0  0  0  0  0  0  0  0  0  0
   37.5890   31.7810   37.9950 C   0  0  0  0  0  0  0  0  0  0  0  0
   37.1680   32.2030   39.2350 C   0  0  0  0  0  0  0  0  0  0  0  0
   37.4910   33.8600   39.7510 Cl  0  0  0  0  0  0  0  0  0  0  0  0
   36.4920   31.3230   40.0660 C   0  0  0  0  0  0  0  0  0  0  0  0
   37.6360   30.1450   36.6840 H   0  0  0  0  0  0  0  0  0  0  0  0
   38.1220   32.4170   37.2990 H   0  0  0  0  0  0  0  0  0  0  0  0
   36.1480   31.6340   41.0490 H   0  0  0  0  0  0  0  0  0  0  0  0
   37.6940   25.8830   38.7940 S   0  0  0  0  0  0  0  0  0  0  0  0
   38.6880   26.0180   40.2780 C   0  0  0  0  0  0  0  0  0  0  0  0
   38.0740   26.6070   41.3900 C   0  0  0  0  0  0  0  0  0  0  0  0
   38.8170   26.7300   42.5630 C   0  0  0  0  0  0  0  0  0  0  0  0
   40.0880   26.2730   42.5590 N   0  0  0  0  0  0  0  0  0  0  0  0
   40.6650   25.7090   41.4800 C   0  0  0  0  0  0  0  0  0  0  0  0
   39.9560   25.5890   40.3550 N   0  0  0  0  0  0  0  0  0  0  0  0
   37.0520   26.9610   41.3550 H   0  0  0  0  0  0  0  0  0  0  0  0
   42.0320   25.2610   41.6070 C   0  0  0  0  0  0  0  0  0  0  0  0
   42.7430   25.2560   40.5650 O   0  0  0  0  0  0  0  0  0  0  0  0
   42.4740   24.8530   42.9220 N   0  0  0  0  0  0  0  0  0  0  0  0
   43.4540   25.1370   43.1320 H   0  0  0  0  0  0  0  0  0  0  0  0
   41.7890   24.3250   43.5220 H   0  0  0  0  0  0  0  0  0  0  0  0
   38.1920   27.3490   43.7570 C   0  0  0  0  0  3  0  0  0  0  0  0
   37.7740   28.7920   43.5160 C   0  0  0  0  0  2  0  0  0  0  0  0
   36.7670   27.7150   43.7970 C   0  0  0  0  0  2  0  0  0  0  0  0
  1  4  1  0  0  0  0
  1  2  1  0  0  0  0
  1 18  1  0  0  0  0
  3  1  1  0  0  0  0
  4  9  1  0  0  0  0
  4  5  1  0  0  0  0
  6  4  1  0  0  0  0
  8 14  1  0  0  0  0
  8  7  1  0  0  0  0
  9  8  2  0  0  0  0
 10 11  2  0  0  0  0
 10  9  1  0  0  0  0
 11 12  1  0  0  0  0
 12 13  1  0  0  0  0
 12 14  2  0  0  0  0
 14 17  1  0  0  0  0
 15 10  1  0  0  0  0
 16 11  1  0  0  0  0
 18 19  1  0  0  0  0
 19 24  2  0  0  0  0
 19 20  1  0  0  0  0
 20 21  2  0  0  0  0
 21 31  1  0  0  0  0
 22 21  1  0  0  0  0
 23 26  1  0  0  0  0
 23 22  2  0  0  0  0
 24 23  1  0  0  0  0
 25 20  1  0  0  0  0
 26 28  1  0  0  0  0
 27 26  2  0  0  0  0
 28 29  1  0  0  0  0
 28 30  1  0  0  0  0
 31 33  1  0  0  0  0
 32 31  1  0  0  0  0
 32 33  1  0  0  0  0
M  END
>  <minimizedAffinity>
-5.4305315

$$$$

 OpenBabel03242515063D

 33 35  0  0  0  0  0  0  0  0999 V2000
   36.7400   27.2680   41.1630 C   0  0  0  0  0  0  0  0  0  0  0  0
   36.0250   26.4790   40.8110 H   0  0  0  0  0  0  0  0  0  0  0  0
   37.6870   27.0890   40.5970 H   0  0  0  0  0  0  0  0  0  0  0  0
   36.9860   27.0200   42.6140 C   0  0  0  0  0  0  0  0  0  0  0  0
   36.3910   26.1350   42.9230 H   0  0  0  0  0  0  0  0  0  0  0  0
   36.6630   27.8600   43.2740 H   0  0  0  0  0  0  0  0  0  0  0  0
   38.8800   29.3440   43.1700 Cl  0  0  0  0  0  0  0  0  0  0  0  0
   39.3600   27.6660   43.1310 C   0  0  0  0  0  0  0  0  0  0  0  0
   38.4060   26.6830   42.8650 C   0  0  0  0  0  0  0  0  0  0  0  0
   38.8660   25.3930   42.8530 C   0  0  0  0  0  0  0  0  0  0  0  0
   40.1760   24.9770   43.0750 C   0  0  0  0  0  0  0  0  0  0  0  0
   41.0910   25.9710   43.3360 C   0  0  0  0  0  0  0  0  0  0  0  0
   42.7800   25.5500   43.6330 Cl  0  0  0  0  0  0  0  0  0  0  0  0
   40.6770   27.2940   43.3600 C   0  0  0  0  0  0  0  0  0  0  0  0
   38.1580   24.5940   42.6500 H   0  0  0  0  0  0  0  0  0  0  0  0
   40.4330   23.9250   43.0430 H   0  0  0  0  0  0  0  0  0  0  0  0
   41.3820   28.0960   43.5620 H   0  0  0  0  0  0  0  0  0  0  0  0
   36.0510   28.8810   40.8080 S   0  0  0  0  0  0  0  0  0  0  0  0
   36.7270   29.6230   39.3240 C   0  0  0  0  0  0  0  0  0  0  0  0
   36.0850   29.3090   38.1200 C   0  0  0  0  0  0  0  0  0  0  0  0
   36.5830   29.8680   36.9450 C   0  0  0  0  0  0  0  0  0  0  0  0
   37.6580   30.6810   37.0350 N   0  0  0  0  0  0  0  0  0  0  0  0
   38.2660   30.9740   38.2020 C   0  0  0  0  0  0  0  0  0  0  0  0
   37.7900   30.4400   39.3300 N   0  0  0  0  0  0  0  0  0  0  0  0
   35.2260   28.6530   38.0880 H   0  0  0  0  0  0  0  0  0  0  0  0
   39.4070   31.8570   38.1620 C   0  0  0  0  0  0  0  0  0  0  0  0
   39.9660   32.1370   39.2580 O   0  0  0  0  0  0  0  0  0  0  0  0
   39.8160   32.3500   36.8660 N   0  0  0  0  0  0  0  0  0  0  0  0
   40.8490   32.4120   36.7570 H   0  0  0  0  0  0  0  0  0  0  0  0
   39.0560   32.5940   36.1770 H   0  0  0  0  0  0  0  0  0  0  0  0
   35.9230   29.5540   35.6540 C   0  0  0  0  0  3  0  0  0  0  0  0
   36.7300   28.5840   34.8060 C   0  0  0  0  0  2  0  0  0  0  0  0
   35.3820   28.2190   35.3540 C   0  0  0  0  0  2  0  0  0  0  0  0
  1  4  1  0  0  0  0
  2  1  1  0  0  0  0
  3  1  1  0  0  0  0
  4  9  1  0  0  0  0
  4  5  1  0  0  0  0
  4  6  1  0  0  0  0
  8  7  1  0  0  0  0
  8 14  1  0  0  0  0
  9  8  2  0  0  0  0
 10  9  1  0  0  0  0
 10 11  2  0  0  0  0
 11 12  1  0  0  0  0
 12 14  2  0  0  0  0
 12 13  1  0  0  0  0
 14 17  1  0  0  0  0
 15 10  1  0  0  0  0
 16 11  1  0  0  0  0
 18  1  1  0  0  0  0
 19 24  1  0  0  0  0
 19 18  1  0  0  0  0
 20 19  2  0  0  0  0
 21 22  2  0  0  0  0
 21 20  1  0  0  0  0
 22 23  1  0  0  0  0
 23 24  2  0  0  0  0
 25 20  1  0  0  0  0
 26 23  1  0  0  0  0
 26 27  2  0  0  0  0
 28 26  1  0  0  0  0
 29 28  1  0  0  0  0
 30 28  1  0  0  0  0
 31 21  1  0  0  0  0
 32 33  1  0  0  0  0
 32 31  1  0  0  0  0
 33 31  1  0  0  0  0
M  END
>  <minimizedAffinity>
-5.36820698

$$$$

 OpenBabel03242515063D

 33 35  0  0  0  0  0  0  0  0999 V2000
   38.1600   30.5790   41.3980 C   0  0  0  0  0  0  0  0  0  0  0  0
   38.8040   31.4260   41.7540 H   0  0  0  0  0  0  0  0  0  0  0  0
   38.7600   30.0560   40.6140 H   0  0  0  0  0  0  0  0  0  0  0  0
   36.9530   31.1850   40.7640 C   0  0  0  0  0  0  0  0  0  0  0  0
   37.0990   32.2850   40.7150 H   0  0  0  0  0  0  0  0  0  0  0  0
   36.0120   31.0210   41.3420 H   0  0  0  0  0  0  0  0  0  0  0  0
   34.8730   29.0100   40.2720 Cl  0  0  0  0  0  0  0  0  0  0  0  0
   35.8670   29.7260   39.0280 C   0  0  0  0  0  0  0  0  0  0  0  0
   36.7890   30.7170   39.3680 C   0  0  0  0  0  0  0  0  0  0  0  0
   37.5290   31.2260   38.3340 C   0  0  0  0  0  0  0  0  0  0  0  0
   37.4490   30.8520   36.9950 C   0  0  0  0  0  0  0  0  0  0  0  0
   36.5300   29.8740   36.6940 C   0  0  0  0  0  0  0  0  0  0  0  0
   36.3490   29.3280   35.0240 Cl  0  0  0  0  0  0  0  0  0  0  0  0
   35.7560   29.3250   37.7040 C   0  0  0  0  0  0  0  0  0  0  0  0
   38.2590   31.9990   38.5530 H   0  0  0  0  0  0  0  0  0  0  0  0
   38.0840   31.3210   36.2530 H   0  0  0  0  0  0  0  0  0  0  0  0
   35.0240   28.5510   37.4900 H   0  0  0  0  0  0  0  0  0  0  0  0
   37.7940   29.5030   42.7790 S   0  0  0  0  0  0  0  0  0  0  0  0
   38.5200   27.8730   42.6130 C   0  0  0  0  0  0  0  0  0  0  0  0
   37.6380   26.8220   42.3350 C   0  0  0  0  0  0  0  0  0  0  0  0
   38.1670   25.5400   42.2000 C   0  0  0  0  0  0  0  0  0  0  0  0
   39.5010   25.3850   42.3450 N   0  0  0  0  0  0  0  0  0  0  0  0
   40.3370   26.4070   42.6130 C   0  0  0  0  0  0  0  0  0  0  0  0
   39.8330   27.6380   42.7430 N   0  0  0  0  0  0  0  0  0  0  0  0
   36.5740   26.9850   42.2250 H   0  0  0  0  0  0  0  0  0  0  0  0
   41.7430   26.1090   42.7450 C   0  0  0  0  0  0  0  0  0  0  0  0
   42.5560   27.0670   42.6340 O   0  0  0  0  0  0  0  0  0  0  0  0
   42.1050   24.7310   42.9950 N   0  0  0  0  0  0  0  0  0  0  0  0
   42.9010   24.6290   43.6570 H   0  0  0  0  0  0  0  0  0  0  0  0
   41.5490   23.9850   42.4990 H   0  0  0  0  0  0  0  0  0  0  0  0
   37.2570   24.4060   41.9040 C   0  0  0  0  0  3  0  0  0  0  0  0
   36.7670   24.4100   40.4640 C   0  0  0  0  0  2  0  0  0  0  0  0
   37.6360   23.3090   41.0000 C   0  0  0  0  0  2  0  0  0  0  0  0
  1  2  1  0  0  0  0
  1 18  1  0  0  0  0
  3  1  1  0  0  0  0
  4  6  1  0  0  0  0
  4  1  1  0  0  0  0
  5  4  1  0  0  0  0
  8  9  1  0  0  0  0
  8  7  1  0  0  0  0
  9  4  1  0  0  0  0
 10 15  1  0  0  0  0
 10  9  2  0  0  0  0
 11 10  1  0  0  0  0
 12 11  2  0  0  0  0
 12 14  1  0  0  0  0
 13 12  1  0  0  0  0
 14  8  2  0  0  0  0
 16 11  1  0  0  0  0
 17 14  1  0  0  0  0
 19 24  1  0  0  0  0
 19 18  1  0  0  0  0
 20 19  2  0  0  0  0
 21 20  1  0  0  0  0
 21 22  2  0  0  0  0
 22 23  1  0  0  0  0
 23 24  2  0  0  0  0
 23 26  1  0  0  0  0
 25 20  1  0  0  0  0
 26 28  1  0  0  0  0
 27 26  2  0  0  0  0
 28 29  1  0  0  0  0
 30 28  1  0  0  0  0
 31 21  1  0  0  0  0
 32 33  1  0  0  0  0
 32 31  1  0  0  0  0
 33 31  1  0  0  0  0
M  END
>  <minimizedAffinity>
-5.36455107

$$$$

 OpenBabel03242515063D

 33 35  0  0  0  0  0  0  0  0999 V2000
   36.3940   28.1370   41.3390 C   0  0  0  0  0  0  0  0  0  0  0  0
   35.4220   27.6990   40.9940 H   0  0  0  0  0  0  0  0  0  0  0  0
   37.1740   27.7040   40.6660 H   0  0  0  0  0  0  0  0  0  0  0  0
   36.6250   27.6480   42.7300 C   0  0  0  0  0  0  0  0  0  0  0  0
   35.9020   26.8310   42.9370 H   0  0  0  0  0  0  0  0  0  0  0  0
   36.4530   28.4240   43.5130 H   0  0  0  0  0  0  0  0  0  0  0  0
   36.9450   24.7110   41.9740 Cl  0  0  0  0  0  0  0  0  0  0  0  0
   38.2390   25.7280   42.5560 C   0  0  0  0  0  0  0  0  0  0  0  0
   37.9780   27.0610   42.8730 C   0  0  0  0  0  0  0  0  0  0  0  0
   39.0470   27.7890   43.3230 C   0  0  0  0  0  0  0  0  0  0  0  0
   40.3510   27.3300   43.4920 C   0  0  0  0  0  0  0  0  0  0  0  0
   40.5740   26.0110   43.1700 C   0  0  0  0  0  0  0  0  0  0  0  0
   42.1940   25.3300   43.3480 Cl  0  0  0  0  0  0  0  0  0  0  0  0
   39.5260   25.2300   42.7100 C   0  0  0  0  0  0  0  0  0  0  0  0
   38.8900   28.8330   43.5820 H   0  0  0  0  0  0  0  0  0  0  0  0
   41.1260   27.9930   43.8560 H   0  0  0  0  0  0  0  0  0  0  0  0
   39.6780   24.1870   42.4500 H   0  0  0  0  0  0  0  0  0  0  0  0
   36.3150   29.9190   41.1980 S   0  0  0  0  0  0  0  0  0  0  0  0
   37.8800   30.6580   40.7350 C   0  0  0  0  0  0  0  0  0  0  0  0
   38.8920   29.7780   40.3320 C   0  0  0  0  0  0  0  0  0  0  0  0
   40.1230   30.3170   39.9640 C   0  0  0  0  0  0  0  0  0  0  0  0
   40.2700   31.6580   40.0180 N   0  0  0  0  0  0  0  0  0  0  0  0
   39.2860   32.4930   40.4090 C   0  0  0  0  0  0  0  0  0  0  0  0
   38.1050   31.9790   40.7610 N   0  0  0  0  0  0  0  0  0  0  0  0
   38.7360   28.7080   40.3010 H   0  0  0  0  0  0  0  0  0  0  0  0
   39.5710   33.9080   40.4220 C   0  0  0  0  0  0  0  0  0  0  0  0
   40.4180   34.3410   39.5940 O   0  0  0  0  0  0  0  0  0  0  0  0
   38.8580   34.7150   41.3880 N   0  0  0  0  0  0  0  0  0  0  0  0
   38.5820   35.6490   41.0180 H   0  0  0  0  0  0  0  0  0  0  0  0
   38.6910   34.2980   42.3400 H   0  0  0  0  0  0  0  0  0  0  0  0
   41.2130   29.4090   39.5320 C   0  0  0  0  0  3  0  0  0  0  0  0
   42.1140   28.9880   40.6830 C   0  0  0  0  0  2  0  0  0  0  0  0
   41.2670   27.9960   39.9410 C   0  0  0  0  0  2  0  0  0  0  0  0
  1  4  1  0  0  0  0
  2  1  1  0  0  0  0
  3  1  1  0  0  0  0
  4  9  1  0  0  0  0
  4  5  1  0  0  0  0
  4  6  1  0  0  0  0
  7  8  1  0  0  0  0
  8 14  2  0  0  0  0
  8  9  1  0  0  0  0
  9 10  2  0  0  0  0
 10 11  1  0  0  0  0
 10 15  1  0  0  0  0
 11 16  1  0  0  0  0
 12 13  1  0  0  0  0
 12 11  2  0  0  0  0
 14 12  1  0  0  0  0
 17 14  1  0  0  0  0
 18  1  1  0  0  0  0
 19 24  1  0  0  0  0
 19 18  1  0  0  0  0
 20 19  2  0  0  0  0
 21 22  2  0  0  0  0
 21 20  1  0  0  0  0
 22 23  1  0  0  0  0
 23 26  1  0  0  0  0
 23 24  2  0  0  0  0
 25 20  1  0  0  0  0
 26 28  1  0  0  0  0
 27 26  2  0  0  0  0
 28 30  1  0  0  0  0
 29 28  1  0  0  0  0
 31 33  1  0  0  0  0
 31 21  1  0  0  0  0
 31 32  1  0  0  0  0
 33 32  1  0  0  0  0
M  END
>  <minimizedAffinity>
-5.32603073

$$$$

 OpenBabel03242515063D

 33 35  0  0  0  0  0  0  0  0999 V2000
   38.5430   27.5660   42.6280 C   0  0  0  0  0  0  0  0  0  0  0  0
   38.8450   27.5060   41.5490 H   0  0  0  0  0  0  0  0  0  0  0  0
   39.4760   27.3660   43.2110 H   0  0  0  0  0  0  0  0  0  0  0  0
   37.5710   26.4600   42.8710 C   0  0  0  0  0  0  0  0  0  0  0  0
   36.5460   26.8850   42.8520 H   0  0  0  0  0  0  0  0  0  0  0  0
   37.6880   25.9710   43.8690 H   0  0  0  0  0  0  0  0  0  0  0  0
   39.6020   24.2090   43.1970 Cl  0  0  0  0  0  0  0  0  0  0  0  0
   38.5210   24.3750   41.8370 C   0  0  0  0  0  0  0  0  0  0  0  0
   37.6300   25.4480   41.7910 C   0  0  0  0  0  0  0  0  0  0  0  0
   36.8180   25.5040   40.6910 C   0  0  0  0  0  0  0  0  0  0  0  0
   36.7980   24.6050   39.6270 C   0  0  0  0  0  0  0  0  0  0  0  0
   37.6880   23.5590   39.7030 C   0  0  0  0  0  0  0  0  0  0  0  0
   37.7440   22.3620   38.4060 Cl  0  0  0  0  0  0  0  0  0  0  0  0
   38.5340   23.4560   40.7970 C   0  0  0  0  0  0  0  0  0  0  0  0
   36.1080   26.3230   40.6130 H   0  0  0  0  0  0  0  0  0  0  0  0
   36.1110   24.7430   38.8010 H   0  0  0  0  0  0  0  0  0  0  0  0
   39.2450   22.6390   40.8780 H   0  0  0  0  0  0  0  0  0  0  0  0
   37.8890   29.1960   42.9640 S   0  0  0  0  0  0  0  0  0  0  0  0
   37.4220   30.0860   41.4810 C   0  0  0  0  0  0  0  0  0  0  0  0
   36.5890   29.4090   40.5820 C   0  0  0  0  0  0  0  0  0  0  0  0
   36.2050   30.0690   39.4170 C   0  0  0  0  0  0  0  0  0  0  0  0
   36.6580   31.3260   39.2220 N   0  0  0  0  0  0  0  0  0  0  0  0
   37.4600   31.9650   40.0960 C   0  0  0  0  0  0  0  0  0  0  0  0
   37.8300   31.3350   41.2140 N   0  0  0  0  0  0  0  0  0  0  0  0
   36.2460   28.4000   40.7730 H   0  0  0  0  0  0  0  0  0  0  0  0
   37.8750   33.3090   39.7700 C   0  0  0  0  0  0  0  0  0  0  0  0
   39.0550   33.6430   40.0650 O   0  0  0  0  0  0  0  0  0  0  0  0
   36.9010   34.1640   39.1290 N   0  0  0  0  0  0  0  0  0  0  0  0
   37.3120   34.7800   38.3980 H   0  0  0  0  0  0  0  0  0  0  0  0
   35.9010   34.0860   39.4510 H   0  0  0  0  0  0  0  0  0  0  0  0
   35.3230   29.3760   38.4460 C   0  0  0  0  0  3  0  0  0  0  0  0
   36.0950   28.7680   37.2860 C   0  0  0  0  0  2  0  0  0  0  0  0
   35.3460   27.9160   38.2680 C   0  0  0  0  0  2  0  0  0  0  0  0
  1  4  1  0  0  0  0
  1 18  1  0  0  0  0
  1  3  1  0  0  0  0
  2  1  1  0  0  0  0
  4  6  1  0  0  0  0
  5  4  1  0  0  0  0
  8  7  1  0  0  0  0
  9  8  1  0  0  0  0
  9  4  1  0  0  0  0
 10  9  2  0  0  0  0
 11 12  2  0  0  0  0
 11 10  1  0  0  0  0
 12 14  1  0  0  0  0
 13 12  1  0  0  0  0
 14 17  1  0  0  0  0
 14  8  2  0  0  0  0
 15 10  1  0  0  0  0
 16 11  1  0  0  0  0
 19 18  1  0  0  0  0
 20 25  1  0  0  0  0
 20 19  2  0  0  0  0
 21 20  1  0  0  0  0
 22 21  2  0  0  0  0
 22 23  1  0  0  0  0
 23 24  2  0  0  0  0
 24 19  1  0  0  0  0
 26 27  2  0  0  0  0
 26 23  1  0  0  0  0
 28 30  1  0  0  0  0
 28 26  1  0  0  0  0
 29 28  1  0  0  0  0
 31 21  1  0  0  0  0
 32 33  1  0  0  0  0
 32 31  1  0  0  0  0
 33 31  1  0  0  0  0
M  END
>  <minimizedAffinity>
-5.26161814

$$$$
