
 OpenBabel03242516543D

 39 42  0  0  1  0  0  0  0  0999 V2000
   36.6180   30.6630   39.1340 C   0  0  1  0  0  0  0  0  0  0  0  0
   36.7710   29.7670   37.9890 C   0  0  0  0  0  0  0  0  0  0  0  0
   35.3590   29.4140   37.5290 C   0  0  0  0  0  0  0  0  0  0  0  0
   34.7630   28.5230   38.6060 C   0  0  0  0  0  0  0  0  0  0  0  0
   34.8030   29.1180   39.9850 C   0  0  0  0  0  0  0  0  0  0  0  0
   35.9480   29.9640   40.3240 C   0  0  1  0  0  0  0  0  0  0  0  0
   35.8530   31.4540   38.8670 H   0  0  0  0  0  0  0  0  0  0  0  0
   37.3330   28.8380   38.1830 H   0  0  0  0  0  0  0  0  0  0  0  0
   37.3330   30.2930   37.1880 H   0  0  0  0  0  0  0  0  0  0  0  0
   34.7730   30.3430   37.4340 H   0  0  0  0  0  0  0  0  0  0  0  0
   35.3910   28.7930   36.6130 H   0  0  0  0  0  0  0  0  0  0  0  0
   33.7190   28.2490   38.3640 H   0  0  0  0  0  0  0  0  0  0  0  0
   35.3310   27.5780   38.6220 H   0  0  0  0  0  0  0  0  0  0  0  0
   33.8270   29.6470   40.1330 H   0  0  0  0  0  0  0  0  0  0  0  0
   34.7780   28.2580   40.7040 H   0  0  0  0  0  0  0  0  0  0  0  0
   35.5820   30.8180   40.9710 H   0  0  0  0  0  0  0  0  0  0  0  0
   38.7670   33.3450   40.7060 C   0  0  0  0  0  0  0  0  0  0  0  0
   37.6780   32.5940   40.2410 C   0  0  0  0  0  0  0  0  0  0  0  0
   37.8000   31.3660   39.5860 C   0  0  0  0  0  0  0  0  0  0  0  0
   39.0450   30.9230   39.4150 N   0  0  0  0  0  0  0  0  0  0  0  0
   40.1130   31.6360   39.8600 C   0  0  0  0  0  0  0  0  0  0  0  0
   39.9960   32.8080   40.4840 N   0  0  0  0  0  0  0  0  0  0  0  0
   38.5080   34.2790   41.1940 H   0  0  0  0  0  0  0  0  0  0  0  0
   36.6600   32.9740   40.3880 H   0  0  0  0  0  0  0  0  0  0  0  0
   41.1360   31.3300   39.7500 H   0  0  0  0  0  0  0  0  0  0  0  0
   36.9330   29.2790   41.1660 C   0  0  0  0  0  0  0  0  0  0  0  0
   37.4710   29.7500   42.3670 C   0  0  0  0  0  0  0  0  0  0  0  0
   38.3890   28.9150   43.0070 C   0  0  0  0  0  0  0  0  0  0  0  0
   38.6830   27.7140   42.4130 C   0  0  0  0  0  0  0  0  0  0  0  0
   38.1460   27.2570   41.2240 C   0  0  0  0  0  0  0  0  0  0  0  0
   37.2520   28.0860   40.6110 N   0  0  0  0  0  0  0  0  0  0  0  0
   37.1390   30.7000   42.6910 H   0  0  0  0  0  0  0  0  0  0  0  0
   38.8080   29.2630   43.9300 H   0  0  0  0  0  0  0  0  0  0  0  0
   39.4000   27.0840   42.9340 H   0  0  0  0  0  0  0  0  0  0  0  0
   38.5150   25.9510   40.6620 C   0  0  0  0  0  0  0  0  0  0  0  0
   39.2100   25.9510   39.6060 O   0  0  0  0  0  0  0  0  0  0  0  0
   38.0730   24.6940   41.3270 C   0  0  0  0  0  3  0  0  0  0  0  0
   36.7540   24.1490   40.7510 C   0  0  0  0  0  2  0  0  0  0  0  0
   36.8070   24.6710   42.1290 C   0  0  0  0  0  2  0  0  0  0  0  0
  1  7  1  6  0  0  0
  1 19  1  0  0  0  0
  1  6  1  0  0  0  0
  2  8  1  0  0  0  0
  2  1  1  0  0  0  0
  3  2  1  0  0  0  0
  3  4  1  0  0  0  0
  4 13  1  0  0  0  0
  4  5  1  0  0  0  0
  5 14  1  0  0  0  0
  5  6  1  0  0  0  0
  5 15  1  0  0  0  0
  6 16  1  1  0  0  0
  6 26  1  0  0  0  0
  9  2  1  0  0  0  0
 10  3  1  0  0  0  0
 11  3  1  0  0  0  0
 12  4  1  0  0  0  0
 17 23  1  0  0  0  0
 18 24  1  0  0  0  0
 18 17  2  0  0  0  0
 19 18  1  0  0  0  0
 20 19  2  0  0  0  0
 20 21  1  0  0  0  0
 21 22  2  0  0  0  0
 22 17  1  0  0  0  0
 25 21  1  0  0  0  0
 26 27  1  0  0  0  0
 27 32  1  0  0  0  0
 27 28  2  0  0  0  0
 28 33  1  0  0  0  0
 29 34  1  0  0  0  0
 29 28  1  0  0  0  0
 30 29  2  0  0  0  0
 31 26  2  0  0  0  0
 31 30  1  0  0  0  0
 35 30  1  0  0  0  0
 35 37  1  0  0  0  0
 36 35  2  0  0  0  0
 37 39  1  0  0  0  0
 38 37  1  0  0  0  0
 38 39  1  0  0  0  0
M  END
>  <minimizedAffinity>
-5.90712643

$$$$

 OpenBabel03242516543D

 39 42  0  0  1  0  0  0  0  0999 V2000
   36.6970   30.3450   39.2430 C   0  0  1  0  0  0  0  0  0  0  0  0
   36.7920   29.4060   38.1270 C   0  0  0  0  0  0  0  0  0  0  0  0
   35.3940   29.3140   37.5230 C   0  0  0  0  0  0  0  0  0  0  0  0
   34.5300   28.5820   38.5370 C   0  0  0  0  0  0  0  0  0  0  0  0
   34.5420   29.1960   39.9090 C   0  0  0  0  0  0  0  0  0  0  0  0
   35.7860   29.8190   40.3600 C   0  0  1  0  0  0  0  0  0  0  0  0
   36.1280   31.2600   38.8910 H   0  0  0  0  0  0  0  0  0  0  0  0
   37.1430   28.3930   38.3870 H   0  0  0  0  0  0  0  0  0  0  0  0
   37.5230   29.7940   37.3870 H   0  0  0  0  0  0  0  0  0  0  0  0
   35.0090   30.3350   37.3590 H   0  0  0  0  0  0  0  0  0  0  0  0
   35.4000   28.6740   36.6200 H   0  0  0  0  0  0  0  0  0  0  0  0
   33.4840   28.5050   38.1880 H   0  0  0  0  0  0  0  0  0  0  0  0
   34.9020   27.5470   38.6200 H   0  0  0  0  0  0  0  0  0  0  0  0
   33.6750   29.9050   39.9480 H   0  0  0  0  0  0  0  0  0  0  0  0
   34.2790   28.3770   40.6270 H   0  0  0  0  0  0  0  0  0  0  0  0
   35.5260   30.7440   40.9590 H   0  0  0  0  0  0  0  0  0  0  0  0
   39.1410   32.6050   41.0330 C   0  0  0  0  0  0  0  0  0  0  0  0
   37.9830   32.0620   40.4590 C   0  0  0  0  0  0  0  0  0  0  0  0
   37.9390   30.8240   39.8130 C   0  0  0  0  0  0  0  0  0  0  0  0
   39.0900   30.1550   39.7640 N   0  0  0  0  0  0  0  0  0  0  0  0
   40.2240   30.6650   40.3150 C   0  0  0  0  0  0  0  0  0  0  0  0
   40.2660   31.8460   40.9300 N   0  0  0  0  0  0  0  0  0  0  0  0
   39.0130   33.5770   41.4970 H   0  0  0  0  0  0  0  0  0  0  0  0
   37.0440   32.6250   40.5070 H   0  0  0  0  0  0  0  0  0  0  0  0
   41.1780   30.1730   40.3060 H   0  0  0  0  0  0  0  0  0  0  0  0
   36.5300   28.9830   41.3080 C   0  0  0  0  0  0  0  0  0  0  0  0
   37.1540   29.4110   42.4830 C   0  0  0  0  0  0  0  0  0  0  0  0
   37.7960   28.4290   43.2400 C   0  0  0  0  0  0  0  0  0  0  0  0
   37.7610   27.1390   42.7740 C   0  0  0  0  0  0  0  0  0  0  0  0
   37.1410   26.7260   41.6100 C   0  0  0  0  0  0  0  0  0  0  0  0
   36.5190   27.6980   40.8820 N   0  0  0  0  0  0  0  0  0  0  0  0
   37.0890   30.4430   42.7010 H   0  0  0  0  0  0  0  0  0  0  0  0
   38.2780   28.7440   44.1430 H   0  0  0  0  0  0  0  0  0  0  0  0
   38.2680   26.3950   43.3840 H   0  0  0  0  0  0  0  0  0  0  0  0
   37.1480   25.3180   41.1900 C   0  0  0  0  0  0  0  0  0  0  0  0
   36.9810   24.4440   42.0890 O   0  0  0  0  0  0  0  0  0  0  0  0
   37.3450   24.9620   39.7570 C   0  0  0  0  0  3  0  0  0  0  0  0
   36.0170   24.7110   39.0190 C   0  0  0  0  0  2  0  0  0  0  0  0
   36.9590   23.6020   39.2600 C   0  0  0  0  0  2  0  0  0  0  0  0
  1  7  1  6  0  0  0
  1 19  1  0  0  0  0
  1  6  1  0  0  0  0
  2  8  1  0  0  0  0
  2  1  1  0  0  0  0
  3  2  1  0  0  0  0
  3  4  1  0  0  0  0
  4 13  1  0  0  0  0
  4  5  1  0  0  0  0
  5 14  1  0  0  0  0
  5  6  1  0  0  0  0
  5 15  1  0  0  0  0
  6 16  1  1  0  0  0
  6 26  1  0  0  0  0
  9  2  1  0  0  0  0
 10  3  1  0  0  0  0
 11  3  1  0  0  0  0
 12  4  1  0  0  0  0
 17 23  1  0  0  0  0
 18 24  1  0  0  0  0
 18 17  2  0  0  0  0
 19 18  1  0  0  0  0
 20 19  2  0  0  0  0
 20 21  1  0  0  0  0
 21 22  2  0  0  0  0
 22 17  1  0  0  0  0
 25 21  1  0  0  0  0
 26 27  1  0  0  0  0
 27 32  1  0  0  0  0
 27 28  2  0  0  0  0
 28 33  1  0  0  0  0
 29 28  1  0  0  0  0
 29 34  1  0  0  0  0
 30 29  2  0  0  0  0
 31 26  2  0  0  0  0
 31 30  1  0  0  0  0
 35 30  1  0  0  0  0
 35 36  2  0  0  0  0
 37 35  1  0  0  0  0
 38 39  1  0  0  0  0
 38 37  1  0  0  0  0
 39 37  1  0  0  0  0
M  END
>  <minimizedAffinity>
-5.64102888

$$$$

 OpenBabel03242516543D

 39 42  0  0  1  0  0  0  0  0999 V2000
   38.9220   24.8590   40.8180 C   0  0  1  0  0  0  0  0  0  0  0  0
   38.3270   23.7250   41.5220 C   0  0  0  0  0  0  0  0  0  0  0  0
   37.4530   22.9990   40.5040 C   0  0  0  0  0  0  0  0  0  0  0  0
   36.2680   23.9090   40.2220 C   0  0  0  0  0  0  0  0  0  0  0  0
   36.6510   25.2960   39.7890 C   0  0  0  0  0  0  0  0  0  0  0  0
   37.8640   25.8750   40.3680 C   0  0  1  0  0  0  0  0  0  0  0  0
   39.3270   24.4900   39.8260 H   0  0  0  0  0  0  0  0  0  0  0  0
   37.7200   23.9790   42.4070 H   0  0  0  0  0  0  0  0  0  0  0  0
   39.1370   23.0640   41.8970 H   0  0  0  0  0  0  0  0  0  0  0  0
   38.0380   22.8370   39.5830 H   0  0  0  0  0  0  0  0  0  0  0  0
   37.0230   22.0780   40.9440 H   0  0  0  0  0  0  0  0  0  0  0  0
   35.5990   23.4670   39.4600 H   0  0  0  0  0  0  0  0  0  0  0  0
   35.6710   23.9880   41.1460 H   0  0  0  0  0  0  0  0  0  0  0  0
   36.6800   25.2840   38.6690 H   0  0  0  0  0  0  0  0  0  0  0  0
   35.7870   25.9600   40.0490 H   0  0  0  0  0  0  0  0  0  0  0  0
   38.3880   26.4790   39.5680 H   0  0  0  0  0  0  0  0  0  0  0  0
   41.3730   25.8600   43.5160 C   0  0  0  0  0  0  0  0  0  0  0  0
   40.3410   25.2380   42.7990 C   0  0  0  0  0  0  0  0  0  0  0  0
   40.0100   25.5510   41.4780 C   0  0  0  0  0  0  0  0  0  0  0  0
   40.7470   26.5030   40.9070 N   0  0  0  0  0  0  0  0  0  0  0  0
   41.7520   27.1170   41.5860 C   0  0  0  0  0  0  0  0  0  0  0  0
   42.0660   26.8190   42.8450 N   0  0  0  0  0  0  0  0  0  0  0  0
   41.5050   25.5060   44.5330 H   0  0  0  0  0  0  0  0  0  0  0  0
   39.7430   24.4570   43.2840 H   0  0  0  0  0  0  0  0  0  0  0  0
   42.3760   27.8890   41.1780 H   0  0  0  0  0  0  0  0  0  0  0  0
   37.5800   26.8540   41.4220 C   0  0  0  0  0  0  0  0  0  0  0  0
   37.1090   26.5780   42.7090 C   0  0  0  0  0  0  0  0  0  0  0  0
   36.9230   27.6750   43.5510 C   0  0  0  0  0  0  0  0  0  0  0  0
   37.2140   28.9200   43.0530 C   0  0  0  0  0  0  0  0  0  0  0  0
   37.6780   29.1830   41.7790 C   0  0  0  0  0  0  0  0  0  0  0  0
   37.8540   28.1000   40.9680 N   0  0  0  0  0  0  0  0  0  0  0  0
   36.9330   25.5610   42.9370 H   0  0  0  0  0  0  0  0  0  0  0  0
   36.5630   27.4780   44.5410 H   0  0  0  0  0  0  0  0  0  0  0  0
   37.0600   29.7560   43.7320 H   0  0  0  0  0  0  0  0  0  0  0  0
   37.9710   30.5510   41.3300 C   0  0  0  0  0  0  0  0  0  0  0  0
   39.1420   30.9860   41.5250 O   0  0  0  0  0  0  0  0  0  0  0  0
   36.9130   31.3710   40.6770 C   0  0  0  0  0  3  0  0  0  0  0  0
   36.9600   31.2860   39.1410 C   0  0  0  0  0  2  0  0  0  0  0  0
   37.2890   32.5480   39.8290 C   0  0  0  0  0  2  0  0  0  0  0  0
  1  7  1  6  0  0  0
  1 19  1  0  0  0  0
  1  2  1  0  0  0  0
  2  9  1  0  0  0  0
  2  8  1  0  0  0  0
  3 11  1  0  0  0  0
  3  2  1  0  0  0  0
  4  3  1  0  0  0  0
  4 13  1  0  0  0  0
  5 15  1  0  0  0  0
  5  4  1  0  0  0  0
  5  6  1  0  0  0  0
  6 16  1  6  0  0  0
  6  1  1  0  0  0  0
  6 26  1  0  0  0  0
 10  3  1  0  0  0  0
 12  4  1  0  0  0  0
 14  5  1  0  0  0  0
 17 23  1  0  0  0  0
 18 24  1  0  0  0  0
 18 17  2  0  0  0  0
 19 18  1  0  0  0  0
 20 19  2  0  0  0  0
 20 21  1  0  0  0  0
 21 22  2  0  0  0  0
 22 17  1  0  0  0  0
 25 21  1  0  0  0  0
 26 27  1  0  0  0  0
 27 32  1  0  0  0  0
 27 28  2  0  0  0  0
 28 33  1  0  0  0  0
 29 28  1  0  0  0  0
 29 34  1  0  0  0  0
 30 29  2  0  0  0  0
 31 26  2  0  0  0  0
 31 30  1  0  0  0  0
 35 36  2  0  0  0  0
 35 30  1  0  0  0  0
 37 35  1  0  0  0  0
 38 39  1  0  0  0  0
 38 37  1  0  0  0  0
 39 37  1  0  0  0  0
M  END
>  <minimizedAffinity>
-5.63977575

$$$$

 OpenBabel03242516543D

 39 42  0  0  1  0  0  0  0  0999 V2000
   37.7320   31.4850   39.4310 C   0  0  1  0  0  0  0  0  0  0  0  0
   37.4710   32.6790   40.2320 C   0  0  0  0  0  0  0  0  0  0  0  0
   38.6110   33.6500   39.9390 C   0  0  0  0  0  0  0  0  0  0  0  0
   39.8590   33.0580   40.5740 C   0  0  0  0  0  0  0  0  0  0  0  0
   40.1560   31.6500   40.1410 C   0  0  0  0  0  0  0  0  0  0  0  0
   39.0180   30.7710   39.8670 C   0  0  1  0  0  0  0  0  0  0  0  0
   37.9940   31.8130   38.3780 H   0  0  0  0  0  0  0  0  0  0  0  0
   37.4020   32.5170   41.3200 H   0  0  0  0  0  0  0  0  0  0  0  0
   36.4920   33.1100   39.9330 H   0  0  0  0  0  0  0  0  0  0  0  0
   38.7390   33.7310   38.8470 H   0  0  0  0  0  0  0  0  0  0  0  0
   38.4440   34.6150   40.4560 H   0  0  0  0  0  0  0  0  0  0  0  0
   40.7450   33.6890   40.3750 H   0  0  0  0  0  0  0  0  0  0  0  0
   39.7200   33.0600   41.6680 H   0  0  0  0  0  0  0  0  0  0  0  0
   40.8530   31.7250   39.2670 H   0  0  0  0  0  0  0  0  0  0  0  0
   40.7670   31.1880   40.9590 H   0  0  0  0  0  0  0  0  0  0  0  0
   39.2790   30.1140   38.9830 H   0  0  0  0  0  0  0  0  0  0  0  0
   35.4610   28.8760   37.9080 C   0  0  0  0  0  0  0  0  0  0  0  0
   36.4760   29.8210   38.1150 C   0  0  0  0  0  0  0  0  0  0  0  0
   36.6590   30.5210   39.3100 C   0  0  0  0  0  0  0  0  0  0  0  0
   35.7920   30.2410   40.2830 N   0  0  0  0  0  0  0  0  0  0  0  0
   34.8020   29.3280   40.1010 C   0  0  0  0  0  0  0  0  0  0  0  0
   34.6280   28.6610   38.9610 N   0  0  0  0  0  0  0  0  0  0  0  0
   35.4510   28.4180   36.9250 H   0  0  0  0  0  0  0  0  0  0  0  0
   37.1800   30.0410   37.3030 H   0  0  0  0  0  0  0  0  0  0  0  0
   34.0770   29.0630   40.8470 H   0  0  0  0  0  0  0  0  0  0  0  0
   38.7610   29.8190   40.9520 C   0  0  0  0  0  0  0  0  0  0  0  0
   38.5930   30.1270   42.3060 C   0  0  0  0  0  0  0  0  0  0  0  0
   38.3430   29.0520   43.1610 C   0  0  0  0  0  0  0  0  0  0  0  0
   38.2820   27.7980   42.6090 C   0  0  0  0  0  0  0  0  0  0  0  0
   38.4490   27.5040   41.2700 C   0  0  0  0  0  0  0  0  0  0  0  0
   38.6940   28.5650   40.4480 N   0  0  0  0  0  0  0  0  0  0  0  0
   38.6710   31.1470   42.5690 H   0  0  0  0  0  0  0  0  0  0  0  0
   38.2120   29.2740   44.2010 H   0  0  0  0  0  0  0  0  0  0  0  0
   38.0850   26.9800   43.2990 H   0  0  0  0  0  0  0  0  0  0  0  0
   38.3600   26.1270   40.7640 C   0  0  0  0  0  0  0  0  0  0  0  0
   39.4240   25.5990   40.3320 O   0  0  0  0  0  0  0  0  0  0  0  0
   37.0560   25.4070   40.7690 C   0  0  0  0  0  3  0  0  0  0  0  0
   36.8820   24.5050   42.0050 C   0  0  0  0  0  2  0  0  0  0  0  0
   37.0220   23.9120   40.6620 C   0  0  0  0  0  2  0  0  0  0  0  0
  1  7  1  6  0  0  0
  1  6  1  0  0  0  0
  1  2  1  0  0  0  0
  2  8  1  0  0  0  0
  3  2  1  0  0  0  0
  3 11  1  0  0  0  0
  3  4  1  0  0  0  0
  4 13  1  0  0  0  0
  5  4  1  0  0  0  0
  5 15  1  0  0  0  0
  6 16  1  6  0  0  0
  6  5  1  0  0  0  0
  6 26  1  0  0  0  0
  9  2  1  0  0  0  0
 10  3  1  0  0  0  0
 12  4  1  0  0  0  0
 14  5  1  0  0  0  0
 17 18  2  0  0  0  0
 17 22  1  0  0  0  0
 18 19  1  0  0  0  0
 19  1  1  0  0  0  0
 19 20  2  0  0  0  0
 21 20  1  0  0  0  0
 21 25  1  0  0  0  0
 22 21  2  0  0  0  0
 23 17  1  0  0  0  0
 24 18  1  0  0  0  0
 26 27  1  0  0  0  0
 27 32  1  0  0  0  0
 27 28  2  0  0  0  0
 28 33  1  0  0  0  0
 29 28  1  0  0  0  0
 29 34  1  0  0  0  0
 30 29  2  0  0  0  0
 31 26  2  0  0  0  0
 31 30  1  0  0  0  0
 35 37  1  0  0  0  0
 35 30  1  0  0  0  0
 36 35  2  0  0  0  0
 37 38  1  0  0  0  0
 39 37  1  0  0  0  0
 39 38  1  0  0  0  0
M  END
>  <minimizedAffinity>
-5.51384497

$$$$

 OpenBabel03242516543D

 39 42  0  0  1  0  0  0  0  0999 V2000
   37.3440   30.3750   38.6390 C   0  0  1  0  0  0  0  0  0  0  0  0
   36.9490   28.9700   38.5570 C   0  0  0  0  0  0  0  0  0  0  0  0
   35.4420   28.9340   38.7960 C   0  0  0  0  0  0  0  0  0  0  0  0
   35.2270   29.2830   40.2600 C   0  0  0  0  0  0  0  0  0  0  0  0
   35.8610   30.5790   40.6790 C   0  0  0  0  0  0  0  0  0  0  0  0
   37.1250   30.9520   40.0430 C   0  0  1  0  0  0  0  0  0  0  0  0
   36.6180   30.9860   38.0200 H   0  0  0  0  0  0  0  0  0  0  0  0
   37.4460   28.2930   39.2710 H   0  0  0  0  0  0  0  0  0  0  0  0
   37.2030   28.5790   37.5490 H   0  0  0  0  0  0  0  0  0  0  0  0
   34.9600   29.6860   38.1490 H   0  0  0  0  0  0  0  0  0  0  0  0
   35.0520   27.9050   38.6750 H   0  0  0  0  0  0  0  0  0  0  0  0
   34.1500   29.3140   40.5080 H   0  0  0  0  0  0  0  0  0  0  0  0
   35.6590   28.4740   40.8720 H   0  0  0  0  0  0  0  0  0  0  0  0
   35.0770   31.3710   40.5600 H   0  0  0  0  0  0  0  0  0  0  0  0
   36.0320   30.5070   41.7850 H   0  0  0  0  0  0  0  0  0  0  0  0
   37.1270   32.0720   39.8810 H   0  0  0  0  0  0  0  0  0  0  0  0
   40.9620   29.9670   37.6270 C   0  0  0  0  0  0  0  0  0  0  0  0
   39.6520   29.7260   38.0610 C   0  0  0  0  0  0  0  0  0  0  0  0
   38.6720   30.7160   38.1750 C   0  0  0  0  0  0  0  0  0  0  0  0
   39.0540   31.9480   37.8400 N   0  0  0  0  0  0  0  0  0  0  0  0
   40.3210   32.2010   37.4160 C   0  0  0  0  0  0  0  0  0  0  0  0
   41.2540   31.2570   37.3090 N   0  0  0  0  0  0  0  0  0  0  0  0
   41.6050   29.0940   37.5940 H   0  0  0  0  0  0  0  0  0  0  0  0
   39.3540   28.7070   38.3340 H   0  0  0  0  0  0  0  0  0  0  0  0
   40.6830   33.1720   37.1340 H   0  0  0  0  0  0  0  0  0  0  0  0
   38.2870   30.7170   40.9060 C   0  0  0  0  0  0  0  0  0  0  0  0
   39.2520   31.6580   41.2750 C   0  0  0  0  0  0  0  0  0  0  0  0
   40.2680   31.2080   42.1210 C   0  0  0  0  0  0  0  0  0  0  0  0
   40.2340   29.8950   42.5170 C   0  0  0  0  0  0  0  0  0  0  0  0
   39.2750   28.9720   42.1460 C   0  0  0  0  0  0  0  0  0  0  0  0
   38.2910   29.4280   41.3190 N   0  0  0  0  0  0  0  0  0  0  0  0
   39.1340   32.6320   40.8820 H   0  0  0  0  0  0  0  0  0  0  0  0
   41.0140   31.9200   42.4120 H   0  0  0  0  0  0  0  0  0  0  0  0
   41.0380   29.5730   43.1760 H   0  0  0  0  0  0  0  0  0  0  0  0
   39.3150   27.5830   42.6250 C   0  0  0  0  0  0  0  0  0  0  0  0
   40.2490   26.8490   42.1950 O   0  0  0  0  0  0  0  0  0  0  0  0
   38.2820   27.0870   43.5770 C   0  0  0  0  0  3  0  0  0  0  0  0
   37.0290   26.5470   42.8650 C   0  0  0  0  0  2  0  0  0  0  0  0
   36.9560   27.7760   43.6750 C   0  0  0  0  0  2  0  0  0  0  0  0
  1  7  1  6  0  0  0
  1  6  1  0  0  0  0
  2  1  1  0  0  0  0
  2  3  1  0  0  0  0
  2  8  1  0  0  0  0
  3  4  1  0  0  0  0
  4 12  1  0  0  0  0
  4  5  1  0  0  0  0
  4 13  1  0  0  0  0
  5 15  1  0  0  0  0
  6 16  1  6  0  0  0
  6  5  1  0  0  0  0
  6 26  1  0  0  0  0
  9  2  1  0  0  0  0
 10  3  1  0  0  0  0
 11  3  1  0  0  0  0
 14  5  1  0  0  0  0
 17 18  1  0  0  0  0
 18 19  2  0  0  0  0
 18 24  1  0  0  0  0
 19  1  1  0  0  0  0
 20 19  1  0  0  0  0
 21 20  2  0  0  0  0
 22 21  1  0  0  0  0
 22 17  2  0  0  0  0
 23 17  1  0  0  0  0
 25 21  1  0  0  0  0
 26 27  2  0  0  0  0
 26 31  1  0  0  0  0
 27 28  1  0  0  0  0
 28 33  1  0  0  0  0
 28 29  2  0  0  0  0
 29 34  1  0  0  0  0
 30 29  1  0  0  0  0
 30 35  1  0  0  0  0
 31 30  2  0  0  0  0
 32 27  1  0  0  0  0
 35 37  1  0  0  0  0
 36 35  2  0  0  0  0
 37 39  1  0  0  0  0
 38 37  1  0  0  0  0
 38 39  1  0  0  0  0
M  END
>  <minimizedAffinity>
-5.49106598

$$$$

 OpenBabel03242516543D

 39 42  0  0  1  0  0  0  0  0999 V2000
   36.2050   30.0420   38.0450 C   0  0  1  0  0  0  0  0  0  0  0  0
   36.6280   29.1950   36.9310 C   0  0  0  0  0  0  0  0  0  0  0  0
   35.3930   28.9860   36.0580 C   0  0  0  0  0  0  0  0  0  0  0  0
   34.4490   28.0960   36.8490 C   0  0  0  0  0  0  0  0  0  0  0  0
   34.1220   28.6150   38.2210 C   0  0  0  0  0  0  0  0  0  0  0  0
   35.1700   29.3430   38.9360 C   0  0  1  0  0  0  0  0  0  0  0  0
   35.6050   30.9070   37.6270 H   0  0  0  0  0  0  0  0  0  0  0  0
   37.0450   28.2140   37.2100 H   0  0  0  0  0  0  0  0  0  0  0  0
   37.4330   29.7120   36.3670 H   0  0  0  0  0  0  0  0  0  0  0  0
   34.9230   29.9660   35.8660 H   0  0  0  0  0  0  0  0  0  0  0  0
   35.6510   28.4130   35.1470 H   0  0  0  0  0  0  0  0  0  0  0  0
   33.5060   27.9240   36.2960 H   0  0  0  0  0  0  0  0  0  0  0  0
   34.9240   27.1060   36.9590 H   0  0  0  0  0  0  0  0  0  0  0  0
   33.1820   29.2160   38.1180 H   0  0  0  0  0  0  0  0  0  0  0  0
   33.8300   27.7250   38.8360 H   0  0  0  0  0  0  0  0  0  0  0  0
   34.6870   30.1910   39.5110 H   0  0  0  0  0  0  0  0  0  0  0  0
   37.9530   32.4240   40.4010 C   0  0  0  0  0  0  0  0  0  0  0  0
   37.0040   31.7940   39.5850 C   0  0  0  0  0  0  0  0  0  0  0  0
   37.2460   30.6190   38.8700 C   0  0  0  0  0  0  0  0  0  0  0  0
   38.4670   30.1020   39.0020 N   0  0  0  0  0  0  0  0  0  0  0  0
   39.4010   30.6990   39.7890 C   0  0  0  0  0  0  0  0  0  0  0  0
   39.1700   31.8200   40.4700 N   0  0  0  0  0  0  0  0  0  0  0  0
   37.6120   33.3310   40.8900 H   0  0  0  0  0  0  0  0  0  0  0  0
   36.0030   32.2330   39.4860 H   0  0  0  0  0  0  0  0  0  0  0  0
   40.3990   30.3290   39.9330 H   0  0  0  0  0  0  0  0  0  0  0  0
   35.8160   28.5350   39.9750 C   0  0  0  0  0  0  0  0  0  0  0  0
   36.0180   28.9020   41.3090 C   0  0  0  0  0  0  0  0  0  0  0  0
   36.6470   27.9600   42.1240 C   0  0  0  0  0  0  0  0  0  0  0  0
   37.0110   26.7650   41.5570 C   0  0  0  0  0  0  0  0  0  0  0  0
   36.8080   26.4120   40.2370 C   0  0  0  0  0  0  0  0  0  0  0  0
   36.1920   27.3440   39.4530 N   0  0  0  0  0  0  0  0  0  0  0  0
   35.6770   29.8630   41.5890 H   0  0  0  0  0  0  0  0  0  0  0  0
   36.8080   28.2290   43.1490 H   0  0  0  0  0  0  0  0  0  0  0  0
   37.4990   26.0510   42.2170 H   0  0  0  0  0  0  0  0  0  0  0  0
   37.2260   25.1030   39.7150 C   0  0  0  0  0  0  0  0  0  0  0  0
   37.6350   25.0610   38.5200 O   0  0  0  0  0  0  0  0  0  0  0  0
   37.1580   23.8920   40.5790 C   0  0  0  0  0  3  0  0  0  0  0  0
   38.5410   23.4560   41.0980 C   0  0  0  0  0  2  0  0  0  0  0  0
   37.8050   22.6150   40.1360 C   0  0  0  0  0  2  0  0  0  0  0  0
  1  7  1  6  0  0  0
  1 19  1  0  0  0  0
  1  6  1  0  0  0  0
  2  8  1  0  0  0  0
  2  1  1  0  0  0  0
  3  4  1  0  0  0  0
  3  2  1  0  0  0  0
  4 13  1  0  0  0  0
  4  5  1  0  0  0  0
  5 15  1  0  0  0  0
  5  6  1  0  0  0  0
  6 16  1  1  0  0  0
  6 26  1  0  0  0  0
  9  2  1  0  0  0  0
 10  3  1  0  0  0  0
 11  3  1  0  0  0  0
 12  4  1  0  0  0  0
 14  5  1  0  0  0  0
 17 22  1  0  0  0  0
 17 23  1  0  0  0  0
 18 17  2  0  0  0  0
 19 20  2  0  0  0  0
 19 18  1  0  0  0  0
 20 21  1  0  0  0  0
 21 25  1  0  0  0  0
 21 22  2  0  0  0  0
 24 18  1  0  0  0  0
 26 27  1  0  0  0  0
 27 32  1  0  0  0  0
 27 28  2  0  0  0  0
 28 33  1  0  0  0  0
 29 28  1  0  0  0  0
 29 34  1  0  0  0  0
 30 29  2  0  0  0  0
 31 26  2  0  0  0  0
 31 30  1  0  0  0  0
 35 30  1  0  0  0  0
 35 37  1  0  0  0  0
 36 35  2  0  0  0  0
 37 38  1  0  0  0  0
 39 37  1  0  0  0  0
 39 38  1  0  0  0  0
M  END
>  <minimizedAffinity>
-5.31269455

$$$$

 OpenBabel03242516543D

 39 42  0  0  1  0  0  0  0  0999 V2000
   36.1200   29.6720   37.5980 C   0  0  1  0  0  0  0  0  0  0  0  0
   35.9390   29.0080   36.3070 C   0  0  0  0  0  0  0  0  0  0  0  0
   34.4920   29.2630   35.8940 C   0  0  0  0  0  0  0  0  0  0  0  0
   33.6210   28.4530   36.8400 C   0  0  0  0  0  0  0  0  0  0  0  0
   33.8770   28.7290   38.2950 C   0  0  0  0  0  0  0  0  0  0  0  0
   35.2490   29.0440   38.6930 C   0  0  1  0  0  0  0  0  0  0  0  0
   35.6850   30.7150   37.5250 H   0  0  0  0  0  0  0  0  0  0  0  0
   36.1340   27.9230   36.2990 H   0  0  0  0  0  0  0  0  0  0  0  0
   36.6480   29.4440   35.5720 H   0  0  0  0  0  0  0  0  0  0  0  0
   34.2750   30.3390   36.0010 H   0  0  0  0  0  0  0  0  0  0  0  0
   34.2970   28.8520   34.8840 H   0  0  0  0  0  0  0  0  0  0  0  0
   32.5480   28.6110   36.6280 H   0  0  0  0  0  0  0  0  0  0  0  0
   33.8160   27.3830   36.6530 H   0  0  0  0  0  0  0  0  0  0  0  0
   33.1530   29.5290   38.5990 H   0  0  0  0  0  0  0  0  0  0  0  0
   33.5490   27.8150   38.8550 H   0  0  0  0  0  0  0  0  0  0  0  0
   35.2140   29.8350   39.5020 H   0  0  0  0  0  0  0  0  0  0  0  0
   39.0670   31.0250   39.5380 C   0  0  0  0  0  0  0  0  0  0  0  0
   37.7820   30.8070   39.0220 C   0  0  0  0  0  0  0  0  0  0  0  0
   37.4770   29.8200   38.0800 C   0  0  0  0  0  0  0  0  0  0  0  0
   38.5000   29.0670   37.6790 N   0  0  0  0  0  0  0  0  0  0  0  0
   39.7530   29.2630   38.1690 C   0  0  0  0  0  0  0  0  0  0  0  0
   40.0430   30.2040   39.0660 N   0  0  0  0  0  0  0  0  0  0  0  0
   39.1420   31.8300   40.2620 H   0  0  0  0  0  0  0  0  0  0  0  0
   36.9510   31.4360   39.3620 H   0  0  0  0  0  0  0  0  0  0  0  0
   40.6130   28.6890   37.8830 H   0  0  0  0  0  0  0  0  0  0  0  0
   35.9280   27.9130   39.3340 C   0  0  0  0  0  0  0  0  0  0  0  0
   36.3000   26.7120   38.7240 C   0  0  0  0  0  0  0  0  0  0  0  0
   36.9520   25.7790   39.5330 C   0  0  0  0  0  0  0  0  0  0  0  0
   37.1720   26.1150   40.8450 C   0  0  0  0  0  0  0  0  0  0  0  0
   36.8000   27.3050   41.4390 C   0  0  0  0  0  0  0  0  0  0  0  0
   36.1640   28.2050   40.6350 N   0  0  0  0  0  0  0  0  0  0  0  0
   36.0570   26.6090   37.7010 H   0  0  0  0  0  0  0  0  0  0  0  0
   37.2430   24.8540   39.0780 H   0  0  0  0  0  0  0  0  0  0  0  0
   37.6820   25.3690   41.4510 H   0  0  0  0  0  0  0  0  0  0  0  0
   37.0830   27.5840   42.8540 C   0  0  0  0  0  0  0  0  0  0  0  0
   36.1430   27.4000   43.6790 O   0  0  0  0  0  0  0  0  0  0  0  0
   38.4300   28.0630   43.2720 C   0  0  0  0  0  3  0  0  0  0  0  0
   38.6300   29.5680   43.0160 C   0  0  0  0  0  2  0  0  0  0  0  0
   39.3990   28.5710   42.2480 C   0  0  0  0  0  2  0  0  0  0  0  0
  1  7  1  6  0  0  0
  1 19  1  0  0  0  0
  1  6  1  0  0  0  0
  2  1  1  0  0  0  0
  3 10  1  0  0  0  0
  3  2  1  0  0  0  0
  3  4  1  0  0  0  0
  4  5  1  0  0  0  0
  5 14  1  0  0  0  0
  5  6  1  0  0  0  0
  5 15  1  0  0  0  0
  6 26  1  0  0  0  0
  6 16  1  1  0  0  0
  8  2  1  0  0  0  0
  9  2  1  0  0  0  0
 11  3  1  0  0  0  0
 12  4  1  0  0  0  0
 13  4  1  0  0  0  0
 17 23  1  0  0  0  0
 18 24  1  0  0  0  0
 18 17  2  0  0  0  0
 19 18  1  0  0  0  0
 20 19  2  0  0  0  0
 20 21  1  0  0  0  0
 21 22  2  0  0  0  0
 22 17  1  0  0  0  0
 25 21  1  0  0  0  0
 26 31  1  0  0  0  0
 27 26  2  0  0  0  0
 27 28  1  0  0  0  0
 28 29  2  0  0  0  0
 29 30  1  0  0  0  0
 29 34  1  0  0  0  0
 30 35  1  0  0  0  0
 31 30  2  0  0  0  0
 32 27  1  0  0  0  0
 33 28  1  0  0  0  0
 35 37  1  0  0  0  0
 35 36  2  0  0  0  0
 38 37  1  0  0  0  0
 39 38  1  0  0  0  0
 39 37  1  0  0  0  0
M  END
>  <minimizedAffinity>
-5.30886745

$$$$

 OpenBabel03242516543D

 39 42  0  0  1  0  0  0  0  0999 V2000
   36.5640   26.4770   39.9700 C   0  0  1  0  0  0  0  0  0  0  0  0
   37.2290   25.1840   39.8100 C   0  0  0  0  0  0  0  0  0  0  0  0
   36.7140   24.2950   40.9380 C   0  0  0  0  0  0  0  0  0  0  0  0
   37.3020   24.8450   42.2270 C   0  0  0  0  0  0  0  0  0  0  0  0
   37.0250   26.3050   42.4530 C   0  0  0  0  0  0  0  0  0  0  0  0
   36.9690   27.1720   41.2760 C   0  0  1  0  0  0  0  0  0  0  0  0
   35.4600   26.2900   40.1380 H   0  0  0  0  0  0  0  0  0  0  0  0
   38.3310   25.2090   39.8410 H   0  0  0  0  0  0  0  0  0  0  0  0
   36.9680   24.7620   38.8170 H   0  0  0  0  0  0  0  0  0  0  0  0
   35.6120   24.3540   40.9640 H   0  0  0  0  0  0  0  0  0  0  0  0
   37.1170   23.2680   40.8410 H   0  0  0  0  0  0  0  0  0  0  0  0
   36.9460   24.2730   43.1040 H   0  0  0  0  0  0  0  0  0  0  0  0
   38.3950   24.7030   42.1920 H   0  0  0  0  0  0  0  0  0  0  0  0
   36.0890   26.3600   43.0660 H   0  0  0  0  0  0  0  0  0  0  0  0
   37.8360   26.6820   43.1290 H   0  0  0  0  0  0  0  0  0  0  0  0
   36.1550   27.9420   41.4390 H   0  0  0  0  0  0  0  0  0  0  0  0
   35.6530   29.2740   37.5970 C   0  0  0  0  0  0  0  0  0  0  0  0
   35.6420   28.3370   38.6410 C   0  0  0  0  0  0  0  0  0  0  0  0
   36.6640   27.4120   38.8700 C   0  0  0  0  0  0  0  0  0  0  0  0
   37.6900   27.4610   38.0200 N   0  0  0  0  0  0  0  0  0  0  0  0
   37.7180   28.3620   37.0030 C   0  0  0  0  0  0  0  0  0  0  0  0
   36.7430   29.2430   36.7840 N   0  0  0  0  0  0  0  0  0  0  0  0
   34.7850   29.9230   37.5520 H   0  0  0  0  0  0  0  0  0  0  0  0
   34.7900   28.3100   39.3310 H   0  0  0  0  0  0  0  0  0  0  0  0
   38.5150   28.4470   36.2890 H   0  0  0  0  0  0  0  0  0  0  0  0
   38.1840   27.9740   41.1020 C   0  0  0  0  0  0  0  0  0  0  0  0
   39.4910   27.4900   40.9910 C   0  0  0  0  0  0  0  0  0  0  0  0
   40.4950   28.4430   40.8170 C   0  0  0  0  0  0  0  0  0  0  0  0
   40.1210   29.7630   40.7680 C   0  0  0  0  0  0  0  0  0  0  0  0
   38.8260   30.2320   40.8790 C   0  0  0  0  0  0  0  0  0  0  0  0
   37.8570   29.2870   41.0500 N   0  0  0  0  0  0  0  0  0  0  0  0
   39.6100   26.4410   41.0480 H   0  0  0  0  0  0  0  0  0  0  0  0
   41.5010   28.0860   40.7290 H   0  0  0  0  0  0  0  0  0  0  0  0
   40.9240   30.4830   40.6310 H   0  0  0  0  0  0  0  0  0  0  0  0
   38.5160   31.6660   40.8100 C   0  0  0  0  0  0  0  0  0  0  0  0
   39.3520   32.4650   41.3210 O   0  0  0  0  0  0  0  0  0  0  0  0
   37.2600   32.1330   40.1590 C   0  0  0  0  0  3  0  0  0  0  0  0
   37.4150   32.3240   38.6390 C   0  0  0  0  0  2  0  0  0  0  0  0
   37.2020   33.4870   39.5200 C   0  0  0  0  0  2  0  0  0  0  0  0
  1  7  1  1  0  0  0
  1  6  1  0  0  0  0
  2  8  1  0  0  0  0
  2  1  1  0  0  0  0
  2  3  1  0  0  0  0
  3 10  1  0  0  0  0
  3  4  1  0  0  0  0
  4  5  1  0  0  0  0
  4 12  1  0  0  0  0
  5 14  1  0  0  0  0
  5 15  1  0  0  0  0
  6 16  1  1  0  0  0
  6  5  1  0  0  0  0
  9  2  1  0  0  0  0
 11  3  1  0  0  0  0
 13  4  1  0  0  0  0
 17 18  1  0  0  0  0
 18 19  2  0  0  0  0
 18 24  1  0  0  0  0
 19  1  1  0  0  0  0
 20 19  1  0  0  0  0
 21 20  2  0  0  0  0
 22 21  1  0  0  0  0
 22 17  2  0  0  0  0
 23 17  1  0  0  0  0
 25 21  1  0  0  0  0
 26  6  1  0  0  0  0
 27 32  1  0  0  0  0
 27 26  2  0  0  0  0
 28 27  1  0  0  0  0
 29 28  2  0  0  0  0
 29 30  1  0  0  0  0
 30 31  2  0  0  0  0
 31 26  1  0  0  0  0
 33 28  1  0  0  0  0
 34 29  1  0  0  0  0
 35 30  1  0  0  0  0
 35 36  2  0  0  0  0
 37 35  1  0  0  0  0
 38 39  1  0  0  0  0
 38 37  1  0  0  0  0
 39 37  1  0  0  0  0
M  END
>  <minimizedAffinity>
-5.28486109

$$$$

 OpenBabel03242516543D

 39 42  0  0  1  0  0  0  0  0999 V2000
   35.8930   28.0510   40.3670 C   0  0  1  0  0  0  0  0  0  0  0  0
   35.1920   29.3260   40.2330 C   0  0  0  0  0  0  0  0  0  0  0  0
   34.0610   29.0910   39.2360 C   0  0  0  0  0  0  0  0  0  0  0  0
   34.7140   28.8960   37.8770 C   0  0  0  0  0  0  0  0  0  0  0  0
   35.7590   27.8160   37.8500 C   0  0  0  0  0  0  0  0  0  0  0  0
   36.5660   27.6260   39.0560 C   0  0  1  0  0  0  0  0  0  0  0  0
   35.1220   27.2330   40.5080 H   0  0  0  0  0  0  0  0  0  0  0  0
   35.8070   30.1750   39.8910 H   0  0  0  0  0  0  0  0  0  0  0  0
   34.7940   29.6280   41.2250 H   0  0  0  0  0  0  0  0  0  0  0  0
   33.5100   28.1820   39.5300 H   0  0  0  0  0  0  0  0  0  0  0  0
   33.4330   29.9980   39.1370 H   0  0  0  0  0  0  0  0  0  0  0  0
   33.9580   28.6830   37.0990 H   0  0  0  0  0  0  0  0  0  0  0  0
   35.1920   29.8460   37.5880 H   0  0  0  0  0  0  0  0  0  0  0  0
   35.2380   26.8760   37.5360 H   0  0  0  0  0  0  0  0  0  0  0  0
   36.4480   28.0620   37.0010 H   0  0  0  0  0  0  0  0  0  0  0  0
   36.7510   26.5170   39.1900 H   0  0  0  0  0  0  0  0  0  0  0  0
   38.1810   29.0340   43.2100 C   0  0  0  0  0  0  0  0  0  0  0  0
   37.2690   29.0620   42.1460 C   0  0  0  0  0  0  0  0  0  0  0  0
   36.8350   27.9250   41.4600 C   0  0  0  0  0  0  0  0  0  0  0  0
   37.3450   26.7670   41.8770 N   0  0  0  0  0  0  0  0  0  0  0  0
   38.2310   26.7200   42.9080 C   0  0  0  0  0  0  0  0  0  0  0  0
   38.6450   27.8050   43.5610 N   0  0  0  0  0  0  0  0  0  0  0  0
   38.4190   30.0020   43.6380 H   0  0  0  0  0  0  0  0  0  0  0  0
   36.8590   30.0230   41.8130 H   0  0  0  0  0  0  0  0  0  0  0  0
   38.6740   25.8190   43.2860 H   0  0  0  0  0  0  0  0  0  0  0  0
   37.9120   28.1960   38.9350 C   0  0  0  0  0  0  0  0  0  0  0  0
   39.1210   27.4980   39.0110 C   0  0  0  0  0  0  0  0  0  0  0  0
   40.2850   28.2520   38.8530 C   0  0  0  0  0  0  0  0  0  0  0  0
   40.1490   29.6000   38.6380 C   0  0  0  0  0  0  0  0  0  0  0  0
   38.9490   30.2810   38.5650 C   0  0  0  0  0  0  0  0  0  0  0  0
   37.8210   29.5300   38.7220 N   0  0  0  0  0  0  0  0  0  0  0  0
   39.0530   26.4570   39.1820 H   0  0  0  0  0  0  0  0  0  0  0  0
   41.2190   27.7300   38.9090 H   0  0  0  0  0  0  0  0  0  0  0  0
   41.0730   30.1620   38.5180 H   0  0  0  0  0  0  0  0  0  0  0  0
   38.8960   31.7300   38.3250 C   0  0  0  0  0  0  0  0  0  0  0  0
   39.8590   32.2470   37.6900 O   0  0  0  0  0  0  0  0  0  0  0  0
   37.7440   32.5330   38.8200 C   0  0  0  0  0  3  0  0  0  0  0  0
   38.1530   33.5560   39.8960 C   0  0  0  0  0  2  0  0  0  0  0  0
   37.2970   32.4070   40.2450 C   0  0  0  0  0  2  0  0  0  0  0  0
  1  7  1  1  0  0  0
  1 19  1  0  0  0  0
  2  1  1  0  0  0  0
  2  9  1  0  0  0  0
  3 10  1  0  0  0  0
  3  2  1  0  0  0  0
  4  3  1  0  0  0  0
  5  4  1  0  0  0  0
  5  6  1  0  0  0  0
  6 16  1  1  0  0  0
  6  1  1  0  0  0  0
  8  2  1  0  0  0  0
 11  3  1  0  0  0  0
 12  4  1  0  0  0  0
 13  4  1  0  0  0  0
 14  5  1  0  0  0  0
 15  5  1  0  0  0  0
 17 22  1  0  0  0  0
 17 23  1  0  0  0  0
 18 17  2  0  0  0  0
 19 20  2  0  0  0  0
 19 18  1  0  0  0  0
 20 21  1  0  0  0  0
 21 25  1  0  0  0  0
 21 22  2  0  0  0  0
 24 18  1  0  0  0  0
 26 27  1  0  0  0  0
 26  6  1  0  0  0  0
 27 32  1  0  0  0  0
 28 33  1  0  0  0  0
 28 27  2  0  0  0  0
 29 28  1  0  0  0  0
 30 29  2  0  0  0  0
 30 31  1  0  0  0  0
 31 26  2  0  0  0  0
 34 29  1  0  0  0  0
 35 30  1  0  0  0  0
 35 37  1  0  0  0  0
 36 35  2  0  0  0  0
 37 38  1  0  0  0  0
 37 39  1  0  0  0  0
 38 39  1  0  0  0  0
M  END
>  <minimizedAffinity>
-5.25464106

$$$$
