
 OpenBabel03242522503D

 20 22  0  0  1  0  0  0  0  0999 V2000
   45.1190   33.2650   47.5750 O   0  0  0  0  0  0  0  0  0  0  0  0
   46.9710   33.2480   44.4470 C   0  0  0  0  0  0  0  0  0  0  0  0
   46.5400   32.9120   45.7410 C   0  0  0  0  0  0  0  0  0  0  0  0
   45.5090   33.6230   46.3030 C   0  0  0  0  0  0  0  0  0  0  0  0
   44.9480   34.6270   45.5710 N   0  0  0  0  0  0  0  0  0  0  0  0
   45.3610   34.9450   44.3360 C   0  0  0  0  0  0  0  0  0  0  0  0
   46.3770   34.2530   43.7700 N   0  0  0  0  0  0  0  0  0  0  0  0
   47.7730   32.7460   43.9240 H   0  0  0  0  0  0  0  0  0  0  0  0
   47.1070   32.0980   46.1350 H   0  0  0  0  0  0  0  0  0  0  0  0
   44.8100   35.7700   43.8890 H   0  0  0  0  0  0  0  0  0  0  0  0
   45.5150   30.6710   47.6380 O   0  0  0  0  0  0  0  0  0  0  0  0
   45.8590   31.9820   48.3780 P   0  0  2  0  0  0  0  0  0  0  0  0
   45.2080   31.8160   49.9240 O   0  0  0  0  0  0  0  0  0  0  0  0
   44.2920   31.4110   49.8900 H   0  0  0  0  0  0  0  0  0  0  0  0
   47.5020   32.1820   48.4040 O   0  0  0  0  0  0  0  0  0  0  0  0
   48.4900   31.3540   48.8020 C   0  0  2  0  0  3  0  0  0  0  0  0
   49.4870   31.9440   49.3460 O   0  0  0  0  0  0  0  0  0  0  0  0
   49.3380   30.2030   49.0960 C   0  0  0  0  0  0  0  0  0  0  0  0
   49.0880   28.9490   48.2850 C   0  0  0  0  0  2  0  0  0  0  0  0
   50.3650   29.7000   48.1590 C   0  0  0  0  0  2  0  0  0  0  0  0
  1 12  1  0  0  0  0
  2  3  1  0  0  0  0
  3  9  1  0  0  0  0
  3  4  2  0  0  0  0
  4  1  1  0  0  0  0
  5  4  1  0  0  0  0
  6  5  2  0  0  0  0
  7  6  1  0  0  0  0
  7  2  2  0  0  0  0
  8  2  1  0  0  0  0
 10  6  1  0  0  0  0
 12 11  2  6  0  0  0
 12 15  1  0  0  0  0
 12 13  1  0  0  0  0
 14 13  1  0  0  0  0
 16 15  1  6  0  0  0
 16 18  1  0  0  0  0
 16 17  1  0  0  0  0
 18 17  1  0  0  0  0
 19 18  1  0  0  0  0
 20 19  1  0  0  0  0
 20 18  1  0  0  0  0
M  END
>  <minimizedAffinity>
-4.39144611

>  <minimizedRMSD>
0.839988649

$$$$
