
 OpenBabel03242522503D

 20 22  0  0  1  0  0  0  0  0999 V2000
   45.0810   33.3600   47.6460 O   0  0  0  0  0  0  0  0  0  0  0  0
   46.7870   33.4200   44.4360 C   0  0  0  0  0  0  0  0  0  0  0  0
   46.4190   33.0550   45.7410 C   0  0  0  0  0  0  0  0  0  0  0  0
   45.4100   33.7460   46.3640 C   0  0  0  0  0  0  0  0  0  0  0  0
   44.8070   34.7590   45.6790 N   0  0  0  0  0  0  0  0  0  0  0  0
   45.1600   35.1040   44.4320 C   0  0  0  0  0  0  0  0  0  0  0  0
   46.1540   34.4320   43.8070 N   0  0  0  0  0  0  0  0  0  0  0  0
   47.5670   32.9360   43.8660 H   0  0  0  0  0  0  0  0  0  0  0  0
   47.0100   32.2380   46.0920 H   0  0  0  0  0  0  0  0  0  0  0  0
   44.5820   35.9330   44.0280 H   0  0  0  0  0  0  0  0  0  0  0  0
   45.4190   30.7580   47.5730 O   0  0  0  0  0  0  0  0  0  0  0  0
   45.8180   32.0240   48.3620 P   0  0  2  0  0  0  0  0  0  0  0  0
   45.2140   31.7990   49.9190 O   0  0  0  0  0  0  0  0  0  0  0  0
   44.2880   31.4160   49.8980 H   0  0  0  0  0  0  0  0  0  0  0  0
   47.4650   32.1870   48.3410 O   0  0  0  0  0  0  0  0  0  0  0  0
   48.4430   31.3580   48.7610 C   0  0  2  0  0  3  0  0  0  0  0  0
   49.4290   31.9480   49.3250 O   0  0  0  0  0  0  0  0  0  0  0  0
   49.2830   30.2060   49.0760 C   0  0  0  0  0  0  0  0  0  0  0  0
   49.0560   28.9540   48.2550 C   0  0  0  0  0  2  0  0  0  0  0  0
   50.3340   29.7050   48.1660 C   0  0  0  0  0  2  0  0  0  0  0  0
  1 12  1  0  0  0  0
  2  3  1  0  0  0  0
  3  9  1  0  0  0  0
  3  4  2  0  0  0  0
  4  1  1  0  0  0  0
  5  4  1  0  0  0  0
  6  5  2  0  0  0  0
  7  6  1  0  0  0  0
  7  2  2  0  0  0  0
  8  2  1  0  0  0  0
 10  6  1  0  0  0  0
 12 11  2  6  0  0  0
 12 13  1  0  0  0  0
 14 13  1  0  0  0  0
 15 12  1  0  0  0  0
 16 15  1  6  0  0  0
 16 18  1  0  0  0  0
 16 17  1  0  0  0  0
 18 17  1  0  0  0  0
 19 18  1  0  0  0  0
 20 19  1  0  0  0  0
 20 18  1  0  0  0  0
M  END
>  <minimizedAffinity>
-4.38728809

>  <minimizedRMSD>
0.28940919

$$$$
