
 OpenBabel03242522503D

 20 22  0  0  1  0  0  0  0  0999 V2000
   45.2260   32.7690   47.5460 O   0  0  0  0  0  0  0  0  0  0  0  0
   47.2150   32.6720   44.5040 C   0  0  0  0  0  0  0  0  0  0  0  0
   46.6850   32.3330   45.7600 C   0  0  0  0  0  0  0  0  0  0  0  0
   45.7170   33.1340   46.3110 C   0  0  0  0  0  0  0  0  0  0  0  0
   45.3120   34.2280   45.6050 N   0  0  0  0  0  0  0  0  0  0  0  0
   45.8190   34.5490   44.4060 C   0  0  0  0  0  0  0  0  0  0  0  0
   46.7740   33.7680   43.8520 N   0  0  0  0  0  0  0  0  0  0  0  0
   47.9780   32.1030   43.9920 H   0  0  0  0  0  0  0  0  0  0  0  0
   47.1340   31.4410   46.1380 H   0  0  0  0  0  0  0  0  0  0  0  0
   45.3890   35.4520   43.9770 H   0  0  0  0  0  0  0  0  0  0  0  0
   46.0840   30.3660   48.1590 O   0  0  0  0  0  0  0  0  0  0  0  0
   46.1520   31.8420   48.6050 P   0  0  2  0  0  0  0  0  0  0  0  0
   45.4770   31.8830   50.1490 O   0  0  0  0  0  0  0  0  0  0  0  0
   44.6520   31.3160   50.1990 H   0  0  0  0  0  0  0  0  0  0  0  0
   47.7290   32.3460   48.5930 O   0  0  0  0  0  0  0  0  0  0  0  0
   48.8660   31.7110   48.9460 C   0  0  2  0  0  3  0  0  0  0  0  0
   49.7940   32.4840   49.3670 O   0  0  0  0  0  0  0  0  0  0  0  0
   49.9080   30.7280   49.2280 C   0  0  0  0  0  0  0  0  0  0  0  0
   49.7020   29.8470   50.4420 C   0  0  0  0  0  2  0  0  0  0  0  0
   49.7030   29.2710   49.0730 C   0  0  0  0  0  2  0  0  0  0  0  0
  1 12  1  0  0  0  0
  2  3  1  0  0  0  0
  3  9  1  0  0  0  0
  3  4  2  0  0  0  0
  4  1  1  0  0  0  0
  5  4  1  0  0  0  0
  6  5  2  0  0  0  0
  7  6  1  0  0  0  0
  7  2  2  0  0  0  0
  8  2  1  0  0  0  0
 10  6  1  0  0  0  0
 12 11  2  6  0  0  0
 12 13  1  0  0  0  0
 13 14  1  0  0  0  0
 15 12  1  0  0  0  0
 16 15  1  6  0  0  0
 16 18  1  0  0  0  0
 16 17  1  0  0  0  0
 18 17  1  0  0  0  0
 18 19  1  0  0  0  0
 20 18  1  0  0  0  0
 20 19  1  0  0  0  0
M  END
>  <minimizedAffinity>
-4.04044819

>  <minimizedRMSD>
0.886298358

$$$$
