
 OpenBabel03242522503D

 20 22  0  0  1  0  0  0  0  0999 V2000
   45.0550   33.4010   47.6650 O   0  0  0  0  0  0  0  0  0  0  0  0
   46.6830   33.5150   44.4170 C   0  0  0  0  0  0  0  0  0  0  0  0
   46.3440   33.1260   45.7230 C   0  0  0  0  0  0  0  0  0  0  0  0
   45.3550   33.8110   46.3840 C   0  0  0  0  0  0  0  0  0  0  0  0
   44.7430   34.8420   45.7340 N   0  0  0  0  0  0  0  0  0  0  0  0
   45.0690   35.2100   44.4860 C   0  0  0  0  0  0  0  0  0  0  0  0
   46.0430   34.5440   43.8240 N   0  0  0  0  0  0  0  0  0  0  0  0
   47.4460   33.0370   43.8190 H   0  0  0  0  0  0  0  0  0  0  0  0
   46.9370   32.2990   46.0430 H   0  0  0  0  0  0  0  0  0  0  0  0
   44.4870   36.0500   44.1130 H   0  0  0  0  0  0  0  0  0  0  0  0
   45.3830   30.8010   47.5240 O   0  0  0  0  0  0  0  0  0  0  0  0
   45.7990   32.0470   48.3360 P   0  0  2  0  0  0  0  0  0  0  0  0
   45.2200   31.7850   49.8970 O   0  0  0  0  0  0  0  0  0  0  0  0
   44.2930   31.4050   49.8820 H   0  0  0  0  0  0  0  0  0  0  0  0
   47.4460   32.2050   48.2920 O   0  0  0  0  0  0  0  0  0  0  0  0
   48.4230   31.4700   48.8620 C   0  0  2  0  0  3  0  0  0  0  0  0
   49.4090   32.1550   49.3060 O   0  0  0  0  0  0  0  0  0  0  0  0
   49.2610   30.3980   49.3900 C   0  0  0  0  0  0  0  0  0  0  0  0
   49.3210   29.1200   48.5810 C   0  0  0  0  0  2  0  0  0  0  0  0
   50.5240   29.9750   48.7490 C   0  0  0  0  0  2  0  0  0  0  0  0
  1 12  1  0  0  0  0
  2  3  1  0  0  0  0
  3  9  1  0  0  0  0
  3  4  2  0  0  0  0
  4  1  1  0  0  0  0
  5  4  1  0  0  0  0
  6  5  2  0  0  0  0
  7  2  2  0  0  0  0
  7  6  1  0  0  0  0
  8  2  1  0  0  0  0
 10  6  1  0  0  0  0
 12 11  2  6  0  0  0
 12 13  1  0  0  0  0
 14 13  1  0  0  0  0
 15 12  1  0  0  0  0
 16 15  1  6  0  0  0
 16 17  1  0  0  0  0
 16 18  1  0  0  0  0
 17 18  1  0  0  0  0
 19 20  1  0  0  0  0
 19 18  1  0  0  0  0
 20 18  1  0  0  0  0
M  END
>  <minimizedAffinity>
-4.44325399

>  <minimizedRMSD>
0.415192872

$$$$
