
 OpenBabel03242522513D

 20 22  0  0  1  0  0  0  0  0999 V2000
   45.4530   32.3360   47.2640 O   0  0  0  0  0  0  0  0  0  0  0  0
   47.4310   31.5010   44.3300 C   0  0  0  0  0  0  0  0  0  0  0  0
   46.7450   31.3850   45.5510 C   0  0  0  0  0  0  0  0  0  0  0  0
   46.1110   32.4890   46.0630 C   0  0  0  0  0  0  0  0  0  0  0  0
   46.1760   33.6530   45.3550 N   0  0  0  0  0  0  0  0  0  0  0  0
   46.8310   33.7590   44.1900 C   0  0  0  0  0  0  0  0  0  0  0  0
   47.4610   32.6790   43.6740 N   0  0  0  0  0  0  0  0  0  0  0  0
   47.9580   30.6890   43.8500 H   0  0  0  0  0  0  0  0  0  0  0  0
   46.8130   30.3930   45.9370 H   0  0  0  0  0  0  0  0  0  0  0  0
   46.7870   34.7550   43.7540 H   0  0  0  0  0  0  0  0  0  0  0  0
   46.1120   30.0940   48.4590 O   0  0  0  0  0  0  0  0  0  0  0  0
   46.2210   31.6290   48.5860 P   0  0  2  0  0  0  0  0  0  0  0  0
   45.4060   32.0260   50.0070 O   0  0  0  0  0  0  0  0  0  0  0  0
   44.5500   31.5130   50.0900 H   0  0  0  0  0  0  0  0  0  0  0  0
   47.8180   32.0620   48.6330 O   0  0  0  0  0  0  0  0  0  0  0  0
   48.9110   31.3790   49.0290 C   0  0  2  0  0  3  0  0  0  0  0  0
   49.8300   32.1050   49.5450 O   0  0  0  0  0  0  0  0  0  0  0  0
   49.9060   30.3540   49.3310 C   0  0  0  0  0  0  0  0  0  0  0  0
   49.6310   28.9620   48.8030 C   0  0  0  0  0  2  0  0  0  0  0  0
   50.7810   29.7550   48.3000 C   0  0  0  0  0  2  0  0  0  0  0  0
  1 12  1  0  0  0  0
  2  3  1  0  0  0  0
  3  9  1  0  0  0  0
  3  4  2  0  0  0  0
  4  1  1  0  0  0  0
  5  4  1  0  0  0  0
  6  5  2  0  0  0  0
  7  6  1  0  0  0  0
  7  2  2  0  0  0  0
  8  2  1  0  0  0  0
 10  6  1  0  0  0  0
 12 11  2  6  0  0  0
 12 15  1  0  0  0  0
 12 13  1  0  0  0  0
 13 14  1  0  0  0  0
 16 15  1  6  0  0  0
 16 18  1  0  0  0  0
 16 17  1  0  0  0  0
 18 17  1  0  0  0  0
 19 18  1  0  0  0  0
 20 19  1  0  0  0  0
 20 18  1  0  0  0  0
M  END
>  <minimizedAffinity>
-3.88449717

>  <minimizedRMSD>
1.61580062

$$$$
