
 OpenBabel03242522503D

 20 22  0  0  1  0  0  0  0  0999 V2000
   45.0550   33.4020   47.6640 O   0  0  0  0  0  0  0  0  0  0  0  0
   46.6820   33.5170   44.4150 C   0  0  0  0  0  0  0  0  0  0  0  0
   46.3430   33.1270   45.7220 C   0  0  0  0  0  0  0  0  0  0  0  0
   45.3550   33.8120   46.3830 C   0  0  0  0  0  0  0  0  0  0  0  0
   44.7430   34.8430   45.7330 N   0  0  0  0  0  0  0  0  0  0  0  0
   45.0690   35.2120   44.4860 C   0  0  0  0  0  0  0  0  0  0  0  0
   46.0420   34.5460   43.8230 N   0  0  0  0  0  0  0  0  0  0  0  0
   47.4440   33.0390   43.8170 H   0  0  0  0  0  0  0  0  0  0  0  0
   46.9360   32.3000   46.0410 H   0  0  0  0  0  0  0  0  0  0  0  0
   44.4870   36.0520   44.1130 H   0  0  0  0  0  0  0  0  0  0  0  0
   45.3760   30.8010   47.5240 O   0  0  0  0  0  0  0  0  0  0  0  0
   45.7970   32.0460   48.3340 P   0  0  2  0  0  0  0  0  0  0  0  0
   45.2230   31.7870   49.8970 O   0  0  0  0  0  0  0  0  0  0  0  0
   44.2950   31.4100   49.8850 H   0  0  0  0  0  0  0  0  0  0  0  0
   47.4450   32.2000   48.2850 O   0  0  0  0  0  0  0  0  0  0  0  0
   48.4210   31.4670   48.8580 C   0  0  2  0  0  3  0  0  0  0  0  0
   49.4040   32.1540   49.3050 O   0  0  0  0  0  0  0  0  0  0  0  0
   49.2600   30.3970   49.3890 C   0  0  0  0  0  0  0  0  0  0  0  0
   49.3230   29.1170   48.5820 C   0  0  0  0  0  2  0  0  0  0  0  0
   50.5250   29.9740   48.7500 C   0  0  0  0  0  2  0  0  0  0  0  0
  1 12  1  0  0  0  0
  2  3  1  0  0  0  0
  3  9  1  0  0  0  0
  3  4  2  0  0  0  0
  4  1  1  0  0  0  0
  5  4  1  0  0  0  0
  6  5  2  0  0  0  0
  7  2  2  0  0  0  0
  7  6  1  0  0  0  0
  8  2  1  0  0  0  0
 10  6  1  0  0  0  0
 12 11  2  6  0  0  0
 12 13  1  0  0  0  0
 14 13  1  0  0  0  0
 15 12  1  0  0  0  0
 16 15  1  6  0  0  0
 16 17  1  0  0  0  0
 16 18  1  0  0  0  0
 17 18  1  0  0  0  0
 19 20  1  0  0  0  0
 19 18  1  0  0  0  0
 20 18  1  0  0  0  0
M  END
>  <minimizedAffinity>
-4.44053411

>  <minimizedRMSD>
0.564697564

$$$$
