
 OpenBabel03242522523D

 20 22  0  0  1  0  0  0  0  0999 V2000
   37.3560   30.2120   39.5680 O   0  0  0  0  0  0  0  0  0  0  0  0
   40.0190   32.5140   40.4740 C   0  0  0  0  0  0  0  0  0  0  0  0
   39.3200   31.3250   40.2090 C   0  0  0  0  0  0  0  0  0  0  0  0
   38.0070   31.4000   39.8150 C   0  0  0  0  0  0  0  0  0  0  0  0
   37.4420   32.6360   39.6980 N   0  0  0  0  0  0  0  0  0  0  0  0
   38.1130   33.7690   39.9510 C   0  0  0  0  0  0  0  0  0  0  0  0
   39.4070   33.7090   40.3410 N   0  0  0  0  0  0  0  0  0  0  0  0
   41.0520   32.5550   40.7880 H   0  0  0  0  0  0  0  0  0  0  0  0
   39.9440   30.4720   40.3560 H   0  0  0  0  0  0  0  0  0  0  0  0
   37.5180   34.6690   39.8110 H   0  0  0  0  0  0  0  0  0  0  0  0
   34.8900   29.3190   39.6690 O   0  0  0  0  0  0  0  0  0  0  0  0
   36.0940   29.6950   40.5590 P   0  0  2  0  0  0  0  0  0  0  0  0
   35.5630   30.9680   41.5280 O   0  0  0  0  0  0  0  0  0  0  0  0
   35.0250   31.6270   40.9990 H   0  0  0  0  0  0  0  0  0  0  0  0
   36.5540   28.3760   41.4460 O   0  0  0  0  0  0  0  0  0  0  0  0
   37.4250   28.2540   42.4690 C   0  0  2  0  0  3  0  0  0  0  0  0
   37.7030   29.3540   43.0610 O   0  0  0  0  0  0  0  0  0  0  0  0
   38.3590   27.7700   43.4810 C   0  0  0  0  0  0  0  0  0  0  0  0
   39.0500   26.4540   43.1960 C   0  0  0  0  0  2  0  0  0  0  0  0
   39.8220   27.7220   43.2680 C   0  0  0  0  0  2  0  0  0  0  0  0
  1  4  1  0  0  0  0
  1 12  1  0  0  0  0
  2  8  1  0  0  0  0
  3  9  1  0  0  0  0
  3  2  2  0  0  0  0
  4  3  1  0  0  0  0
  5  4  2  0  0  0  0
  5  6  1  0  0  0  0
  6  7  2  0  0  0  0
  7  2  1  0  0  0  0
 10  6  1  0  0  0  0
 12 11  2  6  0  0  0
 12 15  1  0  0  0  0
 12 13  1  0  0  0  0
 14 13  1  0  0  0  0
 16 15  1  6  0  0  0
 16 17  1  0  0  0  0
 16 18  1  0  0  0  0
 17 18  1  0  0  0  0
 19 20  1  0  0  0  0
 19 18  1  0  0  0  0
 20 18  1  0  0  0  0
M  END
>  <minimizedAffinity>
-4.48154926

$$$$

 OpenBabel03242522523D

 20 22  0  0  1  0  0  0  0  0999 V2000
   38.2080   30.3900   40.9830 O   0  0  0  0  0  0  0  0  0  0  0  0
   39.3680   27.8310   43.2890 C   0  0  0  0  0  0  0  0  0  0  0  0
   39.3640   28.9120   42.3930 C   0  0  0  0  0  0  0  0  0  0  0  0
   38.1690   29.3290   41.8610 C   0  0  0  0  0  0  0  0  0  0  0  0
   37.0350   28.6690   42.2330 N   0  0  0  0  0  0  0  0  0  0  0  0
   37.0430   27.6370   43.0900 C   0  0  0  0  0  0  0  0  0  0  0  0
   38.2140   27.2160   43.6210 N   0  0  0  0  0  0  0  0  0  0  0  0
   40.2570   27.4330   43.7580 H   0  0  0  0  0  0  0  0  0  0  0  0
   40.3510   29.2880   42.2400 H   0  0  0  0  0  0  0  0  0  0  0  0
   36.0560   27.2210   43.2810 H   0  0  0  0  0  0  0  0  0  0  0  0
   37.0570   32.4500   39.8330 O   0  0  0  0  0  0  0  0  0  0  0  0
   36.7930   31.0040   40.3060 P   0  0  2  0  0  0  0  0  0  0  0  0
   35.5930   31.1230   41.4840 O   0  0  0  0  0  0  0  0  0  0  0  0
   35.7650   31.8950   42.1000 H   0  0  0  0  0  0  0  0  0  0  0  0
   36.3180   30.0840   39.0140 O   0  0  0  0  0  0  0  0  0  0  0  0
   35.1700   29.4190   38.7730 C   0  0  1  0  0  3  0  0  0  0  0  0
   34.5210   29.0840   39.8240 O   0  0  0  0  0  0  0  0  0  0  0  0
   34.0270   28.7450   38.1640 C   0  0  0  0  0  0  0  0  0  0  0  0
   33.9110   28.8280   36.6570 C   0  0  0  0  0  2  0  0  0  0  0  0
   34.1600   27.5280   37.3320 C   0  0  0  0  0  2  0  0  0  0  0  0
  1  4  1  0  0  0  0
  2  7  1  0  0  0  0
  2  8  1  0  0  0  0
  3  2  2  0  0  0  0
  4  5  2  0  0  0  0
  4  3  1  0  0  0  0
  5  6  1  0  0  0  0
  6 10  1  0  0  0  0
  6  7  2  0  0  0  0
  9  3  1  0  0  0  0
 12 11  2  6  0  0  0
 12  1  1  0  0  0  0
 12 13  1  0  0  0  0
 13 14  1  0  0  0  0
 15 12  1  0  0  0  0
 16 15  1  6  0  0  0
 16 17  1  0  0  0  0
 18 16  1  0  0  0  0
 18 17  1  0  0  0  0
 19 20  1  0  0  0  0
 19 18  1  0  0  0  0
 20 18  1  0  0  0  0
M  END
>  <minimizedAffinity>
-4.35968399

$$$$

 OpenBabel03242522523D

 20 22  0  0  1  0  0  0  0  0999 V2000
   37.3540   30.1330   39.5560 O   0  0  0  0  0  0  0  0  0  0  0  0
   37.4360   33.7680   39.5550 C   0  0  0  0  0  0  0  0  0  0  0  0
   37.0740   32.4440   39.2560 C   0  0  0  0  0  0  0  0  0  0  0  0
   37.7360   31.4170   39.8800 C   0  0  0  0  0  0  0  0  0  0  0  0
   38.7200   31.7340   40.7700 N   0  0  0  0  0  0  0  0  0  0  0  0
   39.0620   32.9990   41.0540 C   0  0  0  0  0  0  0  0  0  0  0  0
   38.4180   34.0210   40.4450 N   0  0  0  0  0  0  0  0  0  0  0  0
   36.9730   34.6390   39.1160 H   0  0  0  0  0  0  0  0  0  0  0  0
   36.2830   32.4150   38.5400 H   0  0  0  0  0  0  0  0  0  0  0  0
   39.8650   33.0800   41.7840 H   0  0  0  0  0  0  0  0  0  0  0  0
   35.0530   29.1190   40.3070 O   0  0  0  0  0  0  0  0  0  0  0  0
   36.5520   29.1620   40.6740 P   0  0  2  0  0  0  0  0  0  0  0  0
   36.6250   29.8630   42.2050 O   0  0  0  0  0  0  0  0  0  0  0  0
   36.0050   30.6460   42.2750 H   0  0  0  0  0  0  0  0  0  0  0  0
   37.1640   27.6240   40.6550 O   0  0  0  0  0  0  0  0  0  0  0  0
   37.0610   26.6170   41.5460 C   0  0  2  0  0  3  0  0  0  0  0  0
   37.0480   26.9930   42.7690 O   0  0  0  0  0  0  0  0  0  0  0  0
   36.9460   25.3220   42.2090 C   0  0  0  0  0  0  0  0  0  0  0  0
   36.7320   24.1170   41.3180 C   0  0  0  0  0  2  0  0  0  0  0  0
   37.9820   24.2700   42.1080 C   0  0  0  0  0  2  0  0  0  0  0  0
  1  4  1  0  0  0  0
  1 12  1  0  0  0  0
  2  7  1  0  0  0  0
  3  2  2  0  0  0  0
  3  4  1  0  0  0  0
  4  5  2  0  0  0  0
  5  6  1  0  0  0  0
  6 10  1  0  0  0  0
  7  6  2  0  0  0  0
  8  2  1  0  0  0  0
  9  3  1  0  0  0  0
 12 11  2  6  0  0  0
 12 13  1  0  0  0  0
 13 14  1  0  0  0  0
 15 12  1  0  0  0  0
 16 15  1  1  0  0  0
 16 18  1  0  0  0  0
 16 17  1  0  0  0  0
 18 17  1  0  0  0  0
 19 20  1  0  0  0  0
 19 18  1  0  0  0  0
 20 18  1  0  0  0  0
M  END
>  <minimizedAffinity>
-4.29705763

$$$$

 OpenBabel03242522523D

 20 22  0  0  1  0  0  0  0  0999 V2000
   38.0910   28.0430   41.3280 O   0  0  0  0  0  0  0  0  0  0  0  0
   38.7730   24.5620   42.1240 C   0  0  0  0  0  0  0  0  0  0  0  0
   38.2710   25.7080   41.4860 C   0  0  0  0  0  0  0  0  0  0  0  0
   38.6070   26.9440   41.9790 C   0  0  0  0  0  0  0  0  0  0  0  0
   39.4200   26.9990   43.0730 N   0  0  0  0  0  0  0  0  0  0  0  0
   39.8970   25.9030   43.6800 C   0  0  0  0  0  0  0  0  0  0  0  0
   39.5740   24.6790   43.2030 N   0  0  0  0  0  0  0  0  0  0  0  0
   38.5650   23.5500   41.8080 H   0  0  0  0  0  0  0  0  0  0  0  0
   37.6610   25.4460   40.6500 H   0  0  0  0  0  0  0  0  0  0  0  0
   40.5300   26.1200   44.5380 H   0  0  0  0  0  0  0  0  0  0  0  0
   38.8540   30.2600   42.5070 O   0  0  0  0  0  0  0  0  0  0  0  0
   37.6060   29.4090   42.1860 P   0  0  2  0  0  0  0  0  0  0  0  0
   36.9690   28.9560   43.6800 O   0  0  0  0  0  0  0  0  0  0  0  0
   37.6940   28.6780   44.3140 H   0  0  0  0  0  0  0  0  0  0  0  0
   36.5430   30.3100   41.2940 O   0  0  0  0  0  0  0  0  0  0  0  0
   36.7020   30.9800   40.1340 C   0  0  2  0  0  3  0  0  0  0  0  0
   36.4750   30.2820   39.0860 O   0  0  0  0  0  0  0  0  0  0  0  0
   36.9610   31.9790   39.1020 C   0  0  0  0  0  0  0  0  0  0  0  0
   37.4190   33.3420   39.5730 C   0  0  0  0  0  2  0  0  0  0  0  0
   38.3190   32.4670   38.7770 C   0  0  0  0  0  2  0  0  0  0  0  0
  1  4  1  0  0  0  0
  1 12  1  0  0  0  0
  2  7  1  0  0  0  0
  3  4  1  0  0  0  0
  3  2  2  0  0  0  0
  4  5  2  0  0  0  0
  5  6  1  0  0  0  0
  6 10  1  0  0  0  0
  7  6  2  0  0  0  0
  8  2  1  0  0  0  0
  9  3  1  0  0  0  0
 12 11  2  1  0  0  0
 12 13  1  0  0  0  0
 13 14  1  0  0  0  0
 15 12  1  0  0  0  0
 16 15  1  6  0  0  0
 17 18  1  0  0  0  0
 17 16  1  0  0  0  0
 18 19  1  0  0  0  0
 18 16  1  0  0  0  0
 20 18  1  0  0  0  0
 20 19  1  0  0  0  0
M  END
>  <minimizedAffinity>
-4.19521475

$$$$

 OpenBabel03242522523D

 20 22  0  0  1  0  0  0  0  0999 V2000
   37.6740   30.2640   39.1580 O   0  0  0  0  0  0  0  0  0  0  0  0
   41.2990   30.4150   38.9470 C   0  0  0  0  0  0  0  0  0  0  0  0
   40.0020   29.9930   39.2790 C   0  0  0  0  0  0  0  0  0  0  0  0
   38.9290   30.7080   38.8070 C   0  0  0  0  0  0  0  0  0  0  0  0
   39.1790   31.8010   38.0310 N   0  0  0  0  0  0  0  0  0  0  0  0
   40.4190   32.2010   37.7150 C   0  0  0  0  0  0  0  0  0  0  0  0
   41.4850   31.5060   38.1750 N   0  0  0  0  0  0  0  0  0  0  0  0
   42.2020   29.9170   39.2710 H   0  0  0  0  0  0  0  0  0  0  0  0
   40.0270   29.1180   39.8900 H   0  0  0  0  0  0  0  0  0  0  0  0
   40.4450   33.0910   37.0890 H   0  0  0  0  0  0  0  0  0  0  0  0
   35.6450   29.9470   40.7930 O   0  0  0  0  0  0  0  0  0  0  0  0
   36.9770   30.7100   40.6260 P   0  0  2  0  0  0  0  0  0  0  0  0
   36.5650   32.3440   40.5960 O   0  0  0  0  0  0  0  0  0  0  0  0
   35.7500   32.5020   40.0350 H   0  0  0  0  0  0  0  0  0  0  0  0
   37.9840   30.3370   41.8860 O   0  0  0  0  0  0  0  0  0  0  0  0
   38.1330   29.1990   42.5950 C   0  0  1  0  0  3  0  0  0  0  0  0
   39.3300   28.9750   42.9890 O   0  0  0  0  0  0  0  0  0  0  0  0
   37.9360   27.9380   43.3030 C   0  0  0  0  0  0  0  0  0  0  0  0
   36.5140   27.5830   43.6790 C   0  0  0  0  0  2  0  0  0  0  0  0
   37.2680   26.7680   42.6910 C   0  0  0  0  0  2  0  0  0  0  0  0
  1 12  1  0  0  0  0
  2  8  1  0  0  0  0
  2  3  1  0  0  0  0
  3  9  1  0  0  0  0
  4  1  1  0  0  0  0
  4  3  2  0  0  0  0
  5  4  1  0  0  0  0
  6  5  2  0  0  0  0
  6  7  1  0  0  0  0
  7  2  2  0  0  0  0
 10  6  1  0  0  0  0
 12 11  2  1  0  0  0
 12 15  1  0  0  0  0
 13 12  1  0  0  0  0
 14 13  1  0  0  0  0
 16 15  1  1  0  0  0
 16 17  1  0  0  0  0
 16 18  1  0  0  0  0
 17 18  1  0  0  0  0
 18 19  1  0  0  0  0
 20 18  1  0  0  0  0
 20 19  1  0  0  0  0
M  END
>  <minimizedAffinity>
-4.19149256

$$$$

 OpenBabel03242522523D

 20 22  0  0  1  0  0  0  0  0999 V2000
   39.4070   27.8530   42.7640 O   0  0  0  0  0  0  0  0  0  0  0  0
   39.2160   24.2570   42.2670 C   0  0  0  0  0  0  0  0  0  0  0  0
   39.7310   25.5440   42.4920 C   0  0  0  0  0  0  0  0  0  0  0  0
   38.8630   26.6060   42.5460 C   0  0  0  0  0  0  0  0  0  0  0  0
   37.5320   26.3560   42.3810 N   0  0  0  0  0  0  0  0  0  0  0  0
   37.0440   25.1250   42.1680 C   0  0  0  0  0  0  0  0  0  0  0  0
   37.8890   24.0700   42.1110 N   0  0  0  0  0  0  0  0  0  0  0  0
   39.8200   23.3620   42.2090 H   0  0  0  0  0  0  0  0  0  0  0  0
   40.7920   25.5200   42.5980 H   0  0  0  0  0  0  0  0  0  0  0  0
   35.9620   25.0980   42.0570 H   0  0  0  0  0  0  0  0  0  0  0  0
   39.3300   30.4660   42.9930 O   0  0  0  0  0  0  0  0  0  0  0  0
   38.4740   29.2450   42.5920 P   0  0  2  0  0  0  0  0  0  0  0  0
   37.1860   29.2160   43.6790 O   0  0  0  0  0  0  0  0  0  0  0  0
   37.4960   29.4050   44.6130 H   0  0  0  0  0  0  0  0  0  0  0  0
   37.9720   29.4200   41.0240 O   0  0  0  0  0  0  0  0  0  0  0  0
   36.7970   29.8380   40.5110 C   0  0  2  0  0  3  0  0  0  0  0  0
   36.2060   30.7350   41.2050 O   0  0  0  0  0  0  0  0  0  0  0  0
   35.6050   30.0470   39.6940 C   0  0  0  0  0  0  0  0  0  0  0  0
   35.4820   29.2080   38.4410 C   0  0  0  0  0  2  0  0  0  0  0  0
   34.5290   29.0400   39.5680 C   0  0  0  0  0  2  0  0  0  0  0  0
  2  3  1  0  0  0  0
  3  4  2  0  0  0  0
  3  9  1  0  0  0  0
  4  1  1  0  0  0  0
  5  4  1  0  0  0  0
  6  5  2  0  0  0  0
  7  6  1  0  0  0  0
  7  2  2  0  0  0  0
  8  2  1  0  0  0  0
 10  6  1  0  0  0  0
 12  1  1  0  0  0  0
 12 11  2  1  0  0  0
 12 13  1  0  0  0  0
 13 14  1  0  0  0  0
 15 12  1  0  0  0  0
 16 15  1  1  0  0  0
 16 17  1  0  0  0  0
 18 16  1  0  0  0  0
 18 17  1  0  0  0  0
 19 20  1  0  0  0  0
 19 18  1  0  0  0  0
 20 18  1  0  0  0  0
M  END
>  <minimizedAffinity>
-4.1627059

$$$$

 OpenBabel03242522523D

 20 22  0  0  1  0  0  0  0  0999 V2000
   36.5460   30.0190   41.5360 O   0  0  0  0  0  0  0  0  0  0  0  0
   37.3590   32.7260   39.2490 C   0  0  0  0  0  0  0  0  0  0  0  0
   37.0750   32.0210   40.4310 C   0  0  0  0  0  0  0  0  0  0  0  0
   36.8240   30.6740   40.3560 C   0  0  0  0  0  0  0  0  0  0  0  0
   36.8650   30.0800   39.1290 N   0  0  0  0  0  0  0  0  0  0  0  0
   37.1370   30.7570   38.0030 C   0  0  0  0  0  0  0  0  0  0  0  0
   37.3850   32.0850   38.0630 N   0  0  0  0  0  0  0  0  0  0  0  0
   37.5690   33.7850   39.2090 H   0  0  0  0  0  0  0  0  0  0  0  0
   37.0970   32.6690   41.2790 H   0  0  0  0  0  0  0  0  0  0  0  0
   37.1300   30.1360   37.1090 H   0  0  0  0  0  0  0  0  0  0  0  0
   38.1870   29.2860   43.4490 O   0  0  0  0  0  0  0  0  0  0  0  0
   37.5680   28.8120   42.1160 P   0  0  2  0  0  0  0  0  0  0  0  0
   38.8660   28.5990   41.0620 O   0  0  0  0  0  0  0  0  0  0  0  0
   39.5260   29.3490   41.1420 H   0  0  0  0  0  0  0  0  0  0  0  0
   36.7260   27.4100   42.3720 O   0  0  0  0  0  0  0  0  0  0  0  0
   37.1180   26.1200   42.3280 C   0  0  1  0  0  3  0  0  0  0  0  0
   38.3310   25.9230   42.6840 O   0  0  0  0  0  0  0  0  0  0  0  0
   37.1990   24.6710   42.1660 C   0  0  0  0  0  0  0  0  0  0  0  0
   36.4580   24.0750   40.9880 C   0  0  0  0  0  2  0  0  0  0  0  0
   37.9410   24.0260   41.0600 C   0  0  0  0  0  2  0  0  0  0  0  0
  1 12  1  0  0  0  0
  2  3  1  0  0  0  0
  3  9  1  0  0  0  0
  4  3  2  0  0  0  0
  4  1  1  0  0  0  0
  5  4  1  0  0  0  0
  6  7  1  0  0  0  0
  6  5  2  0  0  0  0
  7  2  2  0  0  0  0
  8  2  1  0  0  0  0
 10  6  1  0  0  0  0
 12 15  1  0  0  0  0
 12 11  2  1  0  0  0
 13 14  1  0  0  0  0
 13 12  1  0  0  0  0
 16 15  1  1  0  0  0
 16 17  1  0  0  0  0
 18 16  1  0  0  0  0
 18 17  1  0  0  0  0
 19 20  1  0  0  0  0
 19 18  1  0  0  0  0
 20 18  1  0  0  0  0
M  END
>  <minimizedAffinity>
-4.12562132

$$$$

 OpenBabel03242522523D

 20 22  0  0  1  0  0  0  0  0999 V2000
   37.1820   30.5240   39.2310 O   0  0  0  0  0  0  0  0  0  0  0  0
   36.8980   29.0730   35.9100 C   0  0  0  0  0  0  0  0  0  0  0  0
   36.6540   29.8710   37.0390 C   0  0  0  0  0  0  0  0  0  0  0  0
   37.4570   29.7250   38.1430 C   0  0  0  0  0  0  0  0  0  0  0  0
   38.4620   28.8050   38.0870 N   0  0  0  0  0  0  0  0  0  0  0  0
   38.6930   28.0450   37.0070 C   0  0  0  0  0  0  0  0  0  0  0  0
   37.9080   28.1790   35.9130 N   0  0  0  0  0  0  0  0  0  0  0  0
   36.3210   29.1170   34.9980 H   0  0  0  0  0  0  0  0  0  0  0  0
   35.8270   30.5260   36.8750 H   0  0  0  0  0  0  0  0  0  0  0  0
   39.5310   27.3610   37.1250 H   0  0  0  0  0  0  0  0  0  0  0  0
   35.4510   28.8010   40.1920 O   0  0  0  0  0  0  0  0  0  0  0  0
   36.4670   29.8830   40.6160 P   0  0  2  0  0  0  0  0  0  0  0  0
   35.5650   31.0710   41.4020 O   0  0  0  0  0  0  0  0  0  0  0  0
   34.7110   31.2600   40.9140 H   0  0  0  0  0  0  0  0  0  0  0  0
   37.6110   29.2050   41.6010 O   0  0  0  0  0  0  0  0  0  0  0  0
   37.5700   28.1060   42.3820 C   0  0  2  0  0  3  0  0  0  0  0  0
   37.5410   28.3510   43.6380 O   0  0  0  0  0  0  0  0  0  0  0  0
   37.5320   26.7440   42.9070 C   0  0  0  0  0  0  0  0  0  0  0  0
   37.1430   25.6510   41.9350 C   0  0  0  0  0  2  0  0  0  0  0  0
   38.5090   25.7040   42.5160 C   0  0  0  0  0  2  0  0  0  0  0  0
  1 12  1  0  0  0  0
  2  7  2  0  0  0  0
  2  3  1  0  0  0  0
  3  4  2  0  0  0  0
  4  1  1  0  0  0  0
  5  4  1  0  0  0  0
  6 10  1  0  0  0  0
  6  5  2  0  0  0  0
  7  6  1  0  0  0  0
  8  2  1  0  0  0  0
  9  3  1  0  0  0  0
 12 11  2  6  0  0  0
 12 13  1  0  0  0  0
 12 15  1  0  0  0  0
 14 13  1  0  0  0  0
 16 15  1  1  0  0  0
 16 18  1  0  0  0  0
 16 17  1  0  0  0  0
 18 17  1  0  0  0  0
 19 20  1  0  0  0  0
 19 18  1  0  0  0  0
 20 18  1  0  0  0  0
M  END
>  <minimizedAffinity>
-4.08371258

$$$$

 OpenBabel03242522523D

 20 22  0  0  1  0  0  0  0  0999 V2000
   39.4290   31.0680   40.3090 O   0  0  0  0  0  0  0  0  0  0  0  0
   42.4270   32.5240   41.7610 C   0  0  0  0  0  0  0  0  0  0  0  0
   41.4050   31.6110   41.4540 C   0  0  0  0  0  0  0  0  0  0  0  0
   40.4150   31.9910   40.5820 C   0  0  0  0  0  0  0  0  0  0  0  0
   40.4750   33.2450   40.0500 N   0  0  0  0  0  0  0  0  0  0  0  0
   41.4530   34.1140   40.3460 C   0  0  0  0  0  0  0  0  0  0  0  0
   42.4340   33.7530   41.2040 N   0  0  0  0  0  0  0  0  0  0  0  0
   43.2460   32.3160   42.4350 H   0  0  0  0  0  0  0  0  0  0  0  0
   41.5460   30.6880   41.9710 H   0  0  0  0  0  0  0  0  0  0  0  0
   41.3540   35.0720   39.8380 H   0  0  0  0  0  0  0  0  0  0  0  0
   37.0710   31.1260   39.1600 O   0  0  0  0  0  0  0  0  0  0  0  0
   37.8010   31.4680   40.4760 P   0  0  2  0  0  0  0  0  0  0  0  0
   37.6330   33.1340   40.6700 O   0  0  0  0  0  0  0  0  0  0  0  0
   37.7760   33.6160   39.8030 H   0  0  0  0  0  0  0  0  0  0  0  0
   37.1170   30.6170   41.7200 O   0  0  0  0  0  0  0  0  0  0  0  0
   36.9940   29.2890   41.9240 C   0  0  2  0  0  3  0  0  0  0  0  0
   36.0900   28.7270   41.2130 O   0  0  0  0  0  0  0  0  0  0  0  0
   37.1280   27.9100   42.3840 C   0  0  0  0  0  0  0  0  0  0  0  0
   37.9430   27.6880   43.6400 C   0  0  0  0  0  2  0  0  0  0  0  0
   36.4840   27.4060   43.6170 C   0  0  0  0  0  2  0  0  0  0  0  0
  1 12  1  0  0  0  0
  1  4  1  0  0  0  0
  2  8  1  0  0  0  0
  3  2  1  0  0  0  0
  3  9  1  0  0  0  0
  4  3  2  0  0  0  0
  5  6  2  0  0  0  0
  5  4  1  0  0  0  0
  6  7  1  0  0  0  0
  7  2  2  0  0  0  0
 10  6  1  0  0  0  0
 12 11  2  6  0  0  0
 12 13  1  0  0  0  0
 12 15  1  0  0  0  0
 14 13  1  0  0  0  0
 16 15  1  1  0  0  0
 16 18  1  0  0  0  0
 17 16  1  0  0  0  0
 17 18  1  0  0  0  0
 18 20  1  0  0  0  0
 18 19  1  0  0  0  0
 20 19  1  0  0  0  0
M  END
>  <minimizedAffinity>
-4.03936577

$$$$
