
 OpenBabel03242521433D

 32 34  0  0  1  0  0  0  0  0999 V2000
   45.2120   35.5100   44.3120 C   0  0  0  0  0  0  0  0  0  0  0  0
   46.1680   34.7890   43.5960 C   0  0  0  0  0  0  0  0  0  0  0  0
   46.7150   33.6240   44.1530 C   0  0  0  0  0  0  0  0  0  0  0  0
   46.2780   33.2640   45.3610 N   0  0  0  0  0  0  0  0  0  0  0  0
   45.3490   33.9700   46.0450 C   0  0  0  0  0  0  0  0  0  0  0  0
   44.8120   35.0910   45.5280 N   0  0  0  0  0  0  0  0  0  0  0  0
   46.4430   35.1890   42.6160 H   0  0  0  0  0  0  0  0  0  0  0  0
   45.0780   33.5720   47.0150 H   0  0  0  0  0  0  0  0  0  0  0  0
   48.6490   33.7920   42.6070 C   0  0  2  0  0  0  0  0  0  0  0  0
   47.7040   32.9220   43.3580 C   0  0  2  0  0  0  0  0  0  0  0  0
   47.1550   32.1430   42.2960 O   0  0  0  0  0  0  0  0  0  0  0  0
   48.2980   31.6930   41.6610 C   0  0  0  0  0  0  0  0  0  0  0  0
   49.3980   32.6880   41.8330 C   0  0  1  0  0  0  0  0  0  0  0  0
   48.1420   34.3740   41.7880 H   0  0  0  0  0  0  0  0  0  0  0  0
   48.2910   32.2140   43.9910 H   0  0  0  0  0  0  0  0  0  0  0  0
   48.5930   30.6670   41.9840 H   0  0  0  0  0  0  0  0  0  0  0  0
   48.0750   31.6070   40.5760 H   0  0  0  0  0  0  0  0  0  0  0  0
   50.2530   32.3010   42.4200 H   0  0  0  0  0  0  0  0  0  0  0  0
   49.4550   34.5720   43.3800 O   0  0  0  0  0  0  0  0  0  0  0  0
   49.2830   35.5590   43.3180 H   0  0  0  0  0  0  0  0  0  0  0  0
   49.8650   33.2280   40.6360 O   0  0  0  0  0  0  0  0  0  0  0  0
   49.1150   33.6520   40.1480 H   0  0  0  0  0  0  0  0  0  0  0  0
   44.6420   36.7630   43.7050 C   0  0  0  0  0  0  0  0  0  0  0  0
   43.5260   36.6630   43.6890 H   0  0  0  0  0  0  0  0  0  0  0  0
   45.0940   36.9260   42.7250 H   0  0  0  0  0  0  0  0  0  0  0  0
   45.3190   39.1730   44.3290 C   0  0  0  0  0  0  0  0  0  0  0  0
   45.4180   39.4340   43.0910 O   0  0  0  0  0  0  0  0  0  0  0  0
   44.9340   37.8390   44.6350 N   0  0  0  0  0  0  0  0  0  0  0  0
   44.8490   37.6000   45.6690 H   0  0  0  0  0  0  0  0  0  0  0  0
   45.5740   40.1510   45.4160 C   0  0  0  0  0  0  0  0  0  0  0  0
   44.5120   41.2260   45.6740 C   0  0  0  0  0  0  0  0  0  0  0  0
   44.7610   40.1430   46.6590 C   0  0  0  0  0  0  0  0  0  0  0  0
  1  6  1  0  0  0  0
  2  3  1  0  0  0  0
  2  1  2  0  0  0  0
  3  4  2  0  0  0  0
  4  5  1  0  0  0  0
  5  8  1  0  0  0  0
  6  5  2  0  0  0  0
  7  2  1  0  0  0  0
  9 14  1  6  0  0  0
  9 10  1  0  0  0  0
  9 19  1  0  0  0  0
 10 15  1  1  0  0  0
 10  3  1  0  0  0  0
 11 10  1  0  0  0  0
 12 13  1  0  0  0  0
 12 16  1  0  0  0  0
 12 11  1  0  0  0  0
 13 18  1  1  0  0  0
 13  9  1  0  0  0  0
 17 12  1  0  0  0  0
 20 19  1  0  0  0  0
 21 13  1  0  0  0  0
 22 21  1  0  0  0  0
 23  1  1  0  0  0  0
 23 28  1  0  0  0  0
 24 23  1  0  0  0  0
 25 23  1  0  0  0  0
 26 28  1  0  0  0  0
 26 30  1  0  0  0  0
 27 26  2  0  0  0  0
 28 29  1  0  0  0  0
 30 31  1  0  0  0  0
 30 32  1  0  0  0  0
 31 32  1  0  0  0  0
M  END
>  <minimizedAffinity>
-5.19121933

>  <minimizedRMSD>
0.66133374

$$$$
