
 OpenBabel03242522503D

 20 22  0  0  1  0  0  0  0  0999 V2000
   45.1170   33.2700   47.5740 O   0  0  0  0  0  0  0  0  0  0  0  0
   46.9650   33.2560   44.4440 C   0  0  0  0  0  0  0  0  0  0  0  0
   46.5360   32.9190   45.7380 C   0  0  0  0  0  0  0  0  0  0  0  0
   45.5050   33.6290   46.3020 C   0  0  0  0  0  0  0  0  0  0  0  0
   44.9430   34.6340   45.5710 N   0  0  0  0  0  0  0  0  0  0  0  0
   45.3540   34.9520   44.3360 C   0  0  0  0  0  0  0  0  0  0  0  0
   46.3690   34.2610   43.7690 N   0  0  0  0  0  0  0  0  0  0  0  0
   47.7660   32.7550   43.9190 H   0  0  0  0  0  0  0  0  0  0  0  0
   47.1030   32.1050   46.1300 H   0  0  0  0  0  0  0  0  0  0  0  0
   44.8020   35.7780   43.8910 H   0  0  0  0  0  0  0  0  0  0  0  0
   45.5050   30.6750   47.6370 O   0  0  0  0  0  0  0  0  0  0  0  0
   45.8570   31.9850   48.3740 P   0  0  2  0  0  0  0  0  0  0  0  0
   45.2130   31.8220   49.9240 O   0  0  0  0  0  0  0  0  0  0  0  0
   44.2960   31.4200   49.8950 H   0  0  0  0  0  0  0  0  0  0  0  0
   47.5010   32.1790   48.3920 O   0  0  0  0  0  0  0  0  0  0  0  0
   48.4870   31.3530   48.7950 C   0  0  1  0  0  3  0  0  0  0  0  0
   49.4800   31.9440   49.3470 O   0  0  0  0  0  0  0  0  0  0  0  0
   49.3340   30.2030   49.0960 C   0  0  0  0  0  0  0  0  0  0  0  0
   49.0920   28.9480   48.2840 C   0  0  0  0  0  2  0  0  0  0  0  0
   50.3680   29.6990   48.1650 C   0  0  0  0  0  2  0  0  0  0  0  0
  1 12  1  0  0  0  0
  2  3  1  0  0  0  0
  3  9  1  0  0  0  0
  3  4  2  0  0  0  0
  4  1  1  0  0  0  0
  5  4  1  0  0  0  0
  6  5  2  0  0  0  0
  7  6  1  0  0  0  0
  7  2  2  0  0  0  0
  8  2  1  0  0  0  0
 10  6  1  0  0  0  0
 12 11  2  6  0  0  0
 12 15  1  0  0  0  0
 12 13  1  0  0  0  0
 14 13  1  0  0  0  0
 16 15  1  1  0  0  0
 16 18  1  0  0  0  0
 16 17  1  0  0  0  0
 18 17  1  0  0  0  0
 19 18  1  0  0  0  0
 20 19  1  0  0  0  0
 20 18  1  0  0  0  0
M  END
>  <minimizedAffinity>
-4.39538431

>  <minimizedRMSD>
0.87645191

$$$$
