
 OpenBabel03252501373D

 28 29  0  0  0  0  0  0  0  0999 V2000
   44.3880   34.8720   42.1300 C   0  0  0  0  0  0  0  0  0  0  0  0
   44.2120   33.6420   42.4390 O   0  0  0  0  0  0  0  0  0  0  0  0
   45.3410   35.5100   42.9770 N   0  0  0  0  0  0  0  0  0  0  0  0
   45.6060   36.4950   42.8280 H   0  0  0  0  0  0  0  0  0  0  0  0
   45.7970   34.5600   43.9800 C   0  0  0  0  0  0  0  0  0  0  0  0
   45.3070   34.4540   45.2520 C   0  0  0  0  0  0  0  0  0  0  0  0
   45.8760   33.4830   46.0510 C   0  0  0  0  0  0  0  0  0  0  0  0
   46.8620   32.7170   45.5250 N   0  0  0  0  0  0  0  0  0  0  0  0
   47.3100   32.8540   44.2710 C   0  0  0  0  0  0  0  0  0  0  0  0
   46.7740   33.7980   43.4610 N   0  0  0  0  0  0  0  0  0  0  0  0
   45.4990   33.3880   47.0600 H   0  0  0  0  0  0  0  0  0  0  0  0
   48.1150   32.1940   43.9130 H   0  0  0  0  0  0  0  0  0  0  0  0
   44.2770   35.3360   45.6310 N   0  0  0  0  0  0  0  0  0  0  0  0
   44.4710   36.3640   45.6840 H   0  0  0  0  0  0  0  0  0  0  0  0
   43.3360   34.9690   45.8570 H   0  0  0  0  0  0  0  0  0  0  0  0
   43.7450   35.5550   41.0900 O   0  0  0  0  0  0  0  0  0  0  0  0
   43.6470   33.6180   38.8570 Cl  0  0  0  0  0  0  0  0  0  0  0  0
   42.2860   34.2930   39.7300 C   0  0  0  0  0  0  0  0  0  0  0  0
   42.4330   35.1980   40.7670 C   0  0  0  0  0  0  0  0  0  0  0  0
   41.3250   35.6910   41.4140 C   0  0  0  0  0  0  0  0  0  0  0  0
   40.0420   35.3270   41.0820 C   0  0  0  0  0  0  0  0  0  0  0  0
   39.8670   34.4140   40.0390 C   0  0  0  0  0  0  0  0  0  0  0  0
   38.2560   33.8920   39.5460 Cl  0  0  0  0  0  0  0  0  0  0  0  0
   40.9990   33.9410   39.4130 C   0  0  0  0  0  0  0  0  0  0  0  0
   41.4920   36.3970   42.2180 H   0  0  0  0  0  0  0  0  0  0  0  0
   39.1820   35.7320   41.6090 H   0  0  0  0  0  0  0  0  0  0  0  0
   40.7290   32.7690   38.0760 S   0  0  0  0  0  0  0  0  0  0  0  0
   40.6170   31.4560   38.6260 H   0  0  0  0  0  0  0  0  0  0  0  0
  1  2  2  0  0  0  0
  1  3  1  0  0  0  0
  3  5  1  0  0  0  0
  4  3  1  0  0  0  0
  5  6  1  0  0  0  0
  6 13  1  0  0  0  0
  6  7  2  0  0  0  0
  7 11  1  0  0  0  0
  8  7  1  0  0  0  0
  9  8  2  0  0  0  0
 10  5  2  0  0  0  0
 10  9  1  0  0  0  0
 12  9  1  0  0  0  0
 13 14  1  0  0  0  0
 13 15  1  0  0  0  0
 16  1  1  0  0  0  0
 17 18  1  0  0  0  0
 18 19  1  0  0  0  0
 19 16  1  0  0  0  0
 19 20  2  0  0  0  0
 20 25  1  0  0  0  0
 21 20  1  0  0  0  0
 21 26  1  0  0  0  0
 22 21  2  0  0  0  0
 23 22  1  0  0  0  0
 24 18  2  0  0  0  0
 24 22  1  0  0  0  0
 27 28  1  0  0  0  0
 27 24  1  0  0  0  0
M  END
>  <minimizedAffinity>
-5.92590189

>  <minimizedRMSD>
0.20002839

$$$$
