
 OpenBabel03252507443D

 24 25  0  0  0  0  0  0  0  0999 V2000
   38.8310   29.4890   42.8240 C   0  0  0  0  0  0  0  0  0  0  0  0
   39.6630   28.9410   42.3010 H   0  0  0  0  0  0  0  0  0  0  0  0
   39.3070   30.1140   43.5680 H   0  0  0  0  0  0  0  0  0  0  0  0
   38.1010   30.2610   41.8020 C   0  0  0  0  0  0  0  0  0  0  0  0
   38.8150   31.2440   41.1190 C   0  0  0  0  0  0  0  0  0  0  0  0
   38.1640   31.9960   40.1470 C   0  0  0  0  0  0  0  0  0  0  0  0
   36.8530   31.7460   39.8970 N   0  0  0  0  0  0  0  0  0  0  0  0
   36.1910   30.7820   40.5800 C   0  0  0  0  0  0  0  0  0  0  0  0
   36.8200   30.0700   41.5060 N   0  0  0  0  0  0  0  0  0  0  0  0
   38.7060   32.7640   39.6080 H   0  0  0  0  0  0  0  0  0  0  0  0
   35.1500   30.6540   40.3140 H   0  0  0  0  0  0  0  0  0  0  0  0
   40.5550   31.5330   41.4930 S   0  0  0  0  0  0  0  0  0  0  0  0
   41.3080   31.5550   40.3020 H   0  0  0  0  0  0  0  0  0  0  0  0
   37.9920   28.4430   43.4970 C   0  0  0  0  0  0  0  0  0  0  0  0
   38.1010   28.5320   44.5970 H   0  0  0  0  0  0  0  0  0  0  0  0
   36.9330   28.6060   43.2150 H   0  0  0  0  0  0  0  0  0  0  0  0
   38.4100   27.0440   43.1550 C   0  0  0  0  0  0  0  0  0  0  0  0
   39.6430   26.5330   43.6800 C   0  0  0  0  0  0  0  0  0  0  0  0
   39.7060   24.8240   42.9930 S   0  0  0  0  0  0  0  0  0  0  0  0
   38.0510   25.1130   42.1190 C   0  0  0  0  0  0  0  0  0  0  0  0
   37.7830   26.1700   42.4050 N   0  0  0  0  0  0  0  0  0  0  0  0
   40.4090   26.9210   44.3060 H   0  0  0  0  0  0  0  0  0  0  0  0
   36.9070   24.0350   40.9710 S   0  0  0  0  0  0  0  0  0  0  0  0
   37.0110   24.7670   39.7880 H   0  0  0  0  0  0  0  0  0  0  0  0
  1 14  1  0  0  0  0
  1  3  1  0  0  0  0
  2  1  1  0  0  0  0
  4  1  1  0  0  0  0
  5 12  1  0  0  0  0
  5  4  2  0  0  0  0
  6  5  1  0  0  0  0
  7  6  2  0  0  0  0
  7  8  1  0  0  0  0
  8  9  2  0  0  0  0
  9  4  1  0  0  0  0
 10  6  1  0  0  0  0
 11  8  1  0  0  0  0
 13 12  1  0  0  0  0
 14 15  1  0  0  0  0
 16 14  1  0  0  0  0
 17 14  1  0  0  0  0
 17 18  2  0  0  0  0
 18 22  1  0  0  0  0
 19 18  1  0  0  0  0
 20 21  2  0  0  0  0
 20 19  1  0  0  0  0
 21 17  1  0  0  0  0
 23 20  1  0  0  0  0
 24 23  1  0  0  0  0
M  END
>  <minimizedAffinity>
-4.16296959

$$$$

 OpenBabel03252507443D

 24 25  0  0  0  0  0  0  0  0999 V2000
   37.0200   27.2360   42.2970 C   0  0  0  0  0  0  0  0  0  0  0  0
   37.0490   27.3910   41.1820 H   0  0  0  0  0  0  0  0  0  0  0  0
   36.1070   26.6940   42.5000 H   0  0  0  0  0  0  0  0  0  0  0  0
   38.2330   26.4860   42.6700 C   0  0  0  0  0  0  0  0  0  0  0  0
   38.3040   25.1540   42.2660 C   0  0  0  0  0  0  0  0  0  0  0  0
   39.4310   24.4100   42.5970 C   0  0  0  0  0  0  0  0  0  0  0  0
   40.4240   25.0070   43.3040 N   0  0  0  0  0  0  0  0  0  0  0  0
   40.3210   26.3040   43.6800 C   0  0  0  0  0  0  0  0  0  0  0  0
   39.2420   27.0070   43.3600 N   0  0  0  0  0  0  0  0  0  0  0  0
   39.5000   23.3720   42.2900 H   0  0  0  0  0  0  0  0  0  0  0  0
   41.1600   26.6950   44.2400 H   0  0  0  0  0  0  0  0  0  0  0  0
   36.9540   24.4120   41.3280 S   0  0  0  0  0  0  0  0  0  0  0  0
   37.4610   23.7540   40.1900 H   0  0  0  0  0  0  0  0  0  0  0  0
   36.9500   28.6040   42.9110 C   0  0  0  0  0  0  0  0  0  0  0  0
   35.9190   28.7940   43.2740 H   0  0  0  0  0  0  0  0  0  0  0  0
   37.6560   28.6430   43.7640 H   0  0  0  0  0  0  0  0  0  0  0  0
   37.2500   29.7030   41.9370 C   0  0  0  0  0  0  0  0  0  0  0  0
   36.2120   30.1720   41.0660 C   0  0  0  0  0  0  0  0  0  0  0  0
   37.0570   31.4870   40.0890 S   0  0  0  0  0  0  0  0  0  0  0  0
   38.6620   31.1610   41.0370 C   0  0  0  0  0  0  0  0  0  0  0  0
   38.3850   30.3330   41.7510 N   0  0  0  0  0  0  0  0  0  0  0  0
   35.1900   29.9220   40.9170 H   0  0  0  0  0  0  0  0  0  0  0  0
   40.4570   31.9160   40.9840 S   0  0  0  0  0  0  0  0  0  0  0  0
   41.1630   30.8000   40.5350 H   0  0  0  0  0  0  0  0  0  0  0  0
  1  3  1  0  0  0  0
  1  4  1  0  0  0  0
  1 14  1  0  0  0  0
  2  1  1  0  0  0  0
  4  9  1  0  0  0  0
  5  6  1  0  0  0  0
  5  4  2  0  0  0  0
  6  7  2  0  0  0  0
  7  8  1  0  0  0  0
  8 11  1  0  0  0  0
  9  8  2  0  0  0  0
 10  6  1  0  0  0  0
 12  5  1  0  0  0  0
 13 12  1  0  0  0  0
 14 15  1  0  0  0  0
 14 16  1  0  0  0  0
 17 14  1  0  0  0  0
 18 17  2  0  0  0  0
 19 20  1  0  0  0  0
 19 18  1  0  0  0  0
 20 21  2  0  0  0  0
 21 17  1  0  0  0  0
 22 18  1  0  0  0  0
 23 20  1  0  0  0  0
 24 23  1  0  0  0  0
M  END
>  <minimizedAffinity>
-4.05599356

$$$$

 OpenBabel03252507443D

 24 25  0  0  0  0  0  0  0  0999 V2000
   37.5990   28.6030   43.2510 C   0  0  0  0  0  0  0  0  0  0  0  0
   38.6640   28.2630   43.3900 H   0  0  0  0  0  0  0  0  0  0  0  0
   37.2770   28.9750   44.2150 H   0  0  0  0  0  0  0  0  0  0  0  0
   37.6000   29.6390   42.2030 C   0  0  0  0  0  0  0  0  0  0  0  0
   38.8420   30.0930   41.7610 C   0  0  0  0  0  0  0  0  0  0  0  0
   38.8890   31.0710   40.7730 C   0  0  0  0  0  0  0  0  0  0  0  0
   37.7210   31.5500   40.2730 N   0  0  0  0  0  0  0  0  0  0  0  0
   36.5330   31.0850   40.7260 C   0  0  0  0  0  0  0  0  0  0  0  0
   36.4970   30.1530   41.6690 N   0  0  0  0  0  0  0  0  0  0  0  0
   39.8470   31.4340   40.4190 H   0  0  0  0  0  0  0  0  0  0  0  0
   35.6560   31.5260   40.2700 H   0  0  0  0  0  0  0  0  0  0  0  0
   40.3620   29.4200   42.4610 S   0  0  0  0  0  0  0  0  0  0  0  0
   41.2400   29.0350   41.4290 H   0  0  0  0  0  0  0  0  0  0  0  0
   36.8100   27.3810   42.8840 C   0  0  0  0  0  0  0  0  0  0  0  0
   36.2400   27.0290   43.7690 H   0  0  0  0  0  0  0  0  0  0  0  0
   36.1060   27.6480   42.0720 H   0  0  0  0  0  0  0  0  0  0  0  0
   37.6710   26.2270   42.4670 C   0  0  0  0  0  0  0  0  0  0  0  0
   37.0830   25.1350   41.7490 C   0  0  0  0  0  0  0  0  0  0  0  0
   38.5110   24.0030   41.4750 S   0  0  0  0  0  0  0  0  0  0  0  0
   39.6470   25.2160   42.3830 C   0  0  0  0  0  0  0  0  0  0  0  0
   38.9560   26.0580   42.6740 N   0  0  0  0  0  0  0  0  0  0  0  0
   36.1040   24.9070   41.4020 H   0  0  0  0  0  0  0  0  0  0  0  0
   41.5420   25.2370   42.8320 S   0  0  0  0  0  0  0  0  0  0  0  0
   41.4500   25.1660   44.2220 H   0  0  0  0  0  0  0  0  0  0  0  0
  1  2  1  0  0  0  0
  1  3  1  0  0  0  0
  4  1  1  0  0  0  0
  5  4  1  0  0  0  0
  5 12  1  0  0  0  0
  6  5  2  0  0  0  0
  7  8  2  0  0  0  0
  7  6  1  0  0  0  0
  8  9  1  0  0  0  0
  9  4  2  0  0  0  0
 10  6  1  0  0  0  0
 11  8  1  0  0  0  0
 13 12  1  0  0  0  0
 14  1  1  0  0  0  0
 14 15  1  0  0  0  0
 16 14  1  0  0  0  0
 17 21  1  0  0  0  0
 17 14  1  0  0  0  0
 18 17  2  0  0  0  0
 19 18  1  0  0  0  0
 19 20  1  0  0  0  0
 20 21  2  0  0  0  0
 20 23  1  0  0  0  0
 22 18  1  0  0  0  0
 23 24  1  0  0  0  0
M  END
>  <minimizedAffinity>
-4.02373791

$$$$

 OpenBabel03252507443D

 24 25  0  0  0  0  0  0  0  0999 V2000
   36.2380   28.1060   41.9470 C   0  0  0  0  0  0  0  0  0  0  0  0
   35.2520   28.3090   42.4500 H   0  0  0  0  0  0  0  0  0  0  0  0
   36.1320   27.1460   41.4590 H   0  0  0  0  0  0  0  0  0  0  0  0
   36.4870   29.2100   41.0030 C   0  0  0  0  0  0  0  0  0  0  0  0
   36.6310   28.8740   39.6580 C   0  0  0  0  0  0  0  0  0  0  0  0
   36.8680   29.8860   38.7330 C   0  0  0  0  0  0  0  0  0  0  0  0
   36.9520   31.1670   39.1740 N   0  0  0  0  0  0  0  0  0  0  0  0
   36.8070   31.4560   40.4890 C   0  0  0  0  0  0  0  0  0  0  0  0
   36.5810   30.4850   41.3650 N   0  0  0  0  0  0  0  0  0  0  0  0
   36.9820   29.6410   37.6840 H   0  0  0  0  0  0  0  0  0  0  0  0
   36.8890   32.5040   40.7480 H   0  0  0  0  0  0  0  0  0  0  0  0
   36.5100   27.1550   39.1280 S   0  0  0  0  0  0  0  0  0  0  0  0
   35.6210   27.0450   38.0410 H   0  0  0  0  0  0  0  0  0  0  0  0
   37.2600   28.0120   43.0410 C   0  0  0  0  0  0  0  0  0  0  0  0
   37.9360   28.8900   42.9920 H   0  0  0  0  0  0  0  0  0  0  0  0
   36.7320   28.0030   44.0150 H   0  0  0  0  0  0  0  0  0  0  0  0
   38.1450   26.8080   42.9190 C   0  0  0  0  0  0  0  0  0  0  0  0
   39.3590   26.7480   43.6800 C   0  0  0  0  0  0  0  0  0  0  0  0
   40.0700   25.1180   43.1950 S   0  0  0  0  0  0  0  0  0  0  0  0
   38.5930   24.8140   42.0500 C   0  0  0  0  0  0  0  0  0  0  0  0
   37.9640   25.7410   42.1780 N   0  0  0  0  0  0  0  0  0  0  0  0
   39.8410   27.3940   44.3730 H   0  0  0  0  0  0  0  0  0  0  0  0
   38.0650   23.3670   40.8580 S   0  0  0  0  0  0  0  0  0  0  0  0
   38.1500   24.0330   39.6360 H   0  0  0  0  0  0  0  0  0  0  0  0
  1  2  1  0  0  0  0
  1 14  1  0  0  0  0
  3  1  1  0  0  0  0
  4  9  1  0  0  0  0
  4  1  1  0  0  0  0
  5  4  2  0  0  0  0
  6  7  2  0  0  0  0
  6  5  1  0  0  0  0
  7  8  1  0  0  0  0
  8 11  1  0  0  0  0
  8  9  2  0  0  0  0
 10  6  1  0  0  0  0
 12  5  1  0  0  0  0
 13 12  1  0  0  0  0
 14 16  1  0  0  0  0
 15 14  1  0  0  0  0
 17 14  1  0  0  0  0
 17 18  2  0  0  0  0
 18 22  1  0  0  0  0
 19 18  1  0  0  0  0
 20 21  2  0  0  0  0
 20 19  1  0  0  0  0
 21 17  1  0  0  0  0
 23 20  1  0  0  0  0
 24 23  1  0  0  0  0
M  END
>  <minimizedAffinity>
-3.95664406

$$$$

 OpenBabel03252507443D

 24 25  0  0  0  0  0  0  0  0999 V2000
   39.9060   30.7280   41.1070 C   0  0  0  0  0  0  0  0  0  0  0  0
   39.6450   29.7790   40.5590 H   0  0  0  0  0  0  0  0  0  0  0  0
   40.9570   30.9020   40.9160 H   0  0  0  0  0  0  0  0  0  0  0  0
   39.0380   31.7950   40.5800 C   0  0  0  0  0  0  0  0  0  0  0  0
   38.0560   31.4200   39.6640 C   0  0  0  0  0  0  0  0  0  0  0  0
   37.2160   32.3970   39.1410 C   0  0  0  0  0  0  0  0  0  0  0  0
   37.3800   33.6840   39.5410 N   0  0  0  0  0  0  0  0  0  0  0  0
   38.3450   34.0110   40.4340 C   0  0  0  0  0  0  0  0  0  0  0  0
   39.1430   33.0730   40.9280 N   0  0  0  0  0  0  0  0  0  0  0  0
   36.4480   32.1210   38.4270 H   0  0  0  0  0  0  0  0  0  0  0  0
   38.4010   35.0600   40.6940 H   0  0  0  0  0  0  0  0  0  0  0  0
   37.8830   29.6950   39.1670 S   0  0  0  0  0  0  0  0  0  0  0  0
   36.5370   29.2950   39.2760 H   0  0  0  0  0  0  0  0  0  0  0  0
   39.6910   30.4460   42.5650 C   0  0  0  0  0  0  0  0  0  0  0  0
   40.6730   30.3340   43.0690 H   0  0  0  0  0  0  0  0  0  0  0  0
   39.1400   31.2980   43.0100 H   0  0  0  0  0  0  0  0  0  0  0  0
   38.9550   29.1650   42.8150 C   0  0  0  0  0  0  0  0  0  0  0  0
   37.5240   29.1820   42.9010 C   0  0  0  0  0  0  0  0  0  0  0  0
   37.1070   27.4140   43.2090 S   0  0  0  0  0  0  0  0  0  0  0  0
   38.9470   26.9720   43.1660 C   0  0  0  0  0  0  0  0  0  0  0  0
   39.4530   27.9620   42.9770 N   0  0  0  0  0  0  0  0  0  0  0  0
   36.7780   29.9360   42.8270 H   0  0  0  0  0  0  0  0  0  0  0  0
   39.9600   25.3210   43.3670 S   0  0  0  0  0  0  0  0  0  0  0  0
   40.6400   25.6110   44.5500 H   0  0  0  0  0  0  0  0  0  0  0  0
  1 14  1  0  0  0  0
  2  1  1  0  0  0  0
  3  1  1  0  0  0  0
  4  9  1  0  0  0  0
  4  1  1  0  0  0  0
  5  4  2  0  0  0  0
  6  7  2  0  0  0  0
  6  5  1  0  0  0  0
  7  8  1  0  0  0  0
  8 11  1  0  0  0  0
  8  9  2  0  0  0  0
 10  6  1  0  0  0  0
 12 13  1  0  0  0  0
 12  5  1  0  0  0  0
 14 17  1  0  0  0  0
 14 16  1  0  0  0  0
 14 15  1  0  0  0  0
 17 18  2  0  0  0  0
 17 21  1  0  0  0  0
 18 19  1  0  0  0  0
 20 19  1  0  0  0  0
 20 23  1  0  0  0  0
 21 20  2  0  0  0  0
 22 18  1  0  0  0  0
 23 24  1  0  0  0  0
M  END
>  <minimizedAffinity>
-3.9394865

$$$$

 OpenBabel03252507443D

 24 25  0  0  0  0  0  0  0  0999 V2000
   40.0540   30.7170   41.4700 C   0  0  0  0  0  0  0  0  0  0  0  0
   39.8160   29.8470   40.7970 H   0  0  0  0  0  0  0  0  0  0  0  0
   41.1320   30.8020   41.4780 H   0  0  0  0  0  0  0  0  0  0  0  0
   39.3850   31.9050   40.9100 C   0  0  0  0  0  0  0  0  0  0  0  0
   40.1860   33.0120   40.6330 C   0  0  0  0  0  0  0  0  0  0  0  0
   39.5940   34.1550   40.1040 C   0  0  0  0  0  0  0  0  0  0  0  0
   38.2560   34.1520   39.8770 N   0  0  0  0  0  0  0  0  0  0  0  0
   37.5100   33.0580   40.1580 C   0  0  0  0  0  0  0  0  0  0  0  0
   38.0820   31.9720   40.6630 N   0  0  0  0  0  0  0  0  0  0  0  0
   40.2040   35.0230   39.8830 H   0  0  0  0  0  0  0  0  0  0  0  0
   36.4520   33.1480   39.9440 H   0  0  0  0  0  0  0  0  0  0  0  0
   41.9590   32.9600   40.9550 S   0  0  0  0  0  0  0  0  0  0  0  0
   42.6700   33.4010   39.8220 H   0  0  0  0  0  0  0  0  0  0  0  0
   39.5610   30.3410   42.8370 C   0  0  0  0  0  0  0  0  0  0  0  0
   40.4240   30.2340   43.5250 H   0  0  0  0  0  0  0  0  0  0  0  0
   38.8920   31.1450   43.2030 H   0  0  0  0  0  0  0  0  0  0  0  0
   38.8490   29.0220   42.8630 C   0  0  0  0  0  0  0  0  0  0  0  0
   37.4250   28.9890   42.6990 C   0  0  0  0  0  0  0  0  0  0  0  0
   37.0400   27.1890   42.8040 S   0  0  0  0  0  0  0  0  0  0  0  0
   38.8780   26.8100   43.0520 C   0  0  0  0  0  0  0  0  0  0  0  0
   39.3640   27.8270   43.0240 N   0  0  0  0  0  0  0  0  0  0  0  0
   36.6710   29.7230   42.5490 H   0  0  0  0  0  0  0  0  0  0  0  0
   39.9120   25.1800   43.3110 S   0  0  0  0  0  0  0  0  0  0  0  0
   40.3660   25.3990   44.6110 H   0  0  0  0  0  0  0  0  0  0  0  0
  1  3  1  0  0  0  0
  1 14  1  0  0  0  0
  2  1  1  0  0  0  0
  4  1  1  0  0  0  0
  5  4  2  0  0  0  0
  5 12  1  0  0  0  0
  6  5  1  0  0  0  0
  7  6  2  0  0  0  0
  7  8  1  0  0  0  0
  8  9  2  0  0  0  0
  9  4  1  0  0  0  0
 10  6  1  0  0  0  0
 11  8  1  0  0  0  0
 13 12  1  0  0  0  0
 14 17  1  0  0  0  0
 14 16  1  0  0  0  0
 14 15  1  0  0  0  0
 17 21  1  0  0  0  0
 18 19  1  0  0  0  0
 18 17  2  0  0  0  0
 19 20  1  0  0  0  0
 20 23  1  0  0  0  0
 21 20  2  0  0  0  0
 22 18  1  0  0  0  0
 23 24  1  0  0  0  0
M  END
>  <minimizedAffinity>
-3.93915868

$$$$

 OpenBabel03252507443D

 24 25  0  0  0  0  0  0  0  0999 V2000
   37.1300   27.6750   42.8790 C   0  0  0  0  0  0  0  0  0  0  0  0
   36.3940   27.4970   43.7120 H   0  0  0  0  0  0  0  0  0  0  0  0
   37.8500   28.3840   43.2650 H   0  0  0  0  0  0  0  0  0  0  0  0
   37.7290   26.3730   42.5350 C   0  0  0  0  0  0  0  0  0  0  0  0
   39.1140   26.2640   42.6410 C   0  0  0  0  0  0  0  0  0  0  0  0
   39.7200   25.0520   42.3250 C   0  0  0  0  0  0  0  0  0  0  0  0
   38.9390   24.0170   41.9220 N   0  0  0  0  0  0  0  0  0  0  0  0
   37.5960   24.1600   41.8300 C   0  0  0  0  0  0  0  0  0  0  0  0
   37.0260   25.3190   42.1330 N   0  0  0  0  0  0  0  0  0  0  0  0
   40.7970   24.9520   42.4030 H   0  0  0  0  0  0  0  0  0  0  0  0
   37.0560   23.2820   41.5000 H   0  0  0  0  0  0  0  0  0  0  0  0
   40.1020   27.6720   43.1830 S   0  0  0  0  0  0  0  0  0  0  0  0
   40.9820   27.2790   44.2100 H   0  0  0  0  0  0  0  0  0  0  0  0
   36.3550   28.2940   41.7540 C   0  0  0  0  0  0  0  0  0  0  0  0
   36.3050   27.5820   40.9040 H   0  0  0  0  0  0  0  0  0  0  0  0
   35.3310   28.5160   42.1130 H   0  0  0  0  0  0  0  0  0  0  0  0
   36.9960   29.5350   41.2100 C   0  0  0  0  0  0  0  0  0  0  0  0
   36.2050   30.7200   41.0470 C   0  0  0  0  0  0  0  0  0  0  0  0
   37.4150   31.9340   40.3680 S   0  0  0  0  0  0  0  0  0  0  0  0
   38.7720   30.6150   40.4280 C   0  0  0  0  0  0  0  0  0  0  0  0
   38.2420   29.7090   40.8400 N   0  0  0  0  0  0  0  0  0  0  0  0
   35.1880   30.9730   41.2280 H   0  0  0  0  0  0  0  0  0  0  0  0
   40.6610   30.5790   39.9580 S   0  0  0  0  0  0  0  0  0  0  0  0
   40.6180   29.6720   38.8990 H   0  0  0  0  0  0  0  0  0  0  0  0
  1  3  1  0  0  0  0
  1  2  1  0  0  0  0
  4  5  1  0  0  0  0
  4  1  1  0  0  0  0
  5 12  1  0  0  0  0
  6 10  1  0  0  0  0
  6  5  2  0  0  0  0
  7  6  1  0  0  0  0
  8  7  2  0  0  0  0
  8  9  1  0  0  0  0
  9  4  2  0  0  0  0
 11  8  1  0  0  0  0
 12 13  1  0  0  0  0
 14 16  1  0  0  0  0
 14  1  1  0  0  0  0
 15 14  1  0  0  0  0
 17 14  1  0  0  0  0
 18 17  2  0  0  0  0
 18 22  1  0  0  0  0
 19 20  1  0  0  0  0
 19 18  1  0  0  0  0
 20 21  2  0  0  0  0
 21 17  1  0  0  0  0
 23 20  1  0  0  0  0
 24 23  1  0  0  0  0
M  END
>  <minimizedAffinity>
-3.92473197

$$$$

 OpenBabel03252507443D

 24 25  0  0  0  0  0  0  0  0999 V2000
   36.6730   31.1090   39.6640 C   0  0  0  0  0  0  0  0  0  0  0  0
   35.7860   31.6230   39.1980 H   0  0  0  0  0  0  0  0  0  0  0  0
   36.8730   30.2430   39.0480 H   0  0  0  0  0  0  0  0  0  0  0  0
   37.7840   32.0760   39.6820 C   0  0  0  0  0  0  0  0  0  0  0  0
   39.0000   31.6550   39.1460 C   0  0  0  0  0  0  0  0  0  0  0  0
   40.0760   32.5360   39.1440 C   0  0  0  0  0  0  0  0  0  0  0  0
   39.9050   33.7780   39.6640 N   0  0  0  0  0  0  0  0  0  0  0  0
   38.7090   34.1530   40.1760 C   0  0  0  0  0  0  0  0  0  0  0  0
   37.6870   33.3060   40.1750 N   0  0  0  0  0  0  0  0  0  0  0  0
   41.0280   32.2230   38.7300 H   0  0  0  0  0  0  0  0  0  0  0  0
   38.6650   35.1610   40.5690 H   0  0  0  0  0  0  0  0  0  0  0  0
   39.1710   29.9930   38.4670 S   0  0  0  0  0  0  0  0  0  0  0  0
   39.7560   30.0520   37.1870 H   0  0  0  0  0  0  0  0  0  0  0  0
   36.2370   30.6730   41.0320 C   0  0  0  0  0  0  0  0  0  0  0  0
   36.6300   31.3830   41.7890 H   0  0  0  0  0  0  0  0  0  0  0  0
   35.1300   30.6710   41.0650 H   0  0  0  0  0  0  0  0  0  0  0  0
   36.7710   29.3260   41.4180 C   0  0  0  0  0  0  0  0  0  0  0  0
   37.5060   29.1870   42.6410 C   0  0  0  0  0  0  0  0  0  0  0  0
   37.9340   27.3940   42.6630 S   0  0  0  0  0  0  0  0  0  0  0  0
   37.0400   27.1600   41.0110 C   0  0  0  0  0  0  0  0  0  0  0  0
   36.6600   28.1930   40.7670 N   0  0  0  0  0  0  0  0  0  0  0  0
   37.7990   29.8490   43.4200 H   0  0  0  0  0  0  0  0  0  0  0  0
   36.7190   25.6410   39.8360 S   0  0  0  0  0  0  0  0  0  0  0  0
   37.4620   26.0460   38.7270 H   0  0  0  0  0  0  0  0  0  0  0  0
  1  4  1  0  0  0  0
  1 14  1  0  0  0  0
  2  1  1  0  0  0  0
  3  1  1  0  0  0  0
  4  9  1  0  0  0  0
  5  4  2  0  0  0  0
  6  5  1  0  0  0  0
  6  7  2  0  0  0  0
  7  8  1  0  0  0  0
  8 11  1  0  0  0  0
  9  8  2  0  0  0  0
 10  6  1  0  0  0  0
 12  5  1  0  0  0  0
 13 12  1  0  0  0  0
 14 16  1  0  0  0  0
 14 17  1  0  0  0  0
 14 15  1  0  0  0  0
 17 18  2  0  0  0  0
 18 19  1  0  0  0  0
 18 22  1  0  0  0  0
 20 19  1  0  0  0  0
 21 20  2  0  0  0  0
 21 17  1  0  0  0  0
 23 20  1  0  0  0  0
 24 23  1  0  0  0  0
M  END
>  <minimizedAffinity>
-3.88018751

$$$$

 OpenBabel03252507443D

 24 25  0  0  0  0  0  0  0  0999 V2000
   36.9710   27.4920   42.8260 C   0  0  0  0  0  0  0  0  0  0  0  0
   37.9260   27.7710   43.3540 H   0  0  0  0  0  0  0  0  0  0  0  0
   36.2210   27.3960   43.5990 H   0  0  0  0  0  0  0  0  0  0  0  0
   36.6720   28.5640   41.8600 C   0  0  0  0  0  0  0  0  0  0  0  0
   37.5820   29.6170   41.7790 C   0  0  0  0  0  0  0  0  0  0  0  0
   37.3370   30.6500   40.8800 C   0  0  0  0  0  0  0  0  0  0  0  0
   36.2180   30.5960   40.1130 N   0  0  0  0  0  0  0  0  0  0  0  0
   35.3560   29.5580   40.2190 C   0  0  0  0  0  0  0  0  0  0  0  0
   35.5970   28.5760   41.0790 N   0  0  0  0  0  0  0  0  0  0  0  0
   38.0350   31.4750   40.8050 H   0  0  0  0  0  0  0  0  0  0  0  0
   34.4920   29.6010   39.5680 H   0  0  0  0  0  0  0  0  0  0  0  0
   39.0520   29.6350   42.8220 S   0  0  0  0  0  0  0  0  0  0  0  0
   40.1960   29.8880   42.0400 H   0  0  0  0  0  0  0  0  0  0  0  0
   37.2180   26.1590   42.1840 C   0  0  0  0  0  0  0  0  0  0  0  0
   36.7460   25.3610   42.7930 H   0  0  0  0  0  0  0  0  0  0  0  0
   36.7680   26.1680   41.1710 H   0  0  0  0  0  0  0  0  0  0  0  0
   38.6720   25.8050   42.1020 C   0  0  0  0  0  0  0  0  0  0  0  0
   39.4600   25.7920   43.3010 C   0  0  0  0  0  0  0  0  0  0  0  0
   41.1310   25.3120   42.6910 S   0  0  0  0  0  0  0  0  0  0  0  0
   40.4600   25.2150   40.9240 C   0  0  0  0  0  0  0  0  0  0  0  0
   39.3720   25.4880   41.0390 N   0  0  0  0  0  0  0  0  0  0  0  0
   39.2650   25.9860   44.3280 H   0  0  0  0  0  0  0  0  0  0  0  0
   41.2350   24.7850   39.1900 S   0  0  0  0  0  0  0  0  0  0  0  0
   41.1050   26.0250   38.5650 H   0  0  0  0  0  0  0  0  0  0  0  0
  1  2  1  0  0  0  0
  1  3  1  0  0  0  0
  4  1  1  0  0  0  0
  5  4  1  0  0  0  0
  5 12  1  0  0  0  0
  6  5  2  0  0  0  0
  7  8  2  0  0  0  0
  7  6  1  0  0  0  0
  8  9  1  0  0  0  0
  9  4  2  0  0  0  0
 10  6  1  0  0  0  0
 11  8  1  0  0  0  0
 13 12  1  0  0  0  0
 14 15  1  0  0  0  0
 14  1  1  0  0  0  0
 16 14  1  0  0  0  0
 17 14  1  0  0  0  0
 17 18  2  0  0  0  0
 18 22  1  0  0  0  0
 19 18  1  0  0  0  0
 20 21  2  0  0  0  0
 20 19  1  0  0  0  0
 21 17  1  0  0  0  0
 23 20  1  0  0  0  0
 24 23  1  0  0  0  0
M  END
>  <minimizedAffinity>
-3.74331403

$$$$
