
 OpenBabel03242517183D

 26 27  0  0  0  0  0  0  0  0999 V2000
   36.7500   26.7350   43.0430 C   0  0  0  0  0  0  0  0  0  0  0  0
   36.8050   26.5430   44.1480 H   0  0  0  0  0  0  0  0  0  0  0  0
   35.6660   26.8600   42.7870 H   0  0  0  0  0  0  0  0  0  0  0  0
   39.2820   25.6840   43.5450 F   0  0  0  0  0  0  0  0  0  0  0  0
   38.5740   25.1360   42.5320 C   0  0  0  0  0  0  0  0  0  0  0  0
   37.2930   25.6400   42.2490 C   0  0  0  0  0  0  0  0  0  0  0  0
   36.6850   25.0060   41.2070 C   0  0  0  0  0  0  0  0  0  0  0  0
   37.1820   23.9680   40.4430 C   0  0  0  0  0  0  0  0  0  0  0  0
   38.4630   23.5360   40.8000 C   0  0  0  0  0  0  0  0  0  0  0  0
   39.1810   24.0930   41.8310 C   0  0  0  0  0  0  0  0  0  0  0  0
   35.6930   25.3320   40.9200 H   0  0  0  0  0  0  0  0  0  0  0  0
   36.6200   23.5270   39.6320 H   0  0  0  0  0  0  0  0  0  0  0  0
   38.9090   22.7220   40.2360 H   0  0  0  0  0  0  0  0  0  0  0  0
   40.1710   23.7700   42.1190 H   0  0  0  0  0  0  0  0  0  0  0  0
   36.8620   28.8850   41.8590 C   0  0  0  0  0  3  0  0  0  0  0  0
   37.4020   28.0290   42.6860 C   0  0  0  0  0  3  0  0  0  0  0  0
   38.7770   30.5190   41.7620 C   0  0  0  0  0  0  0  0  0  0  0  0
   37.4350   30.1600   41.4660 C   0  0  0  0  0  0  0  0  0  0  0  0
   36.6750   31.0900   40.7730 C   0  0  0  0  0  0  0  0  0  0  0  0
   37.2690   32.2710   40.4320 N   0  0  0  0  0  0  0  0  0  0  0  0
   38.5350   32.5760   40.7260 C   0  0  0  0  0  0  0  0  0  0  0  0
   39.2810   31.6850   41.3960 N   0  0  0  0  0  0  0  0  0  0  0  0
   39.3430   29.7710   42.3030 H   0  0  0  0  0  0  0  0  0  0  0  0
   35.6490   30.9130   40.5020 H   0  0  0  0  0  0  0  0  0  0  0  0
   39.1810   34.1600   40.2160 S   0  0  0  0  0  0  0  0  0  0  0  0
   38.8600   34.3210   38.8460 H   0  0  0  0  0  0  0  0  0  0  0  0
  1  2  1  0  0  0  0
  3  1  1  0  0  0  0
  5  4  1  0  0  0  0
  6  5  1  0  0  0  0
  6  1  1  0  0  0  0
  7  6  2  0  0  0  0
  8  9  2  0  0  0  0
  8  7  1  0  0  0  0
  9 10  1  0  0  0  0
 10 14  1  0  0  0  0
 10  5  2  0  0  0  0
 11  7  1  0  0  0  0
 12  8  1  0  0  0  0
 13  9  1  0  0  0  0
 15 16  2  0  0  0  0
 16  1  1  0  0  0  0
 17 23  1  0  0  0  0
 18 17  1  0  0  0  0
 18 15  1  0  0  0  0
 19 18  2  0  0  0  0
 20 21  2  0  0  0  0
 20 19  1  0  0  0  0
 21 22  1  0  0  0  0
 22 17  2  0  0  0  0
 24 19  1  0  0  0  0
 25 21  1  0  0  0  0
 26 25  1  0  0  0  0
M  END
>  <minimizedAffinity>
-4.90589905

$$$$

 OpenBabel03242517183D

 26 27  0  0  0  0  0  0  0  0999 V2000
   39.0790   26.5780   43.4540 C   0  0  0  0  0  0  0  0  0  0  0  0
   40.0110   26.2730   44.0020 H   0  0  0  0  0  0  0  0  0  0  0  0
   38.2810   26.7290   44.2270 H   0  0  0  0  0  0  0  0  0  0  0  0
   36.3680   26.0840   43.0410 F   0  0  0  0  0  0  0  0  0  0  0  0
   37.2470   25.3510   42.3230 C   0  0  0  0  0  0  0  0  0  0  0  0
   38.6230   25.5720   42.5040 C   0  0  0  0  0  0  0  0  0  0  0  0
   39.4030   24.7710   41.7240 C   0  0  0  0  0  0  0  0  0  0  0  0
   38.9900   23.8130   40.8180 C   0  0  0  0  0  0  0  0  0  0  0  0
   37.6040   23.6670   40.7070 C   0  0  0  0  0  0  0  0  0  0  0  0
   36.7120   24.4130   41.4380 C   0  0  0  0  0  0  0  0  0  0  0  0
   40.4780   24.8740   41.8010 H   0  0  0  0  0  0  0  0  0  0  0  0
   39.6900   23.2250   40.2410 H   0  0  0  0  0  0  0  0  0  0  0  0
   37.2170   22.9280   40.0110 H   0  0  0  0  0  0  0  0  0  0  0  0
   35.6380   24.3120   41.3640 H   0  0  0  0  0  0  0  0  0  0  0  0
   38.2800   28.7700   42.6820 C   0  0  0  0  0  3  0  0  0  0  0  0
   39.2520   27.9030   42.7890 C   0  0  0  0  0  3  0  0  0  0  0  0
   37.3220   30.6240   41.2720 C   0  0  0  0  0  0  0  0  0  0  0  0
   38.3740   30.0730   42.0500 C   0  0  0  0  0  0  0  0  0  0  0  0
   39.5200   30.8430   42.1890 C   0  0  0  0  0  0  0  0  0  0  0  0
   39.5480   32.0590   41.5710 N   0  0  0  0  0  0  0  0  0  0  0  0
   38.5400   32.5460   40.8460 C   0  0  0  0  0  0  0  0  0  0  0  0
   37.4250   31.8130   40.7040 N   0  0  0  0  0  0  0  0  0  0  0  0
   36.4420   29.9990   41.1830 H   0  0  0  0  0  0  0  0  0  0  0  0
   40.3720   30.5150   42.7580 H   0  0  0  0  0  0  0  0  0  0  0  0
   38.7170   34.1560   40.0940 S   0  0  0  0  0  0  0  0  0  0  0  0
   39.1730   35.0400   41.1010 H   0  0  0  0  0  0  0  0  0  0  0  0
  1  2  1  0  0  0  0
  1  3  1  0  0  0  0
  5  6  1  0  0  0  0
  5  4  1  0  0  0  0
  6  1  1  0  0  0  0
  7 11  1  0  0  0  0
  7  6  2  0  0  0  0
  8  7  1  0  0  0  0
  9  8  2  0  0  0  0
  9 10  1  0  0  0  0
 10  5  2  0  0  0  0
 12  8  1  0  0  0  0
 13  9  1  0  0  0  0
 14 10  1  0  0  0  0
 15 16  2  0  0  0  0
 16  1  1  0  0  0  0
 17 18  1  0  0  0  0
 18 19  2  0  0  0  0
 18 15  1  0  0  0  0
 19 24  1  0  0  0  0
 20 19  1  0  0  0  0
 21 20  2  0  0  0  0
 22 21  1  0  0  0  0
 22 17  2  0  0  0  0
 23 17  1  0  0  0  0
 25 21  1  0  0  0  0
 25 26  1  0  0  0  0
M  END
>  <minimizedAffinity>
-4.87726068

$$$$

 OpenBabel03242517183D

 26 27  0  0  0  0  0  0  0  0999 V2000
   36.6030   26.4980   42.9510 C   0  0  0  0  0  0  0  0  0  0  0  0
   36.9830   26.5530   44.0060 H   0  0  0  0  0  0  0  0  0  0  0  0
   35.4960   26.3310   43.0110 H   0  0  0  0  0  0  0  0  0  0  0  0
   39.2650   25.7540   43.3050 F   0  0  0  0  0  0  0  0  0  0  0  0
   38.5450   25.0620   42.3940 C   0  0  0  0  0  0  0  0  0  0  0  0
   37.1980   25.4080   42.1880 C   0  0  0  0  0  0  0  0  0  0  0  0
   36.5840   24.6380   41.2470 C   0  0  0  0  0  0  0  0  0  0  0  0
   37.1300   23.6030   40.5140 C   0  0  0  0  0  0  0  0  0  0  0  0
   38.4750   23.3320   40.7890 C   0  0  0  0  0  0  0  0  0  0  0  0
   39.2050   24.0360   41.7150 C   0  0  0  0  0  0  0  0  0  0  0  0
   35.5430   24.8380   41.0240 H   0  0  0  0  0  0  0  0  0  0  0  0
   36.5580   23.0460   39.7850 H   0  0  0  0  0  0  0  0  0  0  0  0
   38.9610   22.5280   40.2450 H   0  0  0  0  0  0  0  0  0  0  0  0
   40.2440   23.8400   41.9390 H   0  0  0  0  0  0  0  0  0  0  0  0
   37.6620   28.6890   42.6120 C   0  0  0  0  0  3  0  0  0  0  0  0
   36.7760   27.8020   42.2450 C   0  0  0  0  0  3  0  0  0  0  0  0
   36.8930   30.6300   41.2030 C   0  0  0  0  0  0  0  0  0  0  0  0
   37.8880   29.9740   41.9760 C   0  0  0  0  0  0  0  0  0  0  0  0
   39.1090   30.6190   42.1030 C   0  0  0  0  0  0  0  0  0  0  0  0
   39.2600   31.8250   41.4810 N   0  0  0  0  0  0  0  0  0  0  0  0
   38.3030   32.4140   40.7620 C   0  0  0  0  0  0  0  0  0  0  0  0
   37.1160   31.8010   40.6310 N   0  0  0  0  0  0  0  0  0  0  0  0
   35.9510   30.1010   41.1240 H   0  0  0  0  0  0  0  0  0  0  0  0
   39.9260   30.2050   42.6670 H   0  0  0  0  0  0  0  0  0  0  0  0
   38.6420   33.9940   40.0040 S   0  0  0  0  0  0  0  0  0  0  0  0
   39.1970   34.8280   41.0050 H   0  0  0  0  0  0  0  0  0  0  0  0
  1  3  1  0  0  0  0
  1  2  1  0  0  0  0
  5  4  1  0  0  0  0
  6  5  1  0  0  0  0
  6  1  1  0  0  0  0
  7  6  2  0  0  0  0
  8  9  2  0  0  0  0
  8  7  1  0  0  0  0
  9 10  1  0  0  0  0
 10 14  1  0  0  0  0
 10  5  2  0  0  0  0
 11  7  1  0  0  0  0
 12  8  1  0  0  0  0
 13  9  1  0  0  0  0
 16 15  2  0  0  0  0
 16  1  1  0  0  0  0
 17 18  1  0  0  0  0
 18 19  2  0  0  0  0
 18 15  1  0  0  0  0
 19 24  1  0  0  0  0
 20 19  1  0  0  0  0
 21 20  2  0  0  0  0
 22 21  1  0  0  0  0
 22 17  2  0  0  0  0
 23 17  1  0  0  0  0
 25 21  1  0  0  0  0
 25 26  1  0  0  0  0
M  END
>  <minimizedAffinity>
-4.86848402

$$$$

 OpenBabel03242517183D

 26 27  0  0  0  0  0  0  0  0999 V2000
   37.9220   28.7890   43.6540 C   0  0  0  0  0  0  0  0  0  0  0  0
   37.9580   28.9760   44.7610 H   0  0  0  0  0  0  0  0  0  0  0  0
   36.8740   29.0060   43.3200 H   0  0  0  0  0  0  0  0  0  0  0  0
   36.2070   27.2370   42.1000 F   0  0  0  0  0  0  0  0  0  0  0  0
   37.3580   26.6620   42.5140 C   0  0  0  0  0  0  0  0  0  0  0  0
   38.2490   27.4130   43.2990 C   0  0  0  0  0  0  0  0  0  0  0  0
   39.3690   26.7230   43.6510 C   0  0  0  0  0  0  0  0  0  0  0  0
   39.6960   25.4210   43.3250 C   0  0  0  0  0  0  0  0  0  0  0  0
   38.7490   24.7540   42.5410 C   0  0  0  0  0  0  0  0  0  0  0  0
   37.5790   25.3410   42.1210 C   0  0  0  0  0  0  0  0  0  0  0  0
   40.1100   27.2260   44.2590 H   0  0  0  0  0  0  0  0  0  0  0  0
   40.6160   24.9570   43.6530 H   0  0  0  0  0  0  0  0  0  0  0  0
   38.9490   23.7270   42.2520 H   0  0  0  0  0  0  0  0  0  0  0  0
   36.8370   24.8400   41.5150 H   0  0  0  0  0  0  0  0  0  0  0  0
   38.4280   30.3030   41.7860 C   0  0  0  0  0  3  0  0  0  0  0  0
   38.7900   29.7520   42.9150 C   0  0  0  0  0  3  0  0  0  0  0  0
   38.7560   32.5520   40.7010 C   0  0  0  0  0  0  0  0  0  0  0  0
   39.2160   31.2460   41.0140 C   0  0  0  0  0  0  0  0  0  0  0  0
   40.4740   30.8950   40.5440 C   0  0  0  0  0  0  0  0  0  0  0  0
   41.1660   31.8240   39.8230 N   0  0  0  0  0  0  0  0  0  0  0  0
   40.7030   33.0440   39.5470 C   0  0  0  0  0  0  0  0  0  0  0  0
   39.4880   33.3970   39.9950 N   0  0  0  0  0  0  0  0  0  0  0  0
   37.7720   32.7950   41.0820 H   0  0  0  0  0  0  0  0  0  0  0  0
   40.9110   29.9300   40.7280 H   0  0  0  0  0  0  0  0  0  0  0  0
   41.7190   34.1570   38.5910 S   0  0  0  0  0  0  0  0  0  0  0  0
   43.0070   34.1570   39.1800 H   0  0  0  0  0  0  0  0  0  0  0  0
  1  2  1  0  0  0  0
  3  1  1  0  0  0  0
  4  5  1  0  0  0  0
  5  6  1  0  0  0  0
  6  7  2  0  0  0  0
  6  1  1  0  0  0  0
  7 11  1  0  0  0  0
  8  7  1  0  0  0  0
  8 12  1  0  0  0  0
  9  8  2  0  0  0  0
 10  5  2  0  0  0  0
 10  9  1  0  0  0  0
 13  9  1  0  0  0  0
 14 10  1  0  0  0  0
 15 16  2  0  0  0  0
 16  1  1  0  0  0  0
 17 18  1  0  0  0  0
 17 23  1  0  0  0  0
 18 15  1  0  0  0  0
 19 24  1  0  0  0  0
 19 18  2  0  0  0  0
 20 19  1  0  0  0  0
 21 20  2  0  0  0  0
 21 22  1  0  0  0  0
 22 17  2  0  0  0  0
 25 26  1  0  0  0  0
 25 21  1  0  0  0  0
M  END
>  <minimizedAffinity>
-4.86467171

$$$$

 OpenBabel03242517183D

 26 27  0  0  0  0  0  0  0  0999 V2000
   32.7540   28.9270   36.8810 C   0  0  0  0  0  0  0  0  0  0  0  0
   33.4490   29.0920   36.0150 H   0  0  0  0  0  0  0  0  0  0  0  0
   32.3090   27.9060   36.7520 H   0  0  0  0  0  0  0  0  0  0  0  0
   32.2080   30.6210   34.7360 F   0  0  0  0  0  0  0  0  0  0  0  0
   31.4280   30.7400   35.8340 C   0  0  0  0  0  0  0  0  0  0  0  0
   31.6730   29.9030   36.9360 C   0  0  0  0  0  0  0  0  0  0  0  0
   30.8210   30.1210   37.9760 C   0  0  0  0  0  0  0  0  0  0  0  0
   29.7920   31.0400   38.0480 C   0  0  0  0  0  0  0  0  0  0  0  0
   29.6260   31.8270   36.9040 C   0  0  0  0  0  0  0  0  0  0  0  0
   30.4190   31.7040   35.7890 C   0  0  0  0  0  0  0  0  0  0  0  0
   30.9400   29.5190   38.8680 H   0  0  0  0  0  0  0  0  0  0  0  0
   29.1660   31.1390   38.9230 H   0  0  0  0  0  0  0  0  0  0  0  0
   28.8320   32.5680   36.8990 H   0  0  0  0  0  0  0  0  0  0  0  0
   30.3040   32.3050   34.8980 H   0  0  0  0  0  0  0  0  0  0  0  0
   34.8010   28.9910   38.2390 C   0  0  0  0  0  3  0  0  0  0  0  0
   33.5010   28.8820   38.1730 C   0  0  0  0  0  3  0  0  0  0  0  0
   35.7820   30.1000   40.2770 C   0  0  0  0  0  0  0  0  0  0  0  0
   35.5920   28.9580   39.4560 C   0  0  0  0  0  0  0  0  0  0  0  0
   36.2040   27.7820   39.8660 C   0  0  0  0  0  0  0  0  0  0  0  0
   36.9350   27.8130   41.0170 N   0  0  0  0  0  0  0  0  0  0  0  0
   37.0930   28.9060   41.7660 C   0  0  0  0  0  0  0  0  0  0  0  0
   36.5070   30.0500   41.3820 N   0  0  0  0  0  0  0  0  0  0  0  0
   35.2910   31.0010   39.9300 H   0  0  0  0  0  0  0  0  0  0  0  0
   36.1210   26.8630   39.3130 H   0  0  0  0  0  0  0  0  0  0  0  0
   38.0790   28.8000   43.2510 S   0  0  0  0  0  0  0  0  0  0  0  0
   37.6220   27.6730   43.9770 H   0  0  0  0  0  0  0  0  0  0  0  0
  1  6  1  0  0  0  0
  1 16  1  0  0  0  0
  2  1  1  0  0  0  0
  3  1  1  0  0  0  0
  4  5  1  0  0  0  0
  5  6  1  0  0  0  0
  6  7  2  0  0  0  0
  7  8  1  0  0  0  0
  7 11  1  0  0  0  0
  8 12  1  0  0  0  0
  9  8  2  0  0  0  0
 10  5  2  0  0  0  0
 10  9  1  0  0  0  0
 13  9  1  0  0  0  0
 14 10  1  0  0  0  0
 15 18  1  0  0  0  0
 16 15  2  0  0  0  0
 17 22  1  0  0  0  0
 18 19  1  0  0  0  0
 18 17  2  0  0  0  0
 19 20  2  0  0  0  0
 20 21  1  0  0  0  0
 21 25  1  0  0  0  0
 22 21  2  0  0  0  0
 23 17  1  0  0  0  0
 24 19  1  0  0  0  0
 25 26  1  0  0  0  0
M  END
>  <minimizedAffinity>
-4.84193802

$$$$

 OpenBabel03242517183D

 26 27  0  0  0  0  0  0  0  0999 V2000
   36.1970   30.4050   41.0520 C   0  0  0  0  0  0  0  0  0  0  0  0
   35.4830   30.9820   41.6990 H   0  0  0  0  0  0  0  0  0  0  0  0
   35.6140   30.0390   40.1670 H   0  0  0  0  0  0  0  0  0  0  0  0
   35.8020   27.8060   40.1280 F   0  0  0  0  0  0  0  0  0  0  0  0
   36.5590   27.9600   41.2370 C   0  0  0  0  0  0  0  0  0  0  0  0
   36.7800   29.2560   41.7330 C   0  0  0  0  0  0  0  0  0  0  0  0
   37.5570   29.2770   42.8530 C   0  0  0  0  0  0  0  0  0  0  0  0
   38.1180   28.2010   43.5120 C   0  0  0  0  0  0  0  0  0  0  0  0
   37.8420   26.9530   42.9440 C   0  0  0  0  0  0  0  0  0  0  0  0
   37.0730   26.7990   41.8160 C   0  0  0  0  0  0  0  0  0  0  0  0
   37.7770   30.2370   43.3030 H   0  0  0  0  0  0  0  0  0  0  0  0
   38.7240   28.3190   44.3990 H   0  0  0  0  0  0  0  0  0  0  0  0
   38.2550   26.0680   43.4170 H   0  0  0  0  0  0  0  0  0  0  0  0
   36.8500   25.8420   41.3650 H   0  0  0  0  0  0  0  0  0  0  0  0
   38.2600   30.8370   39.7890 C   0  0  0  0  0  3  0  0  0  0  0  0
   37.2600   31.2930   40.4950 C   0  0  0  0  0  3  0  0  0  0  0  0
   39.6230   31.6390   37.8280 C   0  0  0  0  0  0  0  0  0  0  0  0
   39.3270   31.6380   39.2170 C   0  0  0  0  0  0  0  0  0  0  0  0
   40.1130   32.4470   40.0250 C   0  0  0  0  0  0  0  0  0  0  0  0
   41.1000   33.1750   39.4290 N   0  0  0  0  0  0  0  0  0  0  0  0
   41.3500   33.1530   38.1180 C   0  0  0  0  0  0  0  0  0  0  0  0
   40.5990   32.3750   37.3250 N   0  0  0  0  0  0  0  0  0  0  0  0
   38.9920   30.9970   37.2250 H   0  0  0  0  0  0  0  0  0  0  0  0
   39.9690   32.5160   41.0890 H   0  0  0  0  0  0  0  0  0  0  0  0
   42.6780   34.1590   37.4760 S   0  0  0  0  0  0  0  0  0  0  0  0
   42.5050   35.4630   38.0000 H   0  0  0  0  0  0  0  0  0  0  0  0
  1  2  1  0  0  0  0
  1  6  1  0  0  0  0
  3  1  1  0  0  0  0
  4  5  1  0  0  0  0
  5  6  2  0  0  0  0
  5 10  1  0  0  0  0
  6  7  1  0  0  0  0
  7 11  1  0  0  0  0
  7  8  2  0  0  0  0
  8 12  1  0  0  0  0
  9 13  1  0  0  0  0
  9  8  1  0  0  0  0
 10  9  2  0  0  0  0
 14 10  1  0  0  0  0
 15 16  2  0  0  0  0
 16  1  1  0  0  0  0
 17 18  1  0  0  0  0
 18 15  1  0  0  0  0
 18 19  2  0  0  0  0
 19 24  1  0  0  0  0
 20 19  1  0  0  0  0
 21 20  2  0  0  0  0
 22 17  2  0  0  0  0
 22 21  1  0  0  0  0
 23 17  1  0  0  0  0
 25 26  1  0  0  0  0
 25 21  1  0  0  0  0
M  END
>  <minimizedAffinity>
-4.78553677

$$$$

 OpenBabel03242517183D

 26 27  0  0  0  0  0  0  0  0999 V2000
   32.3160   28.8190   36.8190 C   0  0  0  0  0  0  0  0  0  0  0  0
   32.4220   28.1840   35.8990 H   0  0  0  0  0  0  0  0  0  0  0  0
   31.7850   28.1970   37.5860 H   0  0  0  0  0  0  0  0  0  0  0  0
   30.7410   29.9510   38.8200 F   0  0  0  0  0  0  0  0  0  0  0  0
   30.7600   30.5740   37.6200 C   0  0  0  0  0  0  0  0  0  0  0  0
   31.5430   30.0320   36.5860 C   0  0  0  0  0  0  0  0  0  0  0  0
   31.4770   30.7500   35.4300 C   0  0  0  0  0  0  0  0  0  0  0  0
   30.7510   31.9010   35.1900 C   0  0  0  0  0  0  0  0  0  0  0  0
   30.0040   32.3630   36.2790 C   0  0  0  0  0  0  0  0  0  0  0  0
   29.9860   31.7290   37.4970 C   0  0  0  0  0  0  0  0  0  0  0  0
   32.0500   30.4030   34.5800 H   0  0  0  0  0  0  0  0  0  0  0  0
   30.7640   32.4030   34.2330 H   0  0  0  0  0  0  0  0  0  0  0  0
   29.4120   33.2650   36.1520 H   0  0  0  0  0  0  0  0  0  0  0  0
   29.4140   32.0730   38.3480 H   0  0  0  0  0  0  0  0  0  0  0  0
   33.9270   28.9320   38.6700 C   0  0  0  0  0  3  0  0  0  0  0  0
   33.6480   29.1390   37.4110 C   0  0  0  0  0  3  0  0  0  0  0  0
   35.4260   28.9750   40.6940 C   0  0  0  0  0  0  0  0  0  0  0  0
   35.1970   29.2170   39.3140 C   0  0  0  0  0  0  0  0  0  0  0  0
   36.2520   29.7480   38.5870 C   0  0  0  0  0  0  0  0  0  0  0  0
   37.4200   29.9950   39.2490 N   0  0  0  0  0  0  0  0  0  0  0  0
   37.6010   29.7540   40.5490 C   0  0  0  0  0  0  0  0  0  0  0  0
   36.5890   29.2410   41.2640 N   0  0  0  0  0  0  0  0  0  0  0  0
   34.5820   28.5600   41.2330 H   0  0  0  0  0  0  0  0  0  0  0  0
   36.1790   29.9670   37.5370 H   0  0  0  0  0  0  0  0  0  0  0  0
   39.1850   30.1280   41.2830 S   0  0  0  0  0  0  0  0  0  0  0  0
   40.1770   29.5500   40.4530 H   0  0  0  0  0  0  0  0  0  0  0  0
  1 16  1  0  0  0  0
  1  3  1  0  0  0  0
  2  1  1  0  0  0  0
  5  4  1  0  0  0  0
  6  1  1  0  0  0  0
  6  5  2  0  0  0  0
  7  6  1  0  0  0  0
  8  7  2  0  0  0  0
  8  9  1  0  0  0  0
  9 10  2  0  0  0  0
 10  5  1  0  0  0  0
 10 14  1  0  0  0  0
 11  7  1  0  0  0  0
 12  8  1  0  0  0  0
 13  9  1  0  0  0  0
 15 18  1  0  0  0  0
 16 15  2  0  0  0  0
 17 23  1  0  0  0  0
 17 22  1  0  0  0  0
 18 17  2  0  0  0  0
 19 20  2  0  0  0  0
 19 18  1  0  0  0  0
 20 21  1  0  0  0  0
 21 22  2  0  0  0  0
 21 25  1  0  0  0  0
 24 19  1  0  0  0  0
 26 25  1  0  0  0  0
M  END
>  <minimizedAffinity>
-4.75418568

$$$$

 OpenBabel03242517183D

 26 27  0  0  0  0  0  0  0  0999 V2000
   36.6600   27.6800   42.1540 C   0  0  0  0  0  0  0  0  0  0  0  0
   36.5700   28.5800   42.8180 H   0  0  0  0  0  0  0  0  0  0  0  0
   35.6850   27.1290   42.2170 H   0  0  0  0  0  0  0  0  0  0  0  0
   36.6300   24.9770   41.4730 F   0  0  0  0  0  0  0  0  0  0  0  0
   37.6810   25.4220   42.1960 C   0  0  0  0  0  0  0  0  0  0  0  0
   37.7320   26.7790   42.5590 C   0  0  0  0  0  0  0  0  0  0  0  0
   38.8380   27.1000   43.2860 C   0  0  0  0  0  0  0  0  0  0  0  0
   39.8630   26.2620   43.6800 C   0  0  0  0  0  0  0  0  0  0  0  0
   39.7250   24.9310   43.2710 C   0  0  0  0  0  0  0  0  0  0  0  0
   38.6560   24.4820   42.5350 C   0  0  0  0  0  0  0  0  0  0  0  0
   38.9570   28.1270   43.6090 H   0  0  0  0  0  0  0  0  0  0  0  0
   40.7060   26.6130   44.2580 H   0  0  0  0  0  0  0  0  0  0  0  0
   40.5000   24.2230   43.5510 H   0  0  0  0  0  0  0  0  0  0  0  0
   38.5340   23.4570   42.2120 H   0  0  0  0  0  0  0  0  0  0  0  0
   35.7840   28.3610   39.9610 C   0  0  0  0  0  3  0  0  0  0  0  0
   36.8070   28.0760   40.7220 C   0  0  0  0  0  3  0  0  0  0  0  0
   34.7980   28.4970   37.6480 C   0  0  0  0  0  0  0  0  0  0  0  0
   35.8510   28.7530   38.5650 C   0  0  0  0  0  0  0  0  0  0  0  0
   36.9700   29.4050   38.0690 C   0  0  0  0  0  0  0  0  0  0  0  0
   36.9730   29.7480   36.7480 N   0  0  0  0  0  0  0  0  0  0  0  0
   35.9650   29.4910   35.9130 C   0  0  0  0  0  0  0  0  0  0  0  0
   34.8760   28.8610   36.3790 N   0  0  0  0  0  0  0  0  0  0  0  0
   33.9390   27.9860   38.0670 H   0  0  0  0  0  0  0  0  0  0  0  0
   37.8200   29.6450   38.6830 H   0  0  0  0  0  0  0  0  0  0  0  0
   36.1070   29.9970   34.2070 S   0  0  0  0  0  0  0  0  0  0  0  0
   36.5170   31.3530   34.2060 H   0  0  0  0  0  0  0  0  0  0  0  0
  1  3  1  0  0  0  0
  1  6  1  0  0  0  0
  1  2  1  0  0  0  0
  4  5  1  0  0  0  0
  5 10  2  0  0  0  0
  5  6  1  0  0  0  0
  6  7  2  0  0  0  0
  7 11  1  0  0  0  0
  7  8  1  0  0  0  0
  8 12  1  0  0  0  0
  9 13  1  0  0  0  0
  9  8  2  0  0  0  0
 10  9  1  0  0  0  0
 14 10  1  0  0  0  0
 15 16  2  0  0  0  0
 16  1  1  0  0  0  0
 17 23  1  0  0  0  0
 17 18  1  0  0  0  0
 18 15  1  0  0  0  0
 19 18  2  0  0  0  0
 19 24  1  0  0  0  0
 20 19  1  0  0  0  0
 21 22  1  0  0  0  0
 21 20  2  0  0  0  0
 22 17  2  0  0  0  0
 25 21  1  0  0  0  0
 26 25  1  0  0  0  0
M  END
>  <minimizedAffinity>
-4.62501478

$$$$

 OpenBabel03242517183D

 26 27  0  0  0  0  0  0  0  0999 V2000
   36.4220   27.8120   42.3100 C   0  0  0  0  0  0  0  0  0  0  0  0
   36.3850   28.6150   43.0930 H   0  0  0  0  0  0  0  0  0  0  0  0
   35.4270   27.2960   42.3240 H   0  0  0  0  0  0  0  0  0  0  0  0
   38.7760   28.4750   43.6460 F   0  0  0  0  0  0  0  0  0  0  0  0
   38.6370   27.1950   43.2350 C   0  0  0  0  0  0  0  0  0  0  0  0
   37.4630   26.8230   42.5580 C   0  0  0  0  0  0  0  0  0  0  0  0
   37.4450   25.5090   42.1970 C   0  0  0  0  0  0  0  0  0  0  0  0
   38.4200   24.5570   42.4220 C   0  0  0  0  0  0  0  0  0  0  0  0
   39.5500   25.0220   43.1030 C   0  0  0  0  0  0  0  0  0  0  0  0
   39.6890   26.3240   43.5200 C   0  0  0  0  0  0  0  0  0  0  0  0
   36.5770   25.1370   41.6690 H   0  0  0  0  0  0  0  0  0  0  0  0
   38.3140   23.5320   42.0960 H   0  0  0  0  0  0  0  0  0  0  0  0
   40.3530   24.3200   43.3100 H   0  0  0  0  0  0  0  0  0  0  0  0
   40.5560   26.6990   44.0470 H   0  0  0  0  0  0  0  0  0  0  0  0
   35.8860   27.9440   39.9150 C   0  0  0  0  0  3  0  0  0  0  0  0
   36.5540   28.3960   40.9420 C   0  0  0  0  0  3  0  0  0  0  0  0
   36.7980   29.5500   38.2040 C   0  0  0  0  0  0  0  0  0  0  0  0
   35.9620   28.4600   38.5610 C   0  0  0  0  0  0  0  0  0  0  0  0
   35.2040   27.8930   37.5470 C   0  0  0  0  0  0  0  0  0  0  0  0
   35.3180   28.4230   36.2940 N   0  0  0  0  0  0  0  0  0  0  0  0
   36.1160   29.4500   35.9940 C   0  0  0  0  0  0  0  0  0  0  0  0
   36.8550   30.0070   36.9650 N   0  0  0  0  0  0  0  0  0  0  0  0
   37.3770   29.9700   39.0180 H   0  0  0  0  0  0  0  0  0  0  0  0
   34.5400   27.0640   37.7150 H   0  0  0  0  0  0  0  0  0  0  0  0
   36.1650   30.0400   34.3090 S   0  0  0  0  0  0  0  0  0  0  0  0
   36.3520   28.9100   33.4760 H   0  0  0  0  0  0  0  0  0  0  0  0
  1  3  1  0  0  0  0
  1  6  1  0  0  0  0
  1  2  1  0  0  0  0
  5 10  1  0  0  0  0
  5  4  1  0  0  0  0
  6  5  2  0  0  0  0
  7  8  2  0  0  0  0
  7  6  1  0  0  0  0
  8  9  1  0  0  0  0
  9 13  1  0  0  0  0
  9 10  2  0  0  0  0
 10 14  1  0  0  0  0
 11  7  1  0  0  0  0
 12  8  1  0  0  0  0
 15 16  2  0  0  0  0
 16  1  1  0  0  0  0
 17 18  1  0  0  0  0
 17 23  1  0  0  0  0
 18 15  1  0  0  0  0
 19 24  1  0  0  0  0
 19 18  2  0  0  0  0
 20 19  1  0  0  0  0
 21 20  2  0  0  0  0
 21 22  1  0  0  0  0
 22 17  2  0  0  0  0
 25 21  1  0  0  0  0
 26 25  1  0  0  0  0
M  END
>  <minimizedAffinity>
-4.53503895

$$$$
