
 OpenBabel03252501143D

 18 19  0  0  0  0  0  0  0  0999 V2000
   38.9850   31.1800   41.3440 C   0  0  0  0  0  0  0  0  0  0  0  0
   39.0060   30.1770   42.3290 C   0  0  0  0  0  0  0  0  0  0  0  0
   37.8040   29.5290   42.5610 C   0  0  0  0  0  0  0  0  0  0  0  0
   36.6780   29.8740   41.8520 N   0  0  0  0  0  0  0  0  0  0  0  0
   36.7030   30.8510   40.9070 C   0  0  0  0  0  0  0  0  0  0  0  0
   37.8680   31.4950   40.6660 N   0  0  0  0  0  0  0  0  0  0  0  0
   39.8890   29.9050   42.8870 H   0  0  0  0  0  0  0  0  0  0  0  0
   35.7930   31.0750   40.3860 H   0  0  0  0  0  0  0  0  0  0  0  0
   37.7030   28.4240   43.5740 C   0  0  0  0  0  0  0  0  0  0  0  0
   36.6220   27.4210   43.2570 C   0  0  0  0  0  0  0  0  0  0  0  0
   38.1300   27.0880   43.1820 C   0  0  0  0  0  0  0  0  0  0  0  0
   37.8090   28.7580   44.6180 H   0  0  0  0  0  0  0  0  0  0  0  0
   36.0430   27.5440   42.3500 H   0  0  0  0  0  0  0  0  0  0  0  0
   36.0590   27.0610   44.1220 H   0  0  0  0  0  0  0  0  0  0  0  0
   38.4880   26.3310   43.8960 H   0  0  0  0  0  0  0  0  0  0  0  0
   38.4440   26.9400   42.1160 H   0  0  0  0  0  0  0  0  0  0  0  0
   40.5620   31.9980   41.0720 S   0  0  0  0  0  0  0  0  0  0  0  0
   41.5490   31.5580   41.9660 H   0  0  0  0  0  0  0  0  0  0  0  0
  1  2  1  0  0  0  0
  2  3  2  0  0  0  0
  2  7  1  0  0  0  0
  3  9  1  0  0  0  0
  4  3  1  0  0  0  0
  5  4  2  0  0  0  0
  6  5  1  0  0  0  0
  6  1  2  0  0  0  0
  8  5  1  0  0  0  0
  9 12  1  0  0  0  0
 10  9  1  0  0  0  0
 10 14  1  0  0  0  0
 11 10  1  0  0  0  0
 11  9  1  0  0  0  0
 11 15  1  0  0  0  0
 13 10  1  0  0  0  0
 16 11  1  0  0  0  0
 17  1  1  0  0  0  0
 17 18  1  0  0  0  0
M  END
>  <minimizedAffinity>
-3.58455849

$$$$

 OpenBabel03252501143D

 18 19  0  0  0  0  0  0  0  0999 V2000
   37.1130   31.0520   40.5580 C   0  0  0  0  0  0  0  0  0  0  0  0
   37.6550   30.3840   41.6710 C   0  0  0  0  0  0  0  0  0  0  0  0
   37.0300   29.2020   42.0330 C   0  0  0  0  0  0  0  0  0  0  0  0
   35.9470   28.7410   41.3230 N   0  0  0  0  0  0  0  0  0  0  0  0
   35.4560   29.4180   40.2530 C   0  0  0  0  0  0  0  0  0  0  0  0
   36.0520   30.5750   39.8840 N   0  0  0  0  0  0  0  0  0  0  0  0
   38.5050   30.7450   42.2290 H   0  0  0  0  0  0  0  0  0  0  0  0
   34.6090   29.0090   39.7380 H   0  0  0  0  0  0  0  0  0  0  0  0
   37.5290   28.3860   43.1910 C   0  0  0  0  0  0  0  0  0  0  0  0
   36.5310   27.3640   43.6770 C   0  0  0  0  0  0  0  0  0  0  0  0
   37.8480   26.9840   42.9610 C   0  0  0  0  0  0  0  0  0  0  0  0
   38.0840   28.9660   43.9460 H   0  0  0  0  0  0  0  0  0  0  0  0
   35.5820   27.2730   43.1610 H   0  0  0  0  0  0  0  0  0  0  0  0
   36.4830   27.2450   44.7620 H   0  0  0  0  0  0  0  0  0  0  0  0
   38.5740   26.4180   43.5660 H   0  0  0  0  0  0  0  0  0  0  0  0
   37.6320   26.5670   41.9430 H   0  0  0  0  0  0  0  0  0  0  0  0
   37.9500   32.5810   40.1200 S   0  0  0  0  0  0  0  0  0  0  0  0
   38.9640   32.9100   41.0310 H   0  0  0  0  0  0  0  0  0  0  0  0
  1  2  1  0  0  0  0
  2  3  2  0  0  0  0
  2  7  1  0  0  0  0
  3  9  1  0  0  0  0
  4  3  1  0  0  0  0
  5  4  2  0  0  0  0
  6  5  1  0  0  0  0
  6  1  2  0  0  0  0
  8  5  1  0  0  0  0
  9 10  1  0  0  0  0
  9 12  1  0  0  0  0
 10 14  1  0  0  0  0
 11  9  1  0  0  0  0
 11 15  1  0  0  0  0
 11 10  1  0  0  0  0
 13 10  1  0  0  0  0
 16 11  1  0  0  0  0
 17  1  1  0  0  0  0
 17 18  1  0  0  0  0
M  END
>  <minimizedAffinity>
-3.49475312

$$$$

 OpenBabel03252501143D

 18 19  0  0  0  0  0  0  0  0999 V2000
   35.9570   29.4040   39.3210 C   0  0  0  0  0  0  0  0  0  0  0  0
   36.1660   28.2430   40.0870 C   0  0  0  0  0  0  0  0  0  0  0  0
   36.6370   28.4430   41.3750 C   0  0  0  0  0  0  0  0  0  0  0  0
   36.8740   29.7140   41.8410 N   0  0  0  0  0  0  0  0  0  0  0  0
   36.6570   30.8090   41.0660 C   0  0  0  0  0  0  0  0  0  0  0  0
   36.1980   30.6340   39.8050 N   0  0  0  0  0  0  0  0  0  0  0  0
   35.9810   27.2450   39.7230 H   0  0  0  0  0  0  0  0  0  0  0  0
   36.8590   31.7750   41.4840 H   0  0  0  0  0  0  0  0  0  0  0  0
   36.8800   27.2840   42.2980 C   0  0  0  0  0  0  0  0  0  0  0  0
   37.9280   27.5640   43.3470 C   0  0  0  0  0  0  0  0  0  0  0  0
   36.4270   27.3940   43.6790 C   0  0  0  0  0  0  0  0  0  0  0  0
   36.9000   26.3030   41.7970 H   0  0  0  0  0  0  0  0  0  0  0  0
   38.3870   28.5440   43.3780 H   0  0  0  0  0  0  0  0  0  0  0  0
   38.5990   26.7290   43.5630 H   0  0  0  0  0  0  0  0  0  0  0  0
   36.1720   26.5260   44.3060 H   0  0  0  0  0  0  0  0  0  0  0  0
   35.9850   28.3730   43.9980 H   0  0  0  0  0  0  0  0  0  0  0  0
   35.3470   29.1050   37.6570 S   0  0  0  0  0  0  0  0  0  0  0  0
   35.2680   27.7360   37.3600 H   0  0  0  0  0  0  0  0  0  0  0  0
  1  6  2  0  0  0  0
  1  2  1  0  0  0  0
  2  3  2  0  0  0  0
  3  4  1  0  0  0  0
  3  9  1  0  0  0  0
  5  8  1  0  0  0  0
  5  4  2  0  0  0  0
  6  5  1  0  0  0  0
  7  2  1  0  0  0  0
  9 10  1  0  0  0  0
  9 11  1  0  0  0  0
 10 13  1  0  0  0  0
 10 14  1  0  0  0  0
 10 11  1  0  0  0  0
 11 16  1  0  0  0  0
 11 15  1  0  0  0  0
 12  9  1  0  0  0  0
 17  1  1  0  0  0  0
 18 17  1  0  0  0  0
M  END
>  <minimizedAffinity>
-3.48739123

$$$$

 OpenBabel03252501143D

 18 19  0  0  0  0  0  0  0  0999 V2000
   37.1270   29.0100   41.7910 C   0  0  0  0  0  0  0  0  0  0  0  0
   36.6040   27.7120   41.6590 C   0  0  0  0  0  0  0  0  0  0  0  0
   37.2780   26.7130   42.3430 C   0  0  0  0  0  0  0  0  0  0  0  0
   38.3880   27.0120   43.0970 N   0  0  0  0  0  0  0  0  0  0  0  0
   38.8590   28.2820   43.1980 C   0  0  0  0  0  0  0  0  0  0  0  0
   38.2150   29.2710   42.5360 N   0  0  0  0  0  0  0  0  0  0  0  0
   35.7330   27.4760   41.0680 H   0  0  0  0  0  0  0  0  0  0  0  0
   39.7290   28.4540   43.8010 H   0  0  0  0  0  0  0  0  0  0  0  0
   36.8030   25.2890   42.2980 C   0  0  0  0  0  0  0  0  0  0  0  0
   36.8750   24.6780   40.9200 C   0  0  0  0  0  0  0  0  0  0  0  0
   37.7900   24.2390   42.0870 C   0  0  0  0  0  0  0  0  0  0  0  0
   35.9050   25.0930   42.9040 H   0  0  0  0  0  0  0  0  0  0  0  0
   37.2740   25.2710   40.1060 H   0  0  0  0  0  0  0  0  0  0  0  0
   36.0330   24.0330   40.6570 H   0  0  0  0  0  0  0  0  0  0  0  0
   37.6580   23.2020   42.4330 H   0  0  0  0  0  0  0  0  0  0  0  0
   38.8470   24.5570   41.8950 H   0  0  0  0  0  0  0  0  0  0  0  0
   36.2280   30.2780   40.8880 S   0  0  0  0  0  0  0  0  0  0  0  0
   35.1910   29.7400   40.1130 H   0  0  0  0  0  0  0  0  0  0  0  0
  1  6  1  0  0  0  0
  2  1  2  0  0  0  0
  2  3  1  0  0  0  0
  3  4  2  0  0  0  0
  4  5  1  0  0  0  0
  5  8  1  0  0  0  0
  6  5  2  0  0  0  0
  7  2  1  0  0  0  0
  9  3  1  0  0  0  0
  9 12  1  0  0  0  0
 10 11  1  0  0  0  0
 10  9  1  0  0  0  0
 11  9  1  0  0  0  0
 11 15  1  0  0  0  0
 13 10  1  0  0  0  0
 14 10  1  0  0  0  0
 16 11  1  0  0  0  0
 17  1  1  0  0  0  0
 18 17  1  0  0  0  0
M  END
>  <minimizedAffinity>
-3.4843235

$$$$

 OpenBabel03252501143D

 18 19  0  0  0  0  0  0  0  0999 V2000
   37.8450   25.0490   42.1120 C   0  0  0  0  0  0  0  0  0  0  0  0
   37.3810   26.3530   42.3580 C   0  0  0  0  0  0  0  0  0  0  0  0
   38.1840   27.1400   43.1670 C   0  0  0  0  0  0  0  0  0  0  0  0
   39.3590   26.6420   43.6800 N   0  0  0  0  0  0  0  0  0  0  0  0
   39.7700   25.3740   43.4150 C   0  0  0  0  0  0  0  0  0  0  0  0
   38.9990   24.5900   42.6280 N   0  0  0  0  0  0  0  0  0  0  0  0
   36.4600   26.7450   41.9570 H   0  0  0  0  0  0  0  0  0  0  0  0
   40.6950   25.0420   43.8420 H   0  0  0  0  0  0  0  0  0  0  0  0
   37.8070   28.5590   43.4860 C   0  0  0  0  0  0  0  0  0  0  0  0
   38.7970   29.5720   42.9660 C   0  0  0  0  0  0  0  0  0  0  0  0
   37.3680   29.4190   42.3950 C   0  0  0  0  0  0  0  0  0  0  0  0
   37.4070   28.7020   44.5020 H   0  0  0  0  0  0  0  0  0  0  0  0
   39.6520   29.2240   42.3990 H   0  0  0  0  0  0  0  0  0  0  0  0
   38.9950   30.4110   43.6370 H   0  0  0  0  0  0  0  0  0  0  0  0
   36.7030   30.2850   42.5340 H   0  0  0  0  0  0  0  0  0  0  0  0
   37.4050   28.9940   41.3590 H   0  0  0  0  0  0  0  0  0  0  0  0
   36.7760   24.0580   41.0600 S   0  0  0  0  0  0  0  0  0  0  0  0
   35.5900   24.7280   40.7290 H   0  0  0  0  0  0  0  0  0  0  0  0
  1  2  2  0  0  0  0
  1  6  1  0  0  0  0
  2  3  1  0  0  0  0
  3  9  1  0  0  0  0
  3  4  2  0  0  0  0
  5  4  1  0  0  0  0
  5  8  1  0  0  0  0
  6  5  2  0  0  0  0
  7  2  1  0  0  0  0
  9 12  1  0  0  0  0
 10  9  1  0  0  0  0
 10 14  1  0  0  0  0
 11 15  1  0  0  0  0
 11 10  1  0  0  0  0
 11  9  1  0  0  0  0
 13 10  1  0  0  0  0
 16 11  1  0  0  0  0
 17  1  1  0  0  0  0
 18 17  1  0  0  0  0
M  END
>  <minimizedAffinity>
-3.4831636

$$$$

 OpenBabel03252501143D

 18 19  0  0  0  0  0  0  0  0999 V2000
   37.3110   26.9310   42.1890 C   0  0  0  0  0  0  0  0  0  0  0  0
   36.5620   27.6870   41.2690 C   0  0  0  0  0  0  0  0  0  0  0  0
   36.6220   29.0620   41.4240 C   0  0  0  0  0  0  0  0  0  0  0  0
   37.3800   29.6190   42.4270 N   0  0  0  0  0  0  0  0  0  0  0  0
   38.0890   28.8500   43.2940 C   0  0  0  0  0  0  0  0  0  0  0  0
   38.0430   27.5040   43.1600 N   0  0  0  0  0  0  0  0  0  0  0  0
   35.9680   27.2510   40.4820 H   0  0  0  0  0  0  0  0  0  0  0  0
   38.6620   29.3410   44.0560 H   0  0  0  0  0  0  0  0  0  0  0  0
   35.8840   29.9780   40.4900 C   0  0  0  0  0  0  0  0  0  0  0  0
   36.6190   31.2650   40.2100 C   0  0  0  0  0  0  0  0  0  0  0  0
   36.4100   30.1640   39.1450 C   0  0  0  0  0  0  0  0  0  0  0  0
   34.7990   30.0320   40.6750 H   0  0  0  0  0  0  0  0  0  0  0  0
   37.5950   31.4180   40.6550 H   0  0  0  0  0  0  0  0  0  0  0  0
   35.9870   32.1560   40.1590 H   0  0  0  0  0  0  0  0  0  0  0  0
   35.7870   30.4460   38.2820 H   0  0  0  0  0  0  0  0  0  0  0  0
   37.3850   29.6680   38.9010 H   0  0  0  0  0  0  0  0  0  0  0  0
   37.2080   25.1510   41.9580 S   0  0  0  0  0  0  0  0  0  0  0  0
   36.3090   24.8000   40.9410 H   0  0  0  0  0  0  0  0  0  0  0  0
  1  6  1  0  0  0  0
  2  3  1  0  0  0  0
  2  1  2  0  0  0  0
  3  4  2  0  0  0  0
  4  5  1  0  0  0  0
  5  8  1  0  0  0  0
  6  5  2  0  0  0  0
  7  2  1  0  0  0  0
  9 12  1  0  0  0  0
  9  3  1  0  0  0  0
 10  9  1  0  0  0  0
 10 13  1  0  0  0  0
 11 10  1  0  0  0  0
 11  9  1  0  0  0  0
 14 10  1  0  0  0  0
 15 11  1  0  0  0  0
 16 11  1  0  0  0  0
 17  1  1  0  0  0  0
 18 17  1  0  0  0  0
M  END
>  <minimizedAffinity>
-3.41043901

$$$$

 OpenBabel03252501143D

 18 19  0  0  0  0  0  0  0  0999 V2000
   37.7950   29.2370   42.5230 C   0  0  0  0  0  0  0  0  0  0  0  0
   37.0040   29.8370   41.5280 C   0  0  0  0  0  0  0  0  0  0  0  0
   37.5500   30.9490   40.9070 C   0  0  0  0  0  0  0  0  0  0  0  0
   38.7950   31.4080   41.2690 N   0  0  0  0  0  0  0  0  0  0  0  0
   39.5260   30.7960   42.2360 C   0  0  0  0  0  0  0  0  0  0  0  0
   39.0090   29.7090   42.8550 N   0  0  0  0  0  0  0  0  0  0  0  0
   36.0280   29.4780   41.2430 H   0  0  0  0  0  0  0  0  0  0  0  0
   40.4900   31.2000   42.4750 H   0  0  0  0  0  0  0  0  0  0  0  0
   36.8110   31.6650   39.8130 C   0  0  0  0  0  0  0  0  0  0  0  0
   37.3430   33.0510   39.5400 C   0  0  0  0  0  0  0  0  0  0  0  0
   37.4930   31.8780   38.5430 C   0  0  0  0  0  0  0  0  0  0  0  0
   35.7190   31.5270   39.8400 H   0  0  0  0  0  0  0  0  0  0  0  0
   38.1990   33.4030   40.1040 H   0  0  0  0  0  0  0  0  0  0  0  0
   36.5800   33.8050   39.3340 H   0  0  0  0  0  0  0  0  0  0  0  0
   36.9680   31.9970   37.5840 H   0  0  0  0  0  0  0  0  0  0  0  0
   38.5660   31.5590   38.4760 H   0  0  0  0  0  0  0  0  0  0  0  0
   37.0530   27.7990   43.3060 S   0  0  0  0  0  0  0  0  0  0  0  0
   35.7470   27.5650   42.8530 H   0  0  0  0  0  0  0  0  0  0  0  0
  1  6  1  0  0  0  0
  1 17  1  0  0  0  0
  2  1  2  0  0  0  0
  3  4  2  0  0  0  0
  3  2  1  0  0  0  0
  4  5  1  0  0  0  0
  5  8  1  0  0  0  0
  5  6  2  0  0  0  0
  7  2  1  0  0  0  0
  9 12  1  0  0  0  0
  9  3  1  0  0  0  0
 10  9  1  0  0  0  0
 10 13  1  0  0  0  0
 11 10  1  0  0  0  0
 11  9  1  0  0  0  0
 14 10  1  0  0  0  0
 15 11  1  0  0  0  0
 16 11  1  0  0  0  0
 18 17  1  0  0  0  0
M  END
>  <minimizedAffinity>
-3.40247297

$$$$

 OpenBabel03252501143D

 18 19  0  0  0  0  0  0  0  0999 V2000
   39.5070   27.7460   43.0190 C   0  0  0  0  0  0  0  0  0  0  0  0
   38.9900   26.4720   42.7230 C   0  0  0  0  0  0  0  0  0  0  0  0
   37.6150   26.3970   42.5690 C   0  0  0  0  0  0  0  0  0  0  0  0
   36.8350   27.5210   42.7050 N   0  0  0  0  0  0  0  0  0  0  0  0
   37.3780   28.7330   42.9910 C   0  0  0  0  0  0  0  0  0  0  0  0
   38.7190   28.8270   43.1460 N   0  0  0  0  0  0  0  0  0  0  0  0
   39.6000   25.5900   42.6160 H   0  0  0  0  0  0  0  0  0  0  0  0
   36.7190   29.5740   43.0850 H   0  0  0  0  0  0  0  0  0  0  0  0
   36.9450   25.0960   42.2300 C   0  0  0  0  0  0  0  0  0  0  0  0
   36.8950   24.8180   40.7480 C   0  0  0  0  0  0  0  0  0  0  0  0
   37.7700   24.0040   41.7290 C   0  0  0  0  0  0  0  0  0  0  0  0
   36.0440   24.8830   42.8260 H   0  0  0  0  0  0  0  0  0  0  0  0
   37.3510   25.5270   40.0670 H   0  0  0  0  0  0  0  0  0  0  0  0
   35.9640   24.3670   40.3940 H   0  0  0  0  0  0  0  0  0  0  0  0
   37.5030   22.9420   41.8390 H   0  0  0  0  0  0  0  0  0  0  0  0
   38.8560   24.2190   41.5540 H   0  0  0  0  0  0  0  0  0  0  0  0
   41.2930   27.8050   43.2130 S   0  0  0  0  0  0  0  0  0  0  0  0
   41.8770   26.5320   43.1270 H   0  0  0  0  0  0  0  0  0  0  0  0
  1  6  1  0  0  0  0
  1 17  1  0  0  0  0
  2  1  2  0  0  0  0
  3  4  2  0  0  0  0
  3  2  1  0  0  0  0
  4  5  1  0  0  0  0
  5  8  1  0  0  0  0
  5  6  2  0  0  0  0
  7  2  1  0  0  0  0
  9  3  1  0  0  0  0
  9 12  1  0  0  0  0
 10 11  1  0  0  0  0
 10  9  1  0  0  0  0
 11 15  1  0  0  0  0
 11  9  1  0  0  0  0
 13 10  1  0  0  0  0
 14 10  1  0  0  0  0
 16 11  1  0  0  0  0
 18 17  1  0  0  0  0
M  END
>  <minimizedAffinity>
-3.33156562

$$$$

 OpenBabel03252501143D

 18 19  0  0  0  0  0  0  0  0999 V2000
   36.7880   28.9860   41.6070 C   0  0  0  0  0  0  0  0  0  0  0  0
   36.9170   27.7700   40.9100 C   0  0  0  0  0  0  0  0  0  0  0  0
   37.4410   26.7110   41.6330 C   0  0  0  0  0  0  0  0  0  0  0  0
   37.8020   26.8750   42.9490 N   0  0  0  0  0  0  0  0  0  0  0  0
   37.6600   28.0680   43.5830 C   0  0  0  0  0  0  0  0  0  0  0  0
   37.1500   29.1150   42.8950 N   0  0  0  0  0  0  0  0  0  0  0  0
   36.6340   27.6400   39.8780 H   0  0  0  0  0  0  0  0  0  0  0  0
   37.9580   28.1350   44.6110 H   0  0  0  0  0  0  0  0  0  0  0  0
   37.6080   25.3560   41.0070 C   0  0  0  0  0  0  0  0  0  0  0  0
   38.2360   24.3430   41.9320 C   0  0  0  0  0  0  0  0  0  0  0  0
   36.7600   24.2690   41.4770 C   0  0  0  0  0  0  0  0  0  0  0  0
   37.9500   25.3810   39.9600 H   0  0  0  0  0  0  0  0  0  0  0  0
   38.4820   24.6410   42.9450 H   0  0  0  0  0  0  0  0  0  0  0  0
   38.9540   23.6680   41.4600 H   0  0  0  0  0  0  0  0  0  0  0  0
   36.4930   23.3960   40.8620 H   0  0  0  0  0  0  0  0  0  0  0  0
   36.0750   24.4860   42.3370 H   0  0  0  0  0  0  0  0  0  0  0  0
   36.1060   30.3370   40.6370 S   0  0  0  0  0  0  0  0  0  0  0  0
   35.8980   29.9760   39.2980 H   0  0  0  0  0  0  0  0  0  0  0  0
  1  6  1  0  0  0  0
  2  1  2  0  0  0  0
  2  3  1  0  0  0  0
  3  4  2  0  0  0  0
  4  5  1  0  0  0  0
  5  8  1  0  0  0  0
  6  5  2  0  0  0  0
  7  2  1  0  0  0  0
  9 11  1  0  0  0  0
  9  3  1  0  0  0  0
  9 10  1  0  0  0  0
 10 13  1  0  0  0  0
 11 10  1  0  0  0  0
 11 16  1  0  0  0  0
 12  9  1  0  0  0  0
 14 10  1  0  0  0  0
 15 11  1  0  0  0  0
 17  1  1  0  0  0  0
 18 17  1  0  0  0  0
M  END
>  <minimizedAffinity>
-3.32690382

$$$$
