
 OpenBabel03252502533D

 24 25  0  0  0  0  0  0  0  0999 V2000
   47.0390   32.6360   45.8760 C   0  0  0  0  0  0  0  0  0  0  0  0
   47.9250   33.0600   46.3990 H   0  0  0  0  0  0  0  0  0  0  0  0
   47.4820   32.0520   45.0270 H   0  0  0  0  0  0  0  0  0  0  0  0
   45.9980   29.8630   44.7890 Br  0  0  0  0  0  0  0  0  0  0  0  0
   45.8160   30.5280   46.5870 C   0  0  0  0  0  0  0  0  0  0  0  0
   46.3500   31.7740   46.8410 C   0  0  0  0  0  0  0  0  0  0  0  0
   46.1920   32.2070   48.1530 C   0  0  0  0  0  0  0  0  0  0  0  0
   45.5650   31.4850   49.1370 C   0  0  0  0  0  0  0  0  0  0  0  0
   45.0520   30.2440   48.8180 C   0  0  0  0  0  0  0  0  0  0  0  0
   45.1710   29.7460   47.5340 C   0  0  0  0  0  0  0  0  0  0  0  0
   46.5790   33.1830   48.4630 H   0  0  0  0  0  0  0  0  0  0  0  0
   45.4530   31.8430   50.1510 H   0  0  0  0  0  0  0  0  0  0  0  0
   44.5470   29.5980   49.5000 H   0  0  0  0  0  0  0  0  0  0  0  0
   44.5400   28.1540   47.0240 S   0  0  0  0  0  0  0  0  0  0  0  0
   43.1830   28.2020   46.6750 H   0  0  0  0  0  0  0  0  0  0  0  0
   44.4750   35.3240   45.4960 C   0  0  0  0  0  0  0  0  0  0  0  0
   44.6510   35.7050   44.1720 C   0  0  0  0  0  0  0  0  0  0  0  0
   45.6250   35.0540   43.4350 C   0  0  0  0  0  0  0  0  0  0  0  0
   46.3680   34.0710   44.0310 N   0  0  0  0  0  0  0  0  0  0  0  0
   46.1770   33.7130   45.3330 C   0  0  0  0  0  0  0  0  0  0  0  0
   45.2230   34.3590   46.0380 N   0  0  0  0  0  0  0  0  0  0  0  0
   43.7170   35.8080   46.1260 H   0  0  0  0  0  0  0  0  0  0  0  0
   44.0440   36.4820   43.7460 H   0  0  0  0  0  0  0  0  0  0  0  0
   45.7910   35.3250   42.3990 H   0  0  0  0  0  0  0  0  0  0  0  0
  1  2  1  0  0  0  0
  1  6  1  0  0  0  0
  3  1  1  0  0  0  0
  4  5  1  0  0  0  0
  5  6  2  0  0  0  0
  5 10  1  0  0  0  0
  6  7  1  0  0  0  0
  7 11  1  0  0  0  0
  7  8  2  0  0  0  0
  8 12  1  0  0  0  0
  9  8  1  0  0  0  0
  9 13  1  0  0  0  0
 10  9  2  0  0  0  0
 14 10  1  0  0  0  0
 15 14  1  0  0  0  0
 16 21  1  0  0  0  0
 16 22  1  0  0  0  0
 17 16  2  0  0  0  0
 18 19  2  0  0  0  0
 18 17  1  0  0  0  0
 19 20  1  0  0  0  0
 20  1  1  0  0  0  0
 20 21  2  0  0  0  0
 23 17  1  0  0  0  0
 24 18  1  0  0  0  0
M  END
>  <minimizedAffinity>
-4.54420996

>  <minimizedRMSD>
0.419215143

$$$$
