
 OpenBabel03252507233D

 40 42  0  0  1  0  0  0  0  0999 V2000
   39.0440   29.2900   40.3520 C   0  0  0  0  0  0  0  0  0  0  0  0
   39.6290   28.8060   39.3360 O   0  0  0  0  0  0  0  0  0  0  0  0
   38.5710   28.4910   41.4260 N   0  0  0  0  0  0  0  0  0  0  0  0
   38.6720   28.6970   42.8790 C   0  0  0  0  0  0  0  0  0  0  0  0
   37.3090   28.5700   43.5190 C   0  0  0  0  0  0  0  0  0  0  0  0
   36.7630   27.1800   43.3170 C   0  0  0  0  0  0  0  0  0  0  0  0
   37.6210   26.4380   42.3090 C   0  0  0  0  0  0  0  0  0  0  0  0
   37.8790   27.2720   41.1070 C   0  0  2  0  0  0  0  0  0  0  0  0
   39.4050   28.0410   43.3450 H   0  0  0  0  0  0  0  0  0  0  0  0
   38.9570   29.7700   43.0000 H   0  0  0  0  0  0  0  0  0  0  0  0
   37.4670   28.6860   44.6120 H   0  0  0  0  0  0  0  0  0  0  0  0
   36.6460   29.3790   43.1960 H   0  0  0  0  0  0  0  0  0  0  0  0
   35.7500   27.2710   42.8300 H   0  0  0  0  0  0  0  0  0  0  0  0
   36.6410   26.6020   44.2340 H   0  0  0  0  0  0  0  0  0  0  0  0
   37.0320   25.5380   42.0060 H   0  0  0  0  0  0  0  0  0  0  0  0
   38.5570   26.1270   42.8100 H   0  0  0  0  0  0  0  0  0  0  0  0
   36.8800   27.5840   40.7080 H   0  0  0  0  0  0  0  0  0  0  0  0
   39.9290   31.5070   40.8730 C   0  0  0  0  0  0  0  0  0  0  0  0
   38.8530   30.7150   40.4110 C   0  0  0  0  0  0  0  0  0  0  0  0
   37.6630   31.3180   40.0340 C   0  0  0  0  0  0  0  0  0  0  0  0
   37.5720   32.6590   40.1220 N   0  0  0  0  0  0  0  0  0  0  0  0
   38.6040   33.4390   40.5660 C   0  0  0  0  0  0  0  0  0  0  0  0
   39.7610   32.8430   40.9330 N   0  0  0  0  0  0  0  0  0  0  0  0
   40.8430   31.0170   41.1600 H   0  0  0  0  0  0  0  0  0  0  0  0
   38.4300   34.5050   40.6000 H   0  0  0  0  0  0  0  0  0  0  0  0
   36.5790   30.4730   39.5640 C   0  0  0  0  0  0  0  0  0  0  0  0
   35.6410   30.0110   40.4290 C   0  0  0  0  0  0  0  0  0  0  0  0
   34.6250   29.2100   39.9410 C   0  0  0  0  0  0  0  0  0  0  0  0
   34.5200   28.8540   38.6030 C   0  0  0  0  0  0  0  0  0  0  0  0
   35.5100   29.3550   37.7620 C   0  0  0  0  0  0  0  0  0  0  0  0
   36.4740   30.1250   38.2680 N   0  0  0  0  0  0  0  0  0  0  0  0
   35.6210   30.2200   41.4740 H   0  0  0  0  0  0  0  0  0  0  0  0
   33.8530   28.8260   40.6270 H   0  0  0  0  0  0  0  0  0  0  0  0
   33.7190   28.2320   38.2660 H   0  0  0  0  0  0  0  0  0  0  0  0
   35.4620   29.1000   36.7190 H   0  0  0  0  0  0  0  0  0  0  0  0
   38.5380   26.4580   40.0290 C   0  0  0  0  0  0  0  0  0  0  0  0
   39.3000   27.1590   39.5630 H   0  0  0  0  0  0  0  0  0  0  0  0
   39.1470   25.6230   40.4030 H   0  0  0  0  0  0  0  0  0  0  0  0
   37.4140   26.0290   38.6890 S   0  0  0  0  0  0  0  0  0  0  0  0
   37.4150   26.9750   37.6490 H   0  0  0  0  0  0  0  0  0  0  0  0
  1 19  1  0  0  0  0
  1  3  1  0  0  0  0
  2  1  2  0  0  0  0
  3  4  1  0  0  0  0
  4 10  1  0  0  0  0
  4  9  1  0  0  0  0
  4  5  1  0  0  0  0
  5 11  1  0  0  0  0
  6  5  1  0  0  0  0
  6 14  1  0  0  0  0
  7 16  1  0  0  0  0
  7  6  1  0  0  0  0
  8 17  1  6  0  0  0
  8  3  1  0  0  0  0
  8  7  1  0  0  0  0
 12  5  1  0  0  0  0
 13  6  1  0  0  0  0
 15  7  1  0  0  0  0
 18 23  1  0  0  0  0
 18 24  1  0  0  0  0
 19 18  2  0  0  0  0
 20 21  2  0  0  0  0
 20 19  1  0  0  0  0
 21 22  1  0  0  0  0
 22 25  1  0  0  0  0
 22 23  2  0  0  0  0
 26 20  1  0  0  0  0
 26 27  1  0  0  0  0
 27 32  1  0  0  0  0
 28 27  2  0  0  0  0
 28 33  1  0  0  0  0
 29 28  1  0  0  0  0
 30 31  1  0  0  0  0
 30 29  2  0  0  0  0
 31 26  2  0  0  0  0
 34 29  1  0  0  0  0
 35 30  1  0  0  0  0
 36 38  1  0  0  0  0
 36  8  1  0  0  0  0
 37 36  1  0  0  0  0
 39 36  1  0  0  0  0
 40 39  1  0  0  0  0
M  END
>  <minimizedAffinity>
-5.61263847

$$$$

 OpenBabel03252507233D

 40 42  0  0  1  0  0  0  0  0999 V2000
   39.0760   29.1280   40.4510 C   0  0  0  0  0  0  0  0  0  0  0  0
   39.6300   28.5890   39.4450 O   0  0  0  0  0  0  0  0  0  0  0  0
   38.5620   28.3800   41.5430 N   0  0  0  0  0  0  0  0  0  0  0  0
   38.6780   28.6120   42.9910 C   0  0  0  0  0  0  0  0  0  0  0  0
   37.3120   28.5770   43.6350 C   0  0  0  0  0  0  0  0  0  0  0  0
   36.6870   27.2160   43.4650 C   0  0  0  0  0  0  0  0  0  0  0  0
   37.4990   26.4050   42.4720 C   0  0  0  0  0  0  0  0  0  0  0  0
   37.8010   27.1970   41.2520 C   0  0  2  0  0  0  0  0  0  0  0  0
   39.3740   27.9260   43.4710 H   0  0  0  0  0  0  0  0  0  0  0  0
   39.0240   29.6700   43.0880 H   0  0  0  0  0  0  0  0  0  0  0  0
   37.4790   28.7080   44.7260 H   0  0  0  0  0  0  0  0  0  0  0  0
   36.6940   29.4150   43.2960 H   0  0  0  0  0  0  0  0  0  0  0  0
   35.6790   27.3540   42.9770 H   0  0  0  0  0  0  0  0  0  0  0  0
   36.5350   26.6660   44.3950 H   0  0  0  0  0  0  0  0  0  0  0  0
   36.8590   25.5340   42.1900 H   0  0  0  0  0  0  0  0  0  0  0  0
   38.4170   26.0520   42.9800 H   0  0  0  0  0  0  0  0  0  0  0  0
   36.8200   27.5560   40.8480 H   0  0  0  0  0  0  0  0  0  0  0  0
   40.0770   31.3000   40.9490 C   0  0  0  0  0  0  0  0  0  0  0  0
   38.9670   30.5630   40.4790 C   0  0  0  0  0  0  0  0  0  0  0  0
   37.8220   31.2250   40.0650 C   0  0  0  0  0  0  0  0  0  0  0  0
   37.8060   32.5710   40.1250 N   0  0  0  0  0  0  0  0  0  0  0  0
   38.8710   33.2990   40.5780 C   0  0  0  0  0  0  0  0  0  0  0  0
   39.9850   32.6450   40.9800 N   0  0  0  0  0  0  0  0  0  0  0  0
   40.9550   30.7650   41.2660 H   0  0  0  0  0  0  0  0  0  0  0  0
   38.7590   34.3730   40.5870 H   0  0  0  0  0  0  0  0  0  0  0  0
   36.7000   30.4340   39.5880 C   0  0  0  0  0  0  0  0  0  0  0  0
   36.5670   30.1540   38.2670 C   0  0  0  0  0  0  0  0  0  0  0  0
   35.4860   29.3980   37.8540 C   0  0  0  0  0  0  0  0  0  0  0  0
   34.5260   28.9100   38.7310 C   0  0  0  0  0  0  0  0  0  0  0  0
   34.7130   29.2280   40.0740 C   0  0  0  0  0  0  0  0  0  0  0  0
   35.7680   29.9600   40.4350 N   0  0  0  0  0  0  0  0  0  0  0  0
   37.2400   30.4760   37.5060 H   0  0  0  0  0  0  0  0  0  0  0  0
   35.3590   29.1600   36.7860 H   0  0  0  0  0  0  0  0  0  0  0  0
   33.7040   28.3280   38.3720 H   0  0  0  0  0  0  0  0  0  0  0  0
   33.9900   28.8680   40.7820 H   0  0  0  0  0  0  0  0  0  0  0  0
   38.4100   26.3230   40.1910 C   0  0  0  0  0  0  0  0  0  0  0  0
   37.6120   25.5500   39.9600 H   0  0  0  0  0  0  0  0  0  0  0  0
   38.5710   26.8280   39.2280 H   0  0  0  0  0  0  0  0  0  0  0  0
   39.8220   25.3770   40.7890 S   0  0  0  0  0  0  0  0  0  0  0  0
   39.4610   24.1140   41.2910 H   0  0  0  0  0  0  0  0  0  0  0  0
  1 19  1  0  0  0  0
  1  3  1  0  0  0  0
  2  1  2  0  0  0  0
  3  4  1  0  0  0  0
  4 10  1  0  0  0  0
  4  9  1  0  0  0  0
  4  5  1  0  0  0  0
  5 11  1  0  0  0  0
  6  5  1  0  0  0  0
  6 14  1  0  0  0  0
  7 16  1  0  0  0  0
  7  6  1  0  0  0  0
  8 17  1  6  0  0  0
  8  3  1  0  0  0  0
  8  7  1  0  0  0  0
 12  5  1  0  0  0  0
 13  6  1  0  0  0  0
 15  7  1  0  0  0  0
 18 23  1  0  0  0  0
 18 24  1  0  0  0  0
 19 18  2  0  0  0  0
 20 21  2  0  0  0  0
 20 19  1  0  0  0  0
 21 22  1  0  0  0  0
 22 25  1  0  0  0  0
 22 23  2  0  0  0  0
 26 20  1  0  0  0  0
 26 31  1  0  0  0  0
 27 26  2  0  0  0  0
 28 27  1  0  0  0  0
 28 29  2  0  0  0  0
 29 30  1  0  0  0  0
 30 31  2  0  0  0  0
 30 35  1  0  0  0  0
 32 27  1  0  0  0  0
 33 28  1  0  0  0  0
 34 29  1  0  0  0  0
 36 39  1  0  0  0  0
 36  8  1  0  0  0  0
 37 36  1  0  0  0  0
 38 36  1  0  0  0  0
 39 40  1  0  0  0  0
M  END
>  <minimizedAffinity>
-5.58026457

$$$$

 OpenBabel03252507233D

 40 42  0  0  1  0  0  0  0  0999 V2000
   39.1260   29.0780   39.8000 C   0  0  0  0  0  0  0  0  0  0  0  0
   40.3800   29.2640   39.7480 O   0  0  0  0  0  0  0  0  0  0  0  0
   38.4400   28.7650   41.0030 N   0  0  0  0  0  0  0  0  0  0  0  0
   37.1740   29.2890   41.5380 C   0  0  0  0  0  0  0  0  0  0  0  0
   36.2530   28.1500   41.9070 C   0  0  0  0  0  0  0  0  0  0  0  0
   36.8680   27.3110   42.9980 C   0  0  0  0  0  0  0  0  0  0  0  0
   38.3220   27.7070   43.1850 C   0  0  0  0  0  0  0  0  0  0  0  0
   39.0270   27.7910   41.8810 C   0  0  2  0  0  0  0  0  0  0  0  0
   37.3240   29.9790   42.3670 H   0  0  0  0  0  0  0  0  0  0  0  0
   36.6830   29.7990   40.6730 H   0  0  0  0  0  0  0  0  0  0  0  0
   35.3450   28.6150   42.3480 H   0  0  0  0  0  0  0  0  0  0  0  0
   35.9380   27.5940   41.0180 H   0  0  0  0  0  0  0  0  0  0  0  0
   36.8990   26.2420   42.6400 H   0  0  0  0  0  0  0  0  0  0  0  0
   36.3280   27.3300   43.9450 H   0  0  0  0  0  0  0  0  0  0  0  0
   38.7850   26.8960   43.7970 H   0  0  0  0  0  0  0  0  0  0  0  0
   38.3520   28.6650   43.7390 H   0  0  0  0  0  0  0  0  0  0  0  0
   38.8900   26.8010   41.3740 H   0  0  0  0  0  0  0  0  0  0  0  0
   37.9920   27.9970   37.9260 C   0  0  0  0  0  0  0  0  0  0  0  0
   38.3720   29.1900   38.5800 C   0  0  0  0  0  0  0  0  0  0  0  0
   38.0160   30.4170   38.0400 C   0  0  0  0  0  0  0  0  0  0  0  0
   37.3090   30.4290   36.8940 N   0  0  0  0  0  0  0  0  0  0  0  0
   36.9340   29.2830   36.2490 C   0  0  0  0  0  0  0  0  0  0  0  0
   37.2860   28.0900   36.7820 N   0  0  0  0  0  0  0  0  0  0  0  0
   38.2790   27.0560   38.3620 H   0  0  0  0  0  0  0  0  0  0  0  0
   36.3690   29.4000   35.3360 H   0  0  0  0  0  0  0  0  0  0  0  0
   38.4230   31.6240   38.7400 C   0  0  0  0  0  0  0  0  0  0  0  0
   37.5530   32.2780   39.5490 C   0  0  0  0  0  0  0  0  0  0  0  0
   37.9800   33.4220   40.1970 C   0  0  0  0  0  0  0  0  0  0  0  0
   39.2630   33.9350   40.0570 C   0  0  0  0  0  0  0  0  0  0  0  0
   40.1130   33.2240   39.2150 C   0  0  0  0  0  0  0  0  0  0  0  0
   39.6660   32.1240   38.6060 N   0  0  0  0  0  0  0  0  0  0  0  0
   36.5470   31.9770   39.7310 H   0  0  0  0  0  0  0  0  0  0  0  0
   37.2890   33.9680   40.8590 H   0  0  0  0  0  0  0  0  0  0  0  0
   39.5550   34.8240   40.5760 H   0  0  0  0  0  0  0  0  0  0  0  0
   41.1140   33.5910   39.0820 H   0  0  0  0  0  0  0  0  0  0  0  0
   40.5050   27.9660   42.0890 C   0  0  0  0  0  0  0  0  0  0  0  0
   40.9880   27.3280   41.2840 H   0  0  0  0  0  0  0  0  0  0  0  0
   40.8740   28.9800   41.8740 H   0  0  0  0  0  0  0  0  0  0  0  0
   41.0810   27.2720   43.6480 S   0  0  0  0  0  0  0  0  0  0  0  0
   41.4940   25.9330   43.5310 H   0  0  0  0  0  0  0  0  0  0  0  0
  1  3  1  0  0  0  0
  2  1  2  0  0  0  0
  3  4  1  0  0  0  0
  3  8  1  0  0  0  0
  4  5  1  0  0  0  0
  4  9  1  0  0  0  0
  5 11  1  0  0  0  0
  5  6  1  0  0  0  0
  6  7  1  0  0  0  0
  6 14  1  0  0  0  0
  7 16  1  0  0  0  0
  7 15  1  0  0  0  0
  8 17  1  6  0  0  0
  8 36  1  0  0  0  0
  8  7  1  0  0  0  0
 10  4  1  0  0  0  0
 12  5  1  0  0  0  0
 13  6  1  0  0  0  0
 18 24  1  0  0  0  0
 18 19  1  0  0  0  0
 19  1  1  0  0  0  0
 20 19  2  0  0  0  0
 20 26  1  0  0  0  0
 21 20  1  0  0  0  0
 22 23  1  0  0  0  0
 22 21  2  0  0  0  0
 23 18  2  0  0  0  0
 25 22  1  0  0  0  0
 26 27  1  0  0  0  0
 27 32  1  0  0  0  0
 27 28  2  0  0  0  0
 28 33  1  0  0  0  0
 29 28  1  0  0  0  0
 29 34  1  0  0  0  0
 30 29  2  0  0  0  0
 31 26  2  0  0  0  0
 31 30  1  0  0  0  0
 35 30  1  0  0  0  0
 36 39  1  0  0  0  0
 37 36  1  0  0  0  0
 38 36  1  0  0  0  0
 40 39  1  0  0  0  0
M  END
>  <minimizedAffinity>
-5.0239563

$$$$

 OpenBabel03252507233D

 40 42  0  0  1  0  0  0  0  0999 V2000
   39.3420   29.3760   39.9580 C   0  0  0  0  0  0  0  0  0  0  0  0
   39.0930   28.3580   39.2430 O   0  0  0  0  0  0  0  0  0  0  0  0
   38.5610   30.5610   39.9150 N   0  0  0  0  0  0  0  0  0  0  0  0
   38.0580   31.4070   41.0070 C   0  0  0  0  0  0  0  0  0  0  0  0
   38.4280   32.8510   40.7610 C   0  0  0  0  0  0  0  0  0  0  0  0
   37.7790   33.3500   39.4950 C   0  0  0  0  0  0  0  0  0  0  0  0
   37.1900   32.1780   38.7300 C   0  0  0  0  0  0  0  0  0  0  0  0
   38.1650   31.0610   38.6270 C   0  0  2  0  0  0  0  0  0  0  0  0
   36.9900   31.2820   41.1770 H   0  0  0  0  0  0  0  0  0  0  0  0
   38.6470   31.1000   41.9060 H   0  0  0  0  0  0  0  0  0  0  0  0
   37.9770   33.4340   41.5920 H   0  0  0  0  0  0  0  0  0  0  0  0
   39.5120   32.9940   40.8110 H   0  0  0  0  0  0  0  0  0  0  0  0
   38.5880   33.7600   38.8260 H   0  0  0  0  0  0  0  0  0  0  0  0
   37.0380   34.1370   39.6440 H   0  0  0  0  0  0  0  0  0  0  0  0
   36.9670   32.5610   37.7050 H   0  0  0  0  0  0  0  0  0  0  0  0
   36.2530   31.8700   39.2320 H   0  0  0  0  0  0  0  0  0  0  0  0
   39.0930   31.4830   38.1640 H   0  0  0  0  0  0  0  0  0  0  0  0
   41.6820   29.9050   40.4190 C   0  0  0  0  0  0  0  0  0  0  0  0
   40.4700   29.3200   40.8500 C   0  0  0  0  0  0  0  0  0  0  0  0
   40.3980   28.7180   42.0960 C   0  0  0  0  0  0  0  0  0  0  0  0
   41.5030   28.7120   42.8670 N   0  0  0  0  0  0  0  0  0  0  0  0
   42.6830   29.2730   42.4640 C   0  0  0  0  0  0  0  0  0  0  0  0
   42.7450   29.8580   41.2460 N   0  0  0  0  0  0  0  0  0  0  0  0
   41.7150   30.3660   39.4480 H   0  0  0  0  0  0  0  0  0  0  0  0
   43.5110   29.2150   43.1550 H   0  0  0  0  0  0  0  0  0  0  0  0
   39.1350   28.1270   42.5060 C   0  0  0  0  0  0  0  0  0  0  0  0
   38.2850   28.8100   43.3130 C   0  0  0  0  0  0  0  0  0  0  0  0
   37.0930   28.2120   43.6800 C   0  0  0  0  0  0  0  0  0  0  0  0
   36.7250   26.9410   43.2600 C   0  0  0  0  0  0  0  0  0  0  0  0
   37.6360   26.2870   42.4340 C   0  0  0  0  0  0  0  0  0  0  0  0
   38.7750   26.8950   42.1010 N   0  0  0  0  0  0  0  0  0  0  0  0
   38.4630   29.7890   43.6960 H   0  0  0  0  0  0  0  0  0  0  0  0
   36.3890   28.7500   44.3340 H   0  0  0  0  0  0  0  0  0  0  0  0
   35.7940   26.5140   43.5650 H   0  0  0  0  0  0  0  0  0  0  0  0
   37.3850   25.3010   42.0880 H   0  0  0  0  0  0  0  0  0  0  0  0
   37.6580   30.0020   37.6880 C   0  0  0  0  0  0  0  0  0  0  0  0
   37.6640   30.4950   36.6670 H   0  0  0  0  0  0  0  0  0  0  0  0
   38.3350   29.1440   37.5680 H   0  0  0  0  0  0  0  0  0  0  0  0
   35.9370   29.5650   37.9890 S   0  0  0  0  0  0  0  0  0  0  0  0
   35.0360   30.3350   37.2320 H   0  0  0  0  0  0  0  0  0  0  0  0
  1 19  1  0  0  0  0
  2  1  2  0  0  0  0
  3  1  1  0  0  0  0
  3  4  1  0  0  0  0
  4  9  1  0  0  0  0
  4 10  1  0  0  0  0
  5 12  1  0  0  0  0
  5  4  1  0  0  0  0
  5 11  1  0  0  0  0
  6 14  1  0  0  0  0
  6  5  1  0  0  0  0
  7 16  1  0  0  0  0
  7  6  1  0  0  0  0
  8 17  1  6  0  0  0
  8  7  1  0  0  0  0
  8  3  1  0  0  0  0
 13  6  1  0  0  0  0
 15  7  1  0  0  0  0
 18 19  2  0  0  0  0
 18 23  1  0  0  0  0
 19 20  1  0  0  0  0
 20 26  1  0  0  0  0
 20 21  2  0  0  0  0
 22 21  1  0  0  0  0
 22 25  1  0  0  0  0
 23 22  2  0  0  0  0
 24 18  1  0  0  0  0
 26 27  1  0  0  0  0
 27 28  2  0  0  0  0
 27 32  1  0  0  0  0
 28 33  1  0  0  0  0
 29 34  1  0  0  0  0
 29 28  1  0  0  0  0
 30 29  2  0  0  0  0
 31 30  1  0  0  0  0
 31 26  2  0  0  0  0
 35 30  1  0  0  0  0
 36 39  1  0  0  0  0
 36  8  1  0  0  0  0
 37 36  1  0  0  0  0
 38 36  1  0  0  0  0
 40 39  1  0  0  0  0
M  END
>  <minimizedAffinity>
-4.92669868

$$$$

 OpenBabel03252507233D

 40 42  0  0  1  0  0  0  0  0999 V2000
   37.6270   26.9690   38.9040 C   0  0  0  0  0  0  0  0  0  0  0  0
   38.7380   26.8690   38.3010 O   0  0  0  0  0  0  0  0  0  0  0  0
   37.0370   28.2170   39.2370 N   0  0  0  0  0  0  0  0  0  0  0  0
   35.6450   28.6730   39.1110 C   0  0  0  0  0  0  0  0  0  0  0  0
   35.1620   29.2420   40.4240 C   0  0  0  0  0  0  0  0  0  0  0  0
   35.9790   30.4510   40.8040 C   0  0  0  0  0  0  0  0  0  0  0  0
   37.1930   30.5480   39.8980 C   0  0  0  0  0  0  0  0  0  0  0  0
   37.8850   29.2390   39.7860 C   0  0  2  0  0  0  0  0  0  0  0  0
   35.5060   29.3710   38.2870 H   0  0  0  0  0  0  0  0  0  0  0  0
   35.0480   27.7410   38.9540 H   0  0  0  0  0  0  0  0  0  0  0  0
   34.1290   29.6100   40.2420 H   0  0  0  0  0  0  0  0  0  0  0  0
   35.1020   28.4650   41.1920 H   0  0  0  0  0  0  0  0  0  0  0  0
   36.3970   30.2780   41.8370 H   0  0  0  0  0  0  0  0  0  0  0  0
   35.4220   31.3890   40.8210 H   0  0  0  0  0  0  0  0  0  0  0  0
   37.8810   31.2820   40.3830 H   0  0  0  0  0  0  0  0  0  0  0  0
   36.8630   30.9320   38.9140 H   0  0  0  0  0  0  0  0  0  0  0  0
   38.1250   28.9090   40.8290 H   0  0  0  0  0  0  0  0  0  0  0  0
   36.2340   25.0710   38.2510 C   0  0  0  0  0  0  0  0  0  0  0  0
   36.9380   25.7580   39.2650 C   0  0  0  0  0  0  0  0  0  0  0  0
   36.9490   25.2580   40.5580 C   0  0  0  0  0  0  0  0  0  0  0  0
   36.2770   24.1180   40.8070 N   0  0  0  0  0  0  0  0  0  0  0  0
   35.5910   23.4420   39.8370 C   0  0  0  0  0  0  0  0  0  0  0  0
   35.5850   23.9360   38.5770 N   0  0  0  0  0  0  0  0  0  0  0  0
   36.2390   25.4770   37.2540 H   0  0  0  0  0  0  0  0  0  0  0  0
   35.0840   22.5370   40.1380 H   0  0  0  0  0  0  0  0  0  0  0  0
   37.6840   25.9910   41.5760 C   0  0  0  0  0  0  0  0  0  0  0  0
   37.0280   26.7650   42.4760 C   0  0  0  0  0  0  0  0  0  0  0  0
   37.7640   27.4450   43.4280 C   0  0  0  0  0  0  0  0  0  0  0  0
   39.1490   27.3730   43.5050 C   0  0  0  0  0  0  0  0  0  0  0  0
   39.7690   26.5650   42.5560 C   0  0  0  0  0  0  0  0  0  0  0  0
   39.0260   25.9240   41.6530 N   0  0  0  0  0  0  0  0  0  0  0  0
   35.9710   26.8940   42.5110 H   0  0  0  0  0  0  0  0  0  0  0  0
   37.2510   28.0780   44.1690 H   0  0  0  0  0  0  0  0  0  0  0  0
   39.6820   27.9150   44.2580 H   0  0  0  0  0  0  0  0  0  0  0  0
   40.8400   26.4850   42.5850 H   0  0  0  0  0  0  0  0  0  0  0  0
   39.1990   29.3930   39.0710 C   0  0  0  0  0  0  0  0  0  0  0  0
   39.9470   29.6330   39.8900 H   0  0  0  0  0  0  0  0  0  0  0  0
   39.5840   28.4640   38.6290 H   0  0  0  0  0  0  0  0  0  0  0  0
   39.2340   30.8200   37.9720 S   0  0  0  0  0  0  0  0  0  0  0  0
   39.7070   31.9840   38.6020 H   0  0  0  0  0  0  0  0  0  0  0  0
  1  3  1  0  0  0  0
  1 19  1  0  0  0  0
  2  1  2  0  0  0  0
  3  8  1  0  0  0  0
  4  3  1  0  0  0  0
  4  5  1  0  0  0  0
  5  6  1  0  0  0  0
  5 12  1  0  0  0  0
  6 14  1  0  0  0  0
  6 13  1  0  0  0  0
  7 15  1  0  0  0  0
  7  6  1  0  0  0  0
  8  7  1  0  0  0  0
  8 17  1  1  0  0  0
  9  4  1  0  0  0  0
 10  4  1  0  0  0  0
 11  5  1  0  0  0  0
 16  7  1  0  0  0  0
 18 23  2  0  0  0  0
 18 19  1  0  0  0  0
 19 20  2  0  0  0  0
 20 21  1  0  0  0  0
 20 26  1  0  0  0  0
 22 25  1  0  0  0  0
 22 21  2  0  0  0  0
 23 22  1  0  0  0  0
 24 18  1  0  0  0  0
 26 31  2  0  0  0  0
 26 27  1  0  0  0  0
 27 32  1  0  0  0  0
 27 28  2  0  0  0  0
 28 29  1  0  0  0  0
 28 33  1  0  0  0  0
 29 34  1  0  0  0  0
 30 35  1  0  0  0  0
 30 29  2  0  0  0  0
 31 30  1  0  0  0  0
 36  8  1  0  0  0  0
 36 37  1  0  0  0  0
 38 36  1  0  0  0  0
 39 40  1  0  0  0  0
 39 36  1  0  0  0  0
M  END
>  <minimizedAffinity>
-4.91292

$$$$

 OpenBabel03252507233D

 40 42  0  0  1  0  0  0  0  0999 V2000
   37.7800   30.7030   40.2630 C   0  0  0  0  0  0  0  0  0  0  0  0
   36.7090   31.1310   40.7900 O   0  0  0  0  0  0  0  0  0  0  0  0
   37.8170   30.0580   38.9990 N   0  0  0  0  0  0  0  0  0  0  0  0
   38.7460   30.2280   37.8720 C   0  0  0  0  0  0  0  0  0  0  0  0
   39.2910   28.8870   37.4390 C   0  0  0  0  0  0  0  0  0  0  0  0
   38.1740   28.0020   36.9480 C   0  0  0  0  0  0  0  0  0  0  0  0
   36.8370   28.6290   37.2980 C   0  0  0  0  0  0  0  0  0  0  0  0
   36.8090   29.0740   38.7150 C   0  0  2  0  0  0  0  0  0  0  0  0
   38.3030   30.7770   37.0420 H   0  0  0  0  0  0  0  0  0  0  0  0
   39.6200   30.7790   38.2980 H   0  0  0  0  0  0  0  0  0  0  0  0
   39.9400   29.0850   36.5590 H   0  0  0  0  0  0  0  0  0  0  0  0
   39.9200   28.4470   38.2190 H   0  0  0  0  0  0  0  0  0  0  0  0
   38.2100   27.0390   37.5330 H   0  0  0  0  0  0  0  0  0  0  0  0
   38.2270   27.7500   35.8870 H   0  0  0  0  0  0  0  0  0  0  0  0
   36.0740   27.8260   37.1550 H   0  0  0  0  0  0  0  0  0  0  0  0
   36.6480   29.4610   36.5940 H   0  0  0  0  0  0  0  0  0  0  0  0
   37.0670   28.1820   39.3400 H   0  0  0  0  0  0  0  0  0  0  0  0
   39.7990   32.0160   40.6780 C   0  0  0  0  0  0  0  0  0  0  0  0
   39.0120   30.8830   40.9860 C   0  0  0  0  0  0  0  0  0  0  0  0
   39.4370   29.9890   41.9570 C   0  0  0  0  0  0  0  0  0  0  0  0
   40.6030   30.2360   42.5840 N   0  0  0  0  0  0  0  0  0  0  0  0
   41.3760   31.3260   42.2980 C   0  0  0  0  0  0  0  0  0  0  0  0
   40.9540   32.1930   41.3490 N   0  0  0  0  0  0  0  0  0  0  0  0
   39.4500   32.6960   39.9210 H   0  0  0  0  0  0  0  0  0  0  0  0
   42.2940   31.4340   42.8570 H   0  0  0  0  0  0  0  0  0  0  0  0
   38.6010   28.8360   42.2470 C   0  0  0  0  0  0  0  0  0  0  0  0
   37.7500   28.8500   43.3030 C   0  0  0  0  0  0  0  0  0  0  0  0
   36.9720   27.7320   43.5430 C   0  0  0  0  0  0  0  0  0  0  0  0
   37.0240   26.5920   42.7540 C   0  0  0  0  0  0  0  0  0  0  0  0
   37.9150   26.6330   41.6850 C   0  0  0  0  0  0  0  0  0  0  0  0
   38.6490   27.7280   41.4830 N   0  0  0  0  0  0  0  0  0  0  0  0
   37.6270   29.6680   43.9750 H   0  0  0  0  0  0  0  0  0  0  0  0
   36.2740   27.7240   44.3950 H   0  0  0  0  0  0  0  0  0  0  0  0
   36.4050   25.7470   42.9740 H   0  0  0  0  0  0  0  0  0  0  0  0
   37.9830   25.7680   41.0510 H   0  0  0  0  0  0  0  0  0  0  0  0
   35.4190   29.4890   39.1110 C   0  0  0  0  0  0  0  0  0  0  0  0
   35.2650   29.0360   40.1400 H   0  0  0  0  0  0  0  0  0  0  0  0
   35.3020   30.5690   39.2810 H   0  0  0  0  0  0  0  0  0  0  0  0
   34.1450   28.7480   38.0770 S   0  0  0  0  0  0  0  0  0  0  0  0
   33.6710   27.5250   38.5840 H   0  0  0  0  0  0  0  0  0  0  0  0
  1  2  2  0  0  0  0
  1 19  1  0  0  0  0
  3  1  1  0  0  0  0
  4 10  1  0  0  0  0
  4  3  1  0  0  0  0
  5  4  1  0  0  0  0
  5 12  1  0  0  0  0
  6  7  1  0  0  0  0
  6  5  1  0  0  0  0
  6 13  1  0  0  0  0
  7  8  1  0  0  0  0
  8  3  1  0  0  0  0
  8 36  1  0  0  0  0
  8 17  1  1  0  0  0
  9  4  1  0  0  0  0
 11  5  1  0  0  0  0
 14  6  1  0  0  0  0
 15  7  1  0  0  0  0
 16  7  1  0  0  0  0
 18 19  2  0  0  0  0
 18 23  1  0  0  0  0
 19 20  1  0  0  0  0
 20 26  1  0  0  0  0
 20 21  2  0  0  0  0
 22 21  1  0  0  0  0
 22 25  1  0  0  0  0
 23 22  2  0  0  0  0
 24 18  1  0  0  0  0
 26 27  1  0  0  0  0
 27 28  2  0  0  0  0
 27 32  1  0  0  0  0
 28 33  1  0  0  0  0
 29 34  1  0  0  0  0
 29 28  1  0  0  0  0
 30 29  2  0  0  0  0
 31 30  1  0  0  0  0
 31 26  2  0  0  0  0
 35 30  1  0  0  0  0
 36 38  1  0  0  0  0
 36 37  1  0  0  0  0
 39 40  1  0  0  0  0
 39 36  1  0  0  0  0
M  END
>  <minimizedAffinity>
-4.84198189

$$$$

 OpenBabel03252507233D

 40 42  0  0  1  0  0  0  0  0999 V2000
   39.4800   27.9470   40.1970 C   0  0  0  0  0  0  0  0  0  0  0  0
   39.7680   27.7810   38.9730 O   0  0  0  0  0  0  0  0  0  0  0  0
   40.2000   27.3270   41.2520 N   0  0  0  0  0  0  0  0  0  0  0  0
   40.6760   27.8800   42.5290 C   0  0  0  0  0  0  0  0  0  0  0  0
   40.2310   27.0020   43.6750 C   0  0  0  0  0  0  0  0  0  0  0  0
   40.8350   25.6270   43.5480 C   0  0  0  0  0  0  0  0  0  0  0  0
   41.4690   25.4750   42.1770 C   0  0  0  0  0  0  0  0  0  0  0  0
   40.5500   25.9410   41.1070 C   0  0  2  0  0  0  0  0  0  0  0  0
   41.7520   28.0480   42.5370 H   0  0  0  0  0  0  0  0  0  0  0  0
   40.1180   28.8390   42.6560 H   0  0  0  0  0  0  0  0  0  0  0  0
   40.6660   27.4480   44.5950 H   0  0  0  0  0  0  0  0  0  0  0  0
   39.1420   27.0200   43.7850 H   0  0  0  0  0  0  0  0  0  0  0  0
   39.9950   24.8740   43.5670 H   0  0  0  0  0  0  0  0  0  0  0  0
   41.5370   25.3630   44.3400 H   0  0  0  0  0  0  0  0  0  0  0  0
   41.6570   24.3820   42.0440 H   0  0  0  0  0  0  0  0  0  0  0  0
   42.4280   26.0280   42.1750 H   0  0  0  0  0  0  0  0  0  0  0  0
   39.5950   25.3700   41.2280 H   0  0  0  0  0  0  0  0  0  0  0  0
   38.5690   30.2000   40.4490 C   0  0  0  0  0  0  0  0  0  0  0  0
   38.3700   28.8030   40.5230 C   0  0  0  0  0  0  0  0  0  0  0  0
   37.1340   28.3010   40.9020 C   0  0  0  0  0  0  0  0  0  0  0  0
   36.1510   29.1750   41.1900 N   0  0  0  0  0  0  0  0  0  0  0  0
   36.3280   30.5290   41.1230 C   0  0  0  0  0  0  0  0  0  0  0  0
   37.5370   31.0110   40.7530 N   0  0  0  0  0  0  0  0  0  0  0  0
   39.5360   30.5680   40.1530 H   0  0  0  0  0  0  0  0  0  0  0  0
   35.4770   31.1450   41.3740 H   0  0  0  0  0  0  0  0  0  0  0  0
   36.9660   26.8590   40.9680 C   0  0  0  0  0  0  0  0  0  0  0  0
   37.0360   26.2100   42.1570 C   0  0  0  0  0  0  0  0  0  0  0  0
   36.8690   24.8380   42.1760 C   0  0  0  0  0  0  0  0  0  0  0  0
   36.6340   24.0900   41.0300 C   0  0  0  0  0  0  0  0  0  0  0  0
   36.5730   24.8070   39.8390 C   0  0  0  0  0  0  0  0  0  0  0  0
   36.7380   26.1300   39.8590 N   0  0  0  0  0  0  0  0  0  0  0  0
   37.2110   26.6810   43.0970 H   0  0  0  0  0  0  0  0  0  0  0  0
   36.9220   24.2930   43.1320 H   0  0  0  0  0  0  0  0  0  0  0  0
   36.5110   23.0290   41.0870 H   0  0  0  0  0  0  0  0  0  0  0  0
   36.3930   24.2610   38.9310 H   0  0  0  0  0  0  0  0  0  0  0  0
   41.0940   25.5870   39.7510 C   0  0  0  0  0  0  0  0  0  0  0  0
   40.9700   24.4620   39.6750 H   0  0  0  0  0  0  0  0  0  0  0  0
   40.4990   25.9720   38.9110 H   0  0  0  0  0  0  0  0  0  0  0  0
   42.8670   25.8740   39.6100 S   0  0  0  0  0  0  0  0  0  0  0  0
   43.6330   24.7460   39.9540 H   0  0  0  0  0  0  0  0  0  0  0  0
  1 19  1  0  0  0  0
  1  3  1  0  0  0  0
  2  1  2  0  0  0  0
  3  4  1  0  0  0  0
  4  9  1  0  0  0  0
  4 10  1  0  0  0  0
  4  5  1  0  0  0  0
  5 12  1  0  0  0  0
  5 11  1  0  0  0  0
  6 13  1  0  0  0  0
  6  5  1  0  0  0  0
  6 14  1  0  0  0  0
  7  6  1  0  0  0  0
  8 17  1  1  0  0  0
  8  3  1  0  0  0  0
  8  7  1  0  0  0  0
 15  7  1  0  0  0  0
 16  7  1  0  0  0  0
 18 19  2  0  0  0  0
 18 23  1  0  0  0  0
 19 20  1  0  0  0  0
 20 26  1  0  0  0  0
 20 21  2  0  0  0  0
 22 21  1  0  0  0  0
 22 25  1  0  0  0  0
 23 22  2  0  0  0  0
 24 18  1  0  0  0  0
 26 27  1  0  0  0  0
 27 28  2  0  0  0  0
 27 32  1  0  0  0  0
 28 33  1  0  0  0  0
 29 34  1  0  0  0  0
 29 28  1  0  0  0  0
 30 31  1  0  0  0  0
 30 29  2  0  0  0  0
 31 26  2  0  0  0  0
 35 30  1  0  0  0  0
 36  8  1  0  0  0  0
 37 36  1  0  0  0  0
 38 36  1  0  0  0  0
 39 36  1  0  0  0  0
 39 40  1  0  0  0  0
M  END
>  <minimizedAffinity>
-4.82779408

$$$$

 OpenBabel03252507233D

 40 42  0  0  1  0  0  0  0  0999 V2000
   37.9250   29.3400   39.7880 C   0  0  0  0  0  0  0  0  0  0  0  0
   37.7350   28.7840   38.6640 O   0  0  0  0  0  0  0  0  0  0  0  0
   37.8710   28.6340   41.0190 N   0  0  0  0  0  0  0  0  0  0  0  0
   38.7610   28.6950   42.1880 C   0  0  0  0  0  0  0  0  0  0  0  0
   37.9550   28.9200   43.4460 C   0  0  0  0  0  0  0  0  0  0  0  0
   37.0150   27.7650   43.6790 C   0  0  0  0  0  0  0  0  0  0  0  0
   36.9770   26.8830   42.4440 C   0  0  0  0  0  0  0  0  0  0  0  0
   36.8020   27.6940   41.2120 C   0  0  2  0  0  0  0  0  0  0  0  0
   39.4090   27.8230   42.2680 H   0  0  0  0  0  0  0  0  0  0  0  0
   39.3590   29.6290   42.0490 H   0  0  0  0  0  0  0  0  0  0  0  0
   38.6810   28.9040   44.2870 H   0  0  0  0  0  0  0  0  0  0  0  0
   37.4820   29.9070   43.4400 H   0  0  0  0  0  0  0  0  0  0  0  0
   35.9710   28.1800   43.7760 H   0  0  0  0  0  0  0  0  0  0  0  0
   37.2270   27.1800   44.5760 H   0  0  0  0  0  0  0  0  0  0  0  0
   36.0900   26.2160   42.5690 H   0  0  0  0  0  0  0  0  0  0  0  0
   37.9040   26.2800   42.4190 H   0  0  0  0  0  0  0  0  0  0  0  0
   35.8770   28.3090   41.3570 H   0  0  0  0  0  0  0  0  0  0  0  0
   37.1780   31.6230   40.2340 C   0  0  0  0  0  0  0  0  0  0  0  0
   38.2060   30.7520   39.8090 C   0  0  0  0  0  0  0  0  0  0  0  0
   39.4360   31.2660   39.4300 C   0  0  0  0  0  0  0  0  0  0  0  0
   39.6120   32.6010   39.4810 N   0  0  0  0  0  0  0  0  0  0  0  0
   38.6270   33.4580   39.8890 C   0  0  0  0  0  0  0  0  0  0  0  0
   37.4300   32.9470   40.2570 N   0  0  0  0  0  0  0  0  0  0  0  0
   36.2310   31.2020   40.5230 H   0  0  0  0  0  0  0  0  0  0  0  0
   38.8690   34.5100   39.8940 H   0  0  0  0  0  0  0  0  0  0  0  0
   40.4700   30.3400   39.0000 C   0  0  0  0  0  0  0  0  0  0  0  0
   40.7020   30.1320   37.6790 C   0  0  0  0  0  0  0  0  0  0  0  0
   41.6950   29.2430   37.3120 C   0  0  0  0  0  0  0  0  0  0  0  0
   42.4670   28.5500   38.2340 C   0  0  0  0  0  0  0  0  0  0  0  0
   42.1850   28.8010   39.5740 C   0  0  0  0  0  0  0  0  0  0  0  0
   41.2200   29.6650   39.8910 N   0  0  0  0  0  0  0  0  0  0  0  0
   40.1720   30.6080   36.8860 H   0  0  0  0  0  0  0  0  0  0  0  0
   41.8990   29.0610   36.2450 H   0  0  0  0  0  0  0  0  0  0  0  0
   43.2260   27.8700   37.9090 H   0  0  0  0  0  0  0  0  0  0  0  0
   42.7620   28.2820   40.3170 H   0  0  0  0  0  0  0  0  0  0  0  0
   36.5470   26.8060   40.0260 C   0  0  0  0  0  0  0  0  0  0  0  0
   35.4430   26.5500   40.0890 H   0  0  0  0  0  0  0  0  0  0  0  0
   36.6420   27.3120   39.0550 H   0  0  0  0  0  0  0  0  0  0  0  0
   37.4020   25.2250   40.1380 S   0  0  0  0  0  0  0  0  0  0  0  0
   36.6290   24.2270   40.7560 H   0  0  0  0  0  0  0  0  0  0  0  0
  1 19  1  0  0  0  0
  1  3  1  0  0  0  0
  2  1  2  0  0  0  0
  3  8  1  0  0  0  0
  3  4  1  0  0  0  0
  4  9  1  0  0  0  0
  4  5  1  0  0  0  0
  5  6  1  0  0  0  0
  5 11  1  0  0  0  0
  6 13  1  0  0  0  0
  6 14  1  0  0  0  0
  7 15  1  0  0  0  0
  7  6  1  0  0  0  0
  8 17  1  1  0  0  0
  8  7  1  0  0  0  0
 10  4  1  0  0  0  0
 12  5  1  0  0  0  0
 16  7  1  0  0  0  0
 18 23  1  0  0  0  0
 18 24  1  0  0  0  0
 19 18  2  0  0  0  0
 20 21  2  0  0  0  0
 20 19  1  0  0  0  0
 21 22  1  0  0  0  0
 22 25  1  0  0  0  0
 22 23  2  0  0  0  0
 26 20  1  0  0  0  0
 26 31  1  0  0  0  0
 27 26  2  0  0  0  0
 28 27  1  0  0  0  0
 28 29  2  0  0  0  0
 29 30  1  0  0  0  0
 30 31  2  0  0  0  0
 30 35  1  0  0  0  0
 32 27  1  0  0  0  0
 33 28  1  0  0  0  0
 34 29  1  0  0  0  0
 36 37  1  0  0  0  0
 36 39  1  0  0  0  0
 36  8  1  0  0  0  0
 38 36  1  0  0  0  0
 39 40  1  0  0  0  0
M  END
>  <minimizedAffinity>
-4.78924894

$$$$

 OpenBabel03252507233D

 40 42  0  0  1  0  0  0  0  0999 V2000
   38.1220   29.0070   39.2170 C   0  0  0  0  0  0  0  0  0  0  0  0
   39.1290   28.2880   38.9380 O   0  0  0  0  0  0  0  0  0  0  0  0
   36.7840   28.5660   39.0380 N   0  0  0  0  0  0  0  0  0  0  0  0
   35.6150   28.6960   39.9210 C   0  0  0  0  0  0  0  0  0  0  0  0
   34.4510   29.2880   39.1610 C   0  0  0  0  0  0  0  0  0  0  0  0
   34.0420   28.3750   38.0340 C   0  0  0  0  0  0  0  0  0  0  0  0
   35.0920   27.2940   37.8480 C   0  0  0  0  0  0  0  0  0  0  0  0
   36.4590   27.8750   37.8200 C   0  0  2  0  0  0  0  0  0  0  0  0
   35.3510   27.7580   40.4070 H   0  0  0  0  0  0  0  0  0  0  0  0
   35.9040   29.4710   40.6720 H   0  0  0  0  0  0  0  0  0  0  0  0
   33.5960   29.3090   39.8700 H   0  0  0  0  0  0  0  0  0  0  0  0
   34.6580   30.3220   38.8660 H   0  0  0  0  0  0  0  0  0  0  0  0
   34.0620   28.9710   37.0770 H   0  0  0  0  0  0  0  0  0  0  0  0
   33.0450   27.9430   38.1380 H   0  0  0  0  0  0  0  0  0  0  0  0
   34.8770   26.8240   36.8580 H   0  0  0  0  0  0  0  0  0  0  0  0
   34.9710   26.5490   38.6570 H   0  0  0  0  0  0  0  0  0  0  0  0
   36.4640   28.6540   37.0160 H   0  0  0  0  0  0  0  0  0  0  0  0
   38.2880   31.4150   38.8370 C   0  0  0  0  0  0  0  0  0  0  0  0
   38.3530   30.3280   39.7380 C   0  0  0  0  0  0  0  0  0  0  0  0
   38.6340   30.5560   41.0770 C   0  0  0  0  0  0  0  0  0  0  0  0
   38.8370   31.8260   41.4780 N   0  0  0  0  0  0  0  0  0  0  0  0
   38.7780   32.8880   40.6190 C   0  0  0  0  0  0  0  0  0  0  0  0
   38.5030   32.6560   39.3150 N   0  0  0  0  0  0  0  0  0  0  0  0
   38.0690   31.2140   37.8040 H   0  0  0  0  0  0  0  0  0  0  0  0
   38.9560   33.8660   41.0400 H   0  0  0  0  0  0  0  0  0  0  0  0
   38.6940   29.4150   41.9750 C   0  0  0  0  0  0  0  0  0  0  0  0
   37.6270   29.0900   42.7470 C   0  0  0  0  0  0  0  0  0  0  0  0
   37.7250   27.9960   43.5870 C   0  0  0  0  0  0  0  0  0  0  0  0
   38.8670   27.2130   43.6790 C   0  0  0  0  0  0  0  0  0  0  0  0
   39.9310   27.5940   42.8640 C   0  0  0  0  0  0  0  0  0  0  0  0
   39.8000   28.6540   42.0660 N   0  0  0  0  0  0  0  0  0  0  0  0
   36.7010   29.6170   42.7590 H   0  0  0  0  0  0  0  0  0  0  0  0
   36.8690   27.7150   44.2220 H   0  0  0  0  0  0  0  0  0  0  0  0
   38.9030   26.3750   44.3420 H   0  0  0  0  0  0  0  0  0  0  0  0
   40.8330   27.0110   42.9080 H   0  0  0  0  0  0  0  0  0  0  0  0
   37.4680   26.8350   37.4200 C   0  0  0  0  0  0  0  0  0  0  0  0
   37.2680   26.6490   36.3180 H   0  0  0  0  0  0  0  0  0  0  0  0
   38.5100   27.1850   37.4400 H   0  0  0  0  0  0  0  0  0  0  0  0
   37.1920   25.2460   38.2220 S   0  0  0  0  0  0  0  0  0  0  0  0
   36.3630   24.3920   37.4750 H   0  0  0  0  0  0  0  0  0  0  0  0
  1 19  1  0  0  0  0
  2  1  2  0  0  0  0
  3  1  1  0  0  0  0
  3  4  1  0  0  0  0
  4  9  1  0  0  0  0
  4 10  1  0  0  0  0
  5 11  1  0  0  0  0
  5  4  1  0  0  0  0
  6 14  1  0  0  0  0
  6  5  1  0  0  0  0
  7  6  1  0  0  0  0
  7 16  1  0  0  0  0
  8 17  1  6  0  0  0
  8  7  1  0  0  0  0
  8  3  1  0  0  0  0
 12  5  1  0  0  0  0
 13  6  1  0  0  0  0
 15  7  1  0  0  0  0
 18 23  2  0  0  0  0
 18 19  1  0  0  0  0
 19 20  2  0  0  0  0
 20 21  1  0  0  0  0
 20 26  1  0  0  0  0
 22 25  1  0  0  0  0
 22 21  2  0  0  0  0
 23 22  1  0  0  0  0
 24 18  1  0  0  0  0
 26 31  2  0  0  0  0
 26 27  1  0  0  0  0
 27 32  1  0  0  0  0
 27 28  2  0  0  0  0
 28 29  1  0  0  0  0
 28 33  1  0  0  0  0
 29 34  1  0  0  0  0
 30 35  1  0  0  0  0
 30 29  2  0  0  0  0
 31 30  1  0  0  0  0
 36 38  1  0  0  0  0
 36  8  1  0  0  0  0
 36 39  1  0  0  0  0
 37 36  1  0  0  0  0
 40 39  1  0  0  0  0
M  END
>  <minimizedAffinity>
-4.77050591

$$$$
