
 OpenBabel03242518203D

 23 24  0  0  0  0  0  0  0  0999 V2000
   39.3200   29.7330   42.4940 C   0  0  0  0  0  0  0  0  0  0  0  0
   40.2910   29.4010   42.0780 H   0  0  0  0  0  0  0  0  0  0  0  0
   39.5350   30.2360   43.4690 H   0  0  0  0  0  0  0  0  0  0  0  0
   38.7610   32.9050   40.7500 C   0  0  0  0  0  0  0  0  0  0  0  0
   37.5280   32.7150   40.1080 C   0  0  0  0  0  0  0  0  0  0  0  0
   36.8950   31.5010   40.2750 C   0  0  0  0  0  0  0  0  0  0  0  0
   37.4840   30.5520   41.0460 N   0  0  0  0  0  0  0  0  0  0  0  0
   38.6790   30.7700   41.6540 C   0  0  0  0  0  0  0  0  0  0  0  0
   39.3240   31.9680   41.5000 N   0  0  0  0  0  0  0  0  0  0  0  0
   39.3100   33.8340   40.6610 H   0  0  0  0  0  0  0  0  0  0  0  0
   35.9500   31.3700   39.7770 H   0  0  0  0  0  0  0  0  0  0  0  0
   37.0440   33.8040   39.3370 N   0  0  0  0  0  0  0  0  0  0  0  0
   36.1160   34.0100   39.8140 H   0  0  0  0  0  0  0  0  0  0  0  0
   37.6270   34.1310   38.5610 H   0  0  0  0  0  0  0  0  0  0  0  0
   38.3800   28.5780   42.7160 C   0  0  0  0  0  0  0  0  0  0  0  0
   37.4030   28.5570   43.6800 C   0  0  0  0  0  0  0  0  0  0  0  0
   36.7500   27.3400   43.5760 C   0  0  0  0  0  0  0  0  0  0  0  0
   37.3720   26.6670   42.5330 C   0  0  0  0  0  0  0  0  0  0  0  0
   38.2950   27.4470   42.0950 O   0  0  0  0  0  0  0  0  0  0  0  0
   37.1120   29.2860   44.4250 H   0  0  0  0  0  0  0  0  0  0  0  0
   35.9230   26.8700   44.1100 H   0  0  0  0  0  0  0  0  0  0  0  0
   37.1200   25.0620   41.7870 S   0  0  0  0  0  0  0  0  0  0  0  0
   38.2890   24.6310   41.1260 H   0  0  0  0  0  0  0  0  0  0  0  0
  1 15  1  0  0  0  0
  1  3  1  0  0  0  0
  2  1  1  0  0  0  0
  4  9  1  0  0  0  0
  5  6  1  0  0  0  0
  5  4  2  0  0  0  0
  6  7  2  0  0  0  0
  7  8  1  0  0  0  0
  8  1  1  0  0  0  0
  9  8  2  0  0  0  0
 10  4  1  0  0  0  0
 11  6  1  0  0  0  0
 12 13  1  0  0  0  0
 12  5  1  0  0  0  0
 14 12  1  0  0  0  0
 15 16  2  0  0  0  0
 16 20  1  0  0  0  0
 17 16  1  0  0  0  0
 17 21  1  0  0  0  0
 18 17  2  0  0  0  0
 19 18  1  0  0  0  0
 19 15  1  0  0  0  0
 22 18  1  0  0  0  0
 23 22  1  0  0  0  0
M  END
>  <minimizedAffinity>
-4.79736042

$$$$

 OpenBabel03242518203D

 23 24  0  0  0  0  0  0  0  0999 V2000
   36.3590   30.5630   41.1520 C   0  0  0  0  0  0  0  0  0  0  0  0
   36.2010   31.3600   41.9040 H   0  0  0  0  0  0  0  0  0  0  0  0
   35.3640   30.3400   40.6940 H   0  0  0  0  0  0  0  0  0  0  0  0
   37.5220   31.2050   37.7380 C   0  0  0  0  0  0  0  0  0  0  0  0
   38.7570   31.8440   37.9260 C   0  0  0  0  0  0  0  0  0  0  0  0
   39.1850   32.0520   39.2200 C   0  0  0  0  0  0  0  0  0  0  0  0
   38.4020   31.6340   40.2480 N   0  0  0  0  0  0  0  0  0  0  0  0
   37.2110   31.0180   40.0300 C   0  0  0  0  0  0  0  0  0  0  0  0
   36.7680   30.8030   38.7520 N   0  0  0  0  0  0  0  0  0  0  0  0
   37.1270   31.0110   36.7490 H   0  0  0  0  0  0  0  0  0  0  0  0
   40.1340   32.5420   39.3490 H   0  0  0  0  0  0  0  0  0  0  0  0
   39.4570   32.2210   36.7500 N   0  0  0  0  0  0  0  0  0  0  0  0
   40.3660   31.6800   36.8590 H   0  0  0  0  0  0  0  0  0  0  0  0
   38.9900   32.8680   36.1090 H   0  0  0  0  0  0  0  0  0  0  0  0
   36.9250   29.3120   41.7710 C   0  0  0  0  0  0  0  0  0  0  0  0
   37.7500   29.3030   42.8670 C   0  0  0  0  0  0  0  0  0  0  0  0
   38.0590   27.9790   43.1370 C   0  0  0  0  0  0  0  0  0  0  0  0
   37.3930   27.2340   42.1740 C   0  0  0  0  0  0  0  0  0  0  0  0
   36.7660   28.0750   41.4310 O   0  0  0  0  0  0  0  0  0  0  0  0
   38.1450   30.1050   43.4770 H   0  0  0  0  0  0  0  0  0  0  0  0
   38.6660   27.4770   43.8910 H   0  0  0  0  0  0  0  0  0  0  0  0
   37.2830   25.4810   41.8420 S   0  0  0  0  0  0  0  0  0  0  0  0
   36.9210   25.2510   40.4980 H   0  0  0  0  0  0  0  0  0  0  0  0
  1 15  1  0  0  0  0
  1  2  1  0  0  0  0
  3  1  1  0  0  0  0
  4  5  2  0  0  0  0
  4  9  1  0  0  0  0
  5  6  1  0  0  0  0
  6 11  1  0  0  0  0
  6  7  2  0  0  0  0
  8  7  1  0  0  0  0
  8  1  1  0  0  0  0
  9  8  2  0  0  0  0
 10  4  1  0  0  0  0
 12 13  1  0  0  0  0
 12  5  1  0  0  0  0
 14 12  1  0  0  0  0
 15 16  2  0  0  0  0
 16 17  1  0  0  0  0
 16 20  1  0  0  0  0
 17 21  1  0  0  0  0
 18 17  2  0  0  0  0
 19 15  1  0  0  0  0
 19 18  1  0  0  0  0
 22 18  1  0  0  0  0
 23 22  1  0  0  0  0
M  END
>  <minimizedAffinity>
-4.47404575

$$$$

 OpenBabel03242518203D

 23 24  0  0  0  0  0  0  0  0999 V2000
   36.9040   27.0540   42.9730 C   0  0  0  0  0  0  0  0  0  0  0  0
   37.5190   27.1790   43.8840 H   0  0  0  0  0  0  0  0  0  0  0  0
   35.8640   26.8190   43.3070 H   0  0  0  0  0  0  0  0  0  0  0  0
   37.6110   30.4360   41.7570 C   0  0  0  0  0  0  0  0  0  0  0  0
   36.6110   30.6560   40.7960 C   0  0  0  0  0  0  0  0  0  0  0  0
   35.7010   29.6460   40.5700 C   0  0  0  0  0  0  0  0  0  0  0  0
   35.8080   28.4920   41.2790 N   0  0  0  0  0  0  0  0  0  0  0  0
   36.7890   28.3130   42.2010 C   0  0  0  0  0  0  0  0  0  0  0  0
   37.7030   29.3040   42.4400 N   0  0  0  0  0  0  0  0  0  0  0  0
   38.3560   31.1870   41.9830 H   0  0  0  0  0  0  0  0  0  0  0  0
   34.9400   29.8290   39.8320 H   0  0  0  0  0  0  0  0  0  0  0  0
   36.6340   31.9150   40.1410 N   0  0  0  0  0  0  0  0  0  0  0  0
   35.6780   32.3060   40.3940 H   0  0  0  0  0  0  0  0  0  0  0  0
   37.4770   32.1590   39.6140 H   0  0  0  0  0  0  0  0  0  0  0  0
   37.4180   25.9420   42.0960 C   0  0  0  0  0  0  0  0  0  0  0  0
   36.8820   24.6800   42.0630 C   0  0  0  0  0  0  0  0  0  0  0  0
   37.6160   23.9460   41.1450 C   0  0  0  0  0  0  0  0  0  0  0  0
   38.5810   24.8160   40.6550 C   0  0  0  0  0  0  0  0  0  0  0  0
   38.3970   25.9390   41.2520 O   0  0  0  0  0  0  0  0  0  0  0  0
   36.0550   24.2350   42.6000 H   0  0  0  0  0  0  0  0  0  0  0  0
   37.5730   22.9200   40.7800 H   0  0  0  0  0  0  0  0  0  0  0  0
   39.8960   24.6370   39.4560 S   0  0  0  0  0  0  0  0  0  0  0  0
   40.8970   25.6080   39.6670 H   0  0  0  0  0  0  0  0  0  0  0  0
  1  3  1  0  0  0  0
  1  2  1  0  0  0  0
  4 10  1  0  0  0  0
  4  9  1  0  0  0  0
  5  4  2  0  0  0  0
  6  5  1  0  0  0  0
  6  7  2  0  0  0  0
  7  8  1  0  0  0  0
  8  9  2  0  0  0  0
  8  1  1  0  0  0  0
 11  6  1  0  0  0  0
 12 13  1  0  0  0  0
 12  5  1  0  0  0  0
 14 12  1  0  0  0  0
 15  1  1  0  0  0  0
 16 15  2  0  0  0  0
 16 20  1  0  0  0  0
 17 16  1  0  0  0  0
 18 17  2  0  0  0  0
 18 19  1  0  0  0  0
 19 15  1  0  0  0  0
 21 17  1  0  0  0  0
 22 23  1  0  0  0  0
 22 18  1  0  0  0  0
M  END
>  <minimizedAffinity>
-4.369771

$$$$

 OpenBabel03242518203D

 23 24  0  0  0  0  0  0  0  0999 V2000
   36.6250   30.5440   41.2280 C   0  0  0  0  0  0  0  0  0  0  0  0
   36.5770   31.3370   42.0000 H   0  0  0  0  0  0  0  0  0  0  0  0
   35.5920   30.4160   40.8220 H   0  0  0  0  0  0  0  0  0  0  0  0
   38.8700   32.5080   39.1030 C   0  0  0  0  0  0  0  0  0  0  0  0
   38.9930   31.7270   37.9430 C   0  0  0  0  0  0  0  0  0  0  0  0
   38.3070   30.5320   37.8960 C   0  0  0  0  0  0  0  0  0  0  0  0
   37.5490   30.1650   38.9600 N   0  0  0  0  0  0  0  0  0  0  0  0
   37.4520   30.9460   40.0680 C   0  0  0  0  0  0  0  0  0  0  0  0
   38.1270   32.1360   40.1350 N   0  0  0  0  0  0  0  0  0  0  0  0
   39.3820   33.4570   39.2050 H   0  0  0  0  0  0  0  0  0  0  0  0
   38.4100   29.9440   37.0000 H   0  0  0  0  0  0  0  0  0  0  0  0
   39.8230   32.2490   36.9170 N   0  0  0  0  0  0  0  0  0  0  0  0
   39.1400   32.3240   36.1050 H   0  0  0  0  0  0  0  0  0  0  0  0
   40.8050   32.4240   37.1470 H   0  0  0  0  0  0  0  0  0  0  0  0
   37.1120   29.2360   41.7960 C   0  0  0  0  0  0  0  0  0  0  0  0
   36.3540   28.0950   41.8550 C   0  0  0  0  0  0  0  0  0  0  0  0
   37.1370   27.1110   42.4360 C   0  0  0  0  0  0  0  0  0  0  0  0
   38.3580   27.7140   42.7070 C   0  0  0  0  0  0  0  0  0  0  0  0
   38.2590   28.9320   42.3090 O   0  0  0  0  0  0  0  0  0  0  0  0
   35.3390   27.8880   41.5420 H   0  0  0  0  0  0  0  0  0  0  0  0
   36.9800   26.0620   42.6890 H   0  0  0  0  0  0  0  0  0  0  0  0
   39.8780   27.1270   43.4430 S   0  0  0  0  0  0  0  0  0  0  0  0
   40.6290   28.2040   43.9570 H   0  0  0  0  0  0  0  0  0  0  0  0
  1 15  1  0  0  0  0
  1  2  1  0  0  0  0
  3  1  1  0  0  0  0
  4 10  1  0  0  0  0
  4  9  1  0  0  0  0
  5  4  2  0  0  0  0
  6  5  1  0  0  0  0
  6  7  2  0  0  0  0
  7  8  1  0  0  0  0
  8  9  2  0  0  0  0
  8  1  1  0  0  0  0
 11  6  1  0  0  0  0
 12 14  1  0  0  0  0
 12  5  1  0  0  0  0
 13 12  1  0  0  0  0
 15 16  2  0  0  0  0
 15 19  1  0  0  0  0
 16 17  1  0  0  0  0
 17 21  1  0  0  0  0
 17 18  2  0  0  0  0
 18 22  1  0  0  0  0
 19 18  1  0  0  0  0
 20 16  1  0  0  0  0
 22 23  1  0  0  0  0
M  END
>  <minimizedAffinity>
-4.36573458

$$$$

 OpenBabel03242518203D

 23 24  0  0  0  0  0  0  0  0999 V2000
   35.7920   29.8230   40.7740 C   0  0  0  0  0  0  0  0  0  0  0  0
   35.1220   29.3030   40.0610 H   0  0  0  0  0  0  0  0  0  0  0  0
   35.1440   30.2650   41.5710 H   0  0  0  0  0  0  0  0  0  0  0  0
   37.6570   26.7760   41.5810 C   0  0  0  0  0  0  0  0  0  0  0  0
   38.3430   27.1110   42.7580 C   0  0  0  0  0  0  0  0  0  0  0  0
   38.1640   28.3800   43.2690 C   0  0  0  0  0  0  0  0  0  0  0  0
   37.3390   29.2410   42.6190 N   0  0  0  0  0  0  0  0  0  0  0  0
   36.6900   28.8820   41.4810 C   0  0  0  0  0  0  0  0  0  0  0  0
   36.8560   27.6280   40.9570 N   0  0  0  0  0  0  0  0  0  0  0  0
   37.7530   25.7980   41.1270 H   0  0  0  0  0  0  0  0  0  0  0  0
   38.6960   28.6230   44.1720 H   0  0  0  0  0  0  0  0  0  0  0  0
   39.1670   26.1010   43.3170 N   0  0  0  0  0  0  0  0  0  0  0  0
   38.7360   25.9800   44.2810 H   0  0  0  0  0  0  0  0  0  0  0  0
   39.9290   25.7360   42.7370 H   0  0  0  0  0  0  0  0  0  0  0  0
   36.5880   30.9120   40.1050 C   0  0  0  0  0  0  0  0  0  0  0  0
   36.8240   30.9720   38.7550 C   0  0  0  0  0  0  0  0  0  0  0  0
   37.5850   32.1050   38.5210 C   0  0  0  0  0  0  0  0  0  0  0  0
   37.7790   32.6920   39.7640 C   0  0  0  0  0  0  0  0  0  0  0  0
   37.1740   31.9440   40.6180 O   0  0  0  0  0  0  0  0  0  0  0  0
   36.5260   30.3210   37.9430 H   0  0  0  0  0  0  0  0  0  0  0  0
   38.0120   32.5670   37.6290 H   0  0  0  0  0  0  0  0  0  0  0  0
   38.6420   34.1610   40.3050 S   0  0  0  0  0  0  0  0  0  0  0  0
   38.9820   34.0630   41.6700 H   0  0  0  0  0  0  0  0  0  0  0  0
  1  8  1  0  0  0  0
  1  3  1  0  0  0  0
  2  1  1  0  0  0  0
  4  5  1  0  0  0  0
  5  6  2  0  0  0  0
  5 12  1  0  0  0  0
  6 11  1  0  0  0  0
  7  6  1  0  0  0  0
  8  7  2  0  0  0  0
  9  8  1  0  0  0  0
  9  4  2  0  0  0  0
 10  4  1  0  0  0  0
 12 13  1  0  0  0  0
 14 12  1  0  0  0  0
 15 19  1  0  0  0  0
 15  1  1  0  0  0  0
 16 15  2  0  0  0  0
 17 16  1  0  0  0  0
 17 18  2  0  0  0  0
 18 22  1  0  0  0  0
 18 19  1  0  0  0  0
 20 16  1  0  0  0  0
 21 17  1  0  0  0  0
 22 23  1  0  0  0  0
M  END
>  <minimizedAffinity>
-4.21836185

$$$$

 OpenBabel03242518203D

 23 24  0  0  0  0  0  0  0  0999 V2000
   37.3740   28.2830   43.0400 C   0  0  0  0  0  0  0  0  0  0  0  0
   36.6270   28.2540   43.8570 H   0  0  0  0  0  0  0  0  0  0  0  0
   38.3310   28.6540   43.4810 H   0  0  0  0  0  0  0  0  0  0  0  0
   36.9940   24.7430   42.1800 C   0  0  0  0  0  0  0  0  0  0  0  0
   38.2160   24.4190   41.5710 C   0  0  0  0  0  0  0  0  0  0  0  0
   39.1630   25.4140   41.4580 C   0  0  0  0  0  0  0  0  0  0  0  0
   38.8770   26.6530   41.9350 N   0  0  0  0  0  0  0  0  0  0  0  0
   37.6830   26.9320   42.5200 C   0  0  0  0  0  0  0  0  0  0  0  0
   36.7290   25.9570   42.6410 N   0  0  0  0  0  0  0  0  0  0  0  0
   36.2070   24.0090   42.3010 H   0  0  0  0  0  0  0  0  0  0  0  0
   40.0960   25.1520   40.9890 H   0  0  0  0  0  0  0  0  0  0  0  0
   38.3620   23.0800   41.1240 N   0  0  0  0  0  0  0  0  0  0  0  0
   39.2080   22.7570   41.6820 H   0  0  0  0  0  0  0  0  0  0  0  0
   37.6930   22.7380   40.4280 H   0  0  0  0  0  0  0  0  0  0  0  0
   36.9450   29.1950   41.9200 C   0  0  0  0  0  0  0  0  0  0  0  0
   35.9170   28.9170   41.0550 C   0  0  0  0  0  0  0  0  0  0  0  0
   35.8240   29.9810   40.1720 C   0  0  0  0  0  0  0  0  0  0  0  0
   36.8190   30.8710   40.5520 C   0  0  0  0  0  0  0  0  0  0  0  0
   37.4150   30.3440   41.5610 O   0  0  0  0  0  0  0  0  0  0  0  0
   35.2470   28.0700   40.9820 H   0  0  0  0  0  0  0  0  0  0  0  0
   35.1780   30.2150   39.3260 H   0  0  0  0  0  0  0  0  0  0  0  0
   37.3440   32.4610   39.9240 S   0  0  0  0  0  0  0  0  0  0  0  0
   38.6770   32.7280   40.3000 H   0  0  0  0  0  0  0  0  0  0  0  0
  1  3  1  0  0  0  0
  1  2  1  0  0  0  0
  4 10  1  0  0  0  0
  4  9  1  0  0  0  0
  5  4  2  0  0  0  0
  6  5  1  0  0  0  0
  6  7  2  0  0  0  0
  7  8  1  0  0  0  0
  8  9  2  0  0  0  0
  8  1  1  0  0  0  0
 11  6  1  0  0  0  0
 12  5  1  0  0  0  0
 12 13  1  0  0  0  0
 14 12  1  0  0  0  0
 15  1  1  0  0  0  0
 16 15  2  0  0  0  0
 17 18  2  0  0  0  0
 17 16  1  0  0  0  0
 18 19  1  0  0  0  0
 19 15  1  0  0  0  0
 20 16  1  0  0  0  0
 21 17  1  0  0  0  0
 22 23  1  0  0  0  0
 22 18  1  0  0  0  0
M  END
>  <minimizedAffinity>
-4.17169094

$$$$

 OpenBabel03242518203D

 23 24  0  0  0  0  0  0  0  0999 V2000
   37.4070   27.4290   40.7920 C   0  0  0  0  0  0  0  0  0  0  0  0
   36.4200   27.0020   41.0580 H   0  0  0  0  0  0  0  0  0  0  0  0
   37.6670   27.0480   39.7750 H   0  0  0  0  0  0  0  0  0  0  0  0
   36.1090   30.8550   40.7820 C   0  0  0  0  0  0  0  0  0  0  0  0
   37.2210   31.6270   40.4110 C   0  0  0  0  0  0  0  0  0  0  0  0
   38.4090   30.9700   40.1670 C   0  0  0  0  0  0  0  0  0  0  0  0
   38.4520   29.6190   40.2940 N   0  0  0  0  0  0  0  0  0  0  0  0
   37.3560   28.9030   40.6550 C   0  0  0  0  0  0  0  0  0  0  0  0
   36.1680   29.5360   40.9020 N   0  0  0  0  0  0  0  0  0  0  0  0
   35.1470   31.3070   40.9880 H   0  0  0  0  0  0  0  0  0  0  0  0
   39.2520   31.5750   39.8830 H   0  0  0  0  0  0  0  0  0  0  0  0
   37.0140   33.0280   40.3220 N   0  0  0  0  0  0  0  0  0  0  0  0
   37.2610   33.2180   39.3050 H   0  0  0  0  0  0  0  0  0  0  0  0
   36.7030   33.5150   41.1670 H   0  0  0  0  0  0  0  0  0  0  0  0
   38.4750   27.0270   41.7740 C   0  0  0  0  0  0  0  0  0  0  0  0
   38.4520   27.3450   43.1080 C   0  0  0  0  0  0  0  0  0  0  0  0
   39.5930   26.8060   43.6800 C   0  0  0  0  0  0  0  0  0  0  0  0
   40.2680   26.1730   42.6440 C   0  0  0  0  0  0  0  0  0  0  0  0
   39.5590   26.3470   41.5860 O   0  0  0  0  0  0  0  0  0  0  0  0
   37.7380   27.9000   43.7030 H   0  0  0  0  0  0  0  0  0  0  0  0
   40.0080   26.7930   44.6880 H   0  0  0  0  0  0  0  0  0  0  0  0
   41.8000   25.2560   42.5620 S   0  0  0  0  0  0  0  0  0  0  0  0
   42.3070   25.2530   41.2460 H   0  0  0  0  0  0  0  0  0  0  0  0
  1  2  1  0  0  0  0
  1 15  1  0  0  0  0
  3  1  1  0  0  0  0
  4  9  1  0  0  0  0
  4 10  1  0  0  0  0
  5  4  2  0  0  0  0
  6  7  2  0  0  0  0
  6  5  1  0  0  0  0
  7  8  1  0  0  0  0
  8  1  1  0  0  0  0
  8  9  2  0  0  0  0
 11  6  1  0  0  0  0
 12  5  1  0  0  0  0
 12 14  1  0  0  0  0
 13 12  1  0  0  0  0
 15 16  2  0  0  0  0
 16 17  1  0  0  0  0
 16 20  1  0  0  0  0
 17 21  1  0  0  0  0
 18 17  2  0  0  0  0
 19 15  1  0  0  0  0
 19 18  1  0  0  0  0
 22 18  1  0  0  0  0
 23 22  1  0  0  0  0
M  END
>  <minimizedAffinity>
-4.13282013

$$$$

 OpenBabel03242518203D

 23 24  0  0  0  0  0  0  0  0999 V2000
   36.3650   30.7890   41.0540 C   0  0  0  0  0  0  0  0  0  0  0  0
   35.2720   30.7490   41.2250 H   0  0  0  0  0  0  0  0  0  0  0  0
   36.7410   31.7210   41.5420 H   0  0  0  0  0  0  0  0  0  0  0  0
   38.9420   28.9570   42.9040 C   0  0  0  0  0  0  0  0  0  0  0  0
   38.4190   27.6580   42.9980 C   0  0  0  0  0  0  0  0  0  0  0  0
   37.1870   27.4160   42.4280 C   0  0  0  0  0  0  0  0  0  0  0  0
   36.5390   28.4340   41.8060 N   0  0  0  0  0  0  0  0  0  0  0  0
   37.0740   29.6800   41.7330 C   0  0  0  0  0  0  0  0  0  0  0  0
   38.2960   29.9400   42.2930 N   0  0  0  0  0  0  0  0  0  0  0  0
   39.9040   29.2140   43.3290 H   0  0  0  0  0  0  0  0  0  0  0  0
   36.7990   26.4160   42.5080 H   0  0  0  0  0  0  0  0  0  0  0  0
   39.2190   26.7050   43.6800 N   0  0  0  0  0  0  0  0  0  0  0  0
   39.3740   25.9730   42.9240 H   0  0  0  0  0  0  0  0  0  0  0  0
   39.4560   26.8980   44.6570 H   0  0  0  0  0  0  0  0  0  0  0  0
   36.7030   30.8120   39.5860 C   0  0  0  0  0  0  0  0  0  0  0  0
   37.3370   31.8550   38.9610 C   0  0  0  0  0  0  0  0  0  0  0  0
   37.4730   31.5120   37.6260 C   0  0  0  0  0  0  0  0  0  0  0  0
   36.9040   30.2510   37.5020 C   0  0  0  0  0  0  0  0  0  0  0  0
   36.4880   29.9230   38.6730 O   0  0  0  0  0  0  0  0  0  0  0  0
   37.7020   32.8030   39.3340 H   0  0  0  0  0  0  0  0  0  0  0  0
   37.9000   32.0040   36.7520 H   0  0  0  0  0  0  0  0  0  0  0  0
   36.6850   29.1360   36.1220 S   0  0  0  0  0  0  0  0  0  0  0  0
   35.6330   28.2320   36.3750 H   0  0  0  0  0  0  0  0  0  0  0  0
  1  2  1  0  0  0  0
  1  3  1  0  0  0  0
  1  8  1  0  0  0  0
  4  5  1  0  0  0  0
  4 10  1  0  0  0  0
  5 12  1  0  0  0  0
  6 11  1  0  0  0  0
  6  5  2  0  0  0  0
  7  6  1  0  0  0  0
  8  7  2  0  0  0  0
  8  9  1  0  0  0  0
  9  4  2  0  0  0  0
 12 14  1  0  0  0  0
 13 12  1  0  0  0  0
 15  1  1  0  0  0  0
 16 20  1  0  0  0  0
 16 15  2  0  0  0  0
 17 16  1  0  0  0  0
 18 17  2  0  0  0  0
 18 19  1  0  0  0  0
 19 15  1  0  0  0  0
 21 17  1  0  0  0  0
 22 23  1  0  0  0  0
 22 18  1  0  0  0  0
M  END
>  <minimizedAffinity>
-4.09218454

$$$$

 OpenBabel03242518203D

 23 24  0  0  0  0  0  0  0  0999 V2000
   36.1340   28.2450   40.3650 C   0  0  0  0  0  0  0  0  0  0  0  0
   35.1050   28.4750   40.7020 H   0  0  0  0  0  0  0  0  0  0  0  0
   36.0820   27.3070   39.7610 H   0  0  0  0  0  0  0  0  0  0  0  0
   37.7320   29.7730   37.4440 C   0  0  0  0  0  0  0  0  0  0  0  0
   37.6450   31.1490   37.7030 C   0  0  0  0  0  0  0  0  0  0  0  0
   37.0390   31.5470   38.8760 C   0  0  0  0  0  0  0  0  0  0  0  0
   36.5580   30.6000   39.7230 N   0  0  0  0  0  0  0  0  0  0  0  0
   36.6600   29.2760   39.4400 C   0  0  0  0  0  0  0  0  0  0  0  0
   37.2570   28.8610   38.2810 N   0  0  0  0  0  0  0  0  0  0  0  0
   38.1950   29.3920   36.5430 H   0  0  0  0  0  0  0  0  0  0  0  0
   36.9790   32.6050   39.0610 H   0  0  0  0  0  0  0  0  0  0  0  0
   38.1950   32.0110   36.7200 N   0  0  0  0  0  0  0  0  0  0  0  0
   38.9330   32.5330   37.2790 H   0  0  0  0  0  0  0  0  0  0  0  0
   37.8060   31.9590   35.7740 H   0  0  0  0  0  0  0  0  0  0  0  0
   37.0740   28.0490   41.5260 C   0  0  0  0  0  0  0  0  0  0  0  0
   36.6720   27.6920   42.7880 C   0  0  0  0  0  0  0  0  0  0  0  0
   37.8090   27.6100   43.5740 C   0  0  0  0  0  0  0  0  0  0  0  0
   38.8690   27.9270   42.7350 C   0  0  0  0  0  0  0  0  0  0  0  0
   38.3600   28.1660   41.5790 O   0  0  0  0  0  0  0  0  0  0  0  0
   35.6920   27.4900   43.2000 H   0  0  0  0  0  0  0  0  0  0  0  0
   37.9970   27.3670   44.6200 H   0  0  0  0  0  0  0  0  0  0  0  0
   40.6360   28.0440   42.9840 S   0  0  0  0  0  0  0  0  0  0  0  0
   41.2220   28.8710   42.0030 H   0  0  0  0  0  0  0  0  0  0  0  0
  1  2  1  0  0  0  0
  1 15  1  0  0  0  0
  3  1  1  0  0  0  0
  4  5  2  0  0  0  0
  4  9  1  0  0  0  0
  5  6  1  0  0  0  0
  6 11  1  0  0  0  0
  6  7  2  0  0  0  0
  8  7  1  0  0  0  0
  8  1  1  0  0  0  0
  9  8  2  0  0  0  0
 10  4  1  0  0  0  0
 12 13  1  0  0  0  0
 12  5  1  0  0  0  0
 14 12  1  0  0  0  0
 15 19  1  0  0  0  0
 15 16  2  0  0  0  0
 16 20  1  0  0  0  0
 16 17  1  0  0  0  0
 17 21  1  0  0  0  0
 18 22  1  0  0  0  0
 18 17  2  0  0  0  0
 19 18  1  0  0  0  0
 23 22  1  0  0  0  0
M  END
>  <minimizedAffinity>
-4.0913806

$$$$
