
 OpenBabel03252509163D

 18 19  0  0  0  0  0  0  0  0999 V2000
   44.4950   36.0650   44.5760 C   0  0  0  0  0  0  0  0  0  0  0  0
   45.0950   36.1530   43.2930 C   0  0  0  0  0  0  0  0  0  0  0  0
   46.0020   35.1440   42.9180 C   0  0  0  0  0  0  0  0  0  0  0  0
   46.2470   34.1410   43.8180 N   0  0  0  0  0  0  0  0  0  0  0  0
   45.6450   34.1120   45.0270 C   0  0  0  0  0  0  0  0  0  0  0  0
   44.7660   35.0740   45.4130 N   0  0  0  0  0  0  0  0  0  0  0  0
   43.8010   36.8260   44.8810 H   0  0  0  0  0  0  0  0  0  0  0  0
   44.8770   36.9610   42.6060 H   0  0  0  0  0  0  0  0  0  0  0  0
   46.4960   35.1400   41.9620 H   0  0  0  0  0  0  0  0  0  0  0  0
   46.0680   32.9420   45.8070 C   0  0  0  0  0  0  0  0  0  0  0  0
   45.7320   32.7310   47.1660 C   0  0  0  0  0  0  0  0  0  0  0  0
   46.1850   31.6100   47.7700 C   0  0  0  0  0  0  0  0  0  0  0  0
   46.9760   30.6880   47.0340 C   0  0  0  0  0  0  0  0  0  0  0  0
   47.0700   31.4800   45.3850 S   0  0  0  0  0  0  0  0  0  0  0  0
   45.1280   33.4530   47.6980 H   0  0  0  0  0  0  0  0  0  0  0  0
   46.0100   31.3290   48.7710 H   0  0  0  0  0  0  0  0  0  0  0  0
   47.7150   29.1520   47.5160 S   0  0  0  0  0  0  0  0  0  0  0  0
   48.8220   28.8230   46.6790 H   0  0  0  0  0  0  0  0  0  0  0  0
  1  7  1  0  0  0  0
  1  6  1  0  0  0  0
  2  1  2  0  0  0  0
  3  2  1  0  0  0  0
  3  4  2  0  0  0  0
  4  5  1  0  0  0  0
  5  6  2  0  0  0  0
  5 10  1  0  0  0  0
  8  2  1  0  0  0  0
  9  3  1  0  0  0  0
 10 11  2  0  0  0  0
 11 15  1  0  0  0  0
 11 12  1  0  0  0  0
 12 16  1  0  0  0  0
 13 17  1  0  0  0  0
 13 12  2  0  0  0  0
 14 10  1  0  0  0  0
 14 13  1  0  0  0  0
 18 17  1  0  0  0  0
M  END
>  <minimizedAffinity>
-3.99154758

>  <minimizedRMSD>
1.09535766

$$$$
