
 OpenBabel03252507133D

 35 36  0  0  1  0  0  0  0  0999 V2000
   50.2400   34.8280   42.7040 O   0  0  0  0  0  0  0  0  0  0  0  0
   49.0260   34.5940   41.8890 P   0  0  1  0  0  0  0  0  0  0  0  0
   49.0110   35.7810   40.6680 O   0  0  0  0  0  0  0  0  0  0  0  0
   49.7700   35.6640   40.0460 H   0  0  0  0  0  0  0  0  0  0  0  0
   49.1230   33.0660   41.0970 O   0  0  0  0  0  0  0  0  0  0  0  0
   49.6210   31.3090   42.5890 C   0  0  0  0  0  0  0  0  0  0  0  0
   50.0000   32.0870   41.5210 C   0  0  0  0  0  0  0  0  0  0  0  0
   51.2580   31.8500   40.9120 C   0  0  0  0  0  0  0  0  0  0  0  0
   52.0160   30.8550   41.4330 N   0  0  0  0  0  0  0  0  0  0  0  0
   51.6200   30.1270   42.4610 C   0  0  0  0  0  0  0  0  0  0  0  0
   50.4120   30.3640   43.0340 N   0  0  0  0  0  0  0  0  0  0  0  0
   47.2550   30.6410   42.9880 C   0  0  0  0  0  0  0  0  0  0  0  0
   47.0380   30.3480   41.7520 O   0  0  0  0  0  0  0  0  0  0  0  0
   48.5400   31.1470   43.4930 N   0  0  0  0  0  0  0  0  0  0  0  0
   51.5290   32.4680   40.0850 H   0  0  0  0  0  0  0  0  0  0  0  0
   52.2140   29.3160   42.9000 H   0  0  0  0  0  0  0  0  0  0  0  0
   46.4130   30.4930   43.6580 H   0  0  0  0  0  0  0  0  0  0  0  0
   48.5250   31.3510   44.5100 H   0  0  0  0  0  0  0  0  0  0  0  0
   47.6210   34.7120   42.7450 O   0  0  0  0  0  0  0  0  0  0  0  0
   46.4730   34.9330   42.1080 C   0  0  2  0  0  0  0  0  0  0  0  0
   45.4650   35.8050   42.7390 C   0  0  0  0  0  0  0  0  0  0  0  0
   44.1230   35.5390   42.0940 C   0  0  0  0  0  0  0  0  0  0  0  0
   43.6090   34.3140   42.5100 O   0  0  0  0  0  0  0  0  0  0  0  0
   44.6310   33.3930   42.6920 C   0  0  0  0  0  0  0  0  0  0  0  0
   45.7590   33.6270   41.7170 C   0  0  1  0  0  0  0  0  0  0  0  0
   46.7300   35.3480   41.0970 H   0  0  0  0  0  0  0  0  0  0  0  0
   45.7180   36.8790   42.5870 H   0  0  0  0  0  0  0  0  0  0  0  0
   45.3550   35.6200   43.8340 H   0  0  0  0  0  0  0  0  0  0  0  0
   43.4530   36.3580   42.4660 H   0  0  0  0  0  0  0  0  0  0  0  0
   44.1810   35.6710   41.0150 H   0  0  0  0  0  0  0  0  0  0  0  0
   45.0550   33.4280   43.7040 H   0  0  0  0  0  0  0  0  0  0  0  0
   44.2140   32.3790   42.4970 H   0  0  0  0  0  0  0  0  0  0  0  0
   46.4980   32.8190   41.8990 H   0  0  0  0  0  0  0  0  0  0  0  0
   45.2610   33.5590   40.0110 S   0  0  0  0  0  0  0  0  0  0  0  0
   45.0070   32.2760   39.5440 H   0  0  0  0  0  0  0  0  0  0  0  0
  2  1  2  1  0  0  0
  2 19  1  0  0  0  0
  3  2  1  0  0  0  0
  4  3  1  0  0  0  0
  5  7  1  0  0  0  0
  5  2  1  0  0  0  0
  6 11  1  0  0  0  0
  6 14  1  0  0  0  0
  7  6  2  0  0  0  0
  8  9  2  0  0  0  0
  8  7  1  0  0  0  0
  9 10  1  0  0  0  0
 10 16  1  0  0  0  0
 10 11  2  0  0  0  0
 12 14  1  0  0  0  0
 12 17  1  0  0  0  0
 13 12  2  0  0  0  0
 14 18  1  0  0  0  0
 15  8  1  0  0  0  0
 20 26  1  6  0  0  0
 20 21  1  0  0  0  0
 20 19  1  0  0  0  0
 21 28  1  0  0  0  0
 22 29  1  0  0  0  0
 22 23  1  0  0  0  0
 22 21  1  0  0  0  0
 23 24  1  0  0  0  0
 24 31  1  0  0  0  0
 25 33  1  1  0  0  0
 25 20  1  0  0  0  0
 25 24  1  0  0  0  0
 27 21  1  0  0  0  0
 30 22  1  0  0  0  0
 32 24  1  0  0  0  0
 34 25  1  0  0  0  0
 35 34  1  0  0  0  0
M  END
>  <minimizedAffinity>
-4.18592405

>  <minimizedRMSD>
0.520344496

$$$$
