
 OpenBabel03252507223D

 40 42  0  0  1  0  0  0  0  0999 V2000
   47.3170   33.6470   42.8390 C   0  0  0  0  0  0  0  0  0  0  0  0
   48.4220   33.4370   43.4250 O   0  0  0  0  0  0  0  0  0  0  0  0
   47.0160   33.1340   41.5490 N   0  0  0  0  0  0  0  0  0  0  0  0
   45.7910   32.4980   41.0430 C   0  0  0  0  0  0  0  0  0  0  0  0
   45.3410   33.1730   39.7680 C   0  0  0  0  0  0  0  0  0  0  0  0
   46.3860   33.0120   38.6940 C   0  0  0  0  0  0  0  0  0  0  0  0
   47.6650   32.4690   39.3060 C   0  0  0  0  0  0  0  0  0  0  0  0
   48.0310   33.2190   40.5360 C   0  0  2  0  0  0  0  0  0  0  0  0
   45.8980   31.4210   40.9200 H   0  0  0  0  0  0  0  0  0  0  0  0
   45.0040   32.7400   41.7990 H   0  0  0  0  0  0  0  0  0  0  0  0
   44.4480   32.6120   39.4190 H   0  0  0  0  0  0  0  0  0  0  0  0
   45.0280   34.2040   39.9580 H   0  0  0  0  0  0  0  0  0  0  0  0
   46.6550   34.0390   38.3140 H   0  0  0  0  0  0  0  0  0  0  0  0
   46.0710   32.4120   37.8390 H   0  0  0  0  0  0  0  0  0  0  0  0
   48.4620   32.6210   38.5380 H   0  0  0  0  0  0  0  0  0  0  0  0
   47.5270   31.3890   39.5000 H   0  0  0  0  0  0  0  0  0  0  0  0
   48.0890   34.3000   40.2510 H   0  0  0  0  0  0  0  0  0  0  0  0
   45.9570   35.6750   42.9310 C   0  0  0  0  0  0  0  0  0  0  0  0
   46.3290   34.4440   43.5170 C   0  0  0  0  0  0  0  0  0  0  0  0
   45.7450   34.0410   44.7080 C   0  0  0  0  0  0  0  0  0  0  0  0
   44.8280   34.8490   45.2740 N   0  0  0  0  0  0  0  0  0  0  0  0
   44.4570   36.0430   44.7200 C   0  0  0  0  0  0  0  0  0  0  0  0
   45.0320   36.4290   43.5580 N   0  0  0  0  0  0  0  0  0  0  0  0
   46.4230   35.9670   42.0070 H   0  0  0  0  0  0  0  0  0  0  0  0
   43.7140   36.6180   45.2530 H   0  0  0  0  0  0  0  0  0  0  0  0
   46.1520   32.7690   45.2810 C   0  0  0  0  0  0  0  0  0  0  0  0
   45.7750   31.6010   44.7030 C   0  0  0  0  0  0  0  0  0  0  0  0
   46.1840   30.4130   45.2800 C   0  0  0  0  0  0  0  0  0  0  0  0
   46.9630   30.3590   46.4280 C   0  0  0  0  0  0  0  0  0  0  0  0
   47.3190   31.5870   46.9780 C   0  0  0  0  0  0  0  0  0  0  0  0
   46.9070   32.7130   46.3940 N   0  0  0  0  0  0  0  0  0  0  0  0
   45.1790   31.5220   43.8240 H   0  0  0  0  0  0  0  0  0  0  0  0
   45.8890   29.4530   44.8260 H   0  0  0  0  0  0  0  0  0  0  0  0
   47.2580   29.4190   46.8430 H   0  0  0  0  0  0  0  0  0  0  0  0
   47.9220   31.5850   47.8680 H   0  0  0  0  0  0  0  0  0  0  0  0
   49.4020   32.8230   41.0080 C   0  0  0  0  0  0  0  0  0  0  0  0
   50.1130   33.3140   40.2730 H   0  0  0  0  0  0  0  0  0  0  0  0
   49.6880   33.2570   41.9770 H   0  0  0  0  0  0  0  0  0  0  0  0
   49.7130   31.0560   40.8550 S   0  0  0  0  0  0  0  0  0  0  0  0
   50.5860   30.5660   41.8420 H   0  0  0  0  0  0  0  0  0  0  0  0
  1  2  2  0  0  0  0
  1 19  1  0  0  0  0
  3  1  1  0  0  0  0
  4  3  1  0  0  0  0
  4 10  1  0  0  0  0
  5 12  1  0  0  0  0
  5  4  1  0  0  0  0
  6  7  1  0  0  0  0
  6  5  1  0  0  0  0
  7 16  1  0  0  0  0
  7  8  1  0  0  0  0
  8 17  1  6  0  0  0
  8 36  1  0  0  0  0
  8  3  1  0  0  0  0
  9  4  1  0  0  0  0
 11  5  1  0  0  0  0
 13  6  1  0  0  0  0
 14  6  1  0  0  0  0
 15  7  1  0  0  0  0
 18 19  2  0  0  0  0
 18 23  1  0  0  0  0
 19 20  1  0  0  0  0
 20 21  2  0  0  0  0
 20 26  1  0  0  0  0
 22 25  1  0  0  0  0
 22 21  1  0  0  0  0
 23 22  2  0  0  0  0
 24 18  1  0  0  0  0
 26 31  1  0  0  0  0
 27 28  1  0  0  0  0
 27 26  2  0  0  0  0
 28 29  2  0  0  0  0
 29 34  1  0  0  0  0
 29 30  1  0  0  0  0
 30 35  1  0  0  0  0
 31 30  2  0  0  0  0
 32 27  1  0  0  0  0
 33 28  1  0  0  0  0
 36 38  1  0  0  0  0
 37 36  1  0  0  0  0
 39 36  1  0  0  0  0
 39 40  1  0  0  0  0
M  END
>  <minimizedAffinity>
-4.77265024

>  <minimizedRMSD>
0.175498575

$$$$
