
 OpenBabel03242512203D

 34 36  0  0  0  0  0  0  0  0999 V2000
   48.4800   33.0700   41.5140 C   0  0  0  0  0  0  0  0  0  0  0  0
   48.0130   34.2880   41.9240 C   0  0  0  0  0  0  0  0  0  0  0  0
   48.8780   35.1770   42.4970 C   0  0  0  0  0  0  0  0  0  0  0  0
   50.2180   34.8360   42.6550 C   0  0  0  0  0  0  0  0  0  0  0  0
   50.6550   33.5970   42.2290 C   0  0  0  0  0  0  0  0  0  0  0  0
   49.7710   32.6760   41.6390 C   0  0  0  0  0  0  0  0  0  0  0  0
   48.4650   36.1260   42.8050 H   0  0  0  0  0  0  0  0  0  0  0  0
   50.8840   35.5560   43.1100 H   0  0  0  0  0  0  0  0  0  0  0  0
   51.7050   33.3580   42.3650 H   0  0  0  0  0  0  0  0  0  0  0  0
   46.5790   34.5670   41.7200 C   0  0  0  0  0  0  0  0  0  0  0  0
   46.0390   33.7430   41.2780 H   0  0  0  0  0  0  0  0  0  0  0  0
   46.4450   35.4470   41.0830 H   0  0  0  0  0  0  0  0  0  0  0  0
   45.9010   34.8210   43.0510 C   0  0  0  0  0  0  0  0  0  0  0  0
   45.9950   33.8280   44.0280 C   0  0  0  0  0  0  0  0  0  0  0  0
   45.3700   34.0880   45.2330 C   0  0  0  0  0  0  0  0  0  0  0  0
   44.7210   35.2560   45.3920 N   0  0  0  0  0  0  0  0  0  0  0  0
   44.6490   36.2020   44.4230 C   0  0  0  0  0  0  0  0  0  0  0  0
   45.2420   35.9840   43.2450 N   0  0  0  0  0  0  0  0  0  0  0  0
   46.5140   32.9070   43.8810 H   0  0  0  0  0  0  0  0  0  0  0  0
   45.3700   33.4010   46.0650 H   0  0  0  0  0  0  0  0  0  0  0  0
   44.1180   37.1310   44.5870 H   0  0  0  0  0  0  0  0  0  0  0  0
   47.6690   32.0910   40.9160 O   0  0  0  0  0  0  0  0  0  0  0  0
   47.6040   31.2020   41.3700 H   0  0  0  0  0  0  0  0  0  0  0  0
   50.3310   31.4650   41.2530 O   0  0  0  0  0  0  0  0  0  0  0  0
   50.8290   31.4490   39.9460 C   0  0  0  0  0  0  0  0  0  0  0  0
   52.1990   31.4080   39.7820 C   0  0  0  0  0  0  0  0  0  0  0  0
   52.7860   31.3890   38.5090 C   0  0  0  0  0  0  0  0  0  0  0  0
   52.0010   31.4110   37.4330 N   0  0  0  0  0  0  0  0  0  0  0  0
   50.6680   31.4510   37.6060 C   0  0  0  0  0  0  0  0  0  0  0  0
   50.0910   31.4700   38.8110 N   0  0  0  0  0  0  0  0  0  0  0  0
   52.8360   31.3890   40.6550 H   0  0  0  0  0  0  0  0  0  0  0  0
   53.8710   31.3560   38.4890 H   0  0  0  0  0  0  0  0  0  0  0  0
   49.6380   31.4810   36.1410 S   0  0  0  0  0  0  0  0  0  0  0  0
   50.0130   30.3980   35.2940 H   0  0  0  0  0  0  0  0  0  0  0  0
  1  6  2  0  0  0  0
  1  2  1  0  0  0  0
  2  3  2  0  0  0  0
  3  4  1  0  0  0  0
  3  7  1  0  0  0  0
  4  8  1  0  0  0  0
  5  9  1  0  0  0  0
  5  4  2  0  0  0  0
  6  5  1  0  0  0  0
 10  2  1  0  0  0  0
 10 13  1  0  0  0  0
 11 10  1  0  0  0  0
 12 10  1  0  0  0  0
 13 18  2  0  0  0  0
 13 14  1  0  0  0  0
 14 15  2  0  0  0  0
 15 16  1  0  0  0  0
 15 20  1  0  0  0  0
 17 21  1  0  0  0  0
 17 16  2  0  0  0  0
 18 17  1  0  0  0  0
 19 14  1  0  0  0  0
 22 23  1  0  0  0  0
 22  1  1  0  0  0  0
 24  6  1  0  0  0  0
 25 24  1  0  0  0  0
 26 25  1  0  0  0  0
 26 31  1  0  0  0  0
 27 26  2  0  0  0  0
 28 29  2  0  0  0  0
 28 27  1  0  0  0  0
 29 30  1  0  0  0  0
 30 25  2  0  0  0  0
 32 27  1  0  0  0  0
 33 29  1  0  0  0  0
 34 33  1  0  0  0  0
M  END
>  <minimizedAffinity>
-5.45740032

>  <minimizedRMSD>
0.475596607

$$$$
