
 OpenBabel03252506493D

 22 23  0  0  0  0  0  0  0  0999 V2000
   35.8220   29.3620   41.0060 Cl  0  0  0  0  0  0  0  0  0  0  0  0
   37.3500   30.1160   41.4080 C   0  0  0  0  0  0  0  0  0  0  0  0
   38.0020   29.5870   42.4720 C   0  0  0  0  0  0  0  0  0  0  0  0
   39.2290   30.1580   42.8310 C   0  0  0  0  0  0  0  0  0  0  0  0
   39.7270   31.2280   42.0990 C   0  0  0  0  0  0  0  0  0  0  0  0
   39.0620   31.7680   41.0170 C   0  0  0  0  0  0  0  0  0  0  0  0
   37.8480   31.1880   40.6760 C   0  0  0  0  0  0  0  0  0  0  0  0
   36.9080   31.7860   39.3170 Cl  0  0  0  0  0  0  0  0  0  0  0  0
   39.8220   29.8070   43.6600 H   0  0  0  0  0  0  0  0  0  0  0  0
   40.6780   31.6750   42.3740 H   0  0  0  0  0  0  0  0  0  0  0  0
   39.4490   32.6040   40.4440 H   0  0  0  0  0  0  0  0  0  0  0  0
   37.4920   28.2350   43.4890 S   0  0  0  0  0  0  0  0  0  0  0  0
   38.3000   26.6920   43.0720 C   0  0  0  0  0  0  0  0  0  0  0  0
   39.5460   26.4870   43.6790 C   0  0  0  0  0  0  0  0  0  0  0  0
   40.2380   25.3040   43.4020 C   0  0  0  0  0  0  0  0  0  0  0  0
   39.6650   24.4110   42.5540 N   0  0  0  0  0  0  0  0  0  0  0  0
   38.4660   24.6450   41.9890 C   0  0  0  0  0  0  0  0  0  0  0  0
   37.7640   25.7810   42.2350 N   0  0  0  0  0  0  0  0  0  0  0  0
   39.9790   27.2240   44.3560 H   0  0  0  0  0  0  0  0  0  0  0  0
   41.2070   25.1060   43.8520 H   0  0  0  0  0  0  0  0  0  0  0  0
   37.8090   23.3980   40.8890 S   0  0  0  0  0  0  0  0  0  0  0  0
   37.6220   23.9490   39.6050 H   0  0  0  0  0  0  0  0  0  0  0  0
  1  2  1  0  0  0  0
  2  3  1  0  0  0  0
  3  4  2  0  0  0  0
  3 12  1  0  0  0  0
  4  9  1  0  0  0  0
  5 10  1  0  0  0  0
  5  4  1  0  0  0  0
  6  5  2  0  0  0  0
  7  6  1  0  0  0  0
  7  2  2  0  0  0  0
  8  7  1  0  0  0  0
 11  6  1  0  0  0  0
 13 12  1  0  0  0  0
 13 14  1  0  0  0  0
 14 19  1  0  0  0  0
 15 14  2  0  0  0  0
 15 20  1  0  0  0  0
 16 15  1  0  0  0  0
 17 18  1  0  0  0  0
 17 16  2  0  0  0  0
 18 13  2  0  0  0  0
 21 17  1  0  0  0  0
 22 21  1  0  0  0  0
M  END
>  <minimizedAffinity>
-4.80772305

$$$$

 OpenBabel03252506493D

 22 23  0  0  0  0  0  0  0  0999 V2000
   36.5810   26.8020   39.5780 Cl  0  0  0  0  0  0  0  0  0  0  0  0
   37.0130   27.5660   41.0930 C   0  0  0  0  0  0  0  0  0  0  0  0
   37.1860   28.9090   41.0430 C   0  0  0  0  0  0  0  0  0  0  0  0
   37.5320   29.5640   42.2320 C   0  0  0  0  0  0  0  0  0  0  0  0
   37.6840   28.8280   43.4000 C   0  0  0  0  0  0  0  0  0  0  0  0
   37.5090   27.4610   43.4500 C   0  0  0  0  0  0  0  0  0  0  0  0
   37.1660   26.8300   42.2620 C   0  0  0  0  0  0  0  0  0  0  0  0
   36.9150   25.0920   42.1990 Cl  0  0  0  0  0  0  0  0  0  0  0  0
   37.6900   30.6290   42.2930 H   0  0  0  0  0  0  0  0  0  0  0  0
   37.9520   29.3310   44.3240 H   0  0  0  0  0  0  0  0  0  0  0  0
   37.6270   26.8840   44.3610 H   0  0  0  0  0  0  0  0  0  0  0  0
   37.0260   29.9680   39.6370 S   0  0  0  0  0  0  0  0  0  0  0  0
   38.0480   31.4360   39.7380 C   0  0  0  0  0  0  0  0  0  0  0  0
   37.3510   32.6360   39.9300 C   0  0  0  0  0  0  0  0  0  0  0  0
   38.0810   33.8250   40.0190 C   0  0  0  0  0  0  0  0  0  0  0  0
   39.4330   33.7560   39.9140 N   0  0  0  0  0  0  0  0  0  0  0  0
   40.0660   32.5830   39.7280 C   0  0  0  0  0  0  0  0  0  0  0  0
   39.3910   31.4070   39.6380 N   0  0  0  0  0  0  0  0  0  0  0  0
   36.2640   32.6580   40.0110 H   0  0  0  0  0  0  0  0  0  0  0  0
   37.5800   34.7780   40.1680 H   0  0  0  0  0  0  0  0  0  0  0  0
   41.8500   32.6120   39.6030 S   0  0  0  0  0  0  0  0  0  0  0  0
   42.2460   32.1050   38.3490 H   0  0  0  0  0  0  0  0  0  0  0  0
  1  2  1  0  0  0  0
  2  7  1  0  0  0  0
  3  2  2  0  0  0  0
  3  4  1  0  0  0  0
  4  9  1  0  0  0  0
  4  5  2  0  0  0  0
  5  6  1  0  0  0  0
  5 10  1  0  0  0  0
  6 11  1  0  0  0  0
  7  6  2  0  0  0  0
  8  7  1  0  0  0  0
 12 13  1  0  0  0  0
 12  3  1  0  0  0  0
 13 14  1  0  0  0  0
 14 19  1  0  0  0  0
 14 15  2  0  0  0  0
 15 20  1  0  0  0  0
 16 15  1  0  0  0  0
 17 16  2  0  0  0  0
 18 17  1  0  0  0  0
 18 13  2  0  0  0  0
 21 17  1  0  0  0  0
 22 21  1  0  0  0  0
M  END
>  <minimizedAffinity>
-4.70252275

$$$$

 OpenBabel03252506493D

 22 23  0  0  0  0  0  0  0  0999 V2000
   39.8300   30.6050   42.6330 Cl  0  0  0  0  0  0  0  0  0  0  0  0
   38.3970   30.5150   41.6310 C   0  0  0  0  0  0  0  0  0  0  0  0
   37.4580   29.6230   42.0290 C   0  0  0  0  0  0  0  0  0  0  0  0
   36.2950   29.5150   41.2570 C   0  0  0  0  0  0  0  0  0  0  0  0
   36.1440   30.3130   40.1310 C   0  0  0  0  0  0  0  0  0  0  0  0
   37.1000   31.2210   39.7250 C   0  0  0  0  0  0  0  0  0  0  0  0
   38.2460   31.3130   40.5020 C   0  0  0  0  0  0  0  0  0  0  0  0
   39.5350   32.4330   40.0880 Cl  0  0  0  0  0  0  0  0  0  0  0  0
   35.4910   28.8360   41.4940 H   0  0  0  0  0  0  0  0  0  0  0  0
   35.2440   30.2330   39.5290 H   0  0  0  0  0  0  0  0  0  0  0  0
   36.9850   31.8450   38.8440 H   0  0  0  0  0  0  0  0  0  0  0  0
   37.5150   28.5490   43.4320 S   0  0  0  0  0  0  0  0  0  0  0  0
   38.2620   26.9610   43.0780 C   0  0  0  0  0  0  0  0  0  0  0  0
   39.5080   26.7400   43.6790 C   0  0  0  0  0  0  0  0  0  0  0  0
   40.1550   25.5220   43.4480 C   0  0  0  0  0  0  0  0  0  0  0  0
   39.5390   24.6110   42.6500 N   0  0  0  0  0  0  0  0  0  0  0  0
   38.3420   24.8620   42.0900 C   0  0  0  0  0  0  0  0  0  0  0  0
   37.6830   26.0330   42.2910 N   0  0  0  0  0  0  0  0  0  0  0  0
   39.9760   27.4910   44.3160 H   0  0  0  0  0  0  0  0  0  0  0  0
   41.1230   25.3100   43.8960 H   0  0  0  0  0  0  0  0  0  0  0  0
   37.6260   23.5890   41.0570 S   0  0  0  0  0  0  0  0  0  0  0  0
   37.4400   24.0870   39.7510 H   0  0  0  0  0  0  0  0  0  0  0  0
  2  3  1  0  0  0  0
  2  1  1  0  0  0  0
  3 12  1  0  0  0  0
  4  9  1  0  0  0  0
  4  3  2  0  0  0  0
  5  4  1  0  0  0  0
  6  5  2  0  0  0  0
  6  7  1  0  0  0  0
  7  2  2  0  0  0  0
  8  7  1  0  0  0  0
 10  5  1  0  0  0  0
 11  6  1  0  0  0  0
 13 12  1  0  0  0  0
 13 14  1  0  0  0  0
 14 19  1  0  0  0  0
 15 14  2  0  0  0  0
 15 20  1  0  0  0  0
 16 15  1  0  0  0  0
 17 18  1  0  0  0  0
 17 16  2  0  0  0  0
 18 13  2  0  0  0  0
 21 17  1  0  0  0  0
 22 21  1  0  0  0  0
M  END
>  <minimizedAffinity>
-4.65817022

$$$$

 OpenBabel03252506493D

 22 23  0  0  0  0  0  0  0  0999 V2000
   36.7910   26.1440   39.7380 Cl  0  0  0  0  0  0  0  0  0  0  0  0
   37.3390   26.7830   41.2730 C   0  0  0  0  0  0  0  0  0  0  0  0
   36.8040   27.9750   41.6360 C   0  0  0  0  0  0  0  0  0  0  0  0
   37.2140   28.5260   42.8560 C   0  0  0  0  0  0  0  0  0  0  0  0
   38.1370   27.8440   43.6400 C   0  0  0  0  0  0  0  0  0  0  0  0
   38.6810   26.6320   43.2700 C   0  0  0  0  0  0  0  0  0  0  0  0
   38.2630   26.1030   42.0580 C   0  0  0  0  0  0  0  0  0  0  0  0
   38.8840   24.5640   41.4780 Cl  0  0  0  0  0  0  0  0  0  0  0  0
   36.8450   29.4670   43.2310 H   0  0  0  0  0  0  0  0  0  0  0  0
   38.4570   28.2680   44.5870 H   0  0  0  0  0  0  0  0  0  0  0  0
   39.4020   26.0980   43.8810 H   0  0  0  0  0  0  0  0  0  0  0  0
   35.6280   28.9470   40.7450 S   0  0  0  0  0  0  0  0  0  0  0  0
   36.3840   30.2010   39.7130 C   0  0  0  0  0  0  0  0  0  0  0  0
   36.5710   29.8370   38.3730 C   0  0  0  0  0  0  0  0  0  0  0  0
   37.1570   30.7640   37.5050 C   0  0  0  0  0  0  0  0  0  0  0  0
   37.5150   31.9750   38.0070 N   0  0  0  0  0  0  0  0  0  0  0  0
   37.3190   32.2860   39.3020 C   0  0  0  0  0  0  0  0  0  0  0  0
   36.7530   31.4120   40.1750 N   0  0  0  0  0  0  0  0  0  0  0  0
   36.2730   28.8570   38.0000 H   0  0  0  0  0  0  0  0  0  0  0  0
   37.3200   30.5230   36.4580 H   0  0  0  0  0  0  0  0  0  0  0  0
   37.8300   33.9090   39.8520 S   0  0  0  0  0  0  0  0  0  0  0  0
   38.8030   33.7820   40.8640 H   0  0  0  0  0  0  0  0  0  0  0  0
  1  2  1  0  0  0  0
  2  3  2  0  0  0  0
  2  7  1  0  0  0  0
  3  4  1  0  0  0  0
  4  9  1  0  0  0  0
  4  5  2  0  0  0  0
  5 10  1  0  0  0  0
  6  5  1  0  0  0  0
  6 11  1  0  0  0  0
  7  6  2  0  0  0  0
  8  7  1  0  0  0  0
 12  3  1  0  0  0  0
 13 18  1  0  0  0  0
 13 12  1  0  0  0  0
 14 13  2  0  0  0  0
 15 16  2  0  0  0  0
 15 14  1  0  0  0  0
 16 17  1  0  0  0  0
 17 21  1  0  0  0  0
 17 18  2  0  0  0  0
 19 14  1  0  0  0  0
 20 15  1  0  0  0  0
 21 22  1  0  0  0  0
M  END
>  <minimizedAffinity>
-4.62429523

$$$$

 OpenBabel03252506493D

 22 23  0  0  0  0  0  0  0  0999 V2000
   38.1090   30.5490   38.5220 Cl  0  0  0  0  0  0  0  0  0  0  0  0
   36.4880   29.8880   38.4930 C   0  0  0  0  0  0  0  0  0  0  0  0
   35.9260   29.6620   39.7060 C   0  0  0  0  0  0  0  0  0  0  0  0
   34.6300   29.1330   39.7330 C   0  0  0  0  0  0  0  0  0  0  0  0
   33.9760   28.8630   38.5370 C   0  0  0  0  0  0  0  0  0  0  0  0
   34.5480   29.0920   37.3030 C   0  0  0  0  0  0  0  0  0  0  0  0
   35.8330   29.6160   37.2980 C   0  0  0  0  0  0  0  0  0  0  0  0
   36.6680   29.9530   35.7880 Cl  0  0  0  0  0  0  0  0  0  0  0  0
   34.0990   28.9200   40.6470 H   0  0  0  0  0  0  0  0  0  0  0  0
   32.9700   28.4520   38.5530 H   0  0  0  0  0  0  0  0  0  0  0  0
   34.0390   28.8810   36.3680 H   0  0  0  0  0  0  0  0  0  0  0  0
   36.6360   29.9560   41.2980 S   0  0  0  0  0  0  0  0  0  0  0  0
   37.4350   28.5130   41.9940 C   0  0  0  0  0  0  0  0  0  0  0  0
   38.4970   28.7800   42.8660 C   0  0  0  0  0  0  0  0  0  0  0  0
   39.1710   27.7030   43.4490 C   0  0  0  0  0  0  0  0  0  0  0  0
   38.7590   26.4460   43.1390 N   0  0  0  0  0  0  0  0  0  0  0  0
   37.7330   26.2300   42.2940 C   0  0  0  0  0  0  0  0  0  0  0  0
   37.0550   27.2510   41.7090 N   0  0  0  0  0  0  0  0  0  0  0  0
   38.8040   29.8010   43.0960 H   0  0  0  0  0  0  0  0  0  0  0  0
   40.0010   27.8660   44.1320 H   0  0  0  0  0  0  0  0  0  0  0  0
   37.2780   24.5340   41.9580 S   0  0  0  0  0  0  0  0  0  0  0  0
   37.4150   24.2690   40.5800 H   0  0  0  0  0  0  0  0  0  0  0  0
  2  1  1  0  0  0  0
  2  3  1  0  0  0  0
  3  4  2  0  0  0  0
  3 12  1  0  0  0  0
  4  9  1  0  0  0  0
  5 10  1  0  0  0  0
  5  4  1  0  0  0  0
  6  5  2  0  0  0  0
  7  6  1  0  0  0  0
  7  2  2  0  0  0  0
  8  7  1  0  0  0  0
 11  6  1  0  0  0  0
 12 13  1  0  0  0  0
 13 14  1  0  0  0  0
 14 19  1  0  0  0  0
 14 15  2  0  0  0  0
 15 20  1  0  0  0  0
 16 15  1  0  0  0  0
 17 16  2  0  0  0  0
 18 13  2  0  0  0  0
 18 17  1  0  0  0  0
 21 17  1  0  0  0  0
 22 21  1  0  0  0  0
M  END
>  <minimizedAffinity>
-4.44003725

$$$$

 OpenBabel03252506493D

 22 23  0  0  0  0  0  0  0  0999 V2000
   36.9780   32.0900   39.4740 Cl  0  0  0  0  0  0  0  0  0  0  0  0
   37.7360   31.2060   40.7820 C   0  0  0  0  0  0  0  0  0  0  0  0
   38.9400   31.6780   41.1870 C   0  0  0  0  0  0  0  0  0  0  0  0
   39.5850   31.0020   42.2300 C   0  0  0  0  0  0  0  0  0  0  0  0
   38.9800   29.8910   42.8040 C   0  0  0  0  0  0  0  0  0  0  0  0
   37.7550   29.4100   42.3900 C   0  0  0  0  0  0  0  0  0  0  0  0
   37.1320   30.0930   41.3550 C   0  0  0  0  0  0  0  0  0  0  0  0
   35.5680   29.5770   40.7410 Cl  0  0  0  0  0  0  0  0  0  0  0  0
   40.5430   31.3020   42.6230 H   0  0  0  0  0  0  0  0  0  0  0  0
   39.4760   29.3640   43.6130 H   0  0  0  0  0  0  0  0  0  0  0  0
   37.2800   28.5420   42.8360 H   0  0  0  0  0  0  0  0  0  0  0  0
   39.8230   33.0720   40.5540 S   0  0  0  0  0  0  0  0  0  0  0  0
   40.8270   32.6830   39.1230 C   0  0  0  0  0  0  0  0  0  0  0  0
   41.4380   33.7810   38.5050 C   0  0  0  0  0  0  0  0  0  0  0  0
   42.2380   33.5560   37.3800 C   0  0  0  0  0  0  0  0  0  0  0  0
   42.3820   32.2780   36.9430 N   0  0  0  0  0  0  0  0  0  0  0  0
   41.7770   31.2480   37.5640 C   0  0  0  0  0  0  0  0  0  0  0  0
   40.9940   31.4280   38.6590 N   0  0  0  0  0  0  0  0  0  0  0  0
   41.3030   34.7960   38.8810 H   0  0  0  0  0  0  0  0  0  0  0  0
   42.7300   34.3800   36.8710 H   0  0  0  0  0  0  0  0  0  0  0  0
   42.0390   29.6090   36.9000 S   0  0  0  0  0  0  0  0  0  0  0  0
   40.8030   29.0520   36.5110 H   0  0  0  0  0  0  0  0  0  0  0  0
  1  2  1  0  0  0  0
  2  3  2  0  0  0  0
  2  7  1  0  0  0  0
  3  4  1  0  0  0  0
  4  9  1  0  0  0  0
  4  5  2  0  0  0  0
  5 10  1  0  0  0  0
  6  5  1  0  0  0  0
  6 11  1  0  0  0  0
  7  6  2  0  0  0  0
  8  7  1  0  0  0  0
 12  3  1  0  0  0  0
 13 12  1  0  0  0  0
 14 19  1  0  0  0  0
 14 13  2  0  0  0  0
 15 14  1  0  0  0  0
 16 15  2  0  0  0  0
 16 17  1  0  0  0  0
 17 18  2  0  0  0  0
 18 13  1  0  0  0  0
 20 15  1  0  0  0  0
 21 17  1  0  0  0  0
 22 21  1  0  0  0  0
M  END
>  <minimizedAffinity>
-4.34136152

$$$$

 OpenBabel03252506493D

 22 23  0  0  0  0  0  0  0  0999 V2000
   40.5790   30.4060   40.0640 Cl  0  0  0  0  0  0  0  0  0  0  0  0
   39.3600   31.6560   39.9370 C   0  0  0  0  0  0  0  0  0  0  0  0
   38.1160   31.2290   39.6110 C   0  0  0  0  0  0  0  0  0  0  0  0
   37.1070   32.1940   39.4980 C   0  0  0  0  0  0  0  0  0  0  0  0
   37.4100   33.5310   39.7200 C   0  0  0  0  0  0  0  0  0  0  0  0
   38.6770   33.9650   40.0500 C   0  0  0  0  0  0  0  0  0  0  0  0
   39.6630   32.9940   40.1570 C   0  0  0  0  0  0  0  0  0  0  0  0
   41.3160   33.4230   40.5740 Cl  0  0  0  0  0  0  0  0  0  0  0  0
   36.0870   31.9530   39.2450 H   0  0  0  0  0  0  0  0  0  0  0  0
   36.6310   34.2830   39.6330 H   0  0  0  0  0  0  0  0  0  0  0  0
   38.9170   35.0090   40.2230 H   0  0  0  0  0  0  0  0  0  0  0  0
   37.5880   29.5700   39.3030 S   0  0  0  0  0  0  0  0  0  0  0  0
   37.4630   28.5810   40.7910 C   0  0  0  0  0  0  0  0  0  0  0  0
   37.4830   29.3020   41.9910 C   0  0  0  0  0  0  0  0  0  0  0  0
   37.3900   28.5980   43.1960 C   0  0  0  0  0  0  0  0  0  0  0  0
   37.2840   27.2440   43.1400 N   0  0  0  0  0  0  0  0  0  0  0  0
   37.2690   26.5870   41.9650 C   0  0  0  0  0  0  0  0  0  0  0  0
   37.3570   27.2370   40.7760 N   0  0  0  0  0  0  0  0  0  0  0  0
   37.5690   30.3890   42.0030 H   0  0  0  0  0  0  0  0  0  0  0  0
   37.4020   29.1190   44.1500 H   0  0  0  0  0  0  0  0  0  0  0  0
   37.1260   24.8050   42.0130 S   0  0  0  0  0  0  0  0  0  0  0  0
   38.2570   24.2220   41.4060 H   0  0  0  0  0  0  0  0  0  0  0  0
  2  1  1  0  0  0  0
  2  7  1  0  0  0  0
  3  2  2  0  0  0  0
  4  3  1  0  0  0  0
  4  5  2  0  0  0  0
  5  6  1  0  0  0  0
  6  7  2  0  0  0  0
  6 11  1  0  0  0  0
  7  8  1  0  0  0  0
  9  4  1  0  0  0  0
 10  5  1  0  0  0  0
 12  3  1  0  0  0  0
 12 13  1  0  0  0  0
 13 14  1  0  0  0  0
 14 19  1  0  0  0  0
 14 15  2  0  0  0  0
 15 20  1  0  0  0  0
 16 15  1  0  0  0  0
 17 21  1  0  0  0  0
 17 16  2  0  0  0  0
 18 13  2  0  0  0  0
 18 17  1  0  0  0  0
 22 21  1  0  0  0  0
M  END
>  <minimizedAffinity>
-4.34036779

$$$$

 OpenBabel03252506493D

 22 23  0  0  0  0  0  0  0  0999 V2000
   40.4060   27.5910   41.2300 Cl  0  0  0  0  0  0  0  0  0  0  0  0
   39.1070   26.4510   41.5070 C   0  0  0  0  0  0  0  0  0  0  0  0
   38.0850   26.9030   42.2740 C   0  0  0  0  0  0  0  0  0  0  0  0
   37.0220   26.0250   42.5220 C   0  0  0  0  0  0  0  0  0  0  0  0
   37.0510   24.7450   41.9840 C   0  0  0  0  0  0  0  0  0  0  0  0
   38.0920   24.2850   41.2040 C   0  0  0  0  0  0  0  0  0  0  0  0
   39.1350   25.1700   40.9690 C   0  0  0  0  0  0  0  0  0  0  0  0
   40.5170   24.7010   39.9900 Cl  0  0  0  0  0  0  0  0  0  0  0  0
   36.1650   26.2920   43.1190 H   0  0  0  0  0  0  0  0  0  0  0  0
   36.2290   24.0610   42.1740 H   0  0  0  0  0  0  0  0  0  0  0  0
   38.1160   23.2860   40.7820 H   0  0  0  0  0  0  0  0  0  0  0  0
   37.9150   28.4960   43.0200 S   0  0  0  0  0  0  0  0  0  0  0  0
   37.5650   29.7960   41.8390 C   0  0  0  0  0  0  0  0  0  0  0  0
   36.3610   29.6550   41.1360 C   0  0  0  0  0  0  0  0  0  0  0  0
   36.0190   30.6320   40.1950 C   0  0  0  0  0  0  0  0  0  0  0  0
   36.8740   31.6710   40.0100 N   0  0  0  0  0  0  0  0  0  0  0  0
   38.0230   31.7700   40.7050 C   0  0  0  0  0  0  0  0  0  0  0  0
   38.3880   30.8420   41.6270 N   0  0  0  0  0  0  0  0  0  0  0  0
   35.6950   28.8100   41.3070 H   0  0  0  0  0  0  0  0  0  0  0  0
   35.0940   30.5610   39.6280 H   0  0  0  0  0  0  0  0  0  0  0  0
   39.0720   33.1810   40.3790 S   0  0  0  0  0  0  0  0  0  0  0  0
   40.3290   32.7410   39.9160 H   0  0  0  0  0  0  0  0  0  0  0  0
  1  2  1  0  0  0  0
  2  3  1  0  0  0  0
  3  4  2  0  0  0  0
  3 12  1  0  0  0  0
  4  9  1  0  0  0  0
  5 10  1  0  0  0  0
  5  4  1  0  0  0  0
  6  5  2  0  0  0  0
  7  6  1  0  0  0  0
  7  2  2  0  0  0  0
  8  7  1  0  0  0  0
 11  6  1  0  0  0  0
 13 12  1  0  0  0  0
 14 19  1  0  0  0  0
 14 13  2  0  0  0  0
 15 14  1  0  0  0  0
 16 15  2  0  0  0  0
 16 17  1  0  0  0  0
 17 18  2  0  0  0  0
 18 13  1  0  0  0  0
 20 15  1  0  0  0  0
 21 17  1  0  0  0  0
 22 21  1  0  0  0  0
M  END
>  <minimizedAffinity>
-4.26912165

$$$$

 OpenBabel03252506493D

 22 23  0  0  0  0  0  0  0  0999 V2000
   37.7240   27.2540   43.3870 Cl  0  0  0  0  0  0  0  0  0  0  0  0
   37.4550   26.5860   41.7910 C   0  0  0  0  0  0  0  0  0  0  0  0
   36.7570   27.3720   40.9360 C   0  0  0  0  0  0  0  0  0  0  0  0
   36.5160   26.8790   39.6480 C   0  0  0  0  0  0  0  0  0  0  0  0
   36.9940   25.6230   39.2960 C   0  0  0  0  0  0  0  0  0  0  0  0
   37.7030   24.8220   40.1660 C   0  0  0  0  0  0  0  0  0  0  0  0
   37.9310   25.3280   41.4380 C   0  0  0  0  0  0  0  0  0  0  0  0
   38.8240   24.4020   42.6360 Cl  0  0  0  0  0  0  0  0  0  0  0  0
   35.9720   27.4300   38.8980 H   0  0  0  0  0  0  0  0  0  0  0  0
   36.8100   25.2360   38.2980 H   0  0  0  0  0  0  0  0  0  0  0  0
   38.0770   23.8400   39.8940 H   0  0  0  0  0  0  0  0  0  0  0  0
   36.0930   28.9820   41.2460 S   0  0  0  0  0  0  0  0  0  0  0  0
   37.3280   30.2770   41.1930 C   0  0  0  0  0  0  0  0  0  0  0  0
   36.9400   31.4460   40.5260 C   0  0  0  0  0  0  0  0  0  0  0  0
   37.8520   32.5030   40.4430 C   0  0  0  0  0  0  0  0  0  0  0  0
   39.0720   32.3420   41.0170 N   0  0  0  0  0  0  0  0  0  0  0  0
   39.4080   31.2020   41.6490 C   0  0  0  0  0  0  0  0  0  0  0  0
   38.5490   30.1550   41.7500 N   0  0  0  0  0  0  0  0  0  0  0  0
   35.9520   31.5450   40.0750 H   0  0  0  0  0  0  0  0  0  0  0  0
   37.5900   33.4270   39.9350 H   0  0  0  0  0  0  0  0  0  0  0  0
   41.0430   31.1020   42.3680 S   0  0  0  0  0  0  0  0  0  0  0  0
   41.7560   30.0390   41.7780 H   0  0  0  0  0  0  0  0  0  0  0  0
  2  1  1  0  0  0  0
  3 12  1  0  0  0  0
  3  2  2  0  0  0  0
  4  3  1  0  0  0  0
  5  4  2  0  0  0  0
  5  6  1  0  0  0  0
  6  7  2  0  0  0  0
  7  2  1  0  0  0  0
  7  8  1  0  0  0  0
  9  4  1  0  0  0  0
 10  5  1  0  0  0  0
 11  6  1  0  0  0  0
 13 12  1  0  0  0  0
 13 18  1  0  0  0  0
 14 13  2  0  0  0  0
 15 14  1  0  0  0  0
 15 16  2  0  0  0  0
 16 17  1  0  0  0  0
 17 18  2  0  0  0  0
 17 21  1  0  0  0  0
 19 14  1  0  0  0  0
 20 15  1  0  0  0  0
 22 21  1  0  0  0  0
M  END
>  <minimizedAffinity>
-4.24079227

$$$$
