
 OpenBabel03252507083D

 17 17  0  0  0  0  0  0  0  0999 V2000
   44.5710   35.9920   44.4880 C   0  0  0  0  0  0  0  0  0  0  0  0
   45.1960   35.9740   43.2280 C   0  0  0  0  0  0  0  0  0  0  0  0
   46.0950   34.9390   42.9750 C   0  0  0  0  0  0  0  0  0  0  0  0
   46.3190   34.0090   43.9480 N   0  0  0  0  0  0  0  0  0  0  0  0
   45.7000   34.0630   45.1380 C   0  0  0  0  0  0  0  0  0  0  0  0
   44.8230   35.0450   45.4270 N   0  0  0  0  0  0  0  0  0  0  0  0
   43.8810   36.8110   44.6420 H   0  0  0  0  0  0  0  0  0  0  0  0
   45.0030   36.7180   42.4780 H   0  0  0  0  0  0  0  0  0  0  0  0
   46.1010   32.7700   46.3070 S   0  0  0  0  0  0  0  0  0  0  0  0
   45.9240   31.5350   45.6430 H   0  0  0  0  0  0  0  0  0  0  0  0
   46.7100   34.9230   41.7350 O   0  0  0  0  0  0  0  0  0  0  0  0
   48.6640   33.3240   40.9850 O   0  0  0  0  0  0  0  0  0  0  0  0
   48.4110   34.6620   41.6480 P   0  0  0  0  0  0  0  0  0  0  0  0
   49.1040   35.9160   40.7870 O   0  0  0  0  0  0  0  0  0  0  0  0
   48.9680   35.7620   39.8380 H   0  0  0  0  0  0  0  0  0  0  0  0
   48.9870   34.6070   43.2350 O   0  0  0  0  0  0  0  0  0  0  0  0
   48.5720   35.3710   43.7110 H   0  0  0  0  0  0  0  0  0  0  0  0
  1  7  1  0  0  0  0
  1  6  1  0  0  0  0
  2  1  2  0  0  0  0
  3  2  1  0  0  0  0
  3  4  2  0  0  0  0
  4  5  1  0  0  0  0
  5  6  2  0  0  0  0
  5  9  1  0  0  0  0
  8  2  1  0  0  0  0
 10  9  1  0  0  0  0
 11  3  1  0  0  0  0
 12 13  2  0  0  0  0
 13 11  1  0  0  0  0
 13 16  1  0  0  0  0
 14 13  1  0  0  0  0
 15 14  1  0  0  0  0
 16 17  1  0  0  0  0
M  END
>  <minimizedAffinity>
-4.6342206

>  <minimizedRMSD>
0.05886342

$$$$
