
 OpenBabel03252505263D

 36 38  0  0  1  0  0  0  0  0999 V2000
   40.1510   29.8900   41.0000 F   0  0  0  0  0  0  0  0  0  0  0  0
   38.9190   30.4460   40.7760 C   0  0  0  0  0  0  0  0  0  0  0  0
   38.8460   31.4930   39.9000 C   0  0  0  0  0  0  0  0  0  0  0  0
   37.6050   32.0430   39.6820 C   0  0  0  0  0  0  0  0  0  0  0  0
   36.5000   31.5350   40.3380 C   0  0  0  0  0  0  0  0  0  0  0  0
   36.5860   30.4810   41.2170 C   0  0  0  0  0  0  0  0  0  0  0  0
   37.8420   29.9340   41.4290 C   0  0  0  0  0  0  0  0  0  0  0  0
   37.5780   32.8790   38.9770 H   0  0  0  0  0  0  0  0  0  0  0  0
   35.5550   32.0390   40.1000 H   0  0  0  0  0  0  0  0  0  0  0  0
   35.6990   30.1230   41.7010 H   0  0  0  0  0  0  0  0  0  0  0  0
   37.8820   28.8450   42.3470 N   0  0  0  0  0  0  0  0  0  0  0  0
   37.3880   28.7320   43.6800 C   0  0  0  0  0  0  0  0  0  0  0  0
   36.6210   27.4110   43.6760 C   0  0  0  0  0  0  0  0  0  0  0  0
   37.2290   26.6680   42.5060 C   0  0  0  0  0  0  0  0  0  0  0  0
   38.4420   27.5170   42.1990 C   0  0  2  0  0  0  0  0  0  0  0  0
   36.6070   29.5190   43.8090 H   0  0  0  0  0  0  0  0  0  0  0  0
   38.0900   28.8480   44.4950 H   0  0  0  0  0  0  0  0  0  0  0  0
   35.5330   27.5500   43.5770 H   0  0  0  0  0  0  0  0  0  0  0  0
   36.9110   26.8640   44.6010 H   0  0  0  0  0  0  0  0  0  0  0  0
   37.4580   25.6210   42.6940 H   0  0  0  0  0  0  0  0  0  0  0  0
   36.5350   26.8280   41.6360 H   0  0  0  0  0  0  0  0  0  0  0  0
   38.7330   27.3240   41.1620 H   0  0  0  0  0  0  0  0  0  0  0  0
   39.6130   27.2320   43.0720 C   0  0  0  0  0  0  0  0  0  0  0  0
   39.5030   27.4200   44.1360 H   0  0  0  0  0  0  0  0  0  0  0  0
   40.4740   27.7920   42.6910 H   0  0  0  0  0  0  0  0  0  0  0  0
   39.7940   26.1300   42.9780 H   0  0  0  0  0  0  0  0  0  0  0  0
   41.3210   32.2300   37.3050 C   0  0  0  0  0  0  0  0  0  0  0  0
   42.3040   32.9640   37.9980 C   0  0  0  0  0  0  0  0  0  0  0  0
   42.0640   33.1770   39.3610 C   0  0  0  0  0  0  0  0  0  0  0  0
   40.9350   32.6830   39.9260 N   0  0  0  0  0  0  0  0  0  0  0  0
   40.0330   31.9950   39.2330 C   0  0  0  0  0  0  0  0  0  0  0  0
   40.2240   31.7720   37.9380 N   0  0  0  0  0  0  0  0  0  0  0  0
   41.5090   32.0660   36.2470 H   0  0  0  0  0  0  0  0  0  0  0  0
   43.2000   33.3570   37.5500 H   0  0  0  0  0  0  0  0  0  0  0  0
   43.2010   34.0850   40.3950 S   0  0  0  0  0  0  0  0  0  0  0  0
   42.8000   35.4320   40.3440 H   0  0  0  0  0  0  0  0  0  0  0  0
  2  1  1  0  0  0  0
  2  7  1  0  0  0  0
  3  2  2  0  0  0  0
  4  3  1  0  0  0  0
  4  5  2  0  0  0  0
  5  6  1  0  0  0  0
  6  7  2  0  0  0  0
  6 10  1  0  0  0  0
  7 11  1  0  0  0  0
  8  4  1  0  0  0  0
  9  5  1  0  0  0  0
 11 12  1  0  0  0  0
 12 16  1  0  0  0  0
 12 17  1  0  0  0  0
 13 12  1  0  0  0  0
 13 19  1  0  0  0  0
 14 20  1  0  0  0  0
 14 13  1  0  0  0  0
 15 22  1  6  0  0  0
 15 11  1  0  0  0  0
 15 14  1  0  0  0  0
 15 23  1  0  0  0  0
 18 13  1  0  0  0  0
 21 14  1  0  0  0  0
 23 24  1  0  0  0  0
 25 23  1  0  0  0  0
 26 23  1  0  0  0  0
 27 32  2  0  0  0  0
 27 28  1  0  0  0  0
 28 29  2  0  0  0  0
 29 30  1  0  0  0  0
 29 35  1  0  0  0  0
 31  3  1  0  0  0  0
 31 30  2  0  0  0  0
 32 31  1  0  0  0  0
 33 27  1  0  0  0  0
 34 28  1  0  0  0  0
 36 35  1  0  0  0  0
M  END
>  <minimizedAffinity>
-5.3017807

$$$$

 OpenBabel03252505263D

 36 38  0  0  1  0  0  0  0  0999 V2000
   38.0440   28.3820   39.6750 F   0  0  0  0  0  0  0  0  0  0  0  0
   37.8640   28.2480   41.0270 C   0  0  0  0  0  0  0  0  0  0  0  0
   37.8990   29.3820   41.7870 C   0  0  0  0  0  0  0  0  0  0  0  0
   37.7180   29.2360   43.1420 C   0  0  0  0  0  0  0  0  0  0  0  0
   37.5120   27.9800   43.6790 C   0  0  0  0  0  0  0  0  0  0  0  0
   37.4780   26.8450   42.9030 C   0  0  0  0  0  0  0  0  0  0  0  0
   37.6620   27.0050   41.5390 C   0  0  0  0  0  0  0  0  0  0  0  0
   37.7510   30.1620   43.7250 H   0  0  0  0  0  0  0  0  0  0  0  0
   37.3770   27.9650   44.7680 H   0  0  0  0  0  0  0  0  0  0  0  0
   37.3150   25.8920   43.3670 H   0  0  0  0  0  0  0  0  0  0  0  0
   37.6200   25.8010   40.7770 N   0  0  0  0  0  0  0  0  0  0  0  0
   38.5650   24.7400   40.6580 C   0  0  0  0  0  0  0  0  0  0  0  0
   37.7260   23.4790   40.8540 C   0  0  0  0  0  0  0  0  0  0  0  0
   36.3270   23.9430   40.5150 C   0  0  0  0  0  0  0  0  0  0  0  0
   36.5940   25.2930   39.8880 C   0  0  2  0  0  0  0  0  0  0  0  0
   39.2280   24.7890   41.5530 H   0  0  0  0  0  0  0  0  0  0  0  0
   39.2090   24.7280   39.7880 H   0  0  0  0  0  0  0  0  0  0  0  0
   37.8070   23.0670   41.8720 H   0  0  0  0  0  0  0  0  0  0  0  0
   38.0350   22.7570   40.0640 H   0  0  0  0  0  0  0  0  0  0  0  0
   35.7570   23.2660   39.8810 H   0  0  0  0  0  0  0  0  0  0  0  0
   35.8240   24.1720   41.4940 H   0  0  0  0  0  0  0  0  0  0  0  0
   35.6770   25.8850   39.9630 H   0  0  0  0  0  0  0  0  0  0  0  0
   36.9880   25.2240   38.4550 C   0  0  0  0  0  0  0  0  0  0  0  0
   37.9120   24.7060   38.2130 H   0  0  0  0  0  0  0  0  0  0  0  0
   37.0290   26.2430   38.0570 H   0  0  0  0  0  0  0  0  0  0  0  0
   36.1750   24.6410   37.9490 H   0  0  0  0  0  0  0  0  0  0  0  0
   37.3010   32.5540   40.0580 C   0  0  0  0  0  0  0  0  0  0  0  0
   38.5760   33.1530   40.0370 C   0  0  0  0  0  0  0  0  0  0  0  0
   39.6090   32.4210   40.6340 C   0  0  0  0  0  0  0  0  0  0  0  0
   39.3400   31.2110   41.1840 N   0  0  0  0  0  0  0  0  0  0  0  0
   38.1190   30.6830   41.1810 C   0  0  0  0  0  0  0  0  0  0  0  0
   37.1130   31.3470   40.6260 N   0  0  0  0  0  0  0  0  0  0  0  0
   36.5000   33.1250   39.5950 H   0  0  0  0  0  0  0  0  0  0  0  0
   38.7900   34.1130   39.6010 H   0  0  0  0  0  0  0  0  0  0  0  0
   41.2880   33.0250   40.6990 S   0  0  0  0  0  0  0  0  0  0  0  0
   41.4080   33.7450   41.9010 H   0  0  0  0  0  0  0  0  0  0  0  0
  1  2  1  0  0  0  0
  2  7  2  0  0  0  0
  2  3  1  0  0  0  0
  3  4  2  0  0  0  0
  4  5  1  0  0  0  0
  4  8  1  0  0  0  0
  5  9  1  0  0  0  0
  6 10  1  0  0  0  0
  6  5  2  0  0  0  0
  7  6  1  0  0  0  0
 11  7  1  0  0  0  0
 12 11  1  0  0  0  0
 12 13  1  0  0  0  0
 12 16  1  0  0  0  0
 13 18  1  0  0  0  0
 14 13  1  0  0  0  0
 14 21  1  0  0  0  0
 15 22  1  1  0  0  0
 15 14  1  0  0  0  0
 15 11  1  0  0  0  0
 17 12  1  0  0  0  0
 19 13  1  0  0  0  0
 20 14  1  0  0  0  0
 23 15  1  0  0  0  0
 24 23  1  0  0  0  0
 25 23  1  0  0  0  0
 26 23  1  0  0  0  0
 27 32  1  0  0  0  0
 28 27  2  0  0  0  0
 28 29  1  0  0  0  0
 29 35  1  0  0  0  0
 29 30  2  0  0  0  0
 31 30  1  0  0  0  0
 31  3  1  0  0  0  0
 32 31  2  0  0  0  0
 33 27  1  0  0  0  0
 34 28  1  0  0  0  0
 35 36  1  0  0  0  0
M  END
>  <minimizedAffinity>
-5.29919577

$$$$

 OpenBabel03252505263D

 36 38  0  0  1  0  0  0  0  0999 V2000
   38.1370   27.3580   39.6560 F   0  0  0  0  0  0  0  0  0  0  0  0
   38.1440   27.9890   40.8730 C   0  0  0  0  0  0  0  0  0  0  0  0
   38.1160   29.3550   40.8790 C   0  0  0  0  0  0  0  0  0  0  0  0
   38.1230   29.9770   42.1050 C   0  0  0  0  0  0  0  0  0  0  0  0
   38.1570   29.2230   43.2620 C   0  0  0  0  0  0  0  0  0  0  0  0
   38.1840   27.8480   43.2430 C   0  0  0  0  0  0  0  0  0  0  0  0
   38.1770   27.2320   42.0010 C   0  0  0  0  0  0  0  0  0  0  0  0
   38.1010   31.0710   42.0780 H   0  0  0  0  0  0  0  0  0  0  0  0
   38.1590   29.8090   44.1900 H   0  0  0  0  0  0  0  0  0  0  0  0
   38.2090   27.3070   44.1680 H   0  0  0  0  0  0  0  0  0  0  0  0
   38.2060   25.8070   42.0330 N   0  0  0  0  0  0  0  0  0  0  0  0
   37.1590   24.8580   42.2220 C   0  0  0  0  0  0  0  0  0  0  0  0
   37.3680   23.8520   41.0920 C   0  0  0  0  0  0  0  0  0  0  0  0
   38.8240   24.0430   40.7300 C   0  0  0  0  0  0  0  0  0  0  0  0
   39.3180   24.8910   41.8800 C   0  0  2  0  0  0  0  0  0  0  0  0
   36.2000   25.3730   41.9760 H   0  0  0  0  0  0  0  0  0  0  0  0
   37.0400   24.4200   43.2050 H   0  0  0  0  0  0  0  0  0  0  0  0
   36.6890   24.0190   40.2410 H   0  0  0  0  0  0  0  0  0  0  0  0
   37.2690   22.8370   41.5380 H   0  0  0  0  0  0  0  0  0  0  0  0
   39.3880   23.1230   40.5850 H   0  0  0  0  0  0  0  0  0  0  0  0
   38.8410   24.7260   39.8370 H   0  0  0  0  0  0  0  0  0  0  0  0
   40.2200   25.4150   41.5480 H   0  0  0  0  0  0  0  0  0  0  0  0
   39.6570   24.1110   43.1020 C   0  0  0  0  0  0  0  0  0  0  0  0
   38.8520   23.5660   43.5880 H   0  0  0  0  0  0  0  0  0  0  0  0
   40.1260   24.7860   43.8250 H   0  0  0  0  0  0  0  0  0  0  0  0
   40.3890   23.3320   42.7650 H   0  0  0  0  0  0  0  0  0  0  0  0
   36.9010   30.9240   37.8020 C   0  0  0  0  0  0  0  0  0  0  0  0
   38.0540   31.5480   37.2840 C   0  0  0  0  0  0  0  0  0  0  0  0
   39.2250   31.3970   38.0360 C   0  0  0  0  0  0  0  0  0  0  0  0
   39.1930   30.6820   39.1870 N   0  0  0  0  0  0  0  0  0  0  0  0
   38.0810   30.1090   39.6390 C   0  0  0  0  0  0  0  0  0  0  0  0
   36.9500   30.2290   38.9550 N   0  0  0  0  0  0  0  0  0  0  0  0
   35.9930   31.0430   37.2170 H   0  0  0  0  0  0  0  0  0  0  0  0
   38.0800   32.1160   36.3710 H   0  0  0  0  0  0  0  0  0  0  0  0
   40.7780   32.1190   37.5310 S   0  0  0  0  0  0  0  0  0  0  0  0
   40.8350   33.3960   38.1170 H   0  0  0  0  0  0  0  0  0  0  0  0
  1  2  1  0  0  0  0
  2  3  2  0  0  0  0
  2  7  1  0  0  0  0
  3  4  1  0  0  0  0
  4  5  2  0  0  0  0
  5  9  1  0  0  0  0
  6  5  1  0  0  0  0
  6 10  1  0  0  0  0
  7 11  1  0  0  0  0
  7  6  2  0  0  0  0
  8  4  1  0  0  0  0
 11 12  1  0  0  0  0
 12 17  1  0  0  0  0
 13 19  1  0  0  0  0
 13 12  1  0  0  0  0
 14 13  1  0  0  0  0
 14 15  1  0  0  0  0
 15 22  1  6  0  0  0
 15 11  1  0  0  0  0
 15 23  1  0  0  0  0
 16 12  1  0  0  0  0
 18 13  1  0  0  0  0
 20 14  1  0  0  0  0
 21 14  1  0  0  0  0
 23 24  1  0  0  0  0
 23 25  1  0  0  0  0
 26 23  1  0  0  0  0
 27 32  1  0  0  0  0
 28 27  2  0  0  0  0
 28 29  1  0  0  0  0
 29 30  2  0  0  0  0
 30 31  1  0  0  0  0
 31  3  1  0  0  0  0
 32 31  2  0  0  0  0
 33 27  1  0  0  0  0
 34 28  1  0  0  0  0
 35 29  1  0  0  0  0
 35 36  1  0  0  0  0
M  END
>  <minimizedAffinity>
-5.10299826

$$$$

 OpenBabel03252505263D

 36 38  0  0  1  0  0  0  0  0999 V2000
   36.2000   26.8920   39.5050 F   0  0  0  0  0  0  0  0  0  0  0  0
   36.3460   28.0930   40.1500 C   0  0  0  0  0  0  0  0  0  0  0  0
   35.8050   29.2000   39.5590 C   0  0  0  0  0  0  0  0  0  0  0  0
   35.9560   30.3990   40.2140 C   0  0  0  0  0  0  0  0  0  0  0  0
   36.6330   30.4470   41.4180 C   0  0  0  0  0  0  0  0  0  0  0  0
   37.1730   29.3260   42.0030 C   0  0  0  0  0  0  0  0  0  0  0  0
   37.0140   28.1230   41.3330 C   0  0  0  0  0  0  0  0  0  0  0  0
   35.5130   31.2670   39.7160 H   0  0  0  0  0  0  0  0  0  0  0  0
   36.7020   31.4470   41.8640 H   0  0  0  0  0  0  0  0  0  0  0  0
   37.6890   29.4150   42.9390 H   0  0  0  0  0  0  0  0  0  0  0  0
   37.5900   26.9900   41.9780 N   0  0  0  0  0  0  0  0  0  0  0  0
   36.9820   25.8380   42.5570 C   0  0  0  0  0  0  0  0  0  0  0  0
   37.7770   24.6710   41.9740 C   0  0  0  0  0  0  0  0  0  0  0  0
   39.0840   25.3180   41.5690 C   0  0  0  0  0  0  0  0  0  0  0  0
   38.9790   26.6690   42.2400 C   0  0  2  0  0  0  0  0  0  0  0  0
   35.9630   25.7450   42.1100 H   0  0  0  0  0  0  0  0  0  0  0  0
   36.8590   25.8130   43.6320 H   0  0  0  0  0  0  0  0  0  0  0  0
   37.2620   24.1820   41.1340 H   0  0  0  0  0  0  0  0  0  0  0  0
   38.0000   23.9770   42.8160 H   0  0  0  0  0  0  0  0  0  0  0  0
   39.9780   24.7590   41.8380 H   0  0  0  0  0  0  0  0  0  0  0  0
   39.0020   25.5330   40.4690 H   0  0  0  0  0  0  0  0  0  0  0  0
   39.6500   27.3570   41.7160 H   0  0  0  0  0  0  0  0  0  0  0  0
   39.3560   26.6580   43.6800 C   0  0  0  0  0  0  0  0  0  0  0  0
   38.7530   26.0550   44.3510 H   0  0  0  0  0  0  0  0  0  0  0  0
   39.3790   27.6920   44.0400 H   0  0  0  0  0  0  0  0  0  0  0  0
   40.3840   26.2110   43.7150 H   0  0  0  0  0  0  0  0  0  0  0  0
   33.1210   28.8190   37.0970 C   0  0  0  0  0  0  0  0  0  0  0  0
   33.7980   28.9250   35.8660 C   0  0  0  0  0  0  0  0  0  0  0  0
   35.1810   29.1280   35.9410 C   0  0  0  0  0  0  0  0  0  0  0  0
   35.7800   29.2100   37.1540 N   0  0  0  0  0  0  0  0  0  0  0  0
   35.1010   29.1040   38.2930 C   0  0  0  0  0  0  0  0  0  0  0  0
   33.7880   28.9110   38.2630 N   0  0  0  0  0  0  0  0  0  0  0  0
   32.0470   28.6620   37.0370 H   0  0  0  0  0  0  0  0  0  0  0  0
   33.3230   28.8600   34.9030 H   0  0  0  0  0  0  0  0  0  0  0  0
   36.1990   29.2850   34.4830 S   0  0  0  0  0  0  0  0  0  0  0  0
   36.2410   30.6550   34.1700 H   0  0  0  0  0  0  0  0  0  0  0  0
  1  2  1  0  0  0  0
  2  7  1  0  0  0  0
  3  2  2  0  0  0  0
  3  4  1  0  0  0  0
  4  5  2  0  0  0  0
  5  9  1  0  0  0  0
  5  6  1  0  0  0  0
  6 10  1  0  0  0  0
  7 11  1  0  0  0  0
  7  6  2  0  0  0  0
  8  4  1  0  0  0  0
 11 15  1  0  0  0  0
 11 12  1  0  0  0  0
 12 17  1  0  0  0  0
 13 12  1  0  0  0  0
 13 19  1  0  0  0  0
 14 20  1  0  0  0  0
 14 13  1  0  0  0  0
 14 15  1  0  0  0  0
 15 22  1  6  0  0  0
 15 23  1  0  0  0  0
 16 12  1  0  0  0  0
 18 13  1  0  0  0  0
 21 14  1  0  0  0  0
 23 26  1  0  0  0  0
 23 25  1  0  0  0  0
 23 24  1  0  0  0  0
 27 32  1  0  0  0  0
 28 29  1  0  0  0  0
 28 27  2  0  0  0  0
 29 30  2  0  0  0  0
 30 31  1  0  0  0  0
 31  3  1  0  0  0  0
 32 31  2  0  0  0  0
 33 27  1  0  0  0  0
 34 28  1  0  0  0  0
 35 29  1  0  0  0  0
 36 35  1  0  0  0  0
M  END
>  <minimizedAffinity>
-5.09140062

$$$$

 OpenBabel03252505263D

 36 38  0  0  1  0  0  0  0  0999 V2000
   36.4490   27.8280   39.4080 F   0  0  0  0  0  0  0  0  0  0  0  0
   36.7930   29.1420   39.5950 C   0  0  0  0  0  0  0  0  0  0  0  0
   36.5670   30.0090   38.5640 C   0  0  0  0  0  0  0  0  0  0  0  0
   36.9160   31.3240   38.7620 C   0  0  0  0  0  0  0  0  0  0  0  0
   37.4700   31.7170   39.9650 C   0  0  0  0  0  0  0  0  0  0  0  0
   37.6930   30.8350   40.9960 C   0  0  0  0  0  0  0  0  0  0  0  0
   37.3370   29.5120   40.7850 C   0  0  0  0  0  0  0  0  0  0  0  0
   36.7240   31.9950   37.9190 H   0  0  0  0  0  0  0  0  0  0  0  0
   37.7150   32.7850   40.0290 H   0  0  0  0  0  0  0  0  0  0  0  0
   38.1250   31.1880   41.9110 H   0  0  0  0  0  0  0  0  0  0  0  0
   37.5860   28.6350   41.8800 N   0  0  0  0  0  0  0  0  0  0  0  0
   37.2250   28.7370   43.2550 C   0  0  0  0  0  0  0  0  0  0  0  0
   36.6270   27.3690   43.5790 C   0  0  0  0  0  0  0  0  0  0  0  0
   37.2180   26.4770   42.5110 C   0  0  0  0  0  0  0  0  0  0  0  0
   38.2880   27.3680   41.9230 C   0  0  2  0  0  0  0  0  0  0  0  0
   36.3690   29.4490   43.3180 H   0  0  0  0  0  0  0  0  0  0  0  0
   37.9760   29.0820   43.9550 H   0  0  0  0  0  0  0  0  0  0  0  0
   35.5260   27.3740   43.5740 H   0  0  0  0  0  0  0  0  0  0  0  0
   37.0590   27.0480   44.5540 H   0  0  0  0  0  0  0  0  0  0  0  0
   37.5870   25.5160   42.8640 H   0  0  0  0  0  0  0  0  0  0  0  0
   36.4380   26.3890   41.7050 H   0  0  0  0  0  0  0  0  0  0  0  0
   38.5110   27.0050   40.9140 H   0  0  0  0  0  0  0  0  0  0  0  0
   39.5560   27.3820   42.7030 C   0  0  0  0  0  0  0  0  0  0  0  0
   39.5150   27.7640   43.7190 H   0  0  0  0  0  0  0  0  0  0  0  0
   40.3070   27.9410   42.1350 H   0  0  0  0  0  0  0  0  0  0  0  0
   39.8600   26.3070   42.7960 H   0  0  0  0  0  0  0  0  0  0  0  0
   36.2060   28.9850   35.0670 C   0  0  0  0  0  0  0  0  0  0  0  0
   34.8330   28.6870   34.9610 C   0  0  0  0  0  0  0  0  0  0  0  0
   34.0750   28.8550   36.1260 C   0  0  0  0  0  0  0  0  0  0  0  0
   34.6810   29.2830   37.2600 N   0  0  0  0  0  0  0  0  0  0  0  0
   35.9820   29.5540   37.3160 C   0  0  0  0  0  0  0  0  0  0  0  0
   36.7340   29.4060   36.2330 N   0  0  0  0  0  0  0  0  0  0  0  0
   36.7930   28.8530   34.1620 H   0  0  0  0  0  0  0  0  0  0  0  0
   34.3520   28.3470   34.0600 H   0  0  0  0  0  0  0  0  0  0  0  0
   32.3220   28.5250   36.1750 S   0  0  0  0  0  0  0  0  0  0  0  0
   32.1790   27.1760   36.5470 H   0  0  0  0  0  0  0  0  0  0  0  0
  1  2  1  0  0  0  0
  2  7  1  0  0  0  0
  3  4  1  0  0  0  0
  3  2  2  0  0  0  0
  4  5  2  0  0  0  0
  5  9  1  0  0  0  0
  5  6  1  0  0  0  0
  6 10  1  0  0  0  0
  7  6  2  0  0  0  0
  7 11  1  0  0  0  0
  8  4  1  0  0  0  0
 11 15  1  0  0  0  0
 11 12  1  0  0  0  0
 12 16  1  0  0  0  0
 12 13  1  0  0  0  0
 12 17  1  0  0  0  0
 13 19  1  0  0  0  0
 14 20  1  0  0  0  0
 14 13  1  0  0  0  0
 15 22  1  6  0  0  0
 15 14  1  0  0  0  0
 15 23  1  0  0  0  0
 18 13  1  0  0  0  0
 21 14  1  0  0  0  0
 23 26  1  0  0  0  0
 23 24  1  0  0  0  0
 25 23  1  0  0  0  0
 27 32  1  0  0  0  0
 28 27  2  0  0  0  0
 28 29  1  0  0  0  0
 29 35  1  0  0  0  0
 29 30  2  0  0  0  0
 30 31  1  0  0  0  0
 31  3  1  0  0  0  0
 32 31  2  0  0  0  0
 33 27  1  0  0  0  0
 34 28  1  0  0  0  0
 35 36  1  0  0  0  0
M  END
>  <minimizedAffinity>
-5.06191158

$$$$

 OpenBabel03252505263D

 36 38  0  0  1  0  0  0  0  0999 V2000
   38.0350   27.5780   39.3480 F   0  0  0  0  0  0  0  0  0  0  0  0
   37.8280   27.9360   40.6550 C   0  0  0  0  0  0  0  0  0  0  0  0
   37.6320   26.9350   41.5640 C   0  0  0  0  0  0  0  0  0  0  0  0
   37.4260   27.3060   42.8720 C   0  0  0  0  0  0  0  0  0  0  0  0
   37.4220   28.6440   43.2170 C   0  0  0  0  0  0  0  0  0  0  0  0
   37.6210   29.6430   42.2930 C   0  0  0  0  0  0  0  0  0  0  0  0
   37.8280   29.2570   40.9780 C   0  0  0  0  0  0  0  0  0  0  0  0
   37.2720   26.4830   43.5760 H   0  0  0  0  0  0  0  0  0  0  0  0
   37.2510   28.8400   44.2830 H   0  0  0  0  0  0  0  0  0  0  0  0
   37.6100   30.6670   42.6110 H   0  0  0  0  0  0  0  0  0  0  0  0
   38.0290   30.3260   40.0570 N   0  0  0  0  0  0  0  0  0  0  0  0
   39.2030   30.7610   39.3760 C   0  0  0  0  0  0  0  0  0  0  0  0
   38.7510   30.9090   37.9240 C   0  0  0  0  0  0  0  0  0  0  0  0
   37.2530   31.0730   38.0490 C   0  0  0  0  0  0  0  0  0  0  0  0
   37.0900   31.2990   39.5350 C   0  0  2  0  0  0  0  0  0  0  0  0
   39.9160   29.9020   39.3700 H   0  0  0  0  0  0  0  0  0  0  0  0
   39.7380   31.6130   39.7760 H   0  0  0  0  0  0  0  0  0  0  0  0
   39.0390   30.0510   37.2990 H   0  0  0  0  0  0  0  0  0  0  0  0
   39.1590   31.8770   37.5550 H   0  0  0  0  0  0  0  0  0  0  0  0
   36.8210   31.8590   37.4320 H   0  0  0  0  0  0  0  0  0  0  0  0
   36.8070   30.0570   37.8600 H   0  0  0  0  0  0  0  0  0  0  0  0
   36.0610   31.0400   39.8040 H   0  0  0  0  0  0  0  0  0  0  0  0
   37.3430   32.7020   39.9620 C   0  0  0  0  0  0  0  0  0  0  0  0
   38.3420   33.1010   39.8080 H   0  0  0  0  0  0  0  0  0  0  0  0
   37.0730   32.7970   41.0190 H   0  0  0  0  0  0  0  0  0  0  0  0
   36.6660   33.3330   39.3290 H   0  0  0  0  0  0  0  0  0  0  0  0
   38.7320   23.4860   41.0160 C   0  0  0  0  0  0  0  0  0  0  0  0
   37.6290   22.8970   40.3670 C   0  0  0  0  0  0  0  0  0  0  0  0
   36.5290   23.7340   40.1420 C   0  0  0  0  0  0  0  0  0  0  0  0
   36.5800   25.0270   40.5470 N   0  0  0  0  0  0  0  0  0  0  0  0
   37.6440   25.5420   41.1570 C   0  0  0  0  0  0  0  0  0  0  0  0
   38.7050   24.7800   41.3880 N   0  0  0  0  0  0  0  0  0  0  0  0
   39.5840   22.8340   41.1900 H   0  0  0  0  0  0  0  0  0  0  0  0
   37.5880   21.8710   40.0460 H   0  0  0  0  0  0  0  0  0  0  0  0
   35.0460   23.1580   39.3330 S   0  0  0  0  0  0  0  0  0  0  0  0
   34.1940   22.6860   40.3470 H   0  0  0  0  0  0  0  0  0  0  0  0
  1  2  1  0  0  0  0
  2  7  2  0  0  0  0
  2  3  1  0  0  0  0
  3  4  2  0  0  0  0
  4  5  1  0  0  0  0
  4  8  1  0  0  0  0
  5  9  1  0  0  0  0
  6 10  1  0  0  0  0
  6  5  2  0  0  0  0
  7  6  1  0  0  0  0
 11  7  1  0  0  0  0
 12 17  1  0  0  0  0
 12 11  1  0  0  0  0
 13 14  1  0  0  0  0
 13 12  1  0  0  0  0
 14 15  1  0  0  0  0
 15 22  1  1  0  0  0
 15 23  1  0  0  0  0
 15 11  1  0  0  0  0
 16 12  1  0  0  0  0
 18 13  1  0  0  0  0
 19 13  1  0  0  0  0
 20 14  1  0  0  0  0
 21 14  1  0  0  0  0
 23 25  1  0  0  0  0
 24 23  1  0  0  0  0
 26 23  1  0  0  0  0
 27 33  1  0  0  0  0
 27 32  1  0  0  0  0
 28 27  2  0  0  0  0
 29 28  1  0  0  0  0
 29 30  2  0  0  0  0
 30 31  1  0  0  0  0
 31 32  2  0  0  0  0
 31  3  1  0  0  0  0
 34 28  1  0  0  0  0
 35 29  1  0  0  0  0
 35 36  1  0  0  0  0
M  END
>  <minimizedAffinity>
-5.03929853

$$$$

 OpenBabel03252505263D

 36 38  0  0  1  0  0  0  0  0999 V2000
   37.9730   27.5260   39.5960 F   0  0  0  0  0  0  0  0  0  0  0  0
   37.7230   27.7510   40.9250 C   0  0  0  0  0  0  0  0  0  0  0  0
   37.4930   26.6650   41.7200 C   0  0  0  0  0  0  0  0  0  0  0  0
   37.2440   26.9030   43.0510 C   0  0  0  0  0  0  0  0  0  0  0  0
   37.2330   28.1980   43.5310 C   0  0  0  0  0  0  0  0  0  0  0  0
   37.4660   29.2850   42.7200 C   0  0  0  0  0  0  0  0  0  0  0  0
   37.7160   29.0320   41.3800 C   0  0  0  0  0  0  0  0  0  0  0  0
   37.0630   26.0130   43.6630 H   0  0  0  0  0  0  0  0  0  0  0  0
   37.0260   28.2870   44.6040 H   0  0  0  0  0  0  0  0  0  0  0  0
   37.4480   30.2710   43.1390 H   0  0  0  0  0  0  0  0  0  0  0  0
   37.9520   30.1880   40.5800 N   0  0  0  0  0  0  0  0  0  0  0  0
   37.0870   30.9030   39.7000 C   0  0  0  0  0  0  0  0  0  0  0  0
   37.2760   32.3630   40.1090 C   0  0  0  0  0  0  0  0  0  0  0  0
   38.6250   32.3540   40.7930 C   0  0  0  0  0  0  0  0  0  0  0  0
   39.1500   30.9870   40.4200 C   0  0  2  0  0  0  0  0  0  0  0  0
   36.0400   30.6540   39.9940 H   0  0  0  0  0  0  0  0  0  0  0  0
   37.1710   30.7140   38.6380 H   0  0  0  0  0  0  0  0  0  0  0  0
   36.4670   32.7320   40.7580 H   0  0  0  0  0  0  0  0  0  0  0  0
   37.3860   32.9520   39.1700 H   0  0  0  0  0  0  0  0  0  0  0  0
   39.2870   33.1730   40.5180 H   0  0  0  0  0  0  0  0  0  0  0  0
   38.4180   32.2950   41.8970 H   0  0  0  0  0  0  0  0  0  0  0  0
   39.9120   30.7070   41.1550 H   0  0  0  0  0  0  0  0  0  0  0  0
   39.7650   30.9260   39.0660 C   0  0  0  0  0  0  0  0  0  0  0  0
   39.1230   31.1320   38.2140 H   0  0  0  0  0  0  0  0  0  0  0  0
   40.2310   29.9430   38.9400 H   0  0  0  0  0  0  0  0  0  0  0  0
   40.5450   31.7310   39.0570 H   0  0  0  0  0  0  0  0  0  0  0  0
   38.6340   23.3130   40.7860 C   0  0  0  0  0  0  0  0  0  0  0  0
   37.5160   22.7670   40.1230 C   0  0  0  0  0  0  0  0  0  0  0  0
   36.3930   23.5980   40.0270 C   0  0  0  0  0  0  0  0  0  0  0  0
   36.4360   24.8440   40.5570 N   0  0  0  0  0  0  0  0  0  0  0  0
   37.5140   25.3200   41.1750 C   0  0  0  0  0  0  0  0  0  0  0  0
   38.5980   24.5620   41.2870 N   0  0  0  0  0  0  0  0  0  0  0  0
   39.5040   22.6670   40.8600 H   0  0  0  0  0  0  0  0  0  0  0  0
   37.4810   21.7780   39.7020 H   0  0  0  0  0  0  0  0  0  0  0  0
   34.8890   23.0730   39.2210 S   0  0  0  0  0  0  0  0  0  0  0  0
   34.0880   22.4830   40.2150 H   0  0  0  0  0  0  0  0  0  0  0  0
  1  2  1  0  0  0  0
  2  7  2  0  0  0  0
  2  3  1  0  0  0  0
  3  4  2  0  0  0  0
  4  5  1  0  0  0  0
  4  8  1  0  0  0  0
  5  9  1  0  0  0  0
  6 10  1  0  0  0  0
  6  5  2  0  0  0  0
  7  6  1  0  0  0  0
 11  7  1  0  0  0  0
 12 16  1  0  0  0  0
 12 13  1  0  0  0  0
 12 11  1  0  0  0  0
 13 18  1  0  0  0  0
 13 14  1  0  0  0  0
 14 21  1  0  0  0  0
 15 11  1  0  0  0  0
 15 14  1  0  0  0  0
 15 22  1  1  0  0  0
 17 12  1  0  0  0  0
 19 13  1  0  0  0  0
 20 14  1  0  0  0  0
 23 15  1  0  0  0  0
 24 23  1  0  0  0  0
 25 23  1  0  0  0  0
 26 23  1  0  0  0  0
 27 33  1  0  0  0  0
 27 32  1  0  0  0  0
 28 27  2  0  0  0  0
 29 28  1  0  0  0  0
 29 30  2  0  0  0  0
 30 31  1  0  0  0  0
 31 32  2  0  0  0  0
 31  3  1  0  0  0  0
 34 28  1  0  0  0  0
 35 29  1  0  0  0  0
 35 36  1  0  0  0  0
M  END
>  <minimizedAffinity>
-5.03102112

$$$$

 OpenBabel03252505263D

 36 38  0  0  1  0  0  0  0  0999 V2000
   40.1270   30.2800   41.0370 F   0  0  0  0  0  0  0  0  0  0  0  0
   39.0860   31.0740   40.6290 C   0  0  0  0  0  0  0  0  0  0  0  0
   37.8170   30.6350   40.8800 C   0  0  0  0  0  0  0  0  0  0  0  0
   36.7810   31.4380   40.4670 C   0  0  0  0  0  0  0  0  0  0  0  0
   37.0480   32.6330   39.8260 C   0  0  0  0  0  0  0  0  0  0  0  0
   38.3300   33.0650   39.5790 C   0  0  0  0  0  0  0  0  0  0  0  0
   39.3670   32.2460   40.0010 C   0  0  0  0  0  0  0  0  0  0  0  0
   35.7770   31.0600   40.6810 H   0  0  0  0  0  0  0  0  0  0  0  0
   36.1580   33.2040   39.5350 H   0  0  0  0  0  0  0  0  0  0  0  0
   38.4860   34.0000   39.0790 H   0  0  0  0  0  0  0  0  0  0  0  0
   40.6760   32.7350   39.7220 N   0  0  0  0  0  0  0  0  0  0  0  0
   41.4700   33.7080   40.3970 C   0  0  0  0  0  0  0  0  0  0  0  0
   42.8290   33.0280   40.5520 C   0  0  0  0  0  0  0  0  0  0  0  0
   42.8080   31.9740   39.4680 C   0  0  0  0  0  0  0  0  0  0  0  0
   41.5980   32.3860   38.6610 C   0  0  2  0  0  0  0  0  0  0  0  0
   41.0700   33.7950   41.4350 H   0  0  0  0  0  0  0  0  0  0  0  0
   41.5060   34.7090   39.9870 H   0  0  0  0  0  0  0  0  0  0  0  0
   42.9830   32.6070   41.5580 H   0  0  0  0  0  0  0  0  0  0  0  0
   43.6020   33.7780   40.2680 H   0  0  0  0  0  0  0  0  0  0  0  0
   43.7240   31.8940   38.8840 H   0  0  0  0  0  0  0  0  0  0  0  0
   42.5100   31.0120   39.9690 H   0  0  0  0  0  0  0  0  0  0  0  0
   41.2500   31.5090   38.1060 H   0  0  0  0  0  0  0  0  0  0  0  0
   41.8680   33.4760   37.6850 C   0  0  0  0  0  0  0  0  0  0  0  0
   42.1810   34.4380   38.0810 H   0  0  0  0  0  0  0  0  0  0  0  0
   40.9790   33.6120   37.0610 H   0  0  0  0  0  0  0  0  0  0  0  0
   42.7280   33.1130   37.0630 H   0  0  0  0  0  0  0  0  0  0  0  0
   37.3340   28.1480   43.5240 C   0  0  0  0  0  0  0  0  0  0  0  0
   37.1340   26.9520   42.8060 C   0  0  0  0  0  0  0  0  0  0  0  0
   37.1760   27.0580   41.4110 C   0  0  0  0  0  0  0  0  0  0  0  0
   37.3990   28.2670   40.8390 N   0  0  0  0  0  0  0  0  0  0  0  0
   37.5820   29.3720   41.5560 C   0  0  0  0  0  0  0  0  0  0  0  0
   37.5500   29.3120   42.8820 N   0  0  0  0  0  0  0  0  0  0  0  0
   37.3010   28.0630   44.6070 H   0  0  0  0  0  0  0  0  0  0  0  0
   36.9570   25.9920   43.2600 H   0  0  0  0  0  0  0  0  0  0  0  0
   36.9440   25.6470   40.3430 S   0  0  0  0  0  0  0  0  0  0  0  0
   35.5660   25.5720   40.0710 H   0  0  0  0  0  0  0  0  0  0  0  0
  2  3  1  0  0  0  0
  2  1  1  0  0  0  0
  3 31  1  0  0  0  0
  4  8  1  0  0  0  0
  4  3  2  0  0  0  0
  5  4  1  0  0  0  0
  6  5  2  0  0  0  0
  6  7  1  0  0  0  0
  7  2  2  0  0  0  0
  9  5  1  0  0  0  0
 10  6  1  0  0  0  0
 11  7  1  0  0  0  0
 11 12  1  0  0  0  0
 12 13  1  0  0  0  0
 12 16  1  0  0  0  0
 13 18  1  0  0  0  0
 14 21  1  0  0  0  0
 14 13  1  0  0  0  0
 15 22  1  6  0  0  0
 15 14  1  0  0  0  0
 15 11  1  0  0  0  0
 17 12  1  0  0  0  0
 19 13  1  0  0  0  0
 20 14  1  0  0  0  0
 23 24  1  0  0  0  0
 23 15  1  0  0  0  0
 25 23  1  0  0  0  0
 26 23  1  0  0  0  0
 27 33  1  0  0  0  0
 28 34  1  0  0  0  0
 28 27  2  0  0  0  0
 29 28  1  0  0  0  0
 30 29  2  0  0  0  0
 30 31  1  0  0  0  0
 31 32  2  0  0  0  0
 32 27  1  0  0  0  0
 35 29  1  0  0  0  0
 36 35  1  0  0  0  0
M  END
>  <minimizedAffinity>
-5.02019882

$$$$

 OpenBabel03252505263D

 36 38  0  0  1  0  0  0  0  0999 V2000
   40.1070   29.3600   40.3450 F   0  0  0  0  0  0  0  0  0  0  0  0
   38.8540   29.6240   39.8550 C   0  0  0  0  0  0  0  0  0  0  0  0
   38.7480   30.5420   38.8480 C   0  0  0  0  0  0  0  0  0  0  0  0
   37.4880   30.7990   38.3630 C   0  0  0  0  0  0  0  0  0  0  0  0
   36.3960   30.1400   38.8950 C   0  0  0  0  0  0  0  0  0  0  0  0
   36.5160   29.2180   39.9080 C   0  0  0  0  0  0  0  0  0  0  0  0
   37.7920   28.9670   40.3890 C   0  0  0  0  0  0  0  0  0  0  0  0
   37.4340   31.5380   37.5580 H   0  0  0  0  0  0  0  0  0  0  0  0
   35.4340   30.4110   38.4440 H   0  0  0  0  0  0  0  0  0  0  0  0
   35.6380   28.7320   40.2880 H   0  0  0  0  0  0  0  0  0  0  0  0
   37.8650   28.0050   41.4380 N   0  0  0  0  0  0  0  0  0  0  0  0
   38.1150   26.6020   41.3990 C   0  0  0  0  0  0  0  0  0  0  0  0
   39.1850   26.3900   42.4690 C   0  0  0  0  0  0  0  0  0  0  0  0
   39.0180   27.6010   43.3610 C   0  0  0  0  0  0  0  0  0  0  0  0
   37.7060   28.1680   42.8690 C   0  0  2  0  0  0  0  0  0  0  0  0
   38.6280   26.3860   40.4320 H   0  0  0  0  0  0  0  0  0  0  0  0
   37.2680   25.9310   41.4640 H   0  0  0  0  0  0  0  0  0  0  0  0
   40.1980   26.3040   42.0480 H   0  0  0  0  0  0  0  0  0  0  0  0
   38.8790   25.4990   43.0620 H   0  0  0  0  0  0  0  0  0  0  0  0
   39.0370   27.3930   44.4300 H   0  0  0  0  0  0  0  0  0  0  0  0
   39.7960   28.3440   43.0340 H   0  0  0  0  0  0  0  0  0  0  0  0
   37.6720   29.2260   43.1450 H   0  0  0  0  0  0  0  0  0  0  0  0
   36.5070   27.4980   43.4440 C   0  0  0  0  0  0  0  0  0  0  0  0
   36.3650   26.4450   43.2200 H   0  0  0  0  0  0  0  0  0  0  0  0
   35.6170   28.0580   43.1370 H   0  0  0  0  0  0  0  0  0  0  0  0
   36.6380   27.5560   44.5560 H   0  0  0  0  0  0  0  0  0  0  0  0
   41.2290   33.1280   38.0980 C   0  0  0  0  0  0  0  0  0  0  0  0
   42.1650   32.4510   37.2910 C   0  0  0  0  0  0  0  0  0  0  0  0
   41.8930   31.1010   37.0360 C   0  0  0  0  0  0  0  0  0  0  0  0
   40.7800   30.5330   37.5600 N   0  0  0  0  0  0  0  0  0  0  0  0
   39.9220   31.2110   38.3180 C   0  0  0  0  0  0  0  0  0  0  0  0
   40.1460   32.4920   38.5830 N   0  0  0  0  0  0  0  0  0  0  0  0
   41.4420   34.1760   38.2950 H   0  0  0  0  0  0  0  0  0  0  0  0
   43.0490   32.9010   36.8750 H   0  0  0  0  0  0  0  0  0  0  0  0
   42.9680   30.0880   36.0340 S   0  0  0  0  0  0  0  0  0  0  0  0
   43.8980   29.5020   36.9110 H   0  0  0  0  0  0  0  0  0  0  0  0
  2  1  1  0  0  0  0
  2  7  1  0  0  0  0
  3  2  2  0  0  0  0
  4  3  1  0  0  0  0
  4  5  2  0  0  0  0
  5  6  1  0  0  0  0
  6 10  1  0  0  0  0
  6  7  2  0  0  0  0
  7 11  1  0  0  0  0
  8  4  1  0  0  0  0
  9  5  1  0  0  0  0
 11 15  1  0  0  0  0
 12 11  1  0  0  0  0
 12 17  1  0  0  0  0
 12 13  1  0  0  0  0
 13 19  1  0  0  0  0
 13 14  1  0  0  0  0
 14 20  1  0  0  0  0
 15 22  1  1  0  0  0
 15 14  1  0  0  0  0
 15 23  1  0  0  0  0
 16 12  1  0  0  0  0
 18 13  1  0  0  0  0
 21 14  1  0  0  0  0
 23 26  1  0  0  0  0
 24 23  1  0  0  0  0
 25 23  1  0  0  0  0
 27 33  1  0  0  0  0
 27 32  1  0  0  0  0
 28 27  2  0  0  0  0
 29 28  1  0  0  0  0
 29 30  2  0  0  0  0
 30 31  1  0  0  0  0
 31 32  2  0  0  0  0
 31  3  1  0  0  0  0
 34 28  1  0  0  0  0
 35 36  1  0  0  0  0
 35 29  1  0  0  0  0
M  END
>  <minimizedAffinity>
-4.996943

$$$$
