
 OpenBabel03242513243D

 38 40  0  0  1  0  0  0  0  0999 V2000
   46.0640   30.2720   47.5490 C   0  0  2  0  0  0  0  0  0  0  0  0
   44.7780   30.7670   48.1930 C   0  0  0  0  0  0  0  0  0  0  0  0
   45.3760   31.2060   49.5250 C   0  0  0  0  0  0  0  0  0  0  0  0
   46.5650   31.8210   49.1840 O   0  0  0  0  0  0  0  0  0  0  0  0
   46.9790   31.3660   47.9630 C   0  0  1  0  0  0  0  0  0  0  0  0
   46.2650   29.2940   47.9860 H   0  0  0  0  0  0  0  0  0  0  0  0
   44.0150   29.9810   48.3040 H   0  0  0  0  0  0  0  0  0  0  0  0
   44.3840   31.6820   47.6800 H   0  0  0  0  0  0  0  0  0  0  0  0
   44.7080   31.8710   50.0900 H   0  0  0  0  0  0  0  0  0  0  0  0
   45.5370   30.2790   50.1170 H   0  0  0  0  0  0  0  0  0  0  0  0
   46.9630   32.1940   47.2380 H   0  0  0  0  0  0  0  0  0  0  0  0
   48.3870   30.8800   48.0970 C   0  0  1  0  0  0  0  0  0  0  0  0
   49.0580   31.3880   49.3550 C   0  0  0  0  0  0  0  0  0  0  0  0
   49.7850   30.1690   49.8570 C   0  0  0  0  0  0  0  0  0  0  0  0
   49.7530   29.2380   48.8150 O   0  0  0  0  0  0  0  0  0  0  0  0
   48.4340   29.3730   48.3730 C   0  0  0  0  0  0  0  0  0  0  0  0
   49.0070   31.0470   47.2150 H   0  0  0  0  0  0  0  0  0  0  0  0
   48.2970   31.7500   50.0750 H   0  0  0  0  0  0  0  0  0  0  0  0
   49.7810   32.1760   49.0490 H   0  0  0  0  0  0  0  0  0  0  0  0
   49.2940   29.7210   50.7500 H   0  0  0  0  0  0  0  0  0  0  0  0
   50.8470   30.4060   50.0710 H   0  0  0  0  0  0  0  0  0  0  0  0
   48.2070   28.7630   47.5000 H   0  0  0  0  0  0  0  0  0  0  0  0
   47.8270   29.1150   49.2900 H   0  0  0  0  0  0  0  0  0  0  0  0
   45.9270   30.1020   46.0810 C   0  0  0  0  0  0  0  0  0  0  0  0
   46.7750   29.4610   45.7250 H   0  0  0  0  0  0  0  0  0  0  0  0
   44.9740   29.6020   45.8600 H   0  0  0  0  0  0  0  0  0  0  0  0
   46.7090   31.4720   44.2110 C   0  0  0  0  0  0  0  0  0  0  0  0
   46.0170   31.3680   45.3170 C   0  0  0  0  0  0  0  0  0  0  0  0
   45.7390   34.4900   42.3810 C   0  0  0  0  0  0  0  0  0  0  0  0
   46.9910   35.1090   42.1390 C   0  0  0  0  0  0  0  0  0  0  0  0
   48.1200   34.4550   42.6210 C   0  0  0  0  0  0  0  0  0  0  0  0
   47.9860   33.2730   43.2900 N   0  0  0  0  0  0  0  0  0  0  0  0
   46.7710   32.7270   43.4930 C   0  0  0  0  0  0  0  0  0  0  0  0
   45.6640   33.3130   43.0530 N   0  0  0  0  0  0  0  0  0  0  0  0
   44.8710   34.9950   42.0100 H   0  0  0  0  0  0  0  0  0  0  0  0
   47.1250   36.0260   41.6230 H   0  0  0  0  0  0  0  0  0  0  0  0
   49.7910   35.0780   42.4150 S   0  0  0  0  0  0  0  0  0  0  0  0
   50.0620   36.0620   43.3830 H   0  0  0  0  0  0  0  0  0  0  0  0
  1  5  1  0  0  0  0
  1  6  1  1  0  0  0
  1  2  1  0  0  0  0
  2  7  1  0  0  0  0
  2  3  1  0  0  0  0
  3  9  1  0  0  0  0
  3 10  1  0  0  0  0
  4  3  1  0  0  0  0
  5 11  1  6  0  0  0
  5 12  1  0  0  0  0
  5  4  1  0  0  0  0
  8  2  1  0  0  0  0
 12 17  1  6  0  0  0
 12 16  1  0  0  0  0
 12 13  1  0  0  0  0
 13 14  1  0  0  0  0
 13 18  1  0  0  0  0
 14 21  1  0  0  0  0
 14 20  1  0  0  0  0
 15 14  1  0  0  0  0
 16 15  1  0  0  0  0
 16 23  1  0  0  0  0
 19 13  1  0  0  0  0
 22 16  1  0  0  0  0
 24  1  1  0  0  0  0
 25 24  1  0  0  0  0
 26 24  1  0  0  0  0
 27 28  2  0  0  0  0
 28 24  1  0  0  0  0
 29 34  1  0  0  0  0
 30 29  2  0  0  0  0
 30 31  1  0  0  0  0
 31 32  2  0  0  0  0
 32 33  1  0  0  0  0
 33 27  1  0  0  0  0
 34 33  2  0  0  0  0
 35 29  1  0  0  0  0
 36 30  1  0  0  0  0
 37 31  1  0  0  0  0
 37 38  1  0  0  0  0
M  END
>  <minimizedAffinity>
-4.5283556

>  <minimizedRMSD>
0.632846534

$$$$
