
 OpenBabel03252505253D

 36 38  0  0  1  0  0  0  0  0999 V2000
   46.7270   33.3780   44.6840 F   0  0  0  0  0  0  0  0  0  0  0  0
   47.3850   32.1910   44.4890 C   0  0  0  0  0  0  0  0  0  0  0  0
   48.1990   32.0890   43.3970 C   0  0  0  0  0  0  0  0  0  0  0  0
   48.8540   30.8940   43.2110 C   0  0  0  0  0  0  0  0  0  0  0  0
   48.6730   29.8610   44.1100 C   0  0  0  0  0  0  0  0  0  0  0  0
   47.8500   29.9760   45.2070 C   0  0  0  0  0  0  0  0  0  0  0  0
   47.1950   31.1850   45.3830 C   0  0  0  0  0  0  0  0  0  0  0  0
   49.4980   30.8420   42.3280 H   0  0  0  0  0  0  0  0  0  0  0  0
   49.2370   28.9490   43.8780 H   0  0  0  0  0  0  0  0  0  0  0  0
   47.7430   29.1450   45.8760 H   0  0  0  0  0  0  0  0  0  0  0  0
   46.3550   31.2560   46.5320 N   0  0  0  0  0  0  0  0  0  0  0  0
   45.2790   30.4200   46.9520 C   0  0  0  0  0  0  0  0  0  0  0  0
   45.5900   30.1330   48.4200 C   0  0  0  0  0  0  0  0  0  0  0  0
   46.5000   31.2780   48.8060 C   0  0  0  0  0  0  0  0  0  0  0  0
   46.3430   32.2080   47.6240 C   0  0  2  0  0  0  0  0  0  0  0  0
   45.4030   29.4400   46.4340 H   0  0  0  0  0  0  0  0  0  0  0  0
   44.2680   30.7550   46.7580 H   0  0  0  0  0  0  0  0  0  0  0  0
   46.0530   29.1470   48.5730 H   0  0  0  0  0  0  0  0  0  0  0  0
   44.6390   30.2630   48.9850 H   0  0  0  0  0  0  0  0  0  0  0  0
   46.2790   31.7410   49.7650 H   0  0  0  0  0  0  0  0  0  0  0  0
   47.5510   30.8860   48.7280 H   0  0  0  0  0  0  0  0  0  0  0  0
   47.2210   32.8600   47.5900 H   0  0  0  0  0  0  0  0  0  0  0  0
   45.1290   33.0670   47.6910 C   0  0  0  0  0  0  0  0  0  0  0  0
   44.1630   32.5700   47.6840 H   0  0  0  0  0  0  0  0  0  0  0  0
   45.1700   33.7910   46.8710 H   0  0  0  0  0  0  0  0  0  0  0  0
   45.1890   33.5930   48.6790 H   0  0  0  0  0  0  0  0  0  0  0  0
   49.0190   35.3950   42.0540 C   0  0  0  0  0  0  0  0  0  0  0  0
   48.6510   35.2910   40.6980 C   0  0  0  0  0  0  0  0  0  0  0  0
   48.1250   34.0570   40.2970 C   0  0  0  0  0  0  0  0  0  0  0  0
   48.0000   33.0580   41.2040 N   0  0  0  0  0  0  0  0  0  0  0  0
   48.3610   33.2000   42.4770 C   0  0  0  0  0  0  0  0  0  0  0  0
   48.8640   34.3550   42.8950 N   0  0  0  0  0  0  0  0  0  0  0  0
   49.4270   36.3540   42.3630 H   0  0  0  0  0  0  0  0  0  0  0  0
   48.7500   36.0840   39.9780 H   0  0  0  0  0  0  0  0  0  0  0  0
   47.6050   33.7450   38.6180 S   0  0  0  0  0  0  0  0  0  0  0  0
   48.7260   33.2330   37.9410 H   0  0  0  0  0  0  0  0  0  0  0  0
  2  1  1  0  0  0  0
  2  7  1  0  0  0  0
  3  2  2  0  0  0  0
  4  3  1  0  0  0  0
  4  5  2  0  0  0  0
  5  6  1  0  0  0  0
  6  7  2  0  0  0  0
  6 10  1  0  0  0  0
  7 11  1  0  0  0  0
  8  4  1  0  0  0  0
  9  5  1  0  0  0  0
 11 12  1  0  0  0  0
 11 15  1  0  0  0  0
 12 13  1  0  0  0  0
 13 18  1  0  0  0  0
 13 14  1  0  0  0  0
 13 19  1  0  0  0  0
 14 20  1  0  0  0  0
 15 22  1  6  0  0  0
 15 23  1  0  0  0  0
 15 14  1  0  0  0  0
 16 12  1  0  0  0  0
 17 12  1  0  0  0  0
 21 14  1  0  0  0  0
 23 26  1  0  0  0  0
 24 23  1  0  0  0  0
 25 23  1  0  0  0  0
 27 33  1  0  0  0  0
 27 32  1  0  0  0  0
 28 27  2  0  0  0  0
 29 28  1  0  0  0  0
 29 30  2  0  0  0  0
 30 31  1  0  0  0  0
 31 32  2  0  0  0  0
 31  3  1  0  0  0  0
 34 28  1  0  0  0  0
 35 29  1  0  0  0  0
 36 35  1  0  0  0  0
M  END
>  <minimizedAffinity>
-4.88652182

>  <minimizedRMSD>
0.478743881

$$$$
