
 OpenBabel03242513483D

 25 27  0  0  1  0  0  0  0  0999 V2000
   46.8910   33.0020   40.2950 C   0  0  1  0  0  0  0  0  0  0  0  0
   46.1280   31.9300   41.0790 C   0  0  0  0  0  0  0  0  0  0  0  0
   45.4400   33.0920   40.5470 C   0  0  1  0  0  0  0  0  0  0  0  0
   47.2430   32.7250   39.2890 H   0  0  0  0  0  0  0  0  0  0  0  0
   46.2880   31.8390   42.1670 H   0  0  0  0  0  0  0  0  0  0  0  0
   45.9260   30.9670   40.5640 H   0  0  0  0  0  0  0  0  0  0  0  0
   44.8360   33.0960   39.6120 H   0  0  0  0  0  0  0  0  0  0  0  0
   47.8930   33.7690   41.0630 C   0  0  0  0  0  0  0  0  0  0  0  0
   48.1170   35.1140   40.7190 C   0  0  0  0  0  0  0  0  0  0  0  0
   49.0790   35.8190   41.4570 C   0  0  0  0  0  0  0  0  0  0  0  0
   49.7420   35.1560   42.4690 N   0  0  0  0  0  0  0  0  0  0  0  0
   49.4840   33.8560   42.7560 C   0  0  0  0  0  0  0  0  0  0  0  0
   48.5650   33.1660   42.0560 N   0  0  0  0  0  0  0  0  0  0  0  0
   47.5910   35.6090   39.9280 H   0  0  0  0  0  0  0  0  0  0  0  0
   49.3050   36.8640   41.2470 H   0  0  0  0  0  0  0  0  0  0  0  0
   50.0030   33.3390   43.5450 H   0  0  0  0  0  0  0  0  0  0  0  0
   44.9950   34.1250   41.5340 C   0  0  0  0  0  0  0  0  0  0  0  0
   44.3330   35.3320   41.3690 C   0  0  0  0  0  0  0  0  0  0  0  0
   44.1380   35.9010   42.5780 N   0  0  0  0  0  0  0  0  0  0  0  0
   44.6650   35.0680   43.4720 C   0  0  0  0  0  0  0  0  0  0  0  0
   45.1920   33.9840   42.8880 N   0  0  0  0  0  0  0  0  0  0  0  0
   44.0640   35.6640   40.3560 H   0  0  0  0  0  0  0  0  0  0  0  0
   43.6600   36.8140   42.7000 H   0  0  0  0  0  0  0  0  0  0  0  0
   44.6660   35.3650   45.2450 S   0  0  0  0  0  0  0  0  0  0  0  0
   45.2580   34.2900   45.9330 H   0  0  0  0  0  0  0  0  0  0  0  0
  1  4  1  6  0  0  0
  1  3  1  0  0  0  0
  1  8  1  0  0  0  0
  1  2  1  0  0  0  0
  2  5  1  0  0  0  0
  3  7  1  6  0  0  0
  3  2  1  0  0  0  0
  3 17  1  0  0  0  0
  6  2  1  0  0  0  0
  8 13  1  0  0  0  0
  9  8  2  0  0  0  0
  9 10  1  0  0  0  0
 10 11  2  0  0  0  0
 11 12  1  0  0  0  0
 12 16  1  0  0  0  0
 13 12  2  0  0  0  0
 14  9  1  0  0  0  0
 15 10  1  0  0  0  0
 17 21  1  0  0  0  0
 18 17  2  0  0  0  0
 18 19  1  0  0  0  0
 19 23  1  0  0  0  0
 19 20  1  0  0  0  0
 20 24  1  0  0  0  0
 21 20  2  0  0  0  0
 22 18  1  0  0  0  0
 24 25  1  0  0  0  0
M  END
>  <minimizedAffinity>
-4.05953217

>  <minimizedRMSD>
1.38039589

$$$$
