
 OpenBabel03252509163D

 18 19  0  0  0  0  0  0  0  0999 V2000
   44.4960   36.0650   44.5750 C   0  0  0  0  0  0  0  0  0  0  0  0
   45.0950   36.1520   43.2920 C   0  0  0  0  0  0  0  0  0  0  0  0
   46.0020   35.1440   42.9170 C   0  0  0  0  0  0  0  0  0  0  0  0
   46.2470   34.1410   43.8170 N   0  0  0  0  0  0  0  0  0  0  0  0
   45.6450   34.1120   45.0260 C   0  0  0  0  0  0  0  0  0  0  0  0
   44.7670   35.0740   45.4120 N   0  0  0  0  0  0  0  0  0  0  0  0
   43.8010   36.8260   44.8800 H   0  0  0  0  0  0  0  0  0  0  0  0
   44.8770   36.9600   42.6050 H   0  0  0  0  0  0  0  0  0  0  0  0
   46.4960   35.1400   41.9620 H   0  0  0  0  0  0  0  0  0  0  0  0
   46.0680   32.9420   45.8060 C   0  0  0  0  0  0  0  0  0  0  0  0
   45.7320   32.7310   47.1660 C   0  0  0  0  0  0  0  0  0  0  0  0
   46.1850   31.6100   47.7690 C   0  0  0  0  0  0  0  0  0  0  0  0
   46.9770   30.6880   47.0330 C   0  0  0  0  0  0  0  0  0  0  0  0
   47.0710   31.4800   45.3840 S   0  0  0  0  0  0  0  0  0  0  0  0
   45.1280   33.4530   47.6970 H   0  0  0  0  0  0  0  0  0  0  0  0
   46.0100   31.3290   48.7700 H   0  0  0  0  0  0  0  0  0  0  0  0
   47.7150   29.1520   47.5150 S   0  0  0  0  0  0  0  0  0  0  0  0
   48.7460   29.3530   48.4800 H   0  0  0  0  0  0  0  0  0  0  0  0
  1  7  1  0  0  0  0
  1  6  1  0  0  0  0
  2  1  2  0  0  0  0
  3  2  1  0  0  0  0
  3  4  2  0  0  0  0
  4  5  1  0  0  0  0
  5  6  2  0  0  0  0
  5 10  1  0  0  0  0
  8  2  1  0  0  0  0
  9  3  1  0  0  0  0
 10 11  2  0  0  0  0
 11 15  1  0  0  0  0
 11 12  1  0  0  0  0
 12 16  1  0  0  0  0
 13 17  1  0  0  0  0
 13 12  2  0  0  0  0
 14 10  1  0  0  0  0
 14 13  1  0  0  0  0
 17 18  1  0  0  0  0
M  END
>  <minimizedAffinity>
-3.99167514

>  <minimizedRMSD>
1.09592462

$$$$
