
 OpenBabel03252509343D

 36 37  0  0  1  0  0  0  0  0999 V2000
   38.0590   30.0270   40.9280 O   0  0  0  0  0  0  0  0  0  0  0  0
   37.5320   29.1960   41.9160 C   0  0  1  0  0  0  0  0  0  0  0  0
   37.1520   27.8360   41.3700 C   0  0  0  0  0  0  0  0  0  0  0  0
   36.9330   27.0570   42.6420 C   0  0  0  0  0  0  0  0  0  0  0  0
   37.8330   27.6960   43.6780 C   0  0  0  0  0  0  0  0  0  0  0  0
   38.5790   28.7910   42.9320 C   0  0  1  0  0  0  0  0  0  0  0  0
   36.6700   29.6040   42.4320 H   0  0  0  0  0  0  0  0  0  0  0  0
   37.9120   27.4070   40.6970 H   0  0  0  0  0  0  0  0  0  0  0  0
   36.2090   27.8240   40.8020 H   0  0  0  0  0  0  0  0  0  0  0  0
   37.1060   25.9690   42.5160 H   0  0  0  0  0  0  0  0  0  0  0  0
   35.8920   27.2160   43.0030 H   0  0  0  0  0  0  0  0  0  0  0  0
   38.6070   26.9310   43.9440 H   0  0  0  0  0  0  0  0  0  0  0  0
   37.2870   28.0720   44.5560 H   0  0  0  0  0  0  0  0  0  0  0  0
   38.8560   29.6300   43.6200 H   0  0  0  0  0  0  0  0  0  0  0  0
   39.8510   28.2950   42.3100 C   0  0  0  0  0  0  0  0  0  0  0  0
   39.5860   27.7290   41.4070 H   0  0  0  0  0  0  0  0  0  0  0  0
   40.5650   29.0760   42.0550 H   0  0  0  0  0  0  0  0  0  0  0  0
   40.6470   27.1830   43.5120 S   0  0  0  0  0  0  0  0  0  0  0  0
   41.7070   26.4580   42.9420 H   0  0  0  0  0  0  0  0  0  0  0  0
   36.3930   30.4470   38.9900 O   0  0  0  0  0  0  0  0  0  0  0  0
   36.8330   31.0060   40.3240 P   0  0  1  0  0  0  0  0  0  0  0  0
   35.5650   31.1260   41.4120 O   0  0  0  0  0  0  0  0  0  0  0  0
   35.7340   30.8470   42.3190 H   0  0  0  0  0  0  0  0  0  0  0  0
   37.4340   32.5630   40.1150 O   0  0  0  0  0  0  0  0  0  0  0  0
   38.7110   32.6040   40.5880 C   0  0  0  0  0  0  0  0  0  0  0  0
   38.9340   33.2560   41.4250 H   0  0  0  0  0  0  0  0  0  0  0  0
   38.9330   31.5620   40.9680 H   0  0  0  0  0  0  0  0  0  0  0  0
   41.5230   34.1600   38.7010 C   0  0  0  0  0  0  0  0  0  0  0  0
   40.5800   33.9260   39.7180 C   0  0  0  0  0  0  0  0  0  0  0  0
   39.7040   32.8600   39.5320 C   0  0  0  0  0  0  0  0  0  0  0  0
   39.7980   32.1060   38.3930 N   0  0  0  0  0  0  0  0  0  0  0  0
   40.7140   32.3590   37.4390 C   0  0  0  0  0  0  0  0  0  0  0  0
   41.5630   33.3730   37.5960 N   0  0  0  0  0  0  0  0  0  0  0  0
   42.2310   34.9650   38.7780 H   0  0  0  0  0  0  0  0  0  0  0  0
   40.5970   34.5800   40.5680 H   0  0  0  0  0  0  0  0  0  0  0  0
   40.7050   31.7050   36.5790 H   0  0  0  0  0  0  0  0  0  0  0  0
  1  2  1  0  0  0  0
  2  7  1  1  0  0  0
  2  6  1  0  0  0  0
  3  2  1  0  0  0  0
  3  4  1  0  0  0  0
  4 11  1  0  0  0  0
  4  5  1  0  0  0  0
  5 12  1  0  0  0  0
  5 13  1  0  0  0  0
  6 14  1  1  0  0  0
  6  5  1  0  0  0  0
  8  3  1  0  0  0  0
  9  3  1  0  0  0  0
 10  4  1  0  0  0  0
 15  6  1  0  0  0  0
 15 18  1  0  0  0  0
 16 15  1  0  0  0  0
 17 15  1  0  0  0  0
 19 18  1  0  0  0  0
 21 20  2  6  0  0  0
 21  1  1  0  0  0  0
 21 22  1  0  0  0  0
 22 23  1  0  0  0  0
 24 21  1  0  0  0  0
 24 25  1  0  0  0  0
 25 27  1  0  0  0  0
 25 26  1  0  0  0  0
 28 34  1  0  0  0  0
 28 29  1  0  0  0  0
 29 35  1  0  0  0  0
 30 29  2  0  0  0  0
 30 25  1  0  0  0  0
 31 30  1  0  0  0  0
 32 33  1  0  0  0  0
 32 31  2  0  0  0  0
 33 28  2  0  0  0  0
 36 32  1  0  0  0  0
M  END
>  <minimizedAffinity>
-5.11697578

$$$$

 OpenBabel03252509343D

 36 37  0  0  1  0  0  0  0  0999 V2000
   36.0820   28.1870   41.7060 O   0  0  0  0  0  0  0  0  0  0  0  0
   37.4540   28.0540   41.9180 C   0  0  1  0  0  0  0  0  0  0  0  0
   37.8110   28.1400   43.3870 C   0  0  0  0  0  0  0  0  0  0  0  0
   39.2390   27.6560   43.3730 C   0  0  0  0  0  0  0  0  0  0  0  0
   39.3430   26.7140   42.1930 C   0  0  0  0  0  0  0  0  0  0  0  0
   37.9410   26.6550   41.6080 C   0  0  1  0  0  0  0  0  0  0  0  0
   38.0620   28.7740   41.3820 H   0  0  0  0  0  0  0  0  0  0  0  0
   37.1370   27.5570   44.0360 H   0  0  0  0  0  0  0  0  0  0  0  0
   37.8070   29.1620   43.7950 H   0  0  0  0  0  0  0  0  0  0  0  0
   39.5480   27.1970   44.3340 H   0  0  0  0  0  0  0  0  0  0  0  0
   39.9200   28.5060   43.1460 H   0  0  0  0  0  0  0  0  0  0  0  0
   39.5380   25.6940   42.6140 H   0  0  0  0  0  0  0  0  0  0  0  0
   40.1020   27.0210   41.4570 H   0  0  0  0  0  0  0  0  0  0  0  0
   37.9720   26.4460   40.5080 H   0  0  0  0  0  0  0  0  0  0  0  0
   37.1040   25.5800   42.2350 C   0  0  0  0  0  0  0  0  0  0  0  0
   37.6790   25.1480   43.0660 H   0  0  0  0  0  0  0  0  0  0  0  0
   36.1340   25.9140   42.5970 H   0  0  0  0  0  0  0  0  0  0  0  0
   36.8180   24.3040   40.9690 S   0  0  0  0  0  0  0  0  0  0  0  0
   36.2710   23.1300   41.5130 H   0  0  0  0  0  0  0  0  0  0  0  0
   34.6480   29.0970   39.7510 O   0  0  0  0  0  0  0  0  0  0  0  0
   35.8120   29.4610   40.6430 P   0  0  1  0  0  0  0  0  0  0  0  0
   35.5540   30.8940   41.4720 O   0  0  0  0  0  0  0  0  0  0  0  0
   35.8020   30.9160   42.4040 H   0  0  0  0  0  0  0  0  0  0  0  0
   37.1920   29.6910   39.7090 O   0  0  0  0  0  0  0  0  0  0  0  0
   37.0660   30.8610   39.0240 C   0  0  0  0  0  0  0  0  0  0  0  0
   37.0800   30.8340   37.9410 H   0  0  0  0  0  0  0  0  0  0  0  0
   36.0430   31.2650   39.2880 H   0  0  0  0  0  0  0  0  0  0  0  0
   38.4550   34.1430   40.1170 C   0  0  0  0  0  0  0  0  0  0  0  0
   37.5300   33.1720   39.6940 C   0  0  0  0  0  0  0  0  0  0  0  0
   38.0230   31.8890   39.4680 C   0  0  0  0  0  0  0  0  0  0  0  0
   39.3540   31.6380   39.6640 N   0  0  0  0  0  0  0  0  0  0  0  0
   40.2110   32.5940   40.0710 C   0  0  0  0  0  0  0  0  0  0  0  0
   39.7620   33.8280   40.2930 N   0  0  0  0  0  0  0  0  0  0  0  0
   38.1450   35.1530   40.3100 H   0  0  0  0  0  0  0  0  0  0  0  0
   36.5100   33.4790   39.5730 H   0  0  0  0  0  0  0  0  0  0  0  0
   41.2420   32.2930   40.1960 H   0  0  0  0  0  0  0  0  0  0  0  0
  1  2  1  0  0  0  0
  2  7  1  6  0  0  0
  2  3  1  0  0  0  0
  3  9  1  0  0  0  0
  3  8  1  0  0  0  0
  4  3  1  0  0  0  0
  4 10  1  0  0  0  0
  5 12  1  0  0  0  0
  5  4  1  0  0  0  0
  6 14  1  6  0  0  0
  6  2  1  0  0  0  0
  6  5  1  0  0  0  0
  6 15  1  0  0  0  0
 11  4  1  0  0  0  0
 13  5  1  0  0  0  0
 15 17  1  0  0  0  0
 15 16  1  0  0  0  0
 18 19  1  0  0  0  0
 18 15  1  0  0  0  0
 21 20  2  6  0  0  0
 21 22  1  0  0  0  0
 21  1  1  0  0  0  0
 22 23  1  0  0  0  0
 24 21  1  0  0  0  0
 25 27  1  0  0  0  0
 25 30  1  0  0  0  0
 25 24  1  0  0  0  0
 26 25  1  0  0  0  0
 28 33  1  0  0  0  0
 28 34  1  0  0  0  0
 29 28  2  0  0  0  0
 30 31  2  0  0  0  0
 30 29  1  0  0  0  0
 31 32  1  0  0  0  0
 32 36  1  0  0  0  0
 32 33  2  0  0  0  0
 35 29  1  0  0  0  0
M  END
>  <minimizedAffinity>
-5.07606792

$$$$

 OpenBabel03252509343D

 36 37  0  0  1  0  0  0  0  0999 V2000
   37.0670   28.8350   40.2760 O   0  0  0  0  0  0  0  0  0  0  0  0
   36.7100   28.0440   41.3670 C   0  0  1  0  0  0  0  0  0  0  0  0
   37.2120   26.6230   41.2240 C   0  0  0  0  0  0  0  0  0  0  0  0
   36.9940   26.0900   42.6170 C   0  0  0  0  0  0  0  0  0  0  0  0
   37.1040   27.2860   43.5380 C   0  0  0  0  0  0  0  0  0  0  0  0
   37.4390   28.4570   42.6270 C   0  0  1  0  0  0  0  0  0  0  0  0
   35.6450   28.0050   41.5640 H   0  0  0  0  0  0  0  0  0  0  0  0
   38.2540   26.5600   40.8690 H   0  0  0  0  0  0  0  0  0  0  0  0
   36.6230   26.0020   40.5310 H   0  0  0  0  0  0  0  0  0  0  0  0
   37.6890   25.2660   42.8780 H   0  0  0  0  0  0  0  0  0  0  0  0
   35.9480   25.7220   42.7180 H   0  0  0  0  0  0  0  0  0  0  0  0
   38.0160   27.1230   44.1680 H   0  0  0  0  0  0  0  0  0  0  0  0
   36.1980   27.4570   44.1390 H   0  0  0  0  0  0  0  0  0  0  0  0
   37.0520   29.4190   43.0500 H   0  0  0  0  0  0  0  0  0  0  0  0
   38.9160   28.6250   42.4330 C   0  0  0  0  0  0  0  0  0  0  0  0
   39.4260   28.1100   43.2600 H   0  0  0  0  0  0  0  0  0  0  0  0
   39.2950   28.2530   41.4830 H   0  0  0  0  0  0  0  0  0  0  0  0
   39.2770   30.4080   42.5160 S   0  0  0  0  0  0  0  0  0  0  0  0
   40.6550   30.6670   42.6090 H   0  0  0  0  0  0  0  0  0  0  0  0
   34.5600   29.2620   39.7840 O   0  0  0  0  0  0  0  0  0  0  0  0
   35.8670   29.9840   40.0170 P   0  0  1  0  0  0  0  0  0  0  0  0
   35.7780   31.0640   41.2950 O   0  0  0  0  0  0  0  0  0  0  0  0
   36.5220   31.0830   41.9080 H   0  0  0  0  0  0  0  0  0  0  0  0
   36.2650   30.8870   38.6540 O   0  0  0  0  0  0  0  0  0  0  0  0
   37.6150   30.8360   38.4760 C   0  0  0  0  0  0  0  0  0  0  0  0
   38.1470   29.9460   38.7910 H   0  0  0  0  0  0  0  0  0  0  0  0
   37.7820   30.8910   37.3590 H   0  0  0  0  0  0  0  0  0  0  0  0
   40.3510   33.1150   39.5750 C   0  0  0  0  0  0  0  0  0  0  0  0
   39.7010   31.9910   39.0340 C   0  0  0  0  0  0  0  0  0  0  0  0
   38.3090   32.0060   39.0390 C   0  0  0  0  0  0  0  0  0  0  0  0
   37.6510   33.0900   39.5580 N   0  0  0  0  0  0  0  0  0  0  0  0
   38.3080   34.1490   40.0680 C   0  0  0  0  0  0  0  0  0  0  0  0
   39.6400   34.1570   40.0730 N   0  0  0  0  0  0  0  0  0  0  0  0
   41.4240   33.1720   39.6040 H   0  0  0  0  0  0  0  0  0  0  0  0
   40.3160   31.1990   38.6550 H   0  0  0  0  0  0  0  0  0  0  0  0
   37.6960   34.9530   40.4520 H   0  0  0  0  0  0  0  0  0  0  0  0
  1  2  1  0  0  0  0
  2  7  1  1  0  0  0
  2  6  1  0  0  0  0
  3  2  1  0  0  0  0
  3  4  1  0  0  0  0
  4 11  1  0  0  0  0
  4 10  1  0  0  0  0
  4  5  1  0  0  0  0
  5 13  1  0  0  0  0
  5 12  1  0  0  0  0
  6 14  1  1  0  0  0
  6  5  1  0  0  0  0
  8  3  1  0  0  0  0
  9  3  1  0  0  0  0
 15 18  1  0  0  0  0
 15  6  1  0  0  0  0
 15 16  1  0  0  0  0
 17 15  1  0  0  0  0
 18 19  1  0  0  0  0
 21 20  2  6  0  0  0
 21  1  1  0  0  0  0
 21 22  1  0  0  0  0
 22 23  1  0  0  0  0
 24 21  1  0  0  0  0
 25 24  1  0  0  0  0
 25 26  1  0  0  0  0
 25 30  1  0  0  0  0
 27 25  1  0  0  0  0
 28 34  1  0  0  0  0
 28 33  1  0  0  0  0
 29 30  1  0  0  0  0
 29 28  2  0  0  0  0
 30 31  2  0  0  0  0
 31 32  1  0  0  0  0
 32 33  2  0  0  0  0
 32 36  1  0  0  0  0
 35 29  1  0  0  0  0
M  END
>  <minimizedAffinity>
-4.83926868

$$$$

 OpenBabel03252509343D

 36 37  0  0  1  0  0  0  0  0999 V2000
   38.4210   27.5450   41.8540 O   0  0  0  0  0  0  0  0  0  0  0  0
   38.4740   26.2080   42.2460 C   0  0  1  0  0  0  0  0  0  0  0  0
   38.7170   25.2830   41.0720 C   0  0  0  0  0  0  0  0  0  0  0  0
   39.0480   23.9920   41.7760 C   0  0  0  0  0  0  0  0  0  0  0  0
   39.6610   24.3900   43.1020 C   0  0  0  0  0  0  0  0  0  0  0  0
   39.7040   25.9090   43.0760 C   0  0  1  0  0  0  0  0  0  0  0  0
   37.5920   25.8590   42.7720 H   0  0  0  0  0  0  0  0  0  0  0  0
   39.5000   25.6430   40.3850 H   0  0  0  0  0  0  0  0  0  0  0  0
   37.8290   25.1050   40.4450 H   0  0  0  0  0  0  0  0  0  0  0  0
   39.6970   23.3260   41.1720 H   0  0  0  0  0  0  0  0  0  0  0  0
   38.1090   23.4490   42.0240 H   0  0  0  0  0  0  0  0  0  0  0  0
   40.7300   24.0560   43.0730 H   0  0  0  0  0  0  0  0  0  0  0  0
   39.1140   23.9920   43.9700 H   0  0  0  0  0  0  0  0  0  0  0  0
   39.6350   26.3320   44.1110 H   0  0  0  0  0  0  0  0  0  0  0  0
   40.9720   26.4350   42.4720 C   0  0  0  0  0  0  0  0  0  0  0  0
   40.9170   26.2800   41.3860 H   0  0  0  0  0  0  0  0  0  0  0  0
   41.1740   27.4850   42.6810 H   0  0  0  0  0  0  0  0  0  0  0  0
   42.3480   25.4570   43.1550 S   0  0  0  0  0  0  0  0  0  0  0  0
   43.5520   25.6840   42.4680 H   0  0  0  0  0  0  0  0  0  0  0  0
   36.2400   27.1980   43.2080 O   0  0  0  0  0  0  0  0  0  0  0  0
   36.9340   28.1890   42.3020 P   0  0  1  0  0  0  0  0  0  0  0  0
   37.1190   29.6890   43.0240 O   0  0  0  0  0  0  0  0  0  0  0  0
   37.9690   30.1300   42.9120 H   0  0  0  0  0  0  0  0  0  0  0  0
   36.0100   28.4330   40.9180 O   0  0  0  0  0  0  0  0  0  0  0  0
   35.7950   29.7700   40.7680 C   0  0  0  0  0  0  0  0  0  0  0  0
   34.7800   30.1430   40.8290 H   0  0  0  0  0  0  0  0  0  0  0  0
   36.3370   30.2680   41.6260 H   0  0  0  0  0  0  0  0  0  0  0  0
   37.4570   32.1320   38.4110 C   0  0  0  0  0  0  0  0  0  0  0  0
   36.8740   31.6250   39.5860 C   0  0  0  0  0  0  0  0  0  0  0  0
   36.4090   30.3130   39.5440 C   0  0  0  0  0  0  0  0  0  0  0  0
   36.5380   29.5930   38.3870 N   0  0  0  0  0  0  0  0  0  0  0  0
   37.1030   30.1110   37.2800 C   0  0  0  0  0  0  0  0  0  0  0  0
   37.5550   31.3630   37.2970 N   0  0  0  0  0  0  0  0  0  0  0  0
   37.8370   33.1350   38.3720 H   0  0  0  0  0  0  0  0  0  0  0  0
   36.8240   32.2780   40.4350 H   0  0  0  0  0  0  0  0  0  0  0  0
   37.1570   29.4590   36.4190 H   0  0  0  0  0  0  0  0  0  0  0  0
  1  2  1  0  0  0  0
  1 21  1  0  0  0  0
  2  7  1  1  0  0  0
  2  6  1  0  0  0  0
  3  4  1  0  0  0  0
  3  2  1  0  0  0  0
  4 11  1  0  0  0  0
  4  5  1  0  0  0  0
  5 13  1  0  0  0  0
  6  5  1  0  0  0  0
  6 14  1  1  0  0  0
  8  3  1  0  0  0  0
  9  3  1  0  0  0  0
 10  4  1  0  0  0  0
 12  5  1  0  0  0  0
 15 17  1  0  0  0  0
 15  6  1  0  0  0  0
 15 18  1  0  0  0  0
 16 15  1  0  0  0  0
 19 18  1  0  0  0  0
 21 22  1  0  0  0  0
 21 20  2  1  0  0  0
 23 22  1  0  0  0  0
 24 21  1  0  0  0  0
 25 26  1  0  0  0  0
 25 24  1  0  0  0  0
 25 27  1  0  0  0  0
 28 29  1  0  0  0  0
 29 35  1  0  0  0  0
 30 29  2  0  0  0  0
 30 25  1  0  0  0  0
 31 30  1  0  0  0  0
 32 33  1  0  0  0  0
 32 31  2  0  0  0  0
 33 28  2  0  0  0  0
 34 28  1  0  0  0  0
 36 32  1  0  0  0  0
M  END
>  <minimizedAffinity>
-4.53537798

$$$$

 OpenBabel03252509343D

 36 37  0  0  1  0  0  0  0  0999 V2000
   38.3500   29.3850   40.9030 O   0  0  0  0  0  0  0  0  0  0  0  0
   38.2610   30.7000   40.4480 C   0  0  1  0  0  0  0  0  0  0  0  0
   39.0250   30.9050   39.1570 C   0  0  0  0  0  0  0  0  0  0  0  0
   38.5180   32.2560   38.7230 C   0  0  0  0  0  0  0  0  0  0  0  0
   37.1190   32.3730   39.2900 C   0  0  0  0  0  0  0  0  0  0  0  0
   36.8620   31.0450   39.9850 C   0  0  1  0  0  0  0  0  0  0  0  0
   38.5990   31.4450   41.1590 H   0  0  0  0  0  0  0  0  0  0  0  0
   38.8660   30.0990   38.4210 H   0  0  0  0  0  0  0  0  0  0  0  0
   40.1160   30.9810   39.2840 H   0  0  0  0  0  0  0  0  0  0  0  0
   38.5630   32.4020   37.6250 H   0  0  0  0  0  0  0  0  0  0  0  0
   39.1140   33.0560   39.2170 H   0  0  0  0  0  0  0  0  0  0  0  0
   36.4200   32.3960   38.4150 H   0  0  0  0  0  0  0  0  0  0  0  0
   36.9910   33.2370   39.9590 H   0  0  0  0  0  0  0  0  0  0  0  0
   36.1470   31.1680   40.8380 H   0  0  0  0  0  0  0  0  0  0  0  0
   36.2710   30.0210   39.0620 C   0  0  0  0  0  0  0  0  0  0  0  0
   35.8380   30.5530   38.2030 H   0  0  0  0  0  0  0  0  0  0  0  0
   36.9740   29.2690   38.7080 H   0  0  0  0  0  0  0  0  0  0  0  0
   34.9480   29.1650   39.9730 S   0  0  0  0  0  0  0  0  0  0  0  0
   34.1530   28.3690   39.1310 H   0  0  0  0  0  0  0  0  0  0  0  0
   39.3970   30.6290   42.9190 O   0  0  0  0  0  0  0  0  0  0  0  0
   38.5970   29.3970   42.5660 P   0  0  1  0  0  0  0  0  0  0  0  0
   37.1420   29.3250   43.3930 O   0  0  0  0  0  0  0  0  0  0  0  0
   36.3630   29.0590   42.8920 H   0  0  0  0  0  0  0  0  0  0  0  0
   39.4620   28.0190   42.9960 O   0  0  0  0  0  0  0  0  0  0  0  0
   38.5910   27.0960   43.4940 C   0  0  0  0  0  0  0  0  0  0  0  0
   38.7650   26.7020   44.4880 H   0  0  0  0  0  0  0  0  0  0  0  0
   37.5920   27.6200   43.5620 H   0  0  0  0  0  0  0  0  0  0  0  0
   36.8830   24.4540   41.4960 C   0  0  0  0  0  0  0  0  0  0  0  0
   37.0700   25.5400   42.3690 C   0  0  0  0  0  0  0  0  0  0  0  0
   38.3810   25.9600   42.5810 C   0  0  0  0  0  0  0  0  0  0  0  0
   39.4040   25.3110   41.9440 N   0  0  0  0  0  0  0  0  0  0  0  0
   39.1870   24.2730   41.1130 C   0  0  0  0  0  0  0  0  0  0  0  0
   37.9420   23.8550   40.8950 N   0  0  0  0  0  0  0  0  0  0  0  0
   35.8990   24.0770   41.2860 H   0  0  0  0  0  0  0  0  0  0  0  0
   36.1960   25.9740   42.8140 H   0  0  0  0  0  0  0  0  0  0  0  0
   40.0630   23.8300   40.6590 H   0  0  0  0  0  0  0  0  0  0  0  0
  1 21  1  0  0  0  0
  2  1  1  0  0  0  0
  2  7  1  1  0  0  0
  3  9  1  0  0  0  0
  3  2  1  0  0  0  0
  4  3  1  0  0  0  0
  4 11  1  0  0  0  0
  4  5  1  0  0  0  0
  5 13  1  0  0  0  0
  5  6  1  0  0  0  0
  6  2  1  0  0  0  0
  6 14  1  1  0  0  0
  8  3  1  0  0  0  0
 10  4  1  0  0  0  0
 12  5  1  0  0  0  0
 15 18  1  0  0  0  0
 15  6  1  0  0  0  0
 16 15  1  0  0  0  0
 17 15  1  0  0  0  0
 19 18  1  0  0  0  0
 21 20  2  1  0  0  0
 21 24  1  0  0  0  0
 21 22  1  0  0  0  0
 23 22  1  0  0  0  0
 24 25  1  0  0  0  0
 25 27  1  0  0  0  0
 25 26  1  0  0  0  0
 28 29  1  0  0  0  0
 29 30  2  0  0  0  0
 29 35  1  0  0  0  0
 30 25  1  0  0  0  0
 31 30  1  0  0  0  0
 32 31  2  0  0  0  0
 33 32  1  0  0  0  0
 33 28  2  0  0  0  0
 34 28  1  0  0  0  0
 36 32  1  0  0  0  0
M  END
>  <minimizedAffinity>
-4.52014017

$$$$

 OpenBabel03252509343D

 36 37  0  0  1  0  0  0  0  0999 V2000
   35.8820   28.1520   41.4130 O   0  0  0  0  0  0  0  0  0  0  0  0
   37.2120   28.2520   41.8220 C   0  0  1  0  0  0  0  0  0  0  0  0
   37.3500   28.1590   43.3270 C   0  0  0  0  0  0  0  0  0  0  0  0
   38.8370   27.9670   43.4760 C   0  0  0  0  0  0  0  0  0  0  0  0
   39.2930   27.2720   42.2110 C   0  0  0  0  0  0  0  0  0  0  0  0
   38.0230   27.0440   41.4070 C   0  0  1  0  0  0  0  0  0  0  0  0
   37.7160   29.1540   41.4930 H   0  0  0  0  0  0  0  0  0  0  0  0
   36.7380   27.3590   43.7740 H   0  0  0  0  0  0  0  0  0  0  0  0
   37.0750   29.0800   43.8640 H   0  0  0  0  0  0  0  0  0  0  0  0
   39.1110   27.4230   44.4030 H   0  0  0  0  0  0  0  0  0  0  0  0
   39.3450   28.9580   43.4790 H   0  0  0  0  0  0  0  0  0  0  0  0
   39.6450   26.2530   42.5160 H   0  0  0  0  0  0  0  0  0  0  0  0
   40.0560   27.8370   41.6550 H   0  0  0  0  0  0  0  0  0  0  0  0
   38.2390   27.0290   40.3080 H   0  0  0  0  0  0  0  0  0  0  0  0
   37.3620   25.7390   41.7400 C   0  0  0  0  0  0  0  0  0  0  0  0
   37.1480   25.7350   42.8170 H   0  0  0  0  0  0  0  0  0  0  0  0
   36.4460   25.5400   41.1850 H   0  0  0  0  0  0  0  0  0  0  0  0
   38.5470   24.4130   41.3530 S   0  0  0  0  0  0  0  0  0  0  0  0
   38.1390   23.1700   41.8660 H   0  0  0  0  0  0  0  0  0  0  0  0
   34.1180   29.2660   39.8780 O   0  0  0  0  0  0  0  0  0  0  0  0
   35.5120   29.4640   40.4280 P   0  0  1  0  0  0  0  0  0  0  0  0
   35.6670   30.9080   41.2620 O   0  0  0  0  0  0  0  0  0  0  0  0
   36.1510   30.8860   42.0960 H   0  0  0  0  0  0  0  0  0  0  0  0
   36.6180   29.5200   39.1610 O   0  0  0  0  0  0  0  0  0  0  0  0
   36.3810   28.4690   38.3280 C   0  0  0  0  0  0  0  0  0  0  0  0
   37.1540   27.7200   38.2050 H   0  0  0  0  0  0  0  0  0  0  0  0
   35.5070   27.9090   38.7790 H   0  0  0  0  0  0  0  0  0  0  0  0
   36.3940   30.0110   34.9350 C   0  0  0  0  0  0  0  0  0  0  0  0
   36.8330   29.6140   36.2110 C   0  0  0  0  0  0  0  0  0  0  0  0
   35.9340   28.8900   36.9900 C   0  0  0  0  0  0  0  0  0  0  0  0
   34.6920   28.6040   36.4900 N   0  0  0  0  0  0  0  0  0  0  0  0
   34.3050   29.0000   35.2620 C   0  0  0  0  0  0  0  0  0  0  0  0
   35.1490   29.6930   34.4990 N   0  0  0  0  0  0  0  0  0  0  0  0
   37.0340   30.5710   34.2800 H   0  0  0  0  0  0  0  0  0  0  0  0
   37.8270   29.8930   36.5010 H   0  0  0  0  0  0  0  0  0  0  0  0
   33.3050   28.7230   34.9610 H   0  0  0  0  0  0  0  0  0  0  0  0
  1  2  1  0  0  0  0
  2  7  1  6  0  0  0
  2  3  1  0  0  0  0
  3  4  1  0  0  0  0
  3  8  1  0  0  0  0
  3  9  1  0  0  0  0
  4 11  1  0  0  0  0
  4 10  1  0  0  0  0
  5 12  1  0  0  0  0
  5  4  1  0  0  0  0
  6 14  1  6  0  0  0
  6 15  1  0  0  0  0
  6  2  1  0  0  0  0
  6  5  1  0  0  0  0
 13  5  1  0  0  0  0
 15 16  1  0  0  0  0
 17 15  1  0  0  0  0
 18 15  1  0  0  0  0
 18 19  1  0  0  0  0
 21 20  2  6  0  0  0
 21 22  1  0  0  0  0
 21  1  1  0  0  0  0
 22 23  1  0  0  0  0
 24 21  1  0  0  0  0
 25 27  1  0  0  0  0
 25 24  1  0  0  0  0
 26 25  1  0  0  0  0
 28 29  1  0  0  0  0
 29 35  1  0  0  0  0
 29 30  2  0  0  0  0
 30 25  1  0  0  0  0
 31 30  1  0  0  0  0
 32 31  2  0  0  0  0
 33 28  2  0  0  0  0
 33 32  1  0  0  0  0
 34 28  1  0  0  0  0
 36 32  1  0  0  0  0
M  END
>  <minimizedAffinity>
-4.35133171

$$$$

 OpenBabel03252509343D

 36 37  0  0  1  0  0  0  0  0999 V2000
   37.4280   29.5970   39.6910 O   0  0  0  0  0  0  0  0  0  0  0  0
   36.1870   29.4270   39.0790 C   0  0  1  0  0  0  0  0  0  0  0  0
   36.2500   29.6860   37.5880 C   0  0  0  0  0  0  0  0  0  0  0  0
   34.9210   29.1370   37.1350 C   0  0  0  0  0  0  0  0  0  0  0  0
   34.5680   28.0450   38.1230 C   0  0  0  0  0  0  0  0  0  0  0  0
   35.7500   27.9780   39.0770 C   0  0  1  0  0  0  0  0  0  0  0  0
   35.3950   30.0410   39.4930 H   0  0  0  0  0  0  0  0  0  0  0  0
   37.1250   29.2260   37.1010 H   0  0  0  0  0  0  0  0  0  0  0  0
   36.2830   30.7520   37.3150 H   0  0  0  0  0  0  0  0  0  0  0  0
   34.9330   28.7920   36.0820 H   0  0  0  0  0  0  0  0  0  0  0  0
   34.1350   29.9170   37.2490 H   0  0  0  0  0  0  0  0  0  0  0  0
   34.5850   27.0800   37.5530 H   0  0  0  0  0  0  0  0  0  0  0  0
   33.6110   28.2180   38.6380 H   0  0  0  0  0  0  0  0  0  0  0  0
   35.4290   27.6260   40.0910 H   0  0  0  0  0  0  0  0  0  0  0  0
   36.8150   27.0350   38.6030 C   0  0  0  0  0  0  0  0  0  0  0  0
   37.1830   27.4020   37.6340 H   0  0  0  0  0  0  0  0  0  0  0  0
   37.6530   26.9150   39.2890 H   0  0  0  0  0  0  0  0  0  0  0  0
   36.0390   25.4040   38.3780 S   0  0  0  0  0  0  0  0  0  0  0  0
   36.8750   24.5080   37.6910 H   0  0  0  0  0  0  0  0  0  0  0  0
   38.3140   31.3240   41.4050 O   0  0  0  0  0  0  0  0  0  0  0  0
   37.2050   30.3200   41.1920 P   0  0  1  0  0  0  0  0  0  0  0  0
   35.6860   31.0170   41.3060 O   0  0  0  0  0  0  0  0  0  0  0  0
   35.0300   30.7570   40.6480 H   0  0  0  0  0  0  0  0  0  0  0  0
   37.2780   29.1340   42.3820 O   0  0  0  0  0  0  0  0  0  0  0  0
   38.4730   28.4870   42.2800 C   0  0  0  0  0  0  0  0  0  0  0  0
   39.2290   28.8940   41.6190 H   0  0  0  0  0  0  0  0  0  0  0  0
   38.9370   28.5320   43.3110 H   0  0  0  0  0  0  0  0  0  0  0  0
   37.0240   25.0580   42.1050 C   0  0  0  0  0  0  0  0  0  0  0  0
   37.1540   26.4260   42.4010 C   0  0  0  0  0  0  0  0  0  0  0  0
   38.3230   27.0540   41.9760 C   0  0  0  0  0  0  0  0  0  0  0  0
   39.2690   26.3270   41.3050 N   0  0  0  0  0  0  0  0  0  0  0  0
   39.1100   25.0170   41.0380 C   0  0  0  0  0  0  0  0  0  0  0  0
   38.0000   24.3950   41.4340 N   0  0  0  0  0  0  0  0  0  0  0  0
   36.1490   24.5100   42.4020 H   0  0  0  0  0  0  0  0  0  0  0  0
   36.3500   26.8970   42.9330 H   0  0  0  0  0  0  0  0  0  0  0  0
   39.9150   24.5350   40.5020 H   0  0  0  0  0  0  0  0  0  0  0  0
  1 21  1  0  0  0  0
  2  7  1  1  0  0  0
  2  1  1  0  0  0  0
  3  2  1  0  0  0  0
  4 11  1  0  0  0  0
  4  3  1  0  0  0  0
  4  5  1  0  0  0  0
  5 13  1  0  0  0  0
  5  6  1  0  0  0  0
  6  2  1  0  0  0  0
  6 14  1  1  0  0  0
  8  3  1  0  0  0  0
  9  3  1  0  0  0  0
 10  4  1  0  0  0  0
 12  5  1  0  0  0  0
 15  6  1  0  0  0  0
 15 17  1  0  0  0  0
 16 15  1  0  0  0  0
 18 15  1  0  0  0  0
 19 18  1  0  0  0  0
 21 22  1  0  0  0  0
 21 20  2  1  0  0  0
 21 24  1  0  0  0  0
 23 22  1  0  0  0  0
 25 24  1  0  0  0  0
 25 27  1  0  0  0  0
 26 25  1  0  0  0  0
 28 29  1  0  0  0  0
 28 34  1  0  0  0  0
 29 35  1  0  0  0  0
 30 25  1  0  0  0  0
 30 29  2  0  0  0  0
 31 30  1  0  0  0  0
 32 31  2  0  0  0  0
 32 33  1  0  0  0  0
 33 28  2  0  0  0  0
 36 32  1  0  0  0  0
M  END
>  <minimizedAffinity>
-4.34667587

$$$$

 OpenBabel03252509343D

 36 37  0  0  1  0  0  0  0  0999 V2000
   38.8160   30.0500   41.0420 O   0  0  0  0  0  0  0  0  0  0  0  0
   37.9510   29.4250   41.9390 C   0  0  1  0  0  0  0  0  0  0  0  0
   37.2460   28.2400   41.3140 C   0  0  0  0  0  0  0  0  0  0  0  0
   36.6540   27.5730   42.5300 C   0  0  0  0  0  0  0  0  0  0  0  0
   37.5760   27.9180   43.6800 C   0  0  0  0  0  0  0  0  0  0  0  0
   38.7000   28.7300   43.0550 C   0  0  1  0  0  0  0  0  0  0  0  0
   37.1970   30.0780   42.3640 H   0  0  0  0  0  0  0  0  0  0  0  0
   37.9160   27.5950   40.7200 H   0  0  0  0  0  0  0  0  0  0  0  0
   36.4170   28.5090   40.6420 H   0  0  0  0  0  0  0  0  0  0  0  0
   36.5050   26.4830   42.3940 H   0  0  0  0  0  0  0  0  0  0  0  0
   35.6740   28.0420   42.7740 H   0  0  0  0  0  0  0  0  0  0  0  0
   38.0470   26.9560   44.0110 H   0  0  0  0  0  0  0  0  0  0  0  0
   37.0690   28.4480   44.5000 H   0  0  0  0  0  0  0  0  0  0  0  0
   39.1340   29.4510   43.7940 H   0  0  0  0  0  0  0  0  0  0  0  0
   39.8270   27.8680   42.5700 C   0  0  0  0  0  0  0  0  0  0  0  0
   39.5800   27.5300   41.5550 H   0  0  0  0  0  0  0  0  0  0  0  0
   40.8010   28.3550   42.5660 H   0  0  0  0  0  0  0  0  0  0  0  0
   39.9290   26.4280   43.6800 S   0  0  0  0  0  0  0  0  0  0  0  0
   40.7740   25.4260   43.1730 H   0  0  0  0  0  0  0  0  0  0  0  0
   36.7250   31.5790   41.0270 O   0  0  0  0  0  0  0  0  0  0  0  0
   38.1800   31.5480   40.6190 P   0  0  1  0  0  0  0  0  0  0  0  0
   39.0610   32.7940   41.3120 O   0  0  0  0  0  0  0  0  0  0  0  0
   39.9300   32.5760   41.6660 H   0  0  0  0  0  0  0  0  0  0  0  0
   38.3050   31.7410   38.9530 O   0  0  0  0  0  0  0  0  0  0  0  0
   39.3300   30.9650   38.5000 C   0  0  0  0  0  0  0  0  0  0  0  0
   39.6650   30.1370   39.1140 H   0  0  0  0  0  0  0  0  0  0  0  0
   38.9550   30.4850   37.5470 H   0  0  0  0  0  0  0  0  0  0  0  0
   42.5970   31.8820   36.9580 C   0  0  0  0  0  0  0  0  0  0  0  0
   41.4730   31.1200   37.3240 C   0  0  0  0  0  0  0  0  0  0  0  0
   40.5110   31.7520   38.1090 C   0  0  0  0  0  0  0  0  0  0  0  0
   40.7000   33.0560   38.4800 N   0  0  0  0  0  0  0  0  0  0  0  0
   41.7890   33.7560   38.1100 C   0  0  0  0  0  0  0  0  0  0  0  0
   42.7220   33.1730   37.3590 N   0  0  0  0  0  0  0  0  0  0  0  0
   43.3770   31.4600   36.3530 H   0  0  0  0  0  0  0  0  0  0  0  0
   41.4280   30.1060   36.9770 H   0  0  0  0  0  0  0  0  0  0  0  0
   41.8430   34.7790   38.4540 H   0  0  0  0  0  0  0  0  0  0  0  0
  1  2  1  0  0  0  0
  2  7  1  1  0  0  0
  2  6  1  0  0  0  0
  3  2  1  0  0  0  0
  3  4  1  0  0  0  0
  4 11  1  0  0  0  0
  4  5  1  0  0  0  0
  5 12  1  0  0  0  0
  5 13  1  0  0  0  0
  6  5  1  0  0  0  0
  6 14  1  1  0  0  0
  8  3  1  0  0  0  0
  9  3  1  0  0  0  0
 10  4  1  0  0  0  0
 15  6  1  0  0  0  0
 15 18  1  0  0  0  0
 16 15  1  0  0  0  0
 17 15  1  0  0  0  0
 19 18  1  0  0  0  0
 21 20  2  1  0  0  0
 21  1  1  0  0  0  0
 21 22  1  0  0  0  0
 22 23  1  0  0  0  0
 24 21  1  0  0  0  0
 25 24  1  0  0  0  0
 25 26  1  0  0  0  0
 27 25  1  0  0  0  0
 28 29  2  0  0  0  0
 28 33  1  0  0  0  0
 29 30  1  0  0  0  0
 30 31  2  0  0  0  0
 30 25  1  0  0  0  0
 32 36  1  0  0  0  0
 32 31  1  0  0  0  0
 33 32  2  0  0  0  0
 34 28  1  0  0  0  0
 35 29  1  0  0  0  0
M  END
>  <minimizedAffinity>
-4.32737684

$$$$

 OpenBabel03252509343D

 36 37  0  0  1  0  0  0  0  0999 V2000
   36.6130   30.2350   41.1380 O   0  0  0  0  0  0  0  0  0  0  0  0
   36.8950   29.8220   39.8370 C   0  0  1  0  0  0  0  0  0  0  0  0
   35.6430   29.7080   38.9940 C   0  0  0  0  0  0  0  0  0  0  0  0
   36.2280   29.5770   37.6110 C   0  0  0  0  0  0  0  0  0  0  0  0
   37.5520   30.3090   37.6520 C   0  0  0  0  0  0  0  0  0  0  0  0
   37.6440   30.8810   39.0570 C   0  0  1  0  0  0  0  0  0  0  0  0
   37.4310   28.8820   39.7710 H   0  0  0  0  0  0  0  0  0  0  0  0
   34.9520   30.5590   39.1190 H   0  0  0  0  0  0  0  0  0  0  0  0
   35.0440   28.8060   39.1920 H   0  0  0  0  0  0  0  0  0  0  0  0
   35.5450   29.9430   36.8170 H   0  0  0  0  0  0  0  0  0  0  0  0
   36.4750   28.5110   37.4080 H   0  0  0  0  0  0  0  0  0  0  0  0
   37.4500   31.1930   36.9710 H   0  0  0  0  0  0  0  0  0  0  0  0
   38.4100   29.6700   37.3930 H   0  0  0  0  0  0  0  0  0  0  0  0
   38.7110   30.9800   39.3830 H   0  0  0  0  0  0  0  0  0  0  0  0
   37.0270   32.2450   39.1610 C   0  0  0  0  0  0  0  0  0  0  0  0
   36.8570   32.6160   38.1410 H   0  0  0  0  0  0  0  0  0  0  0  0
   36.0950   32.2790   39.7220 H   0  0  0  0  0  0  0  0  0  0  0  0
   38.2260   33.3230   40.0050 S   0  0  0  0  0  0  0  0  0  0  0  0
   37.8680   34.6790   39.9270 H   0  0  0  0  0  0  0  0  0  0  0  0
   38.9030   30.3450   42.3430 O   0  0  0  0  0  0  0  0  0  0  0  0
   37.6750   29.4760   42.1970 P   0  0  1  0  0  0  0  0  0  0  0  0
   36.9390   29.1640   43.6700 O   0  0  0  0  0  0  0  0  0  0  0  0
   35.9770   29.2190   43.7020 H   0  0  0  0  0  0  0  0  0  0  0  0
   38.1110   27.9840   41.5530 O   0  0  0  0  0  0  0  0  0  0  0  0
   37.3860   27.0130   42.1750 C   0  0  0  0  0  0  0  0  0  0  0  0
   37.6750   26.7080   43.1730 H   0  0  0  0  0  0  0  0  0  0  0  0
   36.3430   27.4340   42.2930 H   0  0  0  0  0  0  0  0  0  0  0  0
   36.5330   24.7850   39.3110 C   0  0  0  0  0  0  0  0  0  0  0  0
   36.6740   25.9500   40.0860 C   0  0  0  0  0  0  0  0  0  0  0  0
   37.2330   25.8010   41.3530 C   0  0  0  0  0  0  0  0  0  0  0  0
   37.6110   24.5550   41.7760 N   0  0  0  0  0  0  0  0  0  0  0  0
   37.4610   23.4600   41.0060 C   0  0  0  0  0  0  0  0  0  0  0  0
   36.9290   23.5790   39.7910 N   0  0  0  0  0  0  0  0  0  0  0  0
   36.1100   24.8260   38.3240 H   0  0  0  0  0  0  0  0  0  0  0  0
   36.3440   26.8750   39.6540 H   0  0  0  0  0  0  0  0  0  0  0  0
   37.7910   22.5240   41.4330 H   0  0  0  0  0  0  0  0  0  0  0  0
  1 21  1  0  0  0  0
  2  7  1  1  0  0  0
  2  1  1  0  0  0  0
  3  8  1  0  0  0  0
  3  9  1  0  0  0  0
  3  2  1  0  0  0  0
  4  5  1  0  0  0  0
  4  3  1  0  0  0  0
  5  6  1  0  0  0  0
  6 15  1  0  0  0  0
  6 14  1  1  0  0  0
  6  2  1  0  0  0  0
 10  4  1  0  0  0  0
 11  4  1  0  0  0  0
 12  5  1  0  0  0  0
 13  5  1  0  0  0  0
 15 17  1  0  0  0  0
 15 18  1  0  0  0  0
 16 15  1  0  0  0  0
 19 18  1  0  0  0  0
 21 20  2  1  0  0  0
 21 22  1  0  0  0  0
 22 23  1  0  0  0  0
 24 25  1  0  0  0  0
 24 21  1  0  0  0  0
 25 27  1  0  0  0  0
 25 26  1  0  0  0  0
 28 33  2  0  0  0  0
 28 29  1  0  0  0  0
 29 30  2  0  0  0  0
 30 31  1  0  0  0  0
 30 25  1  0  0  0  0
 32 36  1  0  0  0  0
 32 31  2  0  0  0  0
 33 32  1  0  0  0  0
 34 28  1  0  0  0  0
 35 29  1  0  0  0  0
M  END
>  <minimizedAffinity>
-4.3179698

$$$$
