
 OpenBabel03252507023D

 31 32  0  0  0  0  0  0  0  0999 V2000
   44.9510   34.1830   40.6440 C   0  0  0  0  0  0  0  0  0  0  0  0
   44.1830   34.5170   41.4160 H   0  0  0  0  0  0  0  0  0  0  0  0
   44.8920   35.0260   39.9140 H   0  0  0  0  0  0  0  0  0  0  0  0
   46.2040   33.9770   41.0370 N   0  0  0  0  0  0  0  0  0  0  0  0
   47.2360   33.2590   40.3790 C   0  0  0  0  0  0  0  0  0  0  0  0
   48.0460   34.4600   39.8330 C   0  0  0  0  0  0  0  0  0  0  0  0
   48.5660   35.3300   40.8900 C   0  0  0  0  0  0  0  0  0  0  0  0
   47.8950   35.3370   42.1880 C   0  0  0  0  0  0  0  0  0  0  0  0
   46.5860   34.6190   42.3000 C   0  0  0  0  0  0  0  0  0  0  0  0
   47.8650   32.5870   40.9310 H   0  0  0  0  0  0  0  0  0  0  0  0
   46.8630   32.7260   39.4780 H   0  0  0  0  0  0  0  0  0  0  0  0
   48.8730   34.0160   39.2090 H   0  0  0  0  0  0  0  0  0  0  0  0
   47.3810   35.0330   39.1530 H   0  0  0  0  0  0  0  0  0  0  0  0
   49.6480   35.0710   41.0710 H   0  0  0  0  0  0  0  0  0  0  0  0
   48.6140   36.3860   40.4980 H   0  0  0  0  0  0  0  0  0  0  0  0
   48.2220   35.8150   43.0730 H   0  0  0  0  0  0  0  0  0  0  0  0
   45.6470   34.6280   43.8000 S   0  0  0  0  0  0  0  0  0  0  0  0
   45.2780   35.9550   44.1350 H   0  0  0  0  0  0  0  0  0  0  0  0
   44.3420   32.9910   39.9720 C   0  0  0  0  0  0  0  0  0  0  0  0
   44.2510   32.1470   40.6980 H   0  0  0  0  0  0  0  0  0  0  0  0
   44.9400   32.6270   39.1010 H   0  0  0  0  0  0  0  0  0  0  0  0
   42.9770   33.3850   39.5370 C   0  0  0  0  0  0  0  0  0  0  0  0
   42.3390   32.7340   38.5000 C   0  0  0  0  0  0  0  0  0  0  0  0
   41.0550   33.1760   38.1420 C   0  0  0  0  0  0  0  0  0  0  0  0
   40.5140   34.2180   38.8350 N   0  0  0  0  0  0  0  0  0  0  0  0
   41.1720   34.8150   39.8310 C   0  0  0  0  0  0  0  0  0  0  0  0
   42.3930   34.3920   40.1700 N   0  0  0  0  0  0  0  0  0  0  0  0
   42.8020   31.9110   37.9740 H   0  0  0  0  0  0  0  0  0  0  0  0
   40.5090   32.7080   37.3410 H   0  0  0  0  0  0  0  0  0  0  0  0
   40.3780   36.1720   40.6790 S   0  0  0  0  0  0  0  0  0  0  0  0
   41.2460   36.8370   41.5660 H   0  0  0  0  0  0  0  0  0  0  0  0
  1  4  1  0  0  0  0
  1  2  1  0  0  0  0
  3  1  1  0  0  0  0
  4  9  1  0  0  0  0
  5 10  1  0  0  0  0
  5  4  1  0  0  0  0
  6  5  1  0  0  0  0
  6  7  1  0  0  0  0
  7 14  1  0  0  0  0
  7  8  1  0  0  0  0
  8  9  2  0  0  0  0
  8 16  1  0  0  0  0
  9 17  1  0  0  0  0
 11  5  1  0  0  0  0
 12  6  1  0  0  0  0
 13  6  1  0  0  0  0
 15  7  1  0  0  0  0
 17 18  1  0  0  0  0
 19  1  1  0  0  0  0
 19 20  1  0  0  0  0
 21 19  1  0  0  0  0
 22 19  1  0  0  0  0
 22 27  1  0  0  0  0
 23 22  2  0  0  0  0
 24 23  1  0  0  0  0
 24 25  2  0  0  0  0
 25 26  1  0  0  0  0
 26 27  2  0  0  0  0
 26 30  1  0  0  0  0
 28 23  1  0  0  0  0
 29 24  1  0  0  0  0
 30 31  1  0  0  0  0
M  END
>  <minimizedAffinity>
-4.27355433

>  <minimizedRMSD>
1.32086194

$$$$
