
 OpenBabel03252508433D

 24 25  0  0  0  0  0  0  0  0999 V2000
   36.8900   26.9320   40.7830 C   0  0  0  0  0  0  0  0  0  0  0  0
   37.1520   26.3350   41.9960 C   0  0  0  0  0  0  0  0  0  0  0  0
   37.0590   24.9640   42.1140 C   0  0  0  0  0  0  0  0  0  0  0  0
   36.7030   24.2310   40.9990 C   0  0  0  0  0  0  0  0  0  0  0  0
   36.4360   24.7840   39.7790 C   0  0  0  0  0  0  0  0  0  0  0  0
   36.5460   26.1790   39.7220 C   0  0  0  0  0  0  0  0  0  0  0  0
   37.2640   24.4620   43.0720 H   0  0  0  0  0  0  0  0  0  0  0  0
   36.6400   23.1450   41.1310 H   0  0  0  0  0  0  0  0  0  0  0  0
   36.1590   24.1850   38.9220 H   0  0  0  0  0  0  0  0  0  0  0  0
   36.3470   26.6740   38.7810 H   0  0  0  0  0  0  0  0  0  0  0  0
   36.1600   30.6410   40.8770 C   0  0  0  0  0  0  0  0  0  0  0  0
   35.9270   29.2580   40.9370 C   0  0  0  0  0  0  0  0  0  0  0  0
   37.0060   28.3890   40.7450 C   0  0  0  0  0  0  0  0  0  0  0  0
   38.1930   28.9520   40.5140 N   0  0  0  0  0  0  0  0  0  0  0  0
   38.4160   30.2840   40.4570 C   0  0  0  0  0  0  0  0  0  0  0  0
   37.3940   31.1300   40.6390 N   0  0  0  0  0  0  0  0  0  0  0  0
   35.3090   31.2950   41.0300 H   0  0  0  0  0  0  0  0  0  0  0  0
   34.9650   28.8500   41.1220 H   0  0  0  0  0  0  0  0  0  0  0  0
   39.4610   30.5720   40.2560 H   0  0  0  0  0  0  0  0  0  0  0  0
   37.5320   27.1490   43.1850 C   0  0  0  0  0  0  0  0  0  0  0  0
   36.8860   26.9330   44.0620 H   0  0  0  0  0  0  0  0  0  0  0  0
   37.3470   28.2180   42.9300 H   0  0  0  0  0  0  0  0  0  0  0  0
   39.2860   26.9730   43.6140 S   0  0  0  0  0  0  0  0  0  0  0  0
   40.0010   26.4040   42.5470 H   0  0  0  0  0  0  0  0  0  0  0  0
  1  2  1  0  0  0  0
  2  3  2  0  0  0  0
  2 20  1  0  0  0  0
  3  7  1  0  0  0  0
  4  8  1  0  0  0  0
  4  3  1  0  0  0  0
  5  4  2  0  0  0  0
  6  5  1  0  0  0  0
  6  1  2  0  0  0  0
  9  5  1  0  0  0  0
 10  6  1  0  0  0  0
 11 12  1  0  0  0  0
 11 17  1  0  0  0  0
 12 18  1  0  0  0  0
 13  1  1  0  0  0  0
 13 12  2  0  0  0  0
 14 13  1  0  0  0  0
 15 14  2  0  0  0  0
 15 16  1  0  0  0  0
 16 11  2  0  0  0  0
 19 15  1  0  0  0  0
 20 23  1  0  0  0  0
 20 21  1  0  0  0  0
 22 20  1  0  0  0  0
 24 23  1  0  0  0  0
M  END
>  <minimizedAffinity>
-4.29704285

$$$$

 OpenBabel03252508433D

 24 25  0  0  0  0  0  0  0  0999 V2000
   36.8660   30.8170   38.8790 C   0  0  0  0  0  0  0  0  0  0  0  0
   36.1470   30.1560   39.8510 C   0  0  0  0  0  0  0  0  0  0  0  0
   35.2980   29.1310   39.4890 C   0  0  0  0  0  0  0  0  0  0  0  0
   35.1980   28.8010   38.1520 C   0  0  0  0  0  0  0  0  0  0  0  0
   35.8920   29.4310   37.1590 C   0  0  0  0  0  0  0  0  0  0  0  0
   36.7370   30.4630   37.5870 C   0  0  0  0  0  0  0  0  0  0  0  0
   34.7130   28.5860   40.2460 H   0  0  0  0  0  0  0  0  0  0  0  0
   34.5140   27.9820   37.9030 H   0  0  0  0  0  0  0  0  0  0  0  0
   35.7940   29.1520   36.1180 H   0  0  0  0  0  0  0  0  0  0  0  0
   37.3140   30.9980   36.8450 H   0  0  0  0  0  0  0  0  0  0  0  0
   38.2410   34.1610   39.9890 C   0  0  0  0  0  0  0  0  0  0  0  0
   37.3100   33.2120   39.5370 C   0  0  0  0  0  0  0  0  0  0  0  0
   37.7390   31.8940   39.3460 C   0  0  0  0  0  0  0  0  0  0  0  0
   39.0200   31.6370   39.6120 N   0  0  0  0  0  0  0  0  0  0  0  0
   39.9150   32.5530   40.0470 C   0  0  0  0  0  0  0  0  0  0  0  0
   39.5210   33.8200   40.2350 N   0  0  0  0  0  0  0  0  0  0  0  0
   37.8850   35.1760   40.1300 H   0  0  0  0  0  0  0  0  0  0  0  0
   36.2970   33.4570   39.3360 H   0  0  0  0  0  0  0  0  0  0  0  0
   40.9320   32.1650   40.2160 H   0  0  0  0  0  0  0  0  0  0  0  0
   36.2710   30.5340   41.2870 C   0  0  0  0  0  0  0  0  0  0  0  0
   35.2830   30.5950   41.7880 H   0  0  0  0  0  0  0  0  0  0  0  0
   36.6950   31.5630   41.3250 H   0  0  0  0  0  0  0  0  0  0  0  0
   37.3910   29.4350   42.1980 S   0  0  0  0  0  0  0  0  0  0  0  0
   38.1830   28.6880   41.3080 H   0  0  0  0  0  0  0  0  0  0  0  0
  1 13  1  0  0  0  0
  1  2  1  0  0  0  0
  2 20  1  0  0  0  0
  3  2  2  0  0  0  0
  3  7  1  0  0  0  0
  4  3  1  0  0  0  0
  5  6  1  0  0  0  0
  5  4  2  0  0  0  0
  6  1  2  0  0  0  0
  8  4  1  0  0  0  0
  9  5  1  0  0  0  0
 10  6  1  0  0  0  0
 11 17  1  0  0  0  0
 11 16  1  0  0  0  0
 12 11  2  0  0  0  0
 13 12  1  0  0  0  0
 13 14  2  0  0  0  0
 14 15  1  0  0  0  0
 15 19  1  0  0  0  0
 15 16  2  0  0  0  0
 18 12  1  0  0  0  0
 20 22  1  0  0  0  0
 20 21  1  0  0  0  0
 20 23  1  0  0  0  0
 24 23  1  0  0  0  0
M  END
>  <minimizedAffinity>
-4.22711277

$$$$

 OpenBabel03252508433D

 24 25  0  0  0  0  0  0  0  0999 V2000
   36.5980   28.4440   41.3480 C   0  0  0  0  0  0  0  0  0  0  0  0
   37.5910   29.3970   41.3500 C   0  0  0  0  0  0  0  0  0  0  0  0
   38.3470   29.5890   42.4880 C   0  0  0  0  0  0  0  0  0  0  0  0
   38.0770   28.8100   43.5960 C   0  0  0  0  0  0  0  0  0  0  0  0
   37.1030   27.8540   43.6340 C   0  0  0  0  0  0  0  0  0  0  0  0
   36.3690   27.7060   42.4510 C   0  0  0  0  0  0  0  0  0  0  0  0
   39.1480   30.3440   42.5160 H   0  0  0  0  0  0  0  0  0  0  0  0
   38.6990   28.9910   44.4800 H   0  0  0  0  0  0  0  0  0  0  0  0
   36.9130   27.2580   44.5170 H   0  0  0  0  0  0  0  0  0  0  0  0
   35.5830   26.9640   42.4210 H   0  0  0  0  0  0  0  0  0  0  0  0
   34.0950   28.8860   38.5480 C   0  0  0  0  0  0  0  0  0  0  0  0
   34.7450   29.1120   39.7710 C   0  0  0  0  0  0  0  0  0  0  0  0
   35.8410   28.3070   40.1040 C   0  0  0  0  0  0  0  0  0  0  0  0
   36.1870   27.3720   39.2190 N   0  0  0  0  0  0  0  0  0  0  0  0
   35.5600   27.1580   38.0400 C   0  0  0  0  0  0  0  0  0  0  0  0
   34.5090   27.9190   37.7060 N   0  0  0  0  0  0  0  0  0  0  0  0
   33.2490   29.5230   38.3110 H   0  0  0  0  0  0  0  0  0  0  0  0
   34.4370   29.8670   40.4510 H   0  0  0  0  0  0  0  0  0  0  0  0
   35.9820   26.3420   37.4320 H   0  0  0  0  0  0  0  0  0  0  0  0
   37.8610   30.2270   40.1420 C   0  0  0  0  0  0  0  0  0  0  0  0
   37.4200   29.7840   39.2250 H   0  0  0  0  0  0  0  0  0  0  0  0
   38.9620   30.2280   39.9780 H   0  0  0  0  0  0  0  0  0  0  0  0
   37.3260   31.9480   40.3490 S   0  0  0  0  0  0  0  0  0  0  0  0
   37.1030   32.2370   41.7070 H   0  0  0  0  0  0  0  0  0  0  0  0
  1  2  2  0  0  0  0
  1  6  1  0  0  0  0
  2  3  1  0  0  0  0
  3  7  1  0  0  0  0
  3  4  2  0  0  0  0
  4  5  1  0  0  0  0
  4  8  1  0  0  0  0
  5  9  1  0  0  0  0
  6  5  2  0  0  0  0
 10  6  1  0  0  0  0
 11 12  1  0  0  0  0
 12 13  2  0  0  0  0
 12 18  1  0  0  0  0
 13  1  1  0  0  0  0
 14 13  1  0  0  0  0
 15 14  2  0  0  0  0
 16 15  1  0  0  0  0
 16 11  2  0  0  0  0
 17 11  1  0  0  0  0
 19 15  1  0  0  0  0
 20 23  1  0  0  0  0
 20  2  1  0  0  0  0
 21 20  1  0  0  0  0
 22 20  1  0  0  0  0
 23 24  1  0  0  0  0
M  END
>  <minimizedAffinity>
-4.18128204

$$$$

 OpenBabel03252508433D

 24 25  0  0  0  0  0  0  0  0999 V2000
   37.6170   29.3810   41.6600 C   0  0  0  0  0  0  0  0  0  0  0  0
   37.2140   28.3100   40.8950 C   0  0  0  0  0  0  0  0  0  0  0  0
   36.8940   27.1170   41.5100 C   0  0  0  0  0  0  0  0  0  0  0  0
   36.9910   27.0400   42.8850 C   0  0  0  0  0  0  0  0  0  0  0  0
   37.3860   28.0780   43.6790 C   0  0  0  0  0  0  0  0  0  0  0  0
   37.6980   29.2620   42.9980 C   0  0  0  0  0  0  0  0  0  0  0  0
   36.5680   26.2460   40.9210 H   0  0  0  0  0  0  0  0  0  0  0  0
   36.7290   26.0770   43.3370 H   0  0  0  0  0  0  0  0  0  0  0  0
   37.4540   27.9900   44.7550 H   0  0  0  0  0  0  0  0  0  0  0  0
   38.0170   30.1200   43.5740 H   0  0  0  0  0  0  0  0  0  0  0  0
   37.4250   32.7130   39.8810 C   0  0  0  0  0  0  0  0  0  0  0  0
   36.9940   31.5770   40.5840 C   0  0  0  0  0  0  0  0  0  0  0  0
   37.9420   30.6070   40.9300 C   0  0  0  0  0  0  0  0  0  0  0  0
   39.2010   30.8400   40.5580 N   0  0  0  0  0  0  0  0  0  0  0  0
   39.6130   31.9370   39.8820 C   0  0  0  0  0  0  0  0  0  0  0  0
   38.7190   32.8750   39.5420 N   0  0  0  0  0  0  0  0  0  0  0  0
   36.6730   33.4520   39.6250 H   0  0  0  0  0  0  0  0  0  0  0  0
   35.9810   31.4270   40.8610 H   0  0  0  0  0  0  0  0  0  0  0  0
   40.6920   31.9650   39.6570 H   0  0  0  0  0  0  0  0  0  0  0  0
   37.1200   28.4190   39.4120 C   0  0  0  0  0  0  0  0  0  0  0  0
   37.6600   27.5960   38.8980 H   0  0  0  0  0  0  0  0  0  0  0  0
   37.6410   29.3560   39.1120 H   0  0  0  0  0  0  0  0  0  0  0  0
   35.4040   28.5260   38.8320 S   0  0  0  0  0  0  0  0  0  0  0  0
   34.5420   28.8460   39.8950 H   0  0  0  0  0  0  0  0  0  0  0  0
  1  6  1  0  0  0  0
  2  3  1  0  0  0  0
  2  1  2  0  0  0  0
  3  4  2  0  0  0  0
  4  8  1  0  0  0  0
  4  5  1  0  0  0  0
  5  9  1  0  0  0  0
  6 10  1  0  0  0  0
  6  5  2  0  0  0  0
  7  3  1  0  0  0  0
 11 12  1  0  0  0  0
 12 18  1  0  0  0  0
 12 13  2  0  0  0  0
 13  1  1  0  0  0  0
 14 13  1  0  0  0  0
 15 14  2  0  0  0  0
 16 11  2  0  0  0  0
 16 15  1  0  0  0  0
 17 11  1  0  0  0  0
 19 15  1  0  0  0  0
 20  2  1  0  0  0  0
 21 20  1  0  0  0  0
 22 20  1  0  0  0  0
 23 20  1  0  0  0  0
 23 24  1  0  0  0  0
M  END
>  <minimizedAffinity>
-4.14938831

$$$$

 OpenBabel03252508433D

 24 25  0  0  0  0  0  0  0  0999 V2000
   37.4800   31.8360   39.8690 C   0  0  0  0  0  0  0  0  0  0  0  0
   38.6100   31.4640   40.5630 C   0  0  0  0  0  0  0  0  0  0  0  0
   39.5020   32.4310   40.9780 C   0  0  0  0  0  0  0  0  0  0  0  0
   39.2270   33.7510   40.6790 C   0  0  0  0  0  0  0  0  0  0  0  0
   38.1200   34.1610   39.9940 C   0  0  0  0  0  0  0  0  0  0  0  0
   37.2520   33.1350   39.5990 C   0  0  0  0  0  0  0  0  0  0  0  0
   40.4120   32.1610   41.5360 H   0  0  0  0  0  0  0  0  0  0  0  0
   39.9590   34.4900   41.0250 H   0  0  0  0  0  0  0  0  0  0  0  0
   37.9300   35.2030   39.7730 H   0  0  0  0  0  0  0  0  0  0  0  0
   36.3570   33.3990   39.0520 H   0  0  0  0  0  0  0  0  0  0  0  0
   35.6600   29.1730   37.8950 C   0  0  0  0  0  0  0  0  0  0  0  0
   36.5600   30.2150   38.1690 C   0  0  0  0  0  0  0  0  0  0  0  0
   36.5890   30.7500   39.4620 C   0  0  0  0  0  0  0  0  0  0  0  0
   35.7450   30.2210   40.3480 N   0  0  0  0  0  0  0  0  0  0  0  0
   34.8790   29.2170   40.0810 C   0  0  0  0  0  0  0  0  0  0  0  0
   34.8380   28.6930   38.8490 N   0  0  0  0  0  0  0  0  0  0  0  0
   35.6560   28.7740   36.8870 H   0  0  0  0  0  0  0  0  0  0  0  0
   37.2160   30.6100   37.4340 H   0  0  0  0  0  0  0  0  0  0  0  0
   34.2550   28.9030   40.9340 H   0  0  0  0  0  0  0  0  0  0  0  0
   38.8840   30.0330   40.8710 C   0  0  0  0  0  0  0  0  0  0  0  0
   39.8720   29.7050   40.4860 H   0  0  0  0  0  0  0  0  0  0  0  0
   38.1290   29.4230   40.3240 H   0  0  0  0  0  0  0  0  0  0  0  0
   38.7240   29.6610   42.6400 S   0  0  0  0  0  0  0  0  0  0  0  0
   38.0330   30.6910   43.3010 H   0  0  0  0  0  0  0  0  0  0  0  0
  1  2  1  0  0  0  0
  2 20  1  0  0  0  0
  2  3  2  0  0  0  0
  3  7  1  0  0  0  0
  4  3  1  0  0  0  0
  4  8  1  0  0  0  0
  5  4  2  0  0  0  0
  6  1  2  0  0  0  0
  6  5  1  0  0  0  0
  9  5  1  0  0  0  0
 10  6  1  0  0  0  0
 11 12  2  0  0  0  0
 11 16  1  0  0  0  0
 12 13  1  0  0  0  0
 13  1  1  0  0  0  0
 13 14  2  0  0  0  0
 15 14  1  0  0  0  0
 15 19  1  0  0  0  0
 16 15  2  0  0  0  0
 17 11  1  0  0  0  0
 18 12  1  0  0  0  0
 20 23  1  0  0  0  0
 21 20  1  0  0  0  0
 22 20  1  0  0  0  0
 23 24  1  0  0  0  0
M  END
>  <minimizedAffinity>
-4.05590439

$$$$

 OpenBabel03252508433D

 24 25  0  0  0  0  0  0  0  0999 V2000
   37.4950   29.2980   41.4650 C   0  0  0  0  0  0  0  0  0  0  0  0
   38.6420   29.2790   42.2260 C   0  0  0  0  0  0  0  0  0  0  0  0
   38.7400   28.4020   43.2860 C   0  0  0  0  0  0  0  0  0  0  0  0
   37.6730   27.5660   43.5490 C   0  0  0  0  0  0  0  0  0  0  0  0
   36.5200   27.5530   42.8190 C   0  0  0  0  0  0  0  0  0  0  0  0
   36.4780   28.4650   41.7570 C   0  0  0  0  0  0  0  0  0  0  0  0
   39.6470   28.3660   43.9100 H   0  0  0  0  0  0  0  0  0  0  0  0
   37.7890   26.8830   44.3990 H   0  0  0  0  0  0  0  0  0  0  0  0
   35.6990   26.8860   43.0470 H   0  0  0  0  0  0  0  0  0  0  0  0
   35.5890   28.5000   41.1420 H   0  0  0  0  0  0  0  0  0  0  0  0
   37.0740   32.4200   39.3730 C   0  0  0  0  0  0  0  0  0  0  0  0
   37.0560   31.5890   40.5040 C   0  0  0  0  0  0  0  0  0  0  0  0
   37.4690   30.2600   40.3630 C   0  0  0  0  0  0  0  0  0  0  0  0
   37.8540   29.8790   39.1450 N   0  0  0  0  0  0  0  0  0  0  0  0
   37.8710   30.6820   38.0570 C   0  0  0  0  0  0  0  0  0  0  0  0
   37.4780   31.9570   38.1740 N   0  0  0  0  0  0  0  0  0  0  0  0
   36.7500   33.4470   39.5070 H   0  0  0  0  0  0  0  0  0  0  0  0
   36.7400   31.9300   41.4580 H   0  0  0  0  0  0  0  0  0  0  0  0
   38.2200   30.1990   37.1290 H   0  0  0  0  0  0  0  0  0  0  0  0
   39.7780   30.1940   41.9230 C   0  0  0  0  0  0  0  0  0  0  0  0
   40.1280   30.7370   42.8260 H   0  0  0  0  0  0  0  0  0  0  0  0
   39.4000   30.9760   41.2270 H   0  0  0  0  0  0  0  0  0  0  0  0
   41.1570   29.3410   41.1080 S   0  0  0  0  0  0  0  0  0  0  0  0
   40.7400   28.0960   40.6060 H   0  0  0  0  0  0  0  0  0  0  0  0
  1  6  2  0  0  0  0
  1  2  1  0  0  0  0
  2  3  2  0  0  0  0
  3  4  1  0  0  0  0
  3  7  1  0  0  0  0
  4  8  1  0  0  0  0
  5  9  1  0  0  0  0
  5  4  2  0  0  0  0
  6  5  1  0  0  0  0
 10  6  1  0  0  0  0
 11 17  1  0  0  0  0
 11 12  1  0  0  0  0
 12 18  1  0  0  0  0
 13 12  2  0  0  0  0
 13  1  1  0  0  0  0
 14 13  1  0  0  0  0
 15 16  1  0  0  0  0
 15 14  2  0  0  0  0
 16 11  2  0  0  0  0
 19 15  1  0  0  0  0
 20  2  1  0  0  0  0
 20 21  1  0  0  0  0
 22 20  1  0  0  0  0
 23 20  1  0  0  0  0
 24 23  1  0  0  0  0
M  END
>  <minimizedAffinity>
-4.04188299

$$$$

 OpenBabel03252508433D

 24 25  0  0  0  0  0  0  0  0999 V2000
   38.8350   29.6180   41.8690 C   0  0  0  0  0  0  0  0  0  0  0  0
   37.4970   29.3720   42.0840 C   0  0  0  0  0  0  0  0  0  0  0  0
   37.1210   28.3430   42.9230 C   0  0  0  0  0  0  0  0  0  0  0  0
   38.1110   27.5890   43.5230 C   0  0  0  0  0  0  0  0  0  0  0  0
   39.4470   27.8010   43.3360 C   0  0  0  0  0  0  0  0  0  0  0  0
   39.7660   28.8580   42.4740 C   0  0  0  0  0  0  0  0  0  0  0  0
   36.0590   28.1260   43.1130 H   0  0  0  0  0  0  0  0  0  0  0  0
   37.7740   26.7820   44.1820 H   0  0  0  0  0  0  0  0  0  0  0  0
   40.2010   27.1940   43.8190 H   0  0  0  0  0  0  0  0  0  0  0  0
   40.8090   29.0740   42.2870 H   0  0  0  0  0  0  0  0  0  0  0  0
   39.5990   31.7070   38.8100 C   0  0  0  0  0  0  0  0  0  0  0  0
   39.2980   30.5720   39.5790 C   0  0  0  0  0  0  0  0  0  0  0  0
   39.1470   30.7230   40.9630 C   0  0  0  0  0  0  0  0  0  0  0  0
   39.3050   31.9540   41.4510 N   0  0  0  0  0  0  0  0  0  0  0  0
   39.5940   33.0460   40.7080 C   0  0  0  0  0  0  0  0  0  0  0  0
   39.7420   32.9190   39.3830 N   0  0  0  0  0  0  0  0  0  0  0  0
   39.7110   31.5660   37.7410 H   0  0  0  0  0  0  0  0  0  0  0  0
   39.1820   29.6080   39.1520 H   0  0  0  0  0  0  0  0  0  0  0  0
   39.6890   33.9840   41.2790 H   0  0  0  0  0  0  0  0  0  0  0  0
   36.4490   30.1990   41.4230 C   0  0  0  0  0  0  0  0  0  0  0  0
   36.8800   31.0750   40.8960 H   0  0  0  0  0  0  0  0  0  0  0  0
   35.7990   30.6170   42.2250 H   0  0  0  0  0  0  0  0  0  0  0  0
   35.3990   29.2260   40.3070 S   0  0  0  0  0  0  0  0  0  0  0  0
   35.5480   27.8520   40.5620 H   0  0  0  0  0  0  0  0  0  0  0  0
  1  2  2  0  0  0  0
  1  6  1  0  0  0  0
  2  3  1  0  0  0  0
  3  7  1  0  0  0  0
  3  4  2  0  0  0  0
  4  8  1  0  0  0  0
  5  4  1  0  0  0  0
  5  9  1  0  0  0  0
  6  5  2  0  0  0  0
 10  6  1  0  0  0  0
 11 16  2  0  0  0  0
 11 12  1  0  0  0  0
 12 13  2  0  0  0  0
 13 14  1  0  0  0  0
 13  1  1  0  0  0  0
 15 19  1  0  0  0  0
 15 14  2  0  0  0  0
 16 15  1  0  0  0  0
 17 11  1  0  0  0  0
 18 12  1  0  0  0  0
 20  2  1  0  0  0  0
 20 22  1  0  0  0  0
 21 20  1  0  0  0  0
 23 24  1  0  0  0  0
 23 20  1  0  0  0  0
M  END
>  <minimizedAffinity>
-4.03164387

$$$$

 OpenBabel03252508433D

 24 25  0  0  0  0  0  0  0  0999 V2000
   36.7310   26.8030   40.2600 C   0  0  0  0  0  0  0  0  0  0  0  0
   36.8980   27.2120   41.5640 C   0  0  0  0  0  0  0  0  0  0  0  0
   37.0350   26.2690   42.5600 C   0  0  0  0  0  0  0  0  0  0  0  0
   37.0010   24.9330   42.2110 C   0  0  0  0  0  0  0  0  0  0  0  0
   36.8380   24.4860   40.9310 C   0  0  0  0  0  0  0  0  0  0  0  0
   36.7030   25.4900   39.9640 C   0  0  0  0  0  0  0  0  0  0  0  0
   37.1710   26.5700   43.6110 H   0  0  0  0  0  0  0  0  0  0  0  0
   37.1130   24.2140   43.0300 H   0  0  0  0  0  0  0  0  0  0  0  0
   36.8140   23.4330   40.6860 H   0  0  0  0  0  0  0  0  0  0  0  0
   36.5720   25.1960   38.9310 H   0  0  0  0  0  0  0  0  0  0  0  0
   35.3410   29.3770   37.8630 C   0  0  0  0  0  0  0  0  0  0  0  0
   35.3530   28.3540   38.8240 C   0  0  0  0  0  0  0  0  0  0  0  0
   36.5890   27.8650   39.2650 C   0  0  0  0  0  0  0  0  0  0  0  0
   37.6770   28.4190   38.7290 N   0  0  0  0  0  0  0  0  0  0  0  0
   37.6630   29.4060   37.8040 C   0  0  0  0  0  0  0  0  0  0  0  0
   36.4890   29.8840   37.3700 N   0  0  0  0  0  0  0  0  0  0  0  0
   34.3730   29.7400   37.5380 H   0  0  0  0  0  0  0  0  0  0  0  0
   34.4640   27.9380   39.2260 H   0  0  0  0  0  0  0  0  0  0  0  0
   38.6570   29.7440   37.4710 H   0  0  0  0  0  0  0  0  0  0  0  0
   36.9300   28.6600   41.9150 C   0  0  0  0  0  0  0  0  0  0  0  0
   35.9560   29.0140   42.3120 H   0  0  0  0  0  0  0  0  0  0  0  0
   37.0960   29.2280   40.9710 H   0  0  0  0  0  0  0  0  0  0  0  0
   38.2800   29.0680   43.0560 S   0  0  0  0  0  0  0  0  0  0  0  0
   39.2260   28.0290   43.0930 H   0  0  0  0  0  0  0  0  0  0  0  0
  1  2  1  0  0  0  0
  2 20  1  0  0  0  0
  2  3  2  0  0  0  0
  3  7  1  0  0  0  0
  4  3  1  0  0  0  0
  4  8  1  0  0  0  0
  5  4  2  0  0  0  0
  6  1  2  0  0  0  0
  6  5  1  0  0  0  0
  9  5  1  0  0  0  0
 10  6  1  0  0  0  0
 11 12  1  0  0  0  0
 12 18  1  0  0  0  0
 12 13  2  0  0  0  0
 13  1  1  0  0  0  0
 14 13  1  0  0  0  0
 15 14  2  0  0  0  0
 16 15  1  0  0  0  0
 16 11  2  0  0  0  0
 17 11  1  0  0  0  0
 19 15  1  0  0  0  0
 20 21  1  0  0  0  0
 20 23  1  0  0  0  0
 22 20  1  0  0  0  0
 23 24  1  0  0  0  0
M  END
>  <minimizedAffinity>
-4.02965498

$$$$

 OpenBabel03252508433D

 24 25  0  0  0  0  0  0  0  0999 V2000
   36.9690   26.9440   41.0450 C   0  0  0  0  0  0  0  0  0  0  0  0
   36.8510   26.3040   39.8320 C   0  0  0  0  0  0  0  0  0  0  0  0
   36.7630   24.9280   39.7950 C   0  0  0  0  0  0  0  0  0  0  0  0
   36.7970   24.2350   40.9890 C   0  0  0  0  0  0  0  0  0  0  0  0
   36.9140   24.8310   42.2120 C   0  0  0  0  0  0  0  0  0  0  0  0
   36.9990   26.2290   42.1850 C   0  0  0  0  0  0  0  0  0  0  0  0
   36.6660   24.3920   38.8390 H   0  0  0  0  0  0  0  0  0  0  0  0
   36.7250   23.1440   40.9200 H   0  0  0  0  0  0  0  0  0  0  0  0
   36.9380   24.2630   43.1320 H   0  0  0  0  0  0  0  0  0  0  0  0
   37.0930   26.7580   43.1240 H   0  0  0  0  0  0  0  0  0  0  0  0
   36.1610   30.6370   40.9230 C   0  0  0  0  0  0  0  0  0  0  0  0
   35.9480   29.2500   40.9710 C   0  0  0  0  0  0  0  0  0  0  0  0
   37.0620   28.4030   40.9960 C   0  0  0  0  0  0  0  0  0  0  0  0
   38.2590   28.9890   40.9710 N   0  0  0  0  0  0  0  0  0  0  0  0
   38.4620   30.3260   40.9250 C   0  0  0  0  0  0  0  0  0  0  0  0
   37.4070   31.1500   40.9010 N   0  0  0  0  0  0  0  0  0  0  0  0
   35.2820   31.2730   40.9060 H   0  0  0  0  0  0  0  0  0  0  0  0
   34.9770   28.8220   40.9890 H   0  0  0  0  0  0  0  0  0  0  0  0
   39.5190   30.6350   40.9100 H   0  0  0  0  0  0  0  0  0  0  0  0
   36.8180   27.0750   38.5580 C   0  0  0  0  0  0  0  0  0  0  0  0
   37.6460   26.7900   37.8760 H   0  0  0  0  0  0  0  0  0  0  0  0
   36.9910   28.1460   38.8110 H   0  0  0  0  0  0  0  0  0  0  0  0
   35.2160   26.9540   37.7140 S   0  0  0  0  0  0  0  0  0  0  0  0
   34.2310   26.4680   38.5920 H   0  0  0  0  0  0  0  0  0  0  0  0
  1  6  1  0  0  0  0
  2  1  2  0  0  0  0
  3  2  1  0  0  0  0
  3  4  2  0  0  0  0
  4  5  1  0  0  0  0
  5  9  1  0  0  0  0
  6  5  2  0  0  0  0
  6 10  1  0  0  0  0
  7  3  1  0  0  0  0
  8  4  1  0  0  0  0
 11 12  1  0  0  0  0
 12 18  1  0  0  0  0
 12 13  2  0  0  0  0
 13  1  1  0  0  0  0
 14 13  1  0  0  0  0
 15 14  2  0  0  0  0
 16 11  2  0  0  0  0
 16 15  1  0  0  0  0
 17 11  1  0  0  0  0
 19 15  1  0  0  0  0
 20 22  1  0  0  0  0
 20  2  1  0  0  0  0
 21 20  1  0  0  0  0
 23 20  1  0  0  0  0
 23 24  1  0  0  0  0
M  END
>  <minimizedAffinity>
-4.01085281

$$$$
