
 OpenBabel03252509113D

 24 26  0  0  0  0  0  0  0  0999 V2000
   47.4620   31.6770   44.8220 C   0  0  0  0  0  0  0  0  0  0  0  0
   46.7850   32.8560   44.5370 C   0  0  0  0  0  0  0  0  0  0  0  0
   45.9160   33.4450   45.4260 C   0  0  0  0  0  0  0  0  0  0  0  0
   45.6820   32.8590   46.6730 C   0  0  0  0  0  0  0  0  0  0  0  0
   44.9250   33.1380   47.7590 N   0  0  0  0  0  0  0  0  0  0  0  0
   45.1130   32.1770   48.6950 C   0  0  0  0  0  0  0  0  0  0  0  0
   45.9940   31.3110   48.1610 N   0  0  0  0  0  0  0  0  0  0  0  0
   46.3630   31.6950   46.9280 C   0  0  0  0  0  0  0  0  0  0  0  0
   47.2430   31.0730   46.0630 C   0  0  0  0  0  0  0  0  0  0  0  0
   48.1340   31.2580   44.0890 H   0  0  0  0  0  0  0  0  0  0  0  0
   44.3070   33.9740   47.8260 H   0  0  0  0  0  0  0  0  0  0  0  0
   44.6570   32.1040   49.6760 H   0  0  0  0  0  0  0  0  0  0  0  0
   47.7550   30.1490   46.3210 H   0  0  0  0  0  0  0  0  0  0  0  0
   46.3800   33.8170   41.0170 C   0  0  0  0  0  0  0  0  0  0  0  0
   47.4230   34.7210   40.8200 C   0  0  0  0  0  0  0  0  0  0  0  0
   48.2640   34.9990   41.9030 C   0  0  0  0  0  0  0  0  0  0  0  0
   48.0270   34.3730   43.1010 N   0  0  0  0  0  0  0  0  0  0  0  0
   46.9990   33.5000   43.2420 C   0  0  0  0  0  0  0  0  0  0  0  0
   46.1700   33.2130   42.2140 N   0  0  0  0  0  0  0  0  0  0  0  0
   45.7430   33.6190   40.1650 H   0  0  0  0  0  0  0  0  0  0  0  0
   47.6050   35.2120   39.8730 H   0  0  0  0  0  0  0  0  0  0  0  0
   49.0880   35.6870   41.8220 H   0  0  0  0  0  0  0  0  0  0  0  0
   45.0460   34.9630   45.0560 S   0  0  0  0  0  0  0  0  0  0  0  0
   45.7010   36.0850   45.6100 H   0  0  0  0  0  0  0  0  0  0  0  0
  1  9  1  0  0  0  0
  2  1  2  0  0  0  0
  2  3  1  0  0  0  0
  3  4  2  0  0  0  0
  4  8  1  0  0  0  0
  4  5  1  0  0  0  0
  5 11  1  0  0  0  0
  5  6  1  0  0  0  0
  6 12  1  0  0  0  0
  7  6  2  0  0  0  0
  8  7  1  0  0  0  0
  9 13  1  0  0  0  0
  9  8  2  0  0  0  0
 10  1  1  0  0  0  0
 14 19  1  0  0  0  0
 15 14  2  0  0  0  0
 15 16  1  0  0  0  0
 16 17  2  0  0  0  0
 17 18  1  0  0  0  0
 18  2  1  0  0  0  0
 19 18  2  0  0  0  0
 20 14  1  0  0  0  0
 21 15  1  0  0  0  0
 22 16  1  0  0  0  0
 23  3  1  0  0  0  0
 23 24  1  0  0  0  0
M  END
>  <minimizedAffinity>
-4.8195467

>  <minimizedRMSD>
1.04435182

$$$$
