
 OpenBabel03252507523D

 24 25  0  0  1  0  0  0  0  0999 V2000
   46.9910   34.8070   41.9890 C   0  0  2  0  0  0  0  0  0  0  0  0
   46.3200   34.2030   40.8020 C   0  0  0  0  0  0  0  0  0  0  0  0
   47.5260   34.0140   39.8820 C   0  0  0  0  0  0  0  0  0  0  0  0
   48.6900   33.7700   40.7990 C   0  0  1  0  0  0  0  0  0  0  0  0
   48.1280   33.8080   42.2150 C   0  0  0  0  0  0  0  0  0  0  0  0
   47.4700   35.7540   41.7080 H   0  0  0  0  0  0  0  0  0  0  0  0
   45.5670   34.8690   40.3660 H   0  0  0  0  0  0  0  0  0  0  0  0
   45.8930   33.2100   41.0410 H   0  0  0  0  0  0  0  0  0  0  0  0
   47.6970   34.9020   39.2290 H   0  0  0  0  0  0  0  0  0  0  0  0
   47.3420   33.1440   39.2260 H   0  0  0  0  0  0  0  0  0  0  0  0
   49.4990   34.5210   40.6650 H   0  0  0  0  0  0  0  0  0  0  0  0
   47.7640   32.8410   42.5700 H   0  0  0  0  0  0  0  0  0  0  0  0
   48.8940   34.2420   42.8990 H   0  0  0  0  0  0  0  0  0  0  0  0
   44.5060   36.0160   44.5460 C   0  0  0  0  0  0  0  0  0  0  0  0
   45.2330   35.9930   43.3610 C   0  0  0  0  0  0  0  0  0  0  0  0
   46.1530   34.9650   43.1870 C   0  0  0  0  0  0  0  0  0  0  0  0
   46.2840   34.0410   44.1910 N   0  0  0  0  0  0  0  0  0  0  0  0
   45.5640   34.0900   45.3280 C   0  0  0  0  0  0  0  0  0  0  0  0
   44.6780   35.0680   45.5120 N   0  0  0  0  0  0  0  0  0  0  0  0
   43.7680   36.8160   44.7200 H   0  0  0  0  0  0  0  0  0  0  0  0
   45.1170   36.7170   42.5950 H   0  0  0  0  0  0  0  0  0  0  0  0
   45.6920   33.3420   46.1050 H   0  0  0  0  0  0  0  0  0  0  0  0
   49.3550   32.1160   40.5160 S   0  0  0  0  0  0  0  0  0  0  0  0
   49.4860   31.8370   39.1510 H   0  0  0  0  0  0  0  0  0  0  0  0
  1  6  1  6  0  0  0
  1  5  1  0  0  0  0
  1 16  1  0  0  0  0
  2  8  1  0  0  0  0
  2  1  1  0  0  0  0
  3  4  1  0  0  0  0
  3  2  1  0  0  0  0
  4 11  1  6  0  0  0
  4  5  1  0  0  0  0
  5 12  1  0  0  0  0
  5 13  1  0  0  0  0
  7  2  1  0  0  0  0
  9  3  1  0  0  0  0
 10  3  1  0  0  0  0
 14 20  1  0  0  0  0
 14 19  1  0  0  0  0
 15 14  2  0  0  0  0
 16 15  1  0  0  0  0
 16 17  2  0  0  0  0
 17 18  1  0  0  0  0
 18 19  2  0  0  0  0
 18 22  1  0  0  0  0
 21 15  1  0  0  0  0
 23  4  1  0  0  0  0
 24 23  1  0  0  0  0
M  END
>  <minimizedAffinity>
-4.25660372

>  <minimizedRMSD>
1.07169557

$$$$
