
 OpenBabel03252507523D

 24 25  0  0  1  0  0  0  0  0999 V2000
   38.3980   28.2390   42.9160 C   0  0  2  0  0  0  0  0  0  0  0  0
   39.8300   28.4720   42.5750 C   0  0  0  0  0  0  0  0  0  0  0  0
   40.4960   27.4800   43.5290 C   0  0  0  0  0  0  0  0  0  0  0  0
   39.5130   26.3540   43.6800 C   0  0  1  0  0  0  0  0  0  0  0  0
   38.3200   26.7150   42.8020 C   0  0  0  0  0  0  0  0  0  0  0  0
   38.2200   28.4740   43.9740 H   0  0  0  0  0  0  0  0  0  0  0  0
   40.1420   29.5040   42.7680 H   0  0  0  0  0  0  0  0  0  0  0  0
   40.0520   28.1710   41.5330 H   0  0  0  0  0  0  0  0  0  0  0  0
   40.7410   27.9460   44.5120 H   0  0  0  0  0  0  0  0  0  0  0  0
   41.4420   27.1300   43.0770 H   0  0  0  0  0  0  0  0  0  0  0  0
   39.2060   26.2000   44.7360 H   0  0  0  0  0  0  0  0  0  0  0  0
   38.4130   26.3720   41.7700 H   0  0  0  0  0  0  0  0  0  0  0  0
   37.3870   26.3380   43.2840 H   0  0  0  0  0  0  0  0  0  0  0  0
   35.4410   29.0340   40.7240 C   0  0  0  0  0  0  0  0  0  0  0  0
   36.2860   28.2800   41.5320 C   0  0  0  0  0  0  0  0  0  0  0  0
   37.4160   28.9050   42.0460 C   0  0  0  0  0  0  0  0  0  0  0  0
   37.6260   30.2200   41.7270 N   0  0  0  0  0  0  0  0  0  0  0  0
   36.7880   30.9250   40.9420 C   0  0  0  0  0  0  0  0  0  0  0  0
   35.7000   30.3430   40.4400 N   0  0  0  0  0  0  0  0  0  0  0  0
   34.5350   28.5720   40.2980 H   0  0  0  0  0  0  0  0  0  0  0  0
   36.1060   27.2610   41.7680 H   0  0  0  0  0  0  0  0  0  0  0  0
   36.9830   31.9670   40.7080 H   0  0  0  0  0  0  0  0  0  0  0  0
   40.2280   24.8280   43.0340 S   0  0  0  0  0  0  0  0  0  0  0  0
   39.2460   23.9720   42.5210 H   0  0  0  0  0  0  0  0  0  0  0  0
  1  6  1  1  0  0  0
  2  7  1  0  0  0  0
  2  1  1  0  0  0  0
  2  3  1  0  0  0  0
  3  4  1  0  0  0  0
  3  9  1  0  0  0  0
  4 11  1  1  0  0  0
  5  1  1  0  0  0  0
  5 13  1  0  0  0  0
  5  4  1  0  0  0  0
  8  2  1  0  0  0  0
 10  3  1  0  0  0  0
 12  5  1  0  0  0  0
 14 15  1  0  0  0  0
 15 21  1  0  0  0  0
 15 16  2  0  0  0  0
 16  1  1  0  0  0  0
 17 16  1  0  0  0  0
 18 17  2  0  0  0  0
 19 14  2  0  0  0  0
 19 18  1  0  0  0  0
 20 14  1  0  0  0  0
 22 18  1  0  0  0  0
 23  4  1  0  0  0  0
 24 23  1  0  0  0  0
M  END
>  <minimizedAffinity>
-4.07736969

$$$$

 OpenBabel03252507523D

 24 25  0  0  1  0  0  0  0  0999 V2000
   36.8980   28.1560   42.1610 C   0  0  2  0  0  0  0  0  0  0  0  0
   36.2830   27.9560   40.8180 C   0  0  0  0  0  0  0  0  0  0  0  0
   35.5300   29.2780   40.6700 C   0  0  0  0  0  0  0  0  0  0  0  0
   36.3450   30.2860   41.4280 C   0  0  1  0  0  0  0  0  0  0  0  0
   37.5490   29.5290   41.9770 C   0  0  0  0  0  0  0  0  0  0  0  0
   36.1140   28.2910   42.9170 H   0  0  0  0  0  0  0  0  0  0  0  0
   35.6100   27.0910   40.7920 H   0  0  0  0  0  0  0  0  0  0  0  0
   37.0540   27.8920   40.0260 H   0  0  0  0  0  0  0  0  0  0  0  0
   34.4880   29.2120   41.0640 H   0  0  0  0  0  0  0  0  0  0  0  0
   35.4680   29.5360   39.5970 H   0  0  0  0  0  0  0  0  0  0  0  0
   35.7660   30.7710   42.2440 H   0  0  0  0  0  0  0  0  0  0  0  0
   38.3980   29.4960   41.2910 H   0  0  0  0  0  0  0  0  0  0  0  0
   37.8290   29.9600   42.9670 H   0  0  0  0  0  0  0  0  0  0  0  0
   39.8290   26.3450   43.6800 C   0  0  0  0  0  0  0  0  0  0  0  0
   38.9920   27.4080   43.3590 C   0  0  0  0  0  0  0  0  0  0  0  0
   37.8750   27.1380   42.5770 C   0  0  0  0  0  0  0  0  0  0  0  0
   37.6690   25.8450   42.1720 N   0  0  0  0  0  0  0  0  0  0  0  0
   38.4990   24.8360   42.4990 C   0  0  0  0  0  0  0  0  0  0  0  0
   39.5740   25.0760   43.2480 N   0  0  0  0  0  0  0  0  0  0  0  0
   40.7250   26.5210   44.2980 H   0  0  0  0  0  0  0  0  0  0  0  0
   39.1670   28.4030   43.6830 H   0  0  0  0  0  0  0  0  0  0  0  0
   38.3080   23.8210   42.1620 H   0  0  0  0  0  0  0  0  0  0  0  0
   36.9610   31.5500   40.2960 S   0  0  0  0  0  0  0  0  0  0  0  0
   38.1870   32.0740   40.7220 H   0  0  0  0  0  0  0  0  0  0  0  0
  1 16  1  0  0  0  0
  1  6  1  1  0  0  0
  2  1  1  0  0  0  0
  3  2  1  0  0  0  0
  3  9  1  0  0  0  0
  3  4  1  0  0  0  0
  4  5  1  0  0  0  0
  4 11  1  1  0  0  0
  5  1  1  0  0  0  0
  5 13  1  0  0  0  0
  7  2  1  0  0  0  0
  8  2  1  0  0  0  0
 10  3  1  0  0  0  0
 12  5  1  0  0  0  0
 14 20  1  0  0  0  0
 15 14  1  0  0  0  0
 15 21  1  0  0  0  0
 16 15  2  0  0  0  0
 17 18  2  0  0  0  0
 17 16  1  0  0  0  0
 18 19  1  0  0  0  0
 19 14  2  0  0  0  0
 22 18  1  0  0  0  0
 23 24  1  0  0  0  0
 23  4  1  0  0  0  0
M  END
>  <minimizedAffinity>
-4.0243144

$$$$

 OpenBabel03252507523D

 24 25  0  0  1  0  0  0  0  0999 V2000
   36.7350   28.1640   41.9620 C   0  0  2  0  0  0  0  0  0  0  0  0
   36.2290   28.0770   40.5630 C   0  0  0  0  0  0  0  0  0  0  0  0
   35.5300   29.4320   40.4480 C   0  0  0  0  0  0  0  0  0  0  0  0
   36.3080   30.3570   41.3400 C   0  0  1  0  0  0  0  0  0  0  0  0
   37.4390   29.5230   41.9300 C   0  0  0  0  0  0  0  0  0  0  0  0
   35.8940   28.2740   42.6600 H   0  0  0  0  0  0  0  0  0  0  0  0
   35.5350   27.2410   40.4210 H   0  0  0  0  0  0  0  0  0  0  0  0
   37.0610   28.0410   39.8340 H   0  0  0  0  0  0  0  0  0  0  0  0
   34.4570   29.3760   40.7500 H   0  0  0  0  0  0  0  0  0  0  0  0
   35.5650   29.7640   39.3940 H   0  0  0  0  0  0  0  0  0  0  0  0
   35.6770   30.8050   42.1370 H   0  0  0  0  0  0  0  0  0  0  0  0
   38.3410   29.5060   41.3150 H   0  0  0  0  0  0  0  0  0  0  0  0
   37.6480   29.8750   42.9670 H   0  0  0  0  0  0  0  0  0  0  0  0
   38.4560   24.8500   42.4450 C   0  0  0  0  0  0  0  0  0  0  0  0
   37.5230   25.7640   41.9690 C   0  0  0  0  0  0  0  0  0  0  0  0
   37.6430   27.0860   42.3830 C   0  0  0  0  0  0  0  0  0  0  0  0
   38.6690   27.4040   43.2330 N   0  0  0  0  0  0  0  0  0  0  0  0
   39.5590   26.4950   43.6770 C   0  0  0  0  0  0  0  0  0  0  0  0
   39.4600   25.2240   43.2900 N   0  0  0  0  0  0  0  0  0  0  0  0
   38.3930   23.7930   42.1380 H   0  0  0  0  0  0  0  0  0  0  0  0
   36.7340   25.4990   41.3110 H   0  0  0  0  0  0  0  0  0  0  0  0
   40.3620   26.7800   44.3500 H   0  0  0  0  0  0  0  0  0  0  0  0
   37.0530   31.6730   40.3540 S   0  0  0  0  0  0  0  0  0  0  0  0
   38.2540   32.1230   40.9150 H   0  0  0  0  0  0  0  0  0  0  0  0
  1 16  1  0  0  0  0
  1  6  1  1  0  0  0
  2  1  1  0  0  0  0
  3  2  1  0  0  0  0
  3  9  1  0  0  0  0
  3  4  1  0  0  0  0
  4  5  1  0  0  0  0
  4 11  1  1  0  0  0
  5  1  1  0  0  0  0
  5 13  1  0  0  0  0
  7  2  1  0  0  0  0
  8  2  1  0  0  0  0
 10  3  1  0  0  0  0
 12  5  1  0  0  0  0
 14 19  1  0  0  0  0
 15 16  1  0  0  0  0
 15 14  2  0  0  0  0
 16 17  2  0  0  0  0
 17 18  1  0  0  0  0
 18 22  1  0  0  0  0
 19 18  2  0  0  0  0
 20 14  1  0  0  0  0
 21 15  1  0  0  0  0
 23 24  1  0  0  0  0
 23  4  1  0  0  0  0
M  END
>  <minimizedAffinity>
-3.99988103

$$$$

 OpenBabel03252507523D

 24 25  0  0  1  0  0  0  0  0999 V2000
   37.3550   29.3950   42.3470 C   0  0  2  0  0  0  0  0  0  0  0  0
   38.5440   28.8590   43.0670 C   0  0  0  0  0  0  0  0  0  0  0  0
   37.9380   27.5960   43.6800 C   0  0  0  0  0  0  0  0  0  0  0  0
   36.8780   27.1550   42.7110 C   0  0  1  0  0  0  0  0  0  0  0  0
   36.9100   28.1580   41.5640 C   0  0  0  0  0  0  0  0  0  0  0  0
   36.5480   29.6090   43.0610 H   0  0  0  0  0  0  0  0  0  0  0  0
   38.9170   29.5510   43.8310 H   0  0  0  0  0  0  0  0  0  0  0  0
   39.3450   28.5650   42.3620 H   0  0  0  0  0  0  0  0  0  0  0  0
   37.5140   27.7860   44.6940 H   0  0  0  0  0  0  0  0  0  0  0  0
   38.7310   26.8330   43.7830 H   0  0  0  0  0  0  0  0  0  0  0  0
   35.8710   27.1080   43.1790 H   0  0  0  0  0  0  0  0  0  0  0  0
   37.6140   27.8960   40.7700 H   0  0  0  0  0  0  0  0  0  0  0  0
   35.8740   28.2980   41.1740 H   0  0  0  0  0  0  0  0  0  0  0  0
   37.0300   32.1720   39.8240 C   0  0  0  0  0  0  0  0  0  0  0  0
   36.6550   31.0810   40.6020 C   0  0  0  0  0  0  0  0  0  0  0  0
   37.6050   30.5440   41.4630 C   0  0  0  0  0  0  0  0  0  0  0  0
   38.8480   31.1190   41.4910 N   0  0  0  0  0  0  0  0  0  0  0  0
   39.1820   32.1760   40.7250 C   0  0  0  0  0  0  0  0  0  0  0  0
   38.2840   32.7050   39.8940 N   0  0  0  0  0  0  0  0  0  0  0  0
   36.3040   32.6250   39.1300 H   0  0  0  0  0  0  0  0  0  0  0  0
   35.6860   30.6500   40.5670 H   0  0  0  0  0  0  0  0  0  0  0  0
   40.1760   32.6090   40.7710 H   0  0  0  0  0  0  0  0  0  0  0  0
   37.3020   25.5350   42.0370 S   0  0  0  0  0  0  0  0  0  0  0  0
   36.8130   25.3710   40.7350 H   0  0  0  0  0  0  0  0  0  0  0  0
  1  6  1  1  0  0  0
  1  2  1  0  0  0  0
  2  3  1  0  0  0  0
  2  7  1  0  0  0  0
  3 10  1  0  0  0  0
  3  9  1  0  0  0  0
  4 11  1  1  0  0  0
  4  3  1  0  0  0  0
  5  1  1  0  0  0  0
  5  4  1  0  0  0  0
  8  2  1  0  0  0  0
 12  5  1  0  0  0  0
 13  5  1  0  0  0  0
 14 19  2  0  0  0  0
 14 15  1  0  0  0  0
 15 16  2  0  0  0  0
 16 17  1  0  0  0  0
 16  1  1  0  0  0  0
 18 22  1  0  0  0  0
 18 17  2  0  0  0  0
 19 18  1  0  0  0  0
 20 14  1  0  0  0  0
 21 15  1  0  0  0  0
 23  4  1  0  0  0  0
 24 23  1  0  0  0  0
M  END
>  <minimizedAffinity>
-3.99147344

$$$$

 OpenBabel03252507523D

 24 25  0  0  1  0  0  0  0  0999 V2000
   36.5120   28.3150   41.8370 C   0  0  2  0  0  0  0  0  0  0  0  0
   37.5370   29.3780   42.0380 C   0  0  0  0  0  0  0  0  0  0  0  0
   38.0520   28.9940   43.4260 C   0  0  0  0  0  0  0  0  0  0  0  0
   37.9050   27.5010   43.5030 C   0  0  1  0  0  0  0  0  0  0  0  0
   37.3300   27.0620   42.1620 C   0  0  0  0  0  0  0  0  0  0  0  0
   35.7410   28.3850   42.6160 H   0  0  0  0  0  0  0  0  0  0  0  0
   37.1040   30.3840   42.0220 H   0  0  0  0  0  0  0  0  0  0  0  0
   38.3660   29.2830   41.3100 H   0  0  0  0  0  0  0  0  0  0  0  0
   37.4840   29.5050   44.2380 H   0  0  0  0  0  0  0  0  0  0  0  0
   39.1110   29.2990   43.5110 H   0  0  0  0  0  0  0  0  0  0  0  0
   37.2550   27.1830   44.3460 H   0  0  0  0  0  0  0  0  0  0  0  0
   38.0880   26.8560   41.4040 H   0  0  0  0  0  0  0  0  0  0  0  0
   36.6540   26.1900   42.3240 H   0  0  0  0  0  0  0  0  0  0  0  0
   34.4770   28.9530   38.7350 C   0  0  0  0  0  0  0  0  0  0  0  0
   34.9530   29.1360   40.0290 C   0  0  0  0  0  0  0  0  0  0  0  0
   35.9140   28.2470   40.4950 C   0  0  0  0  0  0  0  0  0  0  0  0
   36.3310   27.2500   39.6540 N   0  0  0  0  0  0  0  0  0  0  0  0
   35.8520   27.0980   38.4050 C   0  0  0  0  0  0  0  0  0  0  0  0
   34.9300   27.9410   37.9400 N   0  0  0  0  0  0  0  0  0  0  0  0
   33.7140   29.6380   38.3300 H   0  0  0  0  0  0  0  0  0  0  0  0
   34.6170   29.9160   40.6650 H   0  0  0  0  0  0  0  0  0  0  0  0
   36.2040   26.2970   37.7630 H   0  0  0  0  0  0  0  0  0  0  0  0
   39.5310   26.7360   43.6800 S   0  0  0  0  0  0  0  0  0  0  0  0
   39.5700   25.4620   43.1010 H   0  0  0  0  0  0  0  0  0  0  0  0
  1  2  1  0  0  0  0
  1  5  1  0  0  0  0
  1  6  1  1  0  0  0
  2  3  1  0  0  0  0
  3  4  1  0  0  0  0
  3 10  1  0  0  0  0
  3  9  1  0  0  0  0
  4 23  1  0  0  0  0
  4 11  1  1  0  0  0
  5 13  1  0  0  0  0
  5  4  1  0  0  0  0
  7  2  1  0  0  0  0
  8  2  1  0  0  0  0
 12  5  1  0  0  0  0
 14 15  1  0  0  0  0
 15 16  2  0  0  0  0
 15 21  1  0  0  0  0
 16  1  1  0  0  0  0
 17 16  1  0  0  0  0
 18 17  2  0  0  0  0
 19 18  1  0  0  0  0
 19 14  2  0  0  0  0
 20 14  1  0  0  0  0
 22 18  1  0  0  0  0
 24 23  1  0  0  0  0
M  END
>  <minimizedAffinity>
-3.79012918

$$$$

 OpenBabel03252507523D

 24 25  0  0  1  0  0  0  0  0999 V2000
   37.1230   30.7700   40.9910 C   0  0  2  0  0  0  0  0  0  0  0  0
   36.8170   31.0240   39.5540 C   0  0  0  0  0  0  0  0  0  0  0  0
   37.1500   32.5130   39.4690 C   0  0  0  0  0  0  0  0  0  0  0  0
   38.2460   32.7330   40.4720 C   0  0  1  0  0  0  0  0  0  0  0  0
   38.5280   31.3700   41.0950 C   0  0  0  0  0  0  0  0  0  0  0  0
   36.4790   31.3920   41.6280 H   0  0  0  0  0  0  0  0  0  0  0  0
   35.7690   30.8190   39.3090 H   0  0  0  0  0  0  0  0  0  0  0  0
   37.5040   30.4650   38.8900 H   0  0  0  0  0  0  0  0  0  0  0  0
   36.2610   33.1530   39.6850 H   0  0  0  0  0  0  0  0  0  0  0  0
   37.4910   32.7450   38.4430 H   0  0  0  0  0  0  0  0  0  0  0  0
   37.9680   33.4810   41.2450 H   0  0  0  0  0  0  0  0  0  0  0  0
   39.2690   30.7820   40.5500 H   0  0  0  0  0  0  0  0  0  0  0  0
   38.8100   31.5110   42.1650 H   0  0  0  0  0  0  0  0  0  0  0  0
   36.8890   27.0130   41.0850 C   0  0  0  0  0  0  0  0  0  0  0  0
   36.8860   28.2950   40.5460 C   0  0  0  0  0  0  0  0  0  0  0  0
   37.0960   29.3620   41.4130 C   0  0  0  0  0  0  0  0  0  0  0  0
   37.2920   29.0840   42.7400 N   0  0  0  0  0  0  0  0  0  0  0  0
   37.2900   27.8300   43.2330 C   0  0  0  0  0  0  0  0  0  0  0  0
   37.0910   26.7960   42.4170 N   0  0  0  0  0  0  0  0  0  0  0  0
   36.7260   26.1430   40.4290 H   0  0  0  0  0  0  0  0  0  0  0  0
   36.7330   28.4910   39.5150 H   0  0  0  0  0  0  0  0  0  0  0  0
   37.4490   27.6440   44.2910 H   0  0  0  0  0  0  0  0  0  0  0  0
   39.7480   33.2720   39.6280 S   0  0  0  0  0  0  0  0  0  0  0  0
   40.9000   32.8560   40.3050 H   0  0  0  0  0  0  0  0  0  0  0  0
  1  5  1  0  0  0  0
  1 16  1  0  0  0  0
  1  6  1  1  0  0  0
  2  1  1  0  0  0  0
  3  2  1  0  0  0  0
  3  9  1  0  0  0  0
  3  4  1  0  0  0  0
  4  5  1  0  0  0  0
  4 11  1  1  0  0  0
  5 13  1  0  0  0  0
  7  2  1  0  0  0  0
  8  2  1  0  0  0  0
 10  3  1  0  0  0  0
 12  5  1  0  0  0  0
 14 19  1  0  0  0  0
 15 14  2  0  0  0  0
 15 16  1  0  0  0  0
 16 17  2  0  0  0  0
 17 18  1  0  0  0  0
 18 22  1  0  0  0  0
 19 18  2  0  0  0  0
 20 14  1  0  0  0  0
 21 15  1  0  0  0  0
 23 24  1  0  0  0  0
 23  4  1  0  0  0  0
M  END
>  <minimizedAffinity>
-3.76453924

$$$$

 OpenBabel03252507523D

 24 25  0  0  1  0  0  0  0  0999 V2000
   37.7030   26.3360   42.5480 C   0  0  2  0  0  0  0  0  0  0  0  0
   36.5830   27.2880   42.7940 C   0  0  0  0  0  0  0  0  0  0  0  0
   37.2930   28.3120   43.6800 C   0  0  0  0  0  0  0  0  0  0  0  0
   38.7240   28.3060   43.2230 C   0  0  1  0  0  0  0  0  0  0  0  0
   38.8000   27.2970   42.0830 C   0  0  0  0  0  0  0  0  0  0  0  0
   38.0530   25.9130   43.4990 H   0  0  0  0  0  0  0  0  0  0  0  0
   35.7380   26.8140   43.3070 H   0  0  0  0  0  0  0  0  0  0  0  0
   36.2610   27.7850   41.8590 H   0  0  0  0  0  0  0  0  0  0  0  0
   37.2070   28.0600   44.7630 H   0  0  0  0  0  0  0  0  0  0  0  0
   36.8260   29.3020   43.5260 H   0  0  0  0  0  0  0  0  0  0  0  0
   39.4280   28.0440   44.0420 H   0  0  0  0  0  0  0  0  0  0  0  0
   38.5850   27.7260   41.1010 H   0  0  0  0  0  0  0  0  0  0  0  0
   39.7940   26.7920   42.1090 H   0  0  0  0  0  0  0  0  0  0  0  0
   37.5940   23.0870   40.6480 C   0  0  0  0  0  0  0  0  0  0  0  0
   37.9230   23.9820   41.6600 C   0  0  0  0  0  0  0  0  0  0  0  0
   37.4410   25.2820   41.5560 C   0  0  0  0  0  0  0  0  0  0  0  0
   36.6740   25.5990   40.4660 N   0  0  0  0  0  0  0  0  0  0  0  0
   36.3710   24.7090   39.5010 C   0  0  0  0  0  0  0  0  0  0  0  0
   36.8240   23.4590   39.5840 N   0  0  0  0  0  0  0  0  0  0  0  0
   37.9580   22.0480   40.6960 H   0  0  0  0  0  0  0  0  0  0  0  0
   38.5190   23.7170   42.4970 H   0  0  0  0  0  0  0  0  0  0  0  0
   35.7600   24.9920   38.6500 H   0  0  0  0  0  0  0  0  0  0  0  0
   39.1590   29.9250   42.5530 S   0  0  0  0  0  0  0  0  0  0  0  0
   40.1330   29.8270   41.5530 H   0  0  0  0  0  0  0  0  0  0  0  0
  1  2  1  0  0  0  0
  1  6  1  1  0  0  0
  2  7  1  0  0  0  0
  2  3  1  0  0  0  0
  3  9  1  0  0  0  0
  4  3  1  0  0  0  0
  4 11  1  1  0  0  0
  5 13  1  0  0  0  0
  5  1  1  0  0  0  0
  5  4  1  0  0  0  0
  8  2  1  0  0  0  0
 10  3  1  0  0  0  0
 12  5  1  0  0  0  0
 14 20  1  0  0  0  0
 14 15  1  0  0  0  0
 15 21  1  0  0  0  0
 16 15  2  0  0  0  0
 16  1  1  0  0  0  0
 17 16  1  0  0  0  0
 18 19  1  0  0  0  0
 18 17  2  0  0  0  0
 19 14  2  0  0  0  0
 22 18  1  0  0  0  0
 23  4  1  0  0  0  0
 24 23  1  0  0  0  0
M  END
>  <minimizedAffinity>
-3.74725199

$$$$

 OpenBabel03252507523D

 24 25  0  0  1  0  0  0  0  0999 V2000
   37.5140   30.4910   40.4390 C   0  0  2  0  0  0  0  0  0  0  0  0
   36.0580   30.5070   40.7580 C   0  0  0  0  0  0  0  0  0  0  0  0
   35.8060   29.0090   40.9320 C   0  0  0  0  0  0  0  0  0  0  0  0
   37.0970   28.4480   41.4560 C   0  0  1  0  0  0  0  0  0  0  0  0
   38.0500   29.6300   41.5860 C   0  0  0  0  0  0  0  0  0  0  0  0
   37.6910   29.9160   39.5200 H   0  0  0  0  0  0  0  0  0  0  0  0
   35.4580   30.9360   39.9480 H   0  0  0  0  0  0  0  0  0  0  0  0
   35.8610   31.0170   41.7210 H   0  0  0  0  0  0  0  0  0  0  0  0
   35.5060   28.5220   39.9740 H   0  0  0  0  0  0  0  0  0  0  0  0
   34.9830   28.8670   41.6550 H   0  0  0  0  0  0  0  0  0  0  0  0
   37.5170   27.6620   40.7920 H   0  0  0  0  0  0  0  0  0  0  0  0
   37.9880   30.1410   42.5490 H   0  0  0  0  0  0  0  0  0  0  0  0
   39.0880   29.2880   41.3610 H   0  0  0  0  0  0  0  0  0  0  0  0
   38.2670   34.1600   40.0580 C   0  0  0  0  0  0  0  0  0  0  0  0
   37.5170   32.9890   40.0680 C   0  0  0  0  0  0  0  0  0  0  0  0
   38.1730   31.8050   40.3850 C   0  0  0  0  0  0  0  0  0  0  0  0
   39.5130   31.8650   40.6650 N   0  0  0  0  0  0  0  0  0  0  0  0
   40.2120   33.0160   40.6470 C   0  0  0  0  0  0  0  0  0  0  0  0
   39.6010   34.1610   40.3470 N   0  0  0  0  0  0  0  0  0  0  0  0
   37.7820   35.1190   39.8120 H   0  0  0  0  0  0  0  0  0  0  0  0
   36.4800   32.9620   39.8490 H   0  0  0  0  0  0  0  0  0  0  0  0
   41.2740   33.0300   40.8750 H   0  0  0  0  0  0  0  0  0  0  0  0
   36.8410   27.7640   43.1060 S   0  0  0  0  0  0  0  0  0  0  0  0
   37.9970   27.8570   43.8910 H   0  0  0  0  0  0  0  0  0  0  0  0
  1  6  1  6  0  0  0
  1  2  1  0  0  0  0
  1  5  1  0  0  0  0
  2  3  1  0  0  0  0
  2  8  1  0  0  0  0
  3  4  1  0  0  0  0
  3 10  1  0  0  0  0
  4 11  1  6  0  0  0
  4  5  1  0  0  0  0
  4 23  1  0  0  0  0
  5 12  1  0  0  0  0
  7  2  1  0  0  0  0
  9  3  1  0  0  0  0
 13  5  1  0  0  0  0
 14 15  2  0  0  0  0
 14 19  1  0  0  0  0
 15 16  1  0  0  0  0
 16  1  1  0  0  0  0
 16 17  2  0  0  0  0
 18 17  1  0  0  0  0
 18 22  1  0  0  0  0
 19 18  2  0  0  0  0
 20 14  1  0  0  0  0
 21 15  1  0  0  0  0
 23 24  1  0  0  0  0
M  END
>  <minimizedAffinity>
-3.7424643

$$$$

 OpenBabel03252507523D

 24 25  0  0  1  0  0  0  0  0999 V2000
   37.2620   25.1720   41.8130 C   0  0  2  0  0  0  0  0  0  0  0  0
   38.3870   24.2080   41.6570 C   0  0  0  0  0  0  0  0  0  0  0  0
   37.6860   23.1060   40.8630 C   0  0  0  0  0  0  0  0  0  0  0  0
   36.6460   23.8110   40.0390 C   0  0  1  0  0  0  0  0  0  0  0  0
   36.7840   25.2930   40.3640 C   0  0  0  0  0  0  0  0  0  0  0  0
   36.4370   24.7020   42.3660 H   0  0  0  0  0  0  0  0  0  0  0  0
   38.7640   23.8470   42.6200 H   0  0  0  0  0  0  0  0  0  0  0  0
   39.2010   24.6330   41.0380 H   0  0  0  0  0  0  0  0  0  0  0  0
   37.2300   22.3360   41.5290 H   0  0  0  0  0  0  0  0  0  0  0  0
   38.4300   22.5980   40.2220 H   0  0  0  0  0  0  0  0  0  0  0  0
   35.6190   23.4440   40.2510 H   0  0  0  0  0  0  0  0  0  0  0  0
   37.5060   25.8170   39.7330 H   0  0  0  0  0  0  0  0  0  0  0  0
   35.7750   25.7690   40.3270 H   0  0  0  0  0  0  0  0  0  0  0  0
   37.2350   28.4430   43.6790 C   0  0  0  0  0  0  0  0  0  0  0  0
   36.7690   27.2210   43.2060 C   0  0  0  0  0  0  0  0  0  0  0  0
   37.6130   26.4810   42.3860 C   0  0  0  0  0  0  0  0  0  0  0  0
   38.8470   27.0000   42.0960 N   0  0  0  0  0  0  0  0  0  0  0  0
   39.2710   28.1870   42.5700 C   0  0  0  0  0  0  0  0  0  0  0  0
   38.4760   28.9100   43.3580 N   0  0  0  0  0  0  0  0  0  0  0  0
   36.5940   29.0570   44.3310 H   0  0  0  0  0  0  0  0  0  0  0  0
   35.8090   26.8350   43.4420 H   0  0  0  0  0  0  0  0  0  0  0  0
   40.2560   28.5700   42.3220 H   0  0  0  0  0  0  0  0  0  0  0  0
   37.0100   23.5970   38.2840 S   0  0  0  0  0  0  0  0  0  0  0  0
   36.5690   24.6890   37.5270 H   0  0  0  0  0  0  0  0  0  0  0  0
  1  6  1  1  0  0  0
  1 16  1  0  0  0  0
  2  1  1  0  0  0  0
  2  7  1  0  0  0  0
  3  9  1  0  0  0  0
  3  2  1  0  0  0  0
  4 11  1  1  0  0  0
  4  5  1  0  0  0  0
  4  3  1  0  0  0  0
  5  1  1  0  0  0  0
  8  2  1  0  0  0  0
 10  3  1  0  0  0  0
 12  5  1  0  0  0  0
 13  5  1  0  0  0  0
 14 20  1  0  0  0  0
 15 21  1  0  0  0  0
 15 14  2  0  0  0  0
 16 15  1  0  0  0  0
 17 16  2  0  0  0  0
 17 18  1  0  0  0  0
 18 19  2  0  0  0  0
 19 14  1  0  0  0  0
 22 18  1  0  0  0  0
 23  4  1  0  0  0  0
 24 23  1  0  0  0  0
M  END
>  <minimizedAffinity>
-3.73070002

$$$$
