
 OpenBabel03252503023D

 26 26  0  0  0  0  0  0  0  0999 V2000
   43.4390   35.5250   41.6920 C   0  0  0  0  0  0  0  0  0  0  0  0
   42.7770   36.2350   41.1590 H   0  0  0  0  0  0  0  0  0  0  0  0
   44.4930   35.7650   41.4380 H   0  0  0  0  0  0  0  0  0  0  0  0
   43.2760   35.6410   43.1300 N   0  0  0  0  0  0  0  0  0  0  0  0
   42.5770   36.3860   43.3510 H   0  0  0  0  0  0  0  0  0  0  0  0
   44.7480   35.9130   43.9650 S   0  0  0  0  0  0  0  0  0  0  0  0
   45.9100   35.3430   43.2220 O   0  0  0  0  0  0  0  0  0  0  0  0
   45.8530   34.5750   42.6070 H   0  0  0  0  0  0  0  0  0  0  0  0
   44.8890   37.4030   44.0980 O   0  0  0  0  0  0  0  0  0  0  0  0
   44.1910   37.9990   44.4880 H   0  0  0  0  0  0  0  0  0  0  0  0
   44.6440   35.2770   45.5110 O   0  0  0  0  0  0  0  0  0  0  0  0
   45.3870   34.1150   45.6530 C   0  0  0  0  0  0  0  0  0  0  0  0
   45.7130   33.9440   46.6950 H   0  0  0  0  0  0  0  0  0  0  0  0
   46.2810   34.0800   44.9900 H   0  0  0  0  0  0  0  0  0  0  0  0
   44.7360   33.2570   45.3560 H   0  0  0  0  0  0  0  0  0  0  0  0
   43.1680   33.7990   41.2760 S   0  0  0  0  0  0  0  0  0  0  0  0
   40.6290   32.9350   40.5720 C   0  0  0  0  0  0  0  0  0  0  0  0
   41.7300   33.6690   40.1820 C   0  0  0  0  0  0  0  0  0  0  0  0
   41.7690   34.3290   38.9390 C   0  0  0  0  0  0  0  0  0  0  0  0
   40.6600   34.1920   38.1680 N   0  0  0  0  0  0  0  0  0  0  0  0
   39.6120   33.4770   38.5710 C   0  0  0  0  0  0  0  0  0  0  0  0
   39.5680   32.8490   39.7480 N   0  0  0  0  0  0  0  0  0  0  0  0
   40.6020   32.4280   41.5290 H   0  0  0  0  0  0  0  0  0  0  0  0
   42.6020   34.9000   38.6140 H   0  0  0  0  0  0  0  0  0  0  0  0
   38.1750   33.3360   37.4980 S   0  0  0  0  0  0  0  0  0  0  0  0
   38.0000   31.9380   37.2710 H   0  0  0  0  0  0  0  0  0  0  0  0
  1  4  1  0  0  0  0
  2  1  1  0  0  0  0
  3  1  1  0  0  0  0
  4  5  1  0  0  0  0
  4  6  1  0  0  0  0
  6  9  1  0  0  0  0
  6 11  1  0  0  0  0
  7  6  1  0  0  0  0
  8  7  1  0  0  0  0
  9 10  1  0  0  0  0
 11 12  1  0  0  0  0
 12 13  1  0  0  0  0
 14 12  1  0  0  0  0
 15 12  1  0  0  0  0
 16  1  1  0  0  0  0
 17 23  1  0  0  0  0
 18 17  1  0  0  0  0
 18 16  1  0  0  0  0
 19 18  2  0  0  0  0
 20 21  2  0  0  0  0
 20 19  1  0  0  0  0
 21 22  1  0  0  0  0
 22 17  2  0  0  0  0
 24 19  1  0  0  0  0
 25 21  1  0  0  0  0
 26 25  1  0  0  0  0
M  END
>  <minimizedAffinity>
-4.44809914

>  <minimizedRMSD>
1.06784618

$$$$
