
 OpenBabel03242519163D

 35 37  0  0  1  0  0  0  0  0999 V2000
   47.8980   35.0080   41.9530 C   0  0  0  0  0  0  0  0  0  0  0  0
   48.1710   36.0390   41.6540 H   0  0  0  0  0  0  0  0  0  0  0  0
   48.5060   34.7550   42.8440 H   0  0  0  0  0  0  0  0  0  0  0  0
   48.1930   34.1220   40.8410 C   0  0  0  0  0  0  0  0  0  0  0  0
   48.1190   34.5450   39.5340 C   0  0  0  0  0  0  0  0  0  0  0  0
   48.3870   33.7090   38.4530 C   0  0  0  0  0  0  0  0  0  0  0  0
   48.7320   32.4330   38.7730 N   0  0  0  0  0  0  0  0  0  0  0  0
   48.8020   32.0310   40.0490 C   0  0  0  0  0  0  0  0  0  0  0  0
   48.5380   32.8600   41.0650 N   0  0  0  0  0  0  0  0  0  0  0  0
   47.8380   35.5690   39.3570 H   0  0  0  0  0  0  0  0  0  0  0  0
   48.3130   34.0930   37.4550 H   0  0  0  0  0  0  0  0  0  0  0  0
   49.1520   30.6180   40.4040 C   0  0  2  0  0  0  0  0  0  0  0  0
   49.6860   30.3280   41.7670 C   0  0  0  0  0  0  0  0  0  0  0  0
   50.5950   30.2950   40.5260 C   0  0  2  0  0  0  0  0  0  0  0  0
   48.5610   29.9020   39.8040 H   0  0  0  0  0  0  0  0  0  0  0  0
   49.4270   29.3300   42.1600 H   0  0  0  0  0  0  0  0  0  0  0  0
   49.7690   31.1640   42.4720 H   0  0  0  0  0  0  0  0  0  0  0  0
   50.9160   29.3080   40.1700 H   0  0  0  0  0  0  0  0  0  0  0  0
   51.8530   31.5660   40.5320 S   0  0  0  0  0  0  0  0  0  0  0  0
   51.4930   32.7020   39.7880 H   0  0  0  0  0  0  0  0  0  0  0  0
   46.4690   34.9350   42.3190 C   0  0  0  0  0  0  0  0  0  0  0  0
   45.9190   34.2150   41.6460 H   0  0  0  0  0  0  0  0  0  0  0  0
   45.9030   35.8770   42.2230 H   0  0  0  0  0  0  0  0  0  0  0  0
   44.5510   36.4070   44.0440 Cl  0  0  0  0  0  0  0  0  0  0  0  0
   45.3650   34.9730   44.5780 C   0  0  0  0  0  0  0  0  0  0  0  0
   46.2410   34.3710   43.6860 C   0  0  0  0  0  0  0  0  0  0  0  0
   46.8940   33.2350   44.1010 C   0  0  0  0  0  0  0  0  0  0  0  0
   46.6910   32.7070   45.3570 C   0  0  0  0  0  0  0  0  0  0  0  0
   45.8010   33.3300   46.2460 C   0  0  0  0  0  0  0  0  0  0  0  0
   45.1450   34.4720   45.8240 C   0  0  0  0  0  0  0  0  0  0  0  0
   47.5980   32.7080   43.4560 H   0  0  0  0  0  0  0  0  0  0  0  0
   47.1990   31.8100   45.7020 H   0  0  0  0  0  0  0  0  0  0  0  0
   45.6250   32.9410   47.2260 H   0  0  0  0  0  0  0  0  0  0  0  0
   44.2420   35.1570   46.6430 O   0  0  0  0  0  0  0  0  0  0  0  0
   44.3230   36.1060   46.9200 H   0  0  0  0  0  0  0  0  0  0  0  0
  1 21  1  0  0  0  0
  1  3  1  0  0  0  0
  2  1  1  0  0  0  0
  4  9  1  0  0  0  0
  4  1  1  0  0  0  0
  5  4  2  0  0  0  0
  6  7  2  0  0  0  0
  6  5  1  0  0  0  0
  7  8  1  0  0  0  0
  8 12  1  0  0  0  0
  8  9  2  0  0  0  0
 10  5  1  0  0  0  0
 11  6  1  0  0  0  0
 12 15  1  6  0  0  0
 12 14  1  0  0  0  0
 12 13  1  0  0  0  0
 13 16  1  0  0  0  0
 13 17  1  0  0  0  0
 14 18  1  6  0  0  0
 14 19  1  0  0  0  0
 14 13  1  0  0  0  0
 20 19  1  0  0  0  0
 21 26  1  0  0  0  0
 22 21  1  0  0  0  0
 23 21  1  0  0  0  0
 24 25  1  0  0  0  0
 25 30  1  0  0  0  0
 26 27  1  0  0  0  0
 26 25  2  0  0  0  0
 27 28  2  0  0  0  0
 28 32  1  0  0  0  0
 28 29  1  0  0  0  0
 29 33  1  0  0  0  0
 30 29  2  0  0  0  0
 30 34  1  0  0  0  0
 31 27  1  0  0  0  0
 34 35  1  0  0  0  0
M  END
>  <minimizedAffinity>
-5.37684488

>  <minimizedRMSD>
0.858725488

$$$$
