
 OpenBabel03242510083D

 21 22  0  0  0  0  0  0  0  0999 V2000
   44.5830   33.1260   41.1890 Br  0  0  0  0  0  0  0  0  0  0  0  0
   46.2720   33.9800   40.9420 C   0  0  0  0  0  0  0  0  0  0  0  0
   46.8230   34.7350   41.9480 C   0  0  0  0  0  0  0  0  0  0  0  0
   48.0650   35.3750   41.7940 C   0  0  0  0  0  0  0  0  0  0  0  0
   48.7090   35.2170   40.5980 C   0  0  0  0  0  0  0  0  0  0  0  0
   48.1310   34.4580   39.6170 C   0  0  0  0  0  0  0  0  0  0  0  0
   46.9260   33.8260   39.7390 C   0  0  0  0  0  0  0  0  0  0  0  0
   48.4180   35.9420   42.6290 H   0  0  0  0  0  0  0  0  0  0  0  0
   49.6640   35.7260   40.5150 H   0  0  0  0  0  0  0  0  0  0  0  0
   48.7010   34.3770   38.6880 H   0  0  0  0  0  0  0  0  0  0  0  0
   45.5970   34.0470   45.3280 C   0  0  0  0  0  0  0  0  0  0  0  0
   44.6960   35.1090   45.5830 C   0  0  0  0  0  0  0  0  0  0  0  0
   44.5350   36.0490   44.5630 C   0  0  0  0  0  0  0  0  0  0  0  0
   45.2340   35.8920   43.4150 N   0  0  0  0  0  0  0  0  0  0  0  0
   46.0870   34.8650   43.2040 C   0  0  0  0  0  0  0  0  0  0  0  0
   46.2620   33.9440   44.1720 N   0  0  0  0  0  0  0  0  0  0  0  0
   45.7540   33.3060   46.0760 H   0  0  0  0  0  0  0  0  0  0  0  0
   44.1670   35.1730   46.5280 H   0  0  0  0  0  0  0  0  0  0  0  0
   43.8610   36.8750   44.7080 H   0  0  0  0  0  0  0  0  0  0  0  0
   46.2730   32.8610   38.3860 S   0  0  0  0  0  0  0  0  0  0  0  0
   46.3790   33.6070   37.2010 H   0  0  0  0  0  0  0  0  0  0  0  0
  2  1  1  0  0  0  0
  2  3  1  0  0  0  0
  3 15  1  0  0  0  0
  4  3  2  0  0  0  0
  4  8  1  0  0  0  0
  5  4  1  0  0  0  0
  6  7  1  0  0  0  0
  6  5  2  0  0  0  0
  7  2  2  0  0  0  0
  9  5  1  0  0  0  0
 10  6  1  0  0  0  0
 11 12  1  0  0  0  0
 11 17  1  0  0  0  0
 12 18  1  0  0  0  0
 13 19  1  0  0  0  0
 13 12  2  0  0  0  0
 14 13  1  0  0  0  0
 15 14  2  0  0  0  0
 15 16  1  0  0  0  0
 16 11  2  0  0  0  0
 20  7  1  0  0  0  0
 21 20  1  0  0  0  0
M  END
>  <minimizedAffinity>
-5.06812811

>  <minimizedRMSD>
0.0113744335

$$$$
