
 OpenBabel03242510103D

 21 22  0  0  0  0  0  0  0  0999 V2000
   39.3870   30.2640   42.5530 Br  0  0  0  0  0  0  0  0  0  0  0  0
   37.8090   30.0160   41.5090 C   0  0  0  0  0  0  0  0  0  0  0  0
   37.5410   30.8460   40.4470 C   0  0  0  0  0  0  0  0  0  0  0  0
   36.3880   30.6860   39.6600 C   0  0  0  0  0  0  0  0  0  0  0  0
   35.5360   29.6700   39.9920 C   0  0  0  0  0  0  0  0  0  0  0  0
   35.8340   28.8630   41.0570 C   0  0  0  0  0  0  0  0  0  0  0  0
   36.9470   28.9940   41.8380 C   0  0  0  0  0  0  0  0  0  0  0  0
   36.2590   31.3760   38.8540 H   0  0  0  0  0  0  0  0  0  0  0  0
   34.6560   29.5770   39.3640 H   0  0  0  0  0  0  0  0  0  0  0  0
   35.1080   28.0720   41.2650 H   0  0  0  0  0  0  0  0  0  0  0  0
   40.3940   32.6330   39.0090 C   0  0  0  0  0  0  0  0  0  0  0  0
   40.2890   33.9350   39.5580 C   0  0  0  0  0  0  0  0  0  0  0  0
   39.2170   34.1610   40.4240 C   0  0  0  0  0  0  0  0  0  0  0  0
   38.3600   33.1450   40.6820 N   0  0  0  0  0  0  0  0  0  0  0  0
   38.4900   31.9140   40.1410 C   0  0  0  0  0  0  0  0  0  0  0  0
   39.5160   31.6680   39.3010 N   0  0  0  0  0  0  0  0  0  0  0  0
   41.1950   32.4130   38.3440 H   0  0  0  0  0  0  0  0  0  0  0  0
   41.0120   34.7030   39.3080 H   0  0  0  0  0  0  0  0  0  0  0  0
   39.0930   35.1340   40.8680 H   0  0  0  0  0  0  0  0  0  0  0  0
   37.2280   27.8780   43.2020 S   0  0  0  0  0  0  0  0  0  0  0  0
   38.5760   27.9510   43.5820 H   0  0  0  0  0  0  0  0  0  0  0  0
  2  7  1  0  0  0  0
  2  1  1  0  0  0  0
  3  2  2  0  0  0  0
  4  5  2  0  0  0  0
  4  3  1  0  0  0  0
  5  6  1  0  0  0  0
  6 10  1  0  0  0  0
  6  7  2  0  0  0  0
  7 20  1  0  0  0  0
  8  4  1  0  0  0  0
  9  5  1  0  0  0  0
 11 16  2  0  0  0  0
 11 12  1  0  0  0  0
 12 13  2  0  0  0  0
 13 14  1  0  0  0  0
 13 19  1  0  0  0  0
 15  3  1  0  0  0  0
 15 14  2  0  0  0  0
 16 15  1  0  0  0  0
 17 11  1  0  0  0  0
 18 12  1  0  0  0  0
 20 21  1  0  0  0  0
M  END
>  <minimizedAffinity>
-4.29054689

$$$$

 OpenBabel03242510103D

 21 22  0  0  0  0  0  0  0  0999 V2000
   37.8930   28.3390   39.1470 Br  0  0  0  0  0  0  0  0  0  0  0  0
   37.5660   28.0260   41.0010 C   0  0  0  0  0  0  0  0  0  0  0  0
   37.6640   29.0540   41.9070 C   0  0  0  0  0  0  0  0  0  0  0  0
   37.4280   28.8520   43.2780 C   0  0  0  0  0  0  0  0  0  0  0  0
   37.0960   27.5880   43.6800 C   0  0  0  0  0  0  0  0  0  0  0  0
   37.0070   26.5880   42.7500 C   0  0  0  0  0  0  0  0  0  0  0  0
   37.2310   26.7550   41.4120 C   0  0  0  0  0  0  0  0  0  0  0  0
   37.5270   29.7070   43.9120 H   0  0  0  0  0  0  0  0  0  0  0  0
   36.9220   27.4700   44.7440 H   0  0  0  0  0  0  0  0  0  0  0  0
   36.7380   25.6040   43.1420 H   0  0  0  0  0  0  0  0  0  0  0  0
   39.6400   32.0280   41.1010 C   0  0  0  0  0  0  0  0  0  0  0  0
   38.7040   32.8990   40.4900 C   0  0  0  0  0  0  0  0  0  0  0  0
   37.3960   32.4250   40.3720 C   0  0  0  0  0  0  0  0  0  0  0  0
   37.1050   31.1890   40.8390 N   0  0  0  0  0  0  0  0  0  0  0  0
   38.0220   30.3830   41.4170 C   0  0  0  0  0  0  0  0  0  0  0  0
   39.2930   30.8150   41.5440 N   0  0  0  0  0  0  0  0  0  0  0  0
   40.6490   32.3450   41.2130 H   0  0  0  0  0  0  0  0  0  0  0  0
   39.0070   33.8800   40.1380 H   0  0  0  0  0  0  0  0  0  0  0  0
   36.6480   33.0500   39.9150 H   0  0  0  0  0  0  0  0  0  0  0  0
   37.0840   25.3710   40.2940 S   0  0  0  0  0  0  0  0  0  0  0  0
   36.9620   25.8550   38.9820 H   0  0  0  0  0  0  0  0  0  0  0  0
  1  2  1  0  0  0  0
  2  7  2  0  0  0  0
  2  3  1  0  0  0  0
  3  4  2  0  0  0  0
  4  5  1  0  0  0  0
  4  8  1  0  0  0  0
  5  9  1  0  0  0  0
  6 10  1  0  0  0  0
  6  5  2  0  0  0  0
  7  6  1  0  0  0  0
 11 17  1  0  0  0  0
 11 16  1  0  0  0  0
 12 11  2  0  0  0  0
 13 12  1  0  0  0  0
 13 14  2  0  0  0  0
 14 15  1  0  0  0  0
 15 16  2  0  0  0  0
 15  3  1  0  0  0  0
 18 12  1  0  0  0  0
 19 13  1  0  0  0  0
 20  7  1  0  0  0  0
 21 20  1  0  0  0  0
M  END
>  <minimizedAffinity>
-4.28764963

$$$$

 OpenBabel03242510103D

 21 22  0  0  0  0  0  0  0  0999 V2000
   37.9640   28.2920   39.1580 Br  0  0  0  0  0  0  0  0  0  0  0  0
   37.5870   27.9910   41.0040 C   0  0  0  0  0  0  0  0  0  0  0  0
   37.6460   29.0280   41.9040 C   0  0  0  0  0  0  0  0  0  0  0  0
   37.3730   28.8360   43.2690 C   0  0  0  0  0  0  0  0  0  0  0  0
   37.0460   27.5720   43.6720 C   0  0  0  0  0  0  0  0  0  0  0  0
   36.9970   26.5620   42.7500 C   0  0  0  0  0  0  0  0  0  0  0  0
   37.2570   26.7200   41.4180 C   0  0  0  0  0  0  0  0  0  0  0  0
   37.4420   29.6990   43.8970 H   0  0  0  0  0  0  0  0  0  0  0  0
   36.8430   27.4610   44.7330 H   0  0  0  0  0  0  0  0  0  0  0  0
   36.7300   25.5780   43.1430 H   0  0  0  0  0  0  0  0  0  0  0  0
   37.3580   32.3480   40.3870 C   0  0  0  0  0  0  0  0  0  0  0  0
   38.6690   32.8760   40.4790 C   0  0  0  0  0  0  0  0  0  0  0  0
   39.6310   32.0560   41.0720 C   0  0  0  0  0  0  0  0  0  0  0  0
   39.2620   30.8320   41.5150 N   0  0  0  0  0  0  0  0  0  0  0  0
   38.0010   30.3580   41.4110 C   0  0  0  0  0  0  0  0  0  0  0  0
   37.0510   31.1280   40.8430 N   0  0  0  0  0  0  0  0  0  0  0  0
   36.5900   32.9360   39.9430 H   0  0  0  0  0  0  0  0  0  0  0  0
   38.8950   33.8680   40.1020 H   0  0  0  0  0  0  0  0  0  0  0  0
   40.6430   32.4110   41.1650 H   0  0  0  0  0  0  0  0  0  0  0  0
   37.1620   25.3240   40.3090 S   0  0  0  0  0  0  0  0  0  0  0  0
   37.0720   25.7940   38.9900 H   0  0  0  0  0  0  0  0  0  0  0  0
  1  2  1  0  0  0  0
  2  7  2  0  0  0  0
  2  3  1  0  0  0  0
  3  4  2  0  0  0  0
  4  5  1  0  0  0  0
  4  8  1  0  0  0  0
  5  9  1  0  0  0  0
  6 10  1  0  0  0  0
  6  5  2  0  0  0  0
  7  6  1  0  0  0  0
 11 12  2  0  0  0  0
 11 16  1  0  0  0  0
 12 13  1  0  0  0  0
 13 19  1  0  0  0  0
 13 14  2  0  0  0  0
 15 14  1  0  0  0  0
 15  3  1  0  0  0  0
 16 15  2  0  0  0  0
 17 11  1  0  0  0  0
 18 12  1  0  0  0  0
 20  7  1  0  0  0  0
 21 20  1  0  0  0  0
M  END
>  <minimizedAffinity>
-4.26466179

$$$$

 OpenBabel03242510103D

 21 22  0  0  0  0  0  0  0  0999 V2000
   40.6920   30.2080   42.0540 Br  0  0  0  0  0  0  0  0  0  0  0  0
   39.3200   31.2280   41.2060 C   0  0  0  0  0  0  0  0  0  0  0  0
   38.0330   30.7500   41.1490 C   0  0  0  0  0  0  0  0  0  0  0  0
   37.0030   31.4790   40.5310 C   0  0  0  0  0  0  0  0  0  0  0  0
   37.3300   32.6890   39.9860 C   0  0  0  0  0  0  0  0  0  0  0  0
   38.6220   33.1350   40.0600 C   0  0  0  0  0  0  0  0  0  0  0  0
   39.6430   32.4480   40.6540 C   0  0  0  0  0  0  0  0  0  0  0  0
   36.0320   31.0320   40.5330 H   0  0  0  0  0  0  0  0  0  0  0  0
   36.5100   33.2240   39.5170 H   0  0  0  0  0  0  0  0  0  0  0  0
   38.8100   34.1090   39.6020 H   0  0  0  0  0  0  0  0  0  0  0  0
   37.4050   27.1600   41.4970 C   0  0  0  0  0  0  0  0  0  0  0  0
   37.2030   26.9860   42.8880 C   0  0  0  0  0  0  0  0  0  0  0  0
   37.2910   28.1340   43.6790 C   0  0  0  0  0  0  0  0  0  0  0  0
   37.5580   29.3180   43.0830 N   0  0  0  0  0  0  0  0  0  0  0  0
   37.7460   29.4500   41.7510 C   0  0  0  0  0  0  0  0  0  0  0  0
   37.6670   28.3580   40.9630 N   0  0  0  0  0  0  0  0  0  0  0  0
   37.3480   26.3150   40.8540 H   0  0  0  0  0  0  0  0  0  0  0  0
   36.9910   26.0050   43.3000 H   0  0  0  0  0  0  0  0  0  0  0  0
   37.1440   28.0540   44.7420 H   0  0  0  0  0  0  0  0  0  0  0  0
   41.2900   33.1330   40.6890 S   0  0  0  0  0  0  0  0  0  0  0  0
   42.0420   32.4650   41.6670 H   0  0  0  0  0  0  0  0  0  0  0  0
  2  1  1  0  0  0  0
  3  2  1  0  0  0  0
  3 15  1  0  0  0  0
  4  8  1  0  0  0  0
  4  3  2  0  0  0  0
  5  6  2  0  0  0  0
  5  4  1  0  0  0  0
  6  7  1  0  0  0  0
  7 20  1  0  0  0  0
  7  2  2  0  0  0  0
  9  5  1  0  0  0  0
 10  6  1  0  0  0  0
 11 12  1  0  0  0  0
 12 18  1  0  0  0  0
 12 13  2  0  0  0  0
 13 19  1  0  0  0  0
 14 13  1  0  0  0  0
 15 14  2  0  0  0  0
 16 11  2  0  0  0  0
 16 15  1  0  0  0  0
 17 11  1  0  0  0  0
 20 21  1  0  0  0  0
M  END
>  <minimizedAffinity>
-4.23822308

$$$$

 OpenBabel03242510103D

 21 22  0  0  0  0  0  0  0  0999 V2000
   37.9340   30.5680   39.6500 Br  0  0  0  0  0  0  0  0  0  0  0  0
   37.6360   29.5060   41.2070 C   0  0  0  0  0  0  0  0  0  0  0  0
   36.6360   28.5640   41.2260 C   0  0  0  0  0  0  0  0  0  0  0  0
   36.3940   27.7680   42.3580 C   0  0  0  0  0  0  0  0  0  0  0  0
   37.1950   27.9670   43.4490 C   0  0  0  0  0  0  0  0  0  0  0  0
   38.1810   28.9140   43.3960 C   0  0  0  0  0  0  0  0  0  0  0  0
   38.4390   29.7010   42.3090 C   0  0  0  0  0  0  0  0  0  0  0  0
   35.5960   27.0600   42.2850 H   0  0  0  0  0  0  0  0  0  0  0  0
   36.9790   27.3350   44.3050 H   0  0  0  0  0  0  0  0  0  0  0  0
   38.7810   29.0190   44.3030 H   0  0  0  0  0  0  0  0  0  0  0  0
   33.9460   29.0180   38.7850 C   0  0  0  0  0  0  0  0  0  0  0  0
   34.2550   28.0850   37.7640 C   0  0  0  0  0  0  0  0  0  0  0  0
   35.4030   27.3130   37.9520 C   0  0  0  0  0  0  0  0  0  0  0  0
   36.1370   27.4980   39.0740 N   0  0  0  0  0  0  0  0  0  0  0  0
   35.8140   28.3980   40.0290 C   0  0  0  0  0  0  0  0  0  0  0  0
   34.7100   29.1560   39.8740 N   0  0  0  0  0  0  0  0  0  0  0  0
   33.0810   29.6290   38.6860 H   0  0  0  0  0  0  0  0  0  0  0  0
   33.6210   27.9890   36.8900 H   0  0  0  0  0  0  0  0  0  0  0  0
   35.6810   26.5900   37.2060 H   0  0  0  0  0  0  0  0  0  0  0  0
   39.7560   30.9050   42.3600 S   0  0  0  0  0  0  0  0  0  0  0  0
   40.0770   31.2860   41.0480 H   0  0  0  0  0  0  0  0  0  0  0  0
  1  2  1  0  0  0  0
  2  3  2  0  0  0  0
  2  7  1  0  0  0  0
  3  4  1  0  0  0  0
  4  5  2  0  0  0  0
  5  9  1  0  0  0  0
  6  5  1  0  0  0  0
  6 10  1  0  0  0  0
  7 20  1  0  0  0  0
  7  6  2  0  0  0  0
  8  4  1  0  0  0  0
 11 16  1  0  0  0  0
 12 13  1  0  0  0  0
 12 11  2  0  0  0  0
 13 14  2  0  0  0  0
 14 15  1  0  0  0  0
 15  3  1  0  0  0  0
 16 15  2  0  0  0  0
 17 11  1  0  0  0  0
 18 12  1  0  0  0  0
 19 13  1  0  0  0  0
 21 20  1  0  0  0  0
M  END
>  <minimizedAffinity>
-4.18506193

$$$$

 OpenBabel03242510103D

 21 22  0  0  0  0  0  0  0  0999 V2000
   36.9370   26.6610   39.9810 Br  0  0  0  0  0  0  0  0  0  0  0  0
   38.0920   26.7870   41.4950 C   0  0  0  0  0  0  0  0  0  0  0  0
   38.4660   28.0150   41.9830 C   0  0  0  0  0  0  0  0  0  0  0  0
   39.3150   28.1370   43.0970 C   0  0  0  0  0  0  0  0  0  0  0  0
   39.7580   26.9830   43.6790 C   0  0  0  0  0  0  0  0  0  0  0  0
   39.3650   25.7760   43.1660 C   0  0  0  0  0  0  0  0  0  0  0  0
   38.5420   25.6270   42.0860 C   0  0  0  0  0  0  0  0  0  0  0  0
   39.5550   29.1310   43.4090 H   0  0  0  0  0  0  0  0  0  0  0  0
   40.4120   27.1160   44.5350 H   0  0  0  0  0  0  0  0  0  0  0  0
   39.7580   24.8960   43.6810 H   0  0  0  0  0  0  0  0  0  0  0  0
   38.2350   30.8740   39.7090 C   0  0  0  0  0  0  0  0  0  0  0  0
   37.0030   31.4820   40.0550 C   0  0  0  0  0  0  0  0  0  0  0  0
   36.2750   30.8760   41.0820 C   0  0  0  0  0  0  0  0  0  0  0  0
   36.7800   29.7680   41.6720 N   0  0  0  0  0  0  0  0  0  0  0  0
   37.9600   29.2130   41.3180 C   0  0  0  0  0  0  0  0  0  0  0  0
   38.6830   29.7780   40.3300 N   0  0  0  0  0  0  0  0  0  0  0  0
   38.8250   31.3000   38.9330 H   0  0  0  0  0  0  0  0  0  0  0  0
   36.6580   32.3720   39.5390 H   0  0  0  0  0  0  0  0  0  0  0  0
   35.3330   31.2990   41.3820 H   0  0  0  0  0  0  0  0  0  0  0  0
   38.0990   23.9970   41.5080 S   0  0  0  0  0  0  0  0  0  0  0  0
   36.9690   24.0970   40.6820 H   0  0  0  0  0  0  0  0  0  0  0  0
  1  2  1  0  0  0  0
  2  3  2  0  0  0  0
  2  7  1  0  0  0  0
  3  4  1  0  0  0  0
  4  8  1  0  0  0  0
  4  5  2  0  0  0  0
  5  9  1  0  0  0  0
  6  5  1  0  0  0  0
  6 10  1  0  0  0  0
  7  6  2  0  0  0  0
 11 12  2  0  0  0  0
 11 16  1  0  0  0  0
 12 13  1  0  0  0  0
 13 19  1  0  0  0  0
 13 14  2  0  0  0  0
 15 14  1  0  0  0  0
 15  3  1  0  0  0  0
 16 15  2  0  0  0  0
 17 11  1  0  0  0  0
 18 12  1  0  0  0  0
 20  7  1  0  0  0  0
 21 20  1  0  0  0  0
M  END
>  <minimizedAffinity>
-4.18346262

$$$$

 OpenBabel03242510103D

 21 22  0  0  0  0  0  0  0  0999 V2000
   40.4450   29.6510   41.2750 Br  0  0  0  0  0  0  0  0  0  0  0  0
   38.9190   28.7260   41.9490 C   0  0  0  0  0  0  0  0  0  0  0  0
   37.6600   29.0380   41.4960 C   0  0  0  0  0  0  0  0  0  0  0  0
   36.5190   28.3730   41.9740 C   0  0  0  0  0  0  0  0  0  0  0  0
   36.7060   27.3980   42.9140 C   0  0  0  0  0  0  0  0  0  0  0  0
   37.9740   27.1120   43.3430 C   0  0  0  0  0  0  0  0  0  0  0  0
   39.1010   27.7420   42.8960 C   0  0  0  0  0  0  0  0  0  0  0  0
   35.5790   28.6810   41.5670 H   0  0  0  0  0  0  0  0  0  0  0  0
   35.8030   26.9070   43.2600 H   0  0  0  0  0  0  0  0  0  0  0  0
   38.0500   26.3230   44.0950 H   0  0  0  0  0  0  0  0  0  0  0  0
   37.4180   30.7110   38.2490 C   0  0  0  0  0  0  0  0  0  0  0  0
   37.2640   32.0790   38.5850 C   0  0  0  0  0  0  0  0  0  0  0  0
   37.2470   32.3890   39.9460 C   0  0  0  0  0  0  0  0  0  0  0  0
   37.3770   31.3860   40.8450 N   0  0  0  0  0  0  0  0  0  0  0  0
   37.5230   30.0900   40.4910 C   0  0  0  0  0  0  0  0  0  0  0  0
   37.5420   29.7620   39.1830 N   0  0  0  0  0  0  0  0  0  0  0  0
   37.4360   30.4260   37.2240 H   0  0  0  0  0  0  0  0  0  0  0  0
   37.1650   32.8330   37.8110 H   0  0  0  0  0  0  0  0  0  0  0  0
   37.1330   33.4140   40.2530 H   0  0  0  0  0  0  0  0  0  0  0  0
   40.7040   27.2810   43.5320 S   0  0  0  0  0  0  0  0  0  0  0  0
   41.6960   27.7590   42.6620 H   0  0  0  0  0  0  0  0  0  0  0  0
  1  2  1  0  0  0  0
  2  7  1  0  0  0  0
  3  2  2  0  0  0  0
  3  4  1  0  0  0  0
  4  5  2  0  0  0  0
  5  9  1  0  0  0  0
  5  6  1  0  0  0  0
  6 10  1  0  0  0  0
  7  6  2  0  0  0  0
  7 20  1  0  0  0  0
  8  4  1  0  0  0  0
 11 12  2  0  0  0  0
 11 16  1  0  0  0  0
 12 13  1  0  0  0  0
 13 19  1  0  0  0  0
 13 14  2  0  0  0  0
 15 14  1  0  0  0  0
 15  3  1  0  0  0  0
 16 15  2  0  0  0  0
 17 11  1  0  0  0  0
 18 12  1  0  0  0  0
 21 20  1  0  0  0  0
M  END
>  <minimizedAffinity>
-4.12851429

$$$$

 OpenBabel03242510103D

 21 22  0  0  0  0  0  0  0  0999 V2000
   39.5970   29.7060   39.6390 Br  0  0  0  0  0  0  0  0  0  0  0  0
   39.0620   31.5310   39.7950 C   0  0  0  0  0  0  0  0  0  0  0  0
   37.7420   31.8830   39.6460 C   0  0  0  0  0  0  0  0  0  0  0  0
   37.3190   33.2190   39.7560 C   0  0  0  0  0  0  0  0  0  0  0  0
   38.2740   34.1610   40.0190 C   0  0  0  0  0  0  0  0  0  0  0  0
   39.5800   33.7750   40.1620 C   0  0  0  0  0  0  0  0  0  0  0  0
   40.0190   32.4850   40.0600 C   0  0  0  0  0  0  0  0  0  0  0  0
   36.2740   33.4020   39.6260 H   0  0  0  0  0  0  0  0  0  0  0  0
   37.9120   35.1810   40.0970 H   0  0  0  0  0  0  0  0  0  0  0  0
   40.2880   34.5800   40.3690 H   0  0  0  0  0  0  0  0  0  0  0  0
   35.1710   29.3270   40.1470 C   0  0  0  0  0  0  0  0  0  0  0  0
   34.9210   28.8380   38.8410 C   0  0  0  0  0  0  0  0  0  0  0  0
   35.6610   29.4160   37.8070 C   0  0  0  0  0  0  0  0  0  0  0  0
   36.5530   30.3880   38.1080 N   0  0  0  0  0  0  0  0  0  0  0  0
   36.7680   30.8310   39.3670 C   0  0  0  0  0  0  0  0  0  0  0  0
   36.0670   30.2910   40.3840 N   0  0  0  0  0  0  0  0  0  0  0  0
   34.6310   28.9170   40.9680 H   0  0  0  0  0  0  0  0  0  0  0  0
   34.1890   28.0550   38.6720 H   0  0  0  0  0  0  0  0  0  0  0  0
   35.5080   29.0800   36.7970 H   0  0  0  0  0  0  0  0  0  0  0  0
   41.7510   32.1040   40.2660 S   0  0  0  0  0  0  0  0  0  0  0  0
   41.8890   30.7290   40.5140 H   0  0  0  0  0  0  0  0  0  0  0  0
  1  2  1  0  0  0  0
  2  7  1  0  0  0  0
  3  4  1  0  0  0  0
  3  2  2  0  0  0  0
  4  5  2  0  0  0  0
  5  9  1  0  0  0  0
  5  6  1  0  0  0  0
  6 10  1  0  0  0  0
  7  6  2  0  0  0  0
  7 20  1  0  0  0  0
  8  4  1  0  0  0  0
 11 16  1  0  0  0  0
 11 17  1  0  0  0  0
 12 11  2  0  0  0  0
 13 14  2  0  0  0  0
 13 12  1  0  0  0  0
 14 15  1  0  0  0  0
 15  3  1  0  0  0  0
 15 16  2  0  0  0  0
 18 12  1  0  0  0  0
 19 13  1  0  0  0  0
 20 21  1  0  0  0  0
M  END
>  <minimizedAffinity>
-4.00910473

$$$$

 OpenBabel03242510103D

 21 22  0  0  0  0  0  0  0  0999 V2000
   36.3830   27.1430   38.1960 Br  0  0  0  0  0  0  0  0  0  0  0  0
   36.6360   26.2140   39.8440 C   0  0  0  0  0  0  0  0  0  0  0  0
   36.9640   26.9020   40.9860 C   0  0  0  0  0  0  0  0  0  0  0  0
   37.1550   26.2440   42.2130 C   0  0  0  0  0  0  0  0  0  0  0  0
   37.0030   24.8860   42.2290 C   0  0  0  0  0  0  0  0  0  0  0  0
   36.6760   24.2320   41.0720 C   0  0  0  0  0  0  0  0  0  0  0  0
   36.4840   24.8450   39.8660 C   0  0  0  0  0  0  0  0  0  0  0  0
   37.4080   26.8580   43.0510 H   0  0  0  0  0  0  0  0  0  0  0  0
   37.1590   24.4120   43.1920 H   0  0  0  0  0  0  0  0  0  0  0  0
   36.5720   23.1470   41.1580 H   0  0  0  0  0  0  0  0  0  0  0  0
   38.4810   30.2090   40.5800 C   0  0  0  0  0  0  0  0  0  0  0  0
   37.3950   31.1020   40.7550 C   0  0  0  0  0  0  0  0  0  0  0  0
   36.1500   30.5260   41.0120 C   0  0  0  0  0  0  0  0  0  0  0  0
   36.0550   29.1780   41.0780 N   0  0  0  0  0  0  0  0  0  0  0  0
   37.1120   28.3540   40.9070 C   0  0  0  0  0  0  0  0  0  0  0  0
   38.3270   28.8830   40.6570 N   0  0  0  0  0  0  0  0  0  0  0  0
   39.4500   30.6000   40.3820 H   0  0  0  0  0  0  0  0  0  0  0  0
   37.5430   32.1750   40.6890 H   0  0  0  0  0  0  0  0  0  0  0  0
   35.2930   31.1630   41.1520 H   0  0  0  0  0  0  0  0  0  0  0  0
   36.0600   23.8830   38.4230 S   0  0  0  0  0  0  0  0  0  0  0  0
   35.5350   24.7390   37.4420 H   0  0  0  0  0  0  0  0  0  0  0  0
  1  2  1  0  0  0  0
  2  7  2  0  0  0  0
  2  3  1  0  0  0  0
  3  4  2  0  0  0  0
  4  5  1  0  0  0  0
  4  8  1  0  0  0  0
  5  9  1  0  0  0  0
  6 10  1  0  0  0  0
  6  5  2  0  0  0  0
  7  6  1  0  0  0  0
 11 16  2  0  0  0  0
 11 12  1  0  0  0  0
 12 13  2  0  0  0  0
 13 14  1  0  0  0  0
 13 19  1  0  0  0  0
 15  3  1  0  0  0  0
 15 14  2  0  0  0  0
 16 15  1  0  0  0  0
 17 11  1  0  0  0  0
 18 12  1  0  0  0  0
 20  7  1  0  0  0  0
 21 20  1  0  0  0  0
M  END
>  <minimizedAffinity>
-4.00169802

$$$$
