
 OpenBabel03252507483D

 36 37  0  0  0  0  0  0  0  0999 V2000
   47.1190   34.3180   40.8510 C   0  0  0  0  0  0  0  0  0  0  0  0
   46.5060   33.4470   40.5450 H   0  0  0  0  0  0  0  0  0  0  0  0
   47.2460   34.9270   39.9080 H   0  0  0  0  0  0  0  0  0  0  0  0
   48.4580   33.9200   41.3050 C   0  0  0  0  0  0  0  0  0  0  0  0
   48.9560   32.7120   40.8140 C   0  0  0  0  0  0  0  0  0  0  0  0
   50.2040   32.2480   41.1800 C   0  0  0  0  0  0  0  0  0  0  0  0
   50.9330   33.0270   42.0470 N   0  0  0  0  0  0  0  0  0  0  0  0
   50.4050   34.2100   42.5060 C   0  0  0  0  0  0  0  0  0  0  0  0
   49.2040   34.6240   42.1340 N   0  0  0  0  0  0  0  0  0  0  0  0
   50.6150   31.3170   40.8160 H   0  0  0  0  0  0  0  0  0  0  0  0
   50.9980   34.8160   43.1930 H   0  0  0  0  0  0  0  0  0  0  0  0
   47.9650   31.7320   39.6860 S   0  0  0  0  0  0  0  0  0  0  0  0
   48.8170   31.5160   38.1140 C   0  0  0  0  0  0  0  0  0  0  0  0
   48.2100   30.9040   37.4340 H   0  0  0  0  0  0  0  0  0  0  0  0
   49.8130   31.0470   38.2270 H   0  0  0  0  0  0  0  0  0  0  0  0
   48.9720   32.8650   37.4630 C   0  0  0  0  0  0  0  0  0  0  0  0
   50.0640   33.1340   37.5190 H   0  0  0  0  0  0  0  0  0  0  0  0
   48.4290   33.6470   38.0060 H   0  0  0  0  0  0  0  0  0  0  0  0
   48.5100   32.7870   35.7110 S   0  0  0  0  0  0  0  0  0  0  0  0
   49.4520   33.5060   34.9520 H   0  0  0  0  0  0  0  0  0  0  0  0
   46.3290   35.0350   41.9010 C   0  0  0  0  0  0  0  0  0  0  0  0
   46.6610   34.6770   42.8730 H   0  0  0  0  0  0  0  0  0  0  0  0
   46.6040   36.1240   41.7980 H   0  0  0  0  0  0  0  0  0  0  0  0
   44.8560   34.9540   41.6900 C   0  0  0  0  0  0  0  0  0  0  0  0
   43.9660   35.4110   42.6960 C   0  0  0  0  0  0  0  0  0  0  0  0
   42.3140   35.1090   41.9860 S   0  0  0  0  0  0  0  0  0  0  0  0
   43.0990   34.3920   40.3980 C   0  0  0  0  0  0  0  0  0  0  0  0
   44.2130   34.4950   40.6500 N   0  0  0  0  0  0  0  0  0  0  0  0
   44.1930   35.8410   43.6630 H   0  0  0  0  0  0  0  0  0  0  0  0
   42.3510   33.9210   39.3300 O   0  0  0  0  0  0  0  0  0  0  0  0
   40.4020   34.3870   37.5940 O   0  0  0  0  0  0  0  0  0  0  0  0
   41.4920   35.0710   38.4110 P   0  0  0  0  0  0  0  0  0  0  0  0
   40.7680   36.1710   39.4890 O   0  0  0  0  0  0  0  0  0  0  0  0
   40.3890   35.6690   40.2400 H   0  0  0  0  0  0  0  0  0  0  0  0
   42.5580   35.9380   37.4270 O   0  0  0  0  0  0  0  0  0  0  0  0
   43.0500   35.3740   36.8100 H   0  0  0  0  0  0  0  0  0  0  0  0
  1  4  1  0  0  0  0
  1 21  1  0  0  0  0
  2  1  1  0  0  0  0
  3  1  1  0  0  0  0
  4  9  1  0  0  0  0
  5  6  1  0  0  0  0
  5  4  2  0  0  0  0
  6  7  2  0  0  0  0
  7  8  1  0  0  0  0
  8 11  1  0  0  0  0
  9  8  2  0  0  0  0
 10  6  1  0  0  0  0
 12  5  1  0  0  0  0
 13 15  1  0  0  0  0
 13 12  1  0  0  0  0
 14 13  1  0  0  0  0
 16 17  1  0  0  0  0
 16 18  1  0  0  0  0
 16 13  1  0  0  0  0
 19 16  1  0  0  0  0
 20 19  1  0  0  0  0
 21 22  1  0  0  0  0
 23 21  1  0  0  0  0
 24 21  1  0  0  0  0
 24 25  2  0  0  0  0
 25 29  1  0  0  0  0
 26 25  1  0  0  0  0
 27 28  2  0  0  0  0
 27 26  1  0  0  0  0
 28 24  1  0  0  0  0
 30 27  1  0  0  0  0
 31 32  2  0  0  0  0
 32 30  1  0  0  0  0
 32 33  1  0  0  0  0
 33 34  1  0  0  0  0
 35 32  1  0  0  0  0
 36 35  1  0  0  0  0
M  END
>  <minimizedAffinity>
-4.37612581

>  <minimizedRMSD>
0.868373513

$$$$
