
 OpenBabel03242521153D

 27 28  0  0  0  0  0  0  0  0999 V2000
   44.5110   35.8640   44.8630 C   0  0  0  0  0  0  0  0  0  0  0  0
   45.1360   35.8030   43.5900 C   0  0  0  0  0  0  0  0  0  0  0  0
   46.0120   34.7350   43.3740 C   0  0  0  0  0  0  0  0  0  0  0  0
   46.2240   33.8150   44.3770 N   0  0  0  0  0  0  0  0  0  0  0  0
   45.6040   33.9250   45.5620 C   0  0  0  0  0  0  0  0  0  0  0  0
   44.7430   34.9410   45.8270 N   0  0  0  0  0  0  0  0  0  0  0  0
   43.8200   36.6600   45.1060 H   0  0  0  0  0  0  0  0  0  0  0  0
   44.9150   36.5600   42.8650 H   0  0  0  0  0  0  0  0  0  0  0  0
   46.6490   34.6540   42.1080 N   0  0  0  0  0  0  0  0  0  0  0  0
   47.8810   35.1560   41.9710 C   0  0  0  0  0  0  0  0  0  0  0  0
   48.5110   35.0810   40.7410 C   0  0  0  0  0  0  0  0  0  0  0  0
   47.8360   34.4900   39.7120 C   0  0  0  0  0  0  0  0  0  0  0  0
   48.4190   34.4200   38.5720 O   0  0  0  0  0  0  0  0  0  0  0  0
   46.5930   33.9740   39.8180 N   0  0  0  0  0  0  0  0  0  0  0  0
   46.0390   34.0800   41.0380 C   0  0  0  0  0  0  0  0  0  0  0  0
   44.8860   33.6350   41.2570 O   0  0  0  0  0  0  0  0  0  0  0  0
   48.3520   35.6090   42.8350 H   0  0  0  0  0  0  0  0  0  0  0  0
   49.4990   35.4890   40.6470 H   0  0  0  0  0  0  0  0  0  0  0  0
   46.1220   33.5380   39.0170 H   0  0  0  0  0  0  0  0  0  0  0  0
   45.9890   32.8270   46.4680 C   0  0  0  0  0  0  0  0  0  0  0  0
   47.0470   33.0370   46.7890 H   0  0  0  0  0  0  0  0  0  0  0  0
   45.9220   31.8310   45.9990 H   0  0  0  0  0  0  0  0  0  0  0  0
   45.1880   32.8600   47.7670 C   0  0  0  0  0  0  0  0  0  0  0  0
   45.7140   33.6200   48.4150 H   0  0  0  0  0  0  0  0  0  0  0  0
   44.1800   33.2660   47.6120 H   0  0  0  0  0  0  0  0  0  0  0  0
   45.2490   31.3040   48.6650 S   0  0  0  0  0  0  0  0  0  0  0  0
   46.5650   30.7970   48.5730 H   0  0  0  0  0  0  0  0  0  0  0  0
  1  7  1  0  0  0  0
  1  6  1  0  0  0  0
  2  1  2  0  0  0  0
  3  2  1  0  0  0  0
  3  4  2  0  0  0  0
  4  5  1  0  0  0  0
  5  6  2  0  0  0  0
  5 20  1  0  0  0  0
  8  2  1  0  0  0  0
  9  3  1  0  0  0  0
 10  9  1  0  0  0  0
 10 17  1  0  0  0  0
 11 10  2  0  0  0  0
 12 14  1  0  0  0  0
 12 11  1  0  0  0  0
 13 12  2  0  0  0  0
 14 15  1  0  0  0  0
 15 16  2  0  0  0  0
 15  9  1  0  0  0  0
 18 11  1  0  0  0  0
 19 14  1  0  0  0  0
 20 21  1  0  0  0  0
 20 23  1  0  0  0  0
 22 20  1  0  0  0  0
 23 24  1  0  0  0  0
 23 26  1  0  0  0  0
 25 23  1  0  0  0  0
 27 26  1  0  0  0  0
M  END
>  <minimizedAffinity>
-5.46357679

>  <minimizedRMSD>
0.613200843

$$$$
