
 OpenBabel03252509303D

 14 14  0  0  0  0  0  0  0  0999 V2000
   37.0820   27.3400   42.4260 C   0  0  0  0  0  0  0  0  0  0  0  0
   36.3740   28.3160   41.7000 C   0  0  0  0  0  0  0  0  0  0  0  0
   36.9170   29.5910   41.6840 C   0  0  0  0  0  0  0  0  0  0  0  0
   38.0780   29.8560   42.3490 N   0  0  0  0  0  0  0  0  0  0  0  0
   38.7260   28.8680   43.0410 C   0  0  0  0  0  0  0  0  0  0  0  0
   38.2190   27.6320   43.0670 N   0  0  0  0  0  0  0  0  0  0  0  0
   36.7140   26.3220   42.4790 H   0  0  0  0  0  0  0  0  0  0  0  0
   35.4740   28.0540   41.2000 H   0  0  0  0  0  0  0  0  0  0  0  0
   39.6250   29.2620   43.5010 H   0  0  0  0  0  0  0  0  0  0  0  0
   36.1840   30.6060   40.9300 C   0  0  0  0  0  0  0  0  0  0  0  0
   35.7310   30.1770   40.0110 H   0  0  0  0  0  0  0  0  0  0  0  0
   35.3250   31.0470   41.5110 H   0  0  0  0  0  0  0  0  0  0  0  0
   37.3370   31.9050   40.3710 S   0  0  0  0  0  0  0  0  0  0  0  0
   37.8980   31.5650   39.1170 H   0  0  0  0  0  0  0  0  0  0  0  0
  1  7  1  0  0  0  0
  1  6  1  0  0  0  0
  2  1  2  0  0  0  0
  3  2  1  0  0  0  0
  3  4  2  0  0  0  0
  4  5  1  0  0  0  0
  5  6  2  0  0  0  0
  5  9  1  0  0  0  0
  8  2  1  0  0  0  0
 10 12  1  0  0  0  0
 10  3  1  0  0  0  0
 11 10  1  0  0  0  0
 13 10  1  0  0  0  0
 14 13  1  0  0  0  0
M  END
>  <minimizedAffinity>
-2.74628425

$$$$

 OpenBabel03252509303D

 14 14  0  0  0  0  0  0  0  0999 V2000
   38.7430   28.6860   43.0690 C   0  0  0  0  0  0  0  0  0  0  0  0
   38.1450   29.7510   42.3710 C   0  0  0  0  0  0  0  0  0  0  0  0
   36.9180   29.4940   41.7800 C   0  0  0  0  0  0  0  0  0  0  0  0
   36.3450   28.2600   41.8870 N   0  0  0  0  0  0  0  0  0  0  0  0
   36.9710   27.2580   42.5790 C   0  0  0  0  0  0  0  0  0  0  0  0
   38.1550   27.4880   43.1560 N   0  0  0  0  0  0  0  0  0  0  0  0
   39.7020   28.8190   43.5550 H   0  0  0  0  0  0  0  0  0  0  0  0
   38.6370   30.6920   42.3190 H   0  0  0  0  0  0  0  0  0  0  0  0
   36.3700   26.3570   42.5570 H   0  0  0  0  0  0  0  0  0  0  0  0
   36.2950   30.5990   41.0550 C   0  0  0  0  0  0  0  0  0  0  0  0
   35.7700   30.2390   40.1450 H   0  0  0  0  0  0  0  0  0  0  0  0
   35.5110   31.1340   41.6620 H   0  0  0  0  0  0  0  0  0  0  0  0
   37.5820   31.7560   40.4760 S   0  0  0  0  0  0  0  0  0  0  0  0
   38.0660   31.3640   39.2050 H   0  0  0  0  0  0  0  0  0  0  0  0
  1  6  1  0  0  0  0
  1  7  1  0  0  0  0
  2  1  2  0  0  0  0
  3  4  2  0  0  0  0
  3  2  1  0  0  0  0
  4  5  1  0  0  0  0
  5  6  2  0  0  0  0
  8  2  1  0  0  0  0
  9  5  1  0  0  0  0
 10 12  1  0  0  0  0
 10  3  1  0  0  0  0
 11 10  1  0  0  0  0
 13 10  1  0  0  0  0
 14 13  1  0  0  0  0
M  END
>  <minimizedAffinity>
-2.69600654

$$$$

 OpenBabel03252509303D

 14 14  0  0  0  0  0  0  0  0999 V2000
   40.0770   25.6070   43.6770 C   0  0  0  0  0  0  0  0  0  0  0  0
   39.3060   26.7830   43.6270 C   0  0  0  0  0  0  0  0  0  0  0  0
   38.1240   26.7200   42.9070 C   0  0  0  0  0  0  0  0  0  0  0  0
   37.7530   25.5620   42.2880 N   0  0  0  0  0  0  0  0  0  0  0  0
   38.5410   24.4450   42.3690 C   0  0  0  0  0  0  0  0  0  0  0  0
   39.6850   24.4870   43.0600 N   0  0  0  0  0  0  0  0  0  0  0  0
   41.0120   25.5870   44.2240 H   0  0  0  0  0  0  0  0  0  0  0  0
   39.6430   27.6580   44.1280 H   0  0  0  0  0  0  0  0  0  0  0  0
   38.0890   23.6270   41.8200 H   0  0  0  0  0  0  0  0  0  0  0  0
   37.3220   27.9400   42.8540 C   0  0  0  0  0  0  0  0  0  0  0  0
   36.7440   28.0020   41.9080 H   0  0  0  0  0  0  0  0  0  0  0  0
   36.5550   27.9970   43.6790 H   0  0  0  0  0  0  0  0  0  0  0  0
   38.4200   29.3970   42.8760 S   0  0  0  0  0  0  0  0  0  0  0  0
   38.8060   29.7480   41.5610 H   0  0  0  0  0  0  0  0  0  0  0  0
  1  7  1  0  0  0  0
  2  1  1  0  0  0  0
  2  8  1  0  0  0  0
  3  2  2  0  0  0  0
  4  5  2  0  0  0  0
  4  3  1  0  0  0  0
  5  6  1  0  0  0  0
  6  1  2  0  0  0  0
  9  5  1  0  0  0  0
 10 13  1  0  0  0  0
 10  3  1  0  0  0  0
 10 12  1  0  0  0  0
 11 10  1  0  0  0  0
 14 13  1  0  0  0  0
M  END
>  <minimizedAffinity>
-2.69566703

$$$$

 OpenBabel03252509303D

 14 14  0  0  0  0  0  0  0  0999 V2000
   35.5520   28.6720   40.7390 C   0  0  0  0  0  0  0  0  0  0  0  0
   36.4780   28.3670   41.7550 C   0  0  0  0  0  0  0  0  0  0  0  0
   37.3320   29.3860   42.1420 C   0  0  0  0  0  0  0  0  0  0  0  0
   37.2580   30.6130   41.5490 N   0  0  0  0  0  0  0  0  0  0  0  0
   36.3380   30.8570   40.5650 C   0  0  0  0  0  0  0  0  0  0  0  0
   35.5040   29.8850   40.1780 N   0  0  0  0  0  0  0  0  0  0  0  0
   34.8550   27.9210   40.3900 H   0  0  0  0  0  0  0  0  0  0  0  0
   36.4920   27.3940   42.1810 H   0  0  0  0  0  0  0  0  0  0  0  0
   36.4250   31.8790   40.2150 H   0  0  0  0  0  0  0  0  0  0  0  0
   38.2940   29.0710   43.1960 C   0  0  0  0  0  0  0  0  0  0  0  0
   39.2960   29.4890   42.9660 H   0  0  0  0  0  0  0  0  0  0  0  0
   38.0070   29.5090   44.1950 H   0  0  0  0  0  0  0  0  0  0  0  0
   38.5100   27.2630   43.3090 S   0  0  0  0  0  0  0  0  0  0  0  0
   39.5300   26.8290   42.4290 H   0  0  0  0  0  0  0  0  0  0  0  0
  1  2  1  0  0  0  0
  2  3  2  0  0  0  0
  2  8  1  0  0  0  0
  3 10  1  0  0  0  0
  4  3  1  0  0  0  0
  5  4  2  0  0  0  0
  6  5  1  0  0  0  0
  6  1  2  0  0  0  0
  7  1  1  0  0  0  0
  9  5  1  0  0  0  0
 10 13  1  0  0  0  0
 10 12  1  0  0  0  0
 11 10  1  0  0  0  0
 14 13  1  0  0  0  0
M  END
>  <minimizedAffinity>
-2.66487336

$$$$

 OpenBabel03252509303D

 14 14  0  0  0  0  0  0  0  0999 V2000
   37.7230   25.0820   42.1630 C   0  0  0  0  0  0  0  0  0  0  0  0
   37.2980   26.3870   42.4790 C   0  0  0  0  0  0  0  0  0  0  0  0
   38.1610   27.1500   43.2480 C   0  0  0  0  0  0  0  0  0  0  0  0
   39.3550   26.6360   43.6650 N   0  0  0  0  0  0  0  0  0  0  0  0
   39.7190   25.3600   43.3290 C   0  0  0  0  0  0  0  0  0  0  0  0
   38.9000   24.6080   42.5860 N   0  0  0  0  0  0  0  0  0  0  0  0
   37.0970   24.4320   41.5650 H   0  0  0  0  0  0  0  0  0  0  0  0
   36.3580   26.7360   42.1280 H   0  0  0  0  0  0  0  0  0  0  0  0
   40.6920   25.1270   43.7450 H   0  0  0  0  0  0  0  0  0  0  0  0
   37.7230   28.5050   43.5770 C   0  0  0  0  0  0  0  0  0  0  0  0
   36.6830   28.6870   43.2320 H   0  0  0  0  0  0  0  0  0  0  0  0
   37.7100   28.7040   44.6870 H   0  0  0  0  0  0  0  0  0  0  0  0
   38.7690   29.7180   42.7020 S   0  0  0  0  0  0  0  0  0  0  0  0
   38.2400   29.9960   41.4200 H   0  0  0  0  0  0  0  0  0  0  0  0
  1  2  2  0  0  0  0
  1  6  1  0  0  0  0
  2  3  1  0  0  0  0
  3 10  1  0  0  0  0
  3  4  2  0  0  0  0
  5  4  1  0  0  0  0
  5  9  1  0  0  0  0
  6  5  2  0  0  0  0
  7  1  1  0  0  0  0
  8  2  1  0  0  0  0
 10 12  1  0  0  0  0
 11 10  1  0  0  0  0
 13 10  1  0  0  0  0
 14 13  1  0  0  0  0
M  END
>  <minimizedAffinity>
-2.64800668

$$$$

 OpenBabel03252509303D

 14 14  0  0  0  0  0  0  0  0999 V2000
   37.3360   28.5250   43.3210 C   0  0  0  0  0  0  0  0  0  0  0  0
   36.7600   27.2940   42.9540 C   0  0  0  0  0  0  0  0  0  0  0  0
   37.6320   26.2970   42.5510 C   0  0  0  0  0  0  0  0  0  0  0  0
   38.9780   26.5260   42.5210 N   0  0  0  0  0  0  0  0  0  0  0  0
   39.4850   27.7430   42.8880 C   0  0  0  0  0  0  0  0  0  0  0  0
   38.6590   28.7180   43.2810 N   0  0  0  0  0  0  0  0  0  0  0  0
   36.7110   29.3480   43.6470 H   0  0  0  0  0  0  0  0  0  0  0  0
   35.7050   27.1710   42.9970 H   0  0  0  0  0  0  0  0  0  0  0  0
   40.5660   27.7390   42.8020 H   0  0  0  0  0  0  0  0  0  0  0  0
   37.0360   25.0180   42.1700 C   0  0  0  0  0  0  0  0  0  0  0  0
   36.7060   24.4460   43.0620 H   0  0  0  0  0  0  0  0  0  0  0  0
   36.1150   25.1380   41.5310 H   0  0  0  0  0  0  0  0  0  0  0  0
   38.2860   23.9830   41.3360 S   0  0  0  0  0  0  0  0  0  0  0  0
   39.0080   23.2180   42.2820 H   0  0  0  0  0  0  0  0  0  0  0  0
  1  7  1  0  0  0  0
  2  8  1  0  0  0  0
  2  1  2  0  0  0  0
  3  2  1  0  0  0  0
  4  3  2  0  0  0  0
  4  5  1  0  0  0  0
  5  6  2  0  0  0  0
  6  1  1  0  0  0  0
  9  5  1  0  0  0  0
 10  3  1  0  0  0  0
 10 11  1  0  0  0  0
 12 10  1  0  0  0  0
 13 10  1  0  0  0  0
 13 14  1  0  0  0  0
M  END
>  <minimizedAffinity>
-2.62965441

$$$$

 OpenBabel03252509303D

 14 14  0  0  0  0  0  0  0  0999 V2000
   39.2850   31.0990   41.7190 C   0  0  0  0  0  0  0  0  0  0  0  0
   39.0750   30.0610   42.6460 C   0  0  0  0  0  0  0  0  0  0  0  0
   37.8280   29.4570   42.6290 C   0  0  0  0  0  0  0  0  0  0  0  0
   36.8720   29.8710   41.7480 N   0  0  0  0  0  0  0  0  0  0  0  0
   37.1290   30.8870   40.8670 C   0  0  0  0  0  0  0  0  0  0  0  0
   38.3270   31.4810   40.8670 N   0  0  0  0  0  0  0  0  0  0  0  0
   40.2380   31.6130   41.6780 H   0  0  0  0  0  0  0  0  0  0  0  0
   39.8560   29.7790   43.3100 H   0  0  0  0  0  0  0  0  0  0  0  0
   36.2590   31.0760   40.2490 H   0  0  0  0  0  0  0  0  0  0  0  0
   37.6090   28.3790   43.5910 C   0  0  0  0  0  0  0  0  0  0  0  0
   37.6290   28.7590   44.6340 H   0  0  0  0  0  0  0  0  0  0  0  0
   36.6030   27.8830   43.4700 H   0  0  0  0  0  0  0  0  0  0  0  0
   38.9620   27.1610   43.4660 S   0  0  0  0  0  0  0  0  0  0  0  0
   40.0350   27.5240   44.3140 H   0  0  0  0  0  0  0  0  0  0  0  0
  1  2  1  0  0  0  0
  2  8  1  0  0  0  0
  3  2  2  0  0  0  0
  3 10  1  0  0  0  0
  4  3  1  0  0  0  0
  5  6  1  0  0  0  0
  5  4  2  0  0  0  0
  6  1  2  0  0  0  0
  7  1  1  0  0  0  0
  9  5  1  0  0  0  0
 10 11  1  0  0  0  0
 12 10  1  0  0  0  0
 13 10  1  0  0  0  0
 13 14  1  0  0  0  0
M  END
>  <minimizedAffinity>
-2.62214446

$$$$

 OpenBabel03252509303D

 14 14  0  0  0  0  0  0  0  0999 V2000
   38.1760   28.7410   43.3070 C   0  0  0  0  0  0  0  0  0  0  0  0
   38.5400   27.3810   43.2690 C   0  0  0  0  0  0  0  0  0  0  0  0
   37.8750   26.5870   42.3490 C   0  0  0  0  0  0  0  0  0  0  0  0
   36.9190   27.1230   41.5360 N   0  0  0  0  0  0  0  0  0  0  0  0
   36.6030   28.4530   41.6150 C   0  0  0  0  0  0  0  0  0  0  0  0
   37.2350   29.2360   42.4960 N   0  0  0  0  0  0  0  0  0  0  0  0
   38.6570   29.4170   44.0030 H   0  0  0  0  0  0  0  0  0  0  0  0
   39.2920   27.0170   43.9260 H   0  0  0  0  0  0  0  0  0  0  0  0
   35.8280   28.6970   40.8970 H   0  0  0  0  0  0  0  0  0  0  0  0
   38.2520   25.1760   42.3070 C   0  0  0  0  0  0  0  0  0  0  0  0
   37.5270   24.5480   42.8650 H   0  0  0  0  0  0  0  0  0  0  0  0
   38.2690   24.7580   41.2600 H   0  0  0  0  0  0  0  0  0  0  0  0
   39.8640   24.9470   43.1320 S   0  0  0  0  0  0  0  0  0  0  0  0
   39.6840   24.7250   44.5180 H   0  0  0  0  0  0  0  0  0  0  0  0
  1  7  1  0  0  0  0
  2  1  1  0  0  0  0
  2  8  1  0  0  0  0
  3  2  2  0  0  0  0
  4  5  2  0  0  0  0
  4  3  1  0  0  0  0
  5  6  1  0  0  0  0
  6  1  2  0  0  0  0
  9  5  1  0  0  0  0
 10  3  1  0  0  0  0
 10 11  1  0  0  0  0
 10 13  1  0  0  0  0
 12 10  1  0  0  0  0
 13 14  1  0  0  0  0
M  END
>  <minimizedAffinity>
-2.60286832

$$$$

 OpenBabel03252509303D

 14 14  0  0  0  0  0  0  0  0999 V2000
   35.4360   28.8920   40.7280 C   0  0  0  0  0  0  0  0  0  0  0  0
   35.7480   30.1700   40.2280 C   0  0  0  0  0  0  0  0  0  0  0  0
   36.8490   30.8020   40.7850 C   0  0  0  0  0  0  0  0  0  0  0  0
   37.5740   30.1910   41.7670 N   0  0  0  0  0  0  0  0  0  0  0  0
   37.2260   28.9450   42.2160 C   0  0  0  0  0  0  0  0  0  0  0  0
   36.1670   28.3200   41.6910 N   0  0  0  0  0  0  0  0  0  0  0  0
   34.5890   28.3420   40.3370 H   0  0  0  0  0  0  0  0  0  0  0  0
   35.1490   30.5990   39.4630 H   0  0  0  0  0  0  0  0  0  0  0  0
   37.9120   28.6220   42.9910 H   0  0  0  0  0  0  0  0  0  0  0  0
   37.1750   32.1290   40.2670 C   0  0  0  0  0  0  0  0  0  0  0  0
   36.2640   32.7550   40.1600 H   0  0  0  0  0  0  0  0  0  0  0  0
   37.8590   32.7090   40.9490 H   0  0  0  0  0  0  0  0  0  0  0  0
   37.8870   31.9770   38.5940 S   0  0  0  0  0  0  0  0  0  0  0  0
   36.8650   31.9880   37.6160 H   0  0  0  0  0  0  0  0  0  0  0  0
  1  6  1  0  0  0  0
  2  1  2  0  0  0  0
  2  3  1  0  0  0  0
  3  4  2  0  0  0  0
  4  5  1  0  0  0  0
  5  9  1  0  0  0  0
  6  5  2  0  0  0  0
  7  1  1  0  0  0  0
  8  2  1  0  0  0  0
 10  3  1  0  0  0  0
 10 12  1  0  0  0  0
 11 10  1  0  0  0  0
 13 10  1  0  0  0  0
 14 13  1  0  0  0  0
M  END
>  <minimizedAffinity>
-2.58220577

$$$$
