
 OpenBabel03252509283D

 14 14  0  0  0  0  0  0  0  0999 V2000
   44.5420   36.0110   44.5220 C   0  0  0  0  0  0  0  0  0  0  0  0
   45.2640   35.9200   43.3160 C   0  0  0  0  0  0  0  0  0  0  0  0
   46.1410   34.8550   43.1980 C   0  0  0  0  0  0  0  0  0  0  0  0
   46.2780   33.9560   44.2160 N   0  0  0  0  0  0  0  0  0  0  0  0
   45.5510   34.0920   45.3680 C   0  0  0  0  0  0  0  0  0  0  0  0
   44.6990   35.1130   45.5000 N   0  0  0  0  0  0  0  0  0  0  0  0
   43.8390   36.8200   44.6800 H   0  0  0  0  0  0  0  0  0  0  0  0
   45.1180   36.6490   42.5570 H   0  0  0  0  0  0  0  0  0  0  0  0
   45.7900   33.2900   46.0570 H   0  0  0  0  0  0  0  0  0  0  0  0
   46.8910   34.7590   41.9470 C   0  0  0  0  0  0  0  0  0  0  0  0
   47.0850   35.7630   41.5150 H   0  0  0  0  0  0  0  0  0  0  0  0
   47.9060   34.2870   42.0800 H   0  0  0  0  0  0  0  0  0  0  0  0
   45.9020   33.8550   40.7080 S   0  0  0  0  0  0  0  0  0  0  0  0
   46.5950   33.7850   39.4760 H   0  0  0  0  0  0  0  0  0  0  0  0
  1  7  1  0  0  0  0
  1  6  1  0  0  0  0
  2  1  2  0  0  0  0
  3  2  1  0  0  0  0
  3  4  2  0  0  0  0
  4  5  1  0  0  0  0
  5  6  2  0  0  0  0
  5  9  1  0  0  0  0
  8  2  1  0  0  0  0
 10 12  1  0  0  0  0
 10  3  1  0  0  0  0
 11 10  1  0  0  0  0
 13 10  1  0  0  0  0
 14 13  1  0  0  0  0
M  END
>  <minimizedAffinity>
-3.03588986

>  <minimizedRMSD>
0.0681697428

$$$$
