
 OpenBabel03252501193D

 17 17  0  0  0  0  0  0  0  0999 V2000
   46.2530   33.5710   44.5260 C   0  0  0  0  0  0  0  0  0  0  0  0
   46.5170   34.3090   43.3490 C   0  0  0  0  0  0  0  0  0  0  0  0
   47.5270   33.8180   42.5160 C   0  0  0  0  0  0  0  0  0  0  0  0
   48.1910   32.6850   42.8670 N   0  0  0  0  0  0  0  0  0  0  0  0
   47.8980   32.0190   44.0050 C   0  0  0  0  0  0  0  0  0  0  0  0
   46.9400   32.4550   44.8270 N   0  0  0  0  0  0  0  0  0  0  0  0
   45.4740   33.9280   45.1900 H   0  0  0  0  0  0  0  0  0  0  0  0
   48.5100   31.1380   44.1470 H   0  0  0  0  0  0  0  0  0  0  0  0
   47.7830   34.6020   41.2970 C   0  0  0  0  0  0  0  0  0  0  0  0
   48.8390   34.0250   40.6190 F   0  0  0  0  0  0  0  0  0  0  0  0
   48.2480   35.8450   41.7360 F   0  0  0  0  0  0  0  0  0  0  0  0
   46.7220   34.7040   40.4800 F   0  0  0  0  0  0  0  0  0  0  0  0
   45.7560   35.5380   43.0120 C   0  0  0  0  0  0  0  0  0  0  0  0
   46.3670   36.4150   42.7960 H   0  0  0  0  0  0  0  0  0  0  0  0
   45.1170   35.2780   42.1150 H   0  0  0  0  0  0  0  0  0  0  0  0
   44.5850   35.8590   44.3680 S   0  0  0  0  0  0  0  0  0  0  0  0
   45.2650   35.8300   45.6180 H   0  0  0  0  0  0  0  0  0  0  0  0
  1  6  1  0  0  0  0
  1  7  1  0  0  0  0
  2  1  2  0  0  0  0
  3  4  2  0  0  0  0
  3  2  1  0  0  0  0
  4  5  1  0  0  0  0
  5  8  1  0  0  0  0
  5  6  2  0  0  0  0
  9 11  1  0  0  0  0
  9  3  1  0  0  0  0
 10  9  1  0  0  0  0
 12  9  1  0  0  0  0
 13  2  1  0  0  0  0
 13 16  1  0  0  0  0
 14 13  1  0  0  0  0
 15 13  1  0  0  0  0
 16 17  1  0  0  0  0
M  END
>  <minimizedAffinity>
-3.43102574

>  <minimizedRMSD>
1.66673732

$$$$
