
 OpenBabel03242513523D

 36 38  0  0  1  0  0  0  0  0999 V2000
   46.8330   34.2230   43.8860 C   0  0  2  0  0  0  0  0  0  0  0  0
   46.5300   32.9480   44.6120 C   0  0  0  0  0  0  0  0  0  0  0  0
   45.8540   33.5070   45.8410 C   0  0  0  0  0  0  0  0  0  0  0  0
   45.0610   34.6300   45.3550 C   0  0  0  0  0  0  0  0  0  0  0  0
   45.4730   34.8630   43.8230 C   0  0  2  0  0  0  0  0  0  0  0  0
   47.4650   34.8830   44.5230 H   0  0  0  0  0  0  0  0  0  0  0  0
   45.8830   32.2880   44.0270 H   0  0  0  0  0  0  0  0  0  0  0  0
   47.4800   32.4310   44.9240 H   0  0  0  0  0  0  0  0  0  0  0  0
   46.6210   33.7600   46.5970 H   0  0  0  0  0  0  0  0  0  0  0  0
   45.2240   32.6780   46.2460 H   0  0  0  0  0  0  0  0  0  0  0  0
   45.3770   35.5590   45.8980 H   0  0  0  0  0  0  0  0  0  0  0  0
   43.9670   34.5120   45.3600 H   0  0  0  0  0  0  0  0  0  0  0  0
   45.4830   35.9570   43.6690 H   0  0  0  0  0  0  0  0  0  0  0  0
   48.3070   34.7670   40.4810 C   0  0  0  0  0  0  0  0  0  0  0  0
   47.7410   35.1010   41.7320 C   0  0  0  0  0  0  0  0  0  0  0  0
   47.4180   34.0590   42.5320 C   0  0  0  0  0  0  0  0  0  0  0  0
   47.6540   32.7520   42.0950 N   0  0  0  0  0  0  0  0  0  0  0  0
   48.1910   32.4750   40.9060 C   0  0  0  0  0  0  0  0  0  0  0  0
   48.5180   33.4850   40.0990 N   0  0  0  0  0  0  0  0  0  0  0  0
   48.5730   35.5820   39.8260 H   0  0  0  0  0  0  0  0  0  0  0  0
   47.5740   36.1120   42.0360 H   0  0  0  0  0  0  0  0  0  0  0  0
   48.3060   31.4150   40.7250 H   0  0  0  0  0  0  0  0  0  0  0  0
   44.5580   34.1470   43.0700 O   0  0  0  0  0  0  0  0  0  0  0  0
   43.8600   34.5910   41.9900 C   0  0  0  0  0  0  0  0  0  0  0  0
   44.3540   33.9980   40.9530 O   0  0  0  0  0  0  0  0  0  0  0  0
   42.8000   35.4310   41.4090 C   0  0  0  0  0  0  0  0  0  0  0  0
   41.4930   35.2380   41.3160 C   0  0  0  0  0  0  0  0  0  0  0  0
   40.3100   35.9170   40.7890 C   0  0  0  0  0  0  0  0  0  0  0  0
   39.7280   36.3050   41.6580 H   0  0  0  0  0  0  0  0  0  0  0  0
   40.6970   36.8420   40.2600 H   0  0  0  0  0  0  0  0  0  0  0  0
   39.3900   35.2050   39.8980 C   0  0  0  0  0  0  0  0  0  0  0  0
   39.1460   33.8240   40.5730 C   0  0  0  0  0  0  0  0  0  0  0  0
   38.8810   32.7620   39.5490 C   0  0  0  0  0  0  0  0  0  0  0  0
   38.1980   33.2900   38.3160 C   0  0  0  0  0  0  0  0  0  0  0  0
   39.2020   34.1920   37.6190 C   0  0  0  0  0  0  0  0  0  0  0  0
   40.1300   34.8490   38.5960 C   0  0  0  0  0  0  0  0  0  0  0  0
  1  6  1  1  0  0  0
  1  2  1  0  0  0  0
  2  8  1  0  0  0  0
  2  3  1  0  0  0  0
  3 10  1  0  0  0  0
  3  9  1  0  0  0  0
  4 12  1  0  0  0  0
  4  3  1  0  0  0  0
  4 11  1  0  0  0  0
  5 13  1  6  0  0  0
  5  1  1  0  0  0  0
  5  4  1  0  0  0  0
  7  2  1  0  0  0  0
 14 15  1  0  0  0  0
 15 21  1  0  0  0  0
 15 16  2  0  0  0  0
 16  1  1  0  0  0  0
 17 16  1  0  0  0  0
 18 17  2  0  0  0  0
 19 14  2  0  0  0  0
 19 18  1  0  0  0  0
 20 14  1  0  0  0  0
 22 18  1  0  0  0  0
 23  5  1  0  0  0  0
 24 23  1  0  0  0  0
 25 24  2  0  0  0  0
 26 24  1  0  0  0  0
 27 26  2  0  0  0  0
 28 27  1  0  0  0  0
 28 29  1  0  0  0  0
 30 28  1  0  0  0  0
 31 32  1  0  0  0  0
 31 28  1  0  0  0  0
 33 32  1  0  0  0  0
 34 33  1  0  0  0  0
 35 34  1  0  0  0  0
 35 36  1  0  0  0  0
 36 31  1  0  0  0  0
M  END
>  <minimizedAffinity>
-6.31552458

>  <minimizedRMSD>
0.843834758

$$$$
