
 OpenBabel03252509263D

 27 29  0  0  1  0  0  0  0  0999 V2000
   46.6870   35.1380   41.9250 C   0  0  1  0  0  0  0  0  0  0  0  0
   48.2090   35.4610   41.9710 C   0  0  0  0  0  0  0  0  0  0  0  0
   47.5420   34.2110   41.3090 C   0  0  2  0  0  0  0  0  0  0  0  0
   46.1010   35.8960   41.3610 H   0  0  0  0  0  0  0  0  0  0  0  0
   48.5540   36.2010   41.2210 H   0  0  0  0  0  0  0  0  0  0  0  0
   48.7540   35.3250   42.8990 H   0  0  0  0  0  0  0  0  0  0  0  0
   47.7890   33.2720   41.8950 H   0  0  0  0  0  0  0  0  0  0  0  0
   44.7080   35.2690   45.1100 C   0  0  0  0  0  0  0  0  0  0  0  0
   45.1730   35.6470   43.8180 C   0  0  0  0  0  0  0  0  0  0  0  0
   46.1620   34.8690   43.3140 C   0  0  0  0  0  0  0  0  0  0  0  0
   46.6770   33.7940   44.0070 N   0  0  0  0  0  0  0  0  0  0  0  0
   46.2090   33.4670   45.2380 C   0  0  0  0  0  0  0  0  0  0  0  0
   45.2150   34.2160   45.7870 N   0  0  0  0  0  0  0  0  0  0  0  0
   43.9090   35.9000   45.5140 H   0  0  0  0  0  0  0  0  0  0  0  0
   46.5780   32.6430   45.8110 H   0  0  0  0  0  0  0  0  0  0  0  0
   44.6630   36.7630   43.1110 N   0  0  0  0  0  0  0  0  0  0  0  0
   44.0260   36.7500   42.2670 H   0  0  0  0  0  0  0  0  0  0  0  0
   44.8770   37.7720   43.3690 H   0  0  0  0  0  0  0  0  0  0  0  0
   47.6330   34.0800   39.8020 C   0  0  0  0  0  0  0  0  0  0  0  0
   46.6450   33.7780   39.3940 H   0  0  0  0  0  0  0  0  0  0  0  0
   47.8980   35.0800   39.3710 H   0  0  0  0  0  0  0  0  0  0  0  0
   48.6850   33.0410   39.4610 C   0  0  0  0  0  3  0  0  0  0  0  0
   48.8990   32.0810   40.5760 C   0  0  0  0  0  2  0  0  0  0  0  0
   49.2290   30.6810   40.2310 C   0  0  0  0  0  2  0  0  0  0  0  0
   49.7610   30.6060   38.8140 C   0  0  0  0  0  2  0  0  0  0  0  0
   48.5680   31.0060   37.9650 C   0  0  0  0  0  2  0  0  0  0  0  0
   48.4050   32.4910   38.1220 C   0  0  0  0  0  2  0  0  0  0  0  0
  1  4  1  6  0  0  0
  1  2  1  0  0  0  0
  1 10  1  0  0  0  0
  2  6  1  0  0  0  0
  3  7  1  1  0  0  0
  3  1  1  0  0  0  0
  3  2  1  0  0  0  0
  5  2  1  0  0  0  0
  8 14  1  0  0  0  0
  8 13  1  0  0  0  0
  9  8  2  0  0  0  0
 10  9  1  0  0  0  0
 10 11  2  0  0  0  0
 11 12  1  0  0  0  0
 12 13  2  0  0  0  0
 12 15  1  0  0  0  0
 16 18  1  0  0  0  0
 16  9  1  0  0  0  0
 17 16  1  0  0  0  0
 19  3  1  0  0  0  0
 20 19  1  0  0  0  0
 21 19  1  0  0  0  0
 22 19  1  0  0  0  0
 22 23  1  0  0  0  0
 24 23  1  0  0  0  0
 25 24  1  0  0  0  0
 26 27  1  0  0  0  0
 26 25  1  0  0  0  0
 27 22  1  0  0  0  0
M  END
>  <minimizedAffinity>
-4.53531885

>  <minimizedRMSD>
0.397564173

$$$$
