
 OpenBabel03252509303D

 18 19  0  0  0  0  0  0  0  0999 V2000
   44.3740   35.9030   44.5320 C   0  0  0  0  0  0  0  0  0  0  0  0
   44.4720   35.2510   43.2780 C   0  0  0  0  0  0  0  0  0  0  0  0
   44.9950   33.9600   43.2700 C   0  0  0  0  0  0  0  0  0  0  0  0
   45.3860   33.3860   44.4420 N   0  0  0  0  0  0  0  0  0  0  0  0
   45.2720   34.0570   45.6260 C   0  0  0  0  0  0  0  0  0  0  0  0
   44.7700   35.3040   45.6660 N   0  0  0  0  0  0  0  0  0  0  0  0
   43.9710   36.9030   44.5580 H   0  0  0  0  0  0  0  0  0  0  0  0
   44.1430   35.7710   42.4030 H   0  0  0  0  0  0  0  0  0  0  0  0
   45.5800   33.6060   46.5470 H   0  0  0  0  0  0  0  0  0  0  0  0
   45.0920   33.2930   41.9730 C   0  0  0  0  0  0  0  0  0  0  0  0
   44.7130   32.2580   42.1060 H   0  0  0  0  0  0  0  0  0  0  0  0
   44.4890   33.7610   41.1860 H   0  0  0  0  0  0  0  0  0  0  0  0
   46.5040   33.1520   41.4730 C   0  0  0  0  0  3  0  0  0  0  0  0
   46.7570   31.9240   40.6530 C   0  0  0  0  0  2  0  0  0  0  0  0
   48.2780   31.7590   40.6170 C   0  0  0  0  0  2  0  0  0  0  0  0
   48.8300   32.9470   39.8780 C   0  0  0  0  0  2  0  0  0  0  0  0
   48.4790   34.2310   40.5940 C   0  0  0  0  0  2  0  0  0  0  0  0
   46.9510   34.3480   40.6560 C   0  0  0  0  0  2  0  0  0  0  0  0
  1  7  1  0  0  0  0
  1  6  1  0  0  0  0
  2  1  2  0  0  0  0
  3  2  1  0  0  0  0
  3  4  2  0  0  0  0
  4  5  1  0  0  0  0
  5  6  2  0  0  0  0
  5  9  1  0  0  0  0
  8  2  1  0  0  0  0
 10 11  1  0  0  0  0
 10  3  1  0  0  0  0
 12 10  1  0  0  0  0
 13 10  1  0  0  0  0
 14 13  1  0  0  0  0
 15 14  1  0  0  0  0
 16 17  1  0  0  0  0
 16 15  1  0  0  0  0
 17 18  1  0  0  0  0
 18 13  1  0  0  0  0
M  END
>  <minimizedAffinity>
-3.4194324

>  <minimizedRMSD>
2.85358167

$$$$
