
 OpenBabel03252509263D

 27 29  0  0  1  0  0  0  0  0999 V2000
   47.0190   35.1870   41.8040 C   0  0  1  0  0  0  0  0  0  0  0  0
   48.5150   35.6040   41.9000 C   0  0  0  0  0  0  0  0  0  0  0  0
   47.9390   34.3780   41.1190 C   0  0  2  0  0  0  0  0  0  0  0  0
   46.3880   35.9520   41.3020 H   0  0  0  0  0  0  0  0  0  0  0  0
   48.8150   36.4300   41.2250 H   0  0  0  0  0  0  0  0  0  0  0  0
   49.0610   35.4210   42.8190 H   0  0  0  0  0  0  0  0  0  0  0  0
   48.2430   33.4080   41.6220 H   0  0  0  0  0  0  0  0  0  0  0  0
   44.9770   34.8570   44.9350 C   0  0  0  0  0  0  0  0  0  0  0  0
   45.4180   35.3780   43.6850 C   0  0  0  0  0  0  0  0  0  0  0  0
   46.5020   34.7590   43.1560 C   0  0  0  0  0  0  0  0  0  0  0  0
   47.1270   33.7040   43.7870 N   0  0  0  0  0  0  0  0  0  0  0  0
   46.6760   33.2360   44.9780 C   0  0  0  0  0  0  0  0  0  0  0  0
   45.5910   33.8230   45.5500 N   0  0  0  0  0  0  0  0  0  0  0  0
   44.1010   35.3590   45.3590 H   0  0  0  0  0  0  0  0  0  0  0  0
   47.1290   32.4220   45.5020 H   0  0  0  0  0  0  0  0  0  0  0  0
   44.7940   36.4750   43.0440 N   0  0  0  0  0  0  0  0  0  0  0  0
   44.1800   36.4490   42.1830 H   0  0  0  0  0  0  0  0  0  0  0  0
   44.8830   37.4810   43.3770 H   0  0  0  0  0  0  0  0  0  0  0  0
   48.0500   34.3910   39.6080 C   0  0  0  0  0  0  0  0  0  0  0  0
   47.0490   34.5750   39.1620 H   0  0  0  0  0  0  0  0  0  0  0  0
   48.7270   35.2310   39.3060 H   0  0  0  0  0  0  0  0  0  0  0  0
   48.5960   33.0540   39.1440 C   0  0  0  0  0  3  0  0  0  0  0  0
   47.9990   31.9180   39.8950 C   0  0  0  0  0  2  0  0  0  0  0  0
   47.7840   30.6460   39.1730 C   0  0  0  0  0  2  0  0  0  0  0  0
   48.6590   30.5940   37.9370 C   0  0  0  0  0  2  0  0  0  0  0  0
   48.1060   31.7050   37.0630 C   0  0  0  0  0  2  0  0  0  0  0  0
   48.5600   33.0000   37.6710 C   0  0  0  0  0  2  0  0  0  0  0  0
  1  4  1  6  0  0  0
  1  2  1  0  0  0  0
  1 10  1  0  0  0  0
  2  6  1  0  0  0  0
  3  7  1  1  0  0  0
  3  1  1  0  0  0  0
  3  2  1  0  0  0  0
  5  2  1  0  0  0  0
  8 14  1  0  0  0  0
  8 13  1  0  0  0  0
  9  8  2  0  0  0  0
 10  9  1  0  0  0  0
 10 11  2  0  0  0  0
 11 12  1  0  0  0  0
 12 15  1  0  0  0  0
 12 13  2  0  0  0  0
 16 18  1  0  0  0  0
 16  9  1  0  0  0  0
 17 16  1  0  0  0  0
 19  3  1  0  0  0  0
 20 19  1  0  0  0  0
 21 19  1  0  0  0  0
 22 19  1  0  0  0  0
 22 23  1  0  0  0  0
 24 23  1  0  0  0  0
 25 24  1  0  0  0  0
 26 27  1  0  0  0  0
 26 25  1  0  0  0  0
 27 22  1  0  0  0  0
M  END
>  <minimizedAffinity>
-4.54094982

>  <minimizedRMSD>
0.722237647

$$$$
