
 OpenBabel03242519543D

 37 39  0  0  1  0  0  0  0  0999 V2000
   47.4620   34.0600   42.4450 C   0  0  2  0  0  0  0  0  0  0  0  0
   48.8050   34.6530   42.6210 C   0  0  0  0  0  0  0  0  0  0  0  0
   49.0630   35.7800   41.6780 C   0  0  0  0  0  0  0  0  0  0  0  0
   48.8540   35.4150   40.2310 C   0  0  0  0  0  0  0  0  0  0  0  0
   47.7150   34.4700   39.9990 C   0  0  2  0  0  0  0  0  0  0  0  0
   46.7670   34.4420   41.1810 C   0  0  0  0  0  0  0  0  0  0  0  0
   47.6130   32.9340   42.4270 H   0  0  0  0  0  0  0  0  0  0  0  0
   48.9150   35.0610   43.6480 H   0  0  0  0  0  0  0  0  0  0  0  0
   49.6150   33.9090   42.4860 H   0  0  0  0  0  0  0  0  0  0  0  0
   50.1280   36.1090   41.7740 H   0  0  0  0  0  0  0  0  0  0  0  0
   48.4010   36.6320   41.9560 H   0  0  0  0  0  0  0  0  0  0  0  0
   49.8240   35.0270   39.8060 H   0  0  0  0  0  0  0  0  0  0  0  0
   48.7060   36.3820   39.6840 H   0  0  0  0  0  0  0  0  0  0  0  0
   47.1120   34.8830   39.1380 H   0  0  0  0  0  0  0  0  0  0  0  0
   46.0180   33.6180   40.9820 H   0  0  0  0  0  0  0  0  0  0  0  0
   46.2170   35.3660   41.1450 H   0  0  0  0  0  0  0  0  0  0  0  0
   46.5570   34.2930   43.5840 C   0  0  0  0  0  0  0  0  0  0  0  0
   45.6510   35.3320   43.3840 C   0  0  0  0  0  0  0  0  0  0  0  0
   44.7220   35.6450   44.3800 C   0  0  0  0  0  0  0  0  0  0  0  0
   44.7750   34.8740   45.5290 N   0  0  0  0  0  0  0  0  0  0  0  0
   45.6700   33.8780   45.6810 C   0  0  0  0  0  0  0  0  0  0  0  0
   46.5440   33.6020   44.7130 N   0  0  0  0  0  0  0  0  0  0  0  0
   45.4360   36.0530   42.6100 H   0  0  0  0  0  0  0  0  0  0  0  0
   43.9530   36.3850   44.4360 H   0  0  0  0  0  0  0  0  0  0  0  0
   45.6380   33.3220   46.6240 H   0  0  0  0  0  0  0  0  0  0  0  0
   48.2420   33.1410   39.6190 C   0  0  0  0  0  0  0  0  0  0  0  0
   48.6780   32.6760   40.5500 H   0  0  0  0  0  0  0  0  0  0  0  0
   49.1210   33.2930   38.9620 H   0  0  0  0  0  0  0  0  0  0  0  0
   47.2680   32.1780   39.0590 C   0  0  0  0  0  0  0  0  0  0  0  0
   46.2540   32.6220   39.0970 H   0  0  0  0  0  0  0  0  0  0  0  0
   47.2320   31.2510   39.6670 H   0  0  0  0  0  0  0  0  0  0  0  0
   47.5420   31.8070   37.6180 C   0  0  0  0  0  0  0  0  0  0  0  0
   46.2230   31.5440   36.9320 C   0  0  0  0  0  0  0  0  0  0  0  0
   46.1430   32.2190   35.5920 C   0  0  0  0  0  0  0  0  0  0  0  0
   47.4240   32.1070   34.7930 C   0  0  0  0  0  0  0  0  0  0  0  0
   48.5720   32.7210   35.5270 C   0  0  0  0  0  0  0  0  0  0  0  0
   48.1730   33.0130   36.9600 C   0  0  0  0  0  0  0  0  0  0  0  0
  1  7  1  6  0  0  0
  1  2  1  0  0  0  0
  1 17  1  0  0  0  0
  2  8  1  0  0  0  0
  3 10  1  0  0  0  0
  3 11  1  0  0  0  0
  3  2  1  0  0  0  0
  4  3  1  0  0  0  0
  5 14  1  6  0  0  0
  5  4  1  0  0  0  0
  5  6  1  0  0  0  0
  6  1  1  0  0  0  0
  9  2  1  0  0  0  0
 12  4  1  0  0  0  0
 13  4  1  0  0  0  0
 15  6  1  0  0  0  0
 16  6  1  0  0  0  0
 17 22  1  0  0  0  0
 18 17  2  0  0  0  0
 18 19  1  0  0  0  0
 19 24  1  0  0  0  0
 19 20  2  0  0  0  0
 20 21  1  0  0  0  0
 21 25  1  0  0  0  0
 22 21  2  0  0  0  0
 23 18  1  0  0  0  0
 26  5  1  0  0  0  0
 26 27  1  0  0  0  0
 28 26  1  0  0  0  0
 29 30  1  0  0  0  0
 29 26  1  0  0  0  0
 29 31  1  0  0  0  0
 32 29  1  0  0  0  0
 33 32  1  0  0  0  0
 34 33  1  0  0  0  0
 35 36  1  0  0  0  0
 35 34  1  0  0  0  0
 36 37  1  0  0  0  0
 37 32  1  0  0  0  0
M  END
>  <minimizedAffinity>
-5.44565439

>  <minimizedRMSD>
2.04839182

$$$$
