
 OpenBabel03252509293D

 18 19  0  0  0  0  0  0  0  0999 V2000
   44.4180   35.8720   44.4900 C   0  0  0  0  0  0  0  0  0  0  0  0
   44.5780   35.1720   43.2690 C   0  0  0  0  0  0  0  0  0  0  0  0
   45.1050   33.8850   43.3350 C   0  0  0  0  0  0  0  0  0  0  0  0
   45.4410   33.3580   44.5460 N   0  0  0  0  0  0  0  0  0  0  0  0
   45.2680   34.0730   45.6970 C   0  0  0  0  0  0  0  0  0  0  0  0
   44.7600   35.3180   45.6640 N   0  0  0  0  0  0  0  0  0  0  0  0
   44.0110   36.8690   44.4590 H   0  0  0  0  0  0  0  0  0  0  0  0
   44.2900   35.6570   42.3600 H   0  0  0  0  0  0  0  0  0  0  0  0
   45.5320   33.6590   46.6480 H   0  0  0  0  0  0  0  0  0  0  0  0
   45.2670   33.1690   42.0710 C   0  0  0  0  0  0  0  0  0  0  0  0
   45.1520   32.0860   42.2880 H   0  0  0  0  0  0  0  0  0  0  0  0
   44.5180   33.4300   41.3140 H   0  0  0  0  0  0  0  0  0  0  0  0
   46.6340   33.3220   41.4640 C   0  0  0  0  0  3  0  0  0  0  0  0
   47.4980   32.1000   41.5490 C   0  0  0  0  0  2  0  0  0  0  0  0
   48.9240   32.5840   41.2820 C   0  0  0  0  0  2  0  0  0  0  0  0
   48.9550   33.0910   39.8650 C   0  0  0  0  0  2  0  0  0  0  0  0
   47.9910   34.2410   39.6880 C   0  0  0  0  0  2  0  0  0  0  0  0
   46.5780   33.7400   40.0080 C   0  0  0  0  0  2  0  0  0  0  0  0
  1  6  1  0  0  0  0
  2  3  1  0  0  0  0
  2  1  2  0  0  0  0
  3  4  2  0  0  0  0
  4  5  1  0  0  0  0
  5  9  1  0  0  0  0
  6  5  2  0  0  0  0
  7  1  1  0  0  0  0
  8  2  1  0  0  0  0
 10 11  1  0  0  0  0
 10  3  1  0  0  0  0
 12 10  1  0  0  0  0
 13 14  1  0  0  0  0
 13 10  1  0  0  0  0
 15 14  1  0  0  0  0
 16 15  1  0  0  0  0
 17 16  1  0  0  0  0
 17 18  1  0  0  0  0
 18 13  1  0  0  0  0
M  END
>  <minimizedAffinity>
-3.48214006

>  <minimizedRMSD>
2.60396433

$$$$
