
 OpenBabel03252507043D

 44 47  0  0  0  0  0  0  0  0999 V2000
   41.9100   31.5570   41.9670 C   0  0  0  0  0  0  0  0  0  0  0  0
   41.8130   32.2530   41.0650 H   0  0  0  0  0  0  0  0  0  0  0  0
   41.4700   32.1590   42.7920 H   0  0  0  0  0  0  0  0  0  0  0  0
   41.3160   30.3740   41.8040 N   0  0  0  0  0  0  0  0  0  0  0  0
   41.3560   29.2410   42.6640 C   0  0  0  0  0  0  0  0  0  0  0  0
   39.9480   29.3400   43.2490 C   0  0  0  0  0  0  0  0  0  0  0  0
   38.8880   29.2590   42.2590 C   0  0  0  0  0  0  0  0  0  0  0  0
   39.1730   29.6160   40.8870 C   0  0  0  0  0  0  0  0  0  0  0  0
   40.5000   30.2610   40.5680 C   0  0  0  0  0  0  0  0  0  0  0  0
   42.0550   29.5090   43.5070 H   0  0  0  0  0  0  0  0  0  0  0  0
   41.6100   28.2770   42.2570 H   0  0  0  0  0  0  0  0  0  0  0  0
   39.8870   28.5130   43.9970 H   0  0  0  0  0  0  0  0  0  0  0  0
   39.9450   30.2830   43.8610 H   0  0  0  0  0  0  0  0  0  0  0  0
   38.4740   28.2090   42.2400 H   0  0  0  0  0  0  0  0  0  0  0  0
   38.0110   29.8700   42.6000 H   0  0  0  0  0  0  0  0  0  0  0  0
   38.5340   29.4970   40.0570 H   0  0  0  0  0  0  0  0  0  0  0  0
   40.9300   30.8070   38.9860 S   0  0  0  0  0  0  0  0  0  0  0  0
   40.7330   32.5110   38.5680 C   0  0  0  0  0  3  0  0  0  0  0  0
   41.9820   33.3300   38.4590 C   0  0  0  0  0  2  0  0  0  0  0  0
   41.5820   34.7920   38.3830 C   0  0  0  0  0  2  0  0  0  0  0  0
   40.2320   34.9910   37.7230 C   0  0  0  0  0  2  0  0  0  0  0  0
   39.1240   34.3390   38.5270 C   0  0  0  0  0  2  0  0  0  0  0  0
   39.7520   33.2780   39.4410 C   0  0  0  0  0  2  0  0  0  0  0  0
   43.3770   31.4580   42.1940 C   0  0  0  0  0  0  0  0  0  0  0  0
   43.5450   31.1420   43.2650 H   0  0  0  0  0  0  0  0  0  0  0  0
   43.8430   30.7150   41.5210 H   0  0  0  0  0  0  0  0  0  0  0  0
   43.9650   32.7960   42.0250 C   0  0  0  0  0  0  0  0  0  0  0  0
   43.1650   33.8810   41.7580 C   0  0  0  0  0  0  0  0  0  0  0  0
   43.7630   35.1200   41.5920 C   0  0  0  0  0  0  0  0  0  0  0  0
   45.1270   35.1990   41.7070 N   0  0  0  0  0  0  0  0  0  0  0  0
   45.8670   34.1280   41.9680 C   0  0  0  0  0  0  0  0  0  0  0  0
   45.2660   32.9470   42.1220 N   0  0  0  0  0  0  0  0  0  0  0  0
   42.1030   34.0260   41.6500 H   0  0  0  0  0  0  0  0  0  0  0  0
   43.2990   36.0800   41.3760 H   0  0  0  0  0  0  0  0  0  0  0  0
   47.3110   34.3160   42.1030 C   0  0  0  0  0  0  0  0  0  0  0  0
   48.1030   33.3070   42.6440 C   0  0  0  0  0  0  0  0  0  0  0  0
   49.4610   33.4940   42.7790 C   0  0  0  0  0  0  0  0  0  0  0  0
   49.9140   34.7130   42.3460 C   0  0  0  0  0  0  0  0  0  0  0  0
   49.1680   35.7590   41.7970 C   0  0  0  0  0  0  0  0  0  0  0  0
   47.8410   35.4860   41.7010 N   0  0  0  0  0  0  0  0  0  0  0  0
   47.6790   32.3580   42.9710 H   0  0  0  0  0  0  0  0  0  0  0  0
   50.1560   32.7740   43.1850 H   0  0  0  0  0  0  0  0  0  0  0  0
   50.9900   34.9090   42.4330 H   0  0  0  0  0  0  0  0  0  0  0  0
   49.6180   36.6700   41.4900 H   0  0  0  0  0  0  0  0  0  0  0  0
  1 24  1  0  0  0  0
  1  3  1  0  0  0  0
  2  1  1  0  0  0  0
  4  1  1  0  0  0  0
  4  5  1  0  0  0  0
  5  6  1  0  0  0  0
  5 10  1  0  0  0  0
  6 13  1  0  0  0  0
  6 12  1  0  0  0  0
  7 15  1  0  0  0  0
  7  6  1  0  0  0  0
  8  7  1  0  0  0  0
  9  8  2  0  0  0  0
  9  4  1  0  0  0  0
 11  5  1  0  0  0  0
 14  7  1  0  0  0  0
 16  8  1  0  0  0  0
 17  9  1  0  0  0  0
 18 17  1  0  0  0  0
 18 23  1  0  0  0  0
 19 18  1  0  0  0  0
 20 19  1  0  0  0  0
 21 20  1  0  0  0  0
 21 22  1  0  0  0  0
 22 23  1  0  0  0  0
 24 25  1  0  0  0  0
 26 24  1  0  0  0  0
 27 32  1  0  0  0  0
 27 24  1  0  0  0  0
 28 27  2  0  0  0  0
 29 30  2  0  0  0  0
 29 28  1  0  0  0  0
 30 31  1  0  0  0  0
 31 35  1  0  0  0  0
 31 32  2  0  0  0  0
 33 28  1  0  0  0  0
 34 29  1  0  0  0  0
 35 36  1  0  0  0  0
 36 37  2  0  0  0  0
 36 41  1  0  0  0  0
 37 42  1  0  0  0  0
 38 43  1  0  0  0  0
 38 37  1  0  0  0  0
 39 38  2  0  0  0  0
 40 39  1  0  0  0  0
 40 35  2  0  0  0  0
 44 39  1  0  0  0  0
M  END
>  <minimizedAffinity>
-5.43408775

>  <minimizedRMSD>
3.34175873

$$$$
