
 OpenBabel03242517123D

 44 47  0  0  1  0  0  0  0  0999 V2000
   37.0030   26.6020   41.3960 C   0  0  2  0  0  0  0  0  0  0  0  0
   37.4800   27.9630   41.0300 C   0  0  2  0  0  0  0  0  0  0  0  0
   38.1520   28.6650   42.1520 C   0  0  0  0  0  0  0  0  0  0  0  0
   37.3540   28.6970   43.4330 C   0  0  0  0  0  0  0  0  0  0  0  0
   36.5400   27.4600   43.6770 C   0  0  0  0  0  0  0  0  0  0  0  0
   37.0530   26.2850   42.8650 C   0  0  0  0  0  0  0  0  0  0  0  0
   35.9230   26.5020   41.0740 H   0  0  0  0  0  0  0  0  0  0  0  0
   38.2250   27.8590   40.2150 H   0  0  0  0  0  0  0  0  0  0  0  0
   38.3170   29.7250   41.8520 H   0  0  0  0  0  0  0  0  0  0  0  0
   39.1900   28.2730   42.3280 H   0  0  0  0  0  0  0  0  0  0  0  0
   38.0490   28.8710   44.2790 H   0  0  0  0  0  0  0  0  0  0  0  0
   36.6400   29.5540   43.4490 H   0  0  0  0  0  0  0  0  0  0  0  0
   36.5960   27.1380   44.7480 H   0  0  0  0  0  0  0  0  0  0  0  0
   35.4710   27.6230   43.4510 H   0  0  0  0  0  0  0  0  0  0  0  0
   36.3260   25.4400   43.0580 H   0  0  0  0  0  0  0  0  0  0  0  0
   38.0290   26.0360   43.2750 H   0  0  0  0  0  0  0  0  0  0  0  0
   36.5490   30.2530   40.5040 C   0  0  1  0  0  0  0  0  0  0  0  0
   36.3350   28.7860   40.4820 C   0  0  1  0  0  0  0  0  0  0  0  0
   36.1080   28.3890   39.1700 O   0  0  0  0  0  0  0  0  0  0  0  0
   36.5940   29.3770   38.3290 C   0  0  0  0  0  0  0  0  0  0  0  0
   36.1550   30.6310   39.0700 C   0  0  2  0  0  0  0  0  0  0  0  0
   37.6110   30.4750   40.6760 H   0  0  0  0  0  0  0  0  0  0  0  0
   35.4100   28.5100   41.0400 H   0  0  0  0  0  0  0  0  0  0  0  0
   37.6990   29.3690   38.2780 H   0  0  0  0  0  0  0  0  0  0  0  0
   36.1400   29.2810   37.3380 H   0  0  0  0  0  0  0  0  0  0  0  0
   35.0700   30.7870   38.9930 H   0  0  0  0  0  0  0  0  0  0  0  0
   35.7210   30.9310   41.3720 O   0  0  0  0  0  0  0  0  0  0  0  0
   36.2430   31.2510   42.1590 H   0  0  0  0  0  0  0  0  0  0  0  0
   36.8770   31.7470   38.6720 O   0  0  0  0  0  0  0  0  0  0  0  0
   37.9500   31.9160   39.5410 C   0  0  0  0  0  3  0  0  0  0  0  0
   39.2190   31.7050   38.7350 C   0  0  0  0  0  2  0  0  0  0  0  0
   40.3380   31.4500   39.7400 C   0  0  0  0  0  2  0  0  0  0  0  0
   40.0400   32.2880   40.9650 C   0  0  0  0  0  2  0  0  0  0  0  0
   39.3900   33.5990   40.5650 C   0  0  0  0  0  2  0  0  0  0  0  0
   37.9900   33.3410   40.0800 C   0  0  0  0  0  2  0  0  0  0  0  0
   37.7190   25.5370   40.6650 C   0  0  0  0  0  0  0  0  0  0  0  0
   37.6720   24.2790   41.2670 C   0  0  0  0  0  0  0  0  0  0  0  0
   38.3080   23.1820   40.6690 C   0  0  0  0  0  0  0  0  0  0  0  0
   38.9640   23.4510   39.4710 N   0  0  0  0  0  0  0  0  0  0  0  0
   38.9860   24.6860   38.9220 C   0  0  0  0  0  0  0  0  0  0  0  0
   38.3640   25.7440   39.5130 N   0  0  0  0  0  0  0  0  0  0  0  0
   37.2220   23.9200   42.1770 H   0  0  0  0  0  0  0  0  0  0  0  0
   38.3560   22.1780   41.0060 H   0  0  0  0  0  0  0  0  0  0  0  0
   39.5320   24.7550   37.9920 H   0  0  0  0  0  0  0  0  0  0  0  0
  1  7  1  6  0  0  0
  1  6  1  0  0  0  0
  2  8  1  6  0  0  0
  2  1  1  0  0  0  0
  2  3  1  0  0  0  0
  3 10  1  0  0  0  0
  3  4  1  0  0  0  0
  4 12  1  0  0  0  0
  4  5  1  0  0  0  0
  4 11  1  0  0  0  0
  5 13  1  0  0  0  0
  6 15  1  0  0  0  0
  6 16  1  0  0  0  0
  6  5  1  0  0  0  0
  9  3  1  0  0  0  0
 14  5  1  0  0  0  0
 17 22  1  1  0  0  0
 17 27  1  0  0  0  0
 18 17  1  0  0  0  0
 18  2  1  0  0  0  0
 18 23  1  1  0  0  0
 19 18  1  0  0  0  0
 20 21  1  0  0  0  0
 20 19  1  0  0  0  0
 21 26  1  6  0  0  0
 21 17  1  0  0  0  0
 24 20  1  0  0  0  0
 25 20  1  0  0  0  0
 27 28  1  0  0  0  0
 29 21  1  0  0  0  0
 29 30  1  0  0  0  0
 30 35  1  0  0  0  0
 31 30  1  0  0  0  0
 31 32  1  0  0  0  0
 32 33  1  0  0  0  0
 34 33  1  0  0  0  0
 35 34  1  0  0  0  0
 36 37  1  0  0  0  0
 36  1  1  0  0  0  0
 37 42  1  0  0  0  0
 38 43  1  0  0  0  0
 38 37  2  0  0  0  0
 39 38  1  0  0  0  0
 40 39  2  0  0  0  0
 40 41  1  0  0  0  0
 41 36  2  0  0  0  0
 44 40  1  0  0  0  0
M  END
>  <minimizedAffinity>
-6.29150391

$$$$

 OpenBabel03242517123D

 44 47  0  0  1  0  0  0  0  0999 V2000
   39.8100   31.9520   39.8590 C   0  0  2  0  0  0  0  0  0  0  0  0
   38.4610   31.3440   39.7040 C   0  0  2  0  0  0  0  0  0  0  0  0
   37.5020   32.2280   38.9960 C   0  0  0  0  0  0  0  0  0  0  0  0
   37.4050   33.6240   39.5660 C   0  0  0  0  0  0  0  0  0  0  0  0
   38.7050   34.1600   40.0900 C   0  0  0  0  0  0  0  0  0  0  0  0
   39.8920   33.4120   39.5130 C   0  0  0  0  0  0  0  0  0  0  0  0
   40.1260   31.8510   40.9410 H   0  0  0  0  0  0  0  0  0  0  0  0
   38.5670   30.4220   39.0970 H   0  0  0  0  0  0  0  0  0  0  0  0
   36.4860   31.7790   39.0780 H   0  0  0  0  0  0  0  0  0  0  0  0
   37.6950   32.2520   37.8900 H   0  0  0  0  0  0  0  0  0  0  0  0
   36.9990   34.2970   38.7840 H   0  0  0  0  0  0  0  0  0  0  0  0
   36.6790   33.6700   40.4120 H   0  0  0  0  0  0  0  0  0  0  0  0
   38.8500   35.2320   39.8020 H   0  0  0  0  0  0  0  0  0  0  0  0
   38.7470   34.1210   41.1940 H   0  0  0  0  0  0  0  0  0  0  0  0
   40.8020   33.8370   40.0320 H   0  0  0  0  0  0  0  0  0  0  0  0
   39.9200   33.6590   38.4540 H   0  0  0  0  0  0  0  0  0  0  0  0
   36.6390   30.1800   41.0130 C   0  0  1  0  0  0  0  0  0  0  0  0
   37.9200   30.9260   41.0530 C   0  0  1  0  0  0  0  0  0  0  0  0
   38.8770   30.1330   41.6750 O   0  0  0  0  0  0  0  0  0  0  0  0
   38.4470   28.8180   41.6270 C   0  0  0  0  0  0  0  0  0  0  0  0
   36.9630   28.9850   41.9210 C   0  0  2  0  0  0  0  0  0  0  0  0
   36.4380   29.8340   39.9900 H   0  0  0  0  0  0  0  0  0  0  0  0
   37.8300   31.8380   41.6900 H   0  0  0  0  0  0  0  0  0  0  0  0
   38.5560   28.3840   40.6150 H   0  0  0  0  0  0  0  0  0  0  0  0
   38.9700   28.2240   42.3820 H   0  0  0  0  0  0  0  0  0  0  0  0
   36.7870   29.2390   42.9750 H   0  0  0  0  0  0  0  0  0  0  0  0
   35.5730   30.8600   41.5600 O   0  0  0  0  0  0  0  0  0  0  0  0
   34.9540   31.1590   40.8370 H   0  0  0  0  0  0  0  0  0  0  0  0
   36.2270   27.8830   41.5140 O   0  0  0  0  0  0  0  0  0  0  0  0
   37.1050   26.8440   41.2210 C   0  0  0  0  0  3  0  0  0  0  0  0
   36.8940   25.7670   42.2700 C   0  0  0  0  0  2  0  0  0  0  0  0
   38.1220   24.8630   42.2230 C   0  0  0  0  0  2  0  0  0  0  0  0
   38.5770   24.8010   40.7800 C   0  0  0  0  0  2  0  0  0  0  0  0
   37.3840   24.8470   39.8450 C   0  0  0  0  0  2  0  0  0  0  0  0
   36.7780   26.2240   39.8670 C   0  0  0  0  0  2  0  0  0  0  0  0
   40.8460   31.2320   39.0920 C   0  0  0  0  0  0  0  0  0  0  0  0
   41.0320   31.6860   37.7860 C   0  0  0  0  0  0  0  0  0  0  0  0
   41.9900   31.0890   36.9550 C   0  0  0  0  0  0  0  0  0  0  0  0
   42.7080   30.0440   37.5280 N   0  0  0  0  0  0  0  0  0  0  0  0
   42.4970   29.6330   38.7980 C   0  0  0  0  0  0  0  0  0  0  0  0
   41.5620   30.2220   39.5950 N   0  0  0  0  0  0  0  0  0  0  0  0
   40.5580   32.4630   37.2080 H   0  0  0  0  0  0  0  0  0  0  0  0
   42.2390   31.3260   35.9530 H   0  0  0  0  0  0  0  0  0  0  0  0
   43.1230   28.8110   39.1150 H   0  0  0  0  0  0  0  0  0  0  0  0
  1  7  1  1  0  0  0
  2  8  1  6  0  0  0
  2  1  1  0  0  0  0
  2 18  1  0  0  0  0
  3  9  1  0  0  0  0
  3  4  1  0  0  0  0
  3  2  1  0  0  0  0
  4  5  1  0  0  0  0
  4 12  1  0  0  0  0
  5 14  1  0  0  0  0
  6  1  1  0  0  0  0
  6 15  1  0  0  0  0
  6  5  1  0  0  0  0
 10  3  1  0  0  0  0
 11  4  1  0  0  0  0
 13  5  1  0  0  0  0
 16  6  1  0  0  0  0
 17 22  1  6  0  0  0
 17 18  1  0  0  0  0
 17 27  1  0  0  0  0
 17 21  1  0  0  0  0
 18 19  1  0  0  0  0
 18 23  1  1  0  0  0
 20 19  1  0  0  0  0
 20 21  1  0  0  0  0
 20 25  1  0  0  0  0
 21 26  1  1  0  0  0
 24 20  1  0  0  0  0
 28 27  1  0  0  0  0
 29 21  1  0  0  0  0
 30 29  1  0  0  0  0
 30 31  1  0  0  0  0
 32 31  1  0  0  0  0
 33 32  1  0  0  0  0
 34 35  1  0  0  0  0
 34 33  1  0  0  0  0
 35 30  1  0  0  0  0
 36 41  1  0  0  0  0
 36  1  1  0  0  0  0
 37 36  2  0  0  0  0
 38 39  2  0  0  0  0
 38 37  1  0  0  0  0
 39 40  1  0  0  0  0
 40 44  1  0  0  0  0
 40 41  2  0  0  0  0
 42 37  1  0  0  0  0
 43 38  1  0  0  0  0
M  END
>  <minimizedAffinity>
-6.13433695

$$$$

 OpenBabel03242517123D

 44 47  0  0  1  0  0  0  0  0999 V2000
   36.4310   27.4180   38.6440 C   0  0  2  0  0  0  0  0  0  0  0  0
   35.5400   28.4210   39.2880 C   0  0  2  0  0  0  0  0  0  0  0  0
   34.3310   28.7280   38.4830 C   0  0  0  0  0  0  0  0  0  0  0  0
   34.6180   29.1010   37.0480 C   0  0  0  0  0  0  0  0  0  0  0  0
   35.7770   28.3620   36.4460 C   0  0  0  0  0  0  0  0  0  0  0  0
   36.0930   27.0930   37.2160 C   0  0  0  0  0  0  0  0  0  0  0  0
   37.4870   27.8230   38.6500 H   0  0  0  0  0  0  0  0  0  0  0  0
   35.1920   28.0030   40.2550 H   0  0  0  0  0  0  0  0  0  0  0  0
   33.8180   29.6030   38.9430 H   0  0  0  0  0  0  0  0  0  0  0  0
   33.5680   27.9070   38.5460 H   0  0  0  0  0  0  0  0  0  0  0  0
   33.7010   28.9290   36.4490 H   0  0  0  0  0  0  0  0  0  0  0  0
   34.8470   30.1870   36.9460 H   0  0  0  0  0  0  0  0  0  0  0  0
   35.5540   28.0350   35.3990 H   0  0  0  0  0  0  0  0  0  0  0  0
   36.6820   28.9950   36.3940 H   0  0  0  0  0  0  0  0  0  0  0  0
   37.0230   26.6670   36.7330 H   0  0  0  0  0  0  0  0  0  0  0  0
   35.2510   26.4240   37.0570 H   0  0  0  0  0  0  0  0  0  0  0  0
   36.4200   30.0100   41.0460 C   0  0  1  0  0  0  0  0  0  0  0  0
   36.3160   29.6800   39.6040 C   0  0  1  0  0  0  0  0  0  0  0  0
   37.5980   29.5380   39.0870 O   0  0  0  0  0  0  0  0  0  0  0  0
   38.4660   29.3090   40.1410 C   0  0  0  0  0  0  0  0  0  0  0  0
   37.9250   30.2780   41.1810 C   0  0  2  0  0  0  0  0  0  0  0  0
   36.1350   29.1390   41.6520 H   0  0  0  0  0  0  0  0  0  0  0  0
   35.8580   30.5240   39.0350 H   0  0  0  0  0  0  0  0  0  0  0  0
   38.3720   28.2810   40.5390 H   0  0  0  0  0  0  0  0  0  0  0  0
   39.4930   29.5340   39.8370 H   0  0  0  0  0  0  0  0  0  0  0  0
   38.1590   31.3200   40.9220 H   0  0  0  0  0  0  0  0  0  0  0  0
   35.7440   31.1540   41.4130 O   0  0  0  0  0  0  0  0  0  0  0  0
   34.9330   30.9130   41.9420 H   0  0  0  0  0  0  0  0  0  0  0  0
   38.3390   29.9480   42.4630 O   0  0  0  0  0  0  0  0  0  0  0  0
   38.9860   28.7160   42.4180 C   0  0  0  0  0  3  0  0  0  0  0  0
   40.4170   28.9430   42.8700 C   0  0  0  0  0  2  0  0  0  0  0  0
   41.2190   27.7310   42.4060 C   0  0  0  0  0  2  0  0  0  0  0  0
   40.3050   26.5280   42.4940 C   0  0  0  0  0  2  0  0  0  0  0  0
   39.3660   26.6610   43.6770 C   0  0  0  0  0  2  0  0  0  0  0  0
   38.3530   27.7380   43.4000 C   0  0  0  0  0  2  0  0  0  0  0  0
   36.5030   26.1550   39.4060 C   0  0  0  0  0  0  0  0  0  0  0  0
   35.9920   25.0390   38.7410 C   0  0  0  0  0  0  0  0  0  0  0  0
   36.0070   23.7790   39.3550 C   0  0  0  0  0  0  0  0  0  0  0  0
   36.5530   23.7440   40.6340 N   0  0  0  0  0  0  0  0  0  0  0  0
   37.0360   24.8490   41.2430 C   0  0  0  0  0  0  0  0  0  0  0  0
   37.0160   26.0680   40.6370 N   0  0  0  0  0  0  0  0  0  0  0  0
   35.5380   24.9100   37.7730 H   0  0  0  0  0  0  0  0  0  0  0  0
   35.6590   22.8530   38.9750 H   0  0  0  0  0  0  0  0  0  0  0  0
   37.4300   24.6800   42.2350 H   0  0  0  0  0  0  0  0  0  0  0  0
  1  7  1  6  0  0  0
  1  2  1  0  0  0  0
  1 36  1  0  0  0  0
  2 18  1  0  0  0  0
  2  8  1  1  0  0  0
  3 10  1  0  0  0  0
  3  9  1  0  0  0  0
  3  2  1  0  0  0  0
  4  3  1  0  0  0  0
  5  4  1  0  0  0  0
  5  6  1  0  0  0  0
  6  1  1  0  0  0  0
 11  4  1  0  0  0  0
 12  4  1  0  0  0  0
 13  5  1  0  0  0  0
 14  5  1  0  0  0  0
 15  6  1  0  0  0  0
 16  6  1  0  0  0  0
 17 21  1  0  0  0  0
 17 27  1  0  0  0  0
 17 22  1  1  0  0  0
 18 23  1  6  0  0  0
 18 17  1  0  0  0  0
 19 18  1  0  0  0  0
 19 20  1  0  0  0  0
 20 24  1  0  0  0  0
 20 21  1  0  0  0  0
 21 26  1  6  0  0  0
 21 29  1  0  0  0  0
 25 20  1  0  0  0  0
 27 28  1  0  0  0  0
 30 29  1  0  0  0  0
 30 31  1  0  0  0  0
 30 35  1  0  0  0  0
 32 33  1  0  0  0  0
 32 31  1  0  0  0  0
 33 34  1  0  0  0  0
 35 34  1  0  0  0  0
 36 41  1  0  0  0  0
 37 38  1  0  0  0  0
 37 36  2  0  0  0  0
 38 39  2  0  0  0  0
 39 40  1  0  0  0  0
 40 44  1  0  0  0  0
 41 40  2  0  0  0  0
 42 37  1  0  0  0  0
 43 38  1  0  0  0  0
M  END
>  <minimizedAffinity>
-6.07575655

$$$$

 OpenBabel03242517123D

 44 47  0  0  1  0  0  0  0  0999 V2000
   37.2340   28.2920   40.1480 C   0  0  2  0  0  0  0  0  0  0  0  0
   36.5470   29.5710   40.4720 C   0  0  2  0  0  0  0  0  0  0  0  0
   35.0740   29.5010   40.3000 C   0  0  0  0  0  0  0  0  0  0  0  0
   34.6280   28.9720   38.9570 C   0  0  0  0  0  0  0  0  0  0  0  0
   35.5210   27.9040   38.3960 C   0  0  0  0  0  0  0  0  0  0  0  0
   36.3710   27.2600   39.4760 C   0  0  0  0  0  0  0  0  0  0  0  0
   38.0910   28.5150   39.4430 H   0  0  0  0  0  0  0  0  0  0  0  0
   36.7410   29.8070   41.5380 H   0  0  0  0  0  0  0  0  0  0  0  0
   34.6610   30.5320   40.3890 H   0  0  0  0  0  0  0  0  0  0  0  0
   34.5820   28.9430   41.1420 H   0  0  0  0  0  0  0  0  0  0  0  0
   33.5910   28.5920   39.0540 H   0  0  0  0  0  0  0  0  0  0  0  0
   34.5840   29.7830   38.1930 H   0  0  0  0  0  0  0  0  0  0  0  0
   34.9270   27.0720   37.9400 H   0  0  0  0  0  0  0  0  0  0  0  0
   36.1770   28.2980   37.5990 H   0  0  0  0  0  0  0  0  0  0  0  0
   37.0560   26.5400   38.9360 H   0  0  0  0  0  0  0  0  0  0  0  0
   35.6840   26.7110   40.1160 H   0  0  0  0  0  0  0  0  0  0  0  0
   37.6590   31.8410   40.4430 C   0  0  1  0  0  0  0  0  0  0  0  0
   37.1340   30.7000   39.6540 C   0  0  1  0  0  0  0  0  0  0  0  0
   38.1670   30.1810   38.8830 O   0  0  0  0  0  0  0  0  0  0  0  0
   39.3690   30.5920   39.4360 C   0  0  0  0  0  0  0  0  0  0  0  0
   39.0420   32.0310   39.8060 C   0  0  2  0  0  0  0  0  0  0  0  0
   37.7640   31.5520   41.4980 H   0  0  0  0  0  0  0  0  0  0  0  0
   36.3620   31.0410   38.9250 H   0  0  0  0  0  0  0  0  0  0  0  0
   39.6080   30.0370   40.3620 H   0  0  0  0  0  0  0  0  0  0  0  0
   40.1700   30.5100   38.6950 H   0  0  0  0  0  0  0  0  0  0  0  0
   38.9760   32.6720   38.9160 H   0  0  0  0  0  0  0  0  0  0  0  0
   36.9470   33.0110   40.2840 O   0  0  0  0  0  0  0  0  0  0  0  0
   36.4240   33.2040   41.1120 H   0  0  0  0  0  0  0  0  0  0  0  0
   39.9220   32.5340   40.7540 O   0  0  0  0  0  0  0  0  0  0  0  0
   41.1090   32.8830   40.1180 C   0  0  0  0  0  3  0  0  0  0  0  0
   40.8070   34.0680   39.2190 C   0  0  0  0  0  2  0  0  0  0  0  0
   41.9540   34.1610   38.2180 C   0  0  0  0  0  2  0  0  0  0  0  0
   43.2140   33.7260   38.9370 C   0  0  0  0  0  2  0  0  0  0  0  0
   43.1710   34.1600   40.3900 C   0  0  0  0  0  2  0  0  0  0  0  0
   42.1510   33.3400   41.1320 C   0  0  0  0  0  2  0  0  0  0  0  0
   37.8640   27.6740   41.3310 C   0  0  0  0  0  0  0  0  0  0  0  0
   37.8490   28.4620   42.4830 C   0  0  0  0  0  0  0  0  0  0  0  0
   38.4120   27.9860   43.6760 C   0  0  0  0  0  0  0  0  0  0  0  0
   38.9640   26.7110   43.6090 N   0  0  0  0  0  0  0  0  0  0  0  0
   38.9590   25.9800   42.4720 C   0  0  0  0  0  0  0  0  0  0  0  0
   38.4090   26.4530   41.3190 N   0  0  0  0  0  0  0  0  0  0  0  0
   37.4750   29.4510   42.6860 H   0  0  0  0  0  0  0  0  0  0  0  0
   38.4720   28.4670   44.6180 H   0  0  0  0  0  0  0  0  0  0  0  0
   39.4220   25.0080   42.5600 H   0  0  0  0  0  0  0  0  0  0  0  0
  1  7  1  6  0  0  0
  1  2  1  0  0  0  0
  1 36  1  0  0  0  0
  2  8  1  1  0  0  0
  3  9  1  0  0  0  0
  3  2  1  0  0  0  0
  3 10  1  0  0  0  0
  4 11  1  0  0  0  0
  4  3  1  0  0  0  0
  5  4  1  0  0  0  0
  5  6  1  0  0  0  0
  6 16  1  0  0  0  0
  6  1  1  0  0  0  0
 12  4  1  0  0  0  0
 13  5  1  0  0  0  0
 14  5  1  0  0  0  0
 15  6  1  0  0  0  0
 17 22  1  1  0  0  0
 18 23  1  6  0  0  0
 18 17  1  0  0  0  0
 18  2  1  0  0  0  0
 19 20  1  0  0  0  0
 19 18  1  0  0  0  0
 20 21  1  0  0  0  0
 20 24  1  0  0  0  0
 21 26  1  6  0  0  0
 21 17  1  0  0  0  0
 21 29  1  0  0  0  0
 25 20  1  0  0  0  0
 27 17  1  0  0  0  0
 27 28  1  0  0  0  0
 30 29  1  0  0  0  0
 30 35  1  0  0  0  0
 31 30  1  0  0  0  0
 32 33  1  0  0  0  0
 32 31  1  0  0  0  0
 33 34  1  0  0  0  0
 34 35  1  0  0  0  0
 36 37  1  0  0  0  0
 37 42  1  0  0  0  0
 37 38  2  0  0  0  0
 38 43  1  0  0  0  0
 39 38  1  0  0  0  0
 40 44  1  0  0  0  0
 40 39  2  0  0  0  0
 41 36  2  0  0  0  0
 41 40  1  0  0  0  0
M  END
>  <minimizedAffinity>
-5.89568138

$$$$

 OpenBabel03242517123D

 44 47  0  0  1  0  0  0  0  0999 V2000
   35.5230   29.6360   37.7190 C   0  0  2  0  0  0  0  0  0  0  0  0
   36.7640   29.4140   38.5100 C   0  0  2  0  0  0  0  0  0  0  0  0
   36.5980   28.3960   39.5780 C   0  0  0  0  0  0  0  0  0  0  0  0
   35.4130   28.6330   40.4840 C   0  0  0  0  0  0  0  0  0  0  0  0
   34.2200   29.2190   39.7880 C   0  0  0  0  0  0  0  0  0  0  0  0
   34.2850   29.0010   38.2870 C   0  0  0  0  0  0  0  0  0  0  0  0
   35.3280   30.7490   37.6650 H   0  0  0  0  0  0  0  0  0  0  0  0
   37.5490   29.0410   37.8220 H   0  0  0  0  0  0  0  0  0  0  0  0
   37.5040   28.4190   40.2260 H   0  0  0  0  0  0  0  0  0  0  0  0
   36.5920   27.3530   39.1640 H   0  0  0  0  0  0  0  0  0  0  0  0
   35.1410   27.6730   40.9680 H   0  0  0  0  0  0  0  0  0  0  0  0
   35.6680   29.3290   41.3170 H   0  0  0  0  0  0  0  0  0  0  0  0
   33.2700   28.7330   40.1250 H   0  0  0  0  0  0  0  0  0  0  0  0
   34.1150   30.2990   39.9970 H   0  0  0  0  0  0  0  0  0  0  0  0
   33.3920   29.5480   37.8600 H   0  0  0  0  0  0  0  0  0  0  0  0
   34.1740   27.9300   38.1310 H   0  0  0  0  0  0  0  0  0  0  0  0
   37.2320   30.8160   40.5600 C   0  0  1  0  0  0  0  0  0  0  0  0
   37.2600   30.7230   39.0800 C   0  0  1  0  0  0  0  0  0  0  0  0
   38.5660   30.9150   38.6470 O   0  0  0  0  0  0  0  0  0  0  0  0
   39.4150   30.6770   39.7150 C   0  0  0  0  0  0  0  0  0  0  0  0
   38.6470   31.3350   40.8510 C   0  0  2  0  0  0  0  0  0  0  0  0
   37.0990   29.8160   40.9960 H   0  0  0  0  0  0  0  0  0  0  0  0
   36.6700   31.5500   38.6190 H   0  0  0  0  0  0  0  0  0  0  0  0
   39.5090   29.5960   39.9350 H   0  0  0  0  0  0  0  0  0  0  0  0
   40.3890   31.1390   39.5300 H   0  0  0  0  0  0  0  0  0  0  0  0
   38.6810   32.4310   40.7800 H   0  0  0  0  0  0  0  0  0  0  0  0
   36.3270   31.7320   41.0510 O   0  0  0  0  0  0  0  0  0  0  0  0
   35.5570   31.2560   41.4710 H   0  0  0  0  0  0  0  0  0  0  0  0
   39.0610   30.8740   42.0920 O   0  0  0  0  0  0  0  0  0  0  0  0
   38.7710   29.5160   42.1830 C   0  0  0  0  0  3  0  0  0  0  0  0
   40.0600   28.8050   42.5520 C   0  0  0  0  0  2  0  0  0  0  0  0
   39.8560   27.3300   42.2190 C   0  0  0  0  0  2  0  0  0  0  0  0
   38.4030   27.0050   42.4910 C   0  0  0  0  0  2  0  0  0  0  0  0
   37.8960   27.7990   43.6800 C   0  0  0  0  0  2  0  0  0  0  0  0
   37.7720   29.2500   43.3030 C   0  0  0  0  0  2  0  0  0  0  0  0
   35.6650   29.2060   36.3130 C   0  0  0  0  0  0  0  0  0  0  0  0
   34.8290   28.1550   35.9340 C   0  0  0  0  0  0  0  0  0  0  0  0
   34.8630   27.6580   34.6240 C   0  0  0  0  0  0  0  0  0  0  0  0
   35.7700   28.2810   33.7720 N   0  0  0  0  0  0  0  0  0  0  0  0
   36.5640   29.2950   34.1800 C   0  0  0  0  0  0  0  0  0  0  0  0
   36.5210   29.7700   35.4560 N   0  0  0  0  0  0  0  0  0  0  0  0
   34.0950   27.5750   36.4690 H   0  0  0  0  0  0  0  0  0  0  0  0
   34.2930   26.8740   34.1970 H   0  0  0  0  0  0  0  0  0  0  0  0
   37.2220   29.6860   33.4170 H   0  0  0  0  0  0  0  0  0  0  0  0
  1  7  1  6  0  0  0
  1  6  1  0  0  0  0
  1  2  1  0  0  0  0
  2  8  1  6  0  0  0
  2 18  1  0  0  0  0
  2  3  1  0  0  0  0
  3  9  1  0  0  0  0
  3  4  1  0  0  0  0
  4 11  1  0  0  0  0
  4 12  1  0  0  0  0
  5 14  1  0  0  0  0
  5 13  1  0  0  0  0
  5  4  1  0  0  0  0
  6  5  1  0  0  0  0
 10  3  1  0  0  0  0
 15  6  1  0  0  0  0
 16  6  1  0  0  0  0
 17 21  1  0  0  0  0
 17 22  1  1  0  0  0
 17 27  1  0  0  0  0
 18 23  1  6  0  0  0
 18 17  1  0  0  0  0
 19 18  1  0  0  0  0
 19 20  1  0  0  0  0
 20 24  1  0  0  0  0
 20 21  1  0  0  0  0
 21 26  1  6  0  0  0
 21 29  1  0  0  0  0
 25 20  1  0  0  0  0
 27 28  1  0  0  0  0
 29 30  1  0  0  0  0
 30 31  1  0  0  0  0
 30 35  1  0  0  0  0
 32 33  1  0  0  0  0
 32 31  1  0  0  0  0
 33 34  1  0  0  0  0
 35 34  1  0  0  0  0
 36  1  1  0  0  0  0
 37 36  1  0  0  0  0
 37 42  1  0  0  0  0
 38 37  2  0  0  0  0
 39 40  2  0  0  0  0
 39 38  1  0  0  0  0
 40 41  1  0  0  0  0
 41 36  2  0  0  0  0
 43 38  1  0  0  0  0
 44 40  1  0  0  0  0
M  END
>  <minimizedAffinity>
-5.80612326

$$$$

 OpenBabel03242517123D

 44 47  0  0  1  0  0  0  0  0999 V2000
   38.3170   31.1270   39.1800 C   0  0  2  0  0  0  0  0  0  0  0  0
   38.4390   29.8490   39.9310 C   0  0  2  0  0  0  0  0  0  0  0  0
   38.0510   28.6630   39.1270 C   0  0  0  0  0  0  0  0  0  0  0  0
   36.6980   28.7750   38.4650 C   0  0  0  0  0  0  0  0  0  0  0  0
   36.3580   30.1620   38.0040 C   0  0  0  0  0  0  0  0  0  0  0  0
   37.5980   31.0250   37.8640 C   0  0  0  0  0  0  0  0  0  0  0  0
   37.7370   31.8620   39.8160 H   0  0  0  0  0  0  0  0  0  0  0  0
   39.5020   29.7170   40.2170 H   0  0  0  0  0  0  0  0  0  0  0  0
   38.0000   27.7810   39.8060 H   0  0  0  0  0  0  0  0  0  0  0  0
   38.8450   28.3830   38.3850 H   0  0  0  0  0  0  0  0  0  0  0  0
   36.6620   28.0690   37.6120 H   0  0  0  0  0  0  0  0  0  0  0  0
   35.8780   28.4600   39.1530 H   0  0  0  0  0  0  0  0  0  0  0  0
   35.8780   30.1510   36.9930 H   0  0  0  0  0  0  0  0  0  0  0  0
   35.6430   30.6560   38.6880 H   0  0  0  0  0  0  0  0  0  0  0  0
   37.2230   32.0580   37.5970 H   0  0  0  0  0  0  0  0  0  0  0  0
   38.1640   30.6090   37.0330 H   0  0  0  0  0  0  0  0  0  0  0  0
   37.0430   28.6360   41.6540 C   0  0  1  0  0  0  0  0  0  0  0  0
   37.6400   29.9200   41.2130 C   0  0  1  0  0  0  0  0  0  0  0  0
   38.4790   30.3880   42.2180 O   0  0  0  0  0  0  0  0  0  0  0  0
   38.8060   29.3220   43.0400 C   0  0  0  0  0  0  0  0  0  0  0  0
   37.4690   28.6010   43.1280 C   0  0  2  0  0  0  0  0  0  0  0  0
   37.5020   27.8010   41.1080 H   0  0  0  0  0  0  0  0  0  0  0  0
   36.8550   30.7030   41.0930 H   0  0  0  0  0  0  0  0  0  0  0  0
   39.5390   28.6440   42.5650 H   0  0  0  0  0  0  0  0  0  0  0  0
   39.1610   29.6910   44.0070 H   0  0  0  0  0  0  0  0  0  0  0  0
   36.7530   29.1530   43.7530 H   0  0  0  0  0  0  0  0  0  0  0  0
   35.6660   28.6070   41.6030 O   0  0  0  0  0  0  0  0  0  0  0  0
   35.3670   28.0230   40.8520 H   0  0  0  0  0  0  0  0  0  0  0  0
   37.6170   27.2830   43.5350 O   0  0  0  0  0  0  0  0  0  0  0  0
   37.9870   26.5170   42.4340 C   0  0  0  0  0  3  0  0  0  0  0  0
   39.3630   25.9450   42.7260 C   0  0  0  0  0  2  0  0  0  0  0  0
   39.9420   25.4950   41.3890 C   0  0  0  0  0  2  0  0  0  0  0  0
   38.7900   24.9890   40.5480 C   0  0  0  0  0  2  0  0  0  0  0  0
   37.7540   24.3080   41.4220 C   0  0  0  0  0  2  0  0  0  0  0  0
   37.0380   25.3380   42.2530 C   0  0  0  0  0  2  0  0  0  0  0  0
   39.6240   31.7730   38.9490 C   0  0  0  0  0  0  0  0  0  0  0  0
   40.0660   31.7470   37.6250 C   0  0  0  0  0  0  0  0  0  0  0  0
   41.2910   32.3320   37.2740 C   0  0  0  0  0  0  0  0  0  0  0  0
   41.9970   32.9150   38.3210 N   0  0  0  0  0  0  0  0  0  0  0  0
   41.5340   32.9180   39.5910 C   0  0  0  0  0  0  0  0  0  0  0  0
   40.3420   32.3460   39.9200 N   0  0  0  0  0  0  0  0  0  0  0  0
   39.6460   31.3350   36.7230 H   0  0  0  0  0  0  0  0  0  0  0  0
   41.7480   32.3890   36.3200 H   0  0  0  0  0  0  0  0  0  0  0  0
   42.1830   33.4030   40.3050 H   0  0  0  0  0  0  0  0  0  0  0  0
  1  7  1  1  0  0  0
  1  2  1  0  0  0  0
  2  8  1  1  0  0  0
  2 18  1  0  0  0  0
  3  9  1  0  0  0  0
  3  2  1  0  0  0  0
  4  3  1  0  0  0  0
  4 12  1  0  0  0  0
  5  4  1  0  0  0  0
  5 14  1  0  0  0  0
  6  5  1  0  0  0  0
  6  1  1  0  0  0  0
 10  3  1  0  0  0  0
 11  4  1  0  0  0  0
 13  5  1  0  0  0  0
 15  6  1  0  0  0  0
 16  6  1  0  0  0  0
 17 22  1  6  0  0  0
 17 21  1  0  0  0  0
 18 23  1  6  0  0  0
 18 17  1  0  0  0  0
 18 19  1  0  0  0  0
 19 20  1  0  0  0  0
 20 21  1  0  0  0  0
 20 25  1  0  0  0  0
 21 29  1  0  0  0  0
 21 26  1  1  0  0  0
 24 20  1  0  0  0  0
 27 17  1  0  0  0  0
 28 27  1  0  0  0  0
 30 31  1  0  0  0  0
 30 29  1  0  0  0  0
 32 31  1  0  0  0  0
 33 32  1  0  0  0  0
 33 34  1  0  0  0  0
 34 35  1  0  0  0  0
 35 30  1  0  0  0  0
 36  1  1  0  0  0  0
 36 41  1  0  0  0  0
 37 36  2  0  0  0  0
 38 37  1  0  0  0  0
 38 39  2  0  0  0  0
 39 40  1  0  0  0  0
 40 41  2  0  0  0  0
 40 44  1  0  0  0  0
 42 37  1  0  0  0  0
 43 38  1  0  0  0  0
M  END
>  <minimizedAffinity>
-5.74110222

$$$$

 OpenBabel03242517123D

 44 47  0  0  1  0  0  0  0  0999 V2000
   38.8650   27.5620   41.9250 C   0  0  2  0  0  0  0  0  0  0  0  0
   38.0590   28.7430   42.3360 C   0  0  2  0  0  0  0  0  0  0  0  0
   37.2590   28.5020   43.5640 C   0  0  0  0  0  0  0  0  0  0  0  0
   36.4080   27.2550   43.5180 C   0  0  0  0  0  0  0  0  0  0  0  0
   37.0380   26.1150   42.7730 C   0  0  0  0  0  0  0  0  0  0  0  0
   38.5400   26.2870   42.6520 C   0  0  0  0  0  0  0  0  0  0  0  0
   38.6810   27.3700   40.8250 H   0  0  0  0  0  0  0  0  0  0  0  0
   38.7560   29.5760   42.5580 H   0  0  0  0  0  0  0  0  0  0  0  0
   36.5610   29.3600   43.7000 H   0  0  0  0  0  0  0  0  0  0  0  0
   37.8960   28.5270   44.4880 H   0  0  0  0  0  0  0  0  0  0  0  0
   36.1720   26.9510   44.5570 H   0  0  0  0  0  0  0  0  0  0  0  0
   35.4250   27.4490   43.0280 H   0  0  0  0  0  0  0  0  0  0  0  0
   36.8840   25.1430   43.3080 H   0  0  0  0  0  0  0  0  0  0  0  0
   36.6000   25.9940   41.7650 H   0  0  0  0  0  0  0  0  0  0  0  0
   38.8950   25.4260   42.0090 H   0  0  0  0  0  0  0  0  0  0  0  0
   38.9390   26.1880   43.6590 H   0  0  0  0  0  0  0  0  0  0  0  0
   36.9990   30.6630   41.0810 C   0  0  1  0  0  0  0  0  0  0  0  0
   37.1770   29.1960   41.1940 C   0  0  1  0  0  0  0  0  0  0  0  0
   37.7280   28.7220   40.0100 O   0  0  0  0  0  0  0  0  0  0  0  0
   38.3160   29.7870   39.3500 C   0  0  0  0  0  0  0  0  0  0  0  0
   37.2880   30.8820   39.5890 C   0  0  2  0  0  0  0  0  0  0  0  0
   37.7510   31.1810   41.6920 H   0  0  0  0  0  0  0  0  0  0  0  0
   36.1910   28.6810   41.2900 H   0  0  0  0  0  0  0  0  0  0  0  0
   39.2690   30.0920   39.8230 H   0  0  0  0  0  0  0  0  0  0  0  0
   38.4480   29.5450   38.2910 H   0  0  0  0  0  0  0  0  0  0  0  0
   36.3810   30.7230   38.9900 H   0  0  0  0  0  0  0  0  0  0  0  0
   35.7170   31.0980   41.3400 O   0  0  0  0  0  0  0  0  0  0  0  0
   35.6910   31.5700   42.2180 H   0  0  0  0  0  0  0  0  0  0  0  0
   37.8250   32.1480   39.4040 O   0  0  0  0  0  0  0  0  0  0  0  0
   39.1980   32.0850   39.6240 C   0  0  0  0  0  3  0  0  0  0  0  0
   39.8790   32.5490   38.3490 C   0  0  0  0  0  2  0  0  0  0  0  0
   41.3250   32.0680   38.4260 C   0  0  0  0  0  2  0  0  0  0  0  0
   41.7410   32.1280   39.8800 C   0  0  0  0  0  2  0  0  0  0  0  0
   41.0850   33.3090   40.5700 C   0  0  0  0  0  2  0  0  0  0  0  0
   39.6130   33.0450   40.7320 C   0  0  0  0  0  2  0  0  0  0  0  0
   40.3170   27.8040   42.0330 C   0  0  0  0  0  0  0  0  0  0  0  0
   41.0870   26.6620   42.2570 C   0  0  0  0  0  0  0  0  0  0  0  0
   42.4810   26.7570   42.3730 C   0  0  0  0  0  0  0  0  0  0  0  0
   43.0050   28.0410   42.2510 N   0  0  0  0  0  0  0  0  0  0  0  0
   42.2230   29.1210   42.0340 C   0  0  0  0  0  0  0  0  0  0  0  0
   40.8690   29.0160   41.9230 N   0  0  0  0  0  0  0  0  0  0  0  0
   40.8340   25.6220   42.3810 H   0  0  0  0  0  0  0  0  0  0  0  0
   43.1870   25.9850   42.5410 H   0  0  0  0  0  0  0  0  0  0  0  0
   42.7590   30.0570   41.9600 H   0  0  0  0  0  0  0  0  0  0  0  0
  1  7  1  6  0  0  0
  1 36  1  0  0  0  0
  1  2  1  0  0  0  0
  1  6  1  0  0  0  0
  2  8  1  1  0  0  0
  2  3  1  0  0  0  0
  3  9  1  0  0  0  0
  3 10  1  0  0  0  0
  4  3  1  0  0  0  0
  4 11  1  0  0  0  0
  5 13  1  0  0  0  0
  5  4  1  0  0  0  0
  6  5  1  0  0  0  0
  6 16  1  0  0  0  0
 12  4  1  0  0  0  0
 14  5  1  0  0  0  0
 15  6  1  0  0  0  0
 17 18  1  0  0  0  0
 17 27  1  0  0  0  0
 17 22  1  1  0  0  0
 18 23  1  1  0  0  0
 18  2  1  0  0  0  0
 19 18  1  0  0  0  0
 20 21  1  0  0  0  0
 20 24  1  0  0  0  0
 20 19  1  0  0  0  0
 21 26  1  6  0  0  0
 21 17  1  0  0  0  0
 25 20  1  0  0  0  0
 27 28  1  0  0  0  0
 29 21  1  0  0  0  0
 29 30  1  0  0  0  0
 30 35  1  0  0  0  0
 31 32  1  0  0  0  0
 31 30  1  0  0  0  0
 32 33  1  0  0  0  0
 33 34  1  0  0  0  0
 34 35  1  0  0  0  0
 36 37  1  0  0  0  0
 37 38  2  0  0  0  0
 37 42  1  0  0  0  0
 38 43  1  0  0  0  0
 39 38  1  0  0  0  0
 40 39  2  0  0  0  0
 41 36  2  0  0  0  0
 41 40  1  0  0  0  0
 44 40  1  0  0  0  0
M  END
>  <minimizedAffinity>
-5.68914747

$$$$

 OpenBabel03242517123D

 44 47  0  0  1  0  0  0  0  0999 V2000
   39.3550   25.3400   40.8880 C   0  0  2  0  0  0  0  0  0  0  0  0
   38.2860   25.9430   41.7280 C   0  0  2  0  0  0  0  0  0  0  0  0
   37.2770   24.9550   42.1840 C   0  0  0  0  0  0  0  0  0  0  0  0
   36.6860   24.1130   41.0780 C   0  0  0  0  0  0  0  0  0  0  0  0
   37.6560   23.7750   39.9840 C   0  0  0  0  0  0  0  0  0  0  0  0
   39.0940   23.9270   40.4450 C   0  0  0  0  0  0  0  0  0  0  0  0
   39.4680   25.9640   39.9500 H   0  0  0  0  0  0  0  0  0  0  0  0
   38.7610   26.3690   42.6360 H   0  0  0  0  0  0  0  0  0  0  0  0
   36.4300   25.5090   42.6500 H   0  0  0  0  0  0  0  0  0  0  0  0
   37.6680   24.3140   43.0190 H   0  0  0  0  0  0  0  0  0  0  0  0
   36.2710   23.1870   41.5220 H   0  0  0  0  0  0  0  0  0  0  0  0
   35.8250   24.6270   40.5890 H   0  0  0  0  0  0  0  0  0  0  0  0
   37.5510   22.7090   39.6600 H   0  0  0  0  0  0  0  0  0  0  0  0
   37.4910   24.3960   39.0850 H   0  0  0  0  0  0  0  0  0  0  0  0
   39.7300   23.7320   39.5300 H   0  0  0  0  0  0  0  0  0  0  0  0
   39.2590   23.1490   41.1860 H   0  0  0  0  0  0  0  0  0  0  0  0
   37.4460   28.3270   41.7890 C   0  0  1  0  0  0  0  0  0  0  0  0
   37.6290   27.0890   40.9920 C   0  0  1  0  0  0  0  0  0  0  0  0
   38.4050   27.3890   39.8790 O   0  0  0  0  0  0  0  0  0  0  0  0
   39.0870   28.5670   40.1310 C   0  0  0  0  0  0  0  0  0  0  0  0
   38.0100   29.3830   40.8300 C   0  0  2  0  0  0  0  0  0  0  0  0
   38.0580   28.2800   42.7010 H   0  0  0  0  0  0  0  0  0  0  0  0
   36.6540   26.7300   40.5870 H   0  0  0  0  0  0  0  0  0  0  0  0
   39.9250   28.4170   40.8370 H   0  0  0  0  0  0  0  0  0  0  0  0
   39.4230   29.0140   39.1910 H   0  0  0  0  0  0  0  0  0  0  0  0
   37.2370   29.7200   40.1250 H   0  0  0  0  0  0  0  0  0  0  0  0
   36.1300   28.6400   42.0510 O   0  0  0  0  0  0  0  0  0  0  0  0
   35.9270   28.4730   43.0140 H   0  0  0  0  0  0  0  0  0  0  0  0
   38.5470   30.4320   41.5620 O   0  0  0  0  0  0  0  0  0  0  0  0
   38.1560   31.6320   40.9740 C   0  0  0  0  0  3  0  0  0  0  0  0
   39.3720   32.2060   40.2710 C   0  0  0  0  0  2  0  0  0  0  0  0
   39.0770   33.6820   40.0220 C   0  0  0  0  0  2  0  0  0  0  0  0
   37.5930   33.8020   39.7460 C   0  0  0  0  0  2  0  0  0  0  0  0
   37.0940   32.5830   38.9930 C   0  0  0  0  0  2  0  0  0  0  0  0
   37.0920   31.3900   39.9090 C   0  0  0  0  0  2  0  0  0  0  0  0
   40.6800   25.3880   41.5380 C   0  0  0  0  0  0  0  0  0  0  0  0
   41.7610   25.4850   40.6620 C   0  0  0  0  0  0  0  0  0  0  0  0
   43.0720   25.5430   41.1550 C   0  0  0  0  0  0  0  0  0  0  0  0
   43.1920   25.4960   42.5400 N   0  0  0  0  0  0  0  0  0  0  0  0
   42.1180   25.4010   43.3550 C   0  0  0  0  0  0  0  0  0  0  0  0
   40.8490   25.3450   42.8630 N   0  0  0  0  0  0  0  0  0  0  0  0
   41.8300   25.5220   39.5870 H   0  0  0  0  0  0  0  0  0  0  0  0
   43.9810   25.6180   40.6150 H   0  0  0  0  0  0  0  0  0  0  0  0
   42.3540   25.3720   44.4090 H   0  0  0  0  0  0  0  0  0  0  0  0
  1  7  1  6  0  0  0
  1 36  1  0  0  0  0
  1  2  1  0  0  0  0
  2  3  1  0  0  0  0
  2  8  1  1  0  0  0
  3  9  1  0  0  0  0
  3 10  1  0  0  0  0
  4 11  1  0  0  0  0
  4  3  1  0  0  0  0
  5  6  1  0  0  0  0
  5  4  1  0  0  0  0
  6  1  1  0  0  0  0
  6 16  1  0  0  0  0
 12  4  1  0  0  0  0
 13  5  1  0  0  0  0
 14  5  1  0  0  0  0
 15  6  1  0  0  0  0
 17 27  1  0  0  0  0
 17 22  1  1  0  0  0
 18 23  1  6  0  0  0
 18  2  1  0  0  0  0
 18 17  1  0  0  0  0
 19 20  1  0  0  0  0
 19 18  1  0  0  0  0
 20 21  1  0  0  0  0
 20 24  1  0  0  0  0
 21 26  1  6  0  0  0
 21 29  1  0  0  0  0
 21 17  1  0  0  0  0
 25 20  1  0  0  0  0
 27 28  1  0  0  0  0
 30 29  1  0  0  0  0
 31 30  1  0  0  0  0
 32 31  1  0  0  0  0
 33 32  1  0  0  0  0
 34 33  1  0  0  0  0
 34 35  1  0  0  0  0
 35 30  1  0  0  0  0
 36 41  1  0  0  0  0
 37 38  1  0  0  0  0
 37 36  2  0  0  0  0
 38 39  2  0  0  0  0
 39 40  1  0  0  0  0
 40 44  1  0  0  0  0
 41 40  2  0  0  0  0
 42 37  1  0  0  0  0
 43 38  1  0  0  0  0
M  END
>  <minimizedAffinity>
-5.68448591

$$$$

 OpenBabel03242517123D

 44 47  0  0  1  0  0  0  0  0999 V2000
   36.6210   26.0100   39.9350 C   0  0  2  0  0  0  0  0  0  0  0  0
   37.3730   27.1570   40.5110 C   0  0  2  0  0  0  0  0  0  0  0  0
   38.4420   26.7390   41.4520 C   0  0  0  0  0  0  0  0  0  0  0  0
   37.9820   25.7930   42.5360 C   0  0  0  0  0  0  0  0  0  0  0  0
   36.9240   24.8250   42.0930 C   0  0  0  0  0  0  0  0  0  0  0  0
   36.8950   24.6810   40.5830 C   0  0  0  0  0  0  0  0  0  0  0  0
   35.5140   26.2120   40.0530 H   0  0  0  0  0  0  0  0  0  0  0  0
   37.8640   27.7010   39.6790 H   0  0  0  0  0  0  0  0  0  0  0  0
   38.8310   27.6480   41.9660 H   0  0  0  0  0  0  0  0  0  0  0  0
   39.3390   26.3340   40.9120 H   0  0  0  0  0  0  0  0  0  0  0  0
   38.8640   25.2460   42.9250 H   0  0  0  0  0  0  0  0  0  0  0  0
   37.5600   26.3460   43.4090 H   0  0  0  0  0  0  0  0  0  0  0  0
   37.1170   23.7980   42.4930 H   0  0  0  0  0  0  0  0  0  0  0  0
   35.9220   25.1220   42.4520 H   0  0  0  0  0  0  0  0  0  0  0  0
   36.0190   24.0030   40.3570 H   0  0  0  0  0  0  0  0  0  0  0  0
   37.8260   24.1900   40.3070 H   0  0  0  0  0  0  0  0  0  0  0  0
   37.0370   29.3770   41.6730 C   0  0  1  0  0  0  0  0  0  0  0  0
   36.4180   28.1260   41.1720 C   0  0  1  0  0  0  0  0  0  0  0  0
   35.4330   28.4580   40.2490 O   0  0  0  0  0  0  0  0  0  0  0  0
   35.6760   29.7450   39.7990 C   0  0  0  0  0  0  0  0  0  0  0  0
   36.0870   30.4320   41.0930 C   0  0  2  0  0  0  0  0  0  0  0  0
   38.0420   29.4960   41.2450 H   0  0  0  0  0  0  0  0  0  0  0  0
   35.8870   27.5880   41.9920 H   0  0  0  0  0  0  0  0  0  0  0  0
   36.5300   29.7820   39.0970 H   0  0  0  0  0  0  0  0  0  0  0  0
   34.7680   30.1650   39.3580 H   0  0  0  0  0  0  0  0  0  0  0  0
   35.2260   30.5880   41.7580 H   0  0  0  0  0  0  0  0  0  0  0  0
   37.0310   29.4990   43.0460 O   0  0  0  0  0  0  0  0  0  0  0  0
   37.9550   29.3770   43.4020 H   0  0  0  0  0  0  0  0  0  0  0  0
   36.7880   31.6060   40.8560 O   0  0  0  0  0  0  0  0  0  0  0  0
   37.6700   31.3910   39.8000 C   0  0  0  0  0  3  0  0  0  0  0  0
   37.2760   32.3410   38.6850 C   0  0  0  0  0  2  0  0  0  0  0  0
   37.9260   31.8130   37.4100 C   0  0  0  0  0  2  0  0  0  0  0  0
   39.2560   31.2040   37.8040 C   0  0  0  0  0  2  0  0  0  0  0  0
   39.8780   31.9840   38.9460 C   0  0  0  0  0  2  0  0  0  0  0  0
   39.0960   31.7420   40.2080 C   0  0  0  0  0  2  0  0  0  0  0  0
   36.8300   25.8710   38.4800 C   0  0  0  0  0  0  0  0  0  0  0  0
   36.5230   24.6140   37.9600 C   0  0  0  0  0  0  0  0  0  0  0  0
   36.6730   24.3560   36.5900 C   0  0  0  0  0  0  0  0  0  0  0  0
   37.1400   25.4230   35.8290 N   0  0  0  0  0  0  0  0  0  0  0  0
   37.4280   26.6260   36.3720 C   0  0  0  0  0  0  0  0  0  0  0  0
   37.2770   26.8650   37.7050 N   0  0  0  0  0  0  0  0  0  0  0  0
   36.1670   23.7030   38.4120 H   0  0  0  0  0  0  0  0  0  0  0  0
   36.4800   23.4600   36.0590 H   0  0  0  0  0  0  0  0  0  0  0  0
   37.7820   27.3650   35.6680 H   0  0  0  0  0  0  0  0  0  0  0  0
  1  7  1  1  0  0  0
  1  2  1  0  0  0  0
  1  6  1  0  0  0  0
  2  8  1  6  0  0  0
  2 18  1  0  0  0  0
  2  3  1  0  0  0  0
  3  9  1  0  0  0  0
  3  4  1  0  0  0  0
  4 11  1  0  0  0  0
  4 12  1  0  0  0  0
  5 14  1  0  0  0  0
  5 13  1  0  0  0  0
  5  4  1  0  0  0  0
  6  5  1  0  0  0  0
 10  3  1  0  0  0  0
 15  6  1  0  0  0  0
 16  6  1  0  0  0  0
 17 22  1  6  0  0  0
 17 27  1  0  0  0  0
 18 17  1  0  0  0  0
 18 23  1  1  0  0  0
 19 18  1  0  0  0  0
 20 19  1  0  0  0  0
 20 21  1  0  0  0  0
 21 17  1  0  0  0  0
 21 26  1  1  0  0  0
 24 20  1  0  0  0  0
 25 20  1  0  0  0  0
 27 28  1  0  0  0  0
 29 21  1  0  0  0  0
 30 35  1  0  0  0  0
 30 29  1  0  0  0  0
 31 30  1  0  0  0  0
 32 33  1  0  0  0  0
 32 31  1  0  0  0  0
 33 34  1  0  0  0  0
 34 35  1  0  0  0  0
 36  1  1  0  0  0  0
 37 42  1  0  0  0  0
 37 36  1  0  0  0  0
 38 37  2  0  0  0  0
 39 40  2  0  0  0  0
 39 38  1  0  0  0  0
 40 41  1  0  0  0  0
 41 36  2  0  0  0  0
 43 38  1  0  0  0  0
 44 40  1  0  0  0  0
M  END
>  <minimizedAffinity>
-5.67245531

$$$$
