
 OpenBabel03252507043D

 44 47  0  0  0  0  0  0  0  0999 V2000
   42.1150   31.6790   41.9770 C   0  0  0  0  0  0  0  0  0  0  0  0
   42.1790   32.4800   41.1630 H   0  0  0  0  0  0  0  0  0  0  0  0
   41.6040   32.2130   42.8080 H   0  0  0  0  0  0  0  0  0  0  0  0
   41.4820   30.5700   41.5960 N   0  0  0  0  0  0  0  0  0  0  0  0
   41.3220   29.3530   42.3170 C   0  0  0  0  0  0  0  0  0  0  0  0
   39.8490   29.4990   42.7000 C   0  0  0  0  0  0  0  0  0  0  0  0
   38.9500   29.6040   41.5650 C   0  0  0  0  0  0  0  0  0  0  0  0
   39.4610   30.0790   40.2980 C   0  0  0  0  0  0  0  0  0  0  0  0
   40.8590   30.6490   40.2500 C   0  0  0  0  0  0  0  0  0  0  0  0
   41.8990   29.4770   43.2770 H   0  0  0  0  0  0  0  0  0  0  0  0
   41.5750   28.4200   41.8440 H   0  0  0  0  0  0  0  0  0  0  0  0
   39.6250   28.6060   43.3320 H   0  0  0  0  0  0  0  0  0  0  0  0
   39.8110   30.3710   43.4090 H   0  0  0  0  0  0  0  0  0  0  0  0
   38.4800   28.5970   41.3650 H   0  0  0  0  0  0  0  0  0  0  0  0
   38.0700   30.2430   41.8430 H   0  0  0  0  0  0  0  0  0  0  0  0
   38.9500   30.0970   39.3760 H   0  0  0  0  0  0  0  0  0  0  0  0
   41.5560   31.3210   38.8190 S   0  0  0  0  0  0  0  0  0  0  0  0
   41.2780   33.0200   38.4290 C   0  0  0  0  0  3  0  0  0  0  0  0
   42.4580   33.9380   38.5200 C   0  0  0  0  0  2  0  0  0  0  0  0
   41.9510   35.3670   38.4340 C   0  0  0  0  0  2  0  0  0  0  0  0
   40.6920   35.4870   37.6000 C   0  0  0  0  0  2  0  0  0  0  0  0
   39.5440   34.7180   38.2210 C   0  0  0  0  0  2  0  0  0  0  0  0
   40.1270   33.6720   39.1810 C   0  0  0  0  0  2  0  0  0  0  0  0
   43.5310   31.4480   42.3720 C   0  0  0  0  0  0  0  0  0  0  0  0
   43.5520   31.2110   43.4760 H   0  0  0  0  0  0  0  0  0  0  0  0
   43.9770   30.6050   41.8130 H   0  0  0  0  0  0  0  0  0  0  0  0
   44.2800   32.6980   42.1690 C   0  0  0  0  0  0  0  0  0  0  0  0
   43.6200   33.8700   41.8860 C   0  0  0  0  0  0  0  0  0  0  0  0
   44.3660   35.0200   41.6890 C   0  0  0  0  0  0  0  0  0  0  0  0
   45.7310   34.9290   41.7890 N   0  0  0  0  0  0  0  0  0  0  0  0
   46.3330   33.7790   42.0660 C   0  0  0  0  0  0  0  0  0  0  0  0
   45.5910   32.6860   42.2500 N   0  0  0  0  0  0  0  0  0  0  0  0
   42.5830   34.1450   41.7850 H   0  0  0  0  0  0  0  0  0  0  0  0
   44.0240   36.0260   41.4560 H   0  0  0  0  0  0  0  0  0  0  0  0
   47.7910   33.7870   42.1830 C   0  0  0  0  0  0  0  0  0  0  0  0
   48.5010   32.5900   42.1900 C   0  0  0  0  0  0  0  0  0  0  0  0
   49.8730   32.6030   42.3120 C   0  0  0  0  0  0  0  0  0  0  0  0
   50.4240   33.8530   42.4190 C   0  0  0  0  0  0  0  0  0  0  0  0
   49.7630   35.0840   42.4180 C   0  0  0  0  0  0  0  0  0  0  0  0
   48.4150   34.9750   42.2930 N   0  0  0  0  0  0  0  0  0  0  0  0
   48.0010   31.6260   42.1010 H   0  0  0  0  0  0  0  0  0  0  0  0
   50.5100   31.7300   42.3280 H   0  0  0  0  0  0  0  0  0  0  0  0
   51.5150   33.9150   42.5190 H   0  0  0  0  0  0  0  0  0  0  0  0
   50.2850   36.0030   42.5070 H   0  0  0  0  0  0  0  0  0  0  0  0
  1 24  1  0  0  0  0
  1  3  1  0  0  0  0
  2  1  1  0  0  0  0
  4  1  1  0  0  0  0
  4  5  1  0  0  0  0
  5  6  1  0  0  0  0
  5 10  1  0  0  0  0
  6 12  1  0  0  0  0
  6 13  1  0  0  0  0
  7 15  1  0  0  0  0
  7  6  1  0  0  0  0
  8  7  1  0  0  0  0
  9  8  2  0  0  0  0
  9  4  1  0  0  0  0
 11  5  1  0  0  0  0
 14  7  1  0  0  0  0
 16  8  1  0  0  0  0
 17  9  1  0  0  0  0
 18 19  1  0  0  0  0
 18 17  1  0  0  0  0
 18 23  1  0  0  0  0
 20 19  1  0  0  0  0
 21 22  1  0  0  0  0
 21 20  1  0  0  0  0
 22 23  1  0  0  0  0
 24 25  1  0  0  0  0
 26 24  1  0  0  0  0
 27 32  1  0  0  0  0
 27 24  1  0  0  0  0
 28 27  2  0  0  0  0
 29 30  2  0  0  0  0
 29 28  1  0  0  0  0
 30 31  1  0  0  0  0
 31 35  1  0  0  0  0
 31 32  2  0  0  0  0
 33 28  1  0  0  0  0
 34 29  1  0  0  0  0
 35 36  2  0  0  0  0
 35 40  1  0  0  0  0
 36 37  1  0  0  0  0
 37 42  1  0  0  0  0
 37 38  2  0  0  0  0
 38 43  1  0  0  0  0
 39 38  1  0  0  0  0
 39 44  1  0  0  0  0
 40 39  2  0  0  0  0
 41 36  1  0  0  0  0
M  END
>  <minimizedAffinity>
-5.27506113

>  <minimizedRMSD>
2.87697697

$$$$
