
 OpenBabel03252502373D

 21 22  0  0  1  0  0  0  0  0999 V2000
   46.5140   34.9330   42.0200 C   0  0  2  0  0  0  0  0  0  0  0  0
   45.9120   35.8380   41.7740 H   0  0  0  0  0  0  0  0  0  0  0  0
   45.1540   35.2840   44.0350 C   0  0  0  0  0  0  0  0  0  0  0  0
   46.1860   34.5560   43.3920 C   0  0  0  0  0  0  0  0  0  0  0  0
   46.8180   33.5460   44.1210 C   0  0  0  0  0  0  0  0  0  0  0  0
   46.4010   33.3290   45.3910 N   0  0  0  0  0  0  0  0  0  0  0  0
   45.4230   34.0360   45.9630 C   0  0  0  0  0  0  0  0  0  0  0  0
   44.7860   35.0160   45.3070 N   0  0  0  0  0  0  0  0  0  0  0  0
   44.6260   36.0790   43.5250 H   0  0  0  0  0  0  0  0  0  0  0  0
   47.6120   32.9770   43.6610 H   0  0  0  0  0  0  0  0  0  0  0  0
   45.0740   33.8760   46.9840 H   0  0  0  0  0  0  0  0  0  0  0  0
   46.1340   33.9080   40.9720 C   0  0  0  0  0  3  0  0  0  0  0  0
   44.6870   34.0090   40.5900 C   0  0  0  0  0  2  0  0  0  0  0  0
   44.3900   33.4380   39.2270 C   0  0  0  0  0  2  0  0  0  0  0  0
   45.3740   32.3340   38.8860 C   0  0  0  0  0  2  0  0  0  0  0  0
   46.6890   33.0120   38.6820 C   0  0  0  0  0  2  0  0  0  0  0  0
   47.0770   33.8770   39.8150 C   0  0  0  0  0  2  0  0  0  0  0  0
   47.9970   35.2750   42.0030 C   0  0  0  0  0  0  0  0  0  0  0  0
   48.3910   35.5090   43.0140 H   0  0  0  0  0  0  0  0  0  0  0  0
   48.5890   34.5100   41.4760 H   0  0  0  0  0  0  0  0  0  0  0  0
   48.1050   36.1990   41.3980 H   0  0  0  0  0  0  0  0  0  0  0  0
  1  2  1  6  0  0  0
  1  4  1  0  0  0  0
  3  8  1  0  0  0  0
  4  3  2  0  0  0  0
  4  5  1  0  0  0  0
  5  6  2  0  0  0  0
  6  7  1  0  0  0  0
  7 11  1  0  0  0  0
  8  7  2  0  0  0  0
  9  3  1  0  0  0  0
 10  5  1  0  0  0  0
 12  1  1  0  0  0  0
 13 12  1  0  0  0  0
 14 13  1  0  0  0  0
 15 14  1  0  0  0  0
 16 15  1  0  0  0  0
 16 17  1  0  0  0  0
 17 12  1  0  0  0  0
 18  1  1  0  0  0  0
 18 19  1  0  0  0  0
 20 18  1  0  0  0  0
 21 18  1  0  0  0  0
M  END
>  <minimizedAffinity>
-4.11204815

>  <minimizedRMSD>
0.250302583

$$$$
