
 OpenBabel03252509263D

 27 29  0  0  1  0  0  0  0  0999 V2000
   46.9860   35.1200   41.7660 C   0  0  1  0  0  0  0  0  0  0  0  0
   48.4760   35.5610   41.8400 C   0  0  0  0  0  0  0  0  0  0  0  0
   47.9140   34.3010   41.1060 C   0  0  2  0  0  0  0  0  0  0  0  0
   46.3420   35.8580   41.2410 H   0  0  0  0  0  0  0  0  0  0  0  0
   48.7620   36.3670   41.1340 H   0  0  0  0  0  0  0  0  0  0  0  0
   49.0290   35.4190   42.7620 H   0  0  0  0  0  0  0  0  0  0  0  0
   48.2340   33.3530   41.6430 H   0  0  0  0  0  0  0  0  0  0  0  0
   44.9800   34.8980   44.9300 C   0  0  0  0  0  0  0  0  0  0  0  0
   45.4120   35.3810   43.6620 C   0  0  0  0  0  0  0  0  0  0  0  0
   46.4810   34.7340   43.1350 C   0  0  0  0  0  0  0  0  0  0  0  0
   47.1000   33.6880   43.7850 N   0  0  0  0  0  0  0  0  0  0  0  0
   46.6590   33.2570   44.9940 C   0  0  0  0  0  0  0  0  0  0  0  0
   45.5880   33.8730   45.5640 N   0  0  0  0  0  0  0  0  0  0  0  0
   44.1160   35.4230   45.3520 H   0  0  0  0  0  0  0  0  0  0  0  0
   47.1080   32.4510   45.5340 H   0  0  0  0  0  0  0  0  0  0  0  0
   44.7940   36.4690   42.9990 N   0  0  0  0  0  0  0  0  0  0  0  0
   44.1690   36.4290   42.1480 H   0  0  0  0  0  0  0  0  0  0  0  0
   44.8990   37.4820   43.3050 H   0  0  0  0  0  0  0  0  0  0  0  0
   48.0180   34.2600   39.5960 C   0  0  0  0  0  0  0  0  0  0  0  0
   47.0270   34.4870   39.1470 H   0  0  0  0  0  0  0  0  0  0  0  0
   48.7410   35.0500   39.2650 H   0  0  0  0  0  0  0  0  0  0  0  0
   48.4850   32.8800   39.1720 C   0  0  0  0  0  3  0  0  0  0  0  0
   49.0950   32.8920   37.8160 C   0  0  0  0  0  2  0  0  0  0  0  0
   50.2110   31.9600   37.5500 C   0  0  0  0  0  2  0  0  0  0  0  0
   50.2030   30.8340   38.5630 C   0  0  0  0  0  2  0  0  0  0  0  0
   50.5070   31.5340   39.8750 C   0  0  0  0  0  2  0  0  0  0  0  0
   49.2600   32.2720   40.2690 C   0  0  0  0  0  2  0  0  0  0  0  0
  1  4  1  6  0  0  0
  1  2  1  0  0  0  0
  1 10  1  0  0  0  0
  2  6  1  0  0  0  0
  3  7  1  1  0  0  0
  3  1  1  0  0  0  0
  3  2  1  0  0  0  0
  5  2  1  0  0  0  0
  8 14  1  0  0  0  0
  8 13  1  0  0  0  0
  9  8  2  0  0  0  0
 10  9  1  0  0  0  0
 10 11  2  0  0  0  0
 11 12  1  0  0  0  0
 12 15  1  0  0  0  0
 12 13  2  0  0  0  0
 16 18  1  0  0  0  0
 16  9  1  0  0  0  0
 17 16  1  0  0  0  0
 19  3  1  0  0  0  0
 20 19  1  0  0  0  0
 21 19  1  0  0  0  0
 22 19  1  0  0  0  0
 22 27  1  0  0  0  0
 23 22  1  0  0  0  0
 24 23  1  0  0  0  0
 24 25  1  0  0  0  0
 25 26  1  0  0  0  0
 26 27  1  0  0  0  0
M  END
>  <minimizedAffinity>
-4.84175968

>  <minimizedRMSD>
0.588691533

$$$$
