
 OpenBabel03252507043D

 44 47  0  0  0  0  0  0  0  0999 V2000
   42.2870   34.9910   39.1930 C   0  0  0  0  0  0  0  0  0  0  0  0
   42.8330   35.9130   38.7960 H   0  0  0  0  0  0  0  0  0  0  0  0
   41.8290   35.3610   40.1360 H   0  0  0  0  0  0  0  0  0  0  0  0
   41.3980   34.4810   38.3400 N   0  0  0  0  0  0  0  0  0  0  0  0
   41.0670   33.1140   38.1220 C   0  0  0  0  0  0  0  0  0  0  0  0
   39.7100   33.0850   38.8230 C   0  0  0  0  0  0  0  0  0  0  0  0
   38.7320   33.9980   38.2590 C   0  0  0  0  0  0  0  0  0  0  0  0
   39.1880   35.1570   37.5220 C   0  0  0  0  0  0  0  0  0  0  0  0
   40.6590   35.4940   37.5440 C   0  0  0  0  0  0  0  0  0  0  0  0
   41.7600   32.5130   38.7780 H   0  0  0  0  0  0  0  0  0  0  0  0
   41.0660   32.7230   37.1190 H   0  0  0  0  0  0  0  0  0  0  0  0
   39.3750   32.0210   38.7620 H   0  0  0  0  0  0  0  0  0  0  0  0
   39.9330   33.2540   39.9120 H   0  0  0  0  0  0  0  0  0  0  0  0
   38.0430   33.4280   37.5690 H   0  0  0  0  0  0  0  0  0  0  0  0
   38.0410   34.3540   39.0680 H   0  0  0  0  0  0  0  0  0  0  0  0
   38.5930   35.8300   36.9720 H   0  0  0  0  0  0  0  0  0  0  0  0
   41.3190   36.8920   36.7730 S   0  0  0  0  0  0  0  0  0  0  0  0
   40.2540   38.2310   36.3370 C   0  0  0  0  0  3  0  0  0  0  0  0
   39.4620   38.0850   35.0740 C   0  0  0  0  0  2  0  0  0  0  0  0
   38.8520   39.4340   34.7400 C   0  0  0  0  0  2  0  0  0  0  0  0
   38.5600   40.2600   35.9770 C   0  0  0  0  0  2  0  0  0  0  0  0
   39.8320   40.5980   36.7290 C   0  0  0  0  0  2  0  0  0  0  0  0
   40.9190   39.5980   36.3090 C   0  0  0  0  0  2  0  0  0  0  0  0
   43.3790   34.0450   39.5470 C   0  0  0  0  0  0  0  0  0  0  0  0
   42.9120   33.0470   39.7960 H   0  0  0  0  0  0  0  0  0  0  0  0
   44.0890   33.9110   38.7090 H   0  0  0  0  0  0  0  0  0  0  0  0
   44.0480   34.5400   40.7600 C   0  0  0  0  0  0  0  0  0  0  0  0
   43.3300   35.1790   41.7420 C   0  0  0  0  0  0  0  0  0  0  0  0
   44.0030   35.6420   42.8610 C   0  0  0  0  0  0  0  0  0  0  0  0
   45.3560   35.4350   42.9310 N   0  0  0  0  0  0  0  0  0  0  0  0
   46.0170   34.8110   41.9630 C   0  0  0  0  0  0  0  0  0  0  0  0
   45.3440   34.3770   40.8960 N   0  0  0  0  0  0  0  0  0  0  0  0
   42.2880   35.4180   41.8790 H   0  0  0  0  0  0  0  0  0  0  0  0
   43.6080   36.1660   43.7290 H   0  0  0  0  0  0  0  0  0  0  0  0
   47.4540   34.6090   42.1410 C   0  0  0  0  0  0  0  0  0  0  0  0
   47.9440   33.3730   42.5530 C   0  0  0  0  0  0  0  0  0  0  0  0
   49.2980   33.1920   42.7290 C   0  0  0  0  0  0  0  0  0  0  0  0
   50.0600   34.3020   42.4700 C   0  0  0  0  0  0  0  0  0  0  0  0
   49.6240   35.5630   42.0560 C   0  0  0  0  0  0  0  0  0  0  0  0
   48.2770   35.6490   41.9070 N   0  0  0  0  0  0  0  0  0  0  0  0
   47.2820   32.5290   42.7430 H   0  0  0  0  0  0  0  0  0  0  0  0
   49.7730   32.2750   43.0450 H   0  0  0  0  0  0  0  0  0  0  0  0
   51.1450   34.2070   42.5980 H   0  0  0  0  0  0  0  0  0  0  0  0
   50.3000   36.3620   41.8810 H   0  0  0  0  0  0  0  0  0  0  0  0
  1 24  1  0  0  0  0
  1  3  1  0  0  0  0
  2  1  1  0  0  0  0
  4  1  1  0  0  0  0
  5  4  1  0  0  0  0
  5 10  1  0  0  0  0
  5  6  1  0  0  0  0
  6 13  1  0  0  0  0
  7  6  1  0  0  0  0
  7 15  1  0  0  0  0
  8  9  2  0  0  0  0
  8  7  1  0  0  0  0
  9  4  1  0  0  0  0
 11  5  1  0  0  0  0
 12  6  1  0  0  0  0
 14  7  1  0  0  0  0
 16  8  1  0  0  0  0
 17  9  1  0  0  0  0
 18 17  1  0  0  0  0
 19 18  1  0  0  0  0
 20 19  1  0  0  0  0
 20 21  1  0  0  0  0
 21 22  1  0  0  0  0
 23 18  1  0  0  0  0
 23 22  1  0  0  0  0
 24 25  1  0  0  0  0
 24 27  1  0  0  0  0
 26 24  1  0  0  0  0
 27 32  2  0  0  0  0
 27 28  1  0  0  0  0
 28 33  1  0  0  0  0
 28 29  2  0  0  0  0
 29 30  1  0  0  0  0
 29 34  1  0  0  0  0
 31 35  1  0  0  0  0
 31 30  2  0  0  0  0
 32 31  1  0  0  0  0
 35 36  1  0  0  0  0
 36 37  2  0  0  0  0
 36 41  1  0  0  0  0
 37 42  1  0  0  0  0
 38 43  1  0  0  0  0
 38 37  1  0  0  0  0
 39 38  2  0  0  0  0
 40 39  1  0  0  0  0
 40 35  2  0  0  0  0
 44 39  1  0  0  0  0
M  END
>  <minimizedAffinity>
-2.96513176

>  <minimizedRMSD>
1.78042912

$$$$
