
 OpenBabel03252502383D

 35 37  0  0  1  0  0  0  0  0999 V2000
   44.9730   33.3070   38.9140 C   0  0  1  0  0  0  0  0  0  0  0  0
   44.7700   34.3840   38.7600 H   0  0  0  0  0  0  0  0  0  0  0  0
   46.0170   32.9670   37.9630 N   0  0  0  0  0  0  0  0  0  0  0  0
   45.6420   33.1360   36.6150 C   0  0  0  0  0  0  0  0  0  0  0  0
   46.7240   32.3640   35.8170 C   0  0  0  0  0  0  0  0  0  0  0  0
   47.8800   33.2010   35.9230 N   0  0  0  0  0  0  0  0  0  0  0  0
   48.3070   33.5220   37.2440 C   0  0  0  0  0  0  0  0  0  0  0  0
   47.2890   33.4980   38.3270 C   0  0  0  0  0  0  0  0  0  0  0  0
   45.6560   34.1700   36.2200 H   0  0  0  0  0  0  0  0  0  0  0  0
   44.7060   32.5980   36.4260 H   0  0  0  0  0  0  0  0  0  0  0  0
   46.4410   32.2730   34.7720 H   0  0  0  0  0  0  0  0  0  0  0  0
   46.9270   31.4320   36.3490 H   0  0  0  0  0  0  0  0  0  0  0  0
   47.8750   34.0100   35.2670 H   0  0  0  0  0  0  0  0  0  0  0  0
   48.7970   34.5380   37.1770 H   0  0  0  0  0  0  0  0  0  0  0  0
   49.1540   32.8390   37.4810 H   0  0  0  0  0  0  0  0  0  0  0  0
   47.1410   34.5330   38.6980 H   0  0  0  0  0  0  0  0  0  0  0  0
   47.7260   32.9230   39.1850 H   0  0  0  0  0  0  0  0  0  0  0  0
   42.5530   33.1880   38.4550 C   0  0  0  0  0  0  0  0  0  0  0  0
   43.7670   32.5320   38.7660 C   0  0  0  0  0  0  0  0  0  0  0  0
   43.7000   31.1650   38.9160 C   0  0  0  0  0  0  0  0  0  0  0  0
   42.4910   30.5350   38.7580 N   0  0  0  0  0  0  0  0  0  0  0  0
   41.3570   31.1980   38.4600 C   0  0  0  0  0  0  0  0  0  0  0  0
   41.3800   32.5580   38.3050 N   0  0  0  0  0  0  0  0  0  0  0  0
   42.5080   34.2710   38.3190 H   0  0  0  0  0  0  0  0  0  0  0  0
   44.6030   30.6210   39.1540 H   0  0  0  0  0  0  0  0  0  0  0  0
   40.4580   30.6110   38.3570 H   0  0  0  0  0  0  0  0  0  0  0  0
   45.5010   33.0770   40.3410 C   0  0  0  0  0  0  0  0  0  0  0  0
   45.2200   32.0410   40.6040 H   0  0  0  0  0  0  0  0  0  0  0  0
   46.6010   33.2550   40.3000 H   0  0  0  0  0  0  0  0  0  0  0  0
   44.8430   34.0610   41.2950 C   0  0  0  0  0  0  0  0  0  0  0  0
   45.9530   34.9090   41.8860 C   0  0  0  0  0  0  0  0  0  0  0  0
   45.6340   35.4230   43.2630 C   0  0  0  0  0  0  0  0  0  0  0  0
   45.2360   34.3550   44.2360 C   0  0  0  0  0  0  0  0  0  0  0  0
   45.1390   33.0420   43.5020 C   0  0  0  0  0  0  0  0  0  0  0  0
   44.1310   33.2670   42.3690 C   0  0  0  0  0  0  0  0  0  0  0  0
  1  2  1  6  0  0  0
  1 27  1  0  0  0  0
  3  8  1  0  0  0  0
  3  1  1  0  0  0  0
  4  3  1  0  0  0  0
  5  6  1  0  0  0  0
  5 12  1  0  0  0  0
  5  4  1  0  0  0  0
  6  7  1  0  0  0  0
  7 15  1  0  0  0  0
  7  8  1  0  0  0  0
  8 16  1  0  0  0  0
  8 17  1  0  0  0  0
  9  4  1  0  0  0  0
 10  4  1  0  0  0  0
 11  5  1  0  0  0  0
 13  6  1  0  0  0  0
 14  7  1  0  0  0  0
 18 19  1  0  0  0  0
 19  1  1  0  0  0  0
 19 20  2  0  0  0  0
 20 25  1  0  0  0  0
 21 20  1  0  0  0  0
 22 21  2  0  0  0  0
 23 18  2  0  0  0  0
 23 22  1  0  0  0  0
 24 18  1  0  0  0  0
 26 22  1  0  0  0  0
 27 28  1  0  0  0  0
 27 30  1  0  0  0  0
 29 27  1  0  0  0  0
 30 31  1  0  0  0  0
 30 35  1  0  0  0  0
 31 32  1  0  0  0  0
 32 33  1  0  0  0  0
 34 33  1  0  0  0  0
 35 34  1  0  0  0  0
M  END
>  <minimizedAffinity>
-3.7667098

>  <minimizedRMSD>
5.45479774

$$$$
