
 OpenBabel03242517133D

 20 21  0  0  0  0  0  0  0  0999 V2000
   43.6010   35.4030   41.3950 C   0  0  0  0  0  0  0  0  0  0  0  0
   42.5090   34.9390   40.8380 C   0  0  0  0  0  0  0  0  0  0  0  0
   44.2710   35.8820   43.7460 C   0  0  0  0  0  0  0  0  0  0  0  0
   44.1860   35.0180   42.6620 C   0  0  0  0  0  0  0  0  0  0  0  0
   44.6820   33.7340   42.7920 C   0  0  0  0  0  0  0  0  0  0  0  0
   45.2390   33.3660   43.9880 N   0  0  0  0  0  0  0  0  0  0  0  0
   45.3110   34.2250   45.0270 C   0  0  0  0  0  0  0  0  0  0  0  0
   44.8270   35.4750   44.9010 N   0  0  0  0  0  0  0  0  0  0  0  0
   43.8800   36.8960   43.6500 H   0  0  0  0  0  0  0  0  0  0  0  0
   44.6710   32.9760   42.0160 H   0  0  0  0  0  0  0  0  0  0  0  0
   45.7560   33.9240   45.9770 H   0  0  0  0  0  0  0  0  0  0  0  0
   41.9980   35.4110   39.5220 C   0  0  0  0  0  0  0  0  0  0  0  0
   42.5610   34.9630   38.6810 H   0  0  0  0  0  0  0  0  0  0  0  0
   42.1390   36.5050   39.4320 H   0  0  0  0  0  0  0  0  0  0  0  0
   40.5520   35.0430   39.2930 C   0  0  0  0  0  0  0  0  0  0  0  0
   40.3360   34.5720   37.8810 C   0  0  0  0  0  0  0  0  0  0  0  0
   38.9040   34.2360   37.6330 C   0  0  0  0  0  0  0  0  0  0  0  0
   38.3050   33.3600   38.7060 C   0  0  0  0  0  0  0  0  0  0  0  0
   38.5100   34.0190   40.0620 C   0  0  0  0  0  0  0  0  0  0  0  0
   40.0100   34.0660   40.3040 C   0  0  0  0  0  0  0  0  0  0  0  0
  1  4  1  0  0  0  0
  2  1  2  0  0  0  0
  3  8  1  0  0  0  0
  4  5  1  0  0  0  0
  4  3  2  0  0  0  0
  5  6  2  0  0  0  0
  6  7  1  0  0  0  0
  7 11  1  0  0  0  0
  8  7  2  0  0  0  0
  9  3  1  0  0  0  0
 10  5  1  0  0  0  0
 12  2  1  0  0  0  0
 13 12  1  0  0  0  0
 14 12  1  0  0  0  0
 15 12  1  0  0  0  0
 15 20  1  0  0  0  0
 16 15  1  0  0  0  0
 17 16  1  0  0  0  0
 17 18  1  0  0  0  0
 18 19  1  0  0  0  0
 19 20  1  0  0  0  0
M  END
>  <minimizedAffinity>
-5.29157543

>  <minimizedRMSD>
1.64034927

$$$$
