
 OpenBabel03242515003D

 34 36  0  0  0  0  0  0  0  0999 V2000
   42.3660   34.7440   41.5860 C   0  0  0  0  0  0  0  0  0  0  0  0
   42.4370   34.9010   42.6880 H   0  0  0  0  0  0  0  0  0  0  0  0
   41.8370   33.7550   41.4570 H   0  0  0  0  0  0  0  0  0  0  0  0
   41.5300   35.7870   40.9190 C   0  0  0  0  0  0  0  0  0  0  0  0
   40.8970   36.2520   41.7140 H   0  0  0  0  0  0  0  0  0  0  0  0
   42.1110   36.6010   40.4580 H   0  0  0  0  0  0  0  0  0  0  0  0
   42.2110   36.0320   37.9630 Cl  0  0  0  0  0  0  0  0  0  0  0  0
   40.8060   35.2240   38.5710 C   0  0  0  0  0  0  0  0  0  0  0  0
   40.5810   35.1650   39.9640 C   0  0  0  0  0  0  0  0  0  0  0  0
   39.4490   34.5090   40.3570 C   0  0  0  0  0  0  0  0  0  0  0  0
   38.5070   33.8990   39.5440 C   0  0  0  0  0  0  0  0  0  0  0  0
   38.7450   33.9680   38.1810 C   0  0  0  0  0  0  0  0  0  0  0  0
   37.6110   33.2260   37.0570 Cl  0  0  0  0  0  0  0  0  0  0  0  0
   39.8720   34.6180   37.7200 C   0  0  0  0  0  0  0  0  0  0  0  0
   39.2490   34.4490   41.4320 H   0  0  0  0  0  0  0  0  0  0  0  0
   37.6410   33.4040   39.9560 H   0  0  0  0  0  0  0  0  0  0  0  0
   40.0510   34.6660   36.6470 H   0  0  0  0  0  0  0  0  0  0  0  0
   44.0110   34.5770   40.8700 S   0  0  0  0  0  0  0  0  0  0  0  0
   45.2820   34.3170   42.1140 C   0  0  0  0  0  0  0  0  0  0  0  0
   46.6080   34.4540   41.6910 C   0  0  0  0  0  0  0  0  0  0  0  0
   47.6290   34.2610   42.6230 C   0  0  0  0  0  0  0  0  0  0  0  0
   47.2730   33.9500   43.8970 N   0  0  0  0  0  0  0  0  0  0  0  0
   45.9940   33.8220   44.2880 C   0  0  0  0  0  0  0  0  0  0  0  0
   45.0230   34.0080   43.3880 N   0  0  0  0  0  0  0  0  0  0  0  0
   46.8210   34.7050   40.6620 H   0  0  0  0  0  0  0  0  0  0  0  0
   48.6560   34.3630   42.3150 H   0  0  0  0  0  0  0  0  0  0  0  0
   45.7210   33.4870   45.6700 C   0  0  0  0  0  0  0  0  0  0  0  0
   44.9230   34.2340   46.2940 O   0  0  0  0  0  0  0  0  0  0  0  0
   46.3460   32.3040   46.3620 C   0  0  0  0  0  3  0  0  0  0  0  0
   47.1570   32.8310   47.5260 C   0  0  0  0  0  2  0  0  0  0  0  0
   47.6430   31.7360   48.4180 C   0  0  0  0  0  2  0  0  0  0  0  0
   46.4950   30.9650   48.9820 C   0  0  0  0  0  2  0  0  0  0  0  0
   45.2050   31.4330   48.3430 C   0  0  0  0  0  2  0  0  0  0  0  0
   45.3300   31.3070   46.8200 C   0  0  0  0  0  2  0  0  0  0  0  0
  1  2  1  0  0  0  0
  3  1  1  0  0  0  0
  4  1  1  0  0  0  0
  4  5  1  0  0  0  0
  6  4  1  0  0  0  0
  7  8  1  0  0  0  0
  8  9  1  0  0  0  0
  9 10  2  0  0  0  0
  9  4  1  0  0  0  0
 10 15  1  0  0  0  0
 11 16  1  0  0  0  0
 11 10  1  0  0  0  0
 12 11  2  0  0  0  0
 13 12  1  0  0  0  0
 14 12  1  0  0  0  0
 14  8  2  0  0  0  0
 17 14  1  0  0  0  0
 18  1  1  0  0  0  0
 18 19  1  0  0  0  0
 19 24  1  0  0  0  0
 20 19  2  0  0  0  0
 20 21  1  0  0  0  0
 21 22  2  0  0  0  0
 22 23  1  0  0  0  0
 23 27  1  0  0  0  0
 24 23  2  0  0  0  0
 25 20  1  0  0  0  0
 26 21  1  0  0  0  0
 27 28  2  0  0  0  0
 27 29  1  0  0  0  0
 29 34  1  0  0  0  0
 29 30  1  0  0  0  0
 30 31  1  0  0  0  0
 31 32  1  0  0  0  0
 33 32  1  0  0  0  0
 34 33  1  0  0  0  0
M  END
>  <minimizedAffinity>
-6.68433475

>  <minimizedRMSD>
1.38896632

$$$$
