
 OpenBabel03252503033D

 31 32  0  0  0  0  0  0  0  0999 V2000
   43.0030   33.7360   41.2400 S   0  0  0  0  0  0  0  0  0  0  0  0
   40.3480   33.1280   40.7720 C   0  0  0  0  0  0  0  0  0  0  0  0
   41.5170   33.6220   40.2180 C   0  0  0  0  0  0  0  0  0  0  0  0
   41.5600   34.0280   38.8900 C   0  0  0  0  0  0  0  0  0  0  0  0
   40.4160   33.9180   38.1710 N   0  0  0  0  0  0  0  0  0  0  0  0
   39.2950   33.4320   38.7440 C   0  0  0  0  0  0  0  0  0  0  0  0
   39.2280   33.0360   40.0190 N   0  0  0  0  0  0  0  0  0  0  0  0
   40.3300   32.8170   41.8090 H   0  0  0  0  0  0  0  0  0  0  0  0
   42.4790   34.4120   38.4680 H   0  0  0  0  0  0  0  0  0  0  0  0
   38.1110   33.3170   38.0030 O   0  0  0  0  0  0  0  0  0  0  0  0
   38.2330   32.6690   36.7450 C   0  0  0  0  0  3  0  0  0  0  0  0
   38.3960   31.1860   37.0060 C   0  0  0  0  0  2  0  0  0  0  0  0
   38.5440   30.4610   35.6870 C   0  0  0  0  0  2  0  0  0  0  0  0
   37.3750   30.7500   34.7680 C   0  0  0  0  0  2  0  0  0  0  0  0
   37.2710   32.2560   34.5390 C   0  0  0  0  0  2  0  0  0  0  0  0
   37.0530   32.9230   35.8580 C   0  0  0  0  0  2  0  0  0  0  0  0
   43.2870   35.4400   41.6890 C   0  0  0  0  0  0  0  0  0  0  0  0
   44.3540   35.6810   41.4520 H   0  0  0  0  0  0  0  0  0  0  0  0
   42.6260   36.1530   41.1720 H   0  0  0  0  0  0  0  0  0  0  0  0
   43.1680   35.5400   43.1370 N   0  0  0  0  0  0  0  0  0  0  0  0
   42.5350   36.3420   43.3530 H   0  0  0  0  0  0  0  0  0  0  0  0
   44.6810   35.8290   43.8880 S   0  0  0  0  0  0  0  0  0  0  0  0
   45.8240   35.2470   43.1130 O   0  0  0  0  0  0  0  0  0  0  0  0
   45.7640   34.3690   42.6280 H   0  0  0  0  0  0  0  0  0  0  0  0
   44.8410   37.3410   43.9390 O   0  0  0  0  0  0  0  0  0  0  0  0
   45.5590   37.7980   44.4410 H   0  0  0  0  0  0  0  0  0  0  0  0
   44.6570   35.2700   45.4590 O   0  0  0  0  0  0  0  0  0  0  0  0
   45.3930   34.1200   45.6160 C   0  0  0  0  0  0  0  0  0  0  0  0
   44.9090   33.4920   46.3920 H   0  0  0  0  0  0  0  0  0  0  0  0
   45.3690   33.5650   44.6460 H   0  0  0  0  0  0  0  0  0  0  0  0
   46.4440   34.3460   45.9090 H   0  0  0  0  0  0  0  0  0  0  0  0
  1 17  1  0  0  0  0
  2  8  1  0  0  0  0
  3  2  1  0  0  0  0
  3  1  1  0  0  0  0
  4  3  2  0  0  0  0
  5  6  2  0  0  0  0
  5  4  1  0  0  0  0
  6  7  1  0  0  0  0
  7  2  2  0  0  0  0
  9  4  1  0  0  0  0
 10  6  1  0  0  0  0
 11 12  1  0  0  0  0
 11 10  1  0  0  0  0
 13 12  1  0  0  0  0
 14 13  1  0  0  0  0
 15 14  1  0  0  0  0
 15 16  1  0  0  0  0
 16 11  1  0  0  0  0
 17 20  1  0  0  0  0
 18 17  1  0  0  0  0
 19 17  1  0  0  0  0
 20 21  1  0  0  0  0
 20 22  1  0  0  0  0
 22 25  1  0  0  0  0
 22 27  1  0  0  0  0
 23 22  1  0  0  0  0
 24 23  1  0  0  0  0
 25 26  1  0  0  0  0
 27 28  1  0  0  0  0
 28 31  1  0  0  0  0
 28 29  1  0  0  0  0
 30 28  1  0  0  0  0
M  END
>  <minimizedAffinity>
-4.55374765

>  <minimizedRMSD>
2.38462901

$$$$
