
 OpenBabel03252505493D

 19 20  0  0  0  0  0  0  0  0999 V2000
   44.6280   35.6540   44.8740 C   0  0  0  0  0  0  0  0  0  0  0  0
   45.5000   35.2030   43.8840 C   0  0  0  0  0  0  0  0  0  0  0  0
   46.2310   34.0580   44.1580 C   0  0  0  0  0  0  0  0  0  0  0  0
   46.0780   33.4320   45.3470 N   0  0  0  0  0  0  0  0  0  0  0  0
   45.2250   33.9040   46.2730 C   0  0  0  0  0  0  0  0  0  0  0  0
   44.4900   35.0130   46.0590 N   0  0  0  0  0  0  0  0  0  0  0  0
   44.0280   36.5370   44.7310 H   0  0  0  0  0  0  0  0  0  0  0  0
   46.8960   33.7290   43.3790 H   0  0  0  0  0  0  0  0  0  0  0  0
   45.5640   36.0000   42.6140 C   0  0  0  0  0  0  0  0  0  0  0  0
   45.2900   37.3000   42.9700 F   0  0  0  0  0  0  0  0  0  0  0  0
   44.5960   35.5160   41.7730 F   0  0  0  0  0  0  0  0  0  0  0  0
   46.8250   35.8250   42.0780 F   0  0  0  0  0  0  0  0  0  0  0  0
   45.0610   33.2620   47.5050 O   0  0  0  0  0  0  0  0  0  0  0  0
   45.8260   32.1280   47.8660 C   0  0  0  0  0  3  0  0  0  0  0  0
   45.7490   31.0760   46.7980 C   0  0  0  0  0  2  0  0  0  0  0  0
   44.8290   29.9440   47.1210 C   0  0  0  0  0  2  0  0  0  0  0  0
   45.0770   29.3240   48.4670 C   0  0  0  0  0  2  0  0  0  0  0  0
   45.7480   30.2400   49.4530 C   0  0  0  0  0  2  0  0  0  0  0  0
   45.2850   31.6420   49.1940 C   0  0  0  0  0  2  0  0  0  0  0  0
  1  6  1  0  0  0  0
  2  3  1  0  0  0  0
  2  1  2  0  0  0  0
  3  4  2  0  0  0  0
  4  5  1  0  0  0  0
  5 13  1  0  0  0  0
  6  5  2  0  0  0  0
  7  1  1  0  0  0  0
  8  3  1  0  0  0  0
  9 10  1  0  0  0  0
  9  2  1  0  0  0  0
 11  9  1  0  0  0  0
 12  9  1  0  0  0  0
 13 14  1  0  0  0  0
 14 19  1  0  0  0  0
 15 16  1  0  0  0  0
 15 14  1  0  0  0  0
 16 17  1  0  0  0  0
 17 18  1  0  0  0  0
 19 18  1  0  0  0  0
M  END
>  <minimizedAffinity>
-4.90169764

>  <minimizedRMSD>
0.74067086

$$$$
