
 OpenBabel03252509293D

 18 19  0  0  0  0  0  0  0  0999 V2000
   44.6000   35.4000   45.6320 C   0  0  0  0  0  0  0  0  0  0  0  0
   44.4790   35.5900   44.2330 C   0  0  0  0  0  0  0  0  0  0  0  0
   44.9350   34.5650   43.4080 C   0  0  0  0  0  0  0  0  0  0  0  0
   45.4700   33.4420   43.9650 N   0  0  0  0  0  0  0  0  0  0  0  0
   45.5660   33.3060   45.3200 C   0  0  0  0  0  0  0  0  0  0  0  0
   45.1330   34.2790   46.1430 N   0  0  0  0  0  0  0  0  0  0  0  0
   44.2520   36.1820   46.2870 H   0  0  0  0  0  0  0  0  0  0  0  0
   44.0470   36.5010   43.8760 H   0  0  0  0  0  0  0  0  0  0  0  0
   45.9870   32.4250   45.7570 H   0  0  0  0  0  0  0  0  0  0  0  0
   44.8060   34.7670   41.9660 C   0  0  0  0  0  0  0  0  0  0  0  0
   44.2310   33.9070   41.5620 H   0  0  0  0  0  0  0  0  0  0  0  0
   44.2610   35.6790   41.6930 H   0  0  0  0  0  0  0  0  0  0  0  0
   46.1220   34.7600   41.2380 C   0  0  0  0  0  3  0  0  0  0  0  0
   47.3190   34.9990   42.1070 C   0  0  0  0  0  2  0  0  0  0  0  0
   48.4550   35.3720   41.1510 C   0  0  0  0  0  2  0  0  0  0  0  0
   48.7200   34.1610   40.2970 C   0  0  0  0  0  2  0  0  0  0  0  0
   47.4920   33.7910   39.4990 C   0  0  0  0  0  2  0  0  0  0  0  0
   46.3580   33.4680   40.4810 C   0  0  0  0  0  2  0  0  0  0  0  0
  1  6  1  0  0  0  0
  1  7  1  0  0  0  0
  2  1  2  0  0  0  0
  3  4  2  0  0  0  0
  3  2  1  0  0  0  0
  4  5  1  0  0  0  0
  5  9  1  0  0  0  0
  5  6  2  0  0  0  0
  8  2  1  0  0  0  0
 10  3  1  0  0  0  0
 11 10  1  0  0  0  0
 12 10  1  0  0  0  0
 13 10  1  0  0  0  0
 13 14  1  0  0  0  0
 15 14  1  0  0  0  0
 16 15  1  0  0  0  0
 17 16  1  0  0  0  0
 17 18  1  0  0  0  0
 18 13  1  0  0  0  0
M  END
>  <minimizedAffinity>
-4.10012865

>  <minimizedRMSD>
2.48177552

$$$$
