
 OpenBabel03242517003D

 29 31  0  0  0  0  0  0  0  0999 V2000
   46.5800   34.7390   41.9670 C   0  0  0  0  0  0  0  0  0  0  0  0
   47.8950   35.1670   41.9090 C   0  0  0  0  0  0  0  0  0  0  0  0
   48.6090   34.9620   40.7420 C   0  0  0  0  0  0  0  0  0  0  0  0
   48.0080   34.3430   39.6750 C   0  0  0  0  0  0  0  0  0  0  0  0
   46.7120   33.9100   39.7040 C   0  0  0  0  0  0  0  0  0  0  0  0
   46.0110   34.1290   40.8940 C   0  0  0  0  0  0  0  0  0  0  0  0
   48.3740   35.6590   42.7570 H   0  0  0  0  0  0  0  0  0  0  0  0
   49.6270   35.3040   40.7240 H   0  0  0  0  0  0  0  0  0  0  0  0
   48.6120   34.2080   38.7900 H   0  0  0  0  0  0  0  0  0  0  0  0
   46.2200   33.4190   38.8710 H   0  0  0  0  0  0  0  0  0  0  0  0
   44.5070   36.2230   44.7570 C   0  0  0  0  0  0  0  0  0  0  0  0
   45.1400   36.1100   43.5010 C   0  0  0  0  0  0  0  0  0  0  0  0
   45.8760   34.9830   43.2230 C   0  0  0  0  0  0  0  0  0  0  0  0
   45.9460   34.0320   44.2000 N   0  0  0  0  0  0  0  0  0  0  0  0
   45.3440   34.1360   45.4000 C   0  0  0  0  0  0  0  0  0  0  0  0
   44.6080   35.2580   45.6800 N   0  0  0  0  0  0  0  0  0  0  0  0
   43.9500   37.1370   44.8920 H   0  0  0  0  0  0  0  0  0  0  0  0
   45.0780   36.8680   42.7380 H   0  0  0  0  0  0  0  0  0  0  0  0
   45.4480   33.3320   46.1240 H   0  0  0  0  0  0  0  0  0  0  0  0
   43.4050   34.3280   40.7860 C   0  0  0  0  0  0  0  0  0  0  0  0
   43.1920   35.4420   40.3050 O   0  0  0  0  0  0  0  0  0  0  0  0
   44.6610   33.7290   41.0580 N   0  0  0  0  0  0  0  0  0  0  0  0
   44.7730   32.7730   41.4770 H   0  0  0  0  0  0  0  0  0  0  0  0
   42.2290   33.4510   41.1500 C   0  0  0  0  0  0  0  0  0  0  0  0
   42.0290   32.5470   39.9750 C   0  0  0  0  0  0  0  0  0  0  0  0
   40.9530   33.1990   39.1110 C   0  0  0  0  0  0  0  0  0  0  0  0
   39.6520   32.9500   39.8830 C   0  0  0  0  0  0  0  0  0  0  0  0
   39.7260   33.8170   41.1040 C   0  0  0  0  0  0  0  0  0  0  0  0
   41.0800   34.3640   41.4200 C   0  0  0  0  0  0  0  0  0  0  0  0
  1 13  1  0  0  0  0
  2  1  1  0  0  0  0
  2  7  1  0  0  0  0
  3  2  2  0  0  0  0
  4  5  2  0  0  0  0
  4  3  1  0  0  0  0
  5  6  1  0  0  0  0
  6 22  1  0  0  0  0
  6  1  2  0  0  0  0
  8  3  1  0  0  0  0
  9  4  1  0  0  0  0
 10  5  1  0  0  0  0
 11 17  1  0  0  0  0
 11 16  1  0  0  0  0
 12 11  2  0  0  0  0
 13 12  1  0  0  0  0
 13 14  2  0  0  0  0
 14 15  1  0  0  0  0
 15 16  2  0  0  0  0
 15 19  1  0  0  0  0
 18 12  1  0  0  0  0
 20 22  1  0  0  0  0
 20 24  1  0  0  0  0
 21 20  2  0  0  0  0
 22 23  1  0  0  0  0
 24 29  1  0  0  0  0
 25 24  1  0  0  0  0
 26 27  1  0  0  0  0
 26 25  1  0  0  0  0
 27 28  1  0  0  0  0
 28 29  1  0  0  0  0
M  END
>  <minimizedAffinity>
-6.26613712

>  <minimizedRMSD>
0.965750813

$$$$
