
 OpenBabel03252503093D

 24 26  0  0  1  0  0  0  0  0999 V2000
   46.0400   35.9140   42.8420 C   0  0  0  0  0  0  0  0  0  0  0  0
   46.6280   34.6850   43.2270 C   0  0  0  0  0  0  0  0  0  0  0  0
   46.0390   34.0760   44.3040 C   0  0  0  0  0  0  0  0  0  0  0  0
   44.9740   34.6040   44.9580 N   0  0  0  0  0  0  0  0  0  0  0  0
   44.4440   35.7950   44.5460 C   0  0  0  0  0  0  0  0  0  0  0  0
   44.9920   36.4360   43.4840 N   0  0  0  0  0  0  0  0  0  0  0  0
   46.4120   36.4970   42.0050 H   0  0  0  0  0  0  0  0  0  0  0  0
   43.5950   36.1830   45.0910 H   0  0  0  0  0  0  0  0  0  0  0  0
   46.5280   32.8550   44.7540 C   0  0  0  0  0  0  0  0  0  0  0  0
   46.8720   31.6880   44.1710 C   0  0  0  0  0  0  0  0  0  0  0  0
   47.3090   30.6080   44.7880 C   0  0  0  0  0  0  0  0  0  0  0  0
   47.4140   30.7150   46.1450 C   0  0  0  0  0  0  0  0  0  0  0  0
   46.8500   32.4380   46.4420 S   0  0  0  0  0  0  0  0  0  0  0  0
   46.8980   31.4400   43.1200 H   0  0  0  0  0  0  0  0  0  0  0  0
   47.6320   29.6140   44.6070 H   0  0  0  0  0  0  0  0  0  0  0  0
   47.6840   30.2140   47.0790 H   0  0  0  0  0  0  0  0  0  0  0  0
   47.7310   34.1920   42.4920 C   0  0  2  0  0  0  0  0  0  0  0  0
   48.8640   34.4370   43.1070 O   0  0  0  0  0  0  0  0  0  0  0  0
   47.6530   33.4780   41.1470 C   0  0  0  0  0  0  0  0  0  0  0  0
   48.0750   34.4230   40.0460 C   0  0  0  0  0  0  0  0  0  0  0  0
   47.8230   33.9080   38.6910 C   0  0  0  0  0  0  0  0  0  0  0  0
   46.5770   33.1510   38.4400 C   0  0  0  0  0  0  0  0  0  0  0  0
   46.1370   32.3170   39.6370 C   0  0  0  0  0  0  0  0  0  0  0  0
   46.1600   33.2810   40.7880 C   0  0  0  0  0  0  0  0  0  0  0  0
  1  2  2  0  0  0  0
  1  6  1  0  0  0  0
  2  3  1  0  0  0  0
  3  9  1  0  0  0  0
  3  4  2  0  0  0  0
  5  4  1  0  0  0  0
  5  8  1  0  0  0  0
  6  5  2  0  0  0  0
  7  1  1  0  0  0  0
  9 13  1  0  0  0  0
 10  9  2  0  0  0  0
 10 11  1  0  0  0  0
 11 12  2  0  0  0  0
 12 13  1  0  0  0  0
 12 16  1  0  0  0  0
 14 10  1  0  0  0  0
 15 11  1  0  0  0  0
 17 18  1  6  0  0  0
 17  2  1  0  0  0  0
 19 17  1  0  0  0  0
 20 19  1  0  0  0  0
 21 20  1  0  0  0  0
 22 21  1  0  0  0  0
 22 23  1  0  0  0  0
 23 24  1  0  0  0  0
 24 19  1  0  0  0  0
M  END
>  <minimizedAffinity>
-4.65594482

>  <minimizedRMSD>
1.52505887

$$$$
