
 OpenBabel03252507163D

 26 28  0  0  0  0  0  0  0  0999 V2000
   45.2920   36.1210   43.2900 C   0  0  0  0  0  0  0  0  0  0  0  0
   45.9850   34.9280   42.9670 C   0  0  0  0  0  0  0  0  0  0  0  0
   45.9770   33.9280   43.9370 C   0  0  0  0  0  0  0  0  0  0  0  0
   45.3360   34.1190   45.1050 N   0  0  0  0  0  0  0  0  0  0  0  0
   44.6750   35.2890   45.3800 C   0  0  0  0  0  0  0  0  0  0  0  0
   44.6720   36.2540   44.4670 N   0  0  0  0  0  0  0  0  0  0  0  0
   45.2710   36.9400   42.5550 H   0  0  0  0  0  0  0  0  0  0  0  0
   44.2110   35.2870   46.3560 H   0  0  0  0  0  0  0  0  0  0  0  0
   46.6840   32.6870   43.6320 C   0  0  0  0  0  0  0  0  0  0  0  0
   45.9770   31.5220   43.4450 C   0  0  0  0  0  0  0  0  0  0  0  0
   46.6690   30.3670   43.1600 C   0  0  0  0  0  0  0  0  0  0  0  0
   48.0520   30.3140   43.0490 C   0  0  0  0  0  0  0  0  0  0  0  0
   48.7020   31.5280   43.2510 C   0  0  0  0  0  0  0  0  0  0  0  0
   48.0100   32.6420   43.5280 N   0  0  0  0  0  0  0  0  0  0  0  0
   44.8790   31.4810   43.5150 H   0  0  0  0  0  0  0  0  0  0  0  0
   46.1380   29.4180   43.0040 H   0  0  0  0  0  0  0  0  0  0  0  0
   48.6070   29.4180   42.8270 H   0  0  0  0  0  0  0  0  0  0  0  0
   49.7840   31.5890   43.1860 H   0  0  0  0  0  0  0  0  0  0  0  0
   46.6440   34.7840   41.7190 C   0  0  0  0  0  0  0  0  0  0  0  0
   47.8430   35.1990   41.6580 O   0  0  0  0  0  0  0  0  0  0  0  0
   46.2140   34.2250   40.4020 C   0  0  0  0  0  3  0  0  0  0  0  0
   44.8830   33.5810   40.6270 C   0  0  0  0  0  2  0  0  0  0  0  0
   44.4740   32.6010   39.5650 C   0  0  0  0  0  2  0  0  0  0  0  0
   45.5580   31.6470   39.1830 C   0  0  0  0  0  2  0  0  0  0  0  0
   46.8600   31.8770   39.8830 C   0  0  0  0  0  2  0  0  0  0  0  0
   47.2660   33.3260   39.8480 C   0  0  0  0  0  2  0  0  0  0  0  0
  1  6  1  0  0  0  0
  2  1  2  0  0  0  0
  2  3  1  0  0  0  0
  3  4  2  0  0  0  0
  4  5  1  0  0  0  0
  5  8  1  0  0  0  0
  6  5  2  0  0  0  0
  7  1  1  0  0  0  0
  9  3  1  0  0  0  0
 10 15  1  0  0  0  0
 10  9  2  0  0  0  0
 11 10  1  0  0  0  0
 12 11  2  0  0  0  0
 12 13  1  0  0  0  0
 13 14  2  0  0  0  0
 14  9  1  0  0  0  0
 16 11  1  0  0  0  0
 17 12  1  0  0  0  0
 18 13  1  0  0  0  0
 19  2  1  0  0  0  0
 20 19  2  0  0  0  0
 21 22  1  0  0  0  0
 21 19  1  0  0  0  0
 23 22  1  0  0  0  0
 24 23  1  0  0  0  0
 24 25  1  0  0  0  0
 26 25  1  0  0  0  0
 26 21  1  0  0  0  0
M  END
>  <minimizedAffinity>
-4.27046585

>  <minimizedRMSD>
0.917494357

$$$$
