
 OpenBabel03252507043D

 44 47  0  0  0  0  0  0  0  0999 V2000
   42.3450   31.6990   41.9770 C   0  0  0  0  0  0  0  0  0  0  0  0
   42.2020   32.7600   42.3790 H   0  0  0  0  0  0  0  0  0  0  0  0
   42.5360   31.1100   42.9000 H   0  0  0  0  0  0  0  0  0  0  0  0
   41.3120   31.2450   41.2670 N   0  0  0  0  0  0  0  0  0  0  0  0
   41.2330   30.0590   40.4840 C   0  0  0  0  0  0  0  0  0  0  0  0
   40.3560   29.2220   41.4150 C   0  0  0  0  0  0  0  0  0  0  0  0
   39.0550   29.8050   41.6880 C   0  0  0  0  0  0  0  0  0  0  0  0
   38.8780   31.2340   41.5510 C   0  0  0  0  0  0  0  0  0  0  0  0
   40.0970   32.0970   41.3360 C   0  0  0  0  0  0  0  0  0  0  0  0
   42.2550   29.5860   40.5220 H   0  0  0  0  0  0  0  0  0  0  0  0
   40.8840   30.1190   39.4670 H   0  0  0  0  0  0  0  0  0  0  0  0
   40.2730   28.2260   40.9160 H   0  0  0  0  0  0  0  0  0  0  0  0
   40.9850   29.0340   42.3280 H   0  0  0  0  0  0  0  0  0  0  0  0
   38.2810   29.3190   41.0250 H   0  0  0  0  0  0  0  0  0  0  0  0
   38.7230   29.5130   42.7200 H   0  0  0  0  0  0  0  0  0  0  0  0
   37.9700   31.7670   41.6090 H   0  0  0  0  0  0  0  0  0  0  0  0
   40.0300   33.8210   41.2370 S   0  0  0  0  0  0  0  0  0  0  0  0
   40.4260   34.6230   39.7150 C   0  0  0  0  0  3  0  0  0  0  0  0
   39.3570   34.6550   38.6670 C   0  0  0  0  0  2  0  0  0  0  0  0
   39.9880   35.1190   37.3650 C   0  0  0  0  0  2  0  0  0  0  0  0
   41.1550   36.0590   37.5880 C   0  0  0  0  0  2  0  0  0  0  0  0
   42.2850   35.3700   38.3290 C   0  0  0  0  0  2  0  0  0  0  0  0
   41.7080   34.1450   39.0520 C   0  0  0  0  0  2  0  0  0  0  0  0
   43.6120   31.7720   41.2010 C   0  0  0  0  0  0  0  0  0  0  0  0
   44.2220   30.8510   41.4370 H   0  0  0  0  0  0  0  0  0  0  0  0
   43.4210   31.8080   40.1120 H   0  0  0  0  0  0  0  0  0  0  0  0
   44.3740   32.9420   41.6640 C   0  0  0  0  0  0  0  0  0  0  0  0
   43.7270   34.1010   42.0210 C   0  0  0  0  0  0  0  0  0  0  0  0
   44.4850   35.1830   42.4370 C   0  0  0  0  0  0  0  0  0  0  0  0
   45.8480   35.0400   42.4730 N   0  0  0  0  0  0  0  0  0  0  0  0
   46.4390   33.9030   42.1220 C   0  0  0  0  0  0  0  0  0  0  0  0
   45.6850   32.8780   41.7240 N   0  0  0  0  0  0  0  0  0  0  0  0
   42.6930   34.3990   42.0770 H   0  0  0  0  0  0  0  0  0  0  0  0
   44.1540   36.1700   42.7520 H   0  0  0  0  0  0  0  0  0  0  0  0
   47.8960   33.8360   42.2230 C   0  0  0  0  0  0  0  0  0  0  0  0
   48.6470   35.0010   42.3440 C   0  0  0  0  0  0  0  0  0  0  0  0
   50.0200   34.9320   42.4280 C   0  0  0  0  0  0  0  0  0  0  0  0
   50.5300   33.6610   42.3800 C   0  0  0  0  0  0  0  0  0  0  0  0
   49.8280   32.4590   42.2600 C   0  0  0  0  0  0  0  0  0  0  0  0
   48.4810   32.6240   42.1850 N   0  0  0  0  0  0  0  0  0  0  0  0
   48.1780   35.9840   42.3760 H   0  0  0  0  0  0  0  0  0  0  0  0
   50.6860   35.7770   42.5230 H   0  0  0  0  0  0  0  0  0  0  0  0
   51.6200   33.5540   42.4430 H   0  0  0  0  0  0  0  0  0  0  0  0
   50.3200   31.5200   42.2320 H   0  0  0  0  0  0  0  0  0  0  0  0
  1  2  1  0  0  0  0
  1  3  1  0  0  0  0
  4  9  1  0  0  0  0
  4  1  1  0  0  0  0
  5 10  1  0  0  0  0
  5  4  1  0  0  0  0
  5  6  1  0  0  0  0
  6  7  1  0  0  0  0
  6 13  1  0  0  0  0
  7 15  1  0  0  0  0
  8 16  1  0  0  0  0
  8  7  1  0  0  0  0
  9  8  2  0  0  0  0
 11  5  1  0  0  0  0
 12  6  1  0  0  0  0
 14  7  1  0  0  0  0
 17  9  1  0  0  0  0
 18 17  1  0  0  0  0
 19 18  1  0  0  0  0
 20 21  1  0  0  0  0
 20 19  1  0  0  0  0
 21 22  1  0  0  0  0
 22 23  1  0  0  0  0
 23 18  1  0  0  0  0
 24 25  1  0  0  0  0
 24 27  1  0  0  0  0
 24  1  1  0  0  0  0
 26 24  1  0  0  0  0
 27 32  2  0  0  0  0
 27 28  1  0  0  0  0
 28 33  1  0  0  0  0
 28 29  2  0  0  0  0
 29 30  1  0  0  0  0
 29 34  1  0  0  0  0
 31 35  1  0  0  0  0
 31 30  2  0  0  0  0
 32 31  1  0  0  0  0
 35 36  1  0  0  0  0
 36 41  1  0  0  0  0
 36 37  2  0  0  0  0
 37 42  1  0  0  0  0
 38 37  1  0  0  0  0
 38 43  1  0  0  0  0
 39 38  2  0  0  0  0
 40 35  2  0  0  0  0
 40 39  1  0  0  0  0
 44 39  1  0  0  0  0
M  END
>  <minimizedAffinity>
-5.71434307

>  <minimizedRMSD>
2.72843909

$$$$
