
 OpenBabel03252507163D

 26 28  0  0  0  0  0  0  0  0999 V2000
   44.8630   35.9580   43.8100 C   0  0  0  0  0  0  0  0  0  0  0  0
   45.5340   34.8050   43.3310 C   0  0  0  0  0  0  0  0  0  0  0  0
   45.7480   33.7860   44.2570 C   0  0  0  0  0  0  0  0  0  0  0  0
   45.3280   33.9230   45.5280 N   0  0  0  0  0  0  0  0  0  0  0  0
   44.6820   35.0570   45.9540 C   0  0  0  0  0  0  0  0  0  0  0  0
   44.4680   36.0380   45.0850 N   0  0  0  0  0  0  0  0  0  0  0  0
   44.6710   36.7890   43.1160 H   0  0  0  0  0  0  0  0  0  0  0  0
   44.4080   35.0130   46.9980 H   0  0  0  0  0  0  0  0  0  0  0  0
   46.4380   32.5860   43.7920 C   0  0  0  0  0  0  0  0  0  0  0  0
   45.7270   31.4310   43.5630 C   0  0  0  0  0  0  0  0  0  0  0  0
   46.4020   30.3140   43.1260 C   0  0  0  0  0  0  0  0  0  0  0  0
   47.7720   30.2910   42.9010 C   0  0  0  0  0  0  0  0  0  0  0  0
   48.4270   31.4930   43.1520 C   0  0  0  0  0  0  0  0  0  0  0  0
   47.7510   32.5690   43.5780 N   0  0  0  0  0  0  0  0  0  0  0  0
   44.6390   31.3670   43.7170 H   0  0  0  0  0  0  0  0  0  0  0  0
   45.8680   29.3740   42.9330 H   0  0  0  0  0  0  0  0  0  0  0  0
   48.3140   29.4250   42.5590 H   0  0  0  0  0  0  0  0  0  0  0  0
   49.4990   31.5750   43.0060 H   0  0  0  0  0  0  0  0  0  0  0  0
   45.9550   34.7170   41.9780 C   0  0  0  0  0  0  0  0  0  0  0  0
   47.1810   34.9490   41.7490 O   0  0  0  0  0  0  0  0  0  0  0  0
   45.2340   34.3950   40.7100 C   0  0  0  0  0  3  0  0  0  0  0  0
   43.8380   34.9070   40.8720 C   0  0  0  0  0  2  0  0  0  0  0  0
   42.8420   34.3180   39.9140 C   0  0  0  0  0  2  0  0  0  0  0  0
   42.9390   32.8320   39.7850 C   0  0  0  0  0  2  0  0  0  0  0  0
   44.0390   32.2140   40.5880 C   0  0  0  0  0  2  0  0  0  0  0  0
   45.3440   32.9400   40.4020 C   0  0  0  0  0  2  0  0  0  0  0  0
  1  6  1  0  0  0  0
  2  1  2  0  0  0  0
  2  3  1  0  0  0  0
  3  4  2  0  0  0  0
  4  5  1  0  0  0  0
  5  8  1  0  0  0  0
  6  5  2  0  0  0  0
  7  1  1  0  0  0  0
  9  3  1  0  0  0  0
 10 15  1  0  0  0  0
 10  9  2  0  0  0  0
 11 10  1  0  0  0  0
 12 11  2  0  0  0  0
 12 13  1  0  0  0  0
 13 14  2  0  0  0  0
 14  9  1  0  0  0  0
 16 11  1  0  0  0  0
 17 12  1  0  0  0  0
 18 13  1  0  0  0  0
 19  2  1  0  0  0  0
 20 19  2  0  0  0  0
 21 22  1  0  0  0  0
 21 19  1  0  0  0  0
 23 22  1  0  0  0  0
 24 23  1  0  0  0  0
 24 25  1  0  0  0  0
 26 25  1  0  0  0  0
 26 21  1  0  0  0  0
M  END
>  <minimizedAffinity>
-4.38420773

>  <minimizedRMSD>
0.769083679

$$$$
