
 OpenBabel03242513533D

 36 38  0  0  1  0  0  0  0  0999 V2000
   37.8760   30.0800   40.3300 C   0  0  2  0  0  0  0  0  0  0  0  0
   37.1180   31.3250   40.6720 C   0  0  0  0  0  0  0  0  0  0  0  0
   37.0730   31.9800   39.3120 C   0  0  0  0  0  0  0  0  0  0  0  0
   36.8790   30.8800   38.3740 C   0  0  0  0  0  0  0  0  0  0  0  0
   37.0440   29.5210   39.2070 C   0  0  2  0  0  0  0  0  0  0  0  0
   38.8650   30.3430   39.8910 H   0  0  0  0  0  0  0  0  0  0  0  0
   36.1270   31.1030   41.0770 H   0  0  0  0  0  0  0  0  0  0  0  0
   37.7160   31.9770   41.3680 H   0  0  0  0  0  0  0  0  0  0  0  0
   37.9930   32.5750   39.1620 H   0  0  0  0  0  0  0  0  0  0  0  0
   36.2030   32.6800   39.3400 H   0  0  0  0  0  0  0  0  0  0  0  0
   37.7210   30.8840   37.6320 H   0  0  0  0  0  0  0  0  0  0  0  0
   35.9020   30.8130   37.8740 H   0  0  0  0  0  0  0  0  0  0  0  0
   37.5760   28.8150   38.5450 H   0  0  0  0  0  0  0  0  0  0  0  0
   37.7310   28.2570   43.6040 C   0  0  0  0  0  0  0  0  0  0  0  0
   37.5200   29.3010   42.6770 C   0  0  0  0  0  0  0  0  0  0  0  0
   38.0210   29.1000   41.4360 C   0  0  0  0  0  0  0  0  0  0  0  0
   38.6970   27.9110   41.1470 N   0  0  0  0  0  0  0  0  0  0  0  0
   38.8760   26.9450   42.0500 C   0  0  0  0  0  0  0  0  0  0  0  0
   38.3920   27.1200   43.2790 N   0  0  0  0  0  0  0  0  0  0  0  0
   37.3400   28.3950   44.6000 H   0  0  0  0  0  0  0  0  0  0  0  0
   36.9980   30.1980   42.9300 H   0  0  0  0  0  0  0  0  0  0  0  0
   39.4180   26.0930   41.6630 H   0  0  0  0  0  0  0  0  0  0  0  0
   35.7670   29.1540   39.5940 O   0  0  0  0  0  0  0  0  0  0  0  0
   34.6620   29.0770   38.8040 C   0  0  0  0  0  0  0  0  0  0  0  0
   33.6350   29.1970   39.5790 O   0  0  0  0  0  0  0  0  0  0  0  0
   34.0480   28.9200   37.4740 C   0  0  0  0  0  3  0  0  0  0  0  0
   32.7920   29.0540   37.0780 C   0  0  0  0  0  3  0  0  0  0  0  0
   32.0020   28.9390   35.8530 C   0  0  0  0  0  0  0  0  0  0  0  0
   32.7120   28.7830   35.0060 H   0  0  0  0  0  0  0  0  0  0  0  0
   31.4370   27.9590   35.9430 H   0  0  0  0  0  0  0  0  0  0  0  0
   31.0640   30.0010   35.4800 C   0  0  0  0  0  3  0  0  0  0  0  0
   31.7710   30.7970   34.3450 C   0  0  0  0  0  2  0  0  0  0  0  0
   31.3590   32.2380   34.3590 C   0  0  0  0  0  2  0  0  0  0  0  0
   29.9540   32.4440   34.8560 C   0  0  0  0  0  2  0  0  0  0  0  0
   29.9590   32.0770   36.3310 C   0  0  0  0  0  2  0  0  0  0  0  0
   30.9720   31.0140   36.6340 C   0  0  0  0  0  2  0  0  0  0  0  0
  1  6  1  6  0  0  0
  1  2  1  0  0  0  0
  1 16  1  0  0  0  0
  2  7  1  0  0  0  0
  2  8  1  0  0  0  0
  3 10  1  0  0  0  0
  3  2  1  0  0  0  0
  4  5  1  0  0  0  0
  4  3  1  0  0  0  0
  5 13  1  6  0  0  0
  5 23  1  0  0  0  0
  5  1  1  0  0  0  0
  9  3  1  0  0  0  0
 11  4  1  0  0  0  0
 12  4  1  0  0  0  0
 14 20  1  0  0  0  0
 15 21  1  0  0  0  0
 15 14  2  0  0  0  0
 16 15  1  0  0  0  0
 17 16  2  0  0  0  0
 17 18  1  0  0  0  0
 18 19  2  0  0  0  0
 19 14  1  0  0  0  0
 22 18  1  0  0  0  0
 24 25  2  0  0  0  0
 24 23  1  0  0  0  0
 26 24  1  0  0  0  0
 27 26  2  0  0  0  0
 28 30  1  0  0  0  0
 28 27  1  0  0  0  0
 29 28  1  0  0  0  0
 31 28  1  0  0  0  0
 31 36  1  0  0  0  0
 32 33  1  0  0  0  0
 32 31  1  0  0  0  0
 33 34  1  0  0  0  0
 34 35  1  0  0  0  0
 35 36  1  0  0  0  0
M  END
>  <minimizedAffinity>
-5.44849825

$$$$

 OpenBabel03242513533D

 36 38  0  0  1  0  0  0  0  0999 V2000
   36.9860   30.5630   41.1010 C   0  0  2  0  0  0  0  0  0  0  0  0
   37.6270   29.2150   41.2280 C   0  0  0  0  0  0  0  0  0  0  0  0
   36.4030   28.3740   41.5030 C   0  0  0  0  0  0  0  0  0  0  0  0
   35.3600   28.9430   40.6590 C   0  0  0  0  0  0  0  0  0  0  0  0
   35.9470   30.3030   40.0440 C   0  0  2  0  0  0  0  0  0  0  0  0
   36.4320   30.8110   42.0350 H   0  0  0  0  0  0  0  0  0  0  0  0
   38.1530   28.9250   40.3150 H   0  0  0  0  0  0  0  0  0  0  0  0
   38.3020   29.1780   42.1280 H   0  0  0  0  0  0  0  0  0  0  0  0
   36.1920   28.3810   42.5880 H   0  0  0  0  0  0  0  0  0  0  0  0
   36.6770   27.3320   41.2050 H   0  0  0  0  0  0  0  0  0  0  0  0
   34.4970   29.2520   41.3060 H   0  0  0  0  0  0  0  0  0  0  0  0
   35.0240   28.3430   39.8000 H   0  0  0  0  0  0  0  0  0  0  0  0
   35.1100   31.0240   40.0320 H   0  0  0  0  0  0  0  0  0  0  0  0
   38.4660   33.7810   39.8710 C   0  0  0  0  0  0  0  0  0  0  0  0
   37.4650   32.8310   40.1720 C   0  0  0  0  0  0  0  0  0  0  0  0
   37.8970   31.6650   40.7050 C   0  0  0  0  0  0  0  0  0  0  0  0
   39.2650   31.4680   40.9220 N   0  0  0  0  0  0  0  0  0  0  0  0
   40.1820   32.3900   40.6250 C   0  0  0  0  0  0  0  0  0  0  0  0
   39.7810   33.5470   40.0990 N   0  0  0  0  0  0  0  0  0  0  0  0
   38.1450   34.7190   39.4450 H   0  0  0  0  0  0  0  0  0  0  0  0
   36.4270   33.0130   39.9940 H   0  0  0  0  0  0  0  0  0  0  0  0
   41.1920   32.0790   40.8550 H   0  0  0  0  0  0  0  0  0  0  0  0
   36.4820   29.9640   38.8130 O   0  0  0  0  0  0  0  0  0  0  0  0
   35.8520   29.3150   37.7970 C   0  0  0  0  0  0  0  0  0  0  0  0
   36.7100   29.1970   36.8370 O   0  0  0  0  0  0  0  0  0  0  0  0
   34.6520   28.6680   37.2410 C   0  0  0  0  0  3  0  0  0  0  0  0
   33.4310   29.1370   37.0340 C   0  0  0  0  0  3  0  0  0  0  0  0
   32.1420   28.6750   36.5200 C   0  0  0  0  0  0  0  0  0  0  0  0
   32.2790   28.4250   35.4420 H   0  0  0  0  0  0  0  0  0  0  0  0
   31.9480   27.6790   37.0270 H   0  0  0  0  0  0  0  0  0  0  0  0
   30.9530   29.5200   36.6520 C   0  0  0  0  0  3  0  0  0  0  0  0
   31.2220   30.7570   35.7480 C   0  0  0  0  0  2  0  0  0  0  0  0
   30.5430   31.9790   36.2880 C   0  0  0  0  0  2  0  0  0  0  0  0
   29.2670   31.6670   37.0220 C   0  0  0  0  0  2  0  0  0  0  0  0
   29.6650   30.9140   38.2810 C   0  0  0  0  0  2  0  0  0  0  0  0
   30.9120   30.1080   38.0730 C   0  0  0  0  0  2  0  0  0  0  0  0
  1  2  1  0  0  0  0
  1  6  1  1  0  0  0
  2  3  1  0  0  0  0
  2  8  1  0  0  0  0
  3  9  1  0  0  0  0
  4 11  1  0  0  0  0
  4  3  1  0  0  0  0
  5 13  1  6  0  0  0
  5  4  1  0  0  0  0
  5  1  1  0  0  0  0
  7  2  1  0  0  0  0
 10  3  1  0  0  0  0
 12  4  1  0  0  0  0
 14 19  2  0  0  0  0
 14 15  1  0  0  0  0
 15 16  2  0  0  0  0
 16 17  1  0  0  0  0
 16  1  1  0  0  0  0
 18 22  1  0  0  0  0
 18 17  2  0  0  0  0
 19 18  1  0  0  0  0
 20 14  1  0  0  0  0
 21 15  1  0  0  0  0
 23  5  1  0  0  0  0
 24 23  1  0  0  0  0
 25 24  2  0  0  0  0
 26 24  1  0  0  0  0
 27 26  2  0  0  0  0
 28 31  1  0  0  0  0
 28 30  1  0  0  0  0
 28 27  1  0  0  0  0
 29 28  1  0  0  0  0
 31 36  1  0  0  0  0
 32 33  1  0  0  0  0
 32 31  1  0  0  0  0
 33 34  1  0  0  0  0
 34 35  1  0  0  0  0
 36 35  1  0  0  0  0
M  END
>  <minimizedAffinity>
-5.37202644

$$$$

 OpenBabel03242513533D

 36 38  0  0  1  0  0  0  0  0999 V2000
   37.0810   32.1410   40.3200 C   0  0  2  0  0  0  0  0  0  0  0  0
   37.3710   32.9720   39.1080 C   0  0  0  0  0  0  0  0  0  0  0  0
   38.0310   34.1610   39.7650 C   0  0  0  0  0  0  0  0  0  0  0  0
   38.8340   33.5960   40.8430 C   0  0  0  0  0  0  0  0  0  0  0  0
   38.4430   32.0450   40.9510 C   0  0  2  0  0  0  0  0  0  0  0  0
   36.4420   32.7130   41.0310 H   0  0  0  0  0  0  0  0  0  0  0  0
   38.0240   32.4520   38.4020 H   0  0  0  0  0  0  0  0  0  0  0  0
   36.4160   33.3110   38.6200 H   0  0  0  0  0  0  0  0  0  0  0  0
   37.2540   34.8830   40.0790 H   0  0  0  0  0  0  0  0  0  0  0  0
   38.6540   34.6400   38.9700 H   0  0  0  0  0  0  0  0  0  0  0  0
   38.5120   34.0570   41.8140 H   0  0  0  0  0  0  0  0  0  0  0  0
   39.9270   33.6260   40.7250 H   0  0  0  0  0  0  0  0  0  0  0  0
   38.4370   31.8020   42.0290 H   0  0  0  0  0  0  0  0  0  0  0  0
   35.5970   28.7070   40.5870 C   0  0  0  0  0  0  0  0  0  0  0  0
   36.1350   29.9390   41.0230 C   0  0  0  0  0  0  0  0  0  0  0  0
   36.5140   30.7970   40.0480 C   0  0  0  0  0  0  0  0  0  0  0  0
   36.3580   30.4320   38.7060 N   0  0  0  0  0  0  0  0  0  0  0  0
   35.8440   29.2600   38.3330 C   0  0  0  0  0  0  0  0  0  0  0  0
   35.4630   28.3970   39.2750 N   0  0  0  0  0  0  0  0  0  0  0  0
   35.2870   28.0070   41.3470 H   0  0  0  0  0  0  0  0  0  0  0  0
   36.2410   30.1860   42.0570 H   0  0  0  0  0  0  0  0  0  0  0  0
   35.7930   29.1370   37.2600 H   0  0  0  0  0  0  0  0  0  0  0  0
   39.3670   31.3650   40.1760 O   0  0  0  0  0  0  0  0  0  0  0  0
   40.2210   30.3890   40.5860 C   0  0  0  0  0  0  0  0  0  0  0  0
   41.2300   30.4090   39.7790 O   0  0  0  0  0  0  0  0  0  0  0  0
   40.5690   29.3000   41.5140 C   0  0  0  0  0  3  0  0  0  0  0  0
   39.8180   28.5990   42.3490 C   0  0  0  0  0  3  0  0  0  0  0  0
   39.9640   27.5220   43.3280 C   0  0  0  0  0  0  0  0  0  0  0  0
   41.0440   27.2460   43.3670 H   0  0  0  0  0  0  0  0  0  0  0  0
   39.7460   27.9920   44.3360 H   0  0  0  0  0  0  0  0  0  0  0  0
   39.1770   26.2940   43.1910 C   0  0  0  0  0  3  0  0  0  0  0  0
   40.0550   25.3330   42.3380 C   0  0  0  0  0  2  0  0  0  0  0  0
   39.2060   24.4120   41.5160 C   0  0  0  0  0  2  0  0  0  0  0  0
   37.8920   24.0810   42.1710 C   0  0  0  0  0  2  0  0  0  0  0  0
   37.0820   25.3660   42.1890 C   0  0  0  0  0  2  0  0  0  0  0  0
   37.9620   26.5750   42.2900 C   0  0  0  0  0  2  0  0  0  0  0  0
  1  5  1  0  0  0  0
  1  6  1  1  0  0  0
  2  3  1  0  0  0  0
  2  1  1  0  0  0  0
  3  9  1  0  0  0  0
  3  4  1  0  0  0  0
  4  5  1  0  0  0  0
  4 11  1  0  0  0  0
  5 13  1  1  0  0  0
  7  2  1  0  0  0  0
  8  2  1  0  0  0  0
 10  3  1  0  0  0  0
 12  4  1  0  0  0  0
 14 15  1  0  0  0  0
 14 20  1  0  0  0  0
 15 21  1  0  0  0  0
 16  1  1  0  0  0  0
 16 15  2  0  0  0  0
 17 16  1  0  0  0  0
 18 17  2  0  0  0  0
 18 19  1  0  0  0  0
 19 14  2  0  0  0  0
 22 18  1  0  0  0  0
 23 24  1  0  0  0  0
 23  5  1  0  0  0  0
 24 26  1  0  0  0  0
 25 24  2  0  0  0  0
 26 27  2  0  0  0  0
 27 28  1  0  0  0  0
 28 29  1  0  0  0  0
 28 30  1  0  0  0  0
 31 28  1  0  0  0  0
 32 31  1  0  0  0  0
 33 34  1  0  0  0  0
 33 32  1  0  0  0  0
 34 35  1  0  0  0  0
 35 36  1  0  0  0  0
 36 31  1  0  0  0  0
M  END
>  <minimizedAffinity>
-5.28610992

$$$$

 OpenBabel03242513533D

 36 38  0  0  1  0  0  0  0  0999 V2000
   39.2720   32.6410   39.2340 C   0  0  2  0  0  0  0  0  0  0  0  0
   40.2710   32.1400   38.2380 C   0  0  0  0  0  0  0  0  0  0  0  0
   41.2290   33.3080   38.2240 C   0  0  0  0  0  0  0  0  0  0  0  0
   41.2910   33.7560   39.6100 C   0  0  0  0  0  0  0  0  0  0  0  0
   40.1540   32.9590   40.4110 C   0  0  2  0  0  0  0  0  0  0  0  0
   38.8430   33.6110   38.8900 H   0  0  0  0  0  0  0  0  0  0  0  0
   40.7360   31.2050   38.5600 H   0  0  0  0  0  0  0  0  0  0  0  0
   39.8040   32.0430   37.2180 H   0  0  0  0  0  0  0  0  0  0  0  0
   40.8750   34.0620   37.4970 H   0  0  0  0  0  0  0  0  0  0  0  0
   42.2030   32.8980   37.8600 H   0  0  0  0  0  0  0  0  0  0  0  0
   40.9920   34.8360   39.6560 H   0  0  0  0  0  0  0  0  0  0  0  0
   42.2290   33.5750   40.1560 H   0  0  0  0  0  0  0  0  0  0  0  0
   39.7230   33.6750   41.1320 H   0  0  0  0  0  0  0  0  0  0  0  0
   36.2350   30.9610   40.6540 C   0  0  0  0  0  0  0  0  0  0  0  0
   37.1760   31.9900   40.4260 C   0  0  0  0  0  0  0  0  0  0  0  0
   38.2030   31.6800   39.6020 C   0  0  0  0  0  0  0  0  0  0  0  0
   38.2770   30.4010   39.0390 N   0  0  0  0  0  0  0  0  0  0  0  0
   37.3690   29.4550   39.2780 C   0  0  0  0  0  0  0  0  0  0  0  0
   36.3470   29.7360   40.0860 N   0  0  0  0  0  0  0  0  0  0  0  0
   35.4070   31.1860   41.3080 H   0  0  0  0  0  0  0  0  0  0  0  0
   37.0900   32.9570   40.8710 H   0  0  0  0  0  0  0  0  0  0  0  0
   37.5740   28.5250   38.7650 H   0  0  0  0  0  0  0  0  0  0  0  0
   40.7780   31.8470   40.9510 O   0  0  0  0  0  0  0  0  0  0  0  0
   40.4730   31.2250   42.1210 C   0  0  0  0  0  0  0  0  0  0  0  0
   41.5390   31.2550   42.8520 O   0  0  0  0  0  0  0  0  0  0  0  0
   39.5090   30.5200   42.9820 C   0  0  0  0  0  3  0  0  0  0  0  0
   38.8020   29.4200   42.7740 C   0  0  0  0  0  3  0  0  0  0  0  0
   37.8190   28.5900   43.4690 C   0  0  0  0  0  0  0  0  0  0  0  0
   37.8770   28.8360   44.5560 H   0  0  0  0  0  0  0  0  0  0  0  0
   36.8040   28.9730   43.1380 H   0  0  0  0  0  0  0  0  0  0  0  0
   37.8520   27.1330   43.3230 C   0  0  0  0  0  3  0  0  0  0  0  0
   39.3530   26.7720   43.1200 C   0  0  0  0  0  2  0  0  0  0  0  0
   39.5030   25.5490   42.2660 C   0  0  0  0  0  2  0  0  0  0  0  0
   38.3610   24.5800   42.4180 C   0  0  0  0  0  2  0  0  0  0  0  0
   37.1370   25.2590   41.8280 C   0  0  0  0  0  2  0  0  0  0  0  0
   37.2000   26.7490   41.9830 C   0  0  0  0  0  2  0  0  0  0  0  0
  1  6  1  6  0  0  0
  1 16  1  0  0  0  0
  1  5  1  0  0  0  0
  2  7  1  0  0  0  0
  2  1  1  0  0  0  0
  3  2  1  0  0  0  0
  3  4  1  0  0  0  0
  4 11  1  0  0  0  0
  4 12  1  0  0  0  0
  4  5  1  0  0  0  0
  5 23  1  0  0  0  0
  5 13  1  1  0  0  0
  8  2  1  0  0  0  0
  9  3  1  0  0  0  0
 10  3  1  0  0  0  0
 14 20  1  0  0  0  0
 15 14  1  0  0  0  0
 15 21  1  0  0  0  0
 16 15  2  0  0  0  0
 17 18  2  0  0  0  0
 17 16  1  0  0  0  0
 18 19  1  0  0  0  0
 19 14  2  0  0  0  0
 22 18  1  0  0  0  0
 23 24  1  0  0  0  0
 24 25  2  0  0  0  0
 24 26  1  0  0  0  0
 27 26  2  0  0  0  0
 27 28  1  0  0  0  0
 28 29  1  0  0  0  0
 30 28  1  0  0  0  0
 31 28  1  0  0  0  0
 32 31  1  0  0  0  0
 33 34  1  0  0  0  0
 33 32  1  0  0  0  0
 35 36  1  0  0  0  0
 35 34  1  0  0  0  0
 36 31  1  0  0  0  0
M  END
>  <minimizedAffinity>
-5.27020359

$$$$

 OpenBabel03242513533D

 36 38  0  0  1  0  0  0  0  0999 V2000
   37.8890   30.2460   37.6160 C   0  0  2  0  0  0  0  0  0  0  0  0
   37.0310   30.7090   36.4790 C   0  0  0  0  0  0  0  0  0  0  0  0
   37.0070   29.4500   35.6460 C   0  0  0  0  0  0  0  0  0  0  0  0
   36.9350   28.3620   36.6140 C   0  0  0  0  0  0  0  0  0  0  0  0
   37.1540   29.0110   38.0630 C   0  0  2  0  0  0  0  0  0  0  0  0
   38.8780   29.9040   37.2330 H   0  0  0  0  0  0  0  0  0  0  0  0
   36.0400   31.0220   36.8160 H   0  0  0  0  0  0  0  0  0  0  0  0
   37.5480   31.5210   35.8950 H   0  0  0  0  0  0  0  0  0  0  0  0
   37.8890   29.4360   34.9800 H   0  0  0  0  0  0  0  0  0  0  0  0
   36.0900   29.5230   35.0120 H   0  0  0  0  0  0  0  0  0  0  0  0
   37.8100   27.6770   36.4540 H   0  0  0  0  0  0  0  0  0  0  0  0
   35.9900   27.8020   36.6720 H   0  0  0  0  0  0  0  0  0  0  0  0
   37.7650   28.2910   38.6360 H   0  0  0  0  0  0  0  0  0  0  0  0
   38.9290   32.0500   40.7340 C   0  0  0  0  0  0  0  0  0  0  0  0
   38.8860   31.0160   39.7720 C   0  0  0  0  0  0  0  0  0  0  0  0
   38.0480   31.2150   38.7290 C   0  0  0  0  0  0  0  0  0  0  0  0
   37.2950   32.3910   38.6600 N   0  0  0  0  0  0  0  0  0  0  0  0
   37.3620   33.3460   39.5880 C   0  0  0  0  0  0  0  0  0  0  0  0
   38.1810   33.1740   40.6260 N   0  0  0  0  0  0  0  0  0  0  0  0
   39.5910   31.9140   41.5750 H   0  0  0  0  0  0  0  0  0  0  0  0
   39.4760   30.1290   39.8550 H   0  0  0  0  0  0  0  0  0  0  0  0
   36.7160   34.1880   39.3840 H   0  0  0  0  0  0  0  0  0  0  0  0
   35.8880   29.2700   38.5590 O   0  0  0  0  0  0  0  0  0  0  0  0
   35.4570   29.0950   39.8370 C   0  0  0  0  0  0  0  0  0  0  0  0
   34.1650   29.0960   39.8030 O   0  0  0  0  0  0  0  0  0  0  0  0
   35.7430   28.9010   41.2690 C   0  0  0  0  0  3  0  0  0  0  0  0
   36.3870   27.9330   41.9010 C   0  0  0  0  0  3  0  0  0  0  0  0
   36.7590   27.5610   43.2660 C   0  0  0  0  0  0  0  0  0  0  0  0
   36.2380   28.2620   43.9600 H   0  0  0  0  0  0  0  0  0  0  0  0
   36.2750   26.5530   43.4520 H   0  0  0  0  0  0  0  0  0  0  0  0
   38.1710   27.4940   43.6500 C   0  0  0  0  0  3  0  0  0  0  0  0
   38.8490   28.7060   42.9480 C   0  0  0  0  0  2  0  0  0  0  0  0
   40.2790   28.4050   42.6150 C   0  0  0  0  0  2  0  0  0  0  0  0
   40.9250   27.4590   43.5910 C   0  0  0  0  0  2  0  0  0  0  0  0
   40.2430   26.1150   43.4050 C   0  0  0  0  0  2  0  0  0  0  0  0
   38.8160   26.2710   42.9730 C   0  0  0  0  0  2  0  0  0  0  0  0
  1  6  1  6  0  0  0
  1  5  1  0  0  0  0
  1 16  1  0  0  0  0
  2  7  1  0  0  0  0
  2  1  1  0  0  0  0
  3  2  1  0  0  0  0
  3  4  1  0  0  0  0
  4 12  1  0  0  0  0
  4  5  1  0  0  0  0
  5 23  1  0  0  0  0
  5 13  1  1  0  0  0
  8  2  1  0  0  0  0
  9  3  1  0  0  0  0
 10  3  1  0  0  0  0
 11  4  1  0  0  0  0
 14 20  1  0  0  0  0
 15 21  1  0  0  0  0
 15 14  2  0  0  0  0
 16 15  1  0  0  0  0
 17 16  2  0  0  0  0
 17 18  1  0  0  0  0
 18 19  2  0  0  0  0
 19 14  1  0  0  0  0
 22 18  1  0  0  0  0
 23 24  1  0  0  0  0
 24 26  1  0  0  0  0
 25 24  2  0  0  0  0
 26 27  2  0  0  0  0
 27 28  1  0  0  0  0
 28 30  1  0  0  0  0
 28 31  1  0  0  0  0
 28 29  1  0  0  0  0
 32 31  1  0  0  0  0
 33 32  1  0  0  0  0
 33 34  1  0  0  0  0
 35 34  1  0  0  0  0
 36 35  1  0  0  0  0
 36 31  1  0  0  0  0
M  END
>  <minimizedAffinity>
-5.2607522

$$$$

 OpenBabel03242513533D

 36 38  0  0  1  0  0  0  0  0999 V2000
   37.4800   24.7210   41.8190 C   0  0  2  0  0  0  0  0  0  0  0  0
   38.6880   24.0700   41.2200 C   0  0  0  0  0  0  0  0  0  0  0  0
   38.0450   22.8490   40.6070 C   0  0  0  0  0  0  0  0  0  0  0  0
   36.7660   23.3190   40.0900 C   0  0  0  0  0  0  0  0  0  0  0  0
   36.5680   24.8170   40.6250 C   0  0  2  0  0  0  0  0  0  0  0  0
   36.9880   24.0260   42.5370 H   0  0  0  0  0  0  0  0  0  0  0  0
   39.1780   24.7140   40.4840 H   0  0  0  0  0  0  0  0  0  0  0  0
   39.4020   23.7390   42.0250 H   0  0  0  0  0  0  0  0  0  0  0  0
   37.9850   22.0480   41.3680 H   0  0  0  0  0  0  0  0  0  0  0  0
   38.7400   22.5130   39.7990 H   0  0  0  0  0  0  0  0  0  0  0  0
   35.9420   22.7190   40.5610 H   0  0  0  0  0  0  0  0  0  0  0  0
   36.6530   23.3690   38.9970 H   0  0  0  0  0  0  0  0  0  0  0  0
   35.4960   24.9200   40.8690 H   0  0  0  0  0  0  0  0  0  0  0  0
   37.1530   27.9870   43.6310 C   0  0  0  0  0  0  0  0  0  0  0  0
   36.7560   26.7430   43.0930 C   0  0  0  0  0  0  0  0  0  0  0  0
   37.7120   26.0530   42.4310 C   0  0  0  0  0  0  0  0  0  0  0  0
   38.9990   26.5880   42.3180 N   0  0  0  0  0  0  0  0  0  0  0  0
   39.3380   27.7670   42.8400 C   0  0  0  0  0  0  0  0  0  0  0  0
   38.4130   28.4670   43.4980 N   0  0  0  0  0  0  0  0  0  0  0  0
   36.4070   28.5560   44.1640 H   0  0  0  0  0  0  0  0  0  0  0  0
   35.7630   26.3620   43.1970 H   0  0  0  0  0  0  0  0  0  0  0  0
   40.3710   28.0330   42.6630 H   0  0  0  0  0  0  0  0  0  0  0  0
   37.0500   25.6440   39.6250 O   0  0  0  0  0  0  0  0  0  0  0  0
   36.4520   26.7580   39.1240 C   0  0  0  0  0  0  0  0  0  0  0  0
   36.0990   26.4820   37.9110 O   0  0  0  0  0  0  0  0  0  0  0  0
   35.9990   28.1490   39.2840 C   0  0  0  0  0  3  0  0  0  0  0  0
   36.1990   29.0190   40.2620 C   0  0  0  0  0  3  0  0  0  0  0  0
   35.8430   30.3950   40.6070 C   0  0  0  0  0  0  0  0  0  0  0  0
   34.9730   30.6880   39.9730 H   0  0  0  0  0  0  0  0  0  0  0  0
   35.4300   30.3500   41.6630 H   0  0  0  0  0  0  0  0  0  0  0  0
   36.8500   31.4560   40.5300 C   0  0  0  0  0  3  0  0  0  0  0  0
   37.0270   31.7490   39.0120 C   0  0  0  0  0  2  0  0  0  0  0  0
   38.4220   32.2040   38.7090 C   0  0  0  0  0  2  0  0  0  0  0  0
   39.0560   32.9590   39.8470 C   0  0  0  0  0  2  0  0  0  0  0  0
   39.2600   31.9570   40.9700 C   0  0  0  0  0  2  0  0  0  0  0  0
   38.2130   30.8840   40.9540 C   0  0  0  0  0  2  0  0  0  0  0  0
  1 16  1  0  0  0  0
  1  6  1  1  0  0  0
  2  1  1  0  0  0  0
  2  8  1  0  0  0  0
  3  2  1  0  0  0  0
  3  9  1  0  0  0  0
  4 11  1  0  0  0  0
  4  3  1  0  0  0  0
  4  5  1  0  0  0  0
  5 13  1  1  0  0  0
  5  1  1  0  0  0  0
  7  2  1  0  0  0  0
 10  3  1  0  0  0  0
 12  4  1  0  0  0  0
 14 20  1  0  0  0  0
 15 21  1  0  0  0  0
 15 14  2  0  0  0  0
 16 15  1  0  0  0  0
 17 16  2  0  0  0  0
 17 18  1  0  0  0  0
 18 19  2  0  0  0  0
 19 14  1  0  0  0  0
 22 18  1  0  0  0  0
 23  5  1  0  0  0  0
 24 26  1  0  0  0  0
 24 23  1  0  0  0  0
 25 24  2  0  0  0  0
 26 27  2  0  0  0  0
 27 28  1  0  0  0  0
 28 30  1  0  0  0  0
 29 28  1  0  0  0  0
 31 28  1  0  0  0  0
 31 36  1  0  0  0  0
 32 31  1  0  0  0  0
 33 32  1  0  0  0  0
 33 34  1  0  0  0  0
 34 35  1  0  0  0  0
 36 35  1  0  0  0  0
M  END
>  <minimizedAffinity>
-5.22016001

$$$$

 OpenBabel03242513533D

 36 38  0  0  1  0  0  0  0  0999 V2000
   38.0110   30.6190   38.8360 C   0  0  2  0  0  0  0  0  0  0  0  0
   36.5400   30.6140   38.5560 C   0  0  0  0  0  0  0  0  0  0  0  0
   36.3690   29.1820   38.1060 C   0  0  0  0  0  0  0  0  0  0  0  0
   37.2570   28.4110   38.9670 C   0  0  0  0  0  0  0  0  0  0  0  0
   38.1380   29.4650   39.7930 C   0  0  2  0  0  0  0  0  0  0  0  0
   38.5750   30.3340   37.9190 H   0  0  0  0  0  0  0  0  0  0  0  0
   35.9530   30.8590   39.4450 H   0  0  0  0  0  0  0  0  0  0  0  0
   36.2960   31.2960   37.6950 H   0  0  0  0  0  0  0  0  0  0  0  0
   36.5810   29.1130   37.0220 H   0  0  0  0  0  0  0  0  0  0  0  0
   35.2910   28.9390   38.2690 H   0  0  0  0  0  0  0  0  0  0  0  0
   37.9840   27.8460   38.3260 H   0  0  0  0  0  0  0  0  0  0  0  0
   36.7870   27.7560   39.7160 H   0  0  0  0  0  0  0  0  0  0  0  0
   39.1520   29.0320   39.8640 H   0  0  0  0  0  0  0  0  0  0  0  0
   38.4330   34.0590   40.2690 C   0  0  0  0  0  0  0  0  0  0  0  0
   37.7710   32.9550   39.6870 C   0  0  0  0  0  0  0  0  0  0  0  0
   38.5410   31.8730   39.4270 C   0  0  0  0  0  0  0  0  0  0  0  0
   39.9040   31.9030   39.7380 N   0  0  0  0  0  0  0  0  0  0  0  0
   40.4950   32.9640   40.2880 C   0  0  0  0  0  0  0  0  0  0  0  0
   39.7580   34.0430   40.5540 N   0  0  0  0  0  0  0  0  0  0  0  0
   37.8400   34.9330   40.4850 H   0  0  0  0  0  0  0  0  0  0  0  0
   36.7260   32.9650   39.4620 H   0  0  0  0  0  0  0  0  0  0  0  0
   41.5520   32.8220   40.4650 H   0  0  0  0  0  0  0  0  0  0  0  0
   37.4720   29.6620   40.9910 O   0  0  0  0  0  0  0  0  0  0  0  0
   37.2940   28.7540   41.9880 C   0  0  0  0  0  0  0  0  0  0  0  0
   37.7140   29.3050   43.0790 O   0  0  0  0  0  0  0  0  0  0  0  0
   36.8490   27.4270   42.4460 C   0  0  0  0  0  3  0  0  0  0  0  0
   37.1920   26.2120   42.0460 C   0  0  0  0  0  3  0  0  0  0  0  0
   36.8740   24.8170   42.3520 C   0  0  0  0  0  0  0  0  0  0  0  0
   37.1540   24.6330   43.4160 H   0  0  0  0  0  0  0  0  0  0  0  0
   35.7420   24.7490   42.3330 H   0  0  0  0  0  0  0  0  0  0  0  0
   37.4330   23.7400   41.5320 C   0  0  0  0  0  3  0  0  0  0  0  0
   38.8340   24.2460   41.0830 C   0  0  0  0  0  2  0  0  0  0  0  0
   39.2080   23.6840   39.7450 C   0  0  0  0  0  2  0  0  0  0  0  0
   38.6270   22.3170   39.4970 C   0  0  0  0  0  2  0  0  0  0  0  0
   37.1240   22.5010   39.3820 C   0  0  0  0  0  2  0  0  0  0  0  0
   36.6390   23.6470   40.2180 C   0  0  0  0  0  2  0  0  0  0  0  0
  1  6  1  6  0  0  0
  1 16  1  0  0  0  0
  1  5  1  0  0  0  0
  2  1  1  0  0  0  0
  2  7  1  0  0  0  0
  3 10  1  0  0  0  0
  3  2  1  0  0  0  0
  3  4  1  0  0  0  0
  4 12  1  0  0  0  0
  4  5  1  0  0  0  0
  5 13  1  1  0  0  0
  5 23  1  0  0  0  0
  8  2  1  0  0  0  0
  9  3  1  0  0  0  0
 11  4  1  0  0  0  0
 14 20  1  0  0  0  0
 14 19  1  0  0  0  0
 15 14  2  0  0  0  0
 16 15  1  0  0  0  0
 16 17  2  0  0  0  0
 17 18  1  0  0  0  0
 18 22  1  0  0  0  0
 18 19  2  0  0  0  0
 21 15  1  0  0  0  0
 23 24  1  0  0  0  0
 24 26  1  0  0  0  0
 24 25  2  0  0  0  0
 27 28  1  0  0  0  0
 27 26  2  0  0  0  0
 28 29  1  0  0  0  0
 30 28  1  0  0  0  0
 31 28  1  0  0  0  0
 32 31  1  0  0  0  0
 33 32  1  0  0  0  0
 34 33  1  0  0  0  0
 35 34  1  0  0  0  0
 35 36  1  0  0  0  0
 36 31  1  0  0  0  0
M  END
>  <minimizedAffinity>
-5.21549892

$$$$

 OpenBabel03242513533D

 36 38  0  0  1  0  0  0  0  0999 V2000
   36.5900   30.7750   38.6920 C   0  0  2  0  0  0  0  0  0  0  0  0
   37.9800   31.2130   38.3510 C   0  0  0  0  0  0  0  0  0  0  0  0
   38.0360   32.5120   39.1210 C   0  0  0  0  0  0  0  0  0  0  0  0
   37.3150   32.2440   40.3590 C   0  0  0  0  0  0  0  0  0  0  0  0
   36.6260   30.8060   40.1970 C   0  0  2  0  0  0  0  0  0  0  0  0
   35.8560   31.5520   38.3770 H   0  0  0  0  0  0  0  0  0  0  0  0
   38.7300   30.4870   38.6770 H   0  0  0  0  0  0  0  0  0  0  0  0
   38.0690   31.4390   37.2520 H   0  0  0  0  0  0  0  0  0  0  0  0
   37.6210   33.3250   38.4960 H   0  0  0  0  0  0  0  0  0  0  0  0
   39.1210   32.7180   39.2900 H   0  0  0  0  0  0  0  0  0  0  0  0
   36.4690   32.9760   40.4510 H   0  0  0  0  0  0  0  0  0  0  0  0
   37.9060   32.1940   41.2850 H   0  0  0  0  0  0  0  0  0  0  0  0
   35.6360   30.8810   40.6810 H   0  0  0  0  0  0  0  0  0  0  0  0
   34.8230   27.5570   37.9260 C   0  0  0  0  0  0  0  0  0  0  0  0
   35.0400   28.8240   38.5120 C   0  0  0  0  0  0  0  0  0  0  0  0
   36.2040   29.4330   38.1880 C   0  0  0  0  0  0  0  0  0  0  0  0
   37.1000   28.7990   37.3210 N   0  0  0  0  0  0  0  0  0  0  0  0
   36.8600   27.6000   36.7870 C   0  0  0  0  0  0  0  0  0  0  0  0
   35.7200   26.9800   37.0910 N   0  0  0  0  0  0  0  0  0  0  0  0
   33.9020   27.0520   38.1700 H   0  0  0  0  0  0  0  0  0  0  0  0
   34.3340   29.2820   39.1700 H   0  0  0  0  0  0  0  0  0  0  0  0
   37.6540   27.2540   36.1400 H   0  0  0  0  0  0  0  0  0  0  0  0
   37.5100   29.8960   40.7490 O   0  0  0  0  0  0  0  0  0  0  0  0
   37.2420   28.9730   41.7110 C   0  0  0  0  0  0  0  0  0  0  0  0
   37.6620   29.4630   42.8310 O   0  0  0  0  0  0  0  0  0  0  0  0
   36.6980   27.6650   42.1130 C   0  0  0  0  0  3  0  0  0  0  0  0
   37.1640   26.4390   41.9310 C   0  0  0  0  0  3  0  0  0  0  0  0
   36.7870   25.0580   42.2330 C   0  0  0  0  0  0  0  0  0  0  0  0
   37.3820   24.7320   43.1190 H   0  0  0  0  0  0  0  0  0  0  0  0
   35.7160   25.1050   42.6020 H   0  0  0  0  0  0  0  0  0  0  0  0
   36.8940   24.0250   41.1990 C   0  0  0  0  0  3  0  0  0  0  0  0
   38.4140   23.9100   40.8850 C   0  0  0  0  0  2  0  0  0  0  0  0
   38.6420   23.5100   39.4590 C   0  0  0  0  0  2  0  0  0  0  0  0
   37.5450   22.6380   38.9100 C   0  0  0  0  0  2  0  0  0  0  0  0
   36.3030   23.5080   38.8250 C   0  0  0  0  0  2  0  0  0  0  0  0
   36.2910   24.5630   39.8900 C   0  0  0  0  0  2  0  0  0  0  0  0
  1  6  1  6  0  0  0
  1  5  1  0  0  0  0
  2  7  1  0  0  0  0
  2  1  1  0  0  0  0
  2  3  1  0  0  0  0
  3 10  1  0  0  0  0
  3  4  1  0  0  0  0
  4 11  1  0  0  0  0
  4 12  1  0  0  0  0
  5  4  1  0  0  0  0
  5 13  1  1  0  0  0
  5 23  1  0  0  0  0
  8  2  1  0  0  0  0
  9  3  1  0  0  0  0
 14 20  1  0  0  0  0
 14 15  1  0  0  0  0
 15 21  1  0  0  0  0
 16 15  2  0  0  0  0
 16  1  1  0  0  0  0
 17 16  1  0  0  0  0
 18 19  1  0  0  0  0
 18 17  2  0  0  0  0
 19 14  2  0  0  0  0
 22 18  1  0  0  0  0
 23 24  1  0  0  0  0
 24 26  1  0  0  0  0
 24 25  2  0  0  0  0
 27 26  2  0  0  0  0
 27 28  1  0  0  0  0
 28 30  1  0  0  0  0
 28 29  1  0  0  0  0
 31 28  1  0  0  0  0
 32 31  1  0  0  0  0
 33 32  1  0  0  0  0
 34 33  1  0  0  0  0
 35 34  1  0  0  0  0
 35 36  1  0  0  0  0
 36 31  1  0  0  0  0
M  END
>  <minimizedAffinity>
-4.97962141

$$$$

 OpenBabel03242513533D

 36 38  0  0  1  0  0  0  0  0999 V2000
   38.1580   29.1440   42.0590 C   0  0  2  0  0  0  0  0  0  0  0  0
   38.7450   27.7690   42.1370 C   0  0  0  0  0  0  0  0  0  0  0  0
   37.8130   27.1480   43.1490 C   0  0  0  0  0  0  0  0  0  0  0  0
   36.4980   27.6900   42.8290 C   0  0  0  0  0  0  0  0  0  0  0  0
   36.7210   28.8390   41.7330 C   0  0  2  0  0  0  0  0  0  0  0  0
   38.1600   29.6170   43.0680 H   0  0  0  0  0  0  0  0  0  0  0  0
   38.7300   27.2620   41.1680 H   0  0  0  0  0  0  0  0  0  0  0  0
   39.7830   27.8030   42.5720 H   0  0  0  0  0  0  0  0  0  0  0  0
   38.1820   27.3680   44.1680 H   0  0  0  0  0  0  0  0  0  0  0  0
   37.8760   26.0440   42.9840 H   0  0  0  0  0  0  0  0  0  0  0  0
   36.0900   28.2120   43.7350 H   0  0  0  0  0  0  0  0  0  0  0  0
   35.7600   26.9980   42.3970 H   0  0  0  0  0  0  0  0  0  0  0  0
   36.0090   29.6460   41.9810 H   0  0  0  0  0  0  0  0  0  0  0  0
   39.0790   32.0390   39.8600 C   0  0  0  0  0  0  0  0  0  0  0  0
   38.3800   31.3220   40.8570 C   0  0  0  0  0  0  0  0  0  0  0  0
   38.7660   30.0380   41.0420 C   0  0  0  0  0  0  0  0  0  0  0  0
   39.7980   29.5070   40.2640 N   0  0  0  0  0  0  0  0  0  0  0  0
   40.4350   30.2140   39.3300 C   0  0  0  0  0  0  0  0  0  0  0  0
   40.0750   31.4820   39.1290 N   0  0  0  0  0  0  0  0  0  0  0  0
   38.7890   33.0640   39.6940 H   0  0  0  0  0  0  0  0  0  0  0  0
   37.5960   31.7590   41.4360 H   0  0  0  0  0  0  0  0  0  0  0  0
   41.2070   29.6540   38.8200 H   0  0  0  0  0  0  0  0  0  0  0  0
   36.5500   28.2290   40.5020 O   0  0  0  0  0  0  0  0  0  0  0  0
   35.7750   28.6640   39.4730 C   0  0  0  0  0  0  0  0  0  0  0  0
   36.5650   29.2190   38.6140 O   0  0  0  0  0  0  0  0  0  0  0  0
   34.4530   28.8190   38.8430 C   0  0  0  0  0  3  0  0  0  0  0  0
   34.0410   28.5490   37.6140 C   0  0  0  0  0  3  0  0  0  0  0  0
   32.8190   28.6350   36.8140 C   0  0  0  0  0  0  0  0  0  0  0  0
   32.9530   27.9770   35.9230 H   0  0  0  0  0  0  0  0  0  0  0  0
   32.0120   28.1300   37.4300 H   0  0  0  0  0  0  0  0  0  0  0  0
   32.3290   29.9380   36.3570 C   0  0  0  0  0  3  0  0  0  0  0  0
   30.9660   30.1430   37.0790 C   0  0  0  0  0  2  0  0  0  0  0  0
   30.0330   30.9670   36.2440 C   0  0  0  0  0  2  0  0  0  0  0  0
   30.7470   31.9680   35.3760 C   0  0  0  0  0  2  0  0  0  0  0  0
   31.5160   31.1690   34.3380 C   0  0  0  0  0  2  0  0  0  0  0  0
   31.9450   29.8350   34.8710 C   0  0  0  0  0  2  0  0  0  0  0  0
  1  2  1  0  0  0  0
  1  6  1  1  0  0  0
  2  8  1  0  0  0  0
  2  3  1  0  0  0  0
  3  9  1  0  0  0  0
  4  3  1  0  0  0  0
  4 11  1  0  0  0  0
  5 13  1  1  0  0  0
  5  1  1  0  0  0  0
  5  4  1  0  0  0  0
  7  2  1  0  0  0  0
 10  3  1  0  0  0  0
 12  4  1  0  0  0  0
 14 15  1  0  0  0  0
 15 16  2  0  0  0  0
 15 21  1  0  0  0  0
 16  1  1  0  0  0  0
 17 16  1  0  0  0  0
 18 17  2  0  0  0  0
 19 18  1  0  0  0  0
 19 14  2  0  0  0  0
 20 14  1  0  0  0  0
 22 18  1  0  0  0  0
 23  5  1  0  0  0  0
 24 23  1  0  0  0  0
 25 24  2  0  0  0  0
 26 24  1  0  0  0  0
 27 26  2  0  0  0  0
 28 30  1  0  0  0  0
 28 27  1  0  0  0  0
 29 28  1  0  0  0  0
 31 28  1  0  0  0  0
 31 32  1  0  0  0  0
 33 32  1  0  0  0  0
 34 33  1  0  0  0  0
 35 36  1  0  0  0  0
 35 34  1  0  0  0  0
 36 31  1  0  0  0  0
M  END
>  <minimizedAffinity>
-4.91776943

$$$$
