
 OpenBabel03242520003D

 27 29  0  0  0  0  0  0  0  0999 V2000
   44.5680   33.2720   41.0830 Br  0  0  0  0  0  0  0  0  0  0  0  0
   46.2790   34.0900   40.9420 C   0  0  0  0  0  0  0  0  0  0  0  0
   46.8550   34.8000   41.9840 C   0  0  0  0  0  0  0  0  0  0  0  0
   48.1050   35.3560   41.7750 C   0  0  0  0  0  0  0  0  0  0  0  0
   48.7920   35.2370   40.5880 C   0  0  0  0  0  0  0  0  0  0  0  0
   48.2260   34.5330   39.5430 C   0  0  0  0  0  0  0  0  0  0  0  0
   46.9960   33.9920   39.7720 C   0  0  0  0  0  0  0  0  0  0  0  0
   48.4810   35.8860   42.6260 H   0  0  0  0  0  0  0  0  0  0  0  0
   49.7700   35.7090   40.5120 H   0  0  0  0  0  0  0  0  0  0  0  0
   48.7610   34.4350   38.6080 H   0  0  0  0  0  0  0  0  0  0  0  0
   44.4920   35.9680   44.6850 C   0  0  0  0  0  0  0  0  0  0  0  0
   45.2050   35.9100   43.4760 C   0  0  0  0  0  0  0  0  0  0  0  0
   46.0980   34.8960   43.2210 C   0  0  0  0  0  0  0  0  0  0  0  0
   46.2270   33.9690   44.2260 N   0  0  0  0  0  0  0  0  0  0  0  0
   45.5410   34.0360   45.3740 C   0  0  0  0  0  0  0  0  0  0  0  0
   44.6830   35.0140   45.6150 N   0  0  0  0  0  0  0  0  0  0  0  0
   43.7850   36.7840   44.8690 H   0  0  0  0  0  0  0  0  0  0  0  0
   45.0530   36.6770   42.7280 H   0  0  0  0  0  0  0  0  0  0  0  0
   45.7550   33.2300   46.0650 H   0  0  0  0  0  0  0  0  0  0  0  0
   46.4490   33.2130   38.6910 C   0  0  0  0  0  0  0  0  0  0  0  0
   46.6240   33.4950   37.4800 O   0  0  0  0  0  0  0  0  0  0  0  0
   45.6270   32.0120   38.4340 C   0  0  0  0  0  0  0  0  0  0  0  0
   44.6460   32.2580   37.3030 C   0  0  0  0  0  0  0  0  0  0  0  0
   43.6810   31.0920   37.3600 C   0  0  0  0  0  0  0  0  0  0  0  0
   44.3700   29.8010   37.6940 C   0  0  0  0  0  0  0  0  0  0  0  0
   45.8450   29.8290   37.3400 C   0  0  0  0  0  0  0  0  0  0  0  0
   46.6030   30.9230   38.0110 C   0  0  0  0  0  0  0  0  0  0  0  0
  2  1  1  0  0  0  0
  2  3  1  0  0  0  0
  3 13  1  0  0  0  0
  4  3  2  0  0  0  0
  4  8  1  0  0  0  0
  5  4  1  0  0  0  0
  6  7  1  0  0  0  0
  6  5  2  0  0  0  0
  7  2  2  0  0  0  0
  9  5  1  0  0  0  0
 10  6  1  0  0  0  0
 11 17  1  0  0  0  0
 11 16  1  0  0  0  0
 12 11  2  0  0  0  0
 13 12  1  0  0  0  0
 13 14  2  0  0  0  0
 14 15  1  0  0  0  0
 15 16  2  0  0  0  0
 15 19  1  0  0  0  0
 18 12  1  0  0  0  0
 20  7  1  0  0  0  0
 21 20  2  0  0  0  0
 22 20  1  0  0  0  0
 23 24  1  0  0  0  0
 23 22  1  0  0  0  0
 24 25  1  0  0  0  0
 26 25  1  0  0  0  0
 26 27  1  0  0  0  0
 27 22  1  0  0  0  0
M  END
>  <minimizedAffinity>
-5.44708061

>  <minimizedRMSD>
0.375856668

$$$$
