
 OpenBabel03242521433D

 31 33  0  0  1  0  0  0  0  0999 V2000
   36.9500   28.4810   41.9480 C   0  0  0  0  0  0  0  0  0  0  0  0
   37.8830   29.5210   41.8930 C   0  0  0  0  0  0  0  0  0  0  0  0
   37.5540   30.6660   41.1560 C   0  0  0  0  0  0  0  0  0  0  0  0
   36.3630   30.7030   40.5410 N   0  0  0  0  0  0  0  0  0  0  0  0
   35.4820   29.6710   40.6190 C   0  0  0  0  0  0  0  0  0  0  0  0
   35.7780   28.5710   41.3170 N   0  0  0  0  0  0  0  0  0  0  0  0
   38.8020   29.3580   42.4370 H   0  0  0  0  0  0  0  0  0  0  0  0
   34.5130   29.7290   40.1050 H   0  0  0  0  0  0  0  0  0  0  0  0
   38.3320   32.7430   40.0270 C   0  0  2  0  0  0  0  0  0  0  0  0
   38.5450   31.7300   41.1170 C   0  0  2  0  0  0  0  0  0  0  0  0
   39.8540   31.3010   40.8190 O   0  0  0  0  0  0  0  0  0  0  0  0
   40.5650   32.4700   40.6500 C   0  0  0  0  0  0  0  0  0  0  0  0
   39.6270   33.5560   40.2250 C   0  0  1  0  0  0  0  0  0  0  0  0
   38.3940   32.2770   39.0230 H   0  0  0  0  0  0  0  0  0  0  0  0
   38.5690   32.2420   42.1130 H   0  0  0  0  0  0  0  0  0  0  0  0
   41.0020   32.7550   41.6350 H   0  0  0  0  0  0  0  0  0  0  0  0
   41.4360   32.3550   39.9630 H   0  0  0  0  0  0  0  0  0  0  0  0
   39.4030   34.3010   40.9980 H   0  0  0  0  0  0  0  0  0  0  0  0
   37.1900   33.4870   40.1860 O   0  0  0  0  0  0  0  0  0  0  0  0
   36.5000   33.1340   39.5570 H   0  0  0  0  0  0  0  0  0  0  0  0
   39.9670   34.1580   39.0280 O   0  0  0  0  0  0  0  0  0  0  0  0
   39.1870   34.3660   38.4610 H   0  0  0  0  0  0  0  0  0  0  0  0
   37.3200   27.2410   42.7410 C   0  0  0  0  0  0  0  0  0  0  0  0
   37.2720   27.4980   43.8190 H   0  0  0  0  0  0  0  0  0  0  0  0
   36.6830   26.3960   42.4580 H   0  0  0  0  0  0  0  0  0  0  0  0
   38.7540   26.8850   42.4300 C   0  0  0  0  0  3  0  0  0  0  0  0
   39.5320   26.5260   43.6720 C   0  0  0  0  0  2  0  0  0  0  0  0
   40.4530   25.3390   43.4020 C   0  0  0  0  0  2  0  0  0  0  0  0
   39.6650   24.1010   43.0570 C   0  0  0  0  0  2  0  0  0  0  0  0
   38.4630   24.4350   42.1990 C   0  0  0  0  0  2  0  0  0  0  0  0
   38.7690   25.7350   41.4780 C   0  0  0  0  0  2  0  0  0  0  0  0
  1 23  1  0  0  0  0
  2  1  1  0  0  0  0
  2  7  1  0  0  0  0
  3  2  2  0  0  0  0
  4  5  2  0  0  0  0
  4  3  1  0  0  0  0
  5  6  1  0  0  0  0
  6  1  2  0  0  0  0
  8  5  1  0  0  0  0
  9 14  1  6  0  0  0
  9 19  1  0  0  0  0
  9 13  1  0  0  0  0
  9 10  1  0  0  0  0
 10  3  1  0  0  0  0
 10 15  1  1  0  0  0
 11 10  1  0  0  0  0
 12 11  1  0  0  0  0
 12 16  1  0  0  0  0
 13 12  1  0  0  0  0
 13 18  1  1  0  0  0
 17 12  1  0  0  0  0
 20 19  1  0  0  0  0
 21 13  1  0  0  0  0
 22 21  1  0  0  0  0
 23 24  1  0  0  0  0
 25 23  1  0  0  0  0
 26 23  1  0  0  0  0
 26 27  1  0  0  0  0
 28 27  1  0  0  0  0
 29 28  1  0  0  0  0
 30 29  1  0  0  0  0
 31 30  1  0  0  0  0
 31 26  1  0  0  0  0
M  END
>  <minimizedAffinity>
-6.01730967

$$$$

 OpenBabel03242521433D

 31 33  0  0  1  0  0  0  0  0999 V2000
   38.3990   30.9610   41.2470 C   0  0  0  0  0  0  0  0  0  0  0  0
   39.5080   31.5310   40.6130 C   0  0  0  0  0  0  0  0  0  0  0  0
   39.2790   32.4320   39.5660 C   0  0  0  0  0  0  0  0  0  0  0  0
   38.0100   32.7010   39.2270 N   0  0  0  0  0  0  0  0  0  0  0  0
   36.9580   32.1270   39.8680 C   0  0  0  0  0  0  0  0  0  0  0  0
   37.1560   31.2650   40.8680 N   0  0  0  0  0  0  0  0  0  0  0  0
   40.4730   31.2260   40.9900 H   0  0  0  0  0  0  0  0  0  0  0  0
   35.9290   32.3670   39.5680 H   0  0  0  0  0  0  0  0  0  0  0  0
   40.8700   32.3230   37.6550 C   0  0  2  0  0  0  0  0  0  0  0  0
   40.4530   33.0080   38.9270 C   0  0  2  0  0  0  0  0  0  0  0  0
   41.6400   32.9020   39.6780 O   0  0  0  0  0  0  0  0  0  0  0  0
   42.6280   33.3290   38.8170 C   0  0  0  0  0  0  0  0  0  0  0  0
   42.1800   33.0990   37.4070 C   0  0  1  0  0  0  0  0  0  0  0  0
   41.1490   31.2660   37.8360 H   0  0  0  0  0  0  0  0  0  0  0  0
   40.2650   34.0950   38.7300 H   0  0  0  0  0  0  0  0  0  0  0  0
   42.7650   34.4250   38.9620 H   0  0  0  0  0  0  0  0  0  0  0  0
   43.6230   32.8750   39.0350 H   0  0  0  0  0  0  0  0  0  0  0  0
   41.8970   34.0050   36.8590 H   0  0  0  0  0  0  0  0  0  0  0  0
   39.9570   32.4530   36.6380 O   0  0  0  0  0  0  0  0  0  0  0  0
   39.4550   31.5950   36.5610 H   0  0  0  0  0  0  0  0  0  0  0  0
   43.0370   32.3060   36.6650 O   0  0  0  0  0  0  0  0  0  0  0  0
   42.5670   31.6780   36.0670 H   0  0  0  0  0  0  0  0  0  0  0  0
   38.6570   29.9770   42.3730 C   0  0  0  0  0  0  0  0  0  0  0  0
   39.5950   29.4320   42.1430 H   0  0  0  0  0  0  0  0  0  0  0  0
   38.6680   30.4900   43.3410 H   0  0  0  0  0  0  0  0  0  0  0  0
   37.5410   28.9600   42.3840 C   0  0  0  0  0  3  0  0  0  0  0  0
   37.6520   27.9850   41.2370 C   0  0  0  0  0  2  0  0  0  0  0  0
   37.3060   26.5720   41.7010 C   0  0  0  0  0  2  0  0  0  0  0  0
   38.2860   26.0790   42.7350 C   0  0  0  0  0  2  0  0  0  0  0  0
   38.6950   27.1900   43.6800 C   0  0  0  0  0  2  0  0  0  0  0  0
   37.5780   28.2170   43.6790 C   0  0  0  0  0  2  0  0  0  0  0  0
  1 23  1  0  0  0  0
  2  7  1  0  0  0  0
  2  1  2  0  0  0  0
  3  2  1  0  0  0  0
  4  3  2  0  0  0  0
  4  5  1  0  0  0  0
  5  6  2  0  0  0  0
  6  1  1  0  0  0  0
  8  5  1  0  0  0  0
  9 14  1  1  0  0  0
  9 10  1  0  0  0  0
 10 15  1  6  0  0  0
 10  3  1  0  0  0  0
 10 11  1  0  0  0  0
 12 16  1  0  0  0  0
 12 17  1  0  0  0  0
 12 11  1  0  0  0  0
 13 18  1  6  0  0  0
 13  9  1  0  0  0  0
 13 12  1  0  0  0  0
 19  9  1  0  0  0  0
 20 19  1  0  0  0  0
 21 13  1  0  0  0  0
 22 21  1  0  0  0  0
 23 26  1  0  0  0  0
 23 25  1  0  0  0  0
 24 23  1  0  0  0  0
 26 31  1  0  0  0  0
 27 28  1  0  0  0  0
 27 26  1  0  0  0  0
 28 29  1  0  0  0  0
 29 30  1  0  0  0  0
 31 30  1  0  0  0  0
M  END
>  <minimizedAffinity>
-6.00475979

$$$$

 OpenBabel03242521433D

 31 33  0  0  1  0  0  0  0  0999 V2000
   38.2600   25.0810   42.1550 C   0  0  0  0  0  0  0  0  0  0  0  0
   37.9370   26.4000   41.8220 C   0  0  0  0  0  0  0  0  0  0  0  0
   38.8090   27.4170   42.2300 C   0  0  0  0  0  0  0  0  0  0  0  0
   39.9060   27.0720   42.9190 N   0  0  0  0  0  0  0  0  0  0  0  0
   40.1860   25.7770   43.2230 C   0  0  0  0  0  0  0  0  0  0  0  0
   39.3660   24.7940   42.8430 N   0  0  0  0  0  0  0  0  0  0  0  0
   37.0220   26.5340   41.2620 H   0  0  0  0  0  0  0  0  0  0  0  0
   41.0930   25.5240   43.7890 H   0  0  0  0  0  0  0  0  0  0  0  0
   37.0640   29.1920   42.2960 C   0  0  2  0  0  0  0  0  0  0  0  0
   38.4460   28.7790   41.8680 C   0  0  2  0  0  0  0  0  0  0  0  0
   38.3680   29.0150   40.4820 O   0  0  0  0  0  0  0  0  0  0  0  0
   37.8350   30.2820   40.3820 C   0  0  0  0  0  0  0  0  0  0  0  0
   37.0230   30.5700   41.6060 C   0  0  1  0  0  0  0  0  0  0  0  0
   36.2870   28.5650   41.8150 H   0  0  0  0  0  0  0  0  0  0  0  0
   39.2030   29.4840   42.2970 H   0  0  0  0  0  0  0  0  0  0  0  0
   38.6780   31.0110   40.3460 H   0  0  0  0  0  0  0  0  0  0  0  0
   37.2660   30.4430   39.4360 H   0  0  0  0  0  0  0  0  0  0  0  0
   37.4810   31.2750   42.3080 H   0  0  0  0  0  0  0  0  0  0  0  0
   36.9100   29.2570   43.6580 O   0  0  0  0  0  0  0  0  0  0  0  0
   36.4140   28.4440   43.9540 H   0  0  0  0  0  0  0  0  0  0  0  0
   35.7060   30.9010   41.3440 O   0  0  0  0  0  0  0  0  0  0  0  0
   35.0710   30.5140   41.9920 H   0  0  0  0  0  0  0  0  0  0  0  0
   37.3020   23.9870   41.7180 C   0  0  0  0  0  0  0  0  0  0  0  0
   37.5470   23.0700   42.2900 H   0  0  0  0  0  0  0  0  0  0  0  0
   36.2630   24.3150   41.8290 H   0  0  0  0  0  0  0  0  0  0  0  0
   37.5550   23.6860   40.2600 C   0  0  0  0  0  3  0  0  0  0  0  0
   37.7530   22.2110   40.0120 C   0  0  0  0  0  2  0  0  0  0  0  0
   37.0520   21.7860   38.7240 C   0  0  0  0  0  2  0  0  0  0  0  0
   35.5590   21.9730   38.8250 C   0  0  0  0  0  2  0  0  0  0  0  0
   35.2130   23.2370   39.5850 C   0  0  0  0  0  2  0  0  0  0  0  0
   36.3960   24.1790   39.4570 C   0  0  0  0  0  2  0  0  0  0  0  0
  1  6  1  0  0  0  0
  2  1  2  0  0  0  0
  2  3  1  0  0  0  0
  3  4  2  0  0  0  0
  4  5  1  0  0  0  0
  5  8  1  0  0  0  0
  6  5  2  0  0  0  0
  7  2  1  0  0  0  0
  9 14  1  6  0  0  0
  9 19  1  0  0  0  0
 10  3  1  0  0  0  0
 10  9  1  0  0  0  0
 10 15  1  1  0  0  0
 11 10  1  0  0  0  0
 12 11  1  0  0  0  0
 12 13  1  0  0  0  0
 13  9  1  0  0  0  0
 13 18  1  1  0  0  0
 16 12  1  0  0  0  0
 17 12  1  0  0  0  0
 19 20  1  0  0  0  0
 21 13  1  0  0  0  0
 21 22  1  0  0  0  0
 23 25  1  0  0  0  0
 23  1  1  0  0  0  0
 23 24  1  0  0  0  0
 26 23  1  0  0  0  0
 27 26  1  0  0  0  0
 28 29  1  0  0  0  0
 28 27  1  0  0  0  0
 29 30  1  0  0  0  0
 31 30  1  0  0  0  0
 31 26  1  0  0  0  0
M  END
>  <minimizedAffinity>
-5.57887316

$$$$

 OpenBabel03242521433D

 31 33  0  0  1  0  0  0  0  0999 V2000
   37.2270   27.0750   41.5030 C   0  0  0  0  0  0  0  0  0  0  0  0
   37.5460   28.3450   41.0120 C   0  0  0  0  0  0  0  0  0  0  0  0
   37.7740   29.3730   41.9360 C   0  0  0  0  0  0  0  0  0  0  0  0
   37.6720   29.0850   43.2410 N   0  0  0  0  0  0  0  0  0  0  0  0
   37.3590   27.8370   43.6800 C   0  0  0  0  0  0  0  0  0  0  0  0
   37.1390   26.8440   42.8140 N   0  0  0  0  0  0  0  0  0  0  0  0
   37.5960   28.4350   39.9360 H   0  0  0  0  0  0  0  0  0  0  0  0
   37.2830   27.6310   44.7560 H   0  0  0  0  0  0  0  0  0  0  0  0
   37.0680   31.2550   40.4670 C   0  0  2  0  0  0  0  0  0  0  0  0
   38.1050   30.6820   41.3940 C   0  0  2  0  0  0  0  0  0  0  0  0
   39.2370   30.7000   40.5560 O   0  0  0  0  0  0  0  0  0  0  0  0
   39.2440   31.9690   40.0200 C   0  0  0  0  0  0  0  0  0  0  0  0
   37.8470   32.5050   40.0120 C   0  0  1  0  0  0  0  0  0  0  0  0
   36.9270   30.6170   39.5720 H   0  0  0  0  0  0  0  0  0  0  0  0
   38.2910   31.3910   42.2410 H   0  0  0  0  0  0  0  0  0  0  0  0
   39.8620   32.6210   40.6810 H   0  0  0  0  0  0  0  0  0  0  0  0
   39.7340   32.0180   39.0190 H   0  0  0  0  0  0  0  0  0  0  0  0
   37.6450   33.2790   40.7610 H   0  0  0  0  0  0  0  0  0  0  0  0
   35.8800   31.5470   41.0890 O   0  0  0  0  0  0  0  0  0  0  0  0
   35.2260   30.8290   40.8630 H   0  0  0  0  0  0  0  0  0  0  0  0
   37.3950   32.8830   38.7600 O   0  0  0  0  0  0  0  0  0  0  0  0
   36.4500   32.6510   38.6010 H   0  0  0  0  0  0  0  0  0  0  0  0
   36.9710   25.9710   40.4930 C   0  0  0  0  0  0  0  0  0  0  0  0
   35.8750   25.8900   40.3450 H   0  0  0  0  0  0  0  0  0  0  0  0
   37.5320   26.1530   39.5700 H   0  0  0  0  0  0  0  0  0  0  0  0
   37.4390   24.6640   41.0870 C   0  0  0  0  0  3  0  0  0  0  0  0
   36.7330   23.4790   40.4750 C   0  0  0  0  0  2  0  0  0  0  0  0
   37.7130   22.3300   40.2510 C   0  0  0  0  0  2  0  0  0  0  0  0
   38.7850   22.7070   39.2600 C   0  0  0  0  0  2  0  0  0  0  0  0
   39.2160   24.1480   39.4390 C   0  0  0  0  0  2  0  0  0  0  0  0
   38.9120   24.5360   40.8730 C   0  0  0  0  0  2  0  0  0  0  0  0
  1  6  1  0  0  0  0
  2  1  2  0  0  0  0
  2  3  1  0  0  0  0
  3  4  2  0  0  0  0
  4  5  1  0  0  0  0
  5  8  1  0  0  0  0
  6  5  2  0  0  0  0
  7  2  1  0  0  0  0
  9 14  1  6  0  0  0
  9 19  1  0  0  0  0
  9 10  1  0  0  0  0
 10  3  1  0  0  0  0
 10 15  1  1  0  0  0
 11 10  1  0  0  0  0
 12 11  1  0  0  0  0
 12 16  1  0  0  0  0
 13 12  1  0  0  0  0
 13  9  1  0  0  0  0
 13 18  1  1  0  0  0
 17 12  1  0  0  0  0
 20 19  1  0  0  0  0
 21 13  1  0  0  0  0
 22 21  1  0  0  0  0
 23 26  1  0  0  0  0
 23  1  1  0  0  0  0
 24 23  1  0  0  0  0
 25 23  1  0  0  0  0
 27 26  1  0  0  0  0
 28 27  1  0  0  0  0
 29 30  1  0  0  0  0
 29 28  1  0  0  0  0
 30 31  1  0  0  0  0
 31 26  1  0  0  0  0
M  END
>  <minimizedAffinity>
-5.48114538

$$$$

 OpenBabel03242521433D

 31 33  0  0  1  0  0  0  0  0999 V2000
   36.3940   29.5260   39.3000 C   0  0  0  0  0  0  0  0  0  0  0  0
   37.3070   30.5480   39.5780 C   0  0  0  0  0  0  0  0  0  0  0  0
   37.8090   31.2950   38.5050 C   0  0  0  0  0  0  0  0  0  0  0  0
   37.3880   30.9900   37.2690 N   0  0  0  0  0  0  0  0  0  0  0  0
   36.4990   29.9880   37.0390 C   0  0  0  0  0  0  0  0  0  0  0  0
   36.0090   29.2650   38.0500 N   0  0  0  0  0  0  0  0  0  0  0  0
   37.5560   30.6860   40.6200 H   0  0  0  0  0  0  0  0  0  0  0  0
   36.1720   29.7610   36.0160 H   0  0  0  0  0  0  0  0  0  0  0  0
   40.0910   32.2210   38.1440 C   0  0  2  0  0  0  0  0  0  0  0  0
   38.7570   32.3510   38.8260 C   0  0  2  0  0  0  0  0  0  0  0  0
   39.1590   32.3870   40.1750 O   0  0  0  0  0  0  0  0  0  0  0  0
   40.1750   33.3170   40.2040 C   0  0  0  0  0  0  0  0  0  0  0  0
   40.8130   33.3860   38.8510 C   0  0  1  0  0  0  0  0  0  0  0  0
   40.6100   31.2890   38.4440 H   0  0  0  0  0  0  0  0  0  0  0  0
   38.2970   33.3410   38.5760 H   0  0  0  0  0  0  0  0  0  0  0  0
   39.7270   34.3130   40.4270 H   0  0  0  0  0  0  0  0  0  0  0  0
   40.9110   33.1350   41.0220 H   0  0  0  0  0  0  0  0  0  0  0  0
   40.5750   34.2860   38.2740 H   0  0  0  0  0  0  0  0  0  0  0  0
   40.0260   32.3650   36.7810 O   0  0  0  0  0  0  0  0  0  0  0  0
   40.0840   31.4580   36.3700 H   0  0  0  0  0  0  0  0  0  0  0  0
   42.1730   33.1330   38.8560 O   0  0  0  0  0  0  0  0  0  0  0  0
   42.4720   32.5970   38.0840 H   0  0  0  0  0  0  0  0  0  0  0  0
   35.8630   28.7160   40.4690 C   0  0  0  0  0  0  0  0  0  0  0  0
   35.3080   29.4040   41.1380 H   0  0  0  0  0  0  0  0  0  0  0  0
   35.2690   27.8670   40.1140 H   0  0  0  0  0  0  0  0  0  0  0  0
   37.0380   28.1820   41.2530 C   0  0  0  0  0  3  0  0  0  0  0  0
   36.6260   27.6580   42.6070 C   0  0  0  0  0  2  0  0  0  0  0  0
   37.3790   26.3710   42.9330 C   0  0  0  0  0  2  0  0  0  0  0  0
   37.0340   25.2710   41.9610 C   0  0  0  0  0  2  0  0  0  0  0  0
   36.8760   25.8100   40.5540 C   0  0  0  0  0  2  0  0  0  0  0  0
   37.6870   27.0900   40.4670 C   0  0  0  0  0  2  0  0  0  0  0  0
  1  2  1  0  0  0  0
  1 23  1  0  0  0  0
  2  7  1  0  0  0  0
  3 10  1  0  0  0  0
  3  2  2  0  0  0  0
  4  3  1  0  0  0  0
  5  4  2  0  0  0  0
  5  6  1  0  0  0  0
  6  1  2  0  0  0  0
  8  5  1  0  0  0  0
  9 14  1  1  0  0  0
  9 10  1  0  0  0  0
  9 13  1  0  0  0  0
 10 15  1  6  0  0  0
 10 11  1  0  0  0  0
 11 12  1  0  0  0  0
 12 16  1  0  0  0  0
 12 17  1  0  0  0  0
 13 18  1  6  0  0  0
 13 21  1  0  0  0  0
 13 12  1  0  0  0  0
 19  9  1  0  0  0  0
 20 19  1  0  0  0  0
 22 21  1  0  0  0  0
 23 24  1  0  0  0  0
 23 26  1  0  0  0  0
 25 23  1  0  0  0  0
 26 27  1  0  0  0  0
 27 28  1  0  0  0  0
 29 28  1  0  0  0  0
 30 29  1  0  0  0  0
 31 30  1  0  0  0  0
 31 26  1  0  0  0  0
M  END
>  <minimizedAffinity>
-5.37843084

$$$$

 OpenBabel03242521433D

 31 33  0  0  1  0  0  0  0  0999 V2000
   37.8920   28.7480   41.4550 C   0  0  0  0  0  0  0  0  0  0  0  0
   38.9430   29.4950   40.9150 C   0  0  0  0  0  0  0  0  0  0  0  0
   38.6870   30.8190   40.5370 C   0  0  0  0  0  0  0  0  0  0  0  0
   37.4470   31.2990   40.7120 N   0  0  0  0  0  0  0  0  0  0  0  0
   36.4510   30.5400   41.2410 C   0  0  0  0  0  0  0  0  0  0  0  0
   36.6760   29.2760   41.6070 N   0  0  0  0  0  0  0  0  0  0  0  0
   39.8910   28.9830   40.8320 H   0  0  0  0  0  0  0  0  0  0  0  0
   35.4450   30.9600   41.3730 H   0  0  0  0  0  0  0  0  0  0  0  0
   39.4690   32.3460   38.7330 C   0  0  2  0  0  0  0  0  0  0  0  0
   39.8000   31.5710   39.9790 C   0  0  2  0  0  0  0  0  0  0  0  0
   40.8670   30.7780   39.5120 O   0  0  0  0  0  0  0  0  0  0  0  0
   41.6990   31.6690   38.8690 C   0  0  0  0  0  0  0  0  0  0  0  0
   40.8910   32.8370   38.3940 C   0  0  1  0  0  0  0  0  0  0  0  0
   39.1530   31.6750   37.9100 H   0  0  0  0  0  0  0  0  0  0  0  0
   40.2020   32.2630   40.7620 H   0  0  0  0  0  0  0  0  0  0  0  0
   42.4450   32.0420   39.6080 H   0  0  0  0  0  0  0  0  0  0  0  0
   42.2990   31.1970   38.0560 H   0  0  0  0  0  0  0  0  0  0  0  0
   41.0370   33.7610   38.9640 H   0  0  0  0  0  0  0  0  0  0  0  0
   38.5750   33.3660   38.9450 O   0  0  0  0  0  0  0  0  0  0  0  0
   37.6820   33.0690   38.6160 H   0  0  0  0  0  0  0  0  0  0  0  0
   40.9740   33.0640   37.0330 O   0  0  0  0  0  0  0  0  0  0  0  0
   40.1150   33.3310   36.6290 H   0  0  0  0  0  0  0  0  0  0  0  0
   38.1780   27.3110   41.8510 C   0  0  0  0  0  0  0  0  0  0  0  0
   39.0340   26.9520   41.2440 H   0  0  0  0  0  0  0  0  0  0  0  0
   38.3380   27.2320   42.9320 H   0  0  0  0  0  0  0  0  0  0  0  0
   36.9830   26.4660   41.4810 C   0  0  0  0  0  3  0  0  0  0  0  0
   37.0600   25.9680   40.0590 C   0  0  0  0  0  2  0  0  0  0  0  0
   36.5800   24.5210   39.9730 C   0  0  0  0  0  2  0  0  0  0  0  0
   37.4720   23.5990   40.7640 C   0  0  0  0  0  2  0  0  0  0  0  0
   37.9320   24.2490   42.0520 C   0  0  0  0  0  2  0  0  0  0  0  0
   36.9040   25.3050   42.4170 C   0  0  0  0  0  2  0  0  0  0  0  0
  1  6  1  0  0  0  0
  1 23  1  0  0  0  0
  2  1  2  0  0  0  0
  3  4  2  0  0  0  0
  3  2  1  0  0  0  0
  4  5  1  0  0  0  0
  5  8  1  0  0  0  0
  5  6  2  0  0  0  0
  7  2  1  0  0  0  0
  9 14  1  6  0  0  0
  9 19  1  0  0  0  0
  9 10  1  0  0  0  0
 10  3  1  0  0  0  0
 10 15  1  1  0  0  0
 11 10  1  0  0  0  0
 12 11  1  0  0  0  0
 12 16  1  0  0  0  0
 13  9  1  0  0  0  0
 13 12  1  0  0  0  0
 13 18  1  1  0  0  0
 17 12  1  0  0  0  0
 20 19  1  0  0  0  0
 21 13  1  0  0  0  0
 22 21  1  0  0  0  0
 23 25  1  0  0  0  0
 24 23  1  0  0  0  0
 26 23  1  0  0  0  0
 26 31  1  0  0  0  0
 27 26  1  0  0  0  0
 28 27  1  0  0  0  0
 28 29  1  0  0  0  0
 29 30  1  0  0  0  0
 30 31  1  0  0  0  0
M  END
>  <minimizedAffinity>
-5.33096838

$$$$

 OpenBabel03242521433D

 31 33  0  0  1  0  0  0  0  0999 V2000
   37.0040   28.6500   41.8890 C   0  0  0  0  0  0  0  0  0  0  0  0
   36.7890   27.3600   41.3930 C   0  0  0  0  0  0  0  0  0  0  0  0
   37.3220   26.2800   42.1080 C   0  0  0  0  0  0  0  0  0  0  0  0
   38.0090   26.5390   43.2290 N   0  0  0  0  0  0  0  0  0  0  0  0
   38.1970   27.8080   43.6800 C   0  0  0  0  0  0  0  0  0  0  0  0
   37.6970   28.8510   43.0120 N   0  0  0  0  0  0  0  0  0  0  0  0
   36.2150   27.2970   40.4800 H   0  0  0  0  0  0  0  0  0  0  0  0
   38.7650   27.9910   44.6020 H   0  0  0  0  0  0  0  0  0  0  0  0
   38.3180   24.1120   41.3990 C   0  0  2  0  0  0  0  0  0  0  0  0
   37.0810   24.9510   41.5660 C   0  0  2  0  0  0  0  0  0  0  0  0
   36.5800   24.9370   40.2500 O   0  0  0  0  0  0  0  0  0  0  0  0
   36.6120   23.6080   39.8870 C   0  0  0  0  0  0  0  0  0  0  0  0
   37.6720   22.9100   40.6800 C   0  0  1  0  0  0  0  0  0  0  0  0
   39.0270   24.5730   40.6830 H   0  0  0  0  0  0  0  0  0  0  0  0
   36.3450   24.4180   42.2210 H   0  0  0  0  0  0  0  0  0  0  0  0
   35.6280   23.1540   40.1480 H   0  0  0  0  0  0  0  0  0  0  0  0
   36.7230   23.4580   38.7870 H   0  0  0  0  0  0  0  0  0  0  0  0
   37.2970   22.2490   41.4700 H   0  0  0  0  0  0  0  0  0  0  0  0
   38.9190   23.7800   42.5870 O   0  0  0  0  0  0  0  0  0  0  0  0
   39.7180   24.3660   42.7040 H   0  0  0  0  0  0  0  0  0  0  0  0
   38.6310   22.2810   39.9080 O   0  0  0  0  0  0  0  0  0  0  0  0
   39.5430   22.3650   40.2740 H   0  0  0  0  0  0  0  0  0  0  0  0
   36.4320   29.8140   41.1020 C   0  0  0  0  0  0  0  0  0  0  0  0
   35.4730   29.4850   40.6530 H   0  0  0  0  0  0  0  0  0  0  0  0
   36.3430   30.7040   41.7350 H   0  0  0  0  0  0  0  0  0  0  0  0
   37.3720   30.1300   39.9640 C   0  0  0  0  0  3  0  0  0  0  0  0
   36.6320   30.5020   38.7030 C   0  0  0  0  0  2  0  0  0  0  0  0
   37.3300   31.6600   37.9950 C   0  0  0  0  0  2  0  0  0  0  0  0
   37.3200   32.9070   38.8420 C   0  0  0  0  0  2  0  0  0  0  0  0
   37.5260   32.5790   40.3060 C   0  0  0  0  0  2  0  0  0  0  0  0
   38.2640   31.2550   40.3730 C   0  0  0  0  0  2  0  0  0  0  0  0
  1  6  1  0  0  0  0
  2  1  2  0  0  0  0
  2  3  1  0  0  0  0
  3  4  2  0  0  0  0
  4  5  1  0  0  0  0
  5  8  1  0  0  0  0
  6  5  2  0  0  0  0
  7  2  1  0  0  0  0
  9 14  1  6  0  0  0
  9 10  1  0  0  0  0
  9 19  1  0  0  0  0
 10  3  1  0  0  0  0
 10 15  1  1  0  0  0
 11 10  1  0  0  0  0
 12 16  1  0  0  0  0
 12 11  1  0  0  0  0
 12 13  1  0  0  0  0
 13  9  1  0  0  0  0
 13 18  1  1  0  0  0
 17 12  1  0  0  0  0
 19 20  1  0  0  0  0
 21 22  1  0  0  0  0
 21 13  1  0  0  0  0
 23 25  1  0  0  0  0
 23  1  1  0  0  0  0
 24 23  1  0  0  0  0
 26 31  1  0  0  0  0
 26 23  1  0  0  0  0
 27 26  1  0  0  0  0
 28 27  1  0  0  0  0
 28 29  1  0  0  0  0
 29 30  1  0  0  0  0
 30 31  1  0  0  0  0
M  END
>  <minimizedAffinity>
-5.31771183

$$$$

 OpenBabel03242521433D

 31 33  0  0  1  0  0  0  0  0999 V2000
   38.2220   31.0420   39.9360 C   0  0  0  0  0  0  0  0  0  0  0  0
   39.6110   31.1650   39.8330 C   0  0  0  0  0  0  0  0  0  0  0  0
   40.1520   31.5310   38.5950 C   0  0  0  0  0  0  0  0  0  0  0  0
   39.3100   31.7430   37.5730 N   0  0  0  0  0  0  0  0  0  0  0  0
   37.9640   31.6130   37.7130 C   0  0  0  0  0  0  0  0  0  0  0  0
   37.4290   31.2650   38.8860 N   0  0  0  0  0  0  0  0  0  0  0  0
   40.1690   30.9660   40.7370 H   0  0  0  0  0  0  0  0  0  0  0  0
   37.2980   31.7930   36.8580 H   0  0  0  0  0  0  0  0  0  0  0  0
   42.1160   32.1840   37.2110 C   0  0  2  0  0  0  0  0  0  0  0  0
   41.6000   31.6510   38.5200 C   0  0  2  0  0  0  0  0  0  0  0  0
   42.2930   30.4270   38.5910 O   0  0  0  0  0  0  0  0  0  0  0  0
   43.6010   30.7590   38.3120 C   0  0  0  0  0  0  0  0  0  0  0  0
   43.6230   32.0030   37.4790 C   0  0  1  0  0  0  0  0  0  0  0  0
   41.8540   31.5130   36.3690 H   0  0  0  0  0  0  0  0  0  0  0  0
   41.9560   32.2980   39.3610 H   0  0  0  0  0  0  0  0  0  0  0  0
   44.1160   30.9790   39.2760 H   0  0  0  0  0  0  0  0  0  0  0  0
   44.1770   29.9200   37.8550 H   0  0  0  0  0  0  0  0  0  0  0  0
   43.9490   32.9060   38.0070 H   0  0  0  0  0  0  0  0  0  0  0  0
   41.7550   33.4860   36.9710 O   0  0  0  0  0  0  0  0  0  0  0  0
   41.0070   33.4840   36.3110 H   0  0  0  0  0  0  0  0  0  0  0  0
   44.2790   31.8600   36.2700 O   0  0  0  0  0  0  0  0  0  0  0  0
   43.8350   32.3340   35.5270 H   0  0  0  0  0  0  0  0  0  0  0  0
   37.6460   30.6340   41.2800 C   0  0  0  0  0  0  0  0  0  0  0  0
   37.9020   31.4240   42.0150 H   0  0  0  0  0  0  0  0  0  0  0  0
   36.5720   30.4370   41.1980 H   0  0  0  0  0  0  0  0  0  0  0  0
   38.3320   29.3660   41.7290 C   0  0  0  0  0  3  0  0  0  0  0  0
   38.3260   29.2210   43.2310 C   0  0  0  0  0  2  0  0  0  0  0  0
   38.0530   27.7710   43.6260 C   0  0  0  0  0  2  0  0  0  0  0  0
   36.6820   27.3300   43.1810 C   0  0  0  0  0  2  0  0  0  0  0  0
   36.3340   27.9030   41.8230 C   0  0  0  0  0  2  0  0  0  0  0  0
   37.6400   28.1980   41.1080 C   0  0  0  0  0  2  0  0  0  0  0  0
  1 23  1  0  0  0  0
  2  1  1  0  0  0  0
  2  7  1  0  0  0  0
  3  2  2  0  0  0  0
  4  5  2  0  0  0  0
  4  3  1  0  0  0  0
  5  6  1  0  0  0  0
  6  1  2  0  0  0  0
  8  5  1  0  0  0  0
  9 14  1  6  0  0  0
  9 13  1  0  0  0  0
  9 10  1  0  0  0  0
 10 11  1  0  0  0  0
 10  3  1  0  0  0  0
 10 15  1  1  0  0  0
 12 11  1  0  0  0  0
 12 16  1  0  0  0  0
 13 18  1  1  0  0  0
 13 12  1  0  0  0  0
 17 12  1  0  0  0  0
 19  9  1  0  0  0  0
 20 19  1  0  0  0  0
 21 13  1  0  0  0  0
 22 21  1  0  0  0  0
 23 26  1  0  0  0  0
 23 24  1  0  0  0  0
 25 23  1  0  0  0  0
 26 27  1  0  0  0  0
 27 28  1  0  0  0  0
 29 28  1  0  0  0  0
 30 29  1  0  0  0  0
 31 26  1  0  0  0  0
 31 30  1  0  0  0  0
M  END
>  <minimizedAffinity>
-5.26531839

$$$$

 OpenBabel03242521433D

 31 33  0  0  1  0  0  0  0  0999 V2000
   40.3590   28.0660   39.3540 C   0  0  0  0  0  0  0  0  0  0  0  0
   40.7540   29.4040   39.4400 C   0  0  0  0  0  0  0  0  0  0  0  0
   41.3870   29.9790   38.3310 C   0  0  0  0  0  0  0  0  0  0  0  0
   41.5810   29.2160   37.2460 N   0  0  0  0  0  0  0  0  0  0  0  0
   41.1820   27.9180   37.2010 C   0  0  0  0  0  0  0  0  0  0  0  0
   40.5770   27.3520   38.2480 N   0  0  0  0  0  0  0  0  0  0  0  0
   40.5330   29.9010   40.3740 H   0  0  0  0  0  0  0  0  0  0  0  0
   41.3540   27.3170   36.2980 H   0  0  0  0  0  0  0  0  0  0  0  0
   41.6500   32.1740   37.1860 C   0  0  2  0  0  0  0  0  0  0  0  0
   41.7850   31.3740   38.4520 C   0  0  2  0  0  0  0  0  0  0  0  0
   43.1510   31.5690   38.7360 O   0  0  0  0  0  0  0  0  0  0  0  0
   43.3330   32.9300   38.6160 C   0  0  0  0  0  0  0  0  0  0  0  0
   42.3020   33.4810   37.6810 C   0  0  1  0  0  0  0  0  0  0  0  0
   42.3000   31.7730   36.3820 H   0  0  0  0  0  0  0  0  0  0  0  0
   41.1900   31.8530   39.2710 H   0  0  0  0  0  0  0  0  0  0  0  0
   43.1730   33.3910   39.6190 H   0  0  0  0  0  0  0  0  0  0  0  0
   44.3740   33.2080   38.3270 H   0  0  0  0  0  0  0  0  0  0  0  0
   41.5020   34.0560   38.1620 H   0  0  0  0  0  0  0  0  0  0  0  0
   40.3500   32.3320   36.7750 O   0  0  0  0  0  0  0  0  0  0  0  0
   40.1860   31.7030   36.0190 H   0  0  0  0  0  0  0  0  0  0  0  0
   42.8290   34.1580   36.5960 O   0  0  0  0  0  0  0  0  0  0  0  0
   42.3390   33.9900   35.7570 H   0  0  0  0  0  0  0  0  0  0  0  0
   39.6830   27.4490   40.5650 C   0  0  0  0  0  0  0  0  0  0  0  0
   38.7660   26.9320   40.2180 H   0  0  0  0  0  0  0  0  0  0  0  0
   40.3790   26.8000   41.1080 H   0  0  0  0  0  0  0  0  0  0  0  0
   39.2470   28.5610   41.4880 C   0  0  0  0  0  3  0  0  0  0  0  0
   37.7630   28.8220   41.3990 C   0  0  0  0  0  2  0  0  0  0  0  0
   37.1840   29.0870   42.7860 C   0  0  0  0  0  2  0  0  0  0  0  0
   37.3200   27.8800   43.6780 C   0  0  0  0  0  2  0  0  0  0  0  0
   38.6390   27.1720   43.4470 C   0  0  0  0  0  2  0  0  0  0  0  0
   39.6100   28.1960   42.8890 C   0  0  0  0  0  2  0  0  0  0  0  0
  1  2  1  0  0  0  0
  1 23  1  0  0  0  0
  2  7  1  0  0  0  0
  3 10  1  0  0  0  0
  3  2  2  0  0  0  0
  4  3  1  0  0  0  0
  5  4  2  0  0  0  0
  5  6  1  0  0  0  0
  6  1  2  0  0  0  0
  8  5  1  0  0  0  0
  9 14  1  6  0  0  0
  9 13  1  0  0  0  0
  9 10  1  0  0  0  0
 10 11  1  0  0  0  0
 10 15  1  1  0  0  0
 12 11  1  0  0  0  0
 12 16  1  0  0  0  0
 13 18  1  1  0  0  0
 13 12  1  0  0  0  0
 17 12  1  0  0  0  0
 19  9  1  0  0  0  0
 20 19  1  0  0  0  0
 21 13  1  0  0  0  0
 22 21  1  0  0  0  0
 23 25  1  0  0  0  0
 23 26  1  0  0  0  0
 24 23  1  0  0  0  0
 26 31  1  0  0  0  0
 27 26  1  0  0  0  0
 27 28  1  0  0  0  0
 28 29  1  0  0  0  0
 30 29  1  0  0  0  0
 31 30  1  0  0  0  0
M  END
>  <minimizedAffinity>
-5.1874342

$$$$
