
 OpenBabel03252505493D

 19 20  0  0  0  0  0  0  0  0999 V2000
   44.7170   35.5630   44.7780 C   0  0  0  0  0  0  0  0  0  0  0  0
   45.6230   35.1050   43.8230 C   0  0  0  0  0  0  0  0  0  0  0  0
   46.3650   33.9790   44.1440 C   0  0  0  0  0  0  0  0  0  0  0  0
   46.1900   33.3790   45.3420 N   0  0  0  0  0  0  0  0  0  0  0  0
   45.3040   33.8570   46.2330 C   0  0  0  0  0  0  0  0  0  0  0  0
   44.5560   34.9470   45.9730 N   0  0  0  0  0  0  0  0  0  0  0  0
   44.1060   36.4310   44.5980 H   0  0  0  0  0  0  0  0  0  0  0  0
   47.0580   33.6440   43.3910 H   0  0  0  0  0  0  0  0  0  0  0  0
   45.7100   35.8730   42.5370 C   0  0  0  0  0  0  0  0  0  0  0  0
   45.2880   37.1500   42.8300 F   0  0  0  0  0  0  0  0  0  0  0  0
   44.8590   35.2780   41.6420 F   0  0  0  0  0  0  0  0  0  0  0  0
   47.0190   35.8080   42.1010 F   0  0  0  0  0  0  0  0  0  0  0  0
   45.1170   33.2410   47.4750 O   0  0  0  0  0  0  0  0  0  0  0  0
   45.8530   32.0960   47.8610 C   0  0  0  0  0  3  0  0  0  0  0  0
   45.7860   31.0390   46.7980 C   0  0  0  0  0  2  0  0  0  0  0  0
   44.8400   29.9240   47.1030 C   0  0  0  0  0  2  0  0  0  0  0  0
   45.0430   29.3080   48.4580 C   0  0  0  0  0  2  0  0  0  0  0  0
   45.7040   30.2180   49.4570 C   0  0  0  0  0  2  0  0  0  0  0  0
   45.2710   31.6260   49.1780 C   0  0  0  0  0  2  0  0  0  0  0  0
  1  6  1  0  0  0  0
  2  3  1  0  0  0  0
  2  1  2  0  0  0  0
  3  4  2  0  0  0  0
  4  5  1  0  0  0  0
  5 13  1  0  0  0  0
  6  5  2  0  0  0  0
  7  1  1  0  0  0  0
  8  3  1  0  0  0  0
  9 10  1  0  0  0  0
  9  2  1  0  0  0  0
 11  9  1  0  0  0  0
 12  9  1  0  0  0  0
 13 14  1  0  0  0  0
 14 19  1  0  0  0  0
 15 16  1  0  0  0  0
 15 14  1  0  0  0  0
 16 17  1  0  0  0  0
 17 18  1  0  0  0  0
 19 18  1  0  0  0  0
M  END
>  <minimizedAffinity>
-4.89301443

>  <minimizedRMSD>
1.39098072

$$$$
