
 OpenBabel03252508503D

 25 27  0  0  0  0  0  0  0  0999 V2000
   45.9010   34.1720   41.0340 C   0  0  0  0  0  0  0  0  0  0  0  0
   46.5070   34.7890   42.1230 C   0  0  0  0  0  0  0  0  0  0  0  0
   47.8530   35.1470   42.0010 C   0  0  0  0  0  0  0  0  0  0  0  0
   48.4900   34.8730   40.8310 N   0  0  0  0  0  0  0  0  0  0  0  0
   47.8650   34.2720   39.8000 C   0  0  0  0  0  0  0  0  0  0  0  0
   46.5620   33.9200   39.9060 N   0  0  0  0  0  0  0  0  0  0  0  0
   48.3550   35.6350   42.8420 H   0  0  0  0  0  0  0  0  0  0  0  0
   48.3860   34.0590   38.8770 H   0  0  0  0  0  0  0  0  0  0  0  0
   45.7370   35.0450   43.3420 C   0  0  0  0  0  0  0  0  0  0  0  0
   45.0820   36.2280   43.5880 C   0  0  0  0  0  0  0  0  0  0  0  0
   44.5030   36.0380   44.8200 C   0  0  0  0  0  0  0  0  0  0  0  0
   44.7930   34.7990   45.3030 N   0  0  0  0  0  0  0  0  0  0  0  0
   45.5400   34.2270   44.3870 N   0  0  0  0  0  0  0  0  0  0  0  0
   45.0520   37.0730   42.9460 H   0  0  0  0  0  0  0  0  0  0  0  0
   43.8940   36.7500   45.3670 H   0  0  0  0  0  0  0  0  0  0  0  0
   44.4800   34.4050   46.2110 H   0  0  0  0  0  0  0  0  0  0  0  0
   44.5780   33.8180   41.1520 O   0  0  0  0  0  0  0  0  0  0  0  0
   43.5000   34.5170   40.6880 C   0  0  0  0  0  0  0  0  0  0  0  0
   43.3430   35.7810   40.6610 O   0  0  0  0  0  0  0  0  0  0  0  0
   42.1730   34.1360   40.0720 C   0  0  0  0  0  3  0  0  0  0  0  0
   41.5520   32.9970   40.8390 C   0  0  0  0  0  2  0  0  0  0  0  0
   40.1300   32.8790   40.3220 C   0  0  0  0  0  2  0  0  0  0  0  0
   40.1860   32.3610   38.9090 C   0  0  0  0  0  2  0  0  0  0  0  0
   41.4830   32.5830   38.2100 C   0  0  0  0  0  2  0  0  0  0  0  0
   42.2460   33.7990   38.6320 C   0  0  0  0  0  2  0  0  0  0  0  0
  1 17  1  0  0  0  0
  1  2  1  0  0  0  0
  2  9  1  0  0  0  0
  3  2  2  0  0  0  0
  3  7  1  0  0  0  0
  4  3  1  0  0  0  0
  5  6  1  0  0  0  0
  5  4  2  0  0  0  0
  6  1  2  0  0  0  0
  8  5  1  0  0  0  0
  9 10  1  0  0  0  0
  9 13  2  0  0  0  0
 10 11  2  0  0  0  0
 11 12  1  0  0  0  0
 11 15  1  0  0  0  0
 12 16  1  0  0  0  0
 13 12  1  0  0  0  0
 14 10  1  0  0  0  0
 18 17  1  0  0  0  0
 19 18  2  0  0  0  0
 20 18  1  0  0  0  0
 20 21  1  0  0  0  0
 22 21  1  0  0  0  0
 23 22  1  0  0  0  0
 24 25  1  0  0  0  0
 24 23  1  0  0  0  0
 25 20  1  0  0  0  0
M  END
>  <minimizedAffinity>
-5.26384687

>  <minimizedRMSD>
0.900006473

$$$$
