
 OpenBabel03242515003D

 34 36  0  0  0  0  0  0  0  0999 V2000
   42.3640   34.7480   41.5880 C   0  0  0  0  0  0  0  0  0  0  0  0
   42.4370   34.9090   42.6880 H   0  0  0  0  0  0  0  0  0  0  0  0
   41.8310   33.7600   41.4640 H   0  0  0  0  0  0  0  0  0  0  0  0
   41.5290   35.7900   40.9170 C   0  0  0  0  0  0  0  0  0  0  0  0
   40.8960   36.2580   41.7090 H   0  0  0  0  0  0  0  0  0  0  0  0
   42.1120   36.6020   40.4550 H   0  0  0  0  0  0  0  0  0  0  0  0
   42.2110   36.0330   37.9610 Cl  0  0  0  0  0  0  0  0  0  0  0  0
   40.8060   35.2250   38.5690 C   0  0  0  0  0  0  0  0  0  0  0  0
   40.5810   35.1680   39.9620 C   0  0  0  0  0  0  0  0  0  0  0  0
   39.4490   34.5110   40.3560 C   0  0  0  0  0  0  0  0  0  0  0  0
   38.5070   33.9010   39.5440 C   0  0  0  0  0  0  0  0  0  0  0  0
   38.7450   33.9680   38.1810 C   0  0  0  0  0  0  0  0  0  0  0  0
   37.6110   33.2250   37.0570 Cl  0  0  0  0  0  0  0  0  0  0  0  0
   39.8720   34.6180   37.7190 C   0  0  0  0  0  0  0  0  0  0  0  0
   39.2490   34.4520   41.4310 H   0  0  0  0  0  0  0  0  0  0  0  0
   37.6420   33.4060   39.9560 H   0  0  0  0  0  0  0  0  0  0  0  0
   40.0510   34.6650   36.6460 H   0  0  0  0  0  0  0  0  0  0  0  0
   44.0070   34.5730   40.8700 S   0  0  0  0  0  0  0  0  0  0  0  0
   45.2790   34.3160   42.1140 C   0  0  0  0  0  0  0  0  0  0  0  0
   46.6050   34.4550   41.6900 C   0  0  0  0  0  0  0  0  0  0  0  0
   47.6260   34.2640   42.6210 C   0  0  0  0  0  0  0  0  0  0  0  0
   47.2720   33.9520   43.8950 N   0  0  0  0  0  0  0  0  0  0  0  0
   45.9930   33.8220   44.2870 C   0  0  0  0  0  0  0  0  0  0  0  0
   45.0210   34.0060   43.3870 N   0  0  0  0  0  0  0  0  0  0  0  0
   46.8170   34.7050   40.6600 H   0  0  0  0  0  0  0  0  0  0  0  0
   48.6530   34.3680   42.3130 H   0  0  0  0  0  0  0  0  0  0  0  0
   45.7210   33.4870   45.6700 C   0  0  0  0  0  0  0  0  0  0  0  0
   44.9240   34.2330   46.2940 O   0  0  0  0  0  0  0  0  0  0  0  0
   46.3460   32.3040   46.3610 C   0  0  0  0  0  3  0  0  0  0  0  0
   47.1560   32.8310   47.5270 C   0  0  0  0  0  2  0  0  0  0  0  0
   47.6430   31.7370   48.4190 C   0  0  0  0  0  2  0  0  0  0  0  0
   46.4950   30.9650   48.9820 C   0  0  0  0  0  2  0  0  0  0  0  0
   45.2050   31.4310   48.3400 C   0  0  0  0  0  2  0  0  0  0  0  0
   45.3320   31.3060   46.8180 C   0  0  0  0  0  2  0  0  0  0  0  0
  1  2  1  0  0  0  0
  3  1  1  0  0  0  0
  4  1  1  0  0  0  0
  4  5  1  0  0  0  0
  6  4  1  0  0  0  0
  7  8  1  0  0  0  0
  8  9  1  0  0  0  0
  9 10  2  0  0  0  0
  9  4  1  0  0  0  0
 10 15  1  0  0  0  0
 11 16  1  0  0  0  0
 11 10  1  0  0  0  0
 12 11  2  0  0  0  0
 13 12  1  0  0  0  0
 14 12  1  0  0  0  0
 14  8  2  0  0  0  0
 17 14  1  0  0  0  0
 18  1  1  0  0  0  0
 18 19  1  0  0  0  0
 19 24  1  0  0  0  0
 20 19  2  0  0  0  0
 20 21  1  0  0  0  0
 21 22  2  0  0  0  0
 22 23  1  0  0  0  0
 23 27  1  0  0  0  0
 24 23  2  0  0  0  0
 25 20  1  0  0  0  0
 26 21  1  0  0  0  0
 27 28  2  0  0  0  0
 27 29  1  0  0  0  0
 29 34  1  0  0  0  0
 29 30  1  0  0  0  0
 30 31  1  0  0  0  0
 31 32  1  0  0  0  0
 33 32  1  0  0  0  0
 34 33  1  0  0  0  0
M  END
>  <minimizedAffinity>
-6.68474674

>  <minimizedRMSD>
0.802302003

$$$$
