
 OpenBabel03242517053D

 30 32  0  0  0  0  0  0  0  0999 V2000
   37.4580   31.6390   39.9060 C   0  0  0  0  0  0  0  0  0  0  0  0
   37.2050   32.9520   39.5250 C   0  0  0  0  0  0  0  0  0  0  0  0
   38.0770   33.9390   39.9430 C   0  0  0  0  0  0  0  0  0  0  0  0
   39.1590   33.6160   40.7120 C   0  0  0  0  0  0  0  0  0  0  0  0
   39.4400   32.3240   41.1070 C   0  0  0  0  0  0  0  0  0  0  0  0
   38.5400   31.3370   40.6730 C   0  0  0  0  0  0  0  0  0  0  0  0
   36.3490   33.2050   38.9160 H   0  0  0  0  0  0  0  0  0  0  0  0
   37.8700   34.9470   39.6410 H   0  0  0  0  0  0  0  0  0  0  0  0
   39.8080   34.4270   41.0090 H   0  0  0  0  0  0  0  0  0  0  0  0
   40.2760   32.0530   41.7060 H   0  0  0  0  0  0  0  0  0  0  0  0
   35.4580   29.2540   37.7720 C   0  0  0  0  0  0  0  0  0  0  0  0
   36.4130   30.2230   38.1340 C   0  0  0  0  0  0  0  0  0  0  0  0
   36.5020   30.6410   39.4350 C   0  0  0  0  0  0  0  0  0  0  0  0
   35.6450   30.0830   40.3150 N   0  0  0  0  0  0  0  0  0  0  0  0
   34.7270   29.1550   39.9790 C   0  0  0  0  0  0  0  0  0  0  0  0
   34.6300   28.7330   38.6950 N   0  0  0  0  0  0  0  0  0  0  0  0
   35.5030   29.0220   36.7130 H   0  0  0  0  0  0  0  0  0  0  0  0
   37.1080   30.6730   37.4160 H   0  0  0  0  0  0  0  0  0  0  0  0
   34.0450   28.7150   40.6970 H   0  0  0  0  0  0  0  0  0  0  0  0
   38.6270   29.2230   42.1920 C   0  0  0  0  0  0  0  0  0  0  0  0
   38.4260   29.6590   43.3140 O   0  0  0  0  0  0  0  0  0  0  0  0
   38.6930   29.9730   41.0050 N   0  0  0  0  0  0  0  0  0  0  0  0
   38.8980   29.5170   40.0860 H   0  0  0  0  0  0  0  0  0  0  0  0
   38.8070   27.8410   42.0920 O   0  0  0  0  0  0  0  0  0  0  0  0
   38.3760   27.0230   43.1510 C   0  0  0  0  0  3  0  0  0  0  0  0
   37.0750   26.3920   42.7200 C   0  0  0  0  0  2  0  0  0  0  0  0
   37.2140   25.3310   41.6820 C   0  0  0  0  0  2  0  0  0  0  0  0
   38.3960   24.4330   41.8280 C   0  0  0  0  0  2  0  0  0  0  0  0
   39.6340   25.2870   42.0230 C   0  0  0  0  0  2  0  0  0  0  0  0
   39.4470   25.9550   43.3840 C   0  0  0  0  0  2  0  0  0  0  0  0
  1  6  1  0  0  0  0
  2  1  2  0  0  0  0
  2  3  1  0  0  0  0
  3  4  2  0  0  0  0
  4  9  1  0  0  0  0
  4  5  1  0  0  0  0
  5 10  1  0  0  0  0
  6 22  1  0  0  0  0
  6  5  2  0  0  0  0
  7  2  1  0  0  0  0
  8  3  1  0  0  0  0
 11 12  2  0  0  0  0
 11 16  1  0  0  0  0
 12 13  1  0  0  0  0
 13  1  1  0  0  0  0
 13 14  2  0  0  0  0
 15 14  1  0  0  0  0
 15 19  1  0  0  0  0
 16 15  2  0  0  0  0
 17 11  1  0  0  0  0
 18 12  1  0  0  0  0
 20 21  2  0  0  0  0
 22 20  1  0  0  0  0
 23 22  1  0  0  0  0
 24 20  1  0  0  0  0
 24 25  1  0  0  0  0
 25 30  1  0  0  0  0
 26 25  1  0  0  0  0
 27 28  1  0  0  0  0
 27 26  1  0  0  0  0
 28 29  1  0  0  0  0
 29 30  1  0  0  0  0
M  END
>  <minimizedAffinity>
-5.85880566

$$$$

 OpenBabel03242517053D

 30 32  0  0  0  0  0  0  0  0999 V2000
   37.4780   31.6470   39.9140 C   0  0  0  0  0  0  0  0  0  0  0  0
   37.1860   32.9620   39.5670 C   0  0  0  0  0  0  0  0  0  0  0  0
   38.0460   33.9600   39.9850 C   0  0  0  0  0  0  0  0  0  0  0  0
   39.1530   33.6470   40.7210 C   0  0  0  0  0  0  0  0  0  0  0  0
   39.4720   32.3530   41.0830 C   0  0  0  0  0  0  0  0  0  0  0  0
   38.5850   31.3540   40.6490 C   0  0  0  0  0  0  0  0  0  0  0  0
   36.3100   33.2070   38.9840 H   0  0  0  0  0  0  0  0  0  0  0  0
   37.8090   34.9680   39.7090 H   0  0  0  0  0  0  0  0  0  0  0  0
   39.7900   34.4660   41.0200 H   0  0  0  0  0  0  0  0  0  0  0  0
   40.3280   32.0900   41.6560 H   0  0  0  0  0  0  0  0  0  0  0  0
   35.5370   29.2020   37.7940 C   0  0  0  0  0  0  0  0  0  0  0  0
   36.4840   30.1790   38.1560 C   0  0  0  0  0  0  0  0  0  0  0  0
   36.5340   30.6370   39.4440 C   0  0  0  0  0  0  0  0  0  0  0  0
   35.6480   30.1090   40.3140 N   0  0  0  0  0  0  0  0  0  0  0  0
   34.7380   29.1730   39.9800 C   0  0  0  0  0  0  0  0  0  0  0  0
   34.6790   28.7110   38.7060 N   0  0  0  0  0  0  0  0  0  0  0  0
   35.6140   28.9370   36.7450 H   0  0  0  0  0  0  0  0  0  0  0  0
   37.2010   30.6060   37.4460 H   0  0  0  0  0  0  0  0  0  0  0  0
   34.0330   28.7560   40.6890 H   0  0  0  0  0  0  0  0  0  0  0  0
   38.6610   29.1950   42.1040 C   0  0  0  0  0  0  0  0  0  0  0  0
   38.3620   29.5840   43.2220 O   0  0  0  0  0  0  0  0  0  0  0  0
   38.7760   29.9880   40.9480 N   0  0  0  0  0  0  0  0  0  0  0  0
   39.0670   29.5730   40.0330 H   0  0  0  0  0  0  0  0  0  0  0  0
   38.9110   27.8270   41.9740 O   0  0  0  0  0  0  0  0  0  0  0  0
   38.4700   27.1650   40.8150 C   0  0  0  0  0  3  0  0  0  0  0  0
   39.4020   25.9990   40.5910 C   0  0  0  0  0  2  0  0  0  0  0  0
   39.2280   24.8730   41.5530 C   0  0  0  0  0  2  0  0  0  0  0  0
   37.8210   24.5620   41.9380 C   0  0  0  0  0  2  0  0  0  0  0  0
   37.1330   25.8500   42.3480 C   0  0  0  0  0  2  0  0  0  0  0  0
   37.0420   26.6780   41.0680 C   0  0  0  0  0  2  0  0  0  0  0  0
  1  6  1  0  0  0  0
  2  1  2  0  0  0  0
  2  3  1  0  0  0  0
  3  4  2  0  0  0  0
  4  9  1  0  0  0  0
  4  5  1  0  0  0  0
  5 10  1  0  0  0  0
  6 22  1  0  0  0  0
  6  5  2  0  0  0  0
  7  2  1  0  0  0  0
  8  3  1  0  0  0  0
 11 12  2  0  0  0  0
 11 16  1  0  0  0  0
 12 13  1  0  0  0  0
 13  1  1  0  0  0  0
 13 14  2  0  0  0  0
 15 14  1  0  0  0  0
 15 19  1  0  0  0  0
 16 15  2  0  0  0  0
 17 11  1  0  0  0  0
 18 12  1  0  0  0  0
 20 21  2  0  0  0  0
 22 20  1  0  0  0  0
 23 22  1  0  0  0  0
 24 20  1  0  0  0  0
 25 30  1  0  0  0  0
 25 24  1  0  0  0  0
 26 25  1  0  0  0  0
 26 27  1  0  0  0  0
 27 28  1  0  0  0  0
 28 29  1  0  0  0  0
 30 29  1  0  0  0  0
M  END
>  <minimizedAffinity>
-5.59126616

$$$$

 OpenBabel03242517053D

 30 32  0  0  0  0  0  0  0  0999 V2000
   37.4120   30.6790   38.5490 C   0  0  0  0  0  0  0  0  0  0  0  0
   37.3220   31.9800   38.0670 C   0  0  0  0  0  0  0  0  0  0  0  0
   37.3930   33.0240   38.9690 C   0  0  0  0  0  0  0  0  0  0  0  0
   37.5470   32.7680   40.3020 C   0  0  0  0  0  0  0  0  0  0  0  0
   37.6400   31.4900   40.8150 C   0  0  0  0  0  0  0  0  0  0  0  0
   37.5650   30.4440   39.8800 C   0  0  0  0  0  0  0  0  0  0  0  0
   37.2000   32.1810   37.0120 H   0  0  0  0  0  0  0  0  0  0  0  0
   37.3230   34.0220   38.5830 H   0  0  0  0  0  0  0  0  0  0  0  0
   37.5970   33.6210   40.9620 H   0  0  0  0  0  0  0  0  0  0  0  0
   37.7600   31.2700   41.8480 H   0  0  0  0  0  0  0  0  0  0  0  0
   36.1950   28.2270   35.9520 C   0  0  0  0  0  0  0  0  0  0  0  0
   36.1770   29.2640   36.9040 C   0  0  0  0  0  0  0  0  0  0  0  0
   37.3310   29.6190   37.5480 C   0  0  0  0  0  0  0  0  0  0  0  0
   38.4470   28.9360   37.2220 N   0  0  0  0  0  0  0  0  0  0  0  0
   38.4760   27.9420   36.3120 C   0  0  0  0  0  0  0  0  0  0  0  0
   37.3400   27.5810   35.6680 N   0  0  0  0  0  0  0  0  0  0  0  0
   35.2120   28.0560   35.5260 H   0  0  0  0  0  0  0  0  0  0  0  0
   35.2680   29.8170   37.1650 H   0  0  0  0  0  0  0  0  0  0  0  0
   39.3810   27.4000   36.0600 H   0  0  0  0  0  0  0  0  0  0  0  0
   36.7780   28.1850   40.9110 C   0  0  0  0  0  0  0  0  0  0  0  0
   35.6740   28.4390   41.3660 O   0  0  0  0  0  0  0  0  0  0  0  0
   37.6370   29.0850   40.2560 N   0  0  0  0  0  0  0  0  0  0  0  0
   38.5830   28.7860   39.9220 H   0  0  0  0  0  0  0  0  0  0  0  0
   37.2200   26.8690   41.0650 O   0  0  0  0  0  0  0  0  0  0  0  0
   37.1870   26.2880   42.3450 C   0  0  0  0  0  3  0  0  0  0  0  0
   36.8870   24.8220   42.1570 C   0  0  0  0  0  2  0  0  0  0  0  0
   38.0160   24.0240   41.5970 C   0  0  0  0  0  2  0  0  0  0  0  0
   39.3740   24.3890   42.0940 C   0  0  0  0  0  2  0  0  0  0  0  0
   39.5480   25.8910   41.9790 C   0  0  0  0  0  2  0  0  0  0  0  0
   38.5630   26.4840   42.9840 C   0  0  0  0  0  2  0  0  0  0  0  0
  1  6  1  0  0  0  0
  2  1  2  0  0  0  0
  2  3  1  0  0  0  0
  3  4  2  0  0  0  0
  4  5  1  0  0  0  0
  4  9  1  0  0  0  0
  5 10  1  0  0  0  0
  6 22  1  0  0  0  0
  6  5  2  0  0  0  0
  7  2  1  0  0  0  0
  8  3  1  0  0  0  0
 11 12  1  0  0  0  0
 12 18  1  0  0  0  0
 12 13  2  0  0  0  0
 13  1  1  0  0  0  0
 14 13  1  0  0  0  0
 15 14  2  0  0  0  0
 16 11  2  0  0  0  0
 16 15  1  0  0  0  0
 17 11  1  0  0  0  0
 19 15  1  0  0  0  0
 20 24  1  0  0  0  0
 20 21  2  0  0  0  0
 22 20  1  0  0  0  0
 23 22  1  0  0  0  0
 24 25  1  0  0  0  0
 25 30  1  0  0  0  0
 26 25  1  0  0  0  0
 27 28  1  0  0  0  0
 27 26  1  0  0  0  0
 29 28  1  0  0  0  0
 29 30  1  0  0  0  0
M  END
>  <minimizedAffinity>
-5.20228767

$$$$

 OpenBabel03242517053D

 30 32  0  0  0  0  0  0  0  0999 V2000
   36.9180   26.3930   40.0360 C   0  0  0  0  0  0  0  0  0  0  0  0
   36.8590   25.0070   40.1220 C   0  0  0  0  0  0  0  0  0  0  0  0
   36.8580   24.4230   41.3750 C   0  0  0  0  0  0  0  0  0  0  0  0
   36.9140   25.2050   42.4940 C   0  0  0  0  0  0  0  0  0  0  0  0
   36.9740   26.5830   42.4450 C   0  0  0  0  0  0  0  0  0  0  0  0
   36.9750   27.1550   41.1610 C   0  0  0  0  0  0  0  0  0  0  0  0
   36.8140   24.3900   39.2350 H   0  0  0  0  0  0  0  0  0  0  0  0
   36.8110   23.3540   41.4260 H   0  0  0  0  0  0  0  0  0  0  0  0
   36.9100   24.6960   43.4470 H   0  0  0  0  0  0  0  0  0  0  0  0
   37.0190   27.2080   43.3030 H   0  0  0  0  0  0  0  0  0  0  0  0
   35.9910   27.3370   36.5010 C   0  0  0  0  0  0  0  0  0  0  0  0
   35.9060   26.7600   37.7830 C   0  0  0  0  0  0  0  0  0  0  0  0
   36.9160   26.9500   38.6860 C   0  0  0  0  0  0  0  0  0  0  0  0
   37.9610   27.7020   38.2830 N   0  0  0  0  0  0  0  0  0  0  0  0
   38.0530   28.2610   37.0600 C   0  0  0  0  0  0  0  0  0  0  0  0
   37.0590   28.0790   36.1560 N   0  0  0  0  0  0  0  0  0  0  0  0
   35.1220   27.1020   35.8970 H   0  0  0  0  0  0  0  0  0  0  0  0
   35.0550   26.1500   38.1060 H   0  0  0  0  0  0  0  0  0  0  0  0
   38.8980   28.8630   36.7490 H   0  0  0  0  0  0  0  0  0  0  0  0
   37.5480   29.6430   41.6760 C   0  0  0  0  0  0  0  0  0  0  0  0
   38.0760   29.6010   42.7760 O   0  0  0  0  0  0  0  0  0  0  0  0
   37.0390   28.5490   40.9530 N   0  0  0  0  0  0  0  0  0  0  0  0
   36.5760   28.6830   40.0240 H   0  0  0  0  0  0  0  0  0  0  0  0
   37.4450   30.9070   41.0900 O   0  0  0  0  0  0  0  0  0  0  0  0
   38.0640   31.1300   39.8480 C   0  0  0  0  0  3  0  0  0  0  0  0
   37.1750   32.0710   39.0740 C   0  0  0  0  0  2  0  0  0  0  0  0
   37.1850   33.4790   39.5660 C   0  0  0  0  0  2  0  0  0  0  0  0
   38.5100   33.9980   40.0130 C   0  0  0  0  0  2  0  0  0  0  0  0
   39.1290   32.9950   40.9660 C   0  0  0  0  0  2  0  0  0  0  0  0
   39.4300   31.7660   40.1110 C   0  0  0  0  0  2  0  0  0  0  0  0
  1  2  2  0  0  0  0
  1  6  1  0  0  0  0
  2  3  1  0  0  0  0
  3  8  1  0  0  0  0
  3  4  2  0  0  0  0
  4  9  1  0  0  0  0
  5  4  1  0  0  0  0
  5 10  1  0  0  0  0
  6  5  2  0  0  0  0
  7  2  1  0  0  0  0
 11 12  1  0  0  0  0
 12 18  1  0  0  0  0
 12 13  2  0  0  0  0
 13  1  1  0  0  0  0
 14 13  1  0  0  0  0
 15 14  2  0  0  0  0
 16 11  2  0  0  0  0
 16 15  1  0  0  0  0
 17 11  1  0  0  0  0
 19 15  1  0  0  0  0
 20 21  2  0  0  0  0
 22  6  1  0  0  0  0
 22 20  1  0  0  0  0
 23 22  1  0  0  0  0
 24 20  1  0  0  0  0
 25 30  1  0  0  0  0
 25 24  1  0  0  0  0
 26 27  1  0  0  0  0
 26 25  1  0  0  0  0
 27 28  1  0  0  0  0
 28 29  1  0  0  0  0
 30 29  1  0  0  0  0
M  END
>  <minimizedAffinity>
-5.19502831

$$$$

 OpenBabel03242517053D

 30 32  0  0  0  0  0  0  0  0999 V2000
   36.9030   25.7740   40.6510 C   0  0  0  0  0  0  0  0  0  0  0  0
   36.6760   24.4430   40.9820 C   0  0  0  0  0  0  0  0  0  0  0  0
   36.0390   23.6340   40.0610 C   0  0  0  0  0  0  0  0  0  0  0  0
   35.6470   24.1450   38.8560 C   0  0  0  0  0  0  0  0  0  0  0  0
   35.8580   25.4610   38.4940 C   0  0  0  0  0  0  0  0  0  0  0  0
   36.5060   26.2650   39.4460 C   0  0  0  0  0  0  0  0  0  0  0  0
   36.9870   24.0410   41.9360 H   0  0  0  0  0  0  0  0  0  0  0  0
   35.8700   22.6100   40.3290 H   0  0  0  0  0  0  0  0  0  0  0  0
   35.1540   23.4680   38.1740 H   0  0  0  0  0  0  0  0  0  0  0  0
   35.5600   25.8770   37.5630 H   0  0  0  0  0  0  0  0  0  0  0  0
   37.6880   27.8920   43.6750 C   0  0  0  0  0  0  0  0  0  0  0  0
   36.9510   27.1290   42.7480 C   0  0  0  0  0  0  0  0  0  0  0  0
   37.5800   26.5790   41.6640 C   0  0  0  0  0  0  0  0  0  0  0  0
   38.9040   26.8070   41.5460 N   0  0  0  0  0  0  0  0  0  0  0  0
   39.6190   27.5350   42.4270 C   0  0  0  0  0  0  0  0  0  0  0  0
   39.0080   28.0850   43.5050 N   0  0  0  0  0  0  0  0  0  0  0  0
   37.0600   28.2630   44.4780 H   0  0  0  0  0  0  0  0  0  0  0  0
   35.8760   26.9450   42.8480 H   0  0  0  0  0  0  0  0  0  0  0  0
   40.6830   27.7100   42.3200 H   0  0  0  0  0  0  0  0  0  0  0  0
   36.0150   28.8090   39.1740 C   0  0  0  0  0  0  0  0  0  0  0  0
   34.8040   28.8900   39.3070 O   0  0  0  0  0  0  0  0  0  0  0  0
   36.7820   27.6310   39.2220 N   0  0  0  0  0  0  0  0  0  0  0  0
   37.8170   27.6520   39.0680 H   0  0  0  0  0  0  0  0  0  0  0  0
   36.6920   30.0100   38.9530 O   0  0  0  0  0  0  0  0  0  0  0  0
   36.5300   31.0590   39.8740 C   0  0  0  0  0  3  0  0  0  0  0  0
   37.2900   30.6750   41.1190 C   0  0  0  0  0  2  0  0  0  0  0  0
   38.7740   30.7450   40.9860 C   0  0  0  0  0  2  0  0  0  0  0  0
   39.2990   31.8900   40.1880 C   0  0  0  0  0  2  0  0  0  0  0  0
   38.5460   31.9520   38.8730 C   0  0  0  0  0  2  0  0  0  0  0  0
   37.1150   32.3280   39.2500 C   0  0  0  0  0  2  0  0  0  0  0  0
  1  2  1  0  0  0  0
  1 13  1  0  0  0  0
  2  7  1  0  0  0  0
  3  8  1  0  0  0  0
  3  2  2  0  0  0  0
  4  3  1  0  0  0  0
  5  4  2  0  0  0  0
  5  6  1  0  0  0  0
  6  1  2  0  0  0  0
  9  4  1  0  0  0  0
 10  5  1  0  0  0  0
 11 17  1  0  0  0  0
 12 18  1  0  0  0  0
 12 11  2  0  0  0  0
 13 12  1  0  0  0  0
 14 13  2  0  0  0  0
 14 15  1  0  0  0  0
 15 16  2  0  0  0  0
 16 11  1  0  0  0  0
 19 15  1  0  0  0  0
 20 22  1  0  0  0  0
 20 21  2  0  0  0  0
 22  6  1  0  0  0  0
 23 22  1  0  0  0  0
 24 20  1  0  0  0  0
 24 25  1  0  0  0  0
 25 26  1  0  0  0  0
 27 26  1  0  0  0  0
 28 27  1  0  0  0  0
 29 30  1  0  0  0  0
 29 28  1  0  0  0  0
 30 25  1  0  0  0  0
M  END
>  <minimizedAffinity>
-5.08994913

$$$$

 OpenBabel03242517053D

 30 32  0  0  0  0  0  0  0  0999 V2000
   37.2740   30.3450   37.5440 C   0  0  0  0  0  0  0  0  0  0  0  0
   37.1200   30.9190   36.2880 C   0  0  0  0  0  0  0  0  0  0  0  0
   36.5350   30.1680   35.2860 C   0  0  0  0  0  0  0  0  0  0  0  0
   36.1230   28.8900   35.5400 C   0  0  0  0  0  0  0  0  0  0  0  0
   36.2600   28.2890   36.7760 C   0  0  0  0  0  0  0  0  0  0  0  0
   36.8580   29.0710   37.7790 C   0  0  0  0  0  0  0  0  0  0  0  0
   37.4460   31.9300   36.0890 H   0  0  0  0  0  0  0  0  0  0  0  0
   36.4230   30.6240   34.3230 H   0  0  0  0  0  0  0  0  0  0  0  0
   35.6730   28.3490   34.7220 H   0  0  0  0  0  0  0  0  0  0  0  0
   35.9470   27.2970   36.9930 H   0  0  0  0  0  0  0  0  0  0  0  0
   37.9210   32.9330   40.2140 C   0  0  0  0  0  0  0  0  0  0  0  0
   37.2360   32.1680   39.2500 C   0  0  0  0  0  0  0  0  0  0  0  0
   37.8970   31.1870   38.5610 C   0  0  0  0  0  0  0  0  0  0  0  0
   39.2000   31.0070   38.8570 N   0  0  0  0  0  0  0  0  0  0  0  0
   39.8660   31.7310   39.7780 C   0  0  0  0  0  0  0  0  0  0  0  0
   39.2220   32.7060   40.4660 N   0  0  0  0  0  0  0  0  0  0  0  0
   37.2730   33.6690   40.6760 H   0  0  0  0  0  0  0  0  0  0  0  0
   36.1770   32.3190   39.0130 H   0  0  0  0  0  0  0  0  0  0  0  0
   40.9140   31.5750   40.0060 H   0  0  0  0  0  0  0  0  0  0  0  0
   36.3000   28.5160   40.2620 C   0  0  0  0  0  0  0  0  0  0  0  0
   35.1600   28.9290   40.4060 O   0  0  0  0  0  0  0  0  0  0  0  0
   37.0710   28.5890   39.0880 N   0  0  0  0  0  0  0  0  0  0  0  0
   38.0540   28.2320   39.0630 H   0  0  0  0  0  0  0  0  0  0  0  0
   36.8820   27.9130   41.3790 O   0  0  0  0  0  0  0  0  0  0  0  0
   37.0660   28.6790   42.5430 C   0  0  0  0  0  3  0  0  0  0  0  0
   37.3180   27.7120   43.6730 C   0  0  0  0  0  2  0  0  0  0  0  0
   38.6570   27.0580   43.6430 C   0  0  0  0  0  2  0  0  0  0  0  0
   39.7920   27.9270   43.2180 C   0  0  0  0  0  2  0  0  0  0  0  0
   39.4090   28.6340   41.9330 C   0  0  0  0  0  2  0  0  0  0  0  0
   38.2790   29.5850   42.3230 C   0  0  0  0  0  2  0  0  0  0  0  0
  1  6  1  0  0  0  0
  1 13  1  0  0  0  0
  2  1  2  0  0  0  0
  3  4  2  0  0  0  0
  3  2  1  0  0  0  0
  4  5  1  0  0  0  0
  5 10  1  0  0  0  0
  5  6  2  0  0  0  0
  6 22  1  0  0  0  0
  7  2  1  0  0  0  0
  8  3  1  0  0  0  0
  9  4  1  0  0  0  0
 11 16  1  0  0  0  0
 11 17  1  0  0  0  0
 12 11  2  0  0  0  0
 13 14  2  0  0  0  0
 13 12  1  0  0  0  0
 14 15  1  0  0  0  0
 15 19  1  0  0  0  0
 15 16  2  0  0  0  0
 18 12  1  0  0  0  0
 20 21  2  0  0  0  0
 20 24  1  0  0  0  0
 22 20  1  0  0  0  0
 23 22  1  0  0  0  0
 24 25  1  0  0  0  0
 25 26  1  0  0  0  0
 27 26  1  0  0  0  0
 28 27  1  0  0  0  0
 29 30  1  0  0  0  0
 29 28  1  0  0  0  0
 30 25  1  0  0  0  0
M  END
>  <minimizedAffinity>
-5.04778242

$$$$

 OpenBabel03242517053D

 30 32  0  0  0  0  0  0  0  0999 V2000
   40.8560   31.6860   38.3460 C   0  0  0  0  0  0  0  0  0  0  0  0
   41.6230   32.3770   37.4150 C   0  0  0  0  0  0  0  0  0  0  0  0
   42.7570   31.7670   36.9130 C   0  0  0  0  0  0  0  0  0  0  0  0
   43.1030   30.5130   37.3310 C   0  0  0  0  0  0  0  0  0  0  0  0
   42.3650   29.7990   38.2520 C   0  0  0  0  0  0  0  0  0  0  0  0
   41.2170   30.4380   38.7510 C   0  0  0  0  0  0  0  0  0  0  0  0
   41.3480   33.3680   37.0860 H   0  0  0  0  0  0  0  0  0  0  0  0
   43.3390   32.3110   36.1950 H   0  0  0  0  0  0  0  0  0  0  0  0
   43.9980   30.0850   36.9050 H   0  0  0  0  0  0  0  0  0  0  0  0
   42.6180   28.8240   38.5910 H   0  0  0  0  0  0  0  0  0  0  0  0
   38.5150   34.0520   40.1240 C   0  0  0  0  0  0  0  0  0  0  0  0
   39.7120   33.4450   39.7000 C   0  0  0  0  0  0  0  0  0  0  0  0
   39.6710   32.3810   38.8410 C   0  0  0  0  0  0  0  0  0  0  0  0
   38.4510   31.9680   38.4390 N   0  0  0  0  0  0  0  0  0  0  0  0
   37.2990   32.5420   38.8380 C   0  0  0  0  0  0  0  0  0  0  0  0
   37.3270   33.5960   39.6890 N   0  0  0  0  0  0  0  0  0  0  0  0
   38.7020   34.8790   40.8010 H   0  0  0  0  0  0  0  0  0  0  0  0
   40.7020   33.7840   40.0280 H   0  0  0  0  0  0  0  0  0  0  0  0
   36.3250   32.2000   38.5080 H   0  0  0  0  0  0  0  0  0  0  0  0
   39.5940   28.6620   39.7500 C   0  0  0  0  0  0  0  0  0  0  0  0
   39.4660   27.8440   38.8530 O   0  0  0  0  0  0  0  0  0  0  0  0
   40.3680   29.8350   39.7040 N   0  0  0  0  0  0  0  0  0  0  0  0
   40.3970   30.4970   40.5150 H   0  0  0  0  0  0  0  0  0  0  0  0
   38.8990   28.3950   40.9320 O   0  0  0  0  0  0  0  0  0  0  0  0
   38.5300   27.0680   41.2150 C   0  0  0  0  0  3  0  0  0  0  0  0
   38.9610   26.7830   42.6330 C   0  0  0  0  0  2  0  0  0  0  0  0
   38.1370   27.4550   43.6790 C   0  0  0  0  0  2  0  0  0  0  0  0
   36.6720   27.5180   43.4060 C   0  0  0  0  0  2  0  0  0  0  0  0
   36.4600   28.0490   42.0020 C   0  0  0  0  0  2  0  0  0  0  0  0
   37.0100   26.9640   41.0780 C   0  0  0  0  0  2  0  0  0  0  0  0
  1  6  1  0  0  0  0
  1 13  1  0  0  0  0
  2  1  2  0  0  0  0
  3  4  2  0  0  0  0
  3  2  1  0  0  0  0
  4  5  1  0  0  0  0
  5 10  1  0  0  0  0
  5  6  2  0  0  0  0
  6 22  1  0  0  0  0
  7  2  1  0  0  0  0
  8  3  1  0  0  0  0
  9  4  1  0  0  0  0
 11 17  1  0  0  0  0
 12 18  1  0  0  0  0
 12 11  1  0  0  0  0
 13 12  2  0  0  0  0
 14 15  2  0  0  0  0
 14 13  1  0  0  0  0
 15 16  1  0  0  0  0
 16 11  2  0  0  0  0
 19 15  1  0  0  0  0
 20 24  1  0  0  0  0
 21 20  2  0  0  0  0
 22 20  1  0  0  0  0
 22 23  1  0  0  0  0
 24 25  1  0  0  0  0
 25 26  1  0  0  0  0
 26 27  1  0  0  0  0
 28 27  1  0  0  0  0
 29 28  1  0  0  0  0
 30 25  1  0  0  0  0
 30 29  1  0  0  0  0
M  END
>  <minimizedAffinity>
-4.99661541

$$$$

 OpenBabel03242517053D

 30 32  0  0  0  0  0  0  0  0999 V2000
   38.2760   25.1210   41.0340 C   0  0  0  0  0  0  0  0  0  0  0  0
   38.2750   23.7450   41.2370 C   0  0  0  0  0  0  0  0  0  0  0  0
   37.3150   22.9850   40.5970 C   0  0  0  0  0  0  0  0  0  0  0  0
   36.3950   23.5850   39.7860 C   0  0  0  0  0  0  0  0  0  0  0  0
   36.3670   24.9470   39.5620 C   0  0  0  0  0  0  0  0  0  0  0  0
   37.3510   25.7010   40.2230 C   0  0  0  0  0  0  0  0  0  0  0  0
   39.0050   23.2720   41.8780 H   0  0  0  0  0  0  0  0  0  0  0  0
   37.3270   21.9260   40.7620 H   0  0  0  0  0  0  0  0  0  0  0  0
   35.6680   22.9430   39.3100 H   0  0  0  0  0  0  0  0  0  0  0  0
   35.6590   25.4330   38.9350 H   0  0  0  0  0  0  0  0  0  0  0  0
   40.3710   26.8100   43.6800 C   0  0  0  0  0  0  0  0  0  0  0  0
   39.3270   26.0730   43.0890 C   0  0  0  0  0  0  0  0  0  0  0  0
   39.3140   25.8700   41.7360 C   0  0  0  0  0  0  0  0  0  0  0  0
   40.3320   26.4040   41.0300 N   0  0  0  0  0  0  0  0  0  0  0  0
   41.3360   27.1120   41.5840 C   0  0  0  0  0  0  0  0  0  0  0  0
   41.3590   27.3190   42.9230 N   0  0  0  0  0  0  0  0  0  0  0  0
   40.2480   26.8890   44.7540 H   0  0  0  0  0  0  0  0  0  0  0  0
   38.5020   25.6400   43.6670 H   0  0  0  0  0  0  0  0  0  0  0  0
   42.1480   27.5350   41.0040 H   0  0  0  0  0  0  0  0  0  0  0  0
   36.9470   28.2040   40.8180 C   0  0  0  0  0  0  0  0  0  0  0  0
   36.2280   28.1590   41.8030 O   0  0  0  0  0  0  0  0  0  0  0  0
   37.4430   27.1040   40.0970 N   0  0  0  0  0  0  0  0  0  0  0  0
   38.0330   27.2370   39.2430 H   0  0  0  0  0  0  0  0  0  0  0  0
   37.3050   29.4800   40.3740 O   0  0  0  0  0  0  0  0  0  0  0  0
   36.2940   30.3540   39.9390 C   0  0  0  0  0  3  0  0  0  0  0  0
   36.8480   31.7540   40.0370 C   0  0  0  0  0  2  0  0  0  0  0  0
   37.8710   32.0900   39.0050 C   0  0  0  0  0  2  0  0  0  0  0  0
   37.6150   31.5470   37.6390 C   0  0  0  0  0  2  0  0  0  0  0  0
   37.3000   30.0680   37.7540 C   0  0  0  0  0  2  0  0  0  0  0  0
   35.9620   30.0010   38.4870 C   0  0  0  0  0  2  0  0  0  0  0  0
  1  2  1  0  0  0  0
  1 13  1  0  0  0  0
  2  7  1  0  0  0  0
  3  8  1  0  0  0  0
  3  2  2  0  0  0  0
  4  3  1  0  0  0  0
  5  4  2  0  0  0  0
  5  6  1  0  0  0  0
  6  1  2  0  0  0  0
  9  4  1  0  0  0  0
 10  5  1  0  0  0  0
 11 17  1  0  0  0  0
 12 18  1  0  0  0  0
 12 11  1  0  0  0  0
 13 12  2  0  0  0  0
 14 15  2  0  0  0  0
 14 13  1  0  0  0  0
 15 16  1  0  0  0  0
 16 11  2  0  0  0  0
 19 15  1  0  0  0  0
 20 21  2  0  0  0  0
 22  6  1  0  0  0  0
 22 20  1  0  0  0  0
 23 22  1  0  0  0  0
 24 20  1  0  0  0  0
 25 26  1  0  0  0  0
 25 24  1  0  0  0  0
 27 26  1  0  0  0  0
 28 29  1  0  0  0  0
 28 27  1  0  0  0  0
 29 30  1  0  0  0  0
 30 25  1  0  0  0  0
M  END
>  <minimizedAffinity>
-4.83651066

$$$$

 OpenBabel03242517053D

 30 32  0  0  0  0  0  0  0  0999 V2000
   35.5510   28.5550   38.3060 C   0  0  0  0  0  0  0  0  0  0  0  0
   34.6360   29.0570   37.3880 C   0  0  0  0  0  0  0  0  0  0  0  0
   33.9310   28.1650   36.6030 C   0  0  0  0  0  0  0  0  0  0  0  0
   34.1400   26.8210   36.7380 C   0  0  0  0  0  0  0  0  0  0  0  0
   35.0400   26.2880   37.6380 C   0  0  0  0  0  0  0  0  0  0  0  0
   35.7460   27.2140   38.4250 C   0  0  0  0  0  0  0  0  0  0  0  0
   34.4720   30.1200   37.2830 H   0  0  0  0  0  0  0  0  0  0  0  0
   33.2290   28.5660   35.9000 H   0  0  0  0  0  0  0  0  0  0  0  0
   33.5620   26.1700   36.0990 H   0  0  0  0  0  0  0  0  0  0  0  0
   35.2170   25.2470   37.7570 H   0  0  0  0  0  0  0  0  0  0  0  0
   36.5500   31.0170   40.9850 C   0  0  0  0  0  0  0  0  0  0  0  0
   35.7910   30.0630   40.2810 C   0  0  0  0  0  0  0  0  0  0  0  0
   36.2650   29.5460   39.1060 C   0  0  0  0  0  0  0  0  0  0  0  0
   37.4650   29.9930   38.6820 N   0  0  0  0  0  0  0  0  0  0  0  0
   38.2010   30.9050   39.3490 C   0  0  0  0  0  0  0  0  0  0  0  0
   37.7410   31.4250   40.5130 N   0  0  0  0  0  0  0  0  0  0  0  0
   36.0510   31.3360   41.8940 H   0  0  0  0  0  0  0  0  0  0  0  0
   34.8160   29.7020   40.6290 H   0  0  0  0  0  0  0  0  0  0  0  0
   39.1640   31.2560   38.9970 H   0  0  0  0  0  0  0  0  0  0  0  0
   37.9720   26.2120   39.3340 C   0  0  0  0  0  0  0  0  0  0  0  0
   38.5570   25.8370   38.3300 O   0  0  0  0  0  0  0  0  0  0  0  0
   36.7040   26.8180   39.3830 N   0  0  0  0  0  0  0  0  0  0  0  0
   36.2660   27.0830   40.2960 H   0  0  0  0  0  0  0  0  0  0  0  0
   38.6390   26.0140   40.5450 O   0  0  0  0  0  0  0  0  0  0  0  0
   37.8870   25.6900   41.6880 C   0  0  0  0  0  3  0  0  0  0  0  0
   38.3860   24.3560   42.1820 C   0  0  0  0  0  2  0  0  0  0  0  0
   39.7310   24.3960   42.8250 C   0  0  0  0  0  2  0  0  0  0  0  0
   40.0060   25.5900   43.6760 C   0  0  0  0  0  2  0  0  0  0  0  0
   39.6450   26.8380   42.8950 C   0  0  0  0  0  2  0  0  0  0  0  0
   38.1280   26.7820   42.7330 C   0  0  0  0  0  2  0  0  0  0  0  0
  1  6  1  0  0  0  0
  1 13  1  0  0  0  0
  2  1  2  0  0  0  0
  3  4  2  0  0  0  0
  3  2  1  0  0  0  0
  4  5  1  0  0  0  0
  5 10  1  0  0  0  0
  5  6  2  0  0  0  0
  6 22  1  0  0  0  0
  7  2  1  0  0  0  0
  8  3  1  0  0  0  0
  9  4  1  0  0  0  0
 11 17  1  0  0  0  0
 12 18  1  0  0  0  0
 12 11  2  0  0  0  0
 13 12  1  0  0  0  0
 14 13  2  0  0  0  0
 14 15  1  0  0  0  0
 15 16  2  0  0  0  0
 16 11  1  0  0  0  0
 19 15  1  0  0  0  0
 20 22  1  0  0  0  0
 20 24  1  0  0  0  0
 21 20  2  0  0  0  0
 22 23  1  0  0  0  0
 24 25  1  0  0  0  0
 25 26  1  0  0  0  0
 25 30  1  0  0  0  0
 26 27  1  0  0  0  0
 27 28  1  0  0  0  0
 29 28  1  0  0  0  0
 30 29  1  0  0  0  0
M  END
>  <minimizedAffinity>
-4.83072472

$$$$
