
 OpenBabel03242522503D

 23 24  0  0  0  0  0  0  0  0999 V2000
   44.8480   30.7480   47.7030 O   0  0  0  0  0  0  0  0  0  0  0  0
   45.6770   31.9290   48.2540 P   0  0  2  0  0  0  0  0  0  0  0  0
   45.3950   31.9570   49.9110 O   0  0  0  0  0  0  0  0  0  0  0  0
   45.9380   32.6010   50.4060 H   0  0  0  0  0  0  0  0  0  0  0  0
   45.1120   33.3520   47.5430 O   0  0  0  0  0  0  0  0  0  0  0  0
   46.8890   33.2970   44.3750 C   0  0  0  0  0  0  0  0  0  0  0  0
   46.4860   32.9760   45.6830 C   0  0  0  0  0  0  0  0  0  0  0  0
   45.4720   33.7020   46.2580 C   0  0  0  0  0  0  0  0  0  0  0  0
   44.9120   34.6940   45.5290 N   0  0  0  0  0  0  0  0  0  0  0  0
   45.2900   35.0060   44.2840 C   0  0  0  0  0  0  0  0  0  0  0  0
   46.2900   34.2970   43.7040 N   0  0  0  0  0  0  0  0  0  0  0  0
   47.6740   32.7920   43.8310 H   0  0  0  0  0  0  0  0  0  0  0  0
   47.0540   32.1670   46.0620 H   0  0  0  0  0  0  0  0  0  0  0  0
   44.7260   35.8270   43.8630 H   0  0  0  0  0  0  0  0  0  0  0  0
   47.2690   31.6790   47.8860 O   0  0  0  0  0  0  0  0  0  0  0  0
   48.0970   30.6320   48.0990 C   0  0  0  0  0  0  0  0  0  0  0  0
   49.0490   30.8950   48.9180 O   0  0  0  0  0  0  0  0  0  0  0  0
   48.5810   29.2400   47.9170 C   0  0  0  0  0  3  0  0  0  0  0  0
   49.7890   29.1840   47.0230 C   0  0  0  0  0  2  0  0  0  0  0  0
   49.5500   29.3190   45.5730 C   0  0  0  0  0  2  0  0  0  0  0  0
   48.3640   28.5470   45.0590 C   0  0  0  0  0  2  0  0  0  0  0  0
   47.1610   28.7640   45.9090 C   0  0  0  0  0  2  0  0  0  0  0  0
   47.4160   28.4510   47.3630 C   0  0  0  0  0  2  0  0  0  0  0  0
  2  1  2  6  0  0  0
  2  3  1  0  0  0  0
  3  4  1  0  0  0  0
  5  2  1  0  0  0  0
  6  7  1  0  0  0  0
  7 13  1  0  0  0  0
  7  8  2  0  0  0  0
  8  5  1  0  0  0  0
  9  8  1  0  0  0  0
 10  9  2  0  0  0  0
 11 10  1  0  0  0  0
 11  6  2  0  0  0  0
 12  6  1  0  0  0  0
 14 10  1  0  0  0  0
 15 16  1  0  0  0  0
 15  2  1  0  0  0  0
 16 17  2  0  0  0  0
 18 16  1  0  0  0  0
 19 18  1  0  0  0  0
 20 19  1  0  0  0  0
 21 20  1  0  0  0  0
 21 22  1  0  0  0  0
 22 23  1  0  0  0  0
 23 18  1  0  0  0  0
M  END
>  <minimizedAffinity>
-4.35110331

>  <minimizedRMSD>
0.981657505

$$$$
