
 OpenBabel03252503443D

 31 33  0  0  1  0  0  0  0  0999 V2000
   38.0690   29.4600   38.3800 C   0  0  0  0  0  0  0  0  0  0  0  0
   37.2920   29.5410   39.5490 C   0  0  0  0  0  0  0  0  0  0  0  0
   37.6580   30.4990   40.5080 C   0  0  0  0  0  0  0  0  0  0  0  0
   38.7200   31.2840   40.2670 N   0  0  0  0  0  0  0  0  0  0  0  0
   39.4430   31.1870   39.1450 C   0  0  0  0  0  0  0  0  0  0  0  0
   39.1240   30.2690   38.1830 N   0  0  0  0  0  0  0  0  0  0  0  0
   37.9140   28.7780   37.5560 H   0  0  0  0  0  0  0  0  0  0  0  0
   37.0550   30.5330   41.3750 H   0  0  0  0  0  0  0  0  0  0  0  0
   41.0780   32.1810   37.5410 C   0  0  2  0  0  0  0  0  0  0  0  0
   40.5640   32.1130   38.9960 C   0  0  1  0  0  0  0  0  0  0  0  0
   40.2630   33.4290   39.2180 O   0  0  0  0  0  0  0  0  0  0  0  0
   41.3160   34.1630   38.7370 C   0  0  0  0  0  0  0  0  0  0  0  0
   42.0940   33.3120   37.7540 C   0  0  2  0  0  0  0  0  0  0  0  0
   41.5310   31.2490   37.2150 H   0  0  0  0  0  0  0  0  0  0  0  0
   41.4360   31.8410   39.6560 H   0  0  0  0  0  0  0  0  0  0  0  0
   41.9600   34.5080   39.5830 H   0  0  0  0  0  0  0  0  0  0  0  0
   40.9140   35.0860   38.2330 H   0  0  0  0  0  0  0  0  0  0  0  0
   42.9870   32.9380   38.3180 H   0  0  0  0  0  0  0  0  0  0  0  0
   40.0950   32.6920   36.7560 O   0  0  0  0  0  0  0  0  0  0  0  0
   39.4450   33.2170   37.3070 H   0  0  0  0  0  0  0  0  0  0  0  0
   42.4380   33.9530   36.5950 O   0  0  0  0  0  0  0  0  0  0  0  0
   43.3650   34.3020   36.6430 H   0  0  0  0  0  0  0  0  0  0  0  0
   36.1430   28.6030   39.6470 C   0  0  0  0  0  0  0  0  0  0  0  0
   35.2580   29.1680   39.9990 H   0  0  0  0  0  0  0  0  0  0  0  0
   35.8730   28.1850   38.6590 H   0  0  0  0  0  0  0  0  0  0  0  0
   36.5160   27.5390   40.6450 C   0  0  0  0  0  3  0  0  0  0  0  0
   37.8670   26.9300   40.3560 C   0  0  0  0  0  2  0  0  0  0  0  0
   38.8170   27.1210   41.5260 C   0  0  0  0  0  2  0  0  0  0  0  0
   38.2390   26.5520   42.8060 C   0  0  0  0  0  2  0  0  0  0  0  0
   36.8730   27.1100   43.0760 C   0  0  0  0  0  2  0  0  0  0  0  0
   36.4390   28.1200   42.0390 C   0  0  0  0  0  2  0  0  0  0  0  0
  1  2  1  0  0  0  0
  2 23  1  0  0  0  0
  2  3  2  0  0  0  0
  3  8  1  0  0  0  0
  4  3  1  0  0  0  0
  5  4  2  0  0  0  0
  6  1  2  0  0  0  0
  6  5  1  0  0  0  0
  7  1  1  0  0  0  0
  9 14  1  6  0  0  0
  9 13  1  0  0  0  0
  9 10  1  0  0  0  0
 10  5  1  0  0  0  0
 10 11  1  0  0  0  0
 10 15  1  1  0  0  0
 12 11  1  0  0  0  0
 12 16  1  0  0  0  0
 13 18  1  1  0  0  0
 13 12  1  0  0  0  0
 17 12  1  0  0  0  0
 19 20  1  0  0  0  0
 19  9  1  0  0  0  0
 21 22  1  0  0  0  0
 21 13  1  0  0  0  0
 23 24  1  0  0  0  0
 23 26  1  0  0  0  0
 25 23  1  0  0  0  0
 26 31  1  0  0  0  0
 27 26  1  0  0  0  0
 27 28  1  0  0  0  0
 28 29  1  0  0  0  0
 29 30  1  0  0  0  0
 31 30  1  0  0  0  0
M  END
>  <minimizedAffinity>
-5.87564754

$$$$

 OpenBabel03252503443D

 31 33  0  0  1  0  0  0  0  0999 V2000
   39.5200   28.1610   41.2490 C   0  0  0  0  0  0  0  0  0  0  0  0
   38.6670   27.9630   42.3480 C   0  0  0  0  0  0  0  0  0  0  0  0
   37.9110   29.0600   42.7910 C   0  0  0  0  0  0  0  0  0  0  0  0
   38.0360   30.2330   42.1510 N   0  0  0  0  0  0  0  0  0  0  0  0
   38.8560   30.3960   41.1050 C   0  0  0  0  0  0  0  0  0  0  0  0
   39.6110   29.3560   40.6400 N   0  0  0  0  0  0  0  0  0  0  0  0
   40.1610   27.4190   40.7950 H   0  0  0  0  0  0  0  0  0  0  0  0
   37.2800   28.8780   43.6190 H   0  0  0  0  0  0  0  0  0  0  0  0
   37.5550   32.0670   39.7830 C   0  0  2  0  0  0  0  0  0  0  0  0
   38.8860   31.7200   40.4860 C   0  0  1  0  0  0  0  0  0  0  0  0
   38.9910   32.7670   41.3590 O   0  0  0  0  0  0  0  0  0  0  0  0
   38.6900   33.9030   40.6530 C   0  0  0  0  0  0  0  0  0  0  0  0
   37.9110   33.5140   39.4130 C   0  0  2  0  0  0  0  0  0  0  0  0
   37.3610   31.4360   38.9210 H   0  0  0  0  0  0  0  0  0  0  0  0
   39.7110   31.8180   39.7250 H   0  0  0  0  0  0  0  0  0  0  0  0
   39.6280   34.4530   40.3940 H   0  0  0  0  0  0  0  0  0  0  0  0
   38.0800   34.5860   41.3080 H   0  0  0  0  0  0  0  0  0  0  0  0
   38.6510   33.5340   38.5720 H   0  0  0  0  0  0  0  0  0  0  0  0
   36.5760   32.1420   40.7210 O   0  0  0  0  0  0  0  0  0  0  0  0
   36.9690   32.3120   41.6250 H   0  0  0  0  0  0  0  0  0  0  0  0
   36.8140   34.2920   39.1640 O   0  0  0  0  0  0  0  0  0  0  0  0
   37.0240   35.0030   38.5040 H   0  0  0  0  0  0  0  0  0  0  0  0
   38.6410   26.5950   42.9290 C   0  0  0  0  0  0  0  0  0  0  0  0
   39.6080   26.1020   42.7090 H   0  0  0  0  0  0  0  0  0  0  0  0
   38.5490   26.6220   44.0310 H   0  0  0  0  0  0  0  0  0  0  0  0
   37.5110   25.8490   42.2710 C   0  0  0  0  0  3  0  0  0  0  0  0
   36.8870   26.6330   41.1410 C   0  0  0  0  0  2  0  0  0  0  0  0
   36.9850   25.8760   39.8270 C   0  0  0  0  0  2  0  0  0  0  0  0
   36.3560   24.5020   39.9330 C   0  0  0  0  0  2  0  0  0  0  0  0
   36.9310   23.7320   41.0840 C   0  0  0  0  0  2  0  0  0  0  0  0
   38.0110   24.4950   41.8170 C   0  0  0  0  0  2  0  0  0  0  0  0
  1  2  1  0  0  0  0
  2  3  2  0  0  0  0
  2 23  1  0  0  0  0
  3  8  1  0  0  0  0
  4  3  1  0  0  0  0
  5  4  2  0  0  0  0
  6  5  1  0  0  0  0
  6  1  2  0  0  0  0
  7  1  1  0  0  0  0
  9 14  1  6  0  0  0
  9 10  1  0  0  0  0
  9 19  1  0  0  0  0
 10 15  1  6  0  0  0
 10  5  1  0  0  0  0
 10 11  1  0  0  0  0
 12 17  1  0  0  0  0
 12 11  1  0  0  0  0
 13 18  1  6  0  0  0
 13  9  1  0  0  0  0
 13 12  1  0  0  0  0
 16 12  1  0  0  0  0
 19 20  1  0  0  0  0
 21 13  1  0  0  0  0
 22 21  1  0  0  0  0
 23 25  1  0  0  0  0
 24 23  1  0  0  0  0
 26 23  1  0  0  0  0
 27 26  1  0  0  0  0
 28 29  1  0  0  0  0
 28 27  1  0  0  0  0
 29 30  1  0  0  0  0
 30 31  1  0  0  0  0
 31 26  1  0  0  0  0
M  END
>  <minimizedAffinity>
-5.74265671

$$$$

 OpenBabel03252503443D

 31 33  0  0  1  0  0  0  0  0999 V2000
   38.4640   29.1480   38.8590 C   0  0  0  0  0  0  0  0  0  0  0  0
   37.7030   29.2590   40.0360 C   0  0  0  0  0  0  0  0  0  0  0  0
   37.9950   30.3270   40.9000 C   0  0  0  0  0  0  0  0  0  0  0  0
   38.9750   31.1810   40.5660 N   0  0  0  0  0  0  0  0  0  0  0  0
   39.6850   31.0530   39.4390 C   0  0  0  0  0  0  0  0  0  0  0  0
   39.4360   30.0300   38.5670 N   0  0  0  0  0  0  0  0  0  0  0  0
   38.3590   28.3860   38.1000 H   0  0  0  0  0  0  0  0  0  0  0  0
   37.4060   30.3810   41.7760 H   0  0  0  0  0  0  0  0  0  0  0  0
   41.1290   32.1070   37.6960 C   0  0  2  0  0  0  0  0  0  0  0  0
   40.7120   32.0620   39.1830 C   0  0  1  0  0  0  0  0  0  0  0  0
   40.3140   33.3570   39.3730 O   0  0  0  0  0  0  0  0  0  0  0  0
   41.2690   34.1530   38.7970 C   0  0  0  0  0  0  0  0  0  0  0  0
   42.0570   33.3270   37.8000 C   0  0  2  0  0  0  0  0  0  0  0  0
   41.6400   31.2030   37.3790 H   0  0  0  0  0  0  0  0  0  0  0  0
   41.6420   31.8910   39.7950 H   0  0  0  0  0  0  0  0  0  0  0  0
   41.9310   34.5870   39.5860 H   0  0  0  0  0  0  0  0  0  0  0  0
   40.7610   35.0160   38.2850 H   0  0  0  0  0  0  0  0  0  0  0  0
   43.0100   33.0530   38.3200 H   0  0  0  0  0  0  0  0  0  0  0  0
   40.0610   32.5000   36.9570 O   0  0  0  0  0  0  0  0  0  0  0  0
   39.4030   32.9950   37.5270 H   0  0  0  0  0  0  0  0  0  0  0  0
   42.2740   33.9430   36.5980 O   0  0  0  0  0  0  0  0  0  0  0  0
   43.1690   34.3690   36.5730 H   0  0  0  0  0  0  0  0  0  0  0  0
   36.6480   28.2330   40.2420 C   0  0  0  0  0  0  0  0  0  0  0  0
   36.0640   28.5060   41.1430 H   0  0  0  0  0  0  0  0  0  0  0  0
   35.9300   28.2110   39.4010 H   0  0  0  0  0  0  0  0  0  0  0  0
   37.3410   26.9120   40.4480 C   0  0  0  0  0  3  0  0  0  0  0  0
   37.5510   26.5970   41.9100 C   0  0  0  0  0  2  0  0  0  0  0  0
   36.8640   25.2970   42.2950 C   0  0  0  0  0  2  0  0  0  0  0  0
   37.3330   24.1460   41.4290 C   0  0  0  0  0  2  0  0  0  0  0  0
   37.1770   24.4690   39.9720 C   0  0  0  0  0  2  0  0  0  0  0  0
   36.5610   25.8290   39.7370 C   0  0  0  0  0  2  0  0  0  0  0  0
  1  2  1  0  0  0  0
  2 23  1  0  0  0  0
  2  3  2  0  0  0  0
  3  8  1  0  0  0  0
  4  3  1  0  0  0  0
  5  4  2  0  0  0  0
  6  1  2  0  0  0  0
  6  5  1  0  0  0  0
  7  1  1  0  0  0  0
  9 14  1  6  0  0  0
  9 13  1  0  0  0  0
  9 10  1  0  0  0  0
 10 11  1  0  0  0  0
 10  5  1  0  0  0  0
 10 15  1  1  0  0  0
 12 11  1  0  0  0  0
 12 16  1  0  0  0  0
 13 18  1  1  0  0  0
 13 12  1  0  0  0  0
 17 12  1  0  0  0  0
 19 20  1  0  0  0  0
 19  9  1  0  0  0  0
 21 13  1  0  0  0  0
 22 21  1  0  0  0  0
 23 26  1  0  0  0  0
 23 24  1  0  0  0  0
 25 23  1  0  0  0  0
 26 27  1  0  0  0  0
 27 28  1  0  0  0  0
 29 28  1  0  0  0  0
 30 29  1  0  0  0  0
 31 30  1  0  0  0  0
 31 26  1  0  0  0  0
M  END
>  <minimizedAffinity>
-5.67301035

$$$$

 OpenBabel03252503443D

 31 33  0  0  1  0  0  0  0  0999 V2000
   36.1650   28.3560   41.2060 C   0  0  0  0  0  0  0  0  0  0  0  0
   37.0640   27.9480   42.2060 C   0  0  0  0  0  0  0  0  0  0  0  0
   37.9900   28.8950   42.6740 C   0  0  0  0  0  0  0  0  0  0  0  0
   37.9720   30.1310   42.1510 N   0  0  0  0  0  0  0  0  0  0  0  0
   37.1050   30.4940   41.1980 C   0  0  0  0  0  0  0  0  0  0  0  0
   36.1860   29.6060   40.7130 N   0  0  0  0  0  0  0  0  0  0  0  0
   35.3990   27.7460   40.7480 H   0  0  0  0  0  0  0  0  0  0  0  0
   38.6520   28.5560   43.4240 H   0  0  0  0  0  0  0  0  0  0  0  0
   38.6240   32.4190   40.7330 C   0  0  2  0  0  0  0  0  0  0  0  0
   37.1780   31.8750   40.7260 C   0  0  1  0  0  0  0  0  0  0  0  0
   36.8470   32.0580   39.4110 O   0  0  0  0  0  0  0  0  0  0  0  0
   37.2680   33.3160   39.0680 C   0  0  0  0  0  0  0  0  0  0  0  0
   38.3210   33.7660   40.0610 C   0  0  2  0  0  0  0  0  0  0  0  0
   39.0280   32.5190   41.7360 H   0  0  0  0  0  0  0  0  0  0  0  0
   36.5460   32.5740   41.3430 H   0  0  0  0  0  0  0  0  0  0  0  0
   36.3980   34.0170   39.0430 H   0  0  0  0  0  0  0  0  0  0  0  0
   37.6930   33.2840   38.0260 H   0  0  0  0  0  0  0  0  0  0  0  0
   37.7910   34.4510   40.7730 H   0  0  0  0  0  0  0  0  0  0  0  0
   39.3620   31.7060   39.8440 O   0  0  0  0  0  0  0  0  0  0  0  0
   38.7680   31.2720   39.1660 H   0  0  0  0  0  0  0  0  0  0  0  0
   39.4230   34.3480   39.4960 O   0  0  0  0  0  0  0  0  0  0  0  0
   39.3480   35.3370   39.5070 H   0  0  0  0  0  0  0  0  0  0  0  0
   36.9350   26.5450   42.6820 C   0  0  0  0  0  0  0  0  0  0  0  0
   37.6190   26.4020   43.5410 H   0  0  0  0  0  0  0  0  0  0  0  0
   35.9160   26.3340   43.0560 H   0  0  0  0  0  0  0  0  0  0  0  0
   37.3330   25.6460   41.5410 C   0  0  0  0  0  3  0  0  0  0  0  0
   38.8270   25.4370   41.4700 C   0  0  0  0  0  2  0  0  0  0  0  0
   39.1810   23.9650   41.5970 C   0  0  0  0  0  2  0  0  0  0  0  0
   38.4760   23.1340   40.5450 C   0  0  0  0  0  2  0  0  0  0  0  0
   36.9950   23.3740   40.5710 C   0  0  0  0  0  2  0  0  0  0  0  0
   36.5790   24.3410   41.6550 C   0  0  0  0  0  2  0  0  0  0  0  0
  1  2  1  0  0  0  0
  2  3  2  0  0  0  0
  2 23  1  0  0  0  0
  3  8  1  0  0  0  0
  4  3  1  0  0  0  0
  5  4  2  0  0  0  0
  6  5  1  0  0  0  0
  6  1  2  0  0  0  0
  7  1  1  0  0  0  0
  9 14  1  1  0  0  0
 10  9  1  0  0  0  0
 10  5  1  0  0  0  0
 10 15  1  1  0  0  0
 11 10  1  0  0  0  0
 12 11  1  0  0  0  0
 12 13  1  0  0  0  0
 13  9  1  0  0  0  0
 13 18  1  1  0  0  0
 16 12  1  0  0  0  0
 17 12  1  0  0  0  0
 19  9  1  0  0  0  0
 20 19  1  0  0  0  0
 21 22  1  0  0  0  0
 21 13  1  0  0  0  0
 23 25  1  0  0  0  0
 23 24  1  0  0  0  0
 26 31  1  0  0  0  0
 26 23  1  0  0  0  0
 27 26  1  0  0  0  0
 27 28  1  0  0  0  0
 29 30  1  0  0  0  0
 29 28  1  0  0  0  0
 30 31  1  0  0  0  0
M  END
>  <minimizedAffinity>
-5.61649179

$$$$

 OpenBabel03252503443D

 31 33  0  0  1  0  0  0  0  0999 V2000
   36.6570   27.2830   40.4320 C   0  0  0  0  0  0  0  0  0  0  0  0
   37.4620   26.6570   41.4000 C   0  0  0  0  0  0  0  0  0  0  0  0
   38.5140   27.4050   41.9530 C   0  0  0  0  0  0  0  0  0  0  0  0
   38.6990   28.6680   41.5380 N   0  0  0  0  0  0  0  0  0  0  0  0
   37.9170   29.2410   40.6150 C   0  0  0  0  0  0  0  0  0  0  0  0
   36.8810   28.5520   40.0480 N   0  0  0  0  0  0  0  0  0  0  0  0
   35.8150   26.8410   39.9180 H   0  0  0  0  0  0  0  0  0  0  0  0
   39.1000   26.9050   42.6760 H   0  0  0  0  0  0  0  0  0  0  0  0
   36.9510   31.4040   39.8280 C   0  0  2  0  0  0  0  0  0  0  0  0
   38.2140   30.6290   40.2640 C   0  0  1  0  0  0  0  0  0  0  0  0
   38.6450   31.4100   41.3000 O   0  0  0  0  0  0  0  0  0  0  0  0
   38.5680   32.7100   40.8740 C   0  0  0  0  0  0  0  0  0  0  0  0
   37.6130   32.7830   39.6990 C   0  0  2  0  0  0  0  0  0  0  0  0
   36.5360   31.0360   38.8950 H   0  0  0  0  0  0  0  0  0  0  0  0
   38.9690   30.7090   39.4310 H   0  0  0  0  0  0  0  0  0  0  0  0
   39.5860   33.0850   40.6010 H   0  0  0  0  0  0  0  0  0  0  0  0
   38.2010   33.3500   41.7240 H   0  0  0  0  0  0  0  0  0  0  0  0
   38.2610   32.8250   38.7850 H   0  0  0  0  0  0  0  0  0  0  0  0
   36.1040   31.4840   40.8860 O   0  0  0  0  0  0  0  0  0  0  0  0
   36.6030   31.3620   41.7440 H   0  0  0  0  0  0  0  0  0  0  0  0
   36.7210   33.8180   39.7550 O   0  0  0  0  0  0  0  0  0  0  0  0
   37.0390   34.5930   39.2230 H   0  0  0  0  0  0  0  0  0  0  0  0
   37.1070   25.2570   41.7520 C   0  0  0  0  0  0  0  0  0  0  0  0
   37.8530   24.8770   42.4770 H   0  0  0  0  0  0  0  0  0  0  0  0
   36.1250   25.2000   42.2570 H   0  0  0  0  0  0  0  0  0  0  0  0
   37.1540   24.4490   40.4820 C   0  0  0  0  0  3  0  0  0  0  0  0
   38.3720   23.5600   40.4110 C   0  0  0  0  0  2  0  0  0  0  0  0
   37.9780   22.0980   40.2880 C   0  0  0  0  0  2  0  0  0  0  0  0
   37.0800   21.8670   39.0900 C   0  0  0  0  0  2  0  0  0  0  0  0
   35.8920   22.7820   39.1220 C   0  0  0  0  0  2  0  0  0  0  0  0
   35.8670   23.6660   40.3480 C   0  0  0  0  0  2  0  0  0  0  0  0
  1  2  1  0  0  0  0
  2 23  1  0  0  0  0
  2  3  2  0  0  0  0
  3  8  1  0  0  0  0
  4  3  1  0  0  0  0
  5  4  2  0  0  0  0
  6  1  2  0  0  0  0
  6  5  1  0  0  0  0
  7  1  1  0  0  0  0
  9 14  1  6  0  0  0
  9 10  1  0  0  0  0
  9 19  1  0  0  0  0
 10 15  1  6  0  0  0
 10  5  1  0  0  0  0
 10 11  1  0  0  0  0
 12 11  1  0  0  0  0
 12 17  1  0  0  0  0
 13 18  1  6  0  0  0
 13 21  1  0  0  0  0
 13  9  1  0  0  0  0
 13 12  1  0  0  0  0
 16 12  1  0  0  0  0
 19 20  1  0  0  0  0
 22 21  1  0  0  0  0
 23 25  1  0  0  0  0
 23 24  1  0  0  0  0
 26 23  1  0  0  0  0
 27 26  1  0  0  0  0
 28 27  1  0  0  0  0
 29 30  1  0  0  0  0
 29 28  1  0  0  0  0
 30 31  1  0  0  0  0
 31 26  1  0  0  0  0
M  END
>  <minimizedAffinity>
-5.53028011

$$$$

 OpenBabel03252503443D

 31 33  0  0  1  0  0  0  0  0999 V2000
   38.3100   29.4700   39.8930 C   0  0  0  0  0  0  0  0  0  0  0  0
   37.0620   29.9600   39.4730 C   0  0  0  0  0  0  0  0  0  0  0  0
   37.0190   31.2560   38.9350 C   0  0  0  0  0  0  0  0  0  0  0  0
   38.1590   31.9590   38.8470 N   0  0  0  0  0  0  0  0  0  0  0  0
   39.3370   31.4690   39.2550 C   0  0  0  0  0  0  0  0  0  0  0  0
   39.4260   30.2120   39.7850 N   0  0  0  0  0  0  0  0  0  0  0  0
   38.5030   28.4980   40.3240 H   0  0  0  0  0  0  0  0  0  0  0  0
   36.0660   31.5950   38.6300 H   0  0  0  0  0  0  0  0  0  0  0  0
   41.0860   32.2580   37.6570 C   0  0  2  0  0  0  0  0  0  0  0  0
   40.5070   32.3290   39.0880 C   0  0  1  0  0  0  0  0  0  0  0  0
   40.2610   33.6700   39.1930 O   0  0  0  0  0  0  0  0  0  0  0  0
   41.3680   34.3150   38.7070 C   0  0  0  0  0  0  0  0  0  0  0  0
   42.1460   33.3550   37.8300 C   0  0  2  0  0  0  0  0  0  0  0  0
   41.5070   31.2830   37.4260 H   0  0  0  0  0  0  0  0  0  0  0  0
   41.3350   32.0700   39.8070 H   0  0  0  0  0  0  0  0  0  0  0  0
   41.9910   34.6970   39.5530 H   0  0  0  0  0  0  0  0  0  0  0  0
   41.0340   35.2120   38.1150 H   0  0  0  0  0  0  0  0  0  0  0  0
   42.9940   32.9860   38.4620 H   0  0  0  0  0  0  0  0  0  0  0  0
   40.1640   32.7480   36.7900 O   0  0  0  0  0  0  0  0  0  0  0  0
   39.5170   33.3450   37.2680 H   0  0  0  0  0  0  0  0  0  0  0  0
   42.5700   33.8860   36.6430 O   0  0  0  0  0  0  0  0  0  0  0  0
   43.5100   34.1950   36.7070 H   0  0  0  0  0  0  0  0  0  0  0  0
   35.9020   29.0420   39.6300 C   0  0  0  0  0  0  0  0  0  0  0  0
   36.2770   28.0600   39.9760 H   0  0  0  0  0  0  0  0  0  0  0  0
   35.2020   29.4000   40.4080 H   0  0  0  0  0  0  0  0  0  0  0  0
   35.2500   28.9080   38.2790 C   0  0  0  0  0  3  0  0  0  0  0  0
   35.6700   27.6470   37.5630 C   0  0  0  0  0  2  0  0  0  0  0  0
   34.4700   26.7670   37.2530 C   0  0  0  0  0  2  0  0  0  0  0  0
   33.4290   27.5160   36.4470 C   0  0  0  0  0  2  0  0  0  0  0  0
   33.0420   28.7970   37.1240 C   0  0  0  0  0  2  0  0  0  0  0  0
   33.7490   28.9980   38.4450 C   0  0  0  0  0  2  0  0  0  0  0  0
  1  7  1  0  0  0  0
  2 23  1  0  0  0  0
  2  1  2  0  0  0  0
  3  2  1  0  0  0  0
  4  3  2  0  0  0  0
  4  5  1  0  0  0  0
  5  6  2  0  0  0  0
  6  1  1  0  0  0  0
  8  3  1  0  0  0  0
  9 14  1  6  0  0  0
  9 13  1  0  0  0  0
  9 10  1  0  0  0  0
 10 11  1  0  0  0  0
 10  5  1  0  0  0  0
 10 15  1  1  0  0  0
 12 11  1  0  0  0  0
 12 16  1  0  0  0  0
 13 18  1  1  0  0  0
 13 12  1  0  0  0  0
 17 12  1  0  0  0  0
 19 20  1  0  0  0  0
 19  9  1  0  0  0  0
 21 22  1  0  0  0  0
 21 13  1  0  0  0  0
 23 24  1  0  0  0  0
 23 25  1  0  0  0  0
 26 31  1  0  0  0  0
 26 23  1  0  0  0  0
 27 26  1  0  0  0  0
 28 27  1  0  0  0  0
 29 30  1  0  0  0  0
 29 28  1  0  0  0  0
 30 31  1  0  0  0  0
M  END
>  <minimizedAffinity>
-5.37460947

$$$$

 OpenBabel03252503443D

 31 33  0  0  1  0  0  0  0  0999 V2000
   36.8560   29.5920   41.6680 C   0  0  0  0  0  0  0  0  0  0  0  0
   37.5090   28.7700   42.6020 C   0  0  0  0  0  0  0  0  0  0  0  0
   38.8440   29.0730   42.9150 C   0  0  0  0  0  0  0  0  0  0  0  0
   39.4270   30.1230   42.3150 N   0  0  0  0  0  0  0  0  0  0  0  0
   38.7820   30.8910   41.4280 C   0  0  0  0  0  0  0  0  0  0  0  0
   37.4820   30.6330   41.0930 N   0  0  0  0  0  0  0  0  0  0  0  0
   35.8360   29.4870   41.3270 H   0  0  0  0  0  0  0  0  0  0  0  0
   39.3070   28.4350   43.6190 H   0  0  0  0  0  0  0  0  0  0  0  0
   40.0090   31.7280   39.4210 C   0  0  2  0  0  0  0  0  0  0  0  0
   39.5250   32.0150   40.8600 C   0  0  1  0  0  0  0  0  0  0  0  0
   38.7920   33.1520   40.6580 O   0  0  0  0  0  0  0  0  0  0  0  0
   39.5410   33.9670   39.8500 C   0  0  0  0  0  0  0  0  0  0  0  0
   40.5780   33.1250   39.1340 C   0  0  2  0  0  0  0  0  0  0  0  0
   40.7560   30.9410   39.3810 H   0  0  0  0  0  0  0  0  0  0  0  0
   40.4270   32.2890   41.4770 H   0  0  0  0  0  0  0  0  0  0  0  0
   40.0160   34.7760   40.4580 H   0  0  0  0  0  0  0  0  0  0  0  0
   38.8590   34.4710   39.1110 H   0  0  0  0  0  0  0  0  0  0  0  0
   41.5350   33.2830   39.6940 H   0  0  0  0  0  0  0  0  0  0  0  0
   38.9240   31.5840   38.6190 O   0  0  0  0  0  0  0  0  0  0  0  0
   38.1260   32.0300   39.0250 H   0  0  0  0  0  0  0  0  0  0  0  0
   40.7020   33.3920   37.7980 O   0  0  0  0  0  0  0  0  0  0  0  0
   41.4550   34.0150   37.6280 H   0  0  0  0  0  0  0  0  0  0  0  0
   36.7090   27.6570   43.1800 C   0  0  0  0  0  0  0  0  0  0  0  0
   36.9120   27.6080   44.2680 H   0  0  0  0  0  0  0  0  0  0  0  0
   35.6230   27.8390   43.0730 H   0  0  0  0  0  0  0  0  0  0  0  0
   37.1550   26.3870   42.5060 C   0  0  0  0  0  3  0  0  0  0  0  0
   37.0170   26.4560   41.0040 C   0  0  0  0  0  2  0  0  0  0  0  0
   38.3580   26.2510   40.3190 C   0  0  0  0  0  2  0  0  0  0  0  0
   38.9970   24.9420   40.7360 C   0  0  0  0  0  2  0  0  0  0  0  0
   39.0910   24.8390   42.2290 C   0  0  0  0  0  2  0  0  0  0  0  0
   38.5700   26.0700   42.9350 C   0  0  0  0  0  2  0  0  0  0  0  0
  1  2  1  0  0  0  0
  2  3  2  0  0  0  0
  2 23  1  0  0  0  0
  3  8  1  0  0  0  0
  4  3  1  0  0  0  0
  5  4  2  0  0  0  0
  6  5  1  0  0  0  0
  6  1  2  0  0  0  0
  7  1  1  0  0  0  0
  9 14  1  6  0  0  0
  9 10  1  0  0  0  0
 10  5  1  0  0  0  0
 10 15  1  1  0  0  0
 11 10  1  0  0  0  0
 12 16  1  0  0  0  0
 12 11  1  0  0  0  0
 13  9  1  0  0  0  0
 13 18  1  1  0  0  0
 13 12  1  0  0  0  0
 17 12  1  0  0  0  0
 19 20  1  0  0  0  0
 19  9  1  0  0  0  0
 21 13  1  0  0  0  0
 22 21  1  0  0  0  0
 23 24  1  0  0  0  0
 25 23  1  0  0  0  0
 26 31  1  0  0  0  0
 26 23  1  0  0  0  0
 27 26  1  0  0  0  0
 28 29  1  0  0  0  0
 28 27  1  0  0  0  0
 29 30  1  0  0  0  0
 30 31  1  0  0  0  0
M  END
>  <minimizedAffinity>
-5.33790779

$$$$

 OpenBabel03252503443D

 31 33  0  0  1  0  0  0  0  0999 V2000
   37.1080   29.5050   42.2790 C   0  0  0  0  0  0  0  0  0  0  0  0
   36.6080   29.8970   41.0250 C   0  0  0  0  0  0  0  0  0  0  0  0
   36.3480   28.8880   40.0840 C   0  0  0  0  0  0  0  0  0  0  0  0
   36.5860   27.6110   40.4220 N   0  0  0  0  0  0  0  0  0  0  0  0
   37.0630   27.2640   41.6240 C   0  0  0  0  0  0  0  0  0  0  0  0
   37.3300   28.2120   42.5710 N   0  0  0  0  0  0  0  0  0  0  0  0
   37.3550   30.1610   43.1020 H   0  0  0  0  0  0  0  0  0  0  0  0
   35.9740   29.2160   39.1520 H   0  0  0  0  0  0  0  0  0  0  0  0
   37.2630   25.0110   40.5660 C   0  0  2  0  0  0  0  0  0  0  0  0
   37.2610   25.8370   41.8720 C   0  0  1  0  0  0  0  0  0  0  0  0
   38.4850   25.5020   42.3840 O   0  0  0  0  0  0  0  0  0  0  0  0
   38.6090   24.1430   42.2550 C   0  0  0  0  0  0  0  0  0  0  0  0
   37.6330   23.6620   41.1990 C   0  0  2  0  0  0  0  0  0  0  0  0
   36.2940   25.0060   40.0750 H   0  0  0  0  0  0  0  0  0  0  0  0
   36.4710   25.4060   42.5500 H   0  0  0  0  0  0  0  0  0  0  0  0
   38.4270   23.6470   43.2400 H   0  0  0  0  0  0  0  0  0  0  0  0
   39.6670   23.9020   41.9570 H   0  0  0  0  0  0  0  0  0  0  0  0
   36.7620   23.2390   41.7630 H   0  0  0  0  0  0  0  0  0  0  0  0
   38.3290   25.3870   39.8160 O   0  0  0  0  0  0  0  0  0  0  0  0
   39.0300   25.8110   40.3900 H   0  0  0  0  0  0  0  0  0  0  0  0
   38.1590   22.7720   40.3030 O   0  0  0  0  0  0  0  0  0  0  0  0
   37.9500   21.8380   40.5640 H   0  0  0  0  0  0  0  0  0  0  0  0
   36.3900   31.3540   40.8240 C   0  0  0  0  0  0  0  0  0  0  0  0
   35.4750   31.4920   40.2150 H   0  0  0  0  0  0  0  0  0  0  0  0
   36.2070   31.8750   41.7830 H   0  0  0  0  0  0  0  0  0  0  0  0
   37.5910   31.8900   40.0920 C   0  0  0  0  0  3  0  0  0  0  0  0
   37.3280   33.2410   39.4700 C   0  0  0  0  0  2  0  0  0  0  0  0
   38.2870   34.2900   40.0090 C   0  0  0  0  0  2  0  0  0  0  0  0
   39.7300   33.8790   39.8000 C   0  0  0  0  0  2  0  0  0  0  0  0
   39.9900   32.5150   40.3680 C   0  0  0  0  0  2  0  0  0  0  0  0
   38.7730   31.9170   41.0360 C   0  0  0  0  0  2  0  0  0  0  0  0
  1  6  1  0  0  0  0
  1  7  1  0  0  0  0
  2  1  2  0  0  0  0
  3  4  2  0  0  0  0
  3  2  1  0  0  0  0
  4  5  1  0  0  0  0
  5 10  1  0  0  0  0
  5  6  2  0  0  0  0
  8  3  1  0  0  0  0
  9 14  1  6  0  0  0
  9 13  1  0  0  0  0
  9 10  1  0  0  0  0
 10 11  1  0  0  0  0
 10 15  1  1  0  0  0
 12 11  1  0  0  0  0
 12 16  1  0  0  0  0
 13 18  1  1  0  0  0
 13 12  1  0  0  0  0
 17 12  1  0  0  0  0
 19 20  1  0  0  0  0
 19  9  1  0  0  0  0
 21 22  1  0  0  0  0
 21 13  1  0  0  0  0
 23  2  1  0  0  0  0
 23 25  1  0  0  0  0
 24 23  1  0  0  0  0
 26 23  1  0  0  0  0
 26 31  1  0  0  0  0
 27 28  1  0  0  0  0
 27 26  1  0  0  0  0
 29 28  1  0  0  0  0
 29 30  1  0  0  0  0
 30 31  1  0  0  0  0
M  END
>  <minimizedAffinity>
-5.09379435

$$$$

 OpenBabel03252503443D

 31 33  0  0  1  0  0  0  0  0999 V2000
   39.2190   29.0030   39.9030 C   0  0  0  0  0  0  0  0  0  0  0  0
   37.8620   29.3720   39.8840 C   0  0  0  0  0  0  0  0  0  0  0  0
   37.5570   30.7190   39.6320 C   0  0  0  0  0  0  0  0  0  0  0  0
   38.5640   31.5820   39.4220 N   0  0  0  0  0  0  0  0  0  0  0  0
   39.8480   31.2060   39.4450 C   0  0  0  0  0  0  0  0  0  0  0  0
   40.1920   29.9050   39.6870 N   0  0  0  0  0  0  0  0  0  0  0  0
   39.6090   28.0120   40.0820 H   0  0  0  0  0  0  0  0  0  0  0  0
   36.5290   30.9630   39.6260 H   0  0  0  0  0  0  0  0  0  0  0  0
   41.2910   32.2630   37.7040 C   0  0  2  0  0  0  0  0  0  0  0  0
   40.8470   32.2400   39.1840 C   0  0  1  0  0  0  0  0  0  0  0  0
   40.4050   33.5260   39.3340 O   0  0  0  0  0  0  0  0  0  0  0  0
   41.3460   34.3380   38.7570 C   0  0  0  0  0  0  0  0  0  0  0  0
   42.1770   33.5140   37.7940 C   0  0  2  0  0  0  0  0  0  0  0  0
   41.8360   31.3680   37.4180 H   0  0  0  0  0  0  0  0  0  0  0  0
   41.7710   32.1140   39.8170 H   0  0  0  0  0  0  0  0  0  0  0  0
   41.9790   34.8120   39.5460 H   0  0  0  0  0  0  0  0  0  0  0  0
   40.8200   35.1720   38.2140 H   0  0  0  0  0  0  0  0  0  0  0  0
   43.1300   33.2830   38.3380 H   0  0  0  0  0  0  0  0  0  0  0  0
   40.2250   32.6040   36.9360 O   0  0  0  0  0  0  0  0  0  0  0  0
   39.5420   33.0910   37.4820 H   0  0  0  0  0  0  0  0  0  0  0  0
   42.3980   34.1070   36.5820 O   0  0  0  0  0  0  0  0  0  0  0  0
   43.2800   34.5610   36.5620 H   0  0  0  0  0  0  0  0  0  0  0  0
   36.8770   28.2840   40.1230 C   0  0  0  0  0  0  0  0  0  0  0  0
   37.3930   27.4490   40.6350 H   0  0  0  0  0  0  0  0  0  0  0  0
   36.0660   28.6110   40.8000 H   0  0  0  0  0  0  0  0  0  0  0  0
   36.3660   27.8390   38.7780 C   0  0  0  0  0  3  0  0  0  0  0  0
   35.1280   28.5940   38.3560 C   0  0  0  0  0  2  0  0  0  0  0  0
   35.3550   29.3290   37.0450 C   0  0  0  0  0  2  0  0  0  0  0  0
   35.8000   28.3810   35.9510 C   0  0  0  0  0  2  0  0  0  0  0  0
   36.9980   27.5870   36.3790 C   0  0  0  0  0  2  0  0  0  0  0  0
   37.4800   27.9560   37.7630 C   0  0  0  0  0  2  0  0  0  0  0  0
  1  7  1  0  0  0  0
  2  1  1  0  0  0  0
  2 23  1  0  0  0  0
  3  2  2  0  0  0  0
  4  5  2  0  0  0  0
  4  3  1  0  0  0  0
  5  6  1  0  0  0  0
  6  1  2  0  0  0  0
  8  3  1  0  0  0  0
  9 14  1  6  0  0  0
  9 13  1  0  0  0  0
  9 10  1  0  0  0  0
 10 11  1  0  0  0  0
 10  5  1  0  0  0  0
 10 15  1  1  0  0  0
 12 11  1  0  0  0  0
 12 16  1  0  0  0  0
 13 18  1  1  0  0  0
 13 12  1  0  0  0  0
 17 12  1  0  0  0  0
 19 20  1  0  0  0  0
 19  9  1  0  0  0  0
 21 13  1  0  0  0  0
 22 21  1  0  0  0  0
 23 24  1  0  0  0  0
 23 25  1  0  0  0  0
 26 23  1  0  0  0  0
 27 26  1  0  0  0  0
 28 27  1  0  0  0  0
 29 30  1  0  0  0  0
 29 28  1  0  0  0  0
 30 31  1  0  0  0  0
 31 26  1  0  0  0  0
M  END
>  <minimizedAffinity>
-5.00390387

$$$$
