
 OpenBabel03252507163D

 26 28  0  0  0  0  0  0  0  0999 V2000
   45.1050   35.9300   43.0690 C   0  0  0  0  0  0  0  0  0  0  0  0
   45.6600   34.6340   42.9200 C   0  0  0  0  0  0  0  0  0  0  0  0
   45.6740   33.8340   44.0610 C   0  0  0  0  0  0  0  0  0  0  0  0
   45.1790   34.2980   45.2240 N   0  0  0  0  0  0  0  0  0  0  0  0
   44.6490   35.5600   45.3270 C   0  0  0  0  0  0  0  0  0  0  0  0
   44.6280   36.3360   44.2500 N   0  0  0  0  0  0  0  0  0  0  0  0
   45.0730   36.5990   42.1970 H   0  0  0  0  0  0  0  0  0  0  0  0
   44.2930   35.7820   46.3230 H   0  0  0  0  0  0  0  0  0  0  0  0
   46.2410   32.4940   43.9380 C   0  0  0  0  0  0  0  0  0  0  0  0
   45.4090   31.4050   43.8200 C   0  0  0  0  0  0  0  0  0  0  0  0
   45.9700   30.1530   43.7060 C   0  0  0  0  0  0  0  0  0  0  0  0
   47.3400   29.9290   43.7030 C   0  0  0  0  0  0  0  0  0  0  0  0
   48.1210   31.0750   43.8270 C   0  0  0  0  0  0  0  0  0  0  0  0
   47.5550   32.2850   43.9370 N   0  0  0  0  0  0  0  0  0  0  0  0
   44.3120   31.4980   43.8130 H   0  0  0  0  0  0  0  0  0  0  0  0
   45.3380   29.2600   43.6100 H   0  0  0  0  0  0  0  0  0  0  0  0
   47.7940   28.9560   43.6150 H   0  0  0  0  0  0  0  0  0  0  0  0
   49.2040   31.0030   43.8350 H   0  0  0  0  0  0  0  0  0  0  0  0
   46.1690   34.2000   41.6690 C   0  0  0  0  0  0  0  0  0  0  0  0
   47.2450   34.7440   41.2730 O   0  0  0  0  0  0  0  0  0  0  0  0
   45.6900   33.1940   40.6730 C   0  0  0  0  0  3  0  0  0  0  0  0
   46.3830   33.5090   39.3840 C   0  0  0  0  0  2  0  0  0  0  0  0
   45.7380   32.9110   38.1670 C   0  0  0  0  0  2  0  0  0  0  0  0
   44.2540   33.0910   38.1260 C   0  0  0  0  0  2  0  0  0  0  0  0
   43.6810   33.7780   39.3230 C   0  0  0  0  0  2  0  0  0  0  0  0
   44.2000   33.1900   40.6080 C   0  0  0  0  0  2  0  0  0  0  0  0
  1  6  1  0  0  0  0
  2  1  2  0  0  0  0
  2  3  1  0  0  0  0
  3  4  2  0  0  0  0
  4  5  1  0  0  0  0
  5  8  1  0  0  0  0
  6  5  2  0  0  0  0
  7  1  1  0  0  0  0
  9  3  1  0  0  0  0
 10  9  2  0  0  0  0
 11 10  1  0  0  0  0
 12 11  2  0  0  0  0
 12 13  1  0  0  0  0
 13 18  1  0  0  0  0
 13 14  2  0  0  0  0
 14  9  1  0  0  0  0
 15 10  1  0  0  0  0
 16 11  1  0  0  0  0
 17 12  1  0  0  0  0
 19  2  1  0  0  0  0
 20 19  2  0  0  0  0
 21 19  1  0  0  0  0
 22 21  1  0  0  0  0
 23 22  1  0  0  0  0
 24 23  1  0  0  0  0
 24 25  1  0  0  0  0
 25 26  1  0  0  0  0
 26 21  1  0  0  0  0
M  END
>  <minimizedAffinity>
-4.19439983

>  <minimizedRMSD>
0.844346166

$$$$
