
 OpenBabel03242521283D

 32 34  0  0  1  0  0  0  0  0999 V2000
   44.1010   33.0300   41.9730 C   0  0  1  0  0  0  0  0  0  0  0  0
   42.9110   33.3110   41.0850 C   0  0  2  0  0  0  0  0  0  0  0  0
   42.1720   34.3850   41.5450 O   0  0  0  0  0  0  0  0  0  0  0  0
   42.9470   35.5110   41.3180 C   0  0  0  0  0  0  0  0  0  0  0  0
   44.0640   35.5230   42.3310 C   0  0  2  0  0  0  0  0  0  0  0  0
   44.8380   34.2400   42.4050 C   0  0  2  0  0  0  0  0  0  0  0  0
   44.8020   32.4060   41.3410 H   0  0  0  0  0  0  0  0  0  0  0  0
   43.3330   33.5650   40.0870 H   0  0  0  0  0  0  0  0  0  0  0  0
   42.3770   36.4400   41.4630 H   0  0  0  0  0  0  0  0  0  0  0  0
   43.4420   35.4390   40.3160 H   0  0  0  0  0  0  0  0  0  0  0  0
   44.7810   36.3480   42.0970 H   0  0  0  0  0  0  0  0  0  0  0  0
   45.1140   34.1160   43.4910 H   0  0  0  0  0  0  0  0  0  0  0  0
   39.9080   31.0160   41.3280 C   0  0  0  0  0  0  0  0  0  0  0  0
   40.6890   32.1770   41.4310 C   0  0  0  0  0  0  0  0  0  0  0  0
   42.0410   32.1240   40.9890 C   0  0  0  0  0  0  0  0  0  0  0  0
   42.5180   30.9590   40.4880 N   0  0  0  0  0  0  0  0  0  0  0  0
   41.7170   29.8510   40.4080 C   0  0  0  0  0  0  0  0  0  0  0  0
   40.4240   29.8850   40.8270 N   0  0  0  0  0  0  0  0  0  0  0  0
   38.9150   31.2180   41.7030 H   0  0  0  0  0  0  0  0  0  0  0  0
   40.3590   33.1330   41.8230 H   0  0  0  0  0  0  0  0  0  0  0  0
   42.1170   28.9350   40.0080 H   0  0  0  0  0  0  0  0  0  0  0  0
   43.7760   32.1820   43.0380 O   0  0  0  0  0  0  0  0  0  0  0  0
   43.4050   32.7950   43.7450 H   0  0  0  0  0  0  0  0  0  0  0  0
   43.4760   35.8470   43.5560 O   0  0  0  0  0  0  0  0  0  0  0  0
   43.7480   36.7210   43.8880 H   0  0  0  0  0  0  0  0  0  0  0  0
   46.0990   34.3350   41.7700 O   0  0  0  0  0  0  0  0  0  0  0  0
   47.0480   34.9660   42.5510 C   0  0  0  0  0  0  0  0  0  0  0  0
   48.1710   35.3840   41.6400 C   0  0  0  0  0  0  0  0  0  0  0  0
   49.5410   35.0540   42.1670 C   0  0  0  0  0  0  0  0  0  0  0  0
   49.7160   33.6060   42.5100 C   0  0  0  0  0  0  0  0  0  0  0  0
   48.3740   32.9530   42.7170 C   0  0  0  0  0  0  0  0  0  0  0  0
   47.5420   33.9120   43.5330 C   0  0  0  0  0  0  0  0  0  0  0  0
  1  7  1  6  0  0  0
  1  6  1  0  0  0  0
  1 22  1  0  0  0  0
  2  8  1  6  0  0  0
  2  3  1  0  0  0  0
  2  1  1  0  0  0  0
  4  9  1  0  0  0  0
  4  3  1  0  0  0  0
  4  5  1  0  0  0  0
  5 11  1  6  0  0  0
  5  6  1  0  0  0  0
  5 24  1  0  0  0  0
  6 12  1  1  0  0  0
 10  4  1  0  0  0  0
 13 14  1  0  0  0  0
 13 19  1  0  0  0  0
 14 20  1  0  0  0  0
 15  2  1  0  0  0  0
 15 14  2  0  0  0  0
 16 15  1  0  0  0  0
 17 16  2  0  0  0  0
 17 18  1  0  0  0  0
 18 13  2  0  0  0  0
 21 17  1  0  0  0  0
 22 23  1  0  0  0  0
 24 25  1  0  0  0  0
 26  6  1  0  0  0  0
 26 27  1  0  0  0  0
 27 32  1  0  0  0  0
 28 29  1  0  0  0  0
 28 27  1  0  0  0  0
 29 30  1  0  0  0  0
 30 31  1  0  0  0  0
 31 32  1  0  0  0  0
M  END
>  <minimizedAffinity>
-5.74814701

>  <minimizedRMSD>
5.30172873

$$$$
