
 OpenBabel03242513453D

 43 46  0  0  0  0  0  0  0  0999 V2000
   40.9800   31.8600   40.6020 C   0  0  0  0  0  0  0  0  0  0  0  0
   40.9530   31.0990   41.7510 C   0  0  0  0  0  0  0  0  0  0  0  0
   41.8980   31.3580   42.7070 C   0  0  0  0  0  0  0  0  0  0  0  0
   42.8580   32.3290   42.5780 C   0  0  0  0  0  0  0  0  0  0  0  0
   43.8970   32.8170   43.3140 N   0  0  0  0  0  0  0  0  0  0  0  0
   44.5090   33.8260   42.6210 C   0  0  0  0  0  0  0  0  0  0  0  0
   43.8420   33.9540   41.4600 N   0  0  0  0  0  0  0  0  0  0  0  0
   42.8420   33.0600   41.4150 C   0  0  0  0  0  0  0  0  0  0  0  0
   41.9360   32.8600   40.4220 C   0  0  0  0  0  0  0  0  0  0  0  0
   40.2540   31.6990   39.8090 H   0  0  0  0  0  0  0  0  0  0  0  0
   41.9050   30.7760   43.6280 H   0  0  0  0  0  0  0  0  0  0  0  0
   44.1250   32.4160   44.2670 H   0  0  0  0  0  0  0  0  0  0  0  0
   45.3670   34.3740   43.0050 H   0  0  0  0  0  0  0  0  0  0  0  0
   38.9120   28.1170   41.2000 C   0  0  0  0  0  0  0  0  0  0  0  0
   38.0420   28.1210   42.2980 C   0  0  0  0  0  0  0  0  0  0  0  0
   38.1970   29.1810   43.2130 C   0  0  0  0  0  0  0  0  0  0  0  0
   39.1420   30.1240   43.0090 N   0  0  0  0  0  0  0  0  0  0  0  0
   39.9450   30.0550   41.9280 C   0  0  0  0  0  0  0  0  0  0  0  0
   39.8490   29.0760   41.0240 N   0  0  0  0  0  0  0  0  0  0  0  0
   38.8880   27.3560   40.4320 H   0  0  0  0  0  0  0  0  0  0  0  0
   37.5250   29.1850   44.0610 H   0  0  0  0  0  0  0  0  0  0  0  0
   37.0420   27.0360   42.4220 C   0  0  0  0  0  0  0  0  0  0  0  0
   36.4500   26.9620   41.1730 F   0  0  0  0  0  0  0  0  0  0  0  0
   36.1130   27.4110   43.3320 F   0  0  0  0  0  0  0  0  0  0  0  0
   37.7020   25.8670   42.7730 F   0  0  0  0  0  0  0  0  0  0  0  0
   41.9680   33.6290   39.2690 O   0  0  0  0  0  0  0  0  0  0  0  0
   43.7900   32.4460   37.8540 O   0  0  0  0  0  0  0  0  0  0  0  0
   42.4120   33.0730   37.7380 P   0  0  2  0  0  0  0  0  0  0  0  0
   42.5720   34.4300   36.7270 O   0  0  0  0  0  0  0  0  0  0  0  0
   41.7260   34.8970   36.5780 H   0  0  0  0  0  0  0  0  0  0  0  0
   41.3330   31.9850   37.0650 O   0  0  0  0  0  0  0  0  0  0  0  0
   40.0090   32.2300   37.3240 C   0  0  0  0  0  0  0  0  0  0  0  0
   39.9520   32.9420   38.1840 H   0  0  0  0  0  0  0  0  0  0  0  0
   39.4720   32.6380   36.4700 H   0  0  0  0  0  0  0  0  0  0  0  0
   39.4170   30.9080   37.8050 C   0  0  0  0  0  0  0  0  0  0  0  0
   39.7410   30.0750   37.1510 H   0  0  0  0  0  0  0  0  0  0  0  0
   39.7540   30.6940   38.8200 H   0  0  0  0  0  0  0  0  0  0  0  0
   37.9080   30.9440   37.7810 C   0  0  0  0  0  3  0  0  0  0  0  0
   37.2790   29.7100   38.3350 C   0  0  0  0  0  2  0  0  0  0  0  0
   36.0470   30.0920   39.1310 C   0  0  0  0  0  2  0  0  0  0  0  0
   36.4110   30.8510   40.3880 C   0  0  0  0  0  2  0  0  0  0  0  0
   37.3550   31.9670   39.9970 C   0  0  0  0  0  2  0  0  0  0  0  0
   37.4280   32.1580   38.5060 C   0  0  0  0  0  2  0  0  0  0  0  0
  1  2  1  0  0  0  0
  2 18  1  0  0  0  0
  2  3  2  0  0  0  0
  3 11  1  0  0  0  0
  4  3  1  0  0  0  0
  4  5  1  0  0  0  0
  5 12  1  0  0  0  0
  6 13  1  0  0  0  0
  6  5  1  0  0  0  0
  7  6  2  0  0  0  0
  8  7  1  0  0  0  0
  8  4  2  0  0  0  0
  9  1  2  0  0  0  0
  9  8  1  0  0  0  0
 10  1  1  0  0  0  0
 14 15  1  0  0  0  0
 15 22  1  0  0  0  0
 15 16  2  0  0  0  0
 16 21  1  0  0  0  0
 17 16  1  0  0  0  0
 18 17  2  0  0  0  0
 19 14  2  0  0  0  0
 19 18  1  0  0  0  0
 20 14  1  0  0  0  0
 22 25  1  0  0  0  0
 22 24  1  0  0  0  0
 23 22  1  0  0  0  0
 26  9  1  0  0  0  0
 28 27  2  1  0  0  0
 28 26  1  0  0  0  0
 29 28  1  0  0  0  0
 30 29  1  0  0  0  0
 31 32  1  0  0  0  0
 31 28  1  0  0  0  0
 32 35  1  0  0  0  0
 32 33  1  0  0  0  0
 34 32  1  0  0  0  0
 35 37  1  0  0  0  0
 36 35  1  0  0  0  0
 38 35  1  0  0  0  0
 38 39  1  0  0  0  0
 38 43  1  0  0  0  0
 39 40  1  0  0  0  0
 40 41  1  0  0  0  0
 42 41  1  0  0  0  0
 43 42  1  0  0  0  0
M  END
>  <minimizedAffinity>
-6.75249672

$$$$

 OpenBabel03242513453D

 43 46  0  0  0  0  0  0  0  0999 V2000
   38.8390   30.6180   39.6490 C   0  0  0  0  0  0  0  0  0  0  0  0
   37.5910   30.8440   39.1100 C   0  0  0  0  0  0  0  0  0  0  0  0
   37.1250   32.1310   39.0990 C   0  0  0  0  0  0  0  0  0  0  0  0
   37.8350   33.1960   39.5930 C   0  0  0  0  0  0  0  0  0  0  0  0
   37.6630   34.5420   39.7250 N   0  0  0  0  0  0  0  0  0  0  0  0
   38.7700   35.0840   40.3200 C   0  0  0  0  0  0  0  0  0  0  0  0
   39.6190   34.0670   40.5510 N   0  0  0  0  0  0  0  0  0  0  0  0
   39.0740   32.9190   40.1190 C   0  0  0  0  0  0  0  0  0  0  0  0
   39.6010   31.6670   40.1650 C   0  0  0  0  0  0  0  0  0  0  0  0
   39.2590   29.6160   39.6850 H   0  0  0  0  0  0  0  0  0  0  0  0
   36.1430   32.3440   38.6790 H   0  0  0  0  0  0  0  0  0  0  0  0
   36.7760   35.0130   39.3910 H   0  0  0  0  0  0  0  0  0  0  0  0
   38.8690   36.1470   40.5320 H   0  0  0  0  0  0  0  0  0  0  0  0
   36.6390   27.8410   37.2540 C   0  0  0  0  0  0  0  0  0  0  0  0
   35.2880   27.6770   37.5880 C   0  0  0  0  0  0  0  0  0  0  0  0
   34.7410   28.6340   38.4650 C   0  0  0  0  0  0  0  0  0  0  0  0
   35.5080   29.6420   38.9370 N   0  0  0  0  0  0  0  0  0  0  0  0
   36.8020   29.7350   38.5720 C   0  0  0  0  0  0  0  0  0  0  0  0
   37.3800   28.8610   37.7440 N   0  0  0  0  0  0  0  0  0  0  0  0
   37.1670   27.1710   36.5900 H   0  0  0  0  0  0  0  0  0  0  0  0
   33.6990   28.5080   38.7230 H   0  0  0  0  0  0  0  0  0  0  0  0
   34.5430   26.5350   37.0100 C   0  0  0  0  0  0  0  0  0  0  0  0
   33.2240   26.9550   36.9850 F   0  0  0  0  0  0  0  0  0  0  0  0
   34.6570   25.4800   37.8490 F   0  0  0  0  0  0  0  0  0  0  0  0
   35.0480   26.2770   35.7430 F   0  0  0  0  0  0  0  0  0  0  0  0
   40.8580   31.4480   40.7080 O   0  0  0  0  0  0  0  0  0  0  0  0
   39.8540   30.9920   43.0550 O   0  0  0  0  0  0  0  0  0  0  0  0
   41.1600   30.9180   42.2820 P   0  0  2  0  0  0  0  0  0  0  0  0
   42.2220   32.0330   43.0030 O   0  0  0  0  0  0  0  0  0  0  0  0
   43.1030   32.0480   42.5800 H   0  0  0  0  0  0  0  0  0  0  0  0
   41.8030   29.3760   42.3750 O   0  0  0  0  0  0  0  0  0  0  0  0
   41.0890   28.4820   43.1300 C   0  0  0  0  0  0  0  0  0  0  0  0
   41.8160   27.7970   43.6330 H   0  0  0  0  0  0  0  0  0  0  0  0
   40.4540   28.9580   43.8740 H   0  0  0  0  0  0  0  0  0  0  0  0
   40.2920   27.6310   42.1440 C   0  0  0  0  0  0  0  0  0  0  0  0
   39.9160   28.2550   41.3080 H   0  0  0  0  0  0  0  0  0  0  0  0
   40.9270   26.8500   41.7260 H   0  0  0  0  0  0  0  0  0  0  0  0
   39.0970   26.9960   42.8120 C   0  0  0  0  0  3  0  0  0  0  0  0
   38.2560   27.9700   43.5670 C   0  0  0  0  0  2  0  0  0  0  0  0
   36.7940   27.6140   43.3850 C   0  0  0  0  0  2  0  0  0  0  0  0
   36.3390   27.8440   41.9610 C   0  0  0  0  0  2  0  0  0  0  0  0
   37.3340   27.1690   41.0440 C   0  0  0  0  0  2  0  0  0  0  0  0
   38.2840   26.2710   41.7910 C   0  0  0  0  0  2  0  0  0  0  0  0
  1 10  1  0  0  0  0
  1  9  1  0  0  0  0
  2  1  2  0  0  0  0
  3  2  1  0  0  0  0
  3  4  2  0  0  0  0
  4  5  1  0  0  0  0
  4  8  1  0  0  0  0
  5  6  1  0  0  0  0
  6 13  1  0  0  0  0
  6  7  2  0  0  0  0
  8  9  2  0  0  0  0
  8  7  1  0  0  0  0
  9 26  1  0  0  0  0
 11  3  1  0  0  0  0
 12  5  1  0  0  0  0
 14 15  2  0  0  0  0
 14 19  1  0  0  0  0
 15 16  1  0  0  0  0
 16 21  1  0  0  0  0
 16 17  2  0  0  0  0
 18 17  1  0  0  0  0
 18  2  1  0  0  0  0
 19 18  2  0  0  0  0
 20 14  1  0  0  0  0
 22 15  1  0  0  0  0
 22 24  1  0  0  0  0
 23 22  1  0  0  0  0
 25 22  1  0  0  0  0
 26 28  1  0  0  0  0
 28 31  1  0  0  0  0
 28 29  1  0  0  0  0
 28 27  2  1  0  0  0
 30 29  1  0  0  0  0
 31 32  1  0  0  0  0
 32 33  1  0  0  0  0
 32 34  1  0  0  0  0
 35 38  1  0  0  0  0
 35 32  1  0  0  0  0
 36 35  1  0  0  0  0
 37 35  1  0  0  0  0
 38 39  1  0  0  0  0
 40 39  1  0  0  0  0
 41 40  1  0  0  0  0
 42 43  1  0  0  0  0
 42 41  1  0  0  0  0
 43 38  1  0  0  0  0
M  END
>  <minimizedAffinity>
-6.19896889

$$$$

 OpenBabel03242513453D

 43 46  0  0  0  0  0  0  0  0999 V2000
   40.5800   30.8710   41.2520 C   0  0  0  0  0  0  0  0  0  0  0  0
   40.7520   29.7500   42.0340 C   0  0  0  0  0  0  0  0  0  0  0  0
   41.7910   29.7480   42.9240 C   0  0  0  0  0  0  0  0  0  0  0  0
   42.6600   30.7990   43.0750 C   0  0  0  0  0  0  0  0  0  0  0  0
   43.7490   31.0990   43.8380 N   0  0  0  0  0  0  0  0  0  0  0  0
   44.1970   32.3510   43.5140 C   0  0  0  0  0  0  0  0  0  0  0  0
   43.3800   32.8160   42.5510 N   0  0  0  0  0  0  0  0  0  0  0  0
   42.4460   31.8940   42.2720 C   0  0  0  0  0  0  0  0  0  0  0  0
   41.4360   31.9670   41.3660 C   0  0  0  0  0  0  0  0  0  0  0  0
   39.7710   30.9280   40.5270 H   0  0  0  0  0  0  0  0  0  0  0  0
   41.9550   28.8770   43.5580 H   0  0  0  0  0  0  0  0  0  0  0  0
   44.1230   30.4100   44.5480 H   0  0  0  0  0  0  0  0  0  0  0  0
   45.0590   32.8140   43.9910 H   0  0  0  0  0  0  0  0  0  0  0  0
   38.8480   26.9730   40.6070 C   0  0  0  0  0  0  0  0  0  0  0  0
   38.1420   26.4740   41.7090 C   0  0  0  0  0  0  0  0  0  0  0  0
   38.3550   27.1310   42.9370 C   0  0  0  0  0  0  0  0  0  0  0  0
   39.2000   28.1820   43.0090 N   0  0  0  0  0  0  0  0  0  0  0  0
   39.8470   28.6070   41.9050 C   0  0  0  0  0  0  0  0  0  0  0  0
   39.6880   28.0280   40.7120 N   0  0  0  0  0  0  0  0  0  0  0  0
   38.7660   26.5520   39.6140 H   0  0  0  0  0  0  0  0  0  0  0  0
   37.8100   26.7460   43.7880 H   0  0  0  0  0  0  0  0  0  0  0  0
   37.2400   25.3150   41.5150 C   0  0  0  0  0  0  0  0  0  0  0  0
   38.0860   24.2540   41.2480 F   0  0  0  0  0  0  0  0  0  0  0  0
   36.4670   25.5520   40.4300 F   0  0  0  0  0  0  0  0  0  0  0  0
   36.5020   25.1340   42.6760 F   0  0  0  0  0  0  0  0  0  0  0  0
   41.2680   33.0990   40.5830 O   0  0  0  0  0  0  0  0  0  0  0  0
   40.0310   35.2200   39.7510 O   0  0  0  0  0  0  0  0  0  0  0  0
   39.7830   33.7780   40.1570 P   0  0  2  0  0  0  0  0  0  0  0  0
   38.8180   33.8180   41.5550 O   0  0  0  0  0  0  0  0  0  0  0  0
   38.5900   32.9270   41.8880 H   0  0  0  0  0  0  0  0  0  0  0  0
   38.9810   32.9600   38.9350 O   0  0  0  0  0  0  0  0  0  0  0  0
   37.6630   32.6720   39.1830 C   0  0  0  0  0  0  0  0  0  0  0  0
   37.5710   32.3760   40.2580 H   0  0  0  0  0  0  0  0  0  0  0  0
   36.9950   33.5040   38.9710 H   0  0  0  0  0  0  0  0  0  0  0  0
   37.3340   31.4340   38.3550 C   0  0  0  0  0  0  0  0  0  0  0  0
   36.3360   31.5350   37.8830 H   0  0  0  0  0  0  0  0  0  0  0  0
   38.0730   31.3050   37.5630 H   0  0  0  0  0  0  0  0  0  0  0  0
   37.3060   30.1930   39.2150 C   0  0  0  0  0  3  0  0  0  0  0  0
   36.7210   30.4260   40.5680 C   0  0  0  0  0  2  0  0  0  0  0  0
   35.8850   29.2260   40.9640 C   0  0  0  0  0  2  0  0  0  0  0  0
   34.6470   29.1030   40.1030 C   0  0  0  0  0  2  0  0  0  0  0  0
   35.0790   29.1980   38.6560 C   0  0  0  0  0  2  0  0  0  0  0  0
   36.5730   29.1080   38.4980 C   0  0  0  0  0  2  0  0  0  0  0  0
  1  9  2  0  0  0  0
  1  2  1  0  0  0  0
  2  3  2  0  0  0  0
  3  4  1  0  0  0  0
  3 11  1  0  0  0  0
  4  5  1  0  0  0  0
  5 12  1  0  0  0  0
  6  5  1  0  0  0  0
  6 13  1  0  0  0  0
  7  6  2  0  0  0  0
  8  7  1  0  0  0  0
  8  4  2  0  0  0  0
  9  8  1  0  0  0  0
 10  1  1  0  0  0  0
 14 19  2  0  0  0  0
 14 15  1  0  0  0  0
 15 16  2  0  0  0  0
 16 17  1  0  0  0  0
 16 21  1  0  0  0  0
 18  2  1  0  0  0  0
 18 17  2  0  0  0  0
 19 18  1  0  0  0  0
 20 14  1  0  0  0  0
 22 15  1  0  0  0  0
 22 25  1  0  0  0  0
 23 22  1  0  0  0  0
 24 22  1  0  0  0  0
 26  9  1  0  0  0  0
 28 27  2  6  0  0  0
 28 26  1  0  0  0  0
 28 29  1  0  0  0  0
 29 30  1  0  0  0  0
 31 32  1  0  0  0  0
 31 28  1  0  0  0  0
 32 33  1  0  0  0  0
 34 32  1  0  0  0  0
 35 32  1  0  0  0  0
 35 38  1  0  0  0  0
 36 35  1  0  0  0  0
 37 35  1  0  0  0  0
 38 39  1  0  0  0  0
 39 40  1  0  0  0  0
 41 40  1  0  0  0  0
 42 41  1  0  0  0  0
 43 42  1  0  0  0  0
 43 38  1  0  0  0  0
M  END
>  <minimizedAffinity>
-6.17467594

$$$$

 OpenBabel03242513453D

 43 46  0  0  0  0  0  0  0  0999 V2000
   39.7250   30.5430   41.3880 C   0  0  0  0  0  0  0  0  0  0  0  0
   38.4470   30.1300   41.0800 C   0  0  0  0  0  0  0  0  0  0  0  0
   37.5650   31.0740   40.6290 C   0  0  0  0  0  0  0  0  0  0  0  0
   37.8890   32.3970   40.4700 C   0  0  0  0  0  0  0  0  0  0  0  0
   37.2690   33.5400   40.0590 N   0  0  0  0  0  0  0  0  0  0  0  0
   38.1520   34.5830   40.1250 C   0  0  0  0  0  0  0  0  0  0  0  0
   39.3130   34.0760   40.5770 N   0  0  0  0  0  0  0  0  0  0  0  0
   39.1750   32.7590   40.7910 C   0  0  0  0  0  0  0  0  0  0  0  0
   40.1050   31.8770   41.2450 C   0  0  0  0  0  0  0  0  0  0  0  0
   40.4680   29.8370   41.7510 H   0  0  0  0  0  0  0  0  0  0  0  0
   36.5460   30.7810   40.3750 H   0  0  0  0  0  0  0  0  0  0  0  0
   36.2550   33.5300   39.7530 H   0  0  0  0  0  0  0  0  0  0  0  0
   37.8890   35.6020   39.8460 H   0  0  0  0  0  0  0  0  0  0  0  0
   36.9440   27.0690   42.3980 C   0  0  0  0  0  0  0  0  0  0  0  0
   37.3640   26.0920   41.4870 C   0  0  0  0  0  0  0  0  0  0  0  0
   38.1730   26.5370   40.4230 C   0  0  0  0  0  0  0  0  0  0  0  0
   38.5040   27.8420   40.3190 N   0  0  0  0  0  0  0  0  0  0  0  0
   38.0610   28.7270   41.2350 C   0  0  0  0  0  0  0  0  0  0  0  0
   37.2930   28.3690   42.2670 N   0  0  0  0  0  0  0  0  0  0  0  0
   36.3220   26.8470   43.2550 H   0  0  0  0  0  0  0  0  0  0  0  0
   38.4970   25.7830   39.7180 H   0  0  0  0  0  0  0  0  0  0  0  0
   36.9410   24.6880   41.6980 C   0  0  0  0  0  0  0  0  0  0  0  0
   36.2400   24.7100   42.8910 F   0  0  0  0  0  0  0  0  0  0  0  0
   38.0490   23.9240   41.8460 F   0  0  0  0  0  0  0  0  0  0  0  0
   36.1560   24.2990   40.6210 F   0  0  0  0  0  0  0  0  0  0  0  0
   41.3890   32.3000   41.5520 O   0  0  0  0  0  0  0  0  0  0  0  0
   43.9580   32.5580   41.3190 O   0  0  0  0  0  0  0  0  0  0  0  0
   42.8080   31.6600   40.8990 P   0  0  2  0  0  0  0  0  0  0  0  0
   42.6880   31.7690   39.2070 O   0  0  0  0  0  0  0  0  0  0  0  0
   41.9780   31.2090   38.8370 H   0  0  0  0  0  0  0  0  0  0  0  0
   43.1140   30.0760   41.3470 O   0  0  0  0  0  0  0  0  0  0  0  0
   43.1010   29.8310   42.6960 C   0  0  0  0  0  0  0  0  0  0  0  0
   43.9940   30.3320   43.1460 H   0  0  0  0  0  0  0  0  0  0  0  0
   42.1950   30.1780   43.1870 H   0  0  0  0  0  0  0  0  0  0  0  0
   43.3110   28.3280   42.8580 C   0  0  0  0  0  0  0  0  0  0  0  0
   43.1400   27.8050   41.8960 H   0  0  0  0  0  0  0  0  0  0  0  0
   44.3340   28.1250   43.1780 H   0  0  0  0  0  0  0  0  0  0  0  0
   42.3510   27.7470   43.8680 C   0  0  0  0  0  3  0  0  0  0  0  0
   40.9280   27.7850   43.4190 C   0  0  0  0  0  2  0  0  0  0  0  0
   40.2320   26.5140   43.8610 C   0  0  0  0  0  2  0  0  0  0  0  0
   40.7620   25.3050   43.1230 C   0  0  0  0  0  2  0  0  0  0  0  0
   42.2720   25.3330   43.2150 C   0  0  0  0  0  2  0  0  0  0  0  0
   42.7650   26.3530   44.2050 C   0  0  0  0  0  2  0  0  0  0  0  0
  1 10  1  0  0  0  0
  2 18  1  0  0  0  0
  2  1  2  0  0  0  0
  3  2  1  0  0  0  0
  4  3  2  0  0  0  0
  4  8  1  0  0  0  0
  5  6  1  0  0  0  0
  5  4  1  0  0  0  0
  6  7  2  0  0  0  0
  7  8  1  0  0  0  0
  8  9  2  0  0  0  0
  9  1  1  0  0  0  0
  9 26  1  0  0  0  0
 11  3  1  0  0  0  0
 12  5  1  0  0  0  0
 13  6  1  0  0  0  0
 14 20  1  0  0  0  0
 15 22  1  0  0  0  0
 15 14  2  0  0  0  0
 16 15  1  0  0  0  0
 17 16  2  0  0  0  0
 17 18  1  0  0  0  0
 18 19  2  0  0  0  0
 19 14  1  0  0  0  0
 21 16  1  0  0  0  0
 22 24  1  0  0  0  0
 22 23  1  0  0  0  0
 25 22  1  0  0  0  0
 28 27  2  1  0  0  0
 28 31  1  0  0  0  0
 28 26  1  0  0  0  0
 29 28  1  0  0  0  0
 30 29  1  0  0  0  0
 31 32  1  0  0  0  0
 32 35  1  0  0  0  0
 32 33  1  0  0  0  0
 32 34  1  0  0  0  0
 35 37  1  0  0  0  0
 35 38  1  0  0  0  0
 36 35  1  0  0  0  0
 38 43  1  0  0  0  0
 39 40  1  0  0  0  0
 39 38  1  0  0  0  0
 41 42  1  0  0  0  0
 41 40  1  0  0  0  0
 42 43  1  0  0  0  0
M  END
>  <minimizedAffinity>
-6.10991812

$$$$

 OpenBabel03242513453D

 43 46  0  0  0  0  0  0  0  0999 V2000
   40.0420   28.6690   40.9950 C   0  0  0  0  0  0  0  0  0  0  0  0
   39.7390   29.9860   41.2640 C   0  0  0  0  0  0  0  0  0  0  0  0
   38.8150   30.2390   42.2420 C   0  0  0  0  0  0  0  0  0  0  0  0
   38.1850   29.2550   42.9600 C   0  0  0  0  0  0  0  0  0  0  0  0
   37.2580   29.1770   43.9570 N   0  0  0  0  0  0  0  0  0  0  0  0
   37.0270   27.8630   44.2600 C   0  0  0  0  0  0  0  0  0  0  0  0
   37.8150   27.1370   43.4460 N   0  0  0  0  0  0  0  0  0  0  0  0
   38.5210   27.9580   42.6540 C   0  0  0  0  0  0  0  0  0  0  0  0
   39.4280   27.6310   41.6960 C   0  0  0  0  0  0  0  0  0  0  0  0
   40.7680   28.4090   40.2280 H   0  0  0  0  0  0  0  0  0  0  0  0
   38.5530   31.2700   42.4800 H   0  0  0  0  0  0  0  0  0  0  0  0
   36.8330   30.0520   44.3750 H   0  0  0  0  0  0  0  0  0  0  0  0
   36.3240   27.5450   45.0270 H   0  0  0  0  0  0  0  0  0  0  0  0
   40.5850   33.3110   40.0020 C   0  0  0  0  0  0  0  0  0  0  0  0
   41.6340   33.0540   39.1100 C   0  0  0  0  0  0  0  0  0  0  0  0
   42.0210   31.7070   38.9730 C   0  0  0  0  0  0  0  0  0  0  0  0
   41.3920   30.7420   39.6800 N   0  0  0  0  0  0  0  0  0  0  0  0
   40.3890   31.0660   40.5210 C   0  0  0  0  0  0  0  0  0  0  0  0
   39.9750   32.3230   40.6950 N   0  0  0  0  0  0  0  0  0  0  0  0
   40.2010   34.3050   40.1900 H   0  0  0  0  0  0  0  0  0  0  0  0
   42.8310   31.5080   38.2850 H   0  0  0  0  0  0  0  0  0  0  0  0
   42.2520   34.1890   38.3870 C   0  0  0  0  0  0  0  0  0  0  0  0
   41.4790   35.2850   38.7300 F   0  0  0  0  0  0  0  0  0  0  0  0
   42.1400   33.9630   37.0580 F   0  0  0  0  0  0  0  0  0  0  0  0
   43.5700   34.3120   38.8060 F   0  0  0  0  0  0  0  0  0  0  0  0
   39.7290   26.3030   41.4310 O   0  0  0  0  0  0  0  0  0  0  0  0
   38.0220   24.3720   41.1500 O   0  0  0  0  0  0  0  0  0  0  0  0
   38.8990   25.3140   40.3440 P   0  0  2  0  0  0  0  0  0  0  0  0
   40.0500   24.3530   39.5440 O   0  0  0  0  0  0  0  0  0  0  0  0
   40.6580   24.8730   38.9820 H   0  0  0  0  0  0  0  0  0  0  0  0
   37.9780   26.1500   39.2240 O   0  0  0  0  0  0  0  0  0  0  0  0
   36.6490   26.2870   39.5360 C   0  0  0  0  0  0  0  0  0  0  0  0
   36.1840   25.2700   39.5160 H   0  0  0  0  0  0  0  0  0  0  0  0
   36.4810   26.7510   40.5050 H   0  0  0  0  0  0  0  0  0  0  0  0
   36.0220   27.0800   38.3930 C   0  0  0  0  0  0  0  0  0  0  0  0
   36.8040   27.4440   37.6970 H   0  0  0  0  0  0  0  0  0  0  0  0
   35.3340   26.4470   37.8300 H   0  0  0  0  0  0  0  0  0  0  0  0
   35.2770   28.2870   38.9100 C   0  0  0  0  0  3  0  0  0  0  0  0
   35.7830   28.7740   40.2260 C   0  0  0  0  0  2  0  0  0  0  0  0
   35.7600   30.2890   40.2400 C   0  0  0  0  0  2  0  0  0  0  0  0
   36.7740   30.8690   39.2790 C   0  0  0  0  0  2  0  0  0  0  0  0
   36.5860   30.1870   37.9420 C   0  0  0  0  0  2  0  0  0  0  0  0
   35.3210   29.3740   37.8870 C   0  0  0  0  0  2  0  0  0  0  0  0
  1  2  2  0  0  0  0
  1  9  1  0  0  0  0
  2  3  1  0  0  0  0
  3 11  1  0  0  0  0
  3  4  2  0  0  0  0
  4  5  1  0  0  0  0
  5  6  1  0  0  0  0
  5 12  1  0  0  0  0
  6 13  1  0  0  0  0
  7  6  2  0  0  0  0
  8  4  1  0  0  0  0
  8  7  1  0  0  0  0
  9  8  2  0  0  0  0
 10  1  1  0  0  0  0
 14 20  1  0  0  0  0
 14 19  1  0  0  0  0
 15 14  2  0  0  0  0
 16 15  1  0  0  0  0
 16 17  2  0  0  0  0
 17 18  1  0  0  0  0
 18 19  2  0  0  0  0
 18  2  1  0  0  0  0
 21 16  1  0  0  0  0
 22 23  1  0  0  0  0
 22 25  1  0  0  0  0
 22 15  1  0  0  0  0
 24 22  1  0  0  0  0
 26  9  1  0  0  0  0
 28 27  2  1  0  0  0
 28 26  1  0  0  0  0
 29 28  1  0  0  0  0
 30 29  1  0  0  0  0
 31 32  1  0  0  0  0
 31 28  1  0  0  0  0
 32 34  1  0  0  0  0
 33 32  1  0  0  0  0
 35 38  1  0  0  0  0
 35 32  1  0  0  0  0
 36 35  1  0  0  0  0
 37 35  1  0  0  0  0
 38 39  1  0  0  0  0
 39 40  1  0  0  0  0
 41 40  1  0  0  0  0
 42 41  1  0  0  0  0
 43 42  1  0  0  0  0
 43 38  1  0  0  0  0
M  END
>  <minimizedAffinity>
-6.10819864

$$$$

 OpenBabel03242513453D

 43 46  0  0  0  0  0  0  0  0999 V2000
   40.1520   30.4890   40.9300 C   0  0  0  0  0  0  0  0  0  0  0  0
   40.3970   29.2250   40.4400 C   0  0  0  0  0  0  0  0  0  0  0  0
   41.4680   29.0630   39.6040 C   0  0  0  0  0  0  0  0  0  0  0  0
   42.3020   30.0890   39.2360 C   0  0  0  0  0  0  0  0  0  0  0  0
   43.4070   30.2520   38.4540 N   0  0  0  0  0  0  0  0  0  0  0  0
   43.7940   31.5640   38.4860 C   0  0  0  0  0  0  0  0  0  0  0  0
   42.9230   32.2030   39.2890 N   0  0  0  0  0  0  0  0  0  0  0  0
   42.0150   31.3300   39.7510 C   0  0  0  0  0  0  0  0  0  0  0  0
   40.9690   31.5660   40.5860 C   0  0  0  0  0  0  0  0  0  0  0  0
   39.3150   30.6770   41.5990 H   0  0  0  0  0  0  0  0  0  0  0  0
   41.6910   28.0760   39.1990 H   0  0  0  0  0  0  0  0  0  0  0  0
   43.8340   29.4330   37.9370 H   0  0  0  0  0  0  0  0  0  0  0  0
   44.6560   31.9420   37.9390 H   0  0  0  0  0  0  0  0  0  0  0  0
   38.4140   26.1600   40.2440 C   0  0  0  0  0  0  0  0  0  0  0  0
   37.9120   26.0240   41.5450 C   0  0  0  0  0  0  0  0  0  0  0  0
   38.2850   27.0210   42.4660 C   0  0  0  0  0  0  0  0  0  0  0  0
   39.0860   28.0390   42.0810 N   0  0  0  0  0  0  0  0  0  0  0  0
   39.5320   28.1040   40.8100 C   0  0  0  0  0  0  0  0  0  0  0  0
   39.2140   27.1910   39.8890 N   0  0  0  0  0  0  0  0  0  0  0  0
   38.1950   25.4570   39.4510 H   0  0  0  0  0  0  0  0  0  0  0  0
   37.8980   26.9160   43.4700 H   0  0  0  0  0  0  0  0  0  0  0  0
   37.0410   24.8670   41.8570 C   0  0  0  0  0  0  0  0  0  0  0  0
   36.2900   24.6740   40.7100 F   0  0  0  0  0  0  0  0  0  0  0  0
   36.2180   25.2120   42.8740 F   0  0  0  0  0  0  0  0  0  0  0  0
   37.8470   23.7780   42.1590 F   0  0  0  0  0  0  0  0  0  0  0  0
   40.7290   32.8410   41.0760 O   0  0  0  0  0  0  0  0  0  0  0  0
   40.5830   35.0780   39.7730 O   0  0  0  0  0  0  0  0  0  0  0  0
   39.7110   33.9830   40.3630 P   0  0  2  0  0  0  0  0  0  0  0  0
   38.7950   34.6980   41.6040 O   0  0  0  0  0  0  0  0  0  0  0  0
   38.1850   34.0690   42.0390 H   0  0  0  0  0  0  0  0  0  0  0  0
   38.6930   33.3570   39.1910 O   0  0  0  0  0  0  0  0  0  0  0  0
   37.4750   32.9160   39.6420 C   0  0  0  0  0  0  0  0  0  0  0  0
   37.6280   32.4450   40.6450 H   0  0  0  0  0  0  0  0  0  0  0  0
   36.7310   33.7070   39.7150 H   0  0  0  0  0  0  0  0  0  0  0  0
   37.0470   31.8000   38.6920 C   0  0  0  0  0  0  0  0  0  0  0  0
   36.0170   31.9760   38.3240 H   0  0  0  0  0  0  0  0  0  0  0  0
   37.7140   31.7650   37.8310 H   0  0  0  0  0  0  0  0  0  0  0  0
   37.0590   30.4590   39.3860 C   0  0  0  0  0  3  0  0  0  0  0  0
   36.2340   30.4300   40.6280 C   0  0  0  0  0  2  0  0  0  0  0  0
   35.5270   29.0930   40.7270 C   0  0  0  0  0  2  0  0  0  0  0  0
   34.4770   28.9390   39.6500 C   0  0  0  0  0  2  0  0  0  0  0  0
   35.1200   29.2850   38.3250 C   0  0  0  0  0  2  0  0  0  0  0  0
   36.6170   29.4010   38.4290 C   0  0  0  0  0  2  0  0  0  0  0  0
  1 10  1  0  0  0  0
  2 18  1  0  0  0  0
  2  1  2  0  0  0  0
  3  2  1  0  0  0  0
  4  3  2  0  0  0  0
  4  8  1  0  0  0  0
  5  6  1  0  0  0  0
  5  4  1  0  0  0  0
  6  7  2  0  0  0  0
  7  8  1  0  0  0  0
  8  9  2  0  0  0  0
  9  1  1  0  0  0  0
  9 26  1  0  0  0  0
 11  3  1  0  0  0  0
 12  5  1  0  0  0  0
 13  6  1  0  0  0  0
 14 15  1  0  0  0  0
 15 22  1  0  0  0  0
 15 16  2  0  0  0  0
 16 21  1  0  0  0  0
 17 16  1  0  0  0  0
 18 17  2  0  0  0  0
 19 14  2  0  0  0  0
 19 18  1  0  0  0  0
 20 14  1  0  0  0  0
 22 25  1  0  0  0  0
 22 24  1  0  0  0  0
 23 22  1  0  0  0  0
 28 27  2  6  0  0  0
 28 26  1  0  0  0  0
 28 29  1  0  0  0  0
 29 30  1  0  0  0  0
 31 32  1  0  0  0  0
 31 28  1  0  0  0  0
 32 34  1  0  0  0  0
 32 33  1  0  0  0  0
 35 38  1  0  0  0  0
 35 32  1  0  0  0  0
 36 35  1  0  0  0  0
 37 35  1  0  0  0  0
 38 39  1  0  0  0  0
 39 40  1  0  0  0  0
 41 40  1  0  0  0  0
 42 43  1  0  0  0  0
 42 41  1  0  0  0  0
 43 38  1  0  0  0  0
M  END
>  <minimizedAffinity>
-6.10327673

$$$$

 OpenBabel03242513453D

 43 46  0  0  0  0  0  0  0  0999 V2000
   39.8880   30.1530   39.9110 C   0  0  0  0  0  0  0  0  0  0  0  0
   38.6880   29.8540   40.5190 C   0  0  0  0  0  0  0  0  0  0  0  0
   37.8280   30.8880   40.7730 C   0  0  0  0  0  0  0  0  0  0  0  0
   38.1010   32.1940   40.4530 C   0  0  0  0  0  0  0  0  0  0  0  0
   37.4840   33.4050   40.5670 N   0  0  0  0  0  0  0  0  0  0  0  0
   38.2930   34.3770   40.0440 C   0  0  0  0  0  0  0  0  0  0  0  0
   39.4070   33.7580   39.6110 N   0  0  0  0  0  0  0  0  0  0  0  0
   39.3100   32.4400   39.8490 C   0  0  0  0  0  0  0  0  0  0  0  0
   40.2140   31.4650   39.5660 C   0  0  0  0  0  0  0  0  0  0  0  0
   40.6100   29.3720   39.6850 H   0  0  0  0  0  0  0  0  0  0  0  0
   36.8700   30.6860   41.2510 H   0  0  0  0  0  0  0  0  0  0  0  0
   36.5240   33.4880   41.0060 H   0  0  0  0  0  0  0  0  0  0  0  0
   38.0180   35.4290   40.0210 H   0  0  0  0  0  0  0  0  0  0  0  0
   37.0470   26.5880   40.6010 C   0  0  0  0  0  0  0  0  0  0  0  0
   37.7770   25.8910   41.5720 C   0  0  0  0  0  0  0  0  0  0  0  0
   38.8370   26.5920   42.1790 C   0  0  0  0  0  0  0  0  0  0  0  0
   39.1060   27.8660   41.8180 N   0  0  0  0  0  0  0  0  0  0  0  0
   38.3590   28.4740   40.8740 C   0  0  0  0  0  0  0  0  0  0  0  0
   37.3400   27.8640   40.2630 N   0  0  0  0  0  0  0  0  0  0  0  0
   36.2110   26.1550   40.0680 H   0  0  0  0  0  0  0  0  0  0  0  0
   39.4020   26.0540   42.9280 H   0  0  0  0  0  0  0  0  0  0  0  0
   37.3940   24.4960   41.8890 C   0  0  0  0  0  0  0  0  0  0  0  0
   37.1440   23.9130   40.6590 F   0  0  0  0  0  0  0  0  0  0  0  0
   36.2500   24.5190   42.6110 F   0  0  0  0  0  0  0  0  0  0  0  0
   38.4480   23.8940   42.5630 F   0  0  0  0  0  0  0  0  0  0  0  0
   41.4190   31.7740   38.9540 O   0  0  0  0  0  0  0  0  0  0  0  0
   42.3460   33.4820   37.2390 O   0  0  0  0  0  0  0  0  0  0  0  0
   41.6110   32.1560   37.3210 P   0  0  2  0  0  0  0  0  0  0  0  0
   40.0630   32.4100   36.6680 O   0  0  0  0  0  0  0  0  0  0  0  0
   39.5130   31.6010   36.6630 H   0  0  0  0  0  0  0  0  0  0  0  0
   42.4190   30.9880   36.4340 O   0  0  0  0  0  0  0  0  0  0  0  0
   42.7180   29.8340   37.1120 C   0  0  0  0  0  0  0  0  0  0  0  0
   43.6130   29.3710   36.6260 H   0  0  0  0  0  0  0  0  0  0  0  0
   42.9130   29.9950   38.1700 H   0  0  0  0  0  0  0  0  0  0  0  0
   41.5470   28.8840   36.8730 C   0  0  0  0  0  0  0  0  0  0  0  0
   40.7120   29.1150   37.5650 H   0  0  0  0  0  0  0  0  0  0  0  0
   41.1810   28.9890   35.8510 H   0  0  0  0  0  0  0  0  0  0  0  0
   41.9510   27.4490   37.1110 C   0  0  0  0  0  3  0  0  0  0  0  0
   42.2750   27.1560   38.5380 C   0  0  0  0  0  2  0  0  0  0  0  0
   41.7560   25.7780   38.8950 C   0  0  0  0  0  2  0  0  0  0  0  0
   40.2440   25.7390   38.9020 C   0  0  0  0  0  2  0  0  0  0  0  0
   39.7600   26.3450   37.6030 C   0  0  0  0  0  2  0  0  0  0  0  0
   40.8760   26.5410   36.6120 C   0  0  0  0  0  2  0  0  0  0  0  0
  1  2  1  0  0  0  0
  2  3  2  0  0  0  0
  2 18  1  0  0  0  0
  3 11  1  0  0  0  0
  4  5  1  0  0  0  0
  4  3  1  0  0  0  0
  5 12  1  0  0  0  0
  6  5  1  0  0  0  0
  7  8  1  0  0  0  0
  7  6  2  0  0  0  0
  8  4  2  0  0  0  0
  9  8  1  0  0  0  0
  9  1  2  0  0  0  0
 10  1  1  0  0  0  0
 13  6  1  0  0  0  0
 14 15  1  0  0  0  0
 15 22  1  0  0  0  0
 15 16  2  0  0  0  0
 16 21  1  0  0  0  0
 17 16  1  0  0  0  0
 18 17  2  0  0  0  0
 19 14  2  0  0  0  0
 19 18  1  0  0  0  0
 20 14  1  0  0  0  0
 22 25  1  0  0  0  0
 22 24  1  0  0  0  0
 23 22  1  0  0  0  0
 26  9  1  0  0  0  0
 28 27  2  6  0  0  0
 28 26  1  0  0  0  0
 29 28  1  0  0  0  0
 30 29  1  0  0  0  0
 31 32  1  0  0  0  0
 31 28  1  0  0  0  0
 32 34  1  0  0  0  0
 33 32  1  0  0  0  0
 35 38  1  0  0  0  0
 35 32  1  0  0  0  0
 35 36  1  0  0  0  0
 37 35  1  0  0  0  0
 38 39  1  0  0  0  0
 39 40  1  0  0  0  0
 40 41  1  0  0  0  0
 42 41  1  0  0  0  0
 43 38  1  0  0  0  0
 43 42  1  0  0  0  0
M  END
>  <minimizedAffinity>
-5.93547106

$$$$

 OpenBabel03242513453D

 43 46  0  0  0  0  0  0  0  0999 V2000
   40.8160   29.0350   42.0550 C   0  0  0  0  0  0  0  0  0  0  0  0
   40.0810   30.1210   41.6310 C   0  0  0  0  0  0  0  0  0  0  0  0
   38.7850   30.2190   42.0610 C   0  0  0  0  0  0  0  0  0  0  0  0
   38.1910   29.2980   42.8850 C   0  0  0  0  0  0  0  0  0  0  0  0
   36.9720   29.1130   43.4700 N   0  0  0  0  0  0  0  0  0  0  0  0
   36.9950   27.9610   44.2090 C   0  0  0  0  0  0  0  0  0  0  0  0
   38.2290   27.4420   44.0740 N   0  0  0  0  0  0  0  0  0  0  0  0
   38.9650   28.2340   43.2800 C   0  0  0  0  0  0  0  0  0  0  0  0
   40.2580   28.0700   42.8930 C   0  0  0  0  0  0  0  0  0  0  0  0
   41.8500   28.9060   41.7450 H   0  0  0  0  0  0  0  0  0  0  0  0
   38.1760   31.0650   41.7450 H   0  0  0  0  0  0  0  0  0  0  0  0
   36.1860   29.8060   43.3200 H   0  0  0  0  0  0  0  0  0  0  0  0
   36.1350   27.6000   44.7700 H   0  0  0  0  0  0  0  0  0  0  0  0
   42.5240   32.0020   39.6660 C   0  0  0  0  0  0  0  0  0  0  0  0
   41.7550   33.0280   39.1020 C   0  0  0  0  0  0  0  0  0  0  0  0
   40.3850   33.0330   39.4300 C   0  0  0  0  0  0  0  0  0  0  0  0
   39.8760   32.0850   40.2460 N   0  0  0  0  0  0  0  0  0  0  0  0
   40.6790   31.1260   40.7520 C   0  0  0  0  0  0  0  0  0  0  0  0
   41.9850   31.0660   40.4800 N   0  0  0  0  0  0  0  0  0  0  0  0
   43.5860   31.8950   39.4880 H   0  0  0  0  0  0  0  0  0  0  0  0
   39.7910   33.8250   38.9950 H   0  0  0  0  0  0  0  0  0  0  0  0
   42.4180   34.0160   38.2210 C   0  0  0  0  0  0  0  0  0  0  0  0
   43.7230   34.0710   38.6760 F   0  0  0  0  0  0  0  0  0  0  0  0
   41.8300   35.2210   38.4090 F   0  0  0  0  0  0  0  0  0  0  0  0
   42.3250   33.5680   36.9100 F   0  0  0  0  0  0  0  0  0  0  0  0
   40.9920   26.9760   43.3240 O   0  0  0  0  0  0  0  0  0  0  0  0
   39.9110   24.6210   43.2390 O   0  0  0  0  0  0  0  0  0  0  0  0
   40.9990   25.4560   42.5880 P   0  0  2  0  0  0  0  0  0  0  0  0
   42.4810   24.7130   42.9620 O   0  0  0  0  0  0  0  0  0  0  0  0
   43.2490   25.1750   42.5700 H   0  0  0  0  0  0  0  0  0  0  0  0
   40.7850   25.4980   40.9290 O   0  0  0  0  0  0  0  0  0  0  0  0
   39.4830   25.4530   40.5000 C   0  0  0  0  0  0  0  0  0  0  0  0
   39.3790   24.5810   39.8070 H   0  0  0  0  0  0  0  0  0  0  0  0
   38.7650   25.3660   41.3120 H   0  0  0  0  0  0  0  0  0  0  0  0
   39.2660   26.7100   39.6620 C   0  0  0  0  0  0  0  0  0  0  0  0
   39.5120   27.6170   40.2500 H   0  0  0  0  0  0  0  0  0  0  0  0
   39.9100   26.6900   38.7820 H   0  0  0  0  0  0  0  0  0  0  0  0
   37.8260   26.8310   39.2220 C   0  0  0  0  0  3  0  0  0  0  0  0
   36.8980   27.1900   40.3340 C   0  0  0  0  0  2  0  0  0  0  0  0
   35.8500   28.1550   39.8160 C   0  0  0  0  0  2  0  0  0  0  0  0
   36.4540   29.4960   39.4660 C   0  0  0  0  0  2  0  0  0  0  0  0
   37.6580   29.2450   38.5840 C   0  0  0  0  0  2  0  0  0  0  0  0
   37.7290   27.8200   38.1080 C   0  0  0  0  0  2  0  0  0  0  0  0
  1  9  1  0  0  0  0
  2  1  2  0  0  0  0
  2  3  1  0  0  0  0
  3  4  2  0  0  0  0
  4  8  1  0  0  0  0
  4  5  1  0  0  0  0
  5  6  1  0  0  0  0
  6 13  1  0  0  0  0
  7  6  2  0  0  0  0
  8  7  1  0  0  0  0
  9  8  2  0  0  0  0
  9 26  1  0  0  0  0
 10  1  1  0  0  0  0
 11  3  1  0  0  0  0
 12  5  1  0  0  0  0
 14 19  1  0  0  0  0
 15 16  1  0  0  0  0
 15 14  2  0  0  0  0
 16 17  2  0  0  0  0
 17 18  1  0  0  0  0
 18  2  1  0  0  0  0
 19 18  2  0  0  0  0
 20 14  1  0  0  0  0
 21 16  1  0  0  0  0
 22 24  1  0  0  0  0
 22 23  1  0  0  0  0
 22 15  1  0  0  0  0
 25 22  1  0  0  0  0
 28 29  1  0  0  0  0
 28 27  2  1  0  0  0
 28 26  1  0  0  0  0
 30 29  1  0  0  0  0
 31 28  1  0  0  0  0
 32 31  1  0  0  0  0
 32 34  1  0  0  0  0
 33 32  1  0  0  0  0
 35 36  1  0  0  0  0
 35 32  1  0  0  0  0
 37 35  1  0  0  0  0
 38 35  1  0  0  0  0
 38 39  1  0  0  0  0
 40 39  1  0  0  0  0
 41 40  1  0  0  0  0
 42 41  1  0  0  0  0
 43 42  1  0  0  0  0
 43 38  1  0  0  0  0
M  END
>  <minimizedAffinity>
-5.92832899

$$$$

 OpenBabel03242513453D

 43 46  0  0  0  0  0  0  0  0999 V2000
   39.1580   31.2650   38.6900 C   0  0  0  0  0  0  0  0  0  0  0  0
   37.8020   31.4820   38.8010 C   0  0  0  0  0  0  0  0  0  0  0  0
   37.3900   32.6460   39.3920 C   0  0  0  0  0  0  0  0  0  0  0  0
   38.2550   33.5960   39.8740 C   0  0  0  0  0  0  0  0  0  0  0  0
   38.1690   34.8100   40.4910 N   0  0  0  0  0  0  0  0  0  0  0  0
   39.4300   35.2850   40.7310 C   0  0  0  0  0  0  0  0  0  0  0  0
   40.2860   34.3590   40.2610 N   0  0  0  0  0  0  0  0  0  0  0  0
   39.5960   33.3330   39.7400 C   0  0  0  0  0  0  0  0  0  0  0  0
   40.0790   32.2000   39.1640 C   0  0  0  0  0  0  0  0  0  0  0  0
   39.5430   30.3590   38.2290 H   0  0  0  0  0  0  0  0  0  0  0  0
   36.3250   32.8490   39.4950 H   0  0  0  0  0  0  0  0  0  0  0  0
   37.2300   35.2430   40.7110 H   0  0  0  0  0  0  0  0  0  0  0  0
   39.6220   36.2400   41.2160 H   0  0  0  0  0  0  0  0  0  0  0  0
   35.1000   29.0240   38.6660 C   0  0  0  0  0  0  0  0  0  0  0  0
   35.0800   28.6490   37.3160 C   0  0  0  0  0  0  0  0  0  0  0  0
   36.0250   29.2750   36.4800 C   0  0  0  0  0  0  0  0  0  0  0  0
   36.8880   30.1820   36.9880 N   0  0  0  0  0  0  0  0  0  0  0  0
   36.8470   30.4940   38.2990 C   0  0  0  0  0  0  0  0  0  0  0  0
   35.9770   29.9360   39.1440 N   0  0  0  0  0  0  0  0  0  0  0  0
   34.4240   28.6110   39.4020 H   0  0  0  0  0  0  0  0  0  0  0  0
   36.0100   28.9850   35.4380 H   0  0  0  0  0  0  0  0  0  0  0  0
   34.0900   27.6420   36.8690 C   0  0  0  0  0  0  0  0  0  0  0  0
   34.2930   26.5560   37.7030 F   0  0  0  0  0  0  0  0  0  0  0  0
   34.3840   27.2870   35.5970 F   0  0  0  0  0  0  0  0  0  0  0  0
   32.8190   28.1870   36.9990 F   0  0  0  0  0  0  0  0  0  0  0  0
   41.4450   31.9890   39.0550 O   0  0  0  0  0  0  0  0  0  0  0  0
   43.8470   31.8890   40.0270 O   0  0  0  0  0  0  0  0  0  0  0  0
   42.4380   31.3830   40.2790 P   0  0  2  0  0  0  0  0  0  0  0  0
   42.4840   29.6920   40.1100 O   0  0  0  0  0  0  0  0  0  0  0  0
   41.6180   29.2680   40.2700 H   0  0  0  0  0  0  0  0  0  0  0  0
   41.9430   31.7870   41.8260 O   0  0  0  0  0  0  0  0  0  0  0  0
   41.4870   30.7450   42.5920 C   0  0  0  0  0  0  0  0  0  0  0  0
   41.7810   29.7910   42.0870 H   0  0  0  0  0  0  0  0  0  0  0  0
   41.8720   30.7580   43.6090 H   0  0  0  0  0  0  0  0  0  0  0  0
   39.9630   30.8150   42.5440 C   0  0  0  0  0  0  0  0  0  0  0  0
   39.5450   30.9030   43.5680 H   0  0  0  0  0  0  0  0  0  0  0  0
   39.6460   31.6880   41.9720 H   0  0  0  0  0  0  0  0  0  0  0  0
   39.3780   29.5720   41.9200 C   0  0  0  0  0  3  0  0  0  0  0  0
   40.0680   28.3180   42.3410 C   0  0  0  0  0  2  0  0  0  0  0  0
   39.0410   27.2200   42.5250 C   0  0  0  0  0  2  0  0  0  0  0  0
   38.1390   27.4940   43.7080 C   0  0  0  0  0  2  0  0  0  0  0  0
   37.6210   28.9100   43.5750 C   0  0  0  0  0  2  0  0  0  0  0  0
   37.9180   29.5030   42.2240 C   0  0  0  0  0  2  0  0  0  0  0  0
  1  2  2  0  0  0  0
  1  9  1  0  0  0  0
  2  3  1  0  0  0  0
  3 11  1  0  0  0  0
  3  4  2  0  0  0  0
  4  5  1  0  0  0  0
  5 12  1  0  0  0  0
  5  6  1  0  0  0  0
  6 13  1  0  0  0  0
  7  6  2  0  0  0  0
  8  4  1  0  0  0  0
  8  7  1  0  0  0  0
  9  8  2  0  0  0  0
 10  1  1  0  0  0  0
 14 19  1  0  0  0  0
 14 20  1  0  0  0  0
 15 14  2  0  0  0  0
 16 17  2  0  0  0  0
 16 15  1  0  0  0  0
 17 18  1  0  0  0  0
 18  2  1  0  0  0  0
 18 19  2  0  0  0  0
 21 16  1  0  0  0  0
 22 25  1  0  0  0  0
 22 15  1  0  0  0  0
 22 23  1  0  0  0  0
 24 22  1  0  0  0  0
 26  9  1  0  0  0  0
 26 28  1  0  0  0  0
 28 27  2  6  0  0  0
 28 31  1  0  0  0  0
 29 30  1  0  0  0  0
 29 28  1  0  0  0  0
 31 32  1  0  0  0  0
 32 34  1  0  0  0  0
 33 32  1  0  0  0  0
 35 32  1  0  0  0  0
 35 36  1  0  0  0  0
 37 35  1  0  0  0  0
 38 43  1  0  0  0  0
 38 39  1  0  0  0  0
 38 35  1  0  0  0  0
 39 40  1  0  0  0  0
 40 41  1  0  0  0  0
 42 41  1  0  0  0  0
 43 42  1  0  0  0  0
M  END
>  <minimizedAffinity>
-5.88077164

$$$$
