
 OpenBabel03252504193D

 35 37  0  0  0  0  0  0  0  0999 V2000
   33.2270   28.6910   38.3200 F   0  0  0  0  0  0  0  0  0  0  0  0
   34.1920   28.8260   37.3450 C   0  0  0  0  0  0  0  0  0  0  0  0
   35.5160   28.7830   37.6810 C   0  0  0  0  0  0  0  0  0  0  0  0
   36.4150   28.9250   36.6450 C   0  0  0  0  0  0  0  0  0  0  0  0
   35.9840   29.0990   35.3490 C   0  0  0  0  0  0  0  0  0  0  0  0
   34.6380   29.1370   35.0620 C   0  0  0  0  0  0  0  0  0  0  0  0
   33.6900   28.9970   36.0730 C   0  0  0  0  0  0  0  0  0  0  0  0
   37.4880   28.9010   36.8470 H   0  0  0  0  0  0  0  0  0  0  0  0
   36.7000   29.2120   34.5350 H   0  0  0  0  0  0  0  0  0  0  0  0
   34.2870   29.2720   34.0490 H   0  0  0  0  0  0  0  0  0  0  0  0
   36.9330   27.1670   40.6450 C   0  0  0  0  0  0  0  0  0  0  0  0
   36.7910   28.1240   41.6380 C   0  0  0  0  0  0  0  0  0  0  0  0
   36.1980   29.3450   41.2810 C   0  0  0  0  0  0  0  0  0  0  0  0
   35.7900   29.5510   40.0050 N   0  0  0  0  0  0  0  0  0  0  0  0
   35.9480   28.5950   39.0770 C   0  0  0  0  0  0  0  0  0  0  0  0
   36.5150   27.4110   39.3920 N   0  0  0  0  0  0  0  0  0  0  0  0
   36.0690   30.1160   42.0290 H   0  0  0  0  0  0  0  0  0  0  0  0
   37.2540   27.8380   43.0030 C   0  0  0  0  0  0  0  0  0  0  0  0
   37.5000   29.0290   43.6800 F   0  0  0  0  0  0  0  0  0  0  0  0
   36.2210   27.2010   43.6790 F   0  0  0  0  0  0  0  0  0  0  0  0
   38.3650   27.0740   43.0900 F   0  0  0  0  0  0  0  0  0  0  0  0
   37.5030   25.9960   40.9900 O   0  0  0  0  0  0  0  0  0  0  0  0
   36.8670   24.7410   41.1210 C   0  0  0  0  0  0  0  0  0  0  0  0
   36.3050   24.6810   42.3770 F   0  0  0  0  0  0  0  0  0  0  0  0
   35.9520   24.6000   40.1050 F   0  0  0  0  0  0  0  0  0  0  0  0
   37.8150   23.7380   41.1010 F   0  0  0  0  0  0  0  0  0  0  0  0
   32.2180   29.0350   35.7940 C   0  0  0  0  0  0  0  0  0  0  0  0
   31.7300   28.3390   36.5020 H   0  0  0  0  0  0  0  0  0  0  0  0
   32.0820   28.6620   34.7510 H   0  0  0  0  0  0  0  0  0  0  0  0
   31.6730   30.4330   35.9500 C   0  0  0  0  0  3  0  0  0  0  0  0
   31.4320   31.1200   34.6500 C   0  0  0  0  0  2  0  0  0  0  0  0
   30.1260   31.8510   34.5820 C   0  0  0  0  0  2  0  0  0  0  0  0
   29.7660   32.6170   35.8110 C   0  0  0  0  0  2  0  0  0  0  0  0
   30.2400   31.9820   37.1030 C   0  0  0  0  0  2  0  0  0  0  0  0
   30.4360   30.4940   36.7790 C   0  0  0  0  0  2  0  0  0  0  0  0
  2  3  1  0  0  0  0
  2  1  1  0  0  0  0
  3 15  1  0  0  0  0
  4  8  1  0  0  0  0
  4  3  2  0  0  0  0
  5  4  1  0  0  0  0
  6  5  2  0  0  0  0
  6  7  1  0  0  0  0
  7  2  2  0  0  0  0
  9  5  1  0  0  0  0
 10  6  1  0  0  0  0
 11 22  1  0  0  0  0
 11 12  1  0  0  0  0
 12 18  1  0  0  0  0
 13 12  2  0  0  0  0
 13 17  1  0  0  0  0
 14 13  1  0  0  0  0
 15 16  1  0  0  0  0
 15 14  2  0  0  0  0
 16 11  2  0  0  0  0
 18 21  1  0  0  0  0
 18 20  1  0  0  0  0
 18 19  1  0  0  0  0
 22 23  1  0  0  0  0
 23 24  1  0  0  0  0
 25 23  1  0  0  0  0
 26 23  1  0  0  0  0
 27 30  1  0  0  0  0
 27  7  1  0  0  0  0
 27 28  1  0  0  0  0
 29 27  1  0  0  0  0
 30 35  1  0  0  0  0
 31 30  1  0  0  0  0
 32 31  1  0  0  0  0
 32 33  1  0  0  0  0
 33 34  1  0  0  0  0
 35 34  1  0  0  0  0
M  END
>  <minimizedAffinity>
-6.76628733

$$$$

 OpenBabel03252504193D

 35 37  0  0  0  0  0  0  0  0999 V2000
   34.0250   29.1700   38.9020 F   0  0  0  0  0  0  0  0  0  0  0  0
   34.6940   29.2200   37.6980 C   0  0  0  0  0  0  0  0  0  0  0  0
   36.0410   29.4450   37.6720 C   0  0  0  0  0  0  0  0  0  0  0  0
   36.6320   29.4780   36.4260 C   0  0  0  0  0  0  0  0  0  0  0  0
   35.8900   29.2910   35.2820 C   0  0  0  0  0  0  0  0  0  0  0  0
   34.5330   29.0680   35.3610 C   0  0  0  0  0  0  0  0  0  0  0  0
   33.8890   29.0250   36.5950 C   0  0  0  0  0  0  0  0  0  0  0  0
   37.7070   29.6550   36.3360 H   0  0  0  0  0  0  0  0  0  0  0  0
   36.3630   29.3190   34.3010 H   0  0  0  0  0  0  0  0  0  0  0  0
   33.9390   28.9200   34.4710 H   0  0  0  0  0  0  0  0  0  0  0  0
   37.7760   28.6450   40.7950 C   0  0  0  0  0  0  0  0  0  0  0  0
   38.2330   29.8760   41.2390 C   0  0  0  0  0  0  0  0  0  0  0  0
   37.9390   30.9990   40.4510 C   0  0  0  0  0  0  0  0  0  0  0  0
   37.2330   30.8540   39.3030 N   0  0  0  0  0  0  0  0  0  0  0  0
   36.8110   29.6410   38.9130 C   0  0  0  0  0  0  0  0  0  0  0  0
   37.0790   28.5430   39.6510 N   0  0  0  0  0  0  0  0  0  0  0  0
   38.2780   31.9770   40.7650 H   0  0  0  0  0  0  0  0  0  0  0  0
   38.9930   29.9650   42.4940 C   0  0  0  0  0  0  0  0  0  0  0  0
   40.0990   29.1230   42.4380 F   0  0  0  0  0  0  0  0  0  0  0  0
   39.4840   31.2610   42.6040 F   0  0  0  0  0  0  0  0  0  0  0  0
   38.3000   29.6670   43.6150 F   0  0  0  0  0  0  0  0  0  0  0  0
   38.0600   27.5670   41.5540 O   0  0  0  0  0  0  0  0  0  0  0  0
   37.1930   26.8990   42.4480 C   0  0  0  0  0  0  0  0  0  0  0  0
   36.1080   27.7160   42.6750 F   0  0  0  0  0  0  0  0  0  0  0  0
   36.8570   25.6790   41.9100 F   0  0  0  0  0  0  0  0  0  0  0  0
   37.8090   26.7670   43.6760 F   0  0  0  0  0  0  0  0  0  0  0  0
   32.4150   28.7860   36.7150 C   0  0  0  0  0  0  0  0  0  0  0  0
   32.2520   28.1810   37.6270 H   0  0  0  0  0  0  0  0  0  0  0  0
   32.1140   28.1960   35.8180 H   0  0  0  0  0  0  0  0  0  0  0  0
   31.6590   30.0890   36.7920 C   0  0  0  0  0  3  0  0  0  0  0  0
   31.2760   30.6270   35.4560 C   0  0  0  0  0  2  0  0  0  0  0  0
   29.8690   31.1370   35.3870 C   0  0  0  0  0  2  0  0  0  0  0  0
   29.4270   31.9320   36.5710 C   0  0  0  0  0  2  0  0  0  0  0  0
   30.0320   31.4810   37.8860 C   0  0  0  0  0  2  0  0  0  0  0  0
   30.4520   30.0210   37.6630 C   0  0  0  0  0  2  0  0  0  0  0  0
  2  1  1  0  0  0  0
  3  2  1  0  0  0  0
  3 15  1  0  0  0  0
  4  3  2  0  0  0  0
  5  6  2  0  0  0  0
  5  4  1  0  0  0  0
  6  7  1  0  0  0  0
  7 27  1  0  0  0  0
  7  2  2  0  0  0  0
  8  4  1  0  0  0  0
  9  5  1  0  0  0  0
 10  6  1  0  0  0  0
 11 12  1  0  0  0  0
 11 22  1  0  0  0  0
 12 18  1  0  0  0  0
 13 17  1  0  0  0  0
 13 12  2  0  0  0  0
 14 13  1  0  0  0  0
 15 14  2  0  0  0  0
 15 16  1  0  0  0  0
 16 11  2  0  0  0  0
 18 20  1  0  0  0  0
 18 21  1  0  0  0  0
 19 18  1  0  0  0  0
 22 23  1  0  0  0  0
 23 24  1  0  0  0  0
 23 26  1  0  0  0  0
 25 23  1  0  0  0  0
 27 30  1  0  0  0  0
 27 28  1  0  0  0  0
 29 27  1  0  0  0  0
 30 35  1  0  0  0  0
 31 30  1  0  0  0  0
 32 31  1  0  0  0  0
 32 33  1  0  0  0  0
 33 34  1  0  0  0  0
 35 34  1  0  0  0  0
M  END
>  <minimizedAffinity>
-6.44471645

$$$$

 OpenBabel03252504193D

 35 37  0  0  0  0  0  0  0  0999 V2000
   33.4940   28.5640   38.4300 F   0  0  0  0  0  0  0  0  0  0  0  0
   34.3850   28.8500   37.4180 C   0  0  0  0  0  0  0  0  0  0  0  0
   35.7260   28.8920   37.6770 C   0  0  0  0  0  0  0  0  0  0  0  0
   36.5470   29.1840   36.6080 C   0  0  0  0  0  0  0  0  0  0  0  0
   36.0270   29.4170   35.3550 C   0  0  0  0  0  0  0  0  0  0  0  0
   34.6670   29.3640   35.1450 C   0  0  0  0  0  0  0  0  0  0  0  0
   33.7950   29.0730   36.1920 C   0  0  0  0  0  0  0  0  0  0  0  0
   37.6290   29.2330   36.7490 H   0  0  0  0  0  0  0  0  0  0  0  0
   36.6810   29.6470   34.5150 H   0  0  0  0  0  0  0  0  0  0  0  0
   34.2460   29.5440   34.1660 H   0  0  0  0  0  0  0  0  0  0  0  0
   37.2790   29.5320   40.9300 C   0  0  0  0  0  0  0  0  0  0  0  0
   37.2710   28.2900   41.5460 C   0  0  0  0  0  0  0  0  0  0  0  0
   36.7210   27.2160   40.8300 C   0  0  0  0  0  0  0  0  0  0  0  0
   36.2250   27.4160   39.5840 N   0  0  0  0  0  0  0  0  0  0  0  0
   36.2550   28.6370   39.0280 C   0  0  0  0  0  0  0  0  0  0  0  0
   36.7770   29.6890   39.6940 N   0  0  0  0  0  0  0  0  0  0  0  0
   36.6970   26.2310   41.2770 H   0  0  0  0  0  0  0  0  0  0  0  0
   37.8250   28.1400   42.8990 C   0  0  0  0  0  0  0  0  0  0  0  0
   39.2080   28.2930   42.8630 F   0  0  0  0  0  0  0  0  0  0  0  0
   37.3290   29.1780   43.6800 F   0  0  0  0  0  0  0  0  0  0  0  0
   37.5520   26.9680   43.5110 F   0  0  0  0  0  0  0  0  0  0  0  0
   37.8070   30.5630   41.6200 O   0  0  0  0  0  0  0  0  0  0  0  0
   39.0140   31.2450   41.3470 C   0  0  0  0  0  0  0  0  0  0  0  0
   39.6740   31.4280   42.5420 F   0  0  0  0  0  0  0  0  0  0  0  0
   39.7350   30.5200   40.4290 F   0  0  0  0  0  0  0  0  0  0  0  0
   38.7330   32.5170   40.8920 F   0  0  0  0  0  0  0  0  0  0  0  0
   32.3110   29.0090   35.9960 C   0  0  0  0  0  0  0  0  0  0  0  0
   31.9070   28.3200   36.7620 H   0  0  0  0  0  0  0  0  0  0  0  0
   32.1420   28.5780   34.9810 H   0  0  0  0  0  0  0  0  0  0  0  0
   31.6890   30.3780   36.1200 C   0  0  0  0  0  3  0  0  0  0  0  0
   31.3440   30.9890   34.8070 C   0  0  0  0  0  2  0  0  0  0  0  0
   29.9940   31.6380   34.7740 C   0  0  0  0  0  2  0  0  0  0  0  0
   29.6480   32.4370   35.9860 C   0  0  0  0  0  2  0  0  0  0  0  0
   30.2220   31.8910   37.2780 C   0  0  0  0  0  2  0  0  0  0  0  0
   30.4930   30.4030   37.0080 C   0  0  0  0  0  2  0  0  0  0  0  0
  2  3  1  0  0  0  0
  2  1  1  0  0  0  0
  3 15  1  0  0  0  0
  4  8  1  0  0  0  0
  4  3  2  0  0  0  0
  5  4  1  0  0  0  0
  6  5  2  0  0  0  0
  6  7  1  0  0  0  0
  7  2  2  0  0  0  0
  9  5  1  0  0  0  0
 10  6  1  0  0  0  0
 11 12  1  0  0  0  0
 11 22  1  0  0  0  0
 12 18  1  0  0  0  0
 13 17  1  0  0  0  0
 13 12  2  0  0  0  0
 14 13  1  0  0  0  0
 15 14  2  0  0  0  0
 15 16  1  0  0  0  0
 16 11  2  0  0  0  0
 18 21  1  0  0  0  0
 18 20  1  0  0  0  0
 19 18  1  0  0  0  0
 23 22  1  0  0  0  0
 23 24  1  0  0  0  0
 25 23  1  0  0  0  0
 26 23  1  0  0  0  0
 27 30  1  0  0  0  0
 27  7  1  0  0  0  0
 27 28  1  0  0  0  0
 29 27  1  0  0  0  0
 30 35  1  0  0  0  0
 31 30  1  0  0  0  0
 32 31  1  0  0  0  0
 32 33  1  0  0  0  0
 33 34  1  0  0  0  0
 35 34  1  0  0  0  0
M  END
>  <minimizedAffinity>
-6.1799469

$$$$

 OpenBabel03252504193D

 35 37  0  0  0  0  0  0  0  0999 V2000
   33.5460   27.5810   37.6070 F   0  0  0  0  0  0  0  0  0  0  0  0
   34.5130   28.1800   36.8300 C   0  0  0  0  0  0  0  0  0  0  0  0
   35.8290   28.0950   37.1870 C   0  0  0  0  0  0  0  0  0  0  0  0
   36.7320   28.7230   36.3530 C   0  0  0  0  0  0  0  0  0  0  0  0
   36.3120   29.3920   35.2270 C   0  0  0  0  0  0  0  0  0  0  0  0
   34.9730   29.4490   34.9090 C   0  0  0  0  0  0  0  0  0  0  0  0
   34.0220   28.8320   35.7190 C   0  0  0  0  0  0  0  0  0  0  0  0
   37.7990   28.6920   36.5840 H   0  0  0  0  0  0  0  0  0  0  0  0
   37.0290   29.8850   34.5720 H   0  0  0  0  0  0  0  0  0  0  0  0
   34.6300   29.9710   34.0270 H   0  0  0  0  0  0  0  0  0  0  0  0
   36.5640   27.4470   40.7150 C   0  0  0  0  0  0  0  0  0  0  0  0
   37.0080   26.1330   40.7190 C   0  0  0  0  0  0  0  0  0  0  0  0
   37.0550   25.4610   39.4890 C   0  0  0  0  0  0  0  0  0  0  0  0
   36.6730   26.0980   38.3550 N   0  0  0  0  0  0  0  0  0  0  0  0
   36.2500   27.3710   38.3990 C   0  0  0  0  0  0  0  0  0  0  0  0
   36.1950   28.0430   39.5680 N   0  0  0  0  0  0  0  0  0  0  0  0
   37.3970   24.4350   39.4520 H   0  0  0  0  0  0  0  0  0  0  0  0
   37.4080   25.5010   41.9840 C   0  0  0  0  0  0  0  0  0  0  0  0
   36.3520   25.5450   42.8900 F   0  0  0  0  0  0  0  0  0  0  0  0
   37.6570   24.1580   41.7290 F   0  0  0  0  0  0  0  0  0  0  0  0
   38.4930   26.0370   42.5840 F   0  0  0  0  0  0  0  0  0  0  0  0
   36.5200   28.0910   41.8980 O   0  0  0  0  0  0  0  0  0  0  0  0
   37.3440   29.1570   42.3230 C   0  0  0  0  0  0  0  0  0  0  0  0
   36.7380   30.3350   41.9440 F   0  0  0  0  0  0  0  0  0  0  0  0
   37.5390   29.0530   43.6790 F   0  0  0  0  0  0  0  0  0  0  0  0
   38.5360   29.1250   41.6280 F   0  0  0  0  0  0  0  0  0  0  0  0
   32.5580   28.8780   35.4020 C   0  0  0  0  0  0  0  0  0  0  0  0
   32.1060   27.9480   35.7960 H   0  0  0  0  0  0  0  0  0  0  0  0
   32.4730   28.8910   34.2900 H   0  0  0  0  0  0  0  0  0  0  0  0
   31.9090   30.0940   36.0150 C   0  0  0  0  0  3  0  0  0  0  0  0
   31.5240   31.1250   35.0100 C   0  0  0  0  0  2  0  0  0  0  0  0
   30.1600   31.7050   35.2270 C   0  0  0  0  0  2  0  0  0  0  0  0
   29.8210   32.0080   36.6480 C   0  0  0  0  0  2  0  0  0  0  0  0
   30.4330   31.0520   37.6530 C   0  0  0  0  0  2  0  0  0  0  0  0
   30.7300   29.7680   36.8660 C   0  0  0  0  0  2  0  0  0  0  0  0
  2  3  1  0  0  0  0
  2  1  1  0  0  0  0
  3 15  1  0  0  0  0
  4  8  1  0  0  0  0
  4  3  2  0  0  0  0
  5  4  1  0  0  0  0
  6  5  2  0  0  0  0
  6  7  1  0  0  0  0
  7  2  2  0  0  0  0
  9  5  1  0  0  0  0
 10  6  1  0  0  0  0
 11 12  1  0  0  0  0
 11 22  1  0  0  0  0
 12 18  1  0  0  0  0
 13 12  2  0  0  0  0
 14 15  2  0  0  0  0
 14 13  1  0  0  0  0
 15 16  1  0  0  0  0
 16 11  2  0  0  0  0
 17 13  1  0  0  0  0
 18 21  1  0  0  0  0
 18 19  1  0  0  0  0
 20 18  1  0  0  0  0
 22 23  1  0  0  0  0
 23 25  1  0  0  0  0
 24 23  1  0  0  0  0
 26 23  1  0  0  0  0
 27  7  1  0  0  0  0
 27 28  1  0  0  0  0
 27 30  1  0  0  0  0
 29 27  1  0  0  0  0
 30 35  1  0  0  0  0
 31 32  1  0  0  0  0
 31 30  1  0  0  0  0
 32 33  1  0  0  0  0
 33 34  1  0  0  0  0
 35 34  1  0  0  0  0
M  END
>  <minimizedAffinity>
-5.97842741

$$$$

 OpenBabel03252504193D

 35 37  0  0  0  0  0  0  0  0999 V2000
   37.1140   27.2310   41.3360 F   0  0  0  0  0  0  0  0  0  0  0  0
   38.2710   26.8740   41.9950 C   0  0  0  0  0  0  0  0  0  0  0  0
   39.2620   27.7940   42.1860 C   0  0  0  0  0  0  0  0  0  0  0  0
   40.3850   27.3540   42.8560 C   0  0  0  0  0  0  0  0  0  0  0  0
   40.4830   26.0560   43.3020 C   0  0  0  0  0  0  0  0  0  0  0  0
   39.4560   25.1650   43.0850 C   0  0  0  0  0  0  0  0  0  0  0  0
   38.3010   25.5610   42.4130 C   0  0  0  0  0  0  0  0  0  0  0  0
   41.2140   28.0410   43.0400 H   0  0  0  0  0  0  0  0  0  0  0  0
   41.3730   25.7150   43.8300 H   0  0  0  0  0  0  0  0  0  0  0  0
   39.5200   24.1440   43.4300 H   0  0  0  0  0  0  0  0  0  0  0  0
   38.7610   30.5800   39.8640 C   0  0  0  0  0  0  0  0  0  0  0  0
   38.8660   31.7020   40.6720 C   0  0  0  0  0  0  0  0  0  0  0  0
   39.1130   31.4950   42.0380 C   0  0  0  0  0  0  0  0  0  0  0  0
   39.2390   30.2340   42.5190 N   0  0  0  0  0  0  0  0  0  0  0  0
   39.1300   29.1780   41.6980 C   0  0  0  0  0  0  0  0  0  0  0  0
   38.8930   29.3470   40.3800 N   0  0  0  0  0  0  0  0  0  0  0  0
   39.2020   32.3460   42.7000 H   0  0  0  0  0  0  0  0  0  0  0  0
   38.7190   33.0420   40.0870 C   0  0  0  0  0  0  0  0  0  0  0  0
   38.9250   34.0110   41.0650 F   0  0  0  0  0  0  0  0  0  0  0  0
   39.7260   33.2080   39.1430 F   0  0  0  0  0  0  0  0  0  0  0  0
   37.5290   33.2910   39.4990 F   0  0  0  0  0  0  0  0  0  0  0  0
   38.5240   30.7810   38.5520 O   0  0  0  0  0  0  0  0  0  0  0  0
   37.3460   30.4650   37.8380 C   0  0  0  0  0  0  0  0  0  0  0  0
   37.4560   29.1650   37.3960 F   0  0  0  0  0  0  0  0  0  0  0  0
   36.2620   30.6760   38.6560 F   0  0  0  0  0  0  0  0  0  0  0  0
   37.2820   31.2320   36.6920 F   0  0  0  0  0  0  0  0  0  0  0  0
   37.1650   24.6160   42.1590 C   0  0  0  0  0  0  0  0  0  0  0  0
   36.2270   25.1740   42.3360 H   0  0  0  0  0  0  0  0  0  0  0  0
   37.2590   23.7970   42.9110 H   0  0  0  0  0  0  0  0  0  0  0  0
   37.2160   24.0760   40.7520 C   0  0  0  0  0  3  0  0  0  0  0  0
   38.1340   22.9120   40.6000 C   0  0  0  0  0  2  0  0  0  0  0  0
   37.5650   21.7900   39.7860 C   0  0  0  0  0  2  0  0  0  0  0  0
   36.8240   22.2120   38.5610 C   0  0  0  0  0  2  0  0  0  0  0  0
   36.0870   23.5290   38.7000 C   0  0  0  0  0  2  0  0  0  0  0  0
   35.8740   23.7210   40.2080 C   0  0  0  0  0  2  0  0  0  0  0  0
  1  2  1  0  0  0  0
  2  3  2  0  0  0  0
  2  7  1  0  0  0  0
  3  4  1  0  0  0  0
  4  8  1  0  0  0  0
  4  5  2  0  0  0  0
  5  9  1  0  0  0  0
  6  5  1  0  0  0  0
  6 10  1  0  0  0  0
  7  6  2  0  0  0  0
 11 16  2  0  0  0  0
 11 12  1  0  0  0  0
 12 13  2  0  0  0  0
 13 14  1  0  0  0  0
 13 17  1  0  0  0  0
 15  3  1  0  0  0  0
 15 14  2  0  0  0  0
 16 15  1  0  0  0  0
 18 12  1  0  0  0  0
 18 19  1  0  0  0  0
 20 18  1  0  0  0  0
 21 18  1  0  0  0  0
 22 11  1  0  0  0  0
 23 22  1  0  0  0  0
 23 25  1  0  0  0  0
 24 23  1  0  0  0  0
 26 23  1  0  0  0  0
 27 28  1  0  0  0  0
 27  7  1  0  0  0  0
 27 29  1  0  0  0  0
 30 27  1  0  0  0  0
 31 30  1  0  0  0  0
 32 31  1  0  0  0  0
 33 34  1  0  0  0  0
 33 32  1  0  0  0  0
 34 35  1  0  0  0  0
 35 30  1  0  0  0  0
M  END
>  <minimizedAffinity>
-5.94415331

$$$$

 OpenBabel03252504193D

 35 37  0  0  0  0  0  0  0  0999 V2000
   36.2550   28.4230   40.7950 F   0  0  0  0  0  0  0  0  0  0  0  0
   36.5860   27.0890   40.8950 C   0  0  0  0  0  0  0  0  0  0  0  0
   36.5690   26.2930   39.7840 C   0  0  0  0  0  0  0  0  0  0  0  0
   36.9140   24.9710   39.9730 C   0  0  0  0  0  0  0  0  0  0  0  0
   37.2550   24.4970   41.2190 C   0  0  0  0  0  0  0  0  0  0  0  0
   37.2560   25.3390   42.3090 C   0  0  0  0  0  0  0  0  0  0  0  0
   36.9160   26.6830   42.1710 C   0  0  0  0  0  0  0  0  0  0  0  0
   36.9190   24.2830   39.1250 H   0  0  0  0  0  0  0  0  0  0  0  0
   37.5270   23.4510   41.3620 H   0  0  0  0  0  0  0  0  0  0  0  0
   37.5220   24.9800   43.2920 H   0  0  0  0  0  0  0  0  0  0  0  0
   36.6130   28.4390   36.8180 C   0  0  0  0  0  0  0  0  0  0  0  0
   35.6070   27.9140   36.0210 C   0  0  0  0  0  0  0  0  0  0  0  0
   34.9030   26.8040   36.5120 C   0  0  0  0  0  0  0  0  0  0  0  0
   35.2180   26.2860   37.7250 N   0  0  0  0  0  0  0  0  0  0  0  0
   36.2000   26.8290   38.4620 C   0  0  0  0  0  0  0  0  0  0  0  0
   36.8940   27.8960   38.0150 N   0  0  0  0  0  0  0  0  0  0  0  0
   34.1110   26.3670   35.9190 H   0  0  0  0  0  0  0  0  0  0  0  0
   35.3160   28.5220   34.7150 C   0  0  0  0  0  0  0  0  0  0  0  0
   34.3800   27.7520   34.0320 F   0  0  0  0  0  0  0  0  0  0  0  0
   34.7240   29.7590   34.9440 F   0  0  0  0  0  0  0  0  0  0  0  0
   36.3820   28.6960   33.9050 F   0  0  0  0  0  0  0  0  0  0  0  0
   37.2870   29.5050   36.3440 O   0  0  0  0  0  0  0  0  0  0  0  0
   37.4530   30.7600   36.9700 C   0  0  0  0  0  0  0  0  0  0  0  0
   38.6610   30.7470   37.6310 F   0  0  0  0  0  0  0  0  0  0  0  0
   37.3600   31.7460   36.0170 F   0  0  0  0  0  0  0  0  0  0  0  0
   36.5020   30.9110   37.9600 F   0  0  0  0  0  0  0  0  0  0  0  0
   36.9060   27.6250   43.3360 C   0  0  0  0  0  0  0  0  0  0  0  0
   36.7260   27.0220   44.2460 H   0  0  0  0  0  0  0  0  0  0  0  0
   36.0500   28.3210   43.1750 H   0  0  0  0  0  0  0  0  0  0  0  0
   38.2110   28.3760   43.4360 C   0  0  0  0  0  3  0  0  0  0  0  0
   39.4070   27.4980   43.3010 C   0  0  0  0  0  2  0  0  0  0  0  0
   40.4740   28.0570   42.4100 C   0  0  0  0  0  2  0  0  0  0  0  0
   40.7400   29.5150   42.5820 C   0  0  0  0  0  2  0  0  0  0  0  0
   39.5180   30.3340   42.9470 C   0  0  0  0  0  2  0  0  0  0  0  0
   38.3150   29.5070   42.4710 C   0  0  0  0  0  2  0  0  0  0  0  0
  1  2  1  0  0  0  0
  2  7  1  0  0  0  0
  3  4  1  0  0  0  0
  3  2  2  0  0  0  0
  4  5  2  0  0  0  0
  5  9  1  0  0  0  0
  5  6  1  0  0  0  0
  6 10  1  0  0  0  0
  7  6  2  0  0  0  0
  7 27  1  0  0  0  0
  8  4  1  0  0  0  0
 11 16  1  0  0  0  0
 12 13  1  0  0  0  0
 12 11  2  0  0  0  0
 13 14  2  0  0  0  0
 14 15  1  0  0  0  0
 15  3  1  0  0  0  0
 16 15  2  0  0  0  0
 17 13  1  0  0  0  0
 18 20  1  0  0  0  0
 18 12  1  0  0  0  0
 19 18  1  0  0  0  0
 21 18  1  0  0  0  0
 22 11  1  0  0  0  0
 22 23  1  0  0  0  0
 23 24  1  0  0  0  0
 23 26  1  0  0  0  0
 25 23  1  0  0  0  0
 27 30  1  0  0  0  0
 27 28  1  0  0  0  0
 29 27  1  0  0  0  0
 31 30  1  0  0  0  0
 32 33  1  0  0  0  0
 32 31  1  0  0  0  0
 33 34  1  0  0  0  0
 35 34  1  0  0  0  0
 35 30  1  0  0  0  0
M  END
>  <minimizedAffinity>
-5.9322176

$$$$

 OpenBabel03252504193D

 35 37  0  0  0  0  0  0  0  0999 V2000
   39.5100   28.9010   41.4440 F   0  0  0  0  0  0  0  0  0  0  0  0
   38.2630   29.3260   41.0390 C   0  0  0  0  0  0  0  0  0  0  0  0
   38.1410   30.4220   40.2320 C   0  0  0  0  0  0  0  0  0  0  0  0
   36.8570   30.7780   39.8740 C   0  0  0  0  0  0  0  0  0  0  0  0
   35.7710   30.0560   40.3130 C   0  0  0  0  0  0  0  0  0  0  0  0
   35.9460   28.9590   41.1260 C   0  0  0  0  0  0  0  0  0  0  0  0
   37.2220   28.5580   41.5160 C   0  0  0  0  0  0  0  0  0  0  0  0
   36.6910   31.6450   39.2300 H   0  0  0  0  0  0  0  0  0  0  0  0
   34.7590   30.3420   40.0270 H   0  0  0  0  0  0  0  0  0  0  0  0
   35.1020   28.3830   41.4780 H   0  0  0  0  0  0  0  0  0  0  0  0
   40.9270   31.4720   38.1020 C   0  0  0  0  0  0  0  0  0  0  0  0
   41.5180   32.5000   38.8210 C   0  0  0  0  0  0  0  0  0  0  0  0
   40.9480   32.8360   40.0580 C   0  0  0  0  0  0  0  0  0  0  0  0
   39.8600   32.1640   40.5070 N   0  0  0  0  0  0  0  0  0  0  0  0
   39.3220   31.1750   39.7760 C   0  0  0  0  0  0  0  0  0  0  0  0
   39.8490   30.8300   38.5830 N   0  0  0  0  0  0  0  0  0  0  0  0
   41.3810   33.6330   40.6480 H   0  0  0  0  0  0  0  0  0  0  0  0
   42.6970   33.1890   38.2780 C   0  0  0  0  0  0  0  0  0  0  0  0
   42.3560   33.8580   37.1060 F   0  0  0  0  0  0  0  0  0  0  0  0
   43.0820   34.1610   39.1940 F   0  0  0  0  0  0  0  0  0  0  0  0
   43.7590   32.3990   38.0110 F   0  0  0  0  0  0  0  0  0  0  0  0
   41.4770   31.1500   36.9140 O   0  0  0  0  0  0  0  0  0  0  0  0
   42.1750   29.9660   36.5880 C   0  0  0  0  0  0  0  0  0  0  0  0
   41.2480   28.9600   36.4250 F   0  0  0  0  0  0  0  0  0  0  0  0
   42.9360   30.1960   35.4660 F   0  0  0  0  0  0  0  0  0  0  0  0
   42.9480   29.5740   37.6620 F   0  0  0  0  0  0  0  0  0  0  0  0
   37.4470   27.3700   42.4010 C   0  0  0  0  0  0  0  0  0  0  0  0
   36.6080   27.3320   43.1210 H   0  0  0  0  0  0  0  0  0  0  0  0
   38.4000   27.5570   42.9500 H   0  0  0  0  0  0  0  0  0  0  0  0
   37.5210   26.0990   41.5920 C   0  0  0  0  0  3  0  0  0  0  0  0
   38.9120   25.5950   41.4130 C   0  0  0  0  0  2  0  0  0  0  0  0
   39.0540   24.1170   41.6170 C   0  0  0  0  0  2  0  0  0  0  0  0
   37.9690   23.2890   41.0140 C   0  0  0  0  0  2  0  0  0  0  0  0
   36.6050   23.9510   41.0160 C   0  0  0  0  0  2  0  0  0  0  0  0
   36.6640   25.0050   42.1320 C   0  0  0  0  0  2  0  0  0  0  0  0
  2  1  1  0  0  0  0
  2  7  1  0  0  0  0
  3  2  2  0  0  0  0
  4  3  1  0  0  0  0
  4  5  2  0  0  0  0
  5  6  1  0  0  0  0
  6 10  1  0  0  0  0
  6  7  2  0  0  0  0
  7 27  1  0  0  0  0
  8  4  1  0  0  0  0
  9  5  1  0  0  0  0
 11 16  2  0  0  0  0
 11 12  1  0  0  0  0
 12 13  2  0  0  0  0
 13 14  1  0  0  0  0
 13 17  1  0  0  0  0
 15  3  1  0  0  0  0
 15 14  2  0  0  0  0
 16 15  1  0  0  0  0
 18 12  1  0  0  0  0
 18 20  1  0  0  0  0
 19 18  1  0  0  0  0
 21 18  1  0  0  0  0
 22 11  1  0  0  0  0
 23 22  1  0  0  0  0
 23 26  1  0  0  0  0
 24 23  1  0  0  0  0
 25 23  1  0  0  0  0
 27 29  1  0  0  0  0
 27 28  1  0  0  0  0
 30 35  1  0  0  0  0
 30 27  1  0  0  0  0
 31 30  1  0  0  0  0
 31 32  1  0  0  0  0
 33 34  1  0  0  0  0
 33 32  1  0  0  0  0
 34 35  1  0  0  0  0
M  END
>  <minimizedAffinity>
-5.75871277

$$$$

 OpenBabel03252504193D

 35 37  0  0  0  0  0  0  0  0999 V2000
   38.6880   27.1530   40.2240 F   0  0  0  0  0  0  0  0  0  0  0  0
   37.9660   27.2060   41.3970 C   0  0  0  0  0  0  0  0  0  0  0  0
   37.8000   28.3970   42.0460 C   0  0  0  0  0  0  0  0  0  0  0  0
   37.0630   28.3600   43.2120 C   0  0  0  0  0  0  0  0  0  0  0  0
   36.5310   27.1810   43.6800 C   0  0  0  0  0  0  0  0  0  0  0  0
   36.7280   26.0050   42.9890 C   0  0  0  0  0  0  0  0  0  0  0  0
   37.4640   25.9890   41.8070 C   0  0  0  0  0  0  0  0  0  0  0  0
   36.8930   29.2790   43.7780 H   0  0  0  0  0  0  0  0  0  0  0  0
   35.9500   27.1580   44.6010 H   0  0  0  0  0  0  0  0  0  0  0  0
   36.3150   25.0720   43.3460 H   0  0  0  0  0  0  0  0  0  0  0  0
   38.3100   31.2890   39.8600 C   0  0  0  0  0  0  0  0  0  0  0  0
   39.3710   31.9590   40.4480 C   0  0  0  0  0  0  0  0  0  0  0  0
   39.9190   31.4070   41.6160 C   0  0  0  0  0  0  0  0  0  0  0  0
   39.4080   30.2600   42.1260 N   0  0  0  0  0  0  0  0  0  0  0  0
   38.3800   29.6450   41.5210 C   0  0  0  0  0  0  0  0  0  0  0  0
   37.8320   30.1530   40.3970 N   0  0  0  0  0  0  0  0  0  0  0  0
   40.7490   31.9010   42.1030 H   0  0  0  0  0  0  0  0  0  0  0  0
   39.8780   33.2000   39.8440 C   0  0  0  0  0  0  0  0  0  0  0  0
   40.8800   33.7400   40.6440 F   0  0  0  0  0  0  0  0  0  0  0  0
   40.4700   32.8720   38.6300 F   0  0  0  0  0  0  0  0  0  0  0  0
   38.9530   34.1610   39.6300 F   0  0  0  0  0  0  0  0  0  0  0  0
   37.7850   31.8210   38.7380 O   0  0  0  0  0  0  0  0  0  0  0  0
   37.7010   31.2180   37.4630 C   0  0  0  0  0  0  0  0  0  0  0  0
   38.8510   30.4860   37.2660 F   0  0  0  0  0  0  0  0  0  0  0  0
   36.5540   30.4630   37.4050 F   0  0  0  0  0  0  0  0  0  0  0  0
   37.7230   32.1950   36.4880 F   0  0  0  0  0  0  0  0  0  0  0  0
   37.6970   24.7270   41.0320 C   0  0  0  0  0  0  0  0  0  0  0  0
   37.9720   23.9400   41.7600 H   0  0  0  0  0  0  0  0  0  0  0  0
   38.5600   24.9260   40.3530 H   0  0  0  0  0  0  0  0  0  0  0  0
   36.4670   24.3350   40.2530 C   0  0  0  0  0  3  0  0  0  0  0  0
   36.1420   25.2820   39.1500 C   0  0  0  0  0  2  0  0  0  0  0  0
   35.7700   24.6110   37.8630 C   0  0  0  0  0  2  0  0  0  0  0  0
   34.8720   23.4280   38.0040 C   0  0  0  0  0  2  0  0  0  0  0  0
   35.0940   22.6230   39.2690 C   0  0  0  0  0  2  0  0  0  0  0  0
   36.5280   22.9480   39.7130 C   0  0  0  0  0  2  0  0  0  0  0  0
  1  2  1  0  0  0  0
  2  7  2  0  0  0  0
  2  3  1  0  0  0  0
  3  4  2  0  0  0  0
  4  5  1  0  0  0  0
  4  8  1  0  0  0  0
  5  9  1  0  0  0  0
  6 10  1  0  0  0  0
  6  5  2  0  0  0  0
  7  6  1  0  0  0  0
 11 16  2  0  0  0  0
 11 12  1  0  0  0  0
 12 13  2  0  0  0  0
 13 17  1  0  0  0  0
 13 14  1  0  0  0  0
 15  3  1  0  0  0  0
 15 14  2  0  0  0  0
 16 15  1  0  0  0  0
 18 12  1  0  0  0  0
 18 19  1  0  0  0  0
 20 18  1  0  0  0  0
 21 18  1  0  0  0  0
 22 11  1  0  0  0  0
 23 22  1  0  0  0  0
 24 23  1  0  0  0  0
 25 23  1  0  0  0  0
 26 23  1  0  0  0  0
 27 28  1  0  0  0  0
 27  7  1  0  0  0  0
 29 27  1  0  0  0  0
 30 27  1  0  0  0  0
 31 30  1  0  0  0  0
 32 33  1  0  0  0  0
 32 31  1  0  0  0  0
 33 34  1  0  0  0  0
 34 35  1  0  0  0  0
 35 30  1  0  0  0  0
M  END
>  <minimizedAffinity>
-5.72572708

$$$$

 OpenBabel03252504193D

 35 37  0  0  0  0  0  0  0  0999 V2000
   37.2060   27.0540   39.0660 F   0  0  0  0  0  0  0  0  0  0  0  0
   37.1060   26.6610   40.3830 C   0  0  0  0  0  0  0  0  0  0  0  0
   37.1940   27.5880   41.3830 C   0  0  0  0  0  0  0  0  0  0  0  0
   37.0830   27.1090   42.6730 C   0  0  0  0  0  0  0  0  0  0  0  0
   36.8920   25.7690   42.9190 C   0  0  0  0  0  0  0  0  0  0  0  0
   36.8100   24.8730   41.8760 C   0  0  0  0  0  0  0  0  0  0  0  0
   36.9170   25.3060   40.5560 C   0  0  0  0  0  0  0  0  0  0  0  0
   37.1450   27.7990   43.5170 H   0  0  0  0  0  0  0  0  0  0  0  0
   36.8050   25.3970   43.9390 H   0  0  0  0  0  0  0  0  0  0  0  0
   36.6610   23.8180   42.0550 H   0  0  0  0  0  0  0  0  0  0  0  0
   38.9340   30.7450   40.7450 C   0  0  0  0  0  0  0  0  0  0  0  0
   37.9040   31.6520   40.5520 C   0  0  0  0  0  0  0  0  0  0  0  0
   36.5900   31.1690   40.6430 C   0  0  0  0  0  0  0  0  0  0  0  0
   36.3670   29.8590   40.9110 N   0  0  0  0  0  0  0  0  0  0  0  0
   37.3980   29.0170   41.0900 C   0  0  0  0  0  0  0  0  0  0  0  0
   38.6720   29.4540   41.0080 N   0  0  0  0  0  0  0  0  0  0  0  0
   35.7590   31.8470   40.5000 H   0  0  0  0  0  0  0  0  0  0  0  0
   38.2130   33.0600   40.2650 C   0  0  0  0  0  0  0  0  0  0  0  0
   39.1040   33.1410   39.2000 F   0  0  0  0  0  0  0  0  0  0  0  0
   37.0390   33.6780   39.8510 F   0  0  0  0  0  0  0  0  0  0  0  0
   38.7320   33.7620   41.2960 F   0  0  0  0  0  0  0  0  0  0  0  0
   40.1960   31.2110   40.6570 O   0  0  0  0  0  0  0  0  0  0  0  0
   41.0920   31.4590   41.7210 C   0  0  0  0  0  0  0  0  0  0  0  0
   42.0190   30.4400   41.7380 F   0  0  0  0  0  0  0  0  0  0  0  0
   41.6500   32.7040   41.5480 F   0  0  0  0  0  0  0  0  0  0  0  0
   40.4220   31.3590   42.9230 F   0  0  0  0  0  0  0  0  0  0  0  0
   36.8330   24.3580   39.3980 C   0  0  0  0  0  0  0  0  0  0  0  0
   37.4140   23.4560   39.6690 H   0  0  0  0  0  0  0  0  0  0  0  0
   37.3190   24.8680   38.5330 H   0  0  0  0  0  0  0  0  0  0  0  0
   35.4000   24.0040   39.0910 C   0  0  0  0  0  3  0  0  0  0  0  0
   34.9320   24.5280   37.7770 C   0  0  0  0  0  2  0  0  0  0  0  0
   34.1480   23.5380   36.9720 C   0  0  0  0  0  2  0  0  0  0  0  0
   33.1620   22.7310   37.7490 C   0  0  0  0  0  2  0  0  0  0  0  0
   33.5940   22.4180   39.1690 C   0  0  0  0  0  2  0  0  0  0  0  0
   35.1240   22.5410   39.1670 C   0  0  0  0  0  2  0  0  0  0  0  0
  1  2  1  0  0  0  0
  2  7  2  0  0  0  0
  2  3  1  0  0  0  0
  3  4  2  0  0  0  0
  4  5  1  0  0  0  0
  4  8  1  0  0  0  0
  5  9  1  0  0  0  0
  6 10  1  0  0  0  0
  6  5  2  0  0  0  0
  7  6  1  0  0  0  0
 11 16  1  0  0  0  0
 12 13  1  0  0  0  0
 12 11  2  0  0  0  0
 13 14  2  0  0  0  0
 14 15  1  0  0  0  0
 15  3  1  0  0  0  0
 16 15  2  0  0  0  0
 17 13  1  0  0  0  0
 18 12  1  0  0  0  0
 18 21  1  0  0  0  0
 19 18  1  0  0  0  0
 20 18  1  0  0  0  0
 22 11  1  0  0  0  0
 22 23  1  0  0  0  0
 23 24  1  0  0  0  0
 23 26  1  0  0  0  0
 25 23  1  0  0  0  0
 27 28  1  0  0  0  0
 27  7  1  0  0  0  0
 29 27  1  0  0  0  0
 30 35  1  0  0  0  0
 30 27  1  0  0  0  0
 31 30  1  0  0  0  0
 32 33  1  0  0  0  0
 32 31  1  0  0  0  0
 33 34  1  0  0  0  0
 35 34  1  0  0  0  0
M  END
>  <minimizedAffinity>
-5.72108936

$$$$
