
 OpenBabel03242523513D

 40 43  0  0  1  0  0  0  0  0999 V2000
   42.8000   34.4960   38.7590 C   0  0  1  0  0  0  0  0  0  0  0  0
   43.0080   35.2210   40.0930 C   0  0  1  0  0  0  0  0  0  0  0  0
   41.7530   35.6050   40.6010 O   0  0  0  0  0  0  0  0  0  0  0  0
   40.8460   35.9600   39.6020 C   0  0  0  0  0  0  0  0  0  0  0  0
   40.4140   34.7490   38.8040 C   0  0  2  0  0  0  0  0  0  0  0  0
   41.5240   33.6890   38.9460 C   0  0  1  0  0  0  0  0  0  0  0  0
   43.6540   33.8030   38.5630 H   0  0  0  0  0  0  0  0  0  0  0  0
   43.6670   36.0950   39.9880 H   0  0  0  0  0  0  0  0  0  0  0  0
   39.9780   36.3860   40.1460 H   0  0  0  0  0  0  0  0  0  0  0  0
   41.2200   36.7960   38.9680 H   0  0  0  0  0  0  0  0  0  0  0  0
   39.4500   34.3480   39.1420 H   0  0  0  0  0  0  0  0  0  0  0  0
   41.4760   33.3500   39.9900 H   0  0  0  0  0  0  0  0  0  0  0  0
   42.6360   35.4140   37.7240 O   0  0  0  0  0  0  0  0  0  0  0  0
   43.3100   36.1340   37.8870 H   0  0  0  0  0  0  0  0  0  0  0  0
   40.4390   35.0830   37.4420 O   0  0  0  0  0  0  0  0  0  0  0  0
   39.5730   35.0090   37.0110 H   0  0  0  0  0  0  0  0  0  0  0  0
   43.4630   34.2440   40.9870 O   0  0  0  0  0  0  0  0  0  0  0  0
   44.5740   34.3280   41.7240 C   0  0  0  0  0  0  0  0  0  0  0  0
   45.8250   34.4590   41.1250 C   0  0  0  0  0  0  0  0  0  0  0  0
   46.9460   34.5440   41.9360 C   0  0  0  0  0  0  0  0  0  0  0  0
   46.8010   34.4960   43.3110 N   0  0  0  0  0  0  0  0  0  0  0  0
   45.5720   34.3680   43.8540 C   0  0  0  0  0  0  0  0  0  0  0  0
   44.4670   34.2840   43.0730 N   0  0  0  0  0  0  0  0  0  0  0  0
   45.9050   34.4940   40.0490 H   0  0  0  0  0  0  0  0  0  0  0  0
   45.5090   34.3350   44.9340 H   0  0  0  0  0  0  0  0  0  0  0  0
   48.3210   34.6740   41.3350 C   0  0  0  0  0  0  0  0  0  0  0  0
   49.0360   35.9920   41.5140 C   0  0  0  0  0  0  0  0  0  0  0  0
   49.4780   34.6820   42.1920 C   0  0  0  0  0  0  0  0  0  0  0  0
   48.3100   34.3630   40.2610 H   0  0  0  0  0  0  0  0  0  0  0  0
   49.6690   36.3990   40.7000 H   0  0  0  0  0  0  0  0  0  0  0  0
   48.5710   36.7270   42.2100 H   0  0  0  0  0  0  0  0  0  0  0  0
   49.3250   34.5920   43.2780 H   0  0  0  0  0  0  0  0  0  0  0  0
   50.4340   34.2840   41.7730 H   0  0  0  0  0  0  0  0  0  0  0  0
   41.3700   32.6810   38.0140 O   0  0  0  0  0  0  0  0  0  0  0  0
   41.1470   31.4410   38.5680 C   0  0  0  0  0  0  0  0  0  0  0  0
   40.2520   31.4410   39.7640 C   0  0  0  0  0  0  0  0  0  0  0  0
   38.7850   31.4530   39.4260 C   0  0  0  0  0  0  0  0  0  0  0  0
   38.4170   30.3440   38.4560 C   0  0  0  0  0  0  0  0  0  0  0  0
   39.1990   30.6530   37.1860 C   0  0  0  0  0  0  0  0  0  0  0  0
   40.6590   30.4270   37.5630 C   0  0  0  0  0  0  0  0  0  0  0  0
  1  7  1  6  0  0  0
  1  6  1  0  0  0  0
  1  2  1  0  0  0  0
  2  8  1  6  0  0  0
  2  3  1  0  0  0  0
  2 17  1  0  0  0  0
  4  9  1  0  0  0  0
  4  3  1  0  0  0  0
  5  6  1  0  0  0  0
  5 11  1  1  0  0  0
  5  4  1  0  0  0  0
  6 12  1  1  0  0  0
 10  4  1  0  0  0  0
 13 14  1  0  0  0  0
 13  1  1  0  0  0  0
 15  5  1  0  0  0  0
 16 15  1  0  0  0  0
 17 18  1  0  0  0  0
 18 23  1  0  0  0  0
 19 18  2  0  0  0  0
 19 20  1  0  0  0  0
 20 21  2  0  0  0  0
 21 22  1  0  0  0  0
 22 25  1  0  0  0  0
 23 22  2  0  0  0  0
 24 19  1  0  0  0  0
 26 27  1  0  0  0  0
 26 20  1  0  0  0  0
 26 28  1  0  0  0  0
 27 28  1  0  0  0  0
 27 31  1  0  0  0  0
 28 32  1  0  0  0  0
 29 26  1  0  0  0  0
 30 27  1  0  0  0  0
 33 28  1  0  0  0  0
 34 35  1  0  0  0  0
 34  6  1  0  0  0  0
 35 36  1  0  0  0  0
 37 36  1  0  0  0  0
 38 37  1  0  0  0  0
 39 40  1  0  0  0  0
 39 38  1  0  0  0  0
 40 35  1  0  0  0  0
M  END
>  <minimizedAffinity>
-6.29356575

>  <minimizedRMSD>
1.07397854

$$$$
