
 OpenBabel03242513123D

 17 18  0  0  0  0  0  0  0  0999 V2000
   38.0050   30.3470   37.6670 C   0  0  0  0  0  0  0  0  0  0  0  0
   38.0830   31.7380   37.8070 C   0  0  0  0  0  0  0  0  0  0  0  0
   37.3340   32.3540   38.8160 C   0  0  0  0  0  0  0  0  0  0  0  0
   36.5750   31.5500   39.5980 N   0  0  0  0  0  0  0  0  0  0  0  0
   36.5170   30.2130   39.4430 C   0  0  0  0  0  0  0  0  0  0  0  0
   37.2420   29.6120   38.4660 N   0  0  0  0  0  0  0  0  0  0  0  0
   38.5620   29.8000   36.9030 H   0  0  0  0  0  0  0  0  0  0  0  0
   38.7260   32.2990   37.1260 H   0  0  0  0  0  0  0  0  0  0  0  0
   37.3830   33.4250   38.9360 H   0  0  0  0  0  0  0  0  0  0  0  0
   35.6890   29.3660   40.3000 C   0  0  0  0  0  0  0  0  0  0  0  0
   34.4810   29.1490   40.0070 O   0  0  0  0  0  0  0  0  0  0  0  0
   36.3340   28.7880   41.5020 C   0  0  0  0  0  3  0  0  0  0  0  0
   36.8950   27.4000   41.2150 C   0  0  0  0  0  2  0  0  0  0  0  0
   36.9520   26.7010   42.5690 C   0  0  0  0  0  2  0  0  0  0  0  0
   37.0980   27.6990   43.6740 C   0  0  0  0  0  2  0  0  0  0  0  0
   37.9380   28.9010   43.3080 C   0  0  0  0  0  2  0  0  0  0  0  0
   37.4500   29.6050   42.0710 C   0  0  0  0  0  2  0  0  0  0  0  0
  1  2  2  0  0  0  0
  1  6  1  0  0  0  0
  2  3  1  0  0  0  0
  3  9  1  0  0  0  0
  3  4  2  0  0  0  0
  5  4  1  0  0  0  0
  5 10  1  0  0  0  0
  6  5  2  0  0  0  0
  7  1  1  0  0  0  0
  8  2  1  0  0  0  0
 10 12  1  0  0  0  0
 11 10  2  0  0  0  0
 12 17  1  0  0  0  0
 13 12  1  0  0  0  0
 13 14  1  0  0  0  0
 14 15  1  0  0  0  0
 16 15  1  0  0  0  0
 17 16  1  0  0  0  0
M  END
>  <minimizedAffinity>
-4.51725817

$$$$

 OpenBabel03242513123D

 17 18  0  0  0  0  0  0  0  0999 V2000
   38.1950   33.1000   40.1840 C   0  0  0  0  0  0  0  0  0  0  0  0
   37.3240   32.5950   39.2110 C   0  0  0  0  0  0  0  0  0  0  0  0
   37.0170   31.2300   39.2280 C   0  0  0  0  0  0  0  0  0  0  0  0
   37.5930   30.4810   40.1980 N   0  0  0  0  0  0  0  0  0  0  0  0
   38.4280   30.9890   41.1240 C   0  0  0  0  0  0  0  0  0  0  0  0
   38.7280   32.3130   41.1110 N   0  0  0  0  0  0  0  0  0  0  0  0
   38.4780   34.1540   40.2320 H   0  0  0  0  0  0  0  0  0  0  0  0
   36.9100   33.2820   38.4700 H   0  0  0  0  0  0  0  0  0  0  0  0
   36.3470   30.8260   38.4840 H   0  0  0  0  0  0  0  0  0  0  0  0
   39.0380   30.1610   42.1610 C   0  0  0  0  0  0  0  0  0  0  0  0
   40.0620   30.5630   42.7800 O   0  0  0  0  0  0  0  0  0  0  0  0
   38.4020   28.8520   42.4410 C   0  0  0  0  0  3  0  0  0  0  0  0
   39.4300   27.8240   42.8960 C   0  0  0  0  0  2  0  0  0  0  0  0
   38.8200   26.4670   42.5600 C   0  0  0  0  0  2  0  0  0  0  0  0
   37.3260   26.5460   42.5550 C   0  0  0  0  0  2  0  0  0  0  0  0
   36.7580   27.4960   43.5840 C   0  0  0  0  0  2  0  0  0  0  0  0
   37.3250   28.8860   43.4780 C   0  0  0  0  0  2  0  0  0  0  0  0
  1  7  1  0  0  0  0
  1  6  1  0  0  0  0
  2  3  1  0  0  0  0
  2  1  2  0  0  0  0
  3  4  2  0  0  0  0
  4  5  1  0  0  0  0
  5 10  1  0  0  0  0
  6  5  2  0  0  0  0
  8  2  1  0  0  0  0
  9  3  1  0  0  0  0
 10 12  1  0  0  0  0
 10 11  2  0  0  0  0
 12 13  1  0  0  0  0
 12 17  1  0  0  0  0
 14 13  1  0  0  0  0
 15 14  1  0  0  0  0
 15 16  1  0  0  0  0
 17 16  1  0  0  0  0
M  END
>  <minimizedAffinity>
-4.36417198

$$$$

 OpenBabel03242513123D

 17 18  0  0  0  0  0  0  0  0999 V2000
   36.3460   30.6510   40.9830 C   0  0  0  0  0  0  0  0  0  0  0  0
   36.4750   30.5370   39.5940 C   0  0  0  0  0  0  0  0  0  0  0  0
   37.3760   29.5970   39.0790 C   0  0  0  0  0  0  0  0  0  0  0  0
   38.0690   28.8540   39.9730 N   0  0  0  0  0  0  0  0  0  0  0  0
   37.9270   28.9830   41.3060 C   0  0  0  0  0  0  0  0  0  0  0  0
   37.0550   29.8920   41.8100 N   0  0  0  0  0  0  0  0  0  0  0  0
   35.6620   31.3620   41.4550 H   0  0  0  0  0  0  0  0  0  0  0  0
   35.8700   31.1830   38.9550 H   0  0  0  0  0  0  0  0  0  0  0  0
   37.4870   29.4970   38.0100 H   0  0  0  0  0  0  0  0  0  0  0  0
   38.6880   28.1690   42.2530 C   0  0  0  0  0  0  0  0  0  0  0  0
   39.4750   28.7150   43.0740 O   0  0  0  0  0  0  0  0  0  0  0  0
   38.4870   26.7020   42.1960 C   0  0  0  0  0  3  0  0  0  0  0  0
   39.3090   25.9900   43.2630 C   0  0  0  0  0  2  0  0  0  0  0  0
   39.5090   24.5720   42.7370 C   0  0  0  0  0  2  0  0  0  0  0  0
   38.3910   24.1850   41.8220 C   0  0  0  0  0  2  0  0  0  0  0  0
   37.0490   24.7580   42.2160 C   0  0  0  0  0  2  0  0  0  0  0  0
   37.0690   26.2550   42.3620 C   0  0  0  0  0  2  0  0  0  0  0  0
  1  7  1  0  0  0  0
  1  6  1  0  0  0  0
  2  1  2  0  0  0  0
  3  2  1  0  0  0  0
  3  4  2  0  0  0  0
  4  5  1  0  0  0  0
  5  6  2  0  0  0  0
  5 10  1  0  0  0  0
  8  2  1  0  0  0  0
  9  3  1  0  0  0  0
 10 11  2  0  0  0  0
 12 10  1  0  0  0  0
 12 17  1  0  0  0  0
 12 13  1  0  0  0  0
 14 13  1  0  0  0  0
 15 16  1  0  0  0  0
 15 14  1  0  0  0  0
 16 17  1  0  0  0  0
M  END
>  <minimizedAffinity>
-4.26067209

$$$$

 OpenBabel03242513123D

 17 18  0  0  0  0  0  0  0  0999 V2000
   38.0340   26.8810   41.5600 C   0  0  0  0  0  0  0  0  0  0  0  0
   37.1770   26.5910   42.6280 C   0  0  0  0  0  0  0  0  0  0  0  0
   36.8790   27.6070   43.5440 C   0  0  0  0  0  0  0  0  0  0  0  0
   37.4480   28.8160   43.3300 N   0  0  0  0  0  0  0  0  0  0  0  0
   38.2700   29.0710   42.2930 C   0  0  0  0  0  0  0  0  0  0  0  0
   38.5610   28.0890   41.4030 N   0  0  0  0  0  0  0  0  0  0  0  0
   38.3090   26.1380   40.8070 H   0  0  0  0  0  0  0  0  0  0  0  0
   36.7670   25.5830   42.7140 H   0  0  0  0  0  0  0  0  0  0  0  0
   36.2190   27.3990   44.3730 H   0  0  0  0  0  0  0  0  0  0  0  0
   38.8730   30.3850   42.0830 C   0  0  0  0  0  0  0  0  0  0  0  0
   39.7670   30.8090   42.8650 O   0  0  0  0  0  0  0  0  0  0  0  0
   38.3890   31.1730   40.9250 C   0  0  0  0  0  3  0  0  0  0  0  0
   36.8750   31.0710   40.7820 C   0  0  0  0  0  2  0  0  0  0  0  0
   36.5890   31.3620   39.3130 C   0  0  0  0  0  2  0  0  0  0  0  0
   37.6550   32.2340   38.7290 C   0  0  0  0  0  2  0  0  0  0  0  0
   38.2160   33.2490   39.6980 C   0  0  0  0  0  2  0  0  0  0  0  0
   38.7290   32.6290   40.9690 C   0  0  0  0  0  2  0  0  0  0  0  0
  1  2  1  0  0  0  0
  2  8  1  0  0  0  0
  2  3  2  0  0  0  0
  3  9  1  0  0  0  0
  4  3  1  0  0  0  0
  5  4  2  0  0  0  0
  6  1  2  0  0  0  0
  6  5  1  0  0  0  0
  7  1  1  0  0  0  0
 10  5  1  0  0  0  0
 10 11  2  0  0  0  0
 12 17  1  0  0  0  0
 12 10  1  0  0  0  0
 13 12  1  0  0  0  0
 14 13  1  0  0  0  0
 15 14  1  0  0  0  0
 15 16  1  0  0  0  0
 16 17  1  0  0  0  0
M  END
>  <minimizedAffinity>
-4.1862874

$$$$

 OpenBabel03242513123D

 17 18  0  0  0  0  0  0  0  0999 V2000
   40.6710   31.3470   40.5880 C   0  0  0  0  0  0  0  0  0  0  0  0
   40.5650   32.7240   40.3580 C   0  0  0  0  0  0  0  0  0  0  0  0
   39.3060   33.3270   40.4600 C   0  0  0  0  0  0  0  0  0  0  0  0
   38.2630   32.5260   40.7780 N   0  0  0  0  0  0  0  0  0  0  0  0
   38.3900   31.2020   40.9960 C   0  0  0  0  0  0  0  0  0  0  0  0
   39.6090   30.6140   40.8980 N   0  0  0  0  0  0  0  0  0  0  0  0
   41.6210   30.8110   40.5270 H   0  0  0  0  0  0  0  0  0  0  0  0
   41.4680   33.2850   40.1070 H   0  0  0  0  0  0  0  0  0  0  0  0
   39.2090   34.3880   40.2850 H   0  0  0  0  0  0  0  0  0  0  0  0
   37.2480   30.3560   41.3380 C   0  0  0  0  0  0  0  0  0  0  0  0
   36.0740   30.8130   41.2750 O   0  0  0  0  0  0  0  0  0  0  0  0
   37.5400   28.9640   41.7530 C   0  0  0  0  0  3  0  0  0  0  0  0
   37.5650   28.8340   43.2710 C   0  0  0  0  0  2  0  0  0  0  0  0
   38.4370   27.6150   43.5560 C   0  0  0  0  0  2  0  0  0  0  0  0
   38.3990   26.6580   42.4070 C   0  0  0  0  0  2  0  0  0  0  0  0
   37.0620   26.5940   41.7050 C   0  0  0  0  0  2  0  0  0  0  0  0
   36.5780   27.9410   41.2400 C   0  0  0  0  0  2  0  0  0  0  0  0
  1  6  1  0  0  0  0
  2  3  1  0  0  0  0
  2  1  2  0  0  0  0
  3  4  2  0  0  0  0
  4  5  1  0  0  0  0
  5 10  1  0  0  0  0
  6  5  2  0  0  0  0
  7  1  1  0  0  0  0
  8  2  1  0  0  0  0
  9  3  1  0  0  0  0
 10 12  1  0  0  0  0
 11 10  2  0  0  0  0
 12 13  1  0  0  0  0
 13 14  1  0  0  0  0
 15 14  1  0  0  0  0
 16 15  1  0  0  0  0
 17 16  1  0  0  0  0
 17 12  1  0  0  0  0
M  END
>  <minimizedAffinity>
-4.16757393

$$$$

 OpenBabel03242513123D

 17 18  0  0  0  0  0  0  0  0999 V2000
   37.1080   25.8370   40.8390 C   0  0  0  0  0  0  0  0  0  0  0  0
   37.3240   25.8390   42.2220 C   0  0  0  0  0  0  0  0  0  0  0  0
   36.9970   26.9890   42.9500 C   0  0  0  0  0  0  0  0  0  0  0  0
   36.4870   28.0340   42.2560 N   0  0  0  0  0  0  0  0  0  0  0  0
   36.2880   28.0070   40.9240 C   0  0  0  0  0  0  0  0  0  0  0  0
   36.6040   26.8940   40.2140 N   0  0  0  0  0  0  0  0  0  0  0  0
   37.3400   24.9750   40.2080 H   0  0  0  0  0  0  0  0  0  0  0  0
   37.7400   24.9450   42.6900 H   0  0  0  0  0  0  0  0  0  0  0  0
   37.1570   27.0060   44.0180 H   0  0  0  0  0  0  0  0  0  0  0  0
   35.7360   29.1480   40.1960 C   0  0  0  0  0  0  0  0  0  0  0  0
   34.5050   29.1960   39.9250 O   0  0  0  0  0  0  0  0  0  0  0  0
   36.6820   30.2190   39.8040 C   0  0  0  0  0  3  0  0  0  0  0  0
   36.5510   30.5560   38.3240 C   0  0  0  0  0  2  0  0  0  0  0  0
   37.8960   31.1560   37.9270 C   0  0  0  0  0  2  0  0  0  0  0  0
   38.5610   31.7910   39.1080 C   0  0  0  0  0  2  0  0  0  0  0  0
   37.6000   32.4390   40.0770 C   0  0  0  0  0  2  0  0  0  0  0  0
   36.5290   31.5000   40.5620 C   0  0  0  0  0  2  0  0  0  0  0  0
  1  2  1  0  0  0  0
  2  8  1  0  0  0  0
  2  3  2  0  0  0  0
  3  9  1  0  0  0  0
  4  3  1  0  0  0  0
  5  4  2  0  0  0  0
  6  1  2  0  0  0  0
  6  5  1  0  0  0  0
  7  1  1  0  0  0  0
 10  5  1  0  0  0  0
 11 10  2  0  0  0  0
 12 10  1  0  0  0  0
 12 17  1  0  0  0  0
 13 12  1  0  0  0  0
 14 13  1  0  0  0  0
 14 15  1  0  0  0  0
 15 16  1  0  0  0  0
 16 17  1  0  0  0  0
M  END
>  <minimizedAffinity>
-4.13194084

$$$$

 OpenBabel03242513123D

 17 18  0  0  0  0  0  0  0  0999 V2000
   40.1670   31.1940   38.8730 C   0  0  0  0  0  0  0  0  0  0  0  0
   40.7640   32.3510   39.3870 C   0  0  0  0  0  0  0  0  0  0  0  0
   40.1760   32.9750   40.4930 C   0  0  0  0  0  0  0  0  0  0  0  0
   39.0540   32.4090   40.9960 N   0  0  0  0  0  0  0  0  0  0  0  0
   38.4980   31.2940   40.4840 C   0  0  0  0  0  0  0  0  0  0  0  0
   39.0650   30.6860   39.4110 N   0  0  0  0  0  0  0  0  0  0  0  0
   40.5710   30.6540   38.0130 H   0  0  0  0  0  0  0  0  0  0  0  0
   41.6700   32.7300   38.9100 H   0  0  0  0  0  0  0  0  0  0  0  0
   40.6260   33.8680   40.9010 H   0  0  0  0  0  0  0  0  0  0  0  0
   37.2850   30.7010   41.0440 C   0  0  0  0  0  0  0  0  0  0  0  0
   36.1520   31.1730   40.7530 O   0  0  0  0  0  0  0  0  0  0  0  0
   37.4570   29.5410   41.9500 C   0  0  0  0  0  3  0  0  0  0  0  0
   36.8840   28.2700   41.3350 C   0  0  0  0  0  2  0  0  0  0  0  0
   36.5630   27.3610   42.5160 C   0  0  0  0  0  2  0  0  0  0  0  0
   37.4490   27.6730   43.6800 C   0  0  0  0  0  2  0  0  0  0  0  0
   38.8490   28.0880   43.2910 C   0  0  0  0  0  2  0  0  0  0  0  0
   38.8730   29.2460   42.3300 C   0  0  0  0  0  2  0  0  0  0  0  0
  1  2  2  0  0  0  0
  1  6  1  0  0  0  0
  2  3  1  0  0  0  0
  3  9  1  0  0  0  0
  3  4  2  0  0  0  0
  5  4  1  0  0  0  0
  5 10  1  0  0  0  0
  6  5  2  0  0  0  0
  7  1  1  0  0  0  0
  8  2  1  0  0  0  0
 10 12  1  0  0  0  0
 11 10  2  0  0  0  0
 12 17  1  0  0  0  0
 13 12  1  0  0  0  0
 13 14  1  0  0  0  0
 14 15  1  0  0  0  0
 16 15  1  0  0  0  0
 17 16  1  0  0  0  0
M  END
>  <minimizedAffinity>
-4.08728075

$$$$

 OpenBabel03242513123D

 17 18  0  0  0  0  0  0  0  0999 V2000
   37.3170   32.0010   38.5330 C   0  0  0  0  0  0  0  0  0  0  0  0
   38.2190   31.4670   37.6050 C   0  0  0  0  0  0  0  0  0  0  0  0
   38.5260   30.1030   37.6770 C   0  0  0  0  0  0  0  0  0  0  0  0
   37.9210   29.3850   38.6530 N   0  0  0  0  0  0  0  0  0  0  0  0
   37.0550   29.9230   39.5340 C   0  0  0  0  0  0  0  0  0  0  0  0
   36.7540   31.2450   39.4670 N   0  0  0  0  0  0  0  0  0  0  0  0
   37.0300   33.0560   38.5350 H   0  0  0  0  0  0  0  0  0  0  0  0
   38.6540   32.1290   36.8550 H   0  0  0  0  0  0  0  0  0  0  0  0
   39.2200   29.6760   36.9690 H   0  0  0  0  0  0  0  0  0  0  0  0
   36.4140   29.1280   40.5790 C   0  0  0  0  0  0  0  0  0  0  0  0
   35.1680   28.9300   40.5570 O   0  0  0  0  0  0  0  0  0  0  0  0
   37.2890   28.5800   41.6430 C   0  0  0  0  0  3  0  0  0  0  0  0
   38.1090   29.6800   42.3040 C   0  0  0  0  0  2  0  0  0  0  0  0
   39.3340   28.9780   42.8810 C   0  0  0  0  0  2  0  0  0  0  0  0
   39.0240   27.5480   43.1940 C   0  0  0  0  0  2  0  0  0  0  0  0
   37.6120   27.3180   43.6800 C   0  0  0  0  0  2  0  0  0  0  0  0
   36.5700   27.8510   42.7330 C   0  0  0  0  0  2  0  0  0  0  0  0
  1  7  1  0  0  0  0
  1  6  1  0  0  0  0
  2  3  1  0  0  0  0
  2  1  2  0  0  0  0
  3  4  2  0  0  0  0
  4  5  1  0  0  0  0
  5 10  1  0  0  0  0
  6  5  2  0  0  0  0
  8  2  1  0  0  0  0
  9  3  1  0  0  0  0
 10 12  1  0  0  0  0
 11 10  2  0  0  0  0
 12 13  1  0  0  0  0
 12 17  1  0  0  0  0
 13 14  1  0  0  0  0
 14 15  1  0  0  0  0
 15 16  1  0  0  0  0
 17 16  1  0  0  0  0
M  END
>  <minimizedAffinity>
-4.08040142

$$$$

 OpenBabel03242513123D

 17 18  0  0  0  0  0  0  0  0999 V2000
   38.7690   25.3480   40.4670 C   0  0  0  0  0  0  0  0  0  0  0  0
   38.2490   24.2260   41.1220 C   0  0  0  0  0  0  0  0  0  0  0  0
   37.3260   24.4210   42.1570 C   0  0  0  0  0  0  0  0  0  0  0  0
   36.9960   25.6990   42.4560 N   0  0  0  0  0  0  0  0  0  0  0  0
   37.5100   26.7630   41.8100 C   0  0  0  0  0  0  0  0  0  0  0  0
   38.4050   26.5790   40.8060 N   0  0  0  0  0  0  0  0  0  0  0  0
   39.4920   25.2720   39.6510 H   0  0  0  0  0  0  0  0  0  0  0  0
   38.5780   23.2340   40.8070 H   0  0  0  0  0  0  0  0  0  0  0  0
   36.9160   23.5650   42.6720 H   0  0  0  0  0  0  0  0  0  0  0  0
   37.1390   28.1360   42.1510 C   0  0  0  0  0  0  0  0  0  0  0  0
   37.1000   28.5050   43.3560 O   0  0  0  0  0  0  0  0  0  0  0  0
   36.8200   29.0480   41.0270 C   0  0  0  0  0  3  0  0  0  0  0  0
   35.3870   28.8530   40.5480 C   0  0  0  0  0  2  0  0  0  0  0  0
   35.3760   29.3370   39.1020 C   0  0  0  0  0  2  0  0  0  0  0  0
   36.4410   30.3640   38.8810 C   0  0  0  0  0  2  0  0  0  0  0  0
   36.6820   31.2640   40.0700 C   0  0  0  0  0  2  0  0  0  0  0  0
   36.9880   30.5020   41.3320 C   0  0  0  0  0  2  0  0  0  0  0  0
  1  6  2  0  0  0  0
  1  2  1  0  0  0  0
  2  3  2  0  0  0  0
  3  4  1  0  0  0  0
  3  9  1  0  0  0  0
  5 10  1  0  0  0  0
  5  4  2  0  0  0  0
  6  5  1  0  0  0  0
  7  1  1  0  0  0  0
  8  2  1  0  0  0  0
 10 11  2  0  0  0  0
 12 17  1  0  0  0  0
 12 10  1  0  0  0  0
 13 12  1  0  0  0  0
 14 13  1  0  0  0  0
 15 14  1  0  0  0  0
 15 16  1  0  0  0  0
 16 17  1  0  0  0  0
M  END
>  <minimizedAffinity>
-4.04796743

$$$$
