
 OpenBabel03252505493D

 19 20  0  0  0  0  0  0  0  0999 V2000
   45.0570   34.5400   45.6390 C   0  0  0  0  0  0  0  0  0  0  0  0
   45.5770   34.7900   44.3700 C   0  0  0  0  0  0  0  0  0  0  0  0
   46.5870   33.9520   43.9230 C   0  0  0  0  0  0  0  0  0  0  0  0
   47.0230   32.9460   44.7140 N   0  0  0  0  0  0  0  0  0  0  0  0
   46.4920   32.7430   45.9320 C   0  0  0  0  0  0  0  0  0  0  0  0
   45.5080   33.5260   46.4160 N   0  0  0  0  0  0  0  0  0  0  0  0
   44.2700   35.1490   46.0500 H   0  0  0  0  0  0  0  0  0  0  0  0
   46.9720   34.1640   42.9410 H   0  0  0  0  0  0  0  0  0  0  0  0
   44.9930   35.9420   43.6050 C   0  0  0  0  0  0  0  0  0  0  0  0
   44.8430   36.9620   44.5160 F   0  0  0  0  0  0  0  0  0  0  0  0
   43.7730   35.5430   43.1230 F   0  0  0  0  0  0  0  0  0  0  0  0
   45.8640   36.2410   42.5760 F   0  0  0  0  0  0  0  0  0  0  0  0
   46.9380   31.7050   46.7560 O   0  0  0  0  0  0  0  0  0  0  0  0
   46.8720   30.3500   46.3550 C   0  0  0  0  0  3  0  0  0  0  0  0
   45.4570   29.9620   46.0340 C   0  0  0  0  0  2  0  0  0  0  0  0
   44.7840   29.1640   47.1030 C   0  0  0  0  0  2  0  0  0  0  0  0
   45.5760   27.9730   47.5610 C   0  0  0  0  0  2  0  0  0  0  0  0
   47.0570   28.0910   47.3350 C   0  0  0  0  0  2  0  0  0  0  0  0
   47.4510   29.5300   47.4890 C   0  0  0  0  0  2  0  0  0  0  0  0
  1  7  1  0  0  0  0
  1  6  1  0  0  0  0
  2  1  2  0  0  0  0
  3  2  1  0  0  0  0
  3  4  2  0  0  0  0
  4  5  1  0  0  0  0
  5  6  2  0  0  0  0
  5 13  1  0  0  0  0
  8  3  1  0  0  0  0
  9  2  1  0  0  0  0
  9 10  1  0  0  0  0
 11  9  1  0  0  0  0
 12  9  1  0  0  0  0
 14 13  1  0  0  0  0
 14 19  1  0  0  0  0
 15 14  1  0  0  0  0
 15 16  1  0  0  0  0
 16 17  1  0  0  0  0
 18 19  1  0  0  0  0
 18 17  1  0  0  0  0
M  END
>  <minimizedAffinity>
-4.56508875

>  <minimizedRMSD>
1.80088258

$$$$
