
 OpenBabel03252507043D

 44 47  0  0  0  0  0  0  0  0999 V2000
   42.0130   33.4170   41.1400 C   0  0  0  0  0  0  0  0  0  0  0  0
   42.1770   33.9720   42.1250 H   0  0  0  0  0  0  0  0  0  0  0  0
   41.9000   32.3600   41.4680 H   0  0  0  0  0  0  0  0  0  0  0  0
   40.9720   33.8620   40.4350 N   0  0  0  0  0  0  0  0  0  0  0  0
   40.2070   35.0450   40.6420 C   0  0  0  0  0  0  0  0  0  0  0  0
   40.7490   35.8810   39.4840 C   0  0  0  0  0  0  0  0  0  0  0  0
   40.5320   35.2910   38.1750 C   0  0  0  0  0  0  0  0  0  0  0  0
   40.3490   33.8610   38.0650 C   0  0  0  0  0  0  0  0  0  0  0  0
   40.5980   33.0040   39.2820 C   0  0  0  0  0  0  0  0  0  0  0  0
   40.6130   35.5230   41.5790 H   0  0  0  0  0  0  0  0  0  0  0  0
   39.1330   34.9790   40.6890 H   0  0  0  0  0  0  0  0  0  0  0  0
   40.2480   36.8740   39.5850 H   0  0  0  0  0  0  0  0  0  0  0  0
   41.8270   36.0760   39.7360 H   0  0  0  0  0  0  0  0  0  0  0  0
   39.6290   35.7700   37.6940 H   0  0  0  0  0  0  0  0  0  0  0  0
   41.3700   35.5850   37.4890 H   0  0  0  0  0  0  0  0  0  0  0  0
   40.0740   33.3230   37.2010 H   0  0  0  0  0  0  0  0  0  0  0  0
   40.4910   31.2800   39.2620 S   0  0  0  0  0  0  0  0  0  0  0  0
   39.0020   30.4920   39.7880 C   0  0  0  0  0  0  0  0  0  0  0  0
   38.1760   31.2170   40.8060 C   0  0  0  0  0  0  0  0  0  0  0  0
   37.1190   30.2580   41.3250 C   0  0  0  0  0  0  0  0  0  0  0  0
   36.7010   29.2370   40.2860 C   0  0  0  0  0  0  0  0  0  0  0  0
   37.8610   28.3430   39.8940 C   0  0  0  0  0  0  0  0  0  0  0  0
   39.1670   29.0590   40.2660 C   0  0  0  0  0  0  0  0  0  0  0  0
   43.3110   33.5470   40.4260 C   0  0  0  0  0  0  0  0  0  0  0  0
   43.7280   32.5110   40.2640 H   0  0  0  0  0  0  0  0  0  0  0  0
   43.1890   34.0450   39.4460 H   0  0  0  0  0  0  0  0  0  0  0  0
   44.2490   34.2740   41.2970 C   0  0  0  0  0  0  0  0  0  0  0  0
   43.8170   35.3310   42.0610 C   0  0  0  0  0  0  0  0  0  0  0  0
   44.7370   35.9950   42.8560 C   0  0  0  0  0  0  0  0  0  0  0  0
   46.0370   35.5590   42.8390 N   0  0  0  0  0  0  0  0  0  0  0  0
   46.4180   34.5320   42.0890 C   0  0  0  0  0  0  0  0  0  0  0  0
   45.5110   33.9120   41.3320 N   0  0  0  0  0  0  0  0  0  0  0  0
   42.8610   35.8020   42.2230 H   0  0  0  0  0  0  0  0  0  0  0  0
   44.5820   36.8440   43.5180 H   0  0  0  0  0  0  0  0  0  0  0  0
   47.8190   34.1210   42.1610 C   0  0  0  0  0  0  0  0  0  0  0  0
   48.1660   32.7810   42.0140 C   0  0  0  0  0  0  0  0  0  0  0  0
   49.4870   32.3980   42.0940 C   0  0  0  0  0  0  0  0  0  0  0  0
   50.3650   33.4250   42.3210 C   0  0  0  0  0  0  0  0  0  0  0  0
   50.0750   34.7830   42.4750 C   0  0  0  0  0  0  0  0  0  0  0  0
   48.7500   35.0680   42.3810 N   0  0  0  0  0  0  0  0  0  0  0  0
   47.4160   32.0110   41.8360 H   0  0  0  0  0  0  0  0  0  0  0  0
   49.8540   31.3870   41.9940 H   0  0  0  0  0  0  0  0  0  0  0  0
   51.4290   33.1690   42.3930 H   0  0  0  0  0  0  0  0  0  0  0  0
   50.8330   35.5040   42.6490 H   0  0  0  0  0  0  0  0  0  0  0  0
  1  3  1  0  0  0  0
  1  2  1  0  0  0  0
  4  5  1  0  0  0  0
  4  1  1  0  0  0  0
  5 11  1  0  0  0  0
  5 10  1  0  0  0  0
  6 12  1  0  0  0  0
  6 13  1  0  0  0  0
  6  5  1  0  0  0  0
  7  6  1  0  0  0  0
  8  7  1  0  0  0  0
  8  9  2  0  0  0  0
  9  4  1  0  0  0  0
 14  7  1  0  0  0  0
 15  7  1  0  0  0  0
 16  8  1  0  0  0  0
 17  9  1  0  0  0  0
 17 18  1  0  0  0  0
 18 23  1  0  0  0  0
 18 19  1  0  0  0  0
 19 20  1  0  0  0  0
 21 20  1  0  0  0  0
 22 23  1  0  0  0  0
 22 21  1  0  0  0  0
 24  1  1  0  0  0  0
 24 27  1  0  0  0  0
 25 24  1  0  0  0  0
 26 24  1  0  0  0  0
 27 32  2  0  0  0  0
 27 28  1  0  0  0  0
 28 33  1  0  0  0  0
 28 29  2  0  0  0  0
 29 34  1  0  0  0  0
 30 29  1  0  0  0  0
 31 35  1  0  0  0  0
 31 30  2  0  0  0  0
 32 31  1  0  0  0  0
 35 40  1  0  0  0  0
 36 37  1  0  0  0  0
 36 35  2  0  0  0  0
 37 38  2  0  0  0  0
 38 43  1  0  0  0  0
 38 39  1  0  0  0  0
 39 44  1  0  0  0  0
 40 39  2  0  0  0  0
 41 36  1  0  0  0  0
 42 37  1  0  0  0  0
M  END
>  <minimizedAffinity>
-6.03776264

>  <minimizedRMSD>
4.58027744

$$$$
