
 OpenBabel03252508563D

 21 22  0  0  0  0  0  0  0  0999 V2000
   46.3570   35.0530   41.8270 C   0  0  0  0  0  0  0  0  0  0  0  0
   46.0360   34.1060   41.3400 H   0  0  0  0  0  0  0  0  0  0  0  0
   45.8810   35.8830   41.3020 H   0  0  0  0  0  0  0  0  0  0  0  0
   44.4600   35.9490   44.9530 C   0  0  0  0  0  0  0  0  0  0  0  0
   44.9790   35.9970   43.6510 C   0  0  0  0  0  0  0  0  0  0  0  0
   45.8180   34.9850   43.2090 C   0  0  0  0  0  0  0  0  0  0  0  0
   46.0910   33.9830   44.0890 N   0  0  0  0  0  0  0  0  0  0  0  0
   45.5820   33.9580   45.3330 C   0  0  0  0  0  0  0  0  0  0  0  0
   44.7770   34.9180   45.7740 N   0  0  0  0  0  0  0  0  0  0  0  0
   43.8200   36.7920   45.1810 H   0  0  0  0  0  0  0  0  0  0  0  0
   44.7550   36.7980   42.9620 H   0  0  0  0  0  0  0  0  0  0  0  0
   45.8270   33.1300   46.0140 H   0  0  0  0  0  0  0  0  0  0  0  0
   47.8550   35.1870   41.9000 C   0  0  0  0  0  0  0  0  0  0  0  0
   48.1070   36.2400   41.6890 H   0  0  0  0  0  0  0  0  0  0  0  0
   48.1630   34.9950   42.9480 H   0  0  0  0  0  0  0  0  0  0  0  0
   48.6020   34.3060   40.9390 C   0  0  0  0  0  3  0  0  0  0  0  0
   48.9370   33.0290   41.6560 C   0  0  0  0  0  2  0  0  0  0  0  0
   48.7680   31.8070   40.7900 C   0  0  0  0  0  2  0  0  0  0  0  0
   49.4090   32.1500   39.4450 C   0  0  0  0  0  2  0  0  0  0  0  0
   48.4860   33.1190   38.7610 C   0  0  0  0  0  2  0  0  0  0  0  0
   47.8190   34.0930   39.6630 C   0  0  0  0  0  2  0  0  0  0  0  0
  1 13  1  0  0  0  0
  1  6  1  0  0  0  0
  2  1  1  0  0  0  0
  3  1  1  0  0  0  0
  4 10  1  0  0  0  0
  4  9  1  0  0  0  0
  5  4  2  0  0  0  0
  6  5  1  0  0  0  0
  6  7  2  0  0  0  0
  7  8  1  0  0  0  0
  8  9  2  0  0  0  0
  8 12  1  0  0  0  0
 11  5  1  0  0  0  0
 13 15  1  0  0  0  0
 14 13  1  0  0  0  0
 16 17  1  0  0  0  0
 16 13  1  0  0  0  0
 18 17  1  0  0  0  0
 19 18  1  0  0  0  0
 20 19  1  0  0  0  0
 20 21  1  0  0  0  0
 21 16  1  0  0  0  0
M  END
>  <minimizedAffinity>
-4.24099588

>  <minimizedRMSD>
1.76266003

$$$$
