
 OpenBabel03252507163D

 26 28  0  0  0  0  0  0  0  0999 V2000
   45.2900   36.1230   43.2930 C   0  0  0  0  0  0  0  0  0  0  0  0
   45.9830   34.9300   42.9700 C   0  0  0  0  0  0  0  0  0  0  0  0
   45.9750   33.9290   43.9400 C   0  0  0  0  0  0  0  0  0  0  0  0
   45.3340   34.1200   45.1090 N   0  0  0  0  0  0  0  0  0  0  0  0
   44.6740   35.2910   45.3840 C   0  0  0  0  0  0  0  0  0  0  0  0
   44.6710   36.2550   44.4710 N   0  0  0  0  0  0  0  0  0  0  0  0
   45.2690   36.9420   42.5590 H   0  0  0  0  0  0  0  0  0  0  0  0
   44.2100   35.2890   46.3600 H   0  0  0  0  0  0  0  0  0  0  0  0
   46.6810   32.6880   43.6360 C   0  0  0  0  0  0  0  0  0  0  0  0
   45.9730   31.5240   43.4480 C   0  0  0  0  0  0  0  0  0  0  0  0
   46.6650   30.3680   43.1620 C   0  0  0  0  0  0  0  0  0  0  0  0
   48.0480   30.3150   43.0520 C   0  0  0  0  0  0  0  0  0  0  0  0
   48.6990   31.5280   43.2540 C   0  0  0  0  0  0  0  0  0  0  0  0
   48.0070   32.6420   43.5310 N   0  0  0  0  0  0  0  0  0  0  0  0
   44.8760   31.4820   43.5180 H   0  0  0  0  0  0  0  0  0  0  0  0
   46.1340   29.4190   43.0070 H   0  0  0  0  0  0  0  0  0  0  0  0
   48.6030   29.4180   42.8290 H   0  0  0  0  0  0  0  0  0  0  0  0
   49.7800   31.5890   43.1890 H   0  0  0  0  0  0  0  0  0  0  0  0
   46.6420   34.7850   41.7220 C   0  0  0  0  0  0  0  0  0  0  0  0
   47.8400   35.1990   41.6610 O   0  0  0  0  0  0  0  0  0  0  0  0
   46.2110   34.2270   40.4050 C   0  0  0  0  0  3  0  0  0  0  0  0
   44.8790   33.5850   40.6300 C   0  0  0  0  0  2  0  0  0  0  0  0
   44.4690   32.6050   39.5680 C   0  0  0  0  0  2  0  0  0  0  0  0
   45.5530   31.6490   39.1860 C   0  0  0  0  0  2  0  0  0  0  0  0
   46.8550   31.8790   39.8860 C   0  0  0  0  0  2  0  0  0  0  0  0
   47.2630   33.3270   39.8490 C   0  0  0  0  0  2  0  0  0  0  0  0
  1  6  1  0  0  0  0
  2  1  2  0  0  0  0
  2  3  1  0  0  0  0
  3  4  2  0  0  0  0
  4  5  1  0  0  0  0
  5  8  1  0  0  0  0
  6  5  2  0  0  0  0
  7  1  1  0  0  0  0
  9  3  1  0  0  0  0
 10 15  1  0  0  0  0
 10  9  2  0  0  0  0
 11 10  1  0  0  0  0
 12 11  2  0  0  0  0
 12 13  1  0  0  0  0
 13 14  2  0  0  0  0
 14  9  1  0  0  0  0
 16 11  1  0  0  0  0
 17 12  1  0  0  0  0
 18 13  1  0  0  0  0
 19  2  1  0  0  0  0
 20 19  2  0  0  0  0
 21 22  1  0  0  0  0
 21 19  1  0  0  0  0
 23 22  1  0  0  0  0
 24 23  1  0  0  0  0
 24 25  1  0  0  0  0
 26 25  1  0  0  0  0
 26 21  1  0  0  0  0
M  END
>  <minimizedAffinity>
-4.27355337

>  <minimizedRMSD>
0.466753781

$$$$
