
 OpenBabel03242522513D

 23 24  0  0  0  0  0  0  0  0999 V2000
   47.5880   30.4360   47.2650 O   0  0  0  0  0  0  0  0  0  0  0  0
   47.2900   31.4160   48.4210 P   0  0  2  0  0  0  0  0  0  0  0  0
   46.7450   30.4700   49.7000 O   0  0  0  0  0  0  0  0  0  0  0  0
   46.6090   30.9550   50.5370 H   0  0  0  0  0  0  0  0  0  0  0  0
   46.0730   32.4740   47.9210 O   0  0  0  0  0  0  0  0  0  0  0  0
   47.0230   33.0200   44.4570 C   0  0  0  0  0  0  0  0  0  0  0  0
   46.9870   32.5010   45.7630 C   0  0  0  0  0  0  0  0  0  0  0  0
   46.0710   33.0120   46.6510 C   0  0  0  0  0  0  0  0  0  0  0  0
   45.2480   33.9940   46.2160 N   0  0  0  0  0  0  0  0  0  0  0  0
   45.2770   34.4920   44.9750 C   0  0  0  0  0  0  0  0  0  0  0  0
   46.1760   33.9970   44.0880 N   0  0  0  0  0  0  0  0  0  0  0  0
   47.7020   32.6910   43.6830 H   0  0  0  0  0  0  0  0  0  0  0  0
   47.7120   31.7410   45.8850 H   0  0  0  0  0  0  0  0  0  0  0  0
   44.5430   35.2710   44.8130 H   0  0  0  0  0  0  0  0  0  0  0  0
   48.6730   32.2430   48.7900 O   0  0  0  0  0  0  0  0  0  0  0  0
   49.8910   31.8340   49.2090 C   0  0  0  0  0  0  0  0  0  0  0  0
   50.3900   32.5790   50.1260 O   0  0  0  0  0  0  0  0  0  0  0  0
   51.0830   30.9480   49.2210 C   0  0  0  0  0  3  0  0  0  0  0  0
   50.9080   29.7630   48.3130 C   0  0  0  0  0  2  0  0  0  0  0  0
   50.0530   28.6660   48.8070 C   0  0  0  0  0  2  0  0  0  0  0  0
   50.2680   28.3080   50.2540 C   0  0  0  0  0  2  0  0  0  0  0  0
   50.2860   29.5190   51.1200 C   0  0  0  0  0  2  0  0  0  0  0  0
   51.2970   30.5430   50.6640 C   0  0  0  0  0  2  0  0  0  0  0  0
  2  1  2  6  0  0  0
  2 15  1  0  0  0  0
  2  3  1  0  0  0  0
  3  4  1  0  0  0  0
  5  2  1  0  0  0  0
  6  7  1  0  0  0  0
  7 13  1  0  0  0  0
  7  8  2  0  0  0  0
  8  5  1  0  0  0  0
  9  8  1  0  0  0  0
 10  9  2  0  0  0  0
 11  6  2  0  0  0  0
 11 10  1  0  0  0  0
 12  6  1  0  0  0  0
 14 10  1  0  0  0  0
 15 16  1  0  0  0  0
 16 18  1  0  0  0  0
 16 17  2  0  0  0  0
 18 23  1  0  0  0  0
 19 20  1  0  0  0  0
 19 18  1  0  0  0  0
 20 21  1  0  0  0  0
 21 22  1  0  0  0  0
 23 22  1  0  0  0  0
M  END
>  <minimizedAffinity>
-4.14709187

>  <minimizedRMSD>
1.62774372

$$$$
