
 OpenBabel03252508483D

 42 44  0  0  0  0  0  0  0  0999 V2000
   36.3330   30.4850   41.3060 C   0  0  0  0  0  0  0  0  0  0  0  0
   35.3530   30.9230   41.5730 H   0  0  0  0  0  0  0  0  0  0  0  0
   37.0910   31.2950   41.4580 H   0  0  0  0  0  0  0  0  0  0  0  0
   37.0260   30.9030   38.9370 C   0  0  0  0  0  0  0  0  0  0  0  0
   36.2900   30.1710   39.8470 C   0  0  0  0  0  0  0  0  0  0  0  0
   35.5180   29.1440   39.3680 C   0  0  0  0  0  0  0  0  0  0  0  0
   35.4870   28.8660   38.0340 C   0  0  0  0  0  0  0  0  0  0  0  0
   36.2110   29.5820   37.1160 C   0  0  0  0  0  0  0  0  0  0  0  0
   36.9710   30.6020   37.6360 C   0  0  0  0  0  0  0  0  0  0  0  0
   34.9100   28.5230   40.0260 H   0  0  0  0  0  0  0  0  0  0  0  0
   34.8690   28.0470   37.6630 H   0  0  0  0  0  0  0  0  0  0  0  0
   36.2200   29.4000   36.0460 H   0  0  0  0  0  0  0  0  0  0  0  0
   37.5810   31.2220   36.9610 H   0  0  0  0  0  0  0  0  0  0  0  0
   38.2980   34.2640   40.1430 C   0  0  0  0  0  0  0  0  0  0  0  0
   37.4320   33.3140   39.5850 C   0  0  0  0  0  0  0  0  0  0  0  0
   37.8360   31.9900   39.4990 C   0  0  0  0  0  0  0  0  0  0  0  0
   39.0810   31.6960   39.9740 N   0  0  0  0  0  0  0  0  0  0  0  0
   39.9050   32.6260   40.5120 C   0  0  0  0  0  0  0  0  0  0  0  0
   39.5000   33.9010   40.5880 N   0  0  0  0  0  0  0  0  0  0  0  0
   37.9420   35.2700   40.1890 H   0  0  0  0  0  0  0  0  0  0  0  0
   36.4520   33.5310   39.2080 H   0  0  0  0  0  0  0  0  0  0  0  0
   40.8820   32.3390   40.8730 H   0  0  0  0  0  0  0  0  0  0  0  0
   36.6580   29.3780   42.1410 N   0  0  0  0  0  0  0  0  0  0  0  0
   36.3140   28.4590   41.8120 H   0  0  0  0  0  0  0  0  0  0  0  0
   38.3450   29.2280   42.4080 S   0  0  0  0  0  0  0  0  0  0  0  0
   38.8990   30.4500   43.1050 O   0  0  0  0  0  0  0  0  0  0  0  0
   38.9760   30.4300   44.1010 H   0  0  0  0  0  0  0  0  0  0  0  0
   39.0930   28.9690   41.1570 O   0  0  0  0  0  0  0  0  0  0  0  0
   39.8350   29.5580   40.8770 H   0  0  0  0  0  0  0  0  0  0  0  0
   38.5640   27.9060   43.4280 O   0  0  0  0  0  0  0  0  0  0  0  0
   39.7530   27.2930   43.1100 C   0  0  0  0  0  0  0  0  0  0  0  0
   40.0070   27.2930   42.0490 H   0  0  0  0  0  0  0  0  0  0  0  0
   40.5940   27.7600   43.6610 H   0  0  0  0  0  0  0  0  0  0  0  0
   39.6900   25.8120   43.5210 C   0  0  0  0  0  0  0  0  0  0  0  0
   38.9380   25.7430   44.3090 H   0  0  0  0  0  0  0  0  0  0  0  0
   40.7020   25.5920   43.9230 H   0  0  0  0  0  0  0  0  0  0  0  0
   39.4260   24.9400   42.3170 C   0  0  0  0  0  3  0  0  0  0  0  0
   39.8130   25.6480   41.0670 C   0  0  0  0  0  2  0  0  0  0  0  0
   38.8190   25.5050   39.9600 C   0  0  0  0  0  2  0  0  0  0  0  0
   37.4760   25.9500   40.4780 C   0  0  0  0  0  2  0  0  0  0  0  0
   36.9950   25.1150   41.6340 C   0  0  0  0  0  2  0  0  0  0  0  0
   38.0530   24.3850   42.3700 C   0  0  0  0  0  2  0  0  0  0  0  0
  1  3  1  0  0  0  0
  1  2  1  0  0  0  0
  1 23  1  0  0  0  0
  4 16  1  0  0  0  0
  4  5  1  0  0  0  0
  5  1  1  0  0  0  0
  6  5  2  0  0  0  0
  6 10  1  0  0  0  0
  7  6  1  0  0  0  0
  8  9  1  0  0  0  0
  8  7  2  0  0  0  0
  9  4  2  0  0  0  0
 11  7  1  0  0  0  0
 12  8  1  0  0  0  0
 13  9  1  0  0  0  0
 14 20  1  0  0  0  0
 14 19  1  0  0  0  0
 15 14  2  0  0  0  0
 16 15  1  0  0  0  0
 16 17  2  0  0  0  0
 17 18  1  0  0  0  0
 18 19  2  0  0  0  0
 18 22  1  0  0  0  0
 21 15  1  0  0  0  0
 23 25  1  0  0  0  0
 24 23  1  0  0  0  0
 25 26  1  0  0  0  0
 25 30  1  0  0  0  0
 26 27  1  0  0  0  0
 28 25  1  0  0  0  0
 29 28  1  0  0  0  0
 31 30  1  0  0  0  0
 31 34  1  0  0  0  0
 31 33  1  0  0  0  0
 32 31  1  0  0  0  0
 34 36  1  0  0  0  0
 34 35  1  0  0  0  0
 37 42  1  0  0  0  0
 37 34  1  0  0  0  0
 38 37  1  0  0  0  0
 39 40  1  0  0  0  0
 39 38  1  0  0  0  0
 40 41  1  0  0  0  0
 41 42  1  0  0  0  0
M  END
>  <minimizedAffinity>
-5.8000474

$$$$

 OpenBabel03252508483D

 42 44  0  0  0  0  0  0  0  0999 V2000
   37.7190   30.7950   37.4460 C   0  0  0  0  0  0  0  0  0  0  0  0
   38.4280   31.4260   38.0140 H   0  0  0  0  0  0  0  0  0  0  0  0
   37.1690   31.4840   36.7560 H   0  0  0  0  0  0  0  0  0  0  0  0
   36.6340   30.7720   39.7020 C   0  0  0  0  0  0  0  0  0  0  0  0
   36.7320   30.2530   38.4270 C   0  0  0  0  0  0  0  0  0  0  0  0
   35.8930   29.2230   38.0880 C   0  0  0  0  0  0  0  0  0  0  0  0
   34.9950   28.7370   38.9910 C   0  0  0  0  0  0  0  0  0  0  0  0
   34.8840   29.2390   40.2610 C   0  0  0  0  0  0  0  0  0  0  0  0
   35.7420   30.2700   40.5620 C   0  0  0  0  0  0  0  0  0  0  0  0
   35.9130   28.7630   37.1000 H   0  0  0  0  0  0  0  0  0  0  0  0
   34.3320   27.9160   38.7120 H   0  0  0  0  0  0  0  0  0  0  0  0
   34.1860   28.8870   41.0160 H   0  0  0  0  0  0  0  0  0  0  0  0
   35.7120   30.7260   41.5630 H   0  0  0  0  0  0  0  0  0  0  0  0
   38.2790   34.1680   40.0620 C   0  0  0  0  0  0  0  0  0  0  0  0
   37.3220   33.2060   39.7110 C   0  0  0  0  0  0  0  0  0  0  0  0
   37.5530   31.8730   40.0160 C   0  0  0  0  0  0  0  0  0  0  0  0
   38.7240   31.5820   40.6520 N   0  0  0  0  0  0  0  0  0  0  0  0
   39.6380   32.5230   40.9850 C   0  0  0  0  0  0  0  0  0  0  0  0
   39.4010   33.8070   40.6840 N   0  0  0  0  0  0  0  0  0  0  0  0
   38.0570   35.1820   39.8070 H   0  0  0  0  0  0  0  0  0  0  0  0
   36.3990   33.4210   39.2110 H   0  0  0  0  0  0  0  0  0  0  0  0
   40.5500   32.2380   41.4890 H   0  0  0  0  0  0  0  0  0  0  0  0
   38.3950   29.8060   36.6770 N   0  0  0  0  0  0  0  0  0  0  0  0
   38.7100   30.1120   35.7410 H   0  0  0  0  0  0  0  0  0  0  0  0
   39.7580   29.1560   37.4910 S   0  0  0  0  0  0  0  0  0  0  0  0
   40.2160   30.0700   38.6050 O   0  0  0  0  0  0  0  0  0  0  0  0
   39.8750   29.8940   39.5280 H   0  0  0  0  0  0  0  0  0  0  0  0
   40.8810   28.8710   36.5690 O   0  0  0  0  0  0  0  0  0  0  0  0
   41.7750   29.2620   36.7200 H   0  0  0  0  0  0  0  0  0  0  0  0
   39.2690   27.7000   38.1820 O   0  0  0  0  0  0  0  0  0  0  0  0
   39.3030   27.8260   39.5510 C   0  0  0  0  0  0  0  0  0  0  0  0
   40.1450   27.3370   40.0420 H   0  0  0  0  0  0  0  0  0  0  0  0
   39.3110   28.8950   39.8450 H   0  0  0  0  0  0  0  0  0  0  0  0
   38.0410   27.1840   40.1530 C   0  0  0  0  0  0  0  0  0  0  0  0
   37.8040   26.3240   39.5260 H   0  0  0  0  0  0  0  0  0  0  0  0
   37.2590   27.9670   40.0600 H   0  0  0  0  0  0  0  0  0  0  0  0
   38.2590   26.8620   41.6130 C   0  0  0  0  0  3  0  0  0  0  0  0
   36.9710   26.9180   42.3560 C   0  0  0  0  0  2  0  0  0  0  0  0
   37.0650   27.6160   43.6750 C   0  0  0  0  0  2  0  0  0  0  0  0
   37.6510   28.9840   43.4380 C   0  0  0  0  0  2  0  0  0  0  0  0
   39.0350   28.9290   42.8510 C   0  0  0  0  0  2  0  0  0  0  0  0
   39.3780   27.6650   42.1590 C   0  0  0  0  0  2  0  0  0  0  0  0
  1  2  1  0  0  0  0
  1  5  1  0  0  0  0
  3  1  1  0  0  0  0
  4 16  1  0  0  0  0
  4  9  1  0  0  0  0
  5  4  2  0  0  0  0
  6  5  1  0  0  0  0
  6  7  2  0  0  0  0
  7  8  1  0  0  0  0
  8  9  2  0  0  0  0
  8 12  1  0  0  0  0
  9 13  1  0  0  0  0
 10  6  1  0  0  0  0
 11  7  1  0  0  0  0
 14 19  1  0  0  0  0
 15 16  1  0  0  0  0
 15 14  2  0  0  0  0
 16 17  2  0  0  0  0
 17 18  1  0  0  0  0
 18 22  1  0  0  0  0
 19 18  2  0  0  0  0
 20 14  1  0  0  0  0
 21 15  1  0  0  0  0
 23  1  1  0  0  0  0
 23 25  1  0  0  0  0
 24 23  1  0  0  0  0
 25 30  1  0  0  0  0
 25 26  1  0  0  0  0
 26 27  1  0  0  0  0
 28 29  1  0  0  0  0
 28 25  1  0  0  0  0
 30 31  1  0  0  0  0
 31 33  1  0  0  0  0
 31 32  1  0  0  0  0
 31 34  1  0  0  0  0
 34 37  1  0  0  0  0
 35 34  1  0  0  0  0
 36 34  1  0  0  0  0
 37 42  1  0  0  0  0
 37 38  1  0  0  0  0
 38 39  1  0  0  0  0
 40 39  1  0  0  0  0
 41 40  1  0  0  0  0
 42 41  1  0  0  0  0
M  END
>  <minimizedAffinity>
-5.78577137

$$$$

 OpenBabel03252508483D

 42 44  0  0  0  0  0  0  0  0999 V2000
   37.1760   30.7810   40.6730 C   0  0  0  0  0  0  0  0  0  0  0  0
   38.2630   30.8480   40.4820 H   0  0  0  0  0  0  0  0  0  0  0  0
   37.0630   30.3900   41.7160 H   0  0  0  0  0  0  0  0  0  0  0  0
   36.6720   28.4080   40.0570 C   0  0  0  0  0  0  0  0  0  0  0  0
   36.6290   29.7510   39.7400 C   0  0  0  0  0  0  0  0  0  0  0  0
   36.0680   30.1100   38.5420 C   0  0  0  0  0  0  0  0  0  0  0  0
   35.5710   29.1610   37.6990 C   0  0  0  0  0  0  0  0  0  0  0  0
   35.6050   27.8230   37.9950 C   0  0  0  0  0  0  0  0  0  0  0  0
   36.1760   27.5050   39.2050 C   0  0  0  0  0  0  0  0  0  0  0  0
   36.0000   31.1510   38.2250 H   0  0  0  0  0  0  0  0  0  0  0  0
   35.1270   29.4570   36.7470 H   0  0  0  0  0  0  0  0  0  0  0  0
   35.2240   27.0300   37.3590 H   0  0  0  0  0  0  0  0  0  0  0  0
   36.2380   26.4500   39.5140 H   0  0  0  0  0  0  0  0  0  0  0  0
   37.2850   27.6470   43.7180 C   0  0  0  0  0  0  0  0  0  0  0  0
   36.5890   27.9700   42.5460 C   0  0  0  0  0  0  0  0  0  0  0  0
   37.2810   28.0750   41.3490 C   0  0  0  0  0  0  0  0  0  0  0  0
   38.6260   27.8520   41.3960 N   0  0  0  0  0  0  0  0  0  0  0  0
   39.2840   27.5390   42.5380 C   0  0  0  0  0  0  0  0  0  0  0  0
   38.6000   27.4410   43.6860 N   0  0  0  0  0  0  0  0  0  0  0  0
   36.7080   27.5770   44.6150 H   0  0  0  0  0  0  0  0  0  0  0  0
   35.5330   28.1490   42.4950 H   0  0  0  0  0  0  0  0  0  0  0  0
   40.3510   27.3710   42.5190 H   0  0  0  0  0  0  0  0  0  0  0  0
   36.5470   32.0560   40.5810 N   0  0  0  0  0  0  0  0  0  0  0  0
   36.1420   32.4140   41.4640 H   0  0  0  0  0  0  0  0  0  0  0  0
   37.5960   33.2660   39.9700 S   0  0  0  0  0  0  0  0  0  0  0  0
   38.3030   33.9940   41.0910 O   0  0  0  0  0  0  0  0  0  0  0  0
   39.2100   33.6750   41.3620 H   0  0  0  0  0  0  0  0  0  0  0  0
   36.8930   34.2330   39.0960 O   0  0  0  0  0  0  0  0  0  0  0  0
   36.9210   35.2020   39.2830 H   0  0  0  0  0  0  0  0  0  0  0  0
   38.7640   32.4820   39.0450 O   0  0  0  0  0  0  0  0  0  0  0  0
   40.0080   32.9130   39.4420 C   0  0  0  0  0  0  0  0  0  0  0  0
   40.5810   33.4460   38.6820 H   0  0  0  0  0  0  0  0  0  0  0  0
   39.9280   33.5700   40.3320 H   0  0  0  0  0  0  0  0  0  0  0  0
   40.8670   31.6980   39.8340 C   0  0  0  0  0  0  0  0  0  0  0  0
   40.4660   30.8470   39.2830 H   0  0  0  0  0  0  0  0  0  0  0  0
   40.6960   31.5770   40.9250 H   0  0  0  0  0  0  0  0  0  0  0  0
   42.3290   31.9830   39.5830 C   0  0  0  0  0  3  0  0  0  0  0  0
   42.6140   33.4330   39.7550 C   0  0  0  0  0  2  0  0  0  0  0  0
   43.4980   34.0040   38.6930 C   0  0  0  0  0  2  0  0  0  0  0  0
   42.8770   33.6970   37.3550 C   0  0  0  0  0  2  0  0  0  0  0  0
   42.7530   32.2190   37.0990 C   0  0  0  0  0  2  0  0  0  0  0  0
   42.7660   31.3650   38.3090 C   0  0  0  0  0  2  0  0  0  0  0  0
  1  3  1  0  0  0  0
  2  1  1  0  0  0  0
  4 16  1  0  0  0  0
  5  4  1  0  0  0  0
  5  1  1  0  0  0  0
  6  5  2  0  0  0  0
  7  8  2  0  0  0  0
  7  6  1  0  0  0  0
  8  9  1  0  0  0  0
  9 13  1  0  0  0  0
  9  4  2  0  0  0  0
 10  6  1  0  0  0  0
 11  7  1  0  0  0  0
 12  8  1  0  0  0  0
 14 20  1  0  0  0  0
 15 14  2  0  0  0  0
 16 17  2  0  0  0  0
 16 15  1  0  0  0  0
 17 18  1  0  0  0  0
 18 19  2  0  0  0  0
 19 14  1  0  0  0  0
 21 15  1  0  0  0  0
 22 18  1  0  0  0  0
 23  1  1  0  0  0  0
 23 24  1  0  0  0  0
 25 23  1  0  0  0  0
 25 26  1  0  0  0  0
 26 27  1  0  0  0  0
 28 29  1  0  0  0  0
 28 25  1  0  0  0  0
 30 31  1  0  0  0  0
 30 25  1  0  0  0  0
 31 34  1  0  0  0  0
 31 33  1  0  0  0  0
 32 31  1  0  0  0  0
 34 36  1  0  0  0  0
 35 34  1  0  0  0  0
 37 38  1  0  0  0  0
 37 34  1  0  0  0  0
 39 38  1  0  0  0  0
 40 39  1  0  0  0  0
 41 40  1  0  0  0  0
 41 42  1  0  0  0  0
 42 37  1  0  0  0  0
M  END
>  <minimizedAffinity>
-5.72012377

$$$$

 OpenBabel03252508483D

 42 44  0  0  0  0  0  0  0  0999 V2000
   36.1920   30.7120   40.6910 C   0  0  0  0  0  0  0  0  0  0  0  0
   35.4290   31.5090   40.7650 H   0  0  0  0  0  0  0  0  0  0  0  0
   37.1670   31.1830   40.9760 H   0  0  0  0  0  0  0  0  0  0  0  0
   37.1470   30.9620   38.3910 C   0  0  0  0  0  0  0  0  0  0  0  0
   36.2800   30.3210   39.2530 C   0  0  0  0  0  0  0  0  0  0  0  0
   35.5020   29.3120   38.7470 C   0  0  0  0  0  0  0  0  0  0  0  0
   35.5910   28.9620   37.4330 C   0  0  0  0  0  0  0  0  0  0  0  0
   36.4460   29.5870   36.5620 C   0  0  0  0  0  0  0  0  0  0  0  0
   37.2080   30.5930   37.1070 C   0  0  0  0  0  0  0  0  0  0  0  0
   34.7950   28.7610   39.3670 H   0  0  0  0  0  0  0  0  0  0  0  0
   34.9680   28.1580   37.0390 H   0  0  0  0  0  0  0  0  0  0  0  0
   36.5540   29.3470   35.5080 H   0  0  0  0  0  0  0  0  0  0  0  0
   37.9190   31.1410   36.4710 H   0  0  0  0  0  0  0  0  0  0  0  0
   38.3250   34.1460   40.0770 C   0  0  0  0  0  0  0  0  0  0  0  0
   37.4460   33.1920   39.5460 C   0  0  0  0  0  0  0  0  0  0  0  0
   37.9580   32.0340   38.9800 C   0  0  0  0  0  0  0  0  0  0  0  0
   39.3150   31.8990   38.9790 N   0  0  0  0  0  0  0  0  0  0  0  0
   40.1510   32.8290   39.4980 C   0  0  0  0  0  0  0  0  0  0  0  0
   39.6410   33.9430   40.0410 N   0  0  0  0  0  0  0  0  0  0  0  0
   37.8830   35.0210   40.5020 H   0  0  0  0  0  0  0  0  0  0  0  0
   36.3780   33.2860   39.5400 H   0  0  0  0  0  0  0  0  0  0  0  0
   41.2190   32.6720   39.4710 H   0  0  0  0  0  0  0  0  0  0  0  0
   35.9150   29.6370   41.5820 N   0  0  0  0  0  0  0  0  0  0  0  0
   35.4110   28.8350   41.1640 H   0  0  0  0  0  0  0  0  0  0  0  0
   37.3280   29.0210   42.3320 S   0  0  0  0  0  0  0  0  0  0  0  0
   37.2820   29.2190   43.8300 O   0  0  0  0  0  0  0  0  0  0  0  0
   36.9400   28.4690   44.3940 H   0  0  0  0  0  0  0  0  0  0  0  0
   38.5660   29.6150   41.7750 O   0  0  0  0  0  0  0  0  0  0  0  0
   39.2210   30.0660   42.3600 H   0  0  0  0  0  0  0  0  0  0  0  0
   37.3630   27.3650   42.0280 O   0  0  0  0  0  0  0  0  0  0  0  0
   38.4010   27.0940   41.1680 C   0  0  0  0  0  0  0  0  0  0  0  0
   38.1180   26.9690   40.1220 H   0  0  0  0  0  0  0  0  0  0  0  0
   39.1700   27.8920   41.2180 H   0  0  0  0  0  0  0  0  0  0  0  0
   39.0720   25.7720   41.5770 C   0  0  0  0  0  0  0  0  0  0  0  0
   38.6300   24.9960   40.9500 H   0  0  0  0  0  0  0  0  0  0  0  0
   38.7820   25.6310   42.6400 H   0  0  0  0  0  0  0  0  0  0  0  0
   40.5740   25.8880   41.4760 C   0  0  0  0  0  3  0  0  0  0  0  0
   41.2340   24.9270   42.4010 C   0  0  0  0  0  2  0  0  0  0  0  0
   42.3850   25.5100   43.1560 C   0  0  0  0  0  2  0  0  0  0  0  0
   41.8990   26.7470   43.8660 C   0  0  0  0  0  2  0  0  0  0  0  0
   41.3950   27.8010   42.9160 C   0  0  0  0  0  2  0  0  0  0  0  0
   40.9920   27.3060   41.5800 C   0  0  0  0  0  2  0  0  0  0  0  0
  1  2  1  0  0  0  0
  1  3  1  0  0  0  0
  1 23  1  0  0  0  0
  4 16  1  0  0  0  0
  4  5  1  0  0  0  0
  5  1  1  0  0  0  0
  6  5  2  0  0  0  0
  6 10  1  0  0  0  0
  7  6  1  0  0  0  0
  8  9  1  0  0  0  0
  8  7  2  0  0  0  0
  9  4  2  0  0  0  0
 11  7  1  0  0  0  0
 12  8  1  0  0  0  0
 13  9  1  0  0  0  0
 14 20  1  0  0  0  0
 15 14  2  0  0  0  0
 16 15  1  0  0  0  0
 17 16  2  0  0  0  0
 17 18  1  0  0  0  0
 18 19  2  0  0  0  0
 19 14  1  0  0  0  0
 21 15  1  0  0  0  0
 22 18  1  0  0  0  0
 23 25  1  0  0  0  0
 24 23  1  0  0  0  0
 25 26  1  0  0  0  0
 26 27  1  0  0  0  0
 28 25  1  0  0  0  0
 28 29  1  0  0  0  0
 30 25  1  0  0  0  0
 31 33  1  0  0  0  0
 31 34  1  0  0  0  0
 31 30  1  0  0  0  0
 32 31  1  0  0  0  0
 34 36  1  0  0  0  0
 35 34  1  0  0  0  0
 37 34  1  0  0  0  0
 37 42  1  0  0  0  0
 37 38  1  0  0  0  0
 38 39  1  0  0  0  0
 39 40  1  0  0  0  0
 41 40  1  0  0  0  0
 42 41  1  0  0  0  0
M  END
>  <minimizedAffinity>
-5.71898031

$$$$

 OpenBabel03252508483D

 42 44  0  0  0  0  0  0  0  0999 V2000
   37.4430   30.6450   40.3210 C   0  0  0  0  0  0  0  0  0  0  0  0
   36.9720   30.1780   39.4360 H   0  0  0  0  0  0  0  0  0  0  0  0
   38.5200   30.8050   40.0570 H   0  0  0  0  0  0  0  0  0  0  0  0
   36.5620   28.5400   41.3510 C   0  0  0  0  0  0  0  0  0  0  0  0
   37.3910   29.6420   41.4260 C   0  0  0  0  0  0  0  0  0  0  0  0
   38.1670   29.7850   42.5480 C   0  0  0  0  0  0  0  0  0  0  0  0
   38.1120   28.8630   43.5490 C   0  0  0  0  0  0  0  0  0  0  0  0
   37.2950   27.7630   43.4930 C   0  0  0  0  0  0  0  0  0  0  0  0
   36.5330   27.6560   42.3540 C   0  0  0  0  0  0  0  0  0  0  0  0
   38.8440   30.6290   42.6760 H   0  0  0  0  0  0  0  0  0  0  0  0
   38.7330   28.9860   44.4380 H   0  0  0  0  0  0  0  0  0  0  0  0
   37.2150   27.0020   44.2630 H   0  0  0  0  0  0  0  0  0  0  0  0
   35.8530   26.7990   42.2350 H   0  0  0  0  0  0  0  0  0  0  0  0
   35.1860   27.5760   37.9540 C   0  0  0  0  0  0  0  0  0  0  0  0
   36.0370   27.5890   39.0670 C   0  0  0  0  0  0  0  0  0  0  0  0
   35.7530   28.4310   40.1320 C   0  0  0  0  0  0  0  0  0  0  0  0
   34.6380   29.2090   40.0190 N   0  0  0  0  0  0  0  0  0  0  0  0
   33.8250   29.1830   38.9370 C   0  0  0  0  0  0  0  0  0  0  0  0
   34.1130   28.3640   37.9160 N   0  0  0  0  0  0  0  0  0  0  0  0
   35.4470   26.9100   37.1590 H   0  0  0  0  0  0  0  0  0  0  0  0
   36.9160   26.9840   39.1680 H   0  0  0  0  0  0  0  0  0  0  0  0
   32.9530   29.8200   38.8990 H   0  0  0  0  0  0  0  0  0  0  0  0
   36.8470   31.9000   40.6320 N   0  0  0  0  0  0  0  0  0  0  0  0
   36.6420   32.0570   41.6340 H   0  0  0  0  0  0  0  0  0  0  0  0
   37.7840   33.2280   40.0860 S   0  0  0  0  0  0  0  0  0  0  0  0
   38.4170   33.9640   41.2450 O   0  0  0  0  0  0  0  0  0  0  0  0
   39.3480   33.7170   41.5090 H   0  0  0  0  0  0  0  0  0  0  0  0
   37.0000   34.1660   39.2510 O   0  0  0  0  0  0  0  0  0  0  0  0
   36.9390   35.1240   39.4830 H   0  0  0  0  0  0  0  0  0  0  0  0
   39.0230   32.5960   39.1360 O   0  0  0  0  0  0  0  0  0  0  0  0
   40.2290   33.0240   39.6390 C   0  0  0  0  0  0  0  0  0  0  0  0
   40.9230   33.4310   38.9010 H   0  0  0  0  0  0  0  0  0  0  0  0
   40.0760   33.7940   40.4220 H   0  0  0  0  0  0  0  0  0  0  0  0
   40.9620   31.8360   40.2870 C   0  0  0  0  0  0  0  0  0  0  0  0
   40.2730   30.9910   40.2470 H   0  0  0  0  0  0  0  0  0  0  0  0
   41.1340   32.1550   41.3370 H   0  0  0  0  0  0  0  0  0  0  0  0
   42.2910   31.6020   39.6080 C   0  0  0  0  0  3  0  0  0  0  0  0
   42.5860   32.6990   38.6470 C   0  0  0  0  0  2  0  0  0  0  0  0
   43.1280   32.2240   37.3380 C   0  0  0  0  0  2  0  0  0  0  0  0
   42.1660   31.2120   36.7730 C   0  0  0  0  0  2  0  0  0  0  0  0
   42.0020   30.0090   37.6620 C   0  0  0  0  0  2  0  0  0  0  0  0
   42.3670   30.2180   39.0830 C   0  0  0  0  0  2  0  0  0  0  0  0
  1 23  1  0  0  0  0
  1  5  1  0  0  0  0
  2  1  1  0  0  0  0
  3  1  1  0  0  0  0
  4  5  2  0  0  0  0
  4  9  1  0  0  0  0
  5  6  1  0  0  0  0
  6 10  1  0  0  0  0
  6  7  2  0  0  0  0
  7 11  1  0  0  0  0
  8  7  1  0  0  0  0
  8 12  1  0  0  0  0
  9  8  2  0  0  0  0
 13  9  1  0  0  0  0
 14 15  1  0  0  0  0
 15 21  1  0  0  0  0
 15 16  2  0  0  0  0
 16  4  1  0  0  0  0
 17 16  1  0  0  0  0
 18 17  2  0  0  0  0
 19 14  2  0  0  0  0
 19 18  1  0  0  0  0
 20 14  1  0  0  0  0
 22 18  1  0  0  0  0
 23 24  1  0  0  0  0
 25 23  1  0  0  0  0
 25 26  1  0  0  0  0
 26 27  1  0  0  0  0
 28 29  1  0  0  0  0
 28 25  1  0  0  0  0
 30 31  1  0  0  0  0
 30 25  1  0  0  0  0
 31 34  1  0  0  0  0
 31 33  1  0  0  0  0
 32 31  1  0  0  0  0
 34 36  1  0  0  0  0
 35 34  1  0  0  0  0
 37 34  1  0  0  0  0
 38 37  1  0  0  0  0
 39 38  1  0  0  0  0
 40 39  1  0  0  0  0
 40 41  1  0  0  0  0
 41 42  1  0  0  0  0
 42 37  1  0  0  0  0
M  END
>  <minimizedAffinity>
-5.63515949

$$$$

 OpenBabel03252508483D

 42 44  0  0  0  0  0  0  0  0999 V2000
   37.4390   30.6410   40.3790 C   0  0  0  0  0  0  0  0  0  0  0  0
   36.9960   30.2280   39.4540 H   0  0  0  0  0  0  0  0  0  0  0  0
   38.5340   30.7610   40.1770 H   0  0  0  0  0  0  0  0  0  0  0  0
   36.4540   28.5140   41.2590 C   0  0  0  0  0  0  0  0  0  0  0  0
   37.2850   29.6010   41.4410 C   0  0  0  0  0  0  0  0  0  0  0  0
   37.9650   29.6970   42.6270 C   0  0  0  0  0  0  0  0  0  0  0  0
   37.8180   28.7430   43.5880 C   0  0  0  0  0  0  0  0  0  0  0  0
   36.9980   27.6560   43.4260 C   0  0  0  0  0  0  0  0  0  0  0  0
   36.3330   27.5960   42.2240 C   0  0  0  0  0  0  0  0  0  0  0  0
   38.6380   30.5280   42.8410 H   0  0  0  0  0  0  0  0  0  0  0  0
   38.3640   28.8280   44.5290 H   0  0  0  0  0  0  0  0  0  0  0  0
   36.8460   26.8700   44.1600 H   0  0  0  0  0  0  0  0  0  0  0  0
   35.6570   26.7530   42.0200 H   0  0  0  0  0  0  0  0  0  0  0  0
   33.9630   28.9500   38.4360 C   0  0  0  0  0  0  0  0  0  0  0  0
   34.5390   29.0800   39.7070 C   0  0  0  0  0  0  0  0  0  0  0  0
   35.7490   28.4560   39.9740 C   0  0  0  0  0  0  0  0  0  0  0  0
   36.3080   27.7400   38.9560 N   0  0  0  0  0  0  0  0  0  0  0  0
   35.7380   27.6260   37.7330 C   0  0  0  0  0  0  0  0  0  0  0  0
   34.5690   28.2340   37.4910 N   0  0  0  0  0  0  0  0  0  0  0  0
   33.0310   29.4490   38.2790 H   0  0  0  0  0  0  0  0  0  0  0  0
   34.1110   29.6390   40.5150 H   0  0  0  0  0  0  0  0  0  0  0  0
   36.2240   27.0460   36.9620 H   0  0  0  0  0  0  0  0  0  0  0  0
   36.8830   31.9100   40.7080 N   0  0  0  0  0  0  0  0  0  0  0  0
   36.7340   32.0800   41.7170 H   0  0  0  0  0  0  0  0  0  0  0  0
   37.8140   33.2140   40.1000 S   0  0  0  0  0  0  0  0  0  0  0  0
   38.5020   33.9630   41.2180 O   0  0  0  0  0  0  0  0  0  0  0  0
   39.4400   33.7080   41.4490 H   0  0  0  0  0  0  0  0  0  0  0  0
   37.0090   34.1480   39.2790 O   0  0  0  0  0  0  0  0  0  0  0  0
   36.9690   35.1110   39.4950 H   0  0  0  0  0  0  0  0  0  0  0  0
   39.0050   32.5490   39.1120 O   0  0  0  0  0  0  0  0  0  0  0  0
   40.1940   33.1970   39.3530 C   0  0  0  0  0  0  0  0  0  0  0  0
   40.6370   33.6920   38.4880 H   0  0  0  0  0  0  0  0  0  0  0  0
   40.0710   33.9540   40.1540 H   0  0  0  0  0  0  0  0  0  0  0  0
   41.2430   32.1780   39.8300 C   0  0  0  0  0  0  0  0  0  0  0  0
   42.0910   32.2680   39.1500 H   0  0  0  0  0  0  0  0  0  0  0  0
   40.7460   31.1910   39.7120 H   0  0  0  0  0  0  0  0  0  0  0  0
   41.5730   32.4020   41.2870 C   0  0  0  0  0  3  0  0  0  0  0  0
   43.0420   32.5530   41.4710 C   0  0  0  0  0  2  0  0  0  0  0  0
   43.5830   31.8030   42.6450 C   0  0  0  0  0  2  0  0  0  0  0  0
   43.1680   30.3610   42.5100 C   0  0  0  0  0  2  0  0  0  0  0  0
   41.6730   30.1860   42.5060 C   0  0  0  0  0  2  0  0  0  0  0  0
   40.8970   31.3910   42.1330 C   0  0  0  0  0  2  0  0  0  0  0  0
  1 23  1  0  0  0  0
  1  5  1  0  0  0  0
  2  1  1  0  0  0  0
  3  1  1  0  0  0  0
  4  5  2  0  0  0  0
  4  9  1  0  0  0  0
  5  6  1  0  0  0  0
  6 10  1  0  0  0  0
  6  7  2  0  0  0  0
  7 11  1  0  0  0  0
  8  7  1  0  0  0  0
  8 12  1  0  0  0  0
  9  8  2  0  0  0  0
 13  9  1  0  0  0  0
 14 15  1  0  0  0  0
 15 16  2  0  0  0  0
 15 21  1  0  0  0  0
 16  4  1  0  0  0  0
 17 16  1  0  0  0  0
 18 17  2  0  0  0  0
 19 18  1  0  0  0  0
 19 14  2  0  0  0  0
 20 14  1  0  0  0  0
 22 18  1  0  0  0  0
 23 24  1  0  0  0  0
 25 23  1  0  0  0  0
 25 26  1  0  0  0  0
 26 27  1  0  0  0  0
 28 29  1  0  0  0  0
 28 25  1  0  0  0  0
 30 31  1  0  0  0  0
 30 25  1  0  0  0  0
 31 34  1  0  0  0  0
 31 33  1  0  0  0  0
 32 31  1  0  0  0  0
 34 37  1  0  0  0  0
 35 34  1  0  0  0  0
 36 34  1  0  0  0  0
 37 38  1  0  0  0  0
 37 42  1  0  0  0  0
 38 39  1  0  0  0  0
 40 39  1  0  0  0  0
 41 40  1  0  0  0  0
 42 41  1  0  0  0  0
M  END
>  <minimizedAffinity>
-5.63273668

$$$$

 OpenBabel03252508483D

 42 44  0  0  0  0  0  0  0  0999 V2000
   37.3380   29.4440   42.6240 C   0  0  0  0  0  0  0  0  0  0  0  0
   37.6920   30.2770   41.9890 H   0  0  0  0  0  0  0  0  0  0  0  0
   37.0510   29.8980   43.6070 H   0  0  0  0  0  0  0  0  0  0  0  0
   39.7390   28.8150   42.2960 C   0  0  0  0  0  0  0  0  0  0  0  0
   38.5090   28.5480   42.8630 C   0  0  0  0  0  0  0  0  0  0  0  0
   38.3950   27.4340   43.6550 C   0  0  0  0  0  0  0  0  0  0  0  0
   39.4700   26.6240   43.8670 C   0  0  0  0  0  0  0  0  0  0  0  0
   40.6990   26.8720   43.3120 C   0  0  0  0  0  0  0  0  0  0  0  0
   40.7720   27.9970   42.5250 C   0  0  0  0  0  0  0  0  0  0  0  0
   37.4560   27.1610   44.1350 H   0  0  0  0  0  0  0  0  0  0  0  0
   39.3700   25.7400   44.4980 H   0  0  0  0  0  0  0  0  0  0  0  0
   41.5850   26.2590   43.4500 H   0  0  0  0  0  0  0  0  0  0  0  0
   41.7260   28.2630   42.0460 H   0  0  0  0  0  0  0  0  0  0  0  0
   40.0680   32.3730   41.0340 C   0  0  0  0  0  0  0  0  0  0  0  0
   40.0220   31.3020   41.9360 C   0  0  0  0  0  0  0  0  0  0  0  0
   39.8090   30.0170   41.4590 C   0  0  0  0  0  0  0  0  0  0  0  0
   39.6540   29.8820   40.1100 N   0  0  0  0  0  0  0  0  0  0  0  0
   39.7020   30.9280   39.2520 C   0  0  0  0  0  0  0  0  0  0  0  0
   39.9090   32.1630   39.7290 N   0  0  0  0  0  0  0  0  0  0  0  0
   40.2350   33.3440   41.4500 H   0  0  0  0  0  0  0  0  0  0  0  0
   40.1420   31.3940   42.9970 H   0  0  0  0  0  0  0  0  0  0  0  0
   39.5730   30.7640   38.1920 H   0  0  0  0  0  0  0  0  0  0  0  0
   36.2030   28.7980   42.0590 N   0  0  0  0  0  0  0  0  0  0  0  0
   35.3840   28.7140   42.6850 H   0  0  0  0  0  0  0  0  0  0  0  0
   35.6680   29.5490   40.6130 S   0  0  0  0  0  0  0  0  0  0  0  0
   35.9000   31.0420   40.6550 O   0  0  0  0  0  0  0  0  0  0  0  0
   36.7410   31.3990   40.2530 H   0  0  0  0  0  0  0  0  0  0  0  0
   34.2450   29.2600   40.3210 O   0  0  0  0  0  0  0  0  0  0  0  0
   33.5950   29.9910   40.1890 H   0  0  0  0  0  0  0  0  0  0  0  0
   36.5960   28.9150   39.3590 O   0  0  0  0  0  0  0  0  0  0  0  0
   36.0980   27.6790   39.0200 C   0  0  0  0  0  0  0  0  0  0  0  0
   35.4720   27.2050   39.7780 H   0  0  0  0  0  0  0  0  0  0  0  0
   35.5100   27.7380   38.0820 H   0  0  0  0  0  0  0  0  0  0  0  0
   37.2660   26.7070   38.7790 C   0  0  0  0  0  0  0  0  0  0  0  0
   37.9180   27.1850   38.0470 H   0  0  0  0  0  0  0  0  0  0  0  0
   36.7880   25.8010   38.3480 H   0  0  0  0  0  0  0  0  0  0  0  0
   37.9340   26.3500   40.0850 C   0  0  0  0  0  3  0  0  0  0  0  0
   39.2990   25.8090   39.8410 C   0  0  0  0  0  2  0  0  0  0  0  0
   39.6250   24.6030   40.6620 C   0  0  0  0  0  2  0  0  0  0  0  0
   38.5500   23.5740   40.4270 C   0  0  0  0  0  2  0  0  0  0  0  0
   37.1860   24.0540   40.8440 C   0  0  0  0  0  2  0  0  0  0  0  0
   37.0300   25.5250   40.9210 C   0  0  0  0  0  2  0  0  0  0  0  0
  1  5  1  0  0  0  0
  1  3  1  0  0  0  0
  2  1  1  0  0  0  0
  4  9  2  0  0  0  0
  4  5  1  0  0  0  0
  5  6  2  0  0  0  0
  6  7  1  0  0  0  0
  6 10  1  0  0  0  0
  7 11  1  0  0  0  0
  8 12  1  0  0  0  0
  8  7  2  0  0  0  0
  9  8  1  0  0  0  0
 13  9  1  0  0  0  0
 14 20  1  0  0  0  0
 14 15  1  0  0  0  0
 15 21  1  0  0  0  0
 16 15  2  0  0  0  0
 16  4  1  0  0  0  0
 17 16  1  0  0  0  0
 18 19  1  0  0  0  0
 18 17  2  0  0  0  0
 19 14  2  0  0  0  0
 22 18  1  0  0  0  0
 23  1  1  0  0  0  0
 23 24  1  0  0  0  0
 25 26  1  0  0  0  0
 25 23  1  0  0  0  0
 27 26  1  0  0  0  0
 28 25  1  0  0  0  0
 29 28  1  0  0  0  0
 30 25  1  0  0  0  0
 31 30  1  0  0  0  0
 31 32  1  0  0  0  0
 33 31  1  0  0  0  0
 34 31  1  0  0  0  0
 34 37  1  0  0  0  0
 35 34  1  0  0  0  0
 36 34  1  0  0  0  0
 37 42  1  0  0  0  0
 38 37  1  0  0  0  0
 38 39  1  0  0  0  0
 40 39  1  0  0  0  0
 40 41  1  0  0  0  0
 41 42  1  0  0  0  0
M  END
>  <minimizedAffinity>
-5.58712769

$$$$

 OpenBabel03252508483D

 42 44  0  0  0  0  0  0  0  0999 V2000
   34.3730   28.5110   38.5850 C   0  0  0  0  0  0  0  0  0  0  0  0
   35.4350   28.3860   38.3020 H   0  0  0  0  0  0  0  0  0  0  0  0
   33.9950   27.4910   38.8510 H   0  0  0  0  0  0  0  0  0  0  0  0
   34.2140   28.8470   36.1090 C   0  0  0  0  0  0  0  0  0  0  0  0
   33.6440   28.9600   37.3620 C   0  0  0  0  0  0  0  0  0  0  0  0
   32.3850   29.4980   37.4470 C   0  0  0  0  0  0  0  0  0  0  0  0
   31.7290   29.9030   36.3240 C   0  0  0  0  0  0  0  0  0  0  0  0
   32.2790   29.7990   35.0720 C   0  0  0  0  0  0  0  0  0  0  0  0
   33.5410   29.2560   35.0290 C   0  0  0  0  0  0  0  0  0  0  0  0
   31.8730   29.6180   38.4010 H   0  0  0  0  0  0  0  0  0  0  0  0
   30.7280   30.3300   36.4020 H   0  0  0  0  0  0  0  0  0  0  0  0
   31.7980   30.1070   34.1490 H   0  0  0  0  0  0  0  0  0  0  0  0
   34.0480   29.1390   34.0600 H   0  0  0  0  0  0  0  0  0  0  0  0
   37.9680   28.3240   36.0760 C   0  0  0  0  0  0  0  0  0  0  0  0
   36.7390   28.9960   36.1230 C   0  0  0  0  0  0  0  0  0  0  0  0
   35.5610   28.2650   36.0710 C   0  0  0  0  0  0  0  0  0  0  0  0
   35.6820   26.9100   35.9750 N   0  0  0  0  0  0  0  0  0  0  0  0
   36.8780   26.2760   35.9330 C   0  0  0  0  0  0  0  0  0  0  0  0
   38.0070   26.9960   35.9840 N   0  0  0  0  0  0  0  0  0  0  0  0
   38.8470   28.9300   36.1200 H   0  0  0  0  0  0  0  0  0  0  0  0
   36.6290   30.0590   36.1970 H   0  0  0  0  0  0  0  0  0  0  0  0
   36.9170   25.1990   35.8570 H   0  0  0  0  0  0  0  0  0  0  0  0
   34.2270   29.3710   39.7110 N   0  0  0  0  0  0  0  0  0  0  0  0
   33.5950   29.0250   40.4530 H   0  0  0  0  0  0  0  0  0  0  0  0
   35.7270   29.7490   40.4500 S   0  0  0  0  0  0  0  0  0  0  0  0
   35.5880   30.9140   41.4040 O   0  0  0  0  0  0  0  0  0  0  0  0
   35.4290   30.7150   42.3700 H   0  0  0  0  0  0  0  0  0  0  0  0
   36.7910   30.0250   39.4570 O   0  0  0  0  0  0  0  0  0  0  0  0
   37.2940   30.8750   39.4740 H   0  0  0  0  0  0  0  0  0  0  0  0
   36.1880   28.3990   41.3440 O   0  0  0  0  0  0  0  0  0  0  0  0
   36.9580   28.8120   42.4050 C   0  0  0  0  0  0  0  0  0  0  0  0
   37.7960   29.4620   42.1470 H   0  0  0  0  0  0  0  0  0  0  0  0
   36.3380   29.3390   43.1580 H   0  0  0  0  0  0  0  0  0  0  0  0
   37.5820   27.5840   43.0920 C   0  0  0  0  0  0  0  0  0  0  0  0
   36.8050   27.1600   43.7290 H   0  0  0  0  0  0  0  0  0  0  0  0
   38.4110   27.9990   43.7040 H   0  0  0  0  0  0  0  0  0  0  0  0
   38.1450   26.6330   42.0620 C   0  0  0  0  0  3  0  0  0  0  0  0
   37.5350   25.2840   42.2100 C   0  0  0  0  0  2  0  0  0  0  0  0
   38.5200   24.1630   42.1130 C   0  0  0  0  0  2  0  0  0  0  0  0
   39.6120   24.4120   43.1200 C   0  0  0  0  0  2  0  0  0  0  0  0
   40.3550   25.6950   42.8640 C   0  0  0  0  0  2  0  0  0  0  0  0
   39.6260   26.6970   42.0530 C   0  0  0  0  0  2  0  0  0  0  0  0
  1  3  1  0  0  0  0
  1 23  1  0  0  0  0
  2  1  1  0  0  0  0
  4  5  1  0  0  0  0
  5  6  2  0  0  0  0
  5  1  1  0  0  0  0
  6 10  1  0  0  0  0
  7 11  1  0  0  0  0
  7  6  1  0  0  0  0
  8  7  2  0  0  0  0
  9  8  1  0  0  0  0
  9  4  2  0  0  0  0
 12  8  1  0  0  0  0
 13  9  1  0  0  0  0
 14 20  1  0  0  0  0
 14 15  1  0  0  0  0
 15 21  1  0  0  0  0
 16  4  1  0  0  0  0
 16 15  2  0  0  0  0
 17 16  1  0  0  0  0
 18 17  2  0  0  0  0
 18 19  1  0  0  0  0
 19 14  2  0  0  0  0
 22 18  1  0  0  0  0
 23 25  1  0  0  0  0
 23 24  1  0  0  0  0
 25 30  1  0  0  0  0
 25 26  1  0  0  0  0
 26 27  1  0  0  0  0
 28 29  1  0  0  0  0
 28 25  1  0  0  0  0
 30 31  1  0  0  0  0
 31 34  1  0  0  0  0
 31 33  1  0  0  0  0
 32 31  1  0  0  0  0
 34 36  1  0  0  0  0
 34 35  1  0  0  0  0
 37 38  1  0  0  0  0
 37 34  1  0  0  0  0
 39 38  1  0  0  0  0
 39 40  1  0  0  0  0
 41 40  1  0  0  0  0
 42 37  1  0  0  0  0
 42 41  1  0  0  0  0
M  END
>  <minimizedAffinity>
-5.55939627

$$$$

 OpenBabel03252508483D

 42 44  0  0  0  0  0  0  0  0999 V2000
   37.7180   30.7510   37.4030 C   0  0  0  0  0  0  0  0  0  0  0  0
   38.0990   31.6750   37.8740 H   0  0  0  0  0  0  0  0  0  0  0  0
   37.2220   31.0650   36.4490 H   0  0  0  0  0  0  0  0  0  0  0  0
   36.4950   30.6860   39.5860 C   0  0  0  0  0  0  0  0  0  0  0  0
   36.6620   30.2020   38.3040 C   0  0  0  0  0  0  0  0  0  0  0  0
   35.8250   29.2000   37.8830 C   0  0  0  0  0  0  0  0  0  0  0  0
   34.8640   28.7070   38.7140 C   0  0  0  0  0  0  0  0  0  0  0  0
   34.6830   29.1750   39.9890 C   0  0  0  0  0  0  0  0  0  0  0  0
   35.5410   30.1790   40.3730 C   0  0  0  0  0  0  0  0  0  0  0  0
   35.8980   28.7690   36.8850 H   0  0  0  0  0  0  0  0  0  0  0  0
   34.2030   27.9100   38.3700 H   0  0  0  0  0  0  0  0  0  0  0  0
   33.9340   28.8170   40.6890 H   0  0  0  0  0  0  0  0  0  0  0  0
   35.4570   30.6070   41.3830 H   0  0  0  0  0  0  0  0  0  0  0  0
   38.2310   34.0210   40.0690 C   0  0  0  0  0  0  0  0  0  0  0  0
   37.2850   33.0880   39.6210 C   0  0  0  0  0  0  0  0  0  0  0  0
   37.4130   31.7570   39.9880 C   0  0  0  0  0  0  0  0  0  0  0  0
   38.4780   31.4390   40.7800 N   0  0  0  0  0  0  0  0  0  0  0  0
   39.3820   32.3520   41.2060 C   0  0  0  0  0  0  0  0  0  0  0  0
   39.2440   33.6340   40.8420 N   0  0  0  0  0  0  0  0  0  0  0  0
   38.0890   35.0340   39.7600 H   0  0  0  0  0  0  0  0  0  0  0  0
   36.4450   33.3250   38.9990 H   0  0  0  0  0  0  0  0  0  0  0  0
   40.2070   32.0450   41.8320 H   0  0  0  0  0  0  0  0  0  0  0  0
   38.7720   29.8410   37.1030 N   0  0  0  0  0  0  0  0  0  0  0  0
   38.8990   29.6260   36.0990 H   0  0  0  0  0  0  0  0  0  0  0  0
   40.2870   30.3650   37.7110 S   0  0  0  0  0  0  0  0  0  0  0  0
   40.2380   31.8180   38.1240 O   0  0  0  0  0  0  0  0  0  0  0  0
   40.0450   32.0300   39.0810 H   0  0  0  0  0  0  0  0  0  0  0  0
   41.3890   30.1450   36.7460 O   0  0  0  0  0  0  0  0  0  0  0  0
   41.9660   30.8910   36.4540 H   0  0  0  0  0  0  0  0  0  0  0  0
   40.6080   29.4460   39.0850 O   0  0  0  0  0  0  0  0  0  0  0  0
   40.0510   28.1990   38.9250 C   0  0  0  0  0  0  0  0  0  0  0  0
   39.1190   28.1760   38.3580 H   0  0  0  0  0  0  0  0  0  0  0  0
   40.7670   27.5110   38.4310 H   0  0  0  0  0  0  0  0  0  0  0  0
   39.7120   27.6110   40.3050 C   0  0  0  0  0  0  0  0  0  0  0  0
   40.3630   28.1130   41.0220 H   0  0  0  0  0  0  0  0  0  0  0  0
   39.9760   26.5350   40.2210 H   0  0  0  0  0  0  0  0  0  0  0  0
   38.2350   27.7450   40.5890 C   0  0  0  0  0  3  0  0  0  0  0  0
   38.0040   28.0160   42.0340 C   0  0  0  0  0  2  0  0  0  0  0  0
   36.8810   27.2250   42.6230 C   0  0  0  0  0  2  0  0  0  0  0  0
   37.1410   25.7670   42.3480 C   0  0  0  0  0  2  0  0  0  0  0  0
   37.1940   25.4560   40.8770 C   0  0  0  0  0  2  0  0  0  0  0  0
   37.4890   26.6100   39.9970 C   0  0  0  0  0  2  0  0  0  0  0  0
  1  2  1  0  0  0  0
  1  5  1  0  0  0  0
  3  1  1  0  0  0  0
  4 16  1  0  0  0  0
  4  9  1  0  0  0  0
  5  4  2  0  0  0  0
  6  5  1  0  0  0  0
  6  7  2  0  0  0  0
  7  8  1  0  0  0  0
  8  9  2  0  0  0  0
  8 12  1  0  0  0  0
  9 13  1  0  0  0  0
 10  6  1  0  0  0  0
 11  7  1  0  0  0  0
 14 19  1  0  0  0  0
 15 16  1  0  0  0  0
 15 14  2  0  0  0  0
 16 17  2  0  0  0  0
 17 18  1  0  0  0  0
 18 22  1  0  0  0  0
 19 18  2  0  0  0  0
 20 14  1  0  0  0  0
 21 15  1  0  0  0  0
 23  1  1  0  0  0  0
 23 25  1  0  0  0  0
 24 23  1  0  0  0  0
 25 26  1  0  0  0  0
 25 30  1  0  0  0  0
 26 27  1  0  0  0  0
 28 25  1  0  0  0  0
 29 28  1  0  0  0  0
 31 30  1  0  0  0  0
 31 34  1  0  0  0  0
 32 31  1  0  0  0  0
 33 31  1  0  0  0  0
 34 37  1  0  0  0  0
 34 35  1  0  0  0  0
 36 34  1  0  0  0  0
 37 38  1  0  0  0  0
 38 39  1  0  0  0  0
 40 39  1  0  0  0  0
 41 40  1  0  0  0  0
 42 37  1  0  0  0  0
 42 41  1  0  0  0  0
M  END
>  <minimizedAffinity>
-5.51024723

$$$$
