
 OpenBabel03242517293D

 37 39  0  0  1  0  0  0  0  0999 V2000
   36.8450   29.8060   37.2120 C   0  0  0  0  0  0  0  0  0  0  0  0
   37.6640   28.7520   36.7340 C   0  0  0  0  0  0  0  0  0  0  0  0
   39.0210   28.7470   37.1250 C   0  0  0  0  0  0  0  0  0  0  0  0
   39.4500   29.7450   37.9280 N   0  0  0  0  0  0  0  0  0  0  0  0
   38.6500   30.7420   38.3740 C   0  0  0  0  0  0  0  0  0  0  0  0
   37.3700   30.7430   38.0010 N   0  0  0  0  0  0  0  0  0  0  0  0
   39.1980   31.7270   39.2020 N   0  0  0  0  0  0  0  0  0  0  0  0
   40.2990   32.5280   38.7500 C   0  0  0  0  0  0  0  0  0  0  0  0
   41.0130   33.2360   39.8610 C   0  0  0  0  0  0  0  0  0  0  0  0
   40.2190   33.6420   40.9560 N   0  0  0  0  0  0  0  0  0  0  0  0
   38.8220   33.3940   40.7940 C   0  0  0  0  0  0  0  0  0  0  0  0
   38.6310   31.9230   40.5310 C   0  0  2  0  0  0  0  0  0  0  0  0
   35.8130   29.8600   36.9490 H   0  0  0  0  0  0  0  0  0  0  0  0
   37.2530   27.9940   36.0990 H   0  0  0  0  0  0  0  0  0  0  0  0
   39.6600   27.9550   36.7720 H   0  0  0  0  0  0  0  0  0  0  0  0
   40.9900   31.8720   38.1850 H   0  0  0  0  0  0  0  0  0  0  0  0
   39.9400   33.2890   38.0240 H   0  0  0  0  0  0  0  0  0  0  0  0
   41.7890   32.5160   40.2380 H   0  0  0  0  0  0  0  0  0  0  0  0
   41.5680   34.1100   39.4860 H   0  0  0  0  0  0  0  0  0  0  0  0
   40.5740   33.3710   41.9090 H   0  0  0  0  0  0  0  0  0  0  0  0
   38.2680   33.7610   41.6710 H   0  0  0  0  0  0  0  0  0  0  0  0
   38.4640   33.9390   39.8970 H   0  0  0  0  0  0  0  0  0  0  0  0
   37.5580   31.6850   40.4880 H   0  0  0  0  0  0  0  0  0  0  0  0
   39.2590   31.0590   41.5740 C   0  0  0  0  0  0  0  0  0  0  0  0
   40.0480   30.4270   41.1060 H   0  0  0  0  0  0  0  0  0  0  0  0
   39.6390   31.6150   42.4590 H   0  0  0  0  0  0  0  0  0  0  0  0
   38.2050   30.1120   42.0710 C   0  0  0  0  0  3  0  0  0  0  0  0
   38.4330   29.3150   43.1130 C   0  0  0  0  0  3  0  0  0  0  0  0
   37.4460   28.3480   43.6700 C   0  0  0  0  0  0  0  0  0  0  0  0
   37.5430   28.4380   44.7790 H   0  0  0  0  0  0  0  0  0  0  0  0
   36.4200   28.5780   43.3760 H   0  0  0  0  0  0  0  0  0  0  0  0
   37.8920   26.9480   43.3350 C   0  0  0  0  0  3  0  0  0  0  0  0
   39.3700   26.7870   43.1890 C   0  0  0  0  0  2  0  0  0  0  0  0
   39.6320   25.2850   43.3580 C   0  0  0  0  0  2  0  0  0  0  0  0
   38.9350   24.5430   42.2650 C   0  0  0  0  0  2  0  0  0  0  0  0
   37.4840   24.8900   42.1370 C   0  0  0  0  0  2  0  0  0  0  0  0
   37.2310   26.3900   42.1220 C   0  0  0  0  0  2  0  0  0  0  0  0
  1  6  1  0  0  0  0
  2  3  1  0  0  0  0
  2  1  2  0  0  0  0
  3  4  2  0  0  0  0
  4  5  1  0  0  0  0
  5  7  1  0  0  0  0
  6  5  2  0  0  0  0
  7 12  1  0  0  0  0
  8  7  1  0  0  0  0
  8  9  1  0  0  0  0
  9 18  1  0  0  0  0
  9 10  1  0  0  0  0
 10 20  1  0  0  0  0
 11 10  1  0  0  0  0
 11 21  1  0  0  0  0
 12 23  1  6  0  0  0
 12 11  1  0  0  0  0
 12 24  1  0  0  0  0
 13  1  1  0  0  0  0
 14  2  1  0  0  0  0
 15  3  1  0  0  0  0
 16  8  1  0  0  0  0
 17  8  1  0  0  0  0
 19  9  1  0  0  0  0
 22 11  1  0  0  0  0
 24 27  1  0  0  0  0
 24 26  1  0  0  0  0
 25 24  1  0  0  0  0
 27 28  2  0  0  0  0
 28 29  1  0  0  0  0
 29 30  1  0  0  0  0
 31 29  1  0  0  0  0
 32 29  1  0  0  0  0
 33 32  1  0  0  0  0
 33 34  1  0  0  0  0
 35 34  1  0  0  0  0
 36 35  1  0  0  0  0
 37 36  1  0  0  0  0
 37 32  1  0  0  0  0
M  END
>  <minimizedAffinity>
-5.68681145

$$$$

 OpenBabel03242517293D

 37 39  0  0  1  0  0  0  0  0999 V2000
   40.9600   28.6630   39.5850 C   0  0  0  0  0  0  0  0  0  0  0  0
   41.5870   28.5160   40.8480 C   0  0  0  0  0  0  0  0  0  0  0  0
   41.3110   29.4890   41.8340 C   0  0  0  0  0  0  0  0  0  0  0  0
   40.4700   30.4950   41.5100 N   0  0  0  0  0  0  0  0  0  0  0  0
   39.8810   30.6160   40.2960 C   0  0  0  0  0  0  0  0  0  0  0  0
   40.1440   29.6950   39.3690 N   0  0  0  0  0  0  0  0  0  0  0  0
   39.0250   31.6980   40.0680 N   0  0  0  0  0  0  0  0  0  0  0  0
   39.5010   33.0440   40.2040 C   0  0  0  0  0  0  0  0  0  0  0  0
   38.4010   34.0550   40.3200 C   0  0  0  0  0  0  0  0  0  0  0  0
   37.2140   33.7710   39.6080 N   0  0  0  0  0  0  0  0  0  0  0  0
   37.2790   32.5940   38.8020 C   0  0  0  0  0  0  0  0  0  0  0  0
   37.6410   31.4330   39.6900 C   0  0  2  0  0  0  0  0  0  0  0  0
   41.1310   27.9580   38.8030 H   0  0  0  0  0  0  0  0  0  0  0  0
   42.2440   27.6910   41.0320 H   0  0  0  0  0  0  0  0  0  0  0  0
   41.7780   29.3950   42.8000 H   0  0  0  0  0  0  0  0  0  0  0  0
   40.1730   33.0820   41.0840 H   0  0  0  0  0  0  0  0  0  0  0  0
   40.1320   33.3130   39.3300 H   0  0  0  0  0  0  0  0  0  0  0  0
   38.1480   34.1120   41.4140 H   0  0  0  0  0  0  0  0  0  0  0  0
   38.7490   35.0600   40.0360 H   0  0  0  0  0  0  0  0  0  0  0  0
   36.3190   33.8420   40.1560 H   0  0  0  0  0  0  0  0  0  0  0  0
   36.3330   32.4550   38.2580 H   0  0  0  0  0  0  0  0  0  0  0  0
   38.0960   32.7120   38.0620 H   0  0  0  0  0  0  0  0  0  0  0  0
   37.6140   30.4960   39.1130 H   0  0  0  0  0  0  0  0  0  0  0  0
   36.7270   31.2880   40.8610 C   0  0  0  0  0  0  0  0  0  0  0  0
   37.2800   31.5320   41.7960 H   0  0  0  0  0  0  0  0  0  0  0  0
   35.7780   31.8610   40.7730 H   0  0  0  0  0  0  0  0  0  0  0  0
   36.3530   29.8360   40.9640 C   0  0  0  0  0  3  0  0  0  0  0  0
   36.9250   29.0430   41.8670 C   0  0  0  0  0  3  0  0  0  0  0  0
   36.6150   27.5950   42.0380 C   0  0  0  0  0  0  0  0  0  0  0  0
   36.0010   27.5370   42.9700 H   0  0  0  0  0  0  0  0  0  0  0  0
   36.0440   27.1860   41.2020 H   0  0  0  0  0  0  0  0  0  0  0  0
   37.8920   26.8560   42.3450 C   0  0  0  0  0  3  0  0  0  0  0  0
   37.7890   25.3690   42.2350 C   0  0  0  0  0  2  0  0  0  0  0  0
   39.2330   24.8740   42.0830 C   0  0  0  0  0  2  0  0  0  0  0  0
   40.0040   25.2360   43.3110 C   0  0  0  0  0  2  0  0  0  0  0  0
   39.8990   26.6840   43.6780 C   0  0  0  0  0  2  0  0  0  0  0  0
   38.4670   27.1950   43.6770 C   0  0  0  0  0  2  0  0  0  0  0  0
  1  2  1  0  0  0  0
  2 14  1  0  0  0  0
  2  3  2  0  0  0  0
  3 15  1  0  0  0  0
  4  3  1  0  0  0  0
  5  4  2  0  0  0  0
  6  1  2  0  0  0  0
  6  5  1  0  0  0  0
  7  8  1  0  0  0  0
  7  5  1  0  0  0  0
  8  9  1  0  0  0  0
  8 16  1  0  0  0  0
  9 18  1  0  0  0  0
 10 20  1  0  0  0  0
 10  9  1  0  0  0  0
 11 10  1  0  0  0  0
 11 12  1  0  0  0  0
 12 23  1  6  0  0  0
 12  7  1  0  0  0  0
 12 24  1  0  0  0  0
 13  1  1  0  0  0  0
 17  8  1  0  0  0  0
 19  9  1  0  0  0  0
 21 11  1  0  0  0  0
 22 11  1  0  0  0  0
 24 27  1  0  0  0  0
 24 25  1  0  0  0  0
 26 24  1  0  0  0  0
 27 28  2  0  0  0  0
 28 29  1  0  0  0  0
 29 32  1  0  0  0  0
 29 30  1  0  0  0  0
 31 29  1  0  0  0  0
 32 37  1  0  0  0  0
 33 32  1  0  0  0  0
 34 33  1  0  0  0  0
 34 35  1  0  0  0  0
 35 36  1  0  0  0  0
 37 36  1  0  0  0  0
M  END
>  <minimizedAffinity>
-5.63136816

$$$$

 OpenBabel03242517293D

 37 39  0  0  1  0  0  0  0  0999 V2000
   35.2030   29.4340   39.8510 C   0  0  0  0  0  0  0  0  0  0  0  0
   35.5620   28.2420   39.1720 C   0  0  0  0  0  0  0  0  0  0  0  0
   36.8790   28.1450   38.6700 C   0  0  0  0  0  0  0  0  0  0  0  0
   37.7090   29.1910   38.8690 N   0  0  0  0  0  0  0  0  0  0  0  0
   37.3460   30.3210   39.5210 C   0  0  0  0  0  0  0  0  0  0  0  0
   36.1020   30.4090   39.9930 N   0  0  0  0  0  0  0  0  0  0  0  0
   38.2870   31.3460   39.6720 N   0  0  0  0  0  0  0  0  0  0  0  0
   38.8900   31.9530   38.5210 C   0  0  0  0  0  0  0  0  0  0  0  0
   40.1340   32.7260   38.8420 C   0  0  0  0  0  0  0  0  0  0  0  0
   40.1660   33.3610   40.1030 N   0  0  0  0  0  0  0  0  0  0  0  0
   38.9570   33.2450   40.8520 C   0  0  0  0  0  0  0  0  0  0  0  0
   38.6420   31.7820   41.0170 C   0  0  2  0  0  0  0  0  0  0  0  0
   34.2230   29.5630   40.2510 H   0  0  0  0  0  0  0  0  0  0  0  0
   34.8480   27.4530   39.0520 H   0  0  0  0  0  0  0  0  0  0  0  0
   37.1710   27.2480   38.1510 H   0  0  0  0  0  0  0  0  0  0  0  0
   39.0950   31.1550   37.7810 H   0  0  0  0  0  0  0  0  0  0  0  0
   38.1670   32.6420   38.0330 H   0  0  0  0  0  0  0  0  0  0  0  0
   40.9770   31.9850   38.8000 H   0  0  0  0  0  0  0  0  0  0  0  0
   40.3500   33.4760   38.0650 H   0  0  0  0  0  0  0  0  0  0  0  0
   41.0260   33.1870   40.6840 H   0  0  0  0  0  0  0  0  0  0  0  0
   39.0490   33.7870   41.8050 H   0  0  0  0  0  0  0  0  0  0  0  0
   38.1300   33.6980   40.2680 H   0  0  0  0  0  0  0  0  0  0  0  0
   37.7610   31.6570   41.6650 H   0  0  0  0  0  0  0  0  0  0  0  0
   39.7710   31.0070   41.6100 C   0  0  0  0  0  0  0  0  0  0  0  0
   40.1430   30.2650   40.8660 H   0  0  0  0  0  0  0  0  0  0  0  0
   40.5910   31.6350   42.0200 H   0  0  0  0  0  0  0  0  0  0  0  0
   39.2180   30.2070   42.7550 C   0  0  0  0  0  3  0  0  0  0  0  0
   38.4550   29.1370   42.5400 C   0  0  0  0  0  3  0  0  0  0  0  0
   37.8660   28.2890   43.6140 C   0  0  0  0  0  0  0  0  0  0  0  0
   38.5270   28.4420   44.5020 H   0  0  0  0  0  0  0  0  0  0  0  0
   36.8450   28.5800   43.8670 H   0  0  0  0  0  0  0  0  0  0  0  0
   38.0260   26.8390   43.2340 C   0  0  0  0  0  3  0  0  0  0  0  0
   39.4250   26.4380   42.8950 C   0  0  0  0  0  2  0  0  0  0  0  0
   39.4540   24.9110   43.0390 C   0  0  0  0  0  2  0  0  0  0  0  0
   38.5050   24.3100   42.0540 C   0  0  0  0  0  2  0  0  0  0  0  0
   37.1280   24.8950   42.1150 C   0  0  0  0  0  2  0  0  0  0  0  0
   37.1280   26.4160   42.1230 C   0  0  0  0  0  2  0  0  0  0  0  0
  1  6  1  0  0  0  0
  1 13  1  0  0  0  0
  2  1  2  0  0  0  0
  3  4  2  0  0  0  0
  3  2  1  0  0  0  0
  4  5  1  0  0  0  0
  5  7  1  0  0  0  0
  5  6  2  0  0  0  0
  7 12  1  0  0  0  0
  8  9  1  0  0  0  0
  8  7  1  0  0  0  0
  9 10  1  0  0  0  0
 10 20  1  0  0  0  0
 10 11  1  0  0  0  0
 11 12  1  0  0  0  0
 11 21  1  0  0  0  0
 12 24  1  0  0  0  0
 12 23  1  1  0  0  0
 14  2  1  0  0  0  0
 15  3  1  0  0  0  0
 16  8  1  0  0  0  0
 17  8  1  0  0  0  0
 18  9  1  0  0  0  0
 19  9  1  0  0  0  0
 22 11  1  0  0  0  0
 24 26  1  0  0  0  0
 24 27  1  0  0  0  0
 25 24  1  0  0  0  0
 28 27  2  0  0  0  0
 28 29  1  0  0  0  0
 29 31  1  0  0  0  0
 29 30  1  0  0  0  0
 32 29  1  0  0  0  0
 33 34  1  0  0  0  0
 33 32  1  0  0  0  0
 35 36  1  0  0  0  0
 35 34  1  0  0  0  0
 36 37  1  0  0  0  0
 37 32  1  0  0  0  0
M  END
>  <minimizedAffinity>
-5.6255908

$$$$

 OpenBabel03242517293D

 37 39  0  0  1  0  0  0  0  0999 V2000
   36.6460   25.3110   38.2860 C   0  0  0  0  0  0  0  0  0  0  0  0
   35.6630   24.3150   38.5130 C   0  0  0  0  0  0  0  0  0  0  0  0
   35.6430   23.6910   39.7800 C   0  0  0  0  0  0  0  0  0  0  0  0
   36.5610   24.0810   40.6900 N   0  0  0  0  0  0  0  0  0  0  0  0
   37.4920   25.0360   40.4520 C   0  0  0  0  0  0  0  0  0  0  0  0
   37.5070   25.6220   39.2550 N   0  0  0  0  0  0  0  0  0  0  0  0
   38.3960   25.3650   41.4680 N   0  0  0  0  0  0  0  0  0  0  0  0
   39.2600   24.3640   42.0240 C   0  0  0  0  0  0  0  0  0  0  0  0
   39.8630   24.7640   43.3360 C   0  0  0  0  0  0  0  0  0  0  0  0
   40.1390   26.1390   43.5040 N   0  0  0  0  0  0  0  0  0  0  0  0
   39.8820   26.9360   42.3480 C   0  0  0  0  0  0  0  0  0  0  0  0
   38.4430   26.7400   41.9490 C   0  0  2  0  0  0  0  0  0  0  0  0
   36.7080   25.8150   37.3480 H   0  0  0  0  0  0  0  0  0  0  0  0
   34.9670   24.0560   37.7420 H   0  0  0  0  0  0  0  0  0  0  0  0
   34.9040   22.9310   39.9730 H   0  0  0  0  0  0  0  0  0  0  0  0
   38.6790   23.4260   42.1200 H   0  0  0  0  0  0  0  0  0  0  0  0
   40.0850   24.1390   41.3140 H   0  0  0  0  0  0  0  0  0  0  0  0
   39.1230   24.4560   44.1230 H   0  0  0  0  0  0  0  0  0  0  0  0
   40.7820   24.1940   43.5440 H   0  0  0  0  0  0  0  0  0  0  0  0
   39.7780   26.5770   44.3900 H   0  0  0  0  0  0  0  0  0  0  0  0
   40.1460   27.9860   42.5450 H   0  0  0  0  0  0  0  0  0  0  0  0
   40.5100   26.5670   41.5120 H   0  0  0  0  0  0  0  0  0  0  0  0
   38.1900   27.4090   41.1120 H   0  0  0  0  0  0  0  0  0  0  0  0
   37.4880   27.0080   43.0650 C   0  0  0  0  0  0  0  0  0  0  0  0
   37.0120   26.0520   43.3830 H   0  0  0  0  0  0  0  0  0  0  0  0
   37.9310   27.5600   43.9230 H   0  0  0  0  0  0  0  0  0  0  0  0
   36.3820   27.8640   42.5170 C   0  0  0  0  0  3  0  0  0  0  0  0
   36.4690   28.4060   41.3040 C   0  0  0  0  0  3  0  0  0  0  0  0
   35.4220   29.2650   40.6850 C   0  0  0  0  0  0  0  0  0  0  0  0
   34.8190   28.5750   40.0450 H   0  0  0  0  0  0  0  0  0  0  0  0
   34.7710   29.7350   41.4250 H   0  0  0  0  0  0  0  0  0  0  0  0
   36.0820   30.2290   39.7320 C   0  0  0  0  0  3  0  0  0  0  0  0
   37.0070   29.5920   38.7470 C   0  0  0  0  0  2  0  0  0  0  0  0
   37.1560   30.6140   37.6130 C   0  0  0  0  0  2  0  0  0  0  0  0
   37.7790   31.8580   38.1560 C   0  0  0  0  0  2  0  0  0  0  0  0
   37.0800   32.3990   39.3650 C   0  0  0  0  0  2  0  0  0  0  0  0
   36.8070   31.3360   40.4180 C   0  0  0  0  0  2  0  0  0  0  0  0
  1  2  2  0  0  0  0
  1  6  1  0  0  0  0
  2  3  1  0  0  0  0
  3 15  1  0  0  0  0
  3  4  2  0  0  0  0
  5  4  1  0  0  0  0
  5  7  1  0  0  0  0
  6  5  2  0  0  0  0
  7 12  1  0  0  0  0
  7  8  1  0  0  0  0
  8 16  1  0  0  0  0
  8  9  1  0  0  0  0
  9 10  1  0  0  0  0
  9 19  1  0  0  0  0
  9 18  1  0  0  0  0
 10 20  1  0  0  0  0
 11 21  1  0  0  0  0
 11 10  1  0  0  0  0
 12 23  1  6  0  0  0
 12 11  1  0  0  0  0
 12 24  1  0  0  0  0
 13  1  1  0  0  0  0
 14  2  1  0  0  0  0
 17  8  1  0  0  0  0
 22 11  1  0  0  0  0
 24 25  1  0  0  0  0
 24 26  1  0  0  0  0
 27 24  1  0  0  0  0
 28 27  2  0  0  0  0
 29 28  1  0  0  0  0
 29 31  1  0  0  0  0
 30 29  1  0  0  0  0
 32 37  1  0  0  0  0
 32 29  1  0  0  0  0
 33 32  1  0  0  0  0
 34 35  1  0  0  0  0
 34 33  1  0  0  0  0
 35 36  1  0  0  0  0
 36 37  1  0  0  0  0
M  END
>  <minimizedAffinity>
-5.52969313

$$$$

 OpenBabel03242517293D

 37 39  0  0  1  0  0  0  0  0999 V2000
   38.5050   24.6920   38.8330 C   0  0  0  0  0  0  0  0  0  0  0  0
   37.5400   23.6540   38.8660 C   0  0  0  0  0  0  0  0  0  0  0  0
   36.4990   23.7560   39.8150 C   0  0  0  0  0  0  0  0  0  0  0  0
   36.4910   24.8330   40.6300 N   0  0  0  0  0  0  0  0  0  0  0  0
   37.4240   25.8140   40.5810 C   0  0  0  0  0  0  0  0  0  0  0  0
   38.4040   25.7140   39.6840 N   0  0  0  0  0  0  0  0  0  0  0  0
   37.3200   26.8880   41.4720 N   0  0  0  0  0  0  0  0  0  0  0  0
   37.3280   26.6610   42.8880 C   0  0  0  0  0  0  0  0  0  0  0  0
   36.8180   27.8270   43.6800 C   0  0  0  0  0  0  0  0  0  0  0  0
   37.0830   29.1080   43.1450 N   0  0  0  0  0  0  0  0  0  0  0  0
   37.8860   29.0990   41.9650 C   0  0  0  0  0  0  0  0  0  0  0  0
   37.2020   28.2380   40.9350 C   0  0  2  0  0  0  0  0  0  0  0  0
   39.3120   24.6670   38.1370 H   0  0  0  0  0  0  0  0  0  0  0  0
   37.6110   22.8280   38.1880 H   0  0  0  0  0  0  0  0  0  0  0  0
   35.7560   22.9770   39.8570 H   0  0  0  0  0  0  0  0  0  0  0  0
   36.7340   25.7490   43.0920 H   0  0  0  0  0  0  0  0  0  0  0  0
   38.3610   26.4320   43.2290 H   0  0  0  0  0  0  0  0  0  0  0  0
   35.7040   27.6950   43.7400 H   0  0  0  0  0  0  0  0  0  0  0  0
   37.1850   27.7970   44.7180 H   0  0  0  0  0  0  0  0  0  0  0  0
   36.2580   29.7560   43.0740 H   0  0  0  0  0  0  0  0  0  0  0  0
   38.0720   30.1290   41.6260 H   0  0  0  0  0  0  0  0  0  0  0  0
   38.8600   28.6240   42.1990 H   0  0  0  0  0  0  0  0  0  0  0  0
   37.7530   28.2820   39.9830 H   0  0  0  0  0  0  0  0  0  0  0  0
   35.7910   28.6500   40.6770 C   0  0  0  0  0  0  0  0  0  0  0  0
   35.2550   27.8270   40.1500 H   0  0  0  0  0  0  0  0  0  0  0  0
   35.2430   28.9950   41.5810 H   0  0  0  0  0  0  0  0  0  0  0  0
   35.8260   29.8060   39.7180 C   0  0  0  0  0  3  0  0  0  0  0  0
   36.9490   30.1390   39.0850 C   0  0  0  0  0  3  0  0  0  0  0  0
   37.0730   31.2680   38.1210 C   0  0  0  0  0  0  0  0  0  0  0  0
   37.5870   30.8340   37.2290 H   0  0  0  0  0  0  0  0  0  0  0  0
   36.1050   31.6730   37.8210 H   0  0  0  0  0  0  0  0  0  0  0  0
   38.0300   32.2880   38.6840 C   0  0  0  0  0  3  0  0  0  0  0  0
   39.4150   31.7800   38.9140 C   0  0  0  0  0  2  0  0  0  0  0  0
   40.2990   33.0310   38.9880 C   0  0  0  0  0  2  0  0  0  0  0  0
   39.8690   33.8630   40.1520 C   0  0  0  0  0  2  0  0  0  0  0  0
   38.4020   34.1600   40.1670 C   0  0  0  0  0  2  0  0  0  0  0  0
   37.5430   32.9250   39.9410 C   0  0  0  0  0  2  0  0  0  0  0  0
  1  2  2  0  0  0  0
  1  6  1  0  0  0  0
  2  3  1  0  0  0  0
  3 15  1  0  0  0  0
  3  4  2  0  0  0  0
  5  4  1  0  0  0  0
  5  7  1  0  0  0  0
  6  5  2  0  0  0  0
  7  8  1  0  0  0  0
  8 16  1  0  0  0  0
  8 17  1  0  0  0  0
  8  9  1  0  0  0  0
  9 18  1  0  0  0  0
  9 19  1  0  0  0  0
 10  9  1  0  0  0  0
 11 22  1  0  0  0  0
 11 10  1  0  0  0  0
 12 23  1  6  0  0  0
 12  7  1  0  0  0  0
 12 11  1  0  0  0  0
 13  1  1  0  0  0  0
 14  2  1  0  0  0  0
 20 10  1  0  0  0  0
 21 11  1  0  0  0  0
 24 12  1  0  0  0  0
 24 26  1  0  0  0  0
 25 24  1  0  0  0  0
 27 24  1  0  0  0  0
 28 27  2  0  0  0  0
 29 32  1  0  0  0  0
 29 28  1  0  0  0  0
 30 29  1  0  0  0  0
 31 29  1  0  0  0  0
 32 33  1  0  0  0  0
 32 37  1  0  0  0  0
 33 34  1  0  0  0  0
 34 35  1  0  0  0  0
 35 36  1  0  0  0  0
 37 36  1  0  0  0  0
M  END
>  <minimizedAffinity>
-5.45447779

$$$$

 OpenBabel03242517293D

 37 39  0  0  1  0  0  0  0  0999 V2000
   37.8910   26.5420   38.6450 C   0  0  0  0  0  0  0  0  0  0  0  0
   39.0890   26.4760   37.8900 C   0  0  0  0  0  0  0  0  0  0  0  0
   39.7810   27.6840   37.6520 C   0  0  0  0  0  0  0  0  0  0  0  0
   39.2560   28.8220   38.1560 N   0  0  0  0  0  0  0  0  0  0  0  0
   38.1090   28.8620   38.8750 C   0  0  0  0  0  0  0  0  0  0  0  0
   37.4600   27.7190   39.0980 N   0  0  0  0  0  0  0  0  0  0  0  0
   37.6540   30.0960   39.3520 N   0  0  0  0  0  0  0  0  0  0  0  0
   37.3680   31.1660   38.4420 C   0  0  0  0  0  0  0  0  0  0  0  0
   37.2830   32.5060   39.1080 C   0  0  0  0  0  0  0  0  0  0  0  0
   36.7770   32.5170   40.4270 N   0  0  0  0  0  0  0  0  0  0  0  0
   36.3330   31.2440   40.8970 C   0  0  0  0  0  0  0  0  0  0  0  0
   37.4790   30.2730   40.7890 C   0  0  2  0  0  0  0  0  0  0  0  0
   37.3280   25.6610   38.8560 H   0  0  0  0  0  0  0  0  0  0  0  0
   39.4450   25.5360   37.5210 H   0  0  0  0  0  0  0  0  0  0  0  0
   40.6930   27.6560   37.0800 H   0  0  0  0  0  0  0  0  0  0  0  0
   38.1450   31.1610   37.6520 H   0  0  0  0  0  0  0  0  0  0  0  0
   36.4050   30.9730   37.9210 H   0  0  0  0  0  0  0  0  0  0  0  0
   38.3320   32.9070   39.1310 H   0  0  0  0  0  0  0  0  0  0  0  0
   36.7000   33.2180   38.5030 H   0  0  0  0  0  0  0  0  0  0  0  0
   37.3540   33.0360   41.1370 H   0  0  0  0  0  0  0  0  0  0  0  0
   35.9280   31.3370   41.9160 H   0  0  0  0  0  0  0  0  0  0  0  0
   35.5260   30.8780   40.2300 H   0  0  0  0  0  0  0  0  0  0  0  0
   37.1940   29.3040   41.2250 H   0  0  0  0  0  0  0  0  0  0  0  0
   38.7130   30.7510   41.4800 C   0  0  0  0  0  0  0  0  0  0  0  0
   39.5520   30.8030   40.7470 H   0  0  0  0  0  0  0  0  0  0  0  0
   38.5850   31.7050   42.0370 H   0  0  0  0  0  0  0  0  0  0  0  0
   39.1010   29.7050   42.4850 C   0  0  0  0  0  3  0  0  0  0  0  0
   38.3360   28.6360   42.6940 C   0  0  0  0  0  3  0  0  0  0  0  0
   38.6450   27.5520   43.6690 C   0  0  0  0  0  0  0  0  0  0  0  0
   39.7420   27.6370   43.8610 H   0  0  0  0  0  0  0  0  0  0  0  0
   38.1010   27.6660   44.6090 H   0  0  0  0  0  0  0  0  0  0  0  0
   38.4520   26.2180   42.9930 C   0  0  0  0  0  3  0  0  0  0  0  0
   39.4870   25.8870   41.9680 C   0  0  0  0  0  2  0  0  0  0  0  0
   39.4100   24.3660   41.7920 C   0  0  0  0  0  2  0  0  0  0  0  0
   38.0560   24.0030   41.2760 C   0  0  0  0  0  2  0  0  0  0  0  0
   36.9330   24.5730   42.0860 C   0  0  0  0  0  2  0  0  0  0  0  0
   37.1050   26.0560   42.3780 C   0  0  0  0  0  2  0  0  0  0  0  0
  1 13  1  0  0  0  0
  1  6  1  0  0  0  0
  2  1  2  0  0  0  0
  3  2  1  0  0  0  0
  3  4  2  0  0  0  0
  4  5  1  0  0  0  0
  5  6  2  0  0  0  0
  5  7  1  0  0  0  0
  7 12  1  0  0  0  0
  8  9  1  0  0  0  0
  8  7  1  0  0  0  0
  9 18  1  0  0  0  0
  9 10  1  0  0  0  0
 10 11  1  0  0  0  0
 10 20  1  0  0  0  0
 11 21  1  0  0  0  0
 12 11  1  0  0  0  0
 12 23  1  1  0  0  0
 12 24  1  0  0  0  0
 14  2  1  0  0  0  0
 15  3  1  0  0  0  0
 16  8  1  0  0  0  0
 17  8  1  0  0  0  0
 19  9  1  0  0  0  0
 22 11  1  0  0  0  0
 24 26  1  0  0  0  0
 24 27  1  0  0  0  0
 25 24  1  0  0  0  0
 27 28  2  0  0  0  0
 28 29  1  0  0  0  0
 29 30  1  0  0  0  0
 29 31  1  0  0  0  0
 32 29  1  0  0  0  0
 33 32  1  0  0  0  0
 34 33  1  0  0  0  0
 35 34  1  0  0  0  0
 35 36  1  0  0  0  0
 36 37  1  0  0  0  0
 37 32  1  0  0  0  0
M  END
>  <minimizedAffinity>
-5.41908979

$$$$

 OpenBabel03242517293D

 37 39  0  0  1  0  0  0  0  0999 V2000
   39.6600   28.0300   42.0960 C   0  0  0  0  0  0  0  0  0  0  0  0
   38.8290   27.9030   43.2380 C   0  0  0  0  0  0  0  0  0  0  0  0
   37.7310   28.7840   43.3500 C   0  0  0  0  0  0  0  0  0  0  0  0
   37.5440   29.6880   42.3650 N   0  0  0  0  0  0  0  0  0  0  0  0
   38.3510   29.7920   41.2810 C   0  0  0  0  0  0  0  0  0  0  0  0
   39.3860   28.9590   41.1800 N   0  0  0  0  0  0  0  0  0  0  0  0
   38.0650   30.7660   40.3190 N   0  0  0  0  0  0  0  0  0  0  0  0
   38.0190   32.1540   40.6790 C   0  0  0  0  0  0  0  0  0  0  0  0
   37.3250   33.0080   39.6620 C   0  0  0  0  0  0  0  0  0  0  0  0
   37.4610   32.6100   38.3140 N   0  0  0  0  0  0  0  0  0  0  0  0
   38.3260   31.4920   38.1150 C   0  0  0  0  0  0  0  0  0  0  0  0
   37.8140   30.3450   38.9450 C   0  0  2  0  0  0  0  0  0  0  0  0
   40.5040   27.3920   41.9590 H   0  0  0  0  0  0  0  0  0  0  0  0
   39.0400   27.1610   43.9800 H   0  0  0  0  0  0  0  0  0  0  0  0
   37.0870   28.7040   44.2100 H   0  0  0  0  0  0  0  0  0  0  0  0
   37.5290   32.2340   41.6700 H   0  0  0  0  0  0  0  0  0  0  0  0
   39.0500   32.5430   40.8180 H   0  0  0  0  0  0  0  0  0  0  0  0
   36.2330   32.9800   39.9280 H   0  0  0  0  0  0  0  0  0  0  0  0
   37.6310   34.0620   39.7500 H   0  0  0  0  0  0  0  0  0  0  0  0
   36.5690   32.5400   37.7620 H   0  0  0  0  0  0  0  0  0  0  0  0
   38.4050   31.2600   37.0430 H   0  0  0  0  0  0  0  0  0  0  0  0
   39.3360   31.7500   38.4940 H   0  0  0  0  0  0  0  0  0  0  0  0
   38.4100   29.4410   38.7460 H   0  0  0  0  0  0  0  0  0  0  0  0
   36.3810   30.0270   38.6770 C   0  0  0  0  0  0  0  0  0  0  0  0
   35.8020   30.0960   39.6270 H   0  0  0  0  0  0  0  0  0  0  0  0
   35.9230   30.6310   37.8640 H   0  0  0  0  0  0  0  0  0  0  0  0
   36.3100   28.5890   38.2490 C   0  0  0  0  0  3  0  0  0  0  0  0
   36.3600   27.6030   39.1420 C   0  0  0  0  0  3  0  0  0  0  0  0
   36.2960   26.1530   38.8060 C   0  0  0  0  0  0  0  0  0  0  0  0
   35.2320   25.8600   38.9780 H   0  0  0  0  0  0  0  0  0  0  0  0
   36.5650   25.9500   37.7670 H   0  0  0  0  0  0  0  0  0  0  0  0
   37.0990   25.3810   39.8210 C   0  0  0  0  0  3  0  0  0  0  0  0
   36.8090   25.7370   41.2420 C   0  0  0  0  0  2  0  0  0  0  0  0
   37.3140   24.5480   42.0690 C   0  0  0  0  0  2  0  0  0  0  0  0
   38.7890   24.4120   41.8760 C   0  0  0  0  0  2  0  0  0  0  0  0
   39.2020   24.3640   40.4380 C   0  0  0  0  0  2  0  0  0  0  0  0
   38.5700   25.4660   39.6010 C   0  0  0  0  0  2  0  0  0  0  0  0
  1  2  1  0  0  0  0
  2  3  2  0  0  0  0
  2 14  1  0  0  0  0
  3 15  1  0  0  0  0
  4  3  1  0  0  0  0
  5  4  2  0  0  0  0
  6  5  1  0  0  0  0
  6  1  2  0  0  0  0
  7  8  1  0  0  0  0
  7  5  1  0  0  0  0
  8 17  1  0  0  0  0
  8 16  1  0  0  0  0
  9 19  1  0  0  0  0
  9 18  1  0  0  0  0
  9  8  1  0  0  0  0
 10  9  1  0  0  0  0
 11 10  1  0  0  0  0
 11 22  1  0  0  0  0
 11 12  1  0  0  0  0
 12 23  1  6  0  0  0
 12  7  1  0  0  0  0
 13  1  1  0  0  0  0
 20 10  1  0  0  0  0
 21 11  1  0  0  0  0
 24 12  1  0  0  0  0
 24 25  1  0  0  0  0
 26 24  1  0  0  0  0
 27 24  1  0  0  0  0
 27 28  2  0  0  0  0
 29 30  1  0  0  0  0
 29 28  1  0  0  0  0
 29 32  1  0  0  0  0
 31 29  1  0  0  0  0
 32 33  1  0  0  0  0
 33 34  1  0  0  0  0
 35 34  1  0  0  0  0
 36 35  1  0  0  0  0
 37 32  1  0  0  0  0
 37 36  1  0  0  0  0
M  END
>  <minimizedAffinity>
-5.29716206

$$$$

 OpenBabel03242517293D

 37 39  0  0  1  0  0  0  0  0999 V2000
   30.2070   32.0310   36.8930 C   0  0  0  0  0  0  0  0  0  0  0  0
   29.1900   31.6680   37.8100 C   0  0  0  0  0  0  0  0  0  0  0  0
   29.1080   30.3110   38.1950 C   0  0  0  0  0  0  0  0  0  0  0  0
   30.0030   29.4500   37.6650 N   0  0  0  0  0  0  0  0  0  0  0  0
   30.9680   29.8190   36.7890 C   0  0  0  0  0  0  0  0  0  0  0  0
   31.0410   31.1000   36.4290 N   0  0  0  0  0  0  0  0  0  0  0  0
   31.8440   28.8430   36.3010 N   0  0  0  0  0  0  0  0  0  0  0  0
   31.3410   27.7040   35.5900 C   0  0  0  0  0  0  0  0  0  0  0  0
   32.3300   26.5830   35.4890 C   0  0  0  0  0  0  0  0  0  0  0  0
   33.6900   26.9560   35.3980 N   0  0  0  0  0  0  0  0  0  0  0  0
   33.9100   28.3640   35.3240 C   0  0  0  0  0  0  0  0  0  0  0  0
   33.2750   29.0060   36.5290 C   0  0  2  0  0  0  0  0  0  0  0  0
   30.3160   33.0410   36.5670 H   0  0  0  0  0  0  0  0  0  0  0  0
   28.5140   32.4070   38.1890 H   0  0  0  0  0  0  0  0  0  0  0  0
   28.3420   30.0150   38.8910 H   0  0  0  0  0  0  0  0  0  0  0  0
   30.4100   27.3720   36.0910 H   0  0  0  0  0  0  0  0  0  0  0  0
   31.0420   28.0010   34.5620 H   0  0  0  0  0  0  0  0  0  0  0  0
   32.1960   25.9680   36.4200 H   0  0  0  0  0  0  0  0  0  0  0  0
   32.0920   25.9150   34.6460 H   0  0  0  0  0  0  0  0  0  0  0  0
   34.3450   26.4740   36.0660 H   0  0  0  0  0  0  0  0  0  0  0  0
   34.9850   28.5750   35.2270 H   0  0  0  0  0  0  0  0  0  0  0  0
   33.3920   28.7600   34.4270 H   0  0  0  0  0  0  0  0  0  0  0  0
   33.5030   30.0830   36.5460 H   0  0  0  0  0  0  0  0  0  0  0  0
   33.7390   28.4110   37.8170 C   0  0  0  0  0  0  0  0  0  0  0  0
   32.9070   28.4360   38.5580 H   0  0  0  0  0  0  0  0  0  0  0  0
   34.1820   27.3960   37.7190 H   0  0  0  0  0  0  0  0  0  0  0  0
   34.8130   29.3060   38.3670 C   0  0  0  0  0  3  0  0  0  0  0  0
   35.0560   29.3650   39.6740 C   0  0  0  0  0  3  0  0  0  0  0  0
   36.1000   30.2230   40.3030 C   0  0  0  0  0  0  0  0  0  0  0  0
   36.9330   30.2590   39.5600 H   0  0  0  0  0  0  0  0  0  0  0  0
   35.7460   31.2360   40.5030 H   0  0  0  0  0  0  0  0  0  0  0  0
   36.6590   29.5080   41.5060 C   0  0  0  0  0  3  0  0  0  0  0  0
   38.1320   29.6680   41.6940 C   0  0  0  0  0  2  0  0  0  0  0  0
   38.3930   29.3230   43.1650 C   0  0  0  0  0  2  0  0  0  0  0  0
   38.0070   27.9010   43.4080 C   0  0  0  0  0  2  0  0  0  0  0  0
   36.6210   27.5690   42.9490 C   0  0  0  0  0  2  0  0  0  0  0  0
   36.3320   28.0540   41.5360 C   0  0  0  0  0  2  0  0  0  0  0  0
  1  2  1  0  0  0  0
  2 14  1  0  0  0  0
  2  3  2  0  0  0  0
  3 15  1  0  0  0  0
  4  3  1  0  0  0  0
  5  4  2  0  0  0  0
  6  5  1  0  0  0  0
  6  1  2  0  0  0  0
  7 12  1  0  0  0  0
  7  5  1  0  0  0  0
  8 16  1  0  0  0  0
  8  7  1  0  0  0  0
  9  8  1  0  0  0  0
  9 18  1  0  0  0  0
 10  9  1  0  0  0  0
 10 20  1  0  0  0  0
 11 10  1  0  0  0  0
 11 12  1  0  0  0  0
 12 23  1  6  0  0  0
 12 24  1  0  0  0  0
 13  1  1  0  0  0  0
 17  8  1  0  0  0  0
 19  9  1  0  0  0  0
 21 11  1  0  0  0  0
 22 11  1  0  0  0  0
 24 27  1  0  0  0  0
 24 25  1  0  0  0  0
 26 24  1  0  0  0  0
 27 28  2  0  0  0  0
 28 29  1  0  0  0  0
 29 31  1  0  0  0  0
 29 32  1  0  0  0  0
 30 29  1  0  0  0  0
 32 37  1  0  0  0  0
 32 33  1  0  0  0  0
 33 34  1  0  0  0  0
 34 35  1  0  0  0  0
 36 35  1  0  0  0  0
 37 36  1  0  0  0  0
M  END
>  <minimizedAffinity>
-5.25728798

$$$$

 OpenBabel03242517293D

 37 39  0  0  1  0  0  0  0  0999 V2000
   37.2500   29.1810   37.5050 C   0  0  0  0  0  0  0  0  0  0  0  0
   38.2050   28.2890   36.9550 C   0  0  0  0  0  0  0  0  0  0  0  0
   39.5680   28.5300   37.2410 C   0  0  0  0  0  0  0  0  0  0  0  0
   39.8720   29.5930   38.0160 N   0  0  0  0  0  0  0  0  0  0  0  0
   38.9420   30.4330   38.5310 C   0  0  0  0  0  0  0  0  0  0  0  0
   37.6580   30.2020   38.2590 N   0  0  0  0  0  0  0  0  0  0  0  0
   39.3680   31.5050   39.3240 N   0  0  0  0  0  0  0  0  0  0  0  0
   40.2680   32.4880   38.7950 C   0  0  0  0  0  0  0  0  0  0  0  0
   40.9280   33.3190   39.8530 C   0  0  0  0  0  0  0  0  0  0  0  0
   40.1610   33.5810   41.0100 N   0  0  0  0  0  0  0  0  0  0  0  0
   38.8240   33.0850   40.9540 C   0  0  0  0  0  0  0  0  0  0  0  0
   38.8800   31.6030   40.6940 C   0  0  2  0  0  0  0  0  0  0  0  0
   36.2080   29.0480   37.3230 H   0  0  0  0  0  0  0  0  0  0  0  0
   37.8890   27.4660   36.3480 H   0  0  0  0  0  0  0  0  0  0  0  0
   40.3090   27.8640   36.8320 H   0  0  0  0  0  0  0  0  0  0  0  0
   41.0200   31.9640   38.1720 H   0  0  0  0  0  0  0  0  0  0  0  0
   39.7240   33.1680   38.1050 H   0  0  0  0  0  0  0  0  0  0  0  0
   41.8480   32.7520   40.1630 H   0  0  0  0  0  0  0  0  0  0  0  0
   41.2860   34.2770   39.4440 H   0  0  0  0  0  0  0  0  0  0  0  0
   40.6320   33.3840   41.9300 H   0  0  0  0  0  0  0  0  0  0  0  0
   38.2830   33.3520   41.8740 H   0  0  0  0  0  0  0  0  0  0  0  0
   38.3050   33.5520   40.0930 H   0  0  0  0  0  0  0  0  0  0  0  0
   37.8660   31.1760   40.7330 H   0  0  0  0  0  0  0  0  0  0  0  0
   39.7320   30.8720   41.6780 C   0  0  0  0  0  0  0  0  0  0  0  0
   40.4090   30.1730   41.1350 H   0  0  0  0  0  0  0  0  0  0  0  0
   40.2870   31.5310   42.3810 H   0  0  0  0  0  0  0  0  0  0  0  0
   38.8240   30.0110   42.5090 C   0  0  0  0  0  3  0  0  0  0  0  0
   38.4290   28.8140   42.0800 C   0  0  0  0  0  3  0  0  0  0  0  0
   37.5320   27.8980   42.8380 C   0  0  0  0  0  0  0  0  0  0  0  0
   38.1840   27.4270   43.6140 H   0  0  0  0  0  0  0  0  0  0  0  0
   36.7090   28.4240   43.3260 H   0  0  0  0  0  0  0  0  0  0  0  0
   37.1040   26.7730   41.9300 C   0  0  0  0  0  3  0  0  0  0  0  0
   37.6790   25.4390   42.2810 C   0  0  0  0  0  2  0  0  0  0  0  0
   36.7650   24.4130   41.6010 C   0  0  0  0  0  2  0  0  0  0  0  0
   36.8240   24.6120   40.1220 C   0  0  0  0  0  2  0  0  0  0  0  0
   36.5630   26.0240   39.6970 C   0  0  0  0  0  2  0  0  0  0  0  0
   37.3720   27.0410   40.4890 C   0  0  0  0  0  2  0  0  0  0  0  0
  1  6  1  0  0  0  0
  2  3  1  0  0  0  0
  2  1  2  0  0  0  0
  3  4  2  0  0  0  0
  4  5  1  0  0  0  0
  5  7  1  0  0  0  0
  6  5  2  0  0  0  0
  7 12  1  0  0  0  0
  8  7  1  0  0  0  0
  8  9  1  0  0  0  0
  9 18  1  0  0  0  0
  9 10  1  0  0  0  0
 10 20  1  0  0  0  0
 11 10  1  0  0  0  0
 11 21  1  0  0  0  0
 12 23  1  1  0  0  0
 12 11  1  0  0  0  0
 12 24  1  0  0  0  0
 13  1  1  0  0  0  0
 14  2  1  0  0  0  0
 15  3  1  0  0  0  0
 16  8  1  0  0  0  0
 17  8  1  0  0  0  0
 19  9  1  0  0  0  0
 22 11  1  0  0  0  0
 24 26  1  0  0  0  0
 24 27  1  0  0  0  0
 25 24  1  0  0  0  0
 28 27  2  0  0  0  0
 28 29  1  0  0  0  0
 29 31  1  0  0  0  0
 29 30  1  0  0  0  0
 32 33  1  0  0  0  0
 32 29  1  0  0  0  0
 34 33  1  0  0  0  0
 35 34  1  0  0  0  0
 36 35  1  0  0  0  0
 36 37  1  0  0  0  0
 37 32  1  0  0  0  0
M  END
>  <minimizedAffinity>
-5.13912296

$$$$
