
 OpenBabel03252503033D

 31 32  0  0  0  0  0  0  0  0999 V2000
   43.7210   33.9880   40.9690 S   0  0  0  0  0  0  0  0  0  0  0  0
   41.5450   32.3240   41.3390 C   0  0  0  0  0  0  0  0  0  0  0  0
   42.0590   33.3780   40.6020 C   0  0  0  0  0  0  0  0  0  0  0  0
   41.3170   33.9670   39.5870 C   0  0  0  0  0  0  0  0  0  0  0  0
   40.0780   33.4660   39.3540 N   0  0  0  0  0  0  0  0  0  0  0  0
   39.6100   32.4380   40.0920 C   0  0  0  0  0  0  0  0  0  0  0  0
   40.3040   31.8550   41.0740 N   0  0  0  0  0  0  0  0  0  0  0  0
   42.1360   31.8750   42.1280 H   0  0  0  0  0  0  0  0  0  0  0  0
   41.7280   34.7890   39.0180 H   0  0  0  0  0  0  0  0  0  0  0  0
   38.3300   31.9180   39.8540 O   0  0  0  0  0  0  0  0  0  0  0  0
   38.2460   30.9340   38.8330 C   0  0  0  0  0  3  0  0  0  0  0  0
   38.6760   31.5830   37.5340 C   0  0  0  0  0  2  0  0  0  0  0  0
   38.5860   30.5680   36.4150 C   0  0  0  0  0  2  0  0  0  0  0  0
   39.4030   29.3320   36.7310 C   0  0  0  0  0  2  0  0  0  0  0  0
   38.9160   28.7220   38.0420 C   0  0  0  0  0  2  0  0  0  0  0  0
   39.0910   29.7340   39.1290 C   0  0  0  0  0  2  0  0  0  0  0  0
   43.6150   35.6500   41.6110 C   0  0  0  0  0  0  0  0  0  0  0  0
   44.6240   36.1230   41.5010 H   0  0  0  0  0  0  0  0  0  0  0  0
   42.8610   36.2750   41.1060 H   0  0  0  0  0  0  0  0  0  0  0  0
   43.3720   35.5560   43.0430 N   0  0  0  0  0  0  0  0  0  0  0  0
   42.6540   36.2710   43.2960 H   0  0  0  0  0  0  0  0  0  0  0  0
   44.7890   35.8650   43.9570 S   0  0  0  0  0  0  0  0  0  0  0  0
   46.0260   35.3540   43.2830 O   0  0  0  0  0  0  0  0  0  0  0  0
   46.0490   34.4960   42.7620 H   0  0  0  0  0  0  0  0  0  0  0  0
   44.8840   37.3780   44.0800 O   0  0  0  0  0  0  0  0  0  0  0  0
   45.5290   37.8380   44.6710 H   0  0  0  0  0  0  0  0  0  0  0  0
   44.6250   35.2420   45.4950 O   0  0  0  0  0  0  0  0  0  0  0  0
   45.3790   34.1080   45.6830 C   0  0  0  0  0  0  0  0  0  0  0  0
   44.8400   33.4350   46.3810 H   0  0  0  0  0  0  0  0  0  0  0  0
   45.4700   33.5930   44.6950 H   0  0  0  0  0  0  0  0  0  0  0  0
   46.3870   34.3510   46.0880 H   0  0  0  0  0  0  0  0  0  0  0  0
  1 17  1  0  0  0  0
  2  8  1  0  0  0  0
  3  1  1  0  0  0  0
  3  2  2  0  0  0  0
  4  3  1  0  0  0  0
  5  4  2  0  0  0  0
  5  6  1  0  0  0  0
  6  7  2  0  0  0  0
  7  2  1  0  0  0  0
  9  4  1  0  0  0  0
 10  6  1  0  0  0  0
 11 16  1  0  0  0  0
 11 10  1  0  0  0  0
 12 11  1  0  0  0  0
 13 14  1  0  0  0  0
 13 12  1  0  0  0  0
 14 15  1  0  0  0  0
 15 16  1  0  0  0  0
 17 20  1  0  0  0  0
 18 17  1  0  0  0  0
 19 17  1  0  0  0  0
 20 21  1  0  0  0  0
 20 22  1  0  0  0  0
 22 25  1  0  0  0  0
 22 27  1  0  0  0  0
 23 22  1  0  0  0  0
 24 23  1  0  0  0  0
 25 26  1  0  0  0  0
 27 28  1  0  0  0  0
 28 31  1  0  0  0  0
 28 29  1  0  0  0  0
 30 28  1  0  0  0  0
M  END
>  <minimizedAffinity>
-4.75457144

>  <minimizedRMSD>
3.02219653

$$$$
