
 OpenBabel03242519393D

 24 25  0  0  0  0  0  0  0  0999 V2000
   48.4140   32.9530   41.3400 O   0  0  0  0  0  0  0  0  0  0  0  0
   47.2920   33.9880   41.2260 P   0  0  2  0  0  0  0  0  0  0  0  0
   45.9290   33.3860   42.0810 O   0  0  0  0  0  0  0  0  0  0  0  0
   44.4110   35.8430   44.3270 C   0  0  0  0  0  0  0  0  0  0  0  0
   44.8180   35.2170   43.1230 C   0  0  0  0  0  0  0  0  0  0  0  0
   45.5190   34.0200   43.2510 C   0  0  0  0  0  0  0  0  0  0  0  0
   45.7760   33.5150   44.4890 N   0  0  0  0  0  0  0  0  0  0  0  0
   45.3650   34.1530   45.6030 C   0  0  0  0  0  0  0  0  0  0  0  0
   44.6920   35.3000   45.5420 N   0  0  0  0  0  0  0  0  0  0  0  0
   43.8640   36.7750   44.2530 H   0  0  0  0  0  0  0  0  0  0  0  0
   44.5800   35.6720   42.1740 H   0  0  0  0  0  0  0  0  0  0  0  0
   45.6180   33.6720   46.5420 H   0  0  0  0  0  0  0  0  0  0  0  0
   46.8790   34.2820   39.6440 O   0  0  0  0  0  0  0  0  0  0  0  0
   47.4810   33.3850   38.7800 C   0  0  0  0  0  0  0  0  0  0  0  0
   46.5150   32.3790   38.2280 C   0  0  0  0  0  0  0  0  0  0  0  0
   46.2550   32.5720   36.7490 C   0  0  0  0  0  0  0  0  0  0  0  0
   47.5800   32.3980   36.0340 C   0  0  0  0  0  0  0  0  0  0  0  0
   48.6610   33.2720   36.6150 C   0  0  0  0  0  0  0  0  0  0  0  0
   48.0510   34.1860   37.6280 C   0  0  0  0  0  0  0  0  0  0  0  0
   47.8210   35.3770   42.0110 O   0  0  0  0  0  0  0  0  0  0  0  0
   49.0450   35.8100   41.5590 C   0  0  0  0  0  0  0  0  0  0  0  0
   49.3520   37.1010   41.9670 F   0  0  0  0  0  0  0  0  0  0  0  0
   50.0220   34.9080   41.8990 F   0  0  0  0  0  0  0  0  0  0  0  0
   48.9590   35.8540   40.1770 F   0  0  0  0  0  0  0  0  0  0  0  0
  2  1  2  1  0  0  0
  2 20  1  0  0  0  0
  2  3  1  0  0  0  0
  3  6  1  0  0  0  0
  4  9  1  0  0  0  0
  5  6  1  0  0  0  0
  5  4  2  0  0  0  0
  6  7  2  0  0  0  0
  7  8  1  0  0  0  0
  8 12  1  0  0  0  0
  9  8  2  0  0  0  0
 10  4  1  0  0  0  0
 11  5  1  0  0  0  0
 13  2  1  0  0  0  0
 14 13  1  0  0  0  0
 15 14  1  0  0  0  0
 16 15  1  0  0  0  0
 17 18  1  0  0  0  0
 17 16  1  0  0  0  0
 18 19  1  0  0  0  0
 19 14  1  0  0  0  0
 21 23  1  0  0  0  0
 21 22  1  0  0  0  0
 21 20  1  0  0  0  0
 24 21  1  0  0  0  0
M  END
>  <minimizedAffinity>
-5.35088921

>  <minimizedRMSD>
1.62522948

$$$$
