
 OpenBabel03252507163D

 26 28  0  0  0  0  0  0  0  0999 V2000
   45.9240   35.8580   42.9790 C   0  0  0  0  0  0  0  0  0  0  0  0
   46.3510   34.5720   43.3920 C   0  0  0  0  0  0  0  0  0  0  0  0
   45.7550   34.0640   44.5450 C   0  0  0  0  0  0  0  0  0  0  0  0
   44.8280   34.7840   45.2050 N   0  0  0  0  0  0  0  0  0  0  0  0
   44.4400   36.0270   44.7710 C   0  0  0  0  0  0  0  0  0  0  0  0
   44.9980   36.5260   43.6740 N   0  0  0  0  0  0  0  0  0  0  0  0
   46.3660   36.3010   42.0740 H   0  0  0  0  0  0  0  0  0  0  0  0
   43.6880   36.4740   45.4060 H   0  0  0  0  0  0  0  0  0  0  0  0
   46.1760   32.7410   44.9960 C   0  0  0  0  0  0  0  0  0  0  0  0
   45.7410   31.6180   44.3310 C   0  0  0  0  0  0  0  0  0  0  0  0
   46.1540   30.3830   44.7770 C   0  0  0  0  0  0  0  0  0  0  0  0
   46.9910   30.2080   45.8710 C   0  0  0  0  0  0  0  0  0  0  0  0
   47.3920   31.3860   46.4960 C   0  0  0  0  0  0  0  0  0  0  0  0
   46.9790   32.5790   46.0450 N   0  0  0  0  0  0  0  0  0  0  0  0
   45.0770   31.6720   43.4550 H   0  0  0  0  0  0  0  0  0  0  0  0
   45.8270   29.4650   44.2720 H   0  0  0  0  0  0  0  0  0  0  0  0
   47.3220   29.2480   46.2320 H   0  0  0  0  0  0  0  0  0  0  0  0
   48.0470   31.3530   47.3600 H   0  0  0  0  0  0  0  0  0  0  0  0
   47.3340   33.8600   42.6570 C   0  0  0  0  0  0  0  0  0  0  0  0
   48.5130   33.8680   43.1280 O   0  0  0  0  0  0  0  0  0  0  0  0
   47.2790   33.0670   41.3930 C   0  0  0  0  0  3  0  0  0  0  0  0
   48.6030   32.3820   41.2610 C   0  0  0  0  0  2  0  0  0  0  0  0
   48.9180   31.8920   39.8770 C   0  0  0  0  0  2  0  0  0  0  0  0
   48.6400   32.8980   38.8070 C   0  0  0  0  0  2  0  0  0  0  0  0
   48.0490   34.1790   39.3030 C   0  0  0  0  0  2  0  0  0  0  0  0
   46.9000   33.9400   40.2440 C   0  0  0  0  0  2  0  0  0  0  0  0
  1  2  2  0  0  0  0
  1  6  1  0  0  0  0
  2  3  1  0  0  0  0
  3  9  1  0  0  0  0
  3  4  2  0  0  0  0
  5  4  1  0  0  0  0
  5  8  1  0  0  0  0
  6  5  2  0  0  0  0
  7  1  1  0  0  0  0
  9 14  1  0  0  0  0
 10 11  1  0  0  0  0
 10  9  2  0  0  0  0
 11 12  2  0  0  0  0
 12 17  1  0  0  0  0
 12 13  1  0  0  0  0
 13 18  1  0  0  0  0
 14 13  2  0  0  0  0
 15 10  1  0  0  0  0
 16 11  1  0  0  0  0
 19 20  2  0  0  0  0
 19  2  1  0  0  0  0
 21 19  1  0  0  0  0
 22 21  1  0  0  0  0
 23 22  1  0  0  0  0
 24 25  1  0  0  0  0
 24 23  1  0  0  0  0
 25 26  1  0  0  0  0
 26 21  1  0  0  0  0
M  END
>  <minimizedAffinity>
-4.69336176

>  <minimizedRMSD>
1.74347115

$$$$
