
 OpenBabel03252503013D

 27 28  0  0  0  0  0  0  0  0999 V2000
   43.2660   30.2180   42.9100 N   0  0  0  0  0  0  0  0  0  0  0  0
   42.5870   30.8500   43.3620 H   0  0  0  0  0  0  0  0  0  0  0  0
   43.0440   30.1220   41.4620 C   0  0  0  0  0  0  0  0  0  0  0  0
   43.5040   31.0170   41.0110 H   0  0  0  0  0  0  0  0  0  0  0  0
   43.4920   29.2150   41.0340 H   0  0  0  0  0  0  0  0  0  0  0  0
   41.2690   30.1140   41.1950 S   0  0  0  0  0  0  0  0  0  0  0  0
   41.3570   32.3910   39.6230 C   0  0  0  0  0  0  0  0  0  0  0  0
   40.7350   31.7690   40.6950 C   0  0  0  0  0  0  0  0  0  0  0  0
   39.7010   32.4080   41.3900 C   0  0  0  0  0  0  0  0  0  0  0  0
   39.3490   33.6530   40.9600 N   0  0  0  0  0  0  0  0  0  0  0  0
   39.9830   34.2100   39.9190 C   0  0  0  0  0  0  0  0  0  0  0  0
   40.9590   33.6390   39.2420 N   0  0  0  0  0  0  0  0  0  0  0  0
   42.1580   31.9200   39.0690 H   0  0  0  0  0  0  0  0  0  0  0  0
   39.2710   31.8510   42.2140 H   0  0  0  0  0  0  0  0  0  0  0  0
   39.5550   35.2060   39.7330 H   0  0  0  0  0  0  0  0  0  0  0  0
   44.8930   30.6580   43.2800 S   0  0  0  0  0  0  0  0  0  0  0  0
   45.1580   30.6120   44.7440 O   0  0  0  0  0  0  0  0  0  0  0  0
   45.4520   29.7530   45.1780 H   0  0  0  0  0  0  0  0  0  0  0  0
   45.7620   29.6340   42.5540 O   0  0  0  0  0  0  0  0  0  0  0  0
   46.6440   29.3950   42.9410 H   0  0  0  0  0  0  0  0  0  0  0  0
   45.2250   32.1340   42.5850 O   0  0  0  0  0  0  0  0  0  0  0  0
   44.3970   33.1620   43.0180 C   0  0  0  0  0  3  0  0  0  0  0  0
   43.9810   33.9800   41.8370 C   0  0  0  0  0  2  0  0  0  0  0  0
   44.0280   35.4600   42.0400 C   0  0  0  0  0  2  0  0  0  0  0  0
   45.3280   35.9960   42.5370 C   0  0  0  0  0  2  0  0  0  0  0  0
   46.1070   34.9690   43.3050 C   0  0  0  0  0  2  0  0  0  0  0  0
   45.0920   34.0840   43.9900 C   0  0  0  0  0  2  0  0  0  0  0  0
  1 16  1  0  0  0  0
  1  2  1  0  0  0  0
  3  1  1  0  0  0  0
  4  3  1  0  0  0  0
  5  3  1  0  0  0  0
  6  3  1  0  0  0  0
  7  8  1  0  0  0  0
  8  6  1  0  0  0  0
  8  9  2  0  0  0  0
  9 14  1  0  0  0  0
 10  9  1  0  0  0  0
 11 10  2  0  0  0  0
 12  7  2  0  0  0  0
 12 11  1  0  0  0  0
 13  7  1  0  0  0  0
 15 11  1  0  0  0  0
 16 17  1  0  0  0  0
 17 18  1  0  0  0  0
 19 20  1  0  0  0  0
 19 16  1  0  0  0  0
 21 22  1  0  0  0  0
 21 16  1  0  0  0  0
 22 27  1  0  0  0  0
 23 24  1  0  0  0  0
 23 22  1  0  0  0  0
 24 25  1  0  0  0  0
 25 26  1  0  0  0  0
 26 27  1  0  0  0  0
M  END
>  <minimizedAffinity>
-3.23165917

>  <minimizedRMSD>
4.2936306

$$$$
