
 OpenBabel03242517043D

 30 32  0  0  0  0  0  0  0  0999 V2000
   46.5010   34.6960   41.9950 C   0  0  0  0  0  0  0  0  0  0  0  0
   47.8290   35.1020   41.9170 C   0  0  0  0  0  0  0  0  0  0  0  0
   48.5180   34.8820   40.7400 C   0  0  0  0  0  0  0  0  0  0  0  0
   47.8950   34.2790   39.6840 C   0  0  0  0  0  0  0  0  0  0  0  0
   46.5790   33.8640   39.7260 C   0  0  0  0  0  0  0  0  0  0  0  0
   45.8980   34.0970   40.9330 C   0  0  0  0  0  0  0  0  0  0  0  0
   48.3190   35.5790   42.7530 H   0  0  0  0  0  0  0  0  0  0  0  0
   49.5400   35.2000   40.6940 H   0  0  0  0  0  0  0  0  0  0  0  0
   48.4800   34.1320   38.7890 H   0  0  0  0  0  0  0  0  0  0  0  0
   46.0770   33.3930   38.9170 H   0  0  0  0  0  0  0  0  0  0  0  0
   44.5010   36.2590   44.7880 C   0  0  0  0  0  0  0  0  0  0  0  0
   45.1190   36.0960   43.5330 C   0  0  0  0  0  0  0  0  0  0  0  0
   45.8260   34.9560   43.2630 C   0  0  0  0  0  0  0  0  0  0  0  0
   45.8870   34.0300   44.2420 N   0  0  0  0  0  0  0  0  0  0  0  0
   45.2990   34.1740   45.4460 C   0  0  0  0  0  0  0  0  0  0  0  0
   44.5970   35.3000   45.7250 N   0  0  0  0  0  0  0  0  0  0  0  0
   43.9800   37.2080   44.8580 H   0  0  0  0  0  0  0  0  0  0  0  0
   45.0670   36.8510   42.7400 H   0  0  0  0  0  0  0  0  0  0  0  0
   45.3560   33.4220   46.2240 H   0  0  0  0  0  0  0  0  0  0  0  0
   43.3030   34.3070   40.8520 C   0  0  0  0  0  0  0  0  0  0  0  0
   43.1120   35.4040   40.3530 O   0  0  0  0  0  0  0  0  0  0  0  0
   44.5510   33.7210   41.1280 N   0  0  0  0  0  0  0  0  0  0  0  0
   44.6200   32.7830   41.5860 H   0  0  0  0  0  0  0  0  0  0  0  0
   42.1600   33.5720   41.1780 O   0  0  0  0  0  0  0  0  0  0  0  0
   41.6750   32.6300   40.2540 C   0  0  0  0  0  0  0  0  0  0  0  0
   41.0570   31.5080   41.0500 C   0  0  0  0  0  0  0  0  0  0  0  0
   39.7590   31.8490   41.7000 C   0  0  0  0  0  0  0  0  0  0  0  0
   38.8400   32.7070   40.8970 C   0  0  0  0  0  0  0  0  0  0  0  0
   39.6170   33.9010   40.3800 C   0  0  0  0  0  0  0  0  0  0  0  0
   40.6220   33.3230   39.3860 C   0  0  0  0  0  0  0  0  0  0  0  0
  1 13  1  0  0  0  0
  2  1  1  0  0  0  0
  2  7  1  0  0  0  0
  3  2  2  0  0  0  0
  4  5  2  0  0  0  0
  4  3  1  0  0  0  0
  5  6  1  0  0  0  0
  6 22  1  0  0  0  0
  6  1  2  0  0  0  0
  8  3  1  0  0  0  0
  9  4  1  0  0  0  0
 10  5  1  0  0  0  0
 11 17  1  0  0  0  0
 11 16  1  0  0  0  0
 12 11  2  0  0  0  0
 13 12  1  0  0  0  0
 13 14  2  0  0  0  0
 14 15  1  0  0  0  0
 15 16  2  0  0  0  0
 15 19  1  0  0  0  0
 18 12  1  0  0  0  0
 20 22  1  0  0  0  0
 20 24  1  0  0  0  0
 21 20  2  0  0  0  0
 22 23  1  0  0  0  0
 25 26  1  0  0  0  0
 25 24  1  0  0  0  0
 26 27  1  0  0  0  0
 28 27  1  0  0  0  0
 29 28  1  0  0  0  0
 30 25  1  0  0  0  0
 30 29  1  0  0  0  0
M  END
>  <minimizedAffinity>
-6.22624588

>  <minimizedRMSD>
1.50359917

$$$$
