
 OpenBabel03242517263D

 32 34  0  0  1  0  0  0  0  0999 V2000
   39.9380   26.7280   38.7540 C   0  0  0  0  0  0  0  0  0  0  0  0
   41.2570   27.2440   38.9020 C   0  0  0  0  0  0  0  0  0  0  0  0
   41.3980   28.5050   39.5180 C   0  0  0  0  0  0  0  0  0  0  0  0
   40.2850   29.1460   39.9300 N   0  0  0  0  0  0  0  0  0  0  0  0
   39.0420   28.6480   39.7850 C   0  0  0  0  0  0  0  0  0  0  0  0
   38.9050   27.4490   39.1990 N   0  0  0  0  0  0  0  0  0  0  0  0
   37.9460   29.3750   40.2380 N   0  0  0  0  0  0  0  0  0  0  0  0
   37.6950   30.6940   39.7320 C   0  0  0  0  0  0  0  0  0  0  0  0
   36.7700   31.4990   40.5820 C   0  0  0  0  0  0  0  0  0  0  0  0
   35.7540   30.7810   41.2610 N   0  0  0  0  0  0  0  0  0  0  0  0
   35.7140   29.3850   40.9360 C   0  0  0  0  0  0  0  0  0  0  0  0
   37.0510   28.7790   41.2370 C   0  0  2  0  0  0  0  0  0  0  0  0
   39.8730   25.7670   38.2820 H   0  0  0  0  0  0  0  0  0  0  0  0
   42.1650   26.7500   38.5810 H   0  0  0  0  0  0  0  0  0  0  0  0
   42.3800   28.9180   39.6440 H   0  0  0  0  0  0  0  0  0  0  0  0
   37.2090   30.5800   38.7380 H   0  0  0  0  0  0  0  0  0  0  0  0
   38.6110   31.2790   39.5420 H   0  0  0  0  0  0  0  0  0  0  0  0
   36.3200   32.3060   39.9360 H   0  0  0  0  0  0  0  0  0  0  0  0
   37.4140   32.0600   41.3200 H   0  0  0  0  0  0  0  0  0  0  0  0
   34.8340   31.2270   41.3470 H   0  0  0  0  0  0  0  0  0  0  0  0
   34.9540   28.9020   41.5780 H   0  0  0  0  0  0  0  0  0  0  0  0
   35.4670   29.1810   39.8760 H   0  0  0  0  0  0  0  0  0  0  0  0
   37.0070   27.6930   41.0240 H   0  0  0  0  0  0  0  0  0  0  0  0
   37.5110   29.0490   42.6330 C   0  0  0  0  0  0  0  0  0  0  0  0
   36.6460   29.4400   43.2010 H   0  0  0  0  0  0  0  0  0  0  0  0
   38.3420   29.7870   42.5790 H   0  0  0  0  0  0  0  0  0  0  0  0
   38.0660   27.7860   43.2610 C   0  0  0  0  0  3  0  0  0  0  0  0
   39.5540   27.9350   43.2530 C   0  0  0  0  0  2  0  0  0  0  0  0
   40.2970   26.7040   43.6800 C   0  0  0  0  0  2  0  0  0  0  0  0
   39.5350   25.4310   43.4220 C   0  0  0  0  0  2  0  0  0  0  0  0
   38.6060   25.5370   42.2620 C   0  0  0  0  0  2  0  0  0  0  0  0
   37.5600   26.5890   42.5180 C   0  0  0  0  0  2  0  0  0  0  0  0
  1  2  2  0  0  0  0
  1  6  1  0  0  0  0
  2  3  1  0  0  0  0
  3 15  1  0  0  0  0
  3  4  2  0  0  0  0
  5  4  1  0  0  0  0
  5  7  1  0  0  0  0
  6  5  2  0  0  0  0
  7 12  1  0  0  0  0
  8  7  1  0  0  0  0
  8  9  1  0  0  0  0
  9 10  1  0  0  0  0
  9 19  1  0  0  0  0
 10 20  1  0  0  0  0
 11 12  1  0  0  0  0
 11 10  1  0  0  0  0
 11 21  1  0  0  0  0
 12 23  1  6  0  0  0
 12 24  1  0  0  0  0
 13  1  1  0  0  0  0
 14  2  1  0  0  0  0
 16  8  1  0  0  0  0
 17  8  1  0  0  0  0
 18  9  1  0  0  0  0
 22 11  1  0  0  0  0
 24 25  1  0  0  0  0
 24 27  1  0  0  0  0
 26 24  1  0  0  0  0
 28 27  1  0  0  0  0
 28 29  1  0  0  0  0
 30 29  1  0  0  0  0
 31 32  1  0  0  0  0
 31 30  1  0  0  0  0
 32 27  1  0  0  0  0
M  END
>  <minimizedAffinity>
-5.28965759

$$$$

 OpenBabel03242517263D

 32 34  0  0  1  0  0  0  0  0999 V2000
   36.2000   29.6670   37.5570 C   0  0  0  0  0  0  0  0  0  0  0  0
   36.9090   28.6640   36.8350 C   0  0  0  0  0  0  0  0  0  0  0  0
   38.3100   28.6170   36.9920 C   0  0  0  0  0  0  0  0  0  0  0  0
   38.8950   29.5160   37.8080 N   0  0  0  0  0  0  0  0  0  0  0  0
   38.2150   30.4610   38.4850 C   0  0  0  0  0  0  0  0  0  0  0  0
   36.8820   30.5090   38.3390 N   0  0  0  0  0  0  0  0  0  0  0  0
   38.8970   31.3520   39.3070 N   0  0  0  0  0  0  0  0  0  0  0  0
   39.9250   32.1940   38.7660 C   0  0  0  0  0  0  0  0  0  0  0  0
   40.8350   32.7720   39.7970 C   0  0  0  0  0  0  0  0  0  0  0  0
   40.2550   33.0620   41.0570 N   0  0  0  0  0  0  0  0  0  0  0  0
   38.8380   32.8440   41.1080 C   0  0  0  0  0  0  0  0  0  0  0  0
   38.5540   31.4210   40.7330 C   0  0  2  0  0  0  0  0  0  0  0  0
   35.1380   29.6700   37.4120 H   0  0  0  0  0  0  0  0  0  0  0  0
   36.4630   27.9310   36.1750 H   0  0  0  0  0  0  0  0  0  0  0  0
   38.8700   27.8710   36.4610 H   0  0  0  0  0  0  0  0  0  0  0  0
   39.4220   33.0460   38.2590 H   0  0  0  0  0  0  0  0  0  0  0  0
   40.5310   31.7070   37.9830 H   0  0  0  0  0  0  0  0  0  0  0  0
   41.3120   33.6950   39.3590 H   0  0  0  0  0  0  0  0  0  0  0  0
   41.6910   32.0470   39.9170 H   0  0  0  0  0  0  0  0  0  0  0  0
   40.5750   33.9050   41.5450 H   0  0  0  0  0  0  0  0  0  0  0  0
   38.5000   33.0100   42.1470 H   0  0  0  0  0  0  0  0  0  0  0  0
   38.2620   33.5060   40.4340 H   0  0  0  0  0  0  0  0  0  0  0  0
   37.4630   31.2420   40.8120 H   0  0  0  0  0  0  0  0  0  0  0  0
   39.3330   30.4380   41.5460 C   0  0  0  0  0  0  0  0  0  0  0  0
   40.1160   31.0000   42.0890 H   0  0  0  0  0  0  0  0  0  0  0  0
   39.7670   29.6900   40.8470 H   0  0  0  0  0  0  0  0  0  0  0  0
   38.4180   29.6940   42.4970 C   0  0  0  0  0  3  0  0  0  0  0  0
   39.1360   28.4360   42.8700 C   0  0  0  0  0  2  0  0  0  0  0  0
   38.3140   27.4760   43.6770 C   0  0  0  0  0  2  0  0  0  0  0  0
   36.8350   27.6080   43.4310 C   0  0  0  0  0  2  0  0  0  0  0  0
   36.5160   28.0990   42.0610 C   0  0  0  0  0  2  0  0  0  0  0  0
   37.0860   29.4760   41.8480 C   0  0  0  0  0  2  0  0  0  0  0  0
  1  6  1  0  0  0  0
  2  3  1  0  0  0  0
  2  1  2  0  0  0  0
  3  4  2  0  0  0  0
  4  5  1  0  0  0  0
  5  7  1  0  0  0  0
  6  5  2  0  0  0  0
  7 12  1  0  0  0  0
  8  7  1  0  0  0  0
  8  9  1  0  0  0  0
  9 19  1  0  0  0  0
  9 10  1  0  0  0  0
 10 11  1  0  0  0  0
 10 20  1  0  0  0  0
 11 21  1  0  0  0  0
 12 23  1  1  0  0  0
 12 11  1  0  0  0  0
 12 24  1  0  0  0  0
 13  1  1  0  0  0  0
 14  2  1  0  0  0  0
 15  3  1  0  0  0  0
 16  8  1  0  0  0  0
 17  8  1  0  0  0  0
 18  9  1  0  0  0  0
 22 11  1  0  0  0  0
 24 25  1  0  0  0  0
 24 27  1  0  0  0  0
 26 24  1  0  0  0  0
 27 28  1  0  0  0  0
 28 29  1  0  0  0  0
 30 29  1  0  0  0  0
 31 30  1  0  0  0  0
 32 31  1  0  0  0  0
 32 27  1  0  0  0  0
M  END
>  <minimizedAffinity>
-5.25781679

$$$$

 OpenBabel03242517263D

 32 34  0  0  1  0  0  0  0  0999 V2000
   41.2860   28.7240   38.1240 C   0  0  0  0  0  0  0  0  0  0  0  0
   42.4990   28.8750   38.8550 C   0  0  0  0  0  0  0  0  0  0  0  0
   42.5370   29.8690   39.8560 C   0  0  0  0  0  0  0  0  0  0  0  0
   41.4320   30.6120   40.0640 N   0  0  0  0  0  0  0  0  0  0  0  0
   40.2890   30.4600   39.3660 C   0  0  0  0  0  0  0  0  0  0  0  0
   40.2500   29.5160   38.4130 N   0  0  0  0  0  0  0  0  0  0  0  0
   39.1940   31.2710   39.6440 N   0  0  0  0  0  0  0  0  0  0  0  0
   39.3040   32.6970   39.5380 C   0  0  0  0  0  0  0  0  0  0  0  0
   38.2230   33.4400   40.2500 C   0  0  0  0  0  0  0  0  0  0  0  0
   36.9510   32.8150   40.2870 N   0  0  0  0  0  0  0  0  0  0  0  0
   36.8800   31.5970   39.5340 C   0  0  0  0  0  0  0  0  0  0  0  0
   37.9240   30.6510   40.0450 C   0  0  2  0  0  0  0  0  0  0  0  0
   41.2980   27.9590   37.3720 H   0  0  0  0  0  0  0  0  0  0  0  0
   43.3990   28.2920   38.7070 H   0  0  0  0  0  0  0  0  0  0  0  0
   43.4370   30.0050   40.4230 H   0  0  0  0  0  0  0  0  0  0  0  0
   39.2240   32.9570   38.4600 H   0  0  0  0  0  0  0  0  0  0  0  0
   40.2840   33.0910   39.8600 H   0  0  0  0  0  0  0  0  0  0  0  0
   38.1470   34.4660   39.7900 H   0  0  0  0  0  0  0  0  0  0  0  0
   38.5960   33.6310   41.2980 H   0  0  0  0  0  0  0  0  0  0  0  0
   36.1240   33.4170   40.2060 H   0  0  0  0  0  0  0  0  0  0  0  0
   35.8840   31.1460   39.6990 H   0  0  0  0  0  0  0  0  0  0  0  0
   37.0340   31.7360   38.4470 H   0  0  0  0  0  0  0  0  0  0  0  0
   37.8420   29.6950   39.4900 H   0  0  0  0  0  0  0  0  0  0  0  0
   37.8450   30.4390   41.5220 C   0  0  0  0  0  0  0  0  0  0  0  0
   36.8780   30.8490   41.8670 H   0  0  0  0  0  0  0  0  0  0  0  0
   38.7100   30.9650   41.9850 H   0  0  0  0  0  0  0  0  0  0  0  0
   37.9790   28.9660   41.8530 C   0  0  0  0  0  3  0  0  0  0  0  0
   37.1910   28.2320   40.8160 C   0  0  0  0  0  2  0  0  0  0  0  0
   37.0580   26.7600   41.0730 C   0  0  0  0  0  2  0  0  0  0  0  0
   37.1470   26.4020   42.5330 C   0  0  0  0  0  2  0  0  0  0  0  0
   36.6720   27.4950   43.4270 C   0  0  0  0  0  2  0  0  0  0  0  0
   37.5280   28.7230   43.2600 C   0  0  0  0  0  2  0  0  0  0  0  0
  1  6  2  0  0  0  0
  1  2  1  0  0  0  0
  2  3  2  0  0  0  0
  3  4  1  0  0  0  0
  3 15  1  0  0  0  0
  5  7  1  0  0  0  0
  5  4  2  0  0  0  0
  6  5  1  0  0  0  0
  7 12  1  0  0  0  0
  8  7  1  0  0  0  0
  8 17  1  0  0  0  0
  8  9  1  0  0  0  0
  9 10  1  0  0  0  0
  9 19  1  0  0  0  0
 11 21  1  0  0  0  0
 11 12  1  0  0  0  0
 11 10  1  0  0  0  0
 12 23  1  6  0  0  0
 12 24  1  0  0  0  0
 13  1  1  0  0  0  0
 14  2  1  0  0  0  0
 16  8  1  0  0  0  0
 18  9  1  0  0  0  0
 20 10  1  0  0  0  0
 22 11  1  0  0  0  0
 24 27  1  0  0  0  0
 24 25  1  0  0  0  0
 24 26  1  0  0  0  0
 27 32  1  0  0  0  0
 28 29  1  0  0  0  0
 28 27  1  0  0  0  0
 29 30  1  0  0  0  0
 30 31  1  0  0  0  0
 32 31  1  0  0  0  0
M  END
>  <minimizedAffinity>
-5.1380434

$$$$

 OpenBabel03242517263D

 32 34  0  0  1  0  0  0  0  0999 V2000
   39.4190   27.6650   41.4750 C   0  0  0  0  0  0  0  0  0  0  0  0
   38.7790   27.7520   42.7440 C   0  0  0  0  0  0  0  0  0  0  0  0
   38.4070   29.0340   43.1990 C   0  0  0  0  0  0  0  0  0  0  0  0
   38.6760   30.0970   42.4140 N   0  0  0  0  0  0  0  0  0  0  0  0
   39.2830   30.0030   41.2160 C   0  0  0  0  0  0  0  0  0  0  0  0
   39.6380   28.7850   40.7790 N   0  0  0  0  0  0  0  0  0  0  0  0
   39.5250   31.1510   40.4680 N   0  0  0  0  0  0  0  0  0  0  0  0
   40.3200   32.2140   41.0120 C   0  0  0  0  0  0  0  0  0  0  0  0
   40.1520   33.5160   40.3030 C   0  0  0  0  0  0  0  0  0  0  0  0
   39.8980   33.4450   38.9100 N   0  0  0  0  0  0  0  0  0  0  0  0
   39.9450   32.1140   38.3790 C   0  0  0  0  0  0  0  0  0  0  0  0
   38.9590   31.2620   39.1180 C   0  0  2  0  0  0  0  0  0  0  0  0
   39.6860   26.6740   41.1640 H   0  0  0  0  0  0  0  0  0  0  0  0
   38.5510   26.9150   43.3920 H   0  0  0  0  0  0  0  0  0  0  0  0
   37.9220   29.1300   44.1510 H   0  0  0  0  0  0  0  0  0  0  0  0
   41.3870   31.9180   40.9050 H   0  0  0  0  0  0  0  0  0  0  0  0
   40.1700   32.3710   42.0940 H   0  0  0  0  0  0  0  0  0  0  0  0
   41.0670   34.1420   40.5070 H   0  0  0  0  0  0  0  0  0  0  0  0
   39.3160   34.0640   40.8260 H   0  0  0  0  0  0  0  0  0  0  0  0
   40.3260   34.1600   38.3130 H   0  0  0  0  0  0  0  0  0  0  0  0
   39.6480   32.1560   37.3140 H   0  0  0  0  0  0  0  0  0  0  0  0
   40.9430   31.6410   38.4520 H   0  0  0  0  0  0  0  0  0  0  0  0
   38.9670   30.2440   38.6790 H   0  0  0  0  0  0  0  0  0  0  0  0
   37.5830   31.8440   39.1330 C   0  0  0  0  0  0  0  0  0  0  0  0
   37.5600   32.6680   38.3960 H   0  0  0  0  0  0  0  0  0  0  0  0
   37.3790   32.2050   40.1660 H   0  0  0  0  0  0  0  0  0  0  0  0
   36.5540   30.7790   38.8130 C   0  0  0  0  0  3  0  0  0  0  0  0
   35.9230   30.4020   40.1150 C   0  0  0  0  0  2  0  0  0  0  0  0
   34.9920   29.2300   40.0300 C   0  0  0  0  0  2  0  0  0  0  0  0
   35.3250   28.2870   38.9050 C   0  0  0  0  0  2  0  0  0  0  0  0
   36.7750   28.2810   38.5640 C   0  0  0  0  0  2  0  0  0  0  0  0
   37.2120   29.6430   38.0930 C   0  0  0  0  0  2  0  0  0  0  0  0
  1  2  1  0  0  0  0
  2  3  2  0  0  0  0
  2 14  1  0  0  0  0
  3 15  1  0  0  0  0
  4  3  1  0  0  0  0
  5  4  2  0  0  0  0
  6  5  1  0  0  0  0
  6  1  2  0  0  0  0
  7  8  1  0  0  0  0
  7  5  1  0  0  0  0
  8 17  1  0  0  0  0
  9 18  1  0  0  0  0
  9 19  1  0  0  0  0
  9  8  1  0  0  0  0
 10  9  1  0  0  0  0
 11 22  1  0  0  0  0
 11 10  1  0  0  0  0
 11 12  1  0  0  0  0
 12 23  1  6  0  0  0
 12 24  1  0  0  0  0
 12  7  1  0  0  0  0
 13  1  1  0  0  0  0
 16  8  1  0  0  0  0
 20 10  1  0  0  0  0
 21 11  1  0  0  0  0
 24 26  1  0  0  0  0
 25 24  1  0  0  0  0
 27 24  1  0  0  0  0
 27 28  1  0  0  0  0
 29 28  1  0  0  0  0
 30 29  1  0  0  0  0
 31 30  1  0  0  0  0
 32 31  1  0  0  0  0
 32 27  1  0  0  0  0
M  END
>  <minimizedAffinity>
-4.99238586

$$$$

 OpenBabel03242517263D

 32 34  0  0  1  0  0  0  0  0999 V2000
   34.2590   29.0240   39.4870 C   0  0  0  0  0  0  0  0  0  0  0  0
   34.5260   29.0920   38.0900 C   0  0  0  0  0  0  0  0  0  0  0  0
   35.8450   29.3990   37.6930 C   0  0  0  0  0  0  0  0  0  0  0  0
   36.7700   29.6090   38.6510 N   0  0  0  0  0  0  0  0  0  0  0  0
   36.5060   29.5420   39.9700 C   0  0  0  0  0  0  0  0  0  0  0  0
   35.2530   29.2500   40.3510 N   0  0  0  0  0  0  0  0  0  0  0  0
   37.5200   29.7730   40.8940 N   0  0  0  0  0  0  0  0  0  0  0  0
   38.2270   31.0210   40.8940 C   0  0  0  0  0  0  0  0  0  0  0  0
   39.5270   30.9770   41.6260 C   0  0  0  0  0  0  0  0  0  0  0  0
   39.5870   30.1130   42.7480 N   0  0  0  0  0  0  0  0  0  0  0  0
   38.3370   29.4860   43.0660 C   0  0  0  0  0  0  0  0  0  0  0  0
   37.8580   28.7260   41.8670 C   0  0  2  0  0  0  0  0  0  0  0  0
   33.2450   28.7880   39.7480 H   0  0  0  0  0  0  0  0  0  0  0  0
   33.8010   28.9280   37.3020 H   0  0  0  0  0  0  0  0  0  0  0  0
   36.0750   29.4560   36.6470 H   0  0  0  0  0  0  0  0  0  0  0  0
   37.5850   31.7660   41.4120 H   0  0  0  0  0  0  0  0  0  0  0  0
   38.3960   31.4350   39.8850 H   0  0  0  0  0  0  0  0  0  0  0  0
   39.7920   32.0310   41.9240 H   0  0  0  0  0  0  0  0  0  0  0  0
   40.3150   30.6930   40.8710 H   0  0  0  0  0  0  0  0  0  0  0  0
   40.1270   30.4280   43.5620 H   0  0  0  0  0  0  0  0  0  0  0  0
   38.5090   28.7710   43.8920 H   0  0  0  0  0  0  0  0  0  0  0  0
   37.5460   30.1990   43.3700 H   0  0  0  0  0  0  0  0  0  0  0  0
   36.9130   28.2090   42.1260 H   0  0  0  0  0  0  0  0  0  0  0  0
   38.8790   27.7740   41.3350 C   0  0  0  0  0  0  0  0  0  0  0  0
   39.6730   27.6740   42.0980 H   0  0  0  0  0  0  0  0  0  0  0  0
   39.2700   28.1950   40.3810 H   0  0  0  0  0  0  0  0  0  0  0  0
   38.2400   26.4380   41.0130 C   0  0  0  0  0  3  0  0  0  0  0  0
   37.3310   26.1240   42.1580 C   0  0  0  0  0  2  0  0  0  0  0  0
   36.7320   24.7490   42.1080 C   0  0  0  0  0  2  0  0  0  0  0  0
   37.5810   23.7590   41.3560 C   0  0  0  0  0  2  0  0  0  0  0  0
   39.0350   24.0800   41.4140 C   0  0  0  0  0  2  0  0  0  0  0  0
   39.3060   25.4150   40.7710 C   0  0  0  0  0  2  0  0  0  0  0  0
  1 13  1  0  0  0  0
  1  6  1  0  0  0  0
  2  1  2  0  0  0  0
  3  2  1  0  0  0  0
  3  4  2  0  0  0  0
  4  5  1  0  0  0  0
  5  6  2  0  0  0  0
  5  7  1  0  0  0  0
  7 12  1  0  0  0  0
  8  7  1  0  0  0  0
  8 16  1  0  0  0  0
  8  9  1  0  0  0  0
  9 18  1  0  0  0  0
  9 10  1  0  0  0  0
 10 11  1  0  0  0  0
 10 20  1  0  0  0  0
 11 22  1  0  0  0  0
 11 21  1  0  0  0  0
 12 23  1  1  0  0  0
 12 11  1  0  0  0  0
 14  2  1  0  0  0  0
 15  3  1  0  0  0  0
 17  8  1  0  0  0  0
 19  9  1  0  0  0  0
 24 12  1  0  0  0  0
 24 25  1  0  0  0  0
 26 24  1  0  0  0  0
 27 24  1  0  0  0  0
 27 28  1  0  0  0  0
 29 28  1  0  0  0  0
 30 31  1  0  0  0  0
 30 29  1  0  0  0  0
 32 27  1  0  0  0  0
 32 31  1  0  0  0  0
M  END
>  <minimizedAffinity>
-4.89903116

$$$$

 OpenBabel03242517263D

 32 34  0  0  1  0  0  0  0  0999 V2000
   40.3000   26.7150   38.6070 C   0  0  0  0  0  0  0  0  0  0  0  0
   39.6100   25.5830   38.0850 C   0  0  0  0  0  0  0  0  0  0  0  0
   38.4430   25.1650   38.7570 C   0  0  0  0  0  0  0  0  0  0  0  0
   38.0480   25.8540   39.8460 N   0  0  0  0  0  0  0  0  0  0  0  0
   38.7080   26.9230   40.3310 C   0  0  0  0  0  0  0  0  0  0  0  0
   39.8190   27.3240   39.6950 N   0  0  0  0  0  0  0  0  0  0  0  0
   38.2330   27.5770   41.4630 N   0  0  0  0  0  0  0  0  0  0  0  0
   38.0720   26.8640   42.6970 C   0  0  0  0  0  0  0  0  0  0  0  0
   37.1840   27.5510   43.6800 C   0  0  0  0  0  0  0  0  0  0  0  0
   37.2070   28.9690   43.6630 N   0  0  0  0  0  0  0  0  0  0  0  0
   38.1720   29.5230   42.7590 C   0  0  0  0  0  0  0  0  0  0  0  0
   37.8980   29.0040   41.3800 C   0  0  2  0  0  0  0  0  0  0  0  0
   41.1820   27.0020   38.0680 H   0  0  0  0  0  0  0  0  0  0  0  0
   39.9060   25.0140   37.2120 H   0  0  0  0  0  0  0  0  0  0  0  0
   37.9020   24.3160   38.3850 H   0  0  0  0  0  0  0  0  0  0  0  0
   39.0770   26.7820   43.1660 H   0  0  0  0  0  0  0  0  0  0  0  0
   37.7280   25.8240   42.5670 H   0  0  0  0  0  0  0  0  0  0  0  0
   37.4390   27.1630   44.7070 H   0  0  0  0  0  0  0  0  0  0  0  0
   36.1380   27.1740   43.4900 H   0  0  0  0  0  0  0  0  0  0  0  0
   37.1350   29.4550   44.5630 H   0  0  0  0  0  0  0  0  0  0  0  0
   38.0500   30.6220   42.7550 H   0  0  0  0  0  0  0  0  0  0  0  0
   39.2200   29.2820   43.0240 H   0  0  0  0  0  0  0  0  0  0  0  0
   38.6190   29.4650   40.6760 H   0  0  0  0  0  0  0  0  0  0  0  0
   36.4850   29.2250   40.9460 C   0  0  0  0  0  0  0  0  0  0  0  0
   35.8880   29.4480   41.8500 H   0  0  0  0  0  0  0  0  0  0  0  0
   36.1390   28.2980   40.4370 H   0  0  0  0  0  0  0  0  0  0  0  0
   36.4120   30.3520   39.9360 C   0  0  0  0  0  3  0  0  0  0  0  0
   37.4760   30.0740   38.9210 C   0  0  0  0  0  2  0  0  0  0  0  0
   37.6780   31.1760   37.9250 C   0  0  0  0  0  2  0  0  0  0  0  0
   37.2950   32.5320   38.4530 C   0  0  0  0  0  2  0  0  0  0  0  0
   37.4570   32.6460   39.9300 C   0  0  0  0  0  2  0  0  0  0  0  0
   36.5550   31.6680   40.6360 C   0  0  0  0  0  2  0  0  0  0  0  0
  1  6  1  0  0  0  0
  2  1  2  0  0  0  0
  2  3  1  0  0  0  0
  3  4  2  0  0  0  0
  4  5  1  0  0  0  0
  5  7  1  0  0  0  0
  6  5  2  0  0  0  0
  7  8  1  0  0  0  0
  8 16  1  0  0  0  0
  8  9  1  0  0  0  0
  9 18  1  0  0  0  0
 10  9  1  0  0  0  0
 10 20  1  0  0  0  0
 11 22  1  0  0  0  0
 11 10  1  0  0  0  0
 12 23  1  6  0  0  0
 12  7  1  0  0  0  0
 12 11  1  0  0  0  0
 13  1  1  0  0  0  0
 14  2  1  0  0  0  0
 15  3  1  0  0  0  0
 17  8  1  0  0  0  0
 19  9  1  0  0  0  0
 21 11  1  0  0  0  0
 24 12  1  0  0  0  0
 24 25  1  0  0  0  0
 26 24  1  0  0  0  0
 27 32  1  0  0  0  0
 27 24  1  0  0  0  0
 28 27  1  0  0  0  0
 29 30  1  0  0  0  0
 29 28  1  0  0  0  0
 30 31  1  0  0  0  0
 31 32  1  0  0  0  0
M  END
>  <minimizedAffinity>
-4.8791275

$$$$

 OpenBabel03242517263D

 32 34  0  0  1  0  0  0  0  0999 V2000
   38.6720   25.4740   38.4810 C   0  0  0  0  0  0  0  0  0  0  0  0
   37.7110   24.4380   38.3020 C   0  0  0  0  0  0  0  0  0  0  0  0
   36.6290   24.3890   39.2050 C   0  0  0  0  0  0  0  0  0  0  0  0
   36.5640   25.3190   40.1800 N   0  0  0  0  0  0  0  0  0  0  0  0
   37.4790   26.2950   40.3400 C   0  0  0  0  0  0  0  0  0  0  0  0
   38.5100   26.3440   39.4820 N   0  0  0  0  0  0  0  0  0  0  0  0
   37.3380   27.2150   41.3740 N   0  0  0  0  0  0  0  0  0  0  0  0
   37.2800   26.7690   42.7360 C   0  0  0  0  0  0  0  0  0  0  0  0
   36.7180   27.7810   43.6780 C   0  0  0  0  0  0  0  0  0  0  0  0
   36.9860   29.1390   43.3740 N   0  0  0  0  0  0  0  0  0  0  0  0
   37.8550   29.3220   42.2480 C   0  0  0  0  0  0  0  0  0  0  0  0
   37.2500   28.6450   41.0550 C   0  0  2  0  0  0  0  0  0  0  0  0
   39.4790   25.4770   37.7740 H   0  0  0  0  0  0  0  0  0  0  0  0
   37.7400   23.6810   37.5280 H   0  0  0  0  0  0  0  0  0  0  0  0
   35.8900   23.6200   39.0940 H   0  0  0  0  0  0  0  0  0  0  0  0
   38.3230   26.5620   43.0620 H   0  0  0  0  0  0  0  0  0  0  0  0
   36.7400   25.8150   42.8680 H   0  0  0  0  0  0  0  0  0  0  0  0
   37.0820   27.5280   44.7150 H   0  0  0  0  0  0  0  0  0  0  0  0
   35.6050   27.6020   43.7210 H   0  0  0  0  0  0  0  0  0  0  0  0
   37.1650   29.7750   44.1590 H   0  0  0  0  0  0  0  0  0  0  0  0
   37.9290   30.4050   42.0400 H   0  0  0  0  0  0  0  0  0  0  0  0
   38.8740   28.9170   42.4010 H   0  0  0  0  0  0  0  0  0  0  0  0
   37.9010   28.8220   40.1760 H   0  0  0  0  0  0  0  0  0  0  0  0
   35.8430   29.0760   40.7940 C   0  0  0  0  0  0  0  0  0  0  0  0
   35.6060   29.8930   41.5000 H   0  0  0  0  0  0  0  0  0  0  0  0
   35.1850   28.1920   40.9450 H   0  0  0  0  0  0  0  0  0  0  0  0
   35.6840   29.5190   39.3530 C   0  0  0  0  0  3  0  0  0  0  0  0
   34.8510   28.4730   38.6840 C   0  0  0  0  0  2  0  0  0  0  0  0
   34.7250   28.6440   37.2000 C   0  0  0  0  0  2  0  0  0  0  0  0
   35.8910   29.3710   36.5850 C   0  0  0  0  0  2  0  0  0  0  0  0
   37.1600   29.1740   37.3400 C   0  0  0  0  0  2  0  0  0  0  0  0
   37.0330   29.7220   38.7360 C   0  0  0  0  0  2  0  0  0  0  0  0
  1  6  1  0  0  0  0
  2  1  2  0  0  0  0
  2  3  1  0  0  0  0
  3  4  2  0  0  0  0
  4  5  1  0  0  0  0
  5  7  1  0  0  0  0
  6  5  2  0  0  0  0
  7  8  1  0  0  0  0
  8 17  1  0  0  0  0
  8 16  1  0  0  0  0
  8  9  1  0  0  0  0
  9 19  1  0  0  0  0
  9 18  1  0  0  0  0
 10  9  1  0  0  0  0
 10 20  1  0  0  0  0
 11 22  1  0  0  0  0
 11 10  1  0  0  0  0
 12 23  1  6  0  0  0
 12  7  1  0  0  0  0
 12 11  1  0  0  0  0
 13  1  1  0  0  0  0
 14  2  1  0  0  0  0
 15  3  1  0  0  0  0
 21 11  1  0  0  0  0
 24 26  1  0  0  0  0
 24 12  1  0  0  0  0
 24 25  1  0  0  0  0
 27 24  1  0  0  0  0
 28 27  1  0  0  0  0
 29 28  1  0  0  0  0
 30 29  1  0  0  0  0
 30 31  1  0  0  0  0
 31 32  1  0  0  0  0
 32 27  1  0  0  0  0
M  END
>  <minimizedAffinity>
-4.82043362

$$$$

 OpenBabel03242517263D

 32 34  0  0  1  0  0  0  0  0999 V2000
   35.2580   27.9410   36.6670 C   0  0  0  0  0  0  0  0  0  0  0  0
   36.1970   27.7470   35.6140 C   0  0  0  0  0  0  0  0  0  0  0  0
   37.3770   28.5190   35.6430 C   0  0  0  0  0  0  0  0  0  0  0  0
   37.5490   29.3900   36.6570 N   0  0  0  0  0  0  0  0  0  0  0  0
   36.6550   29.5660   37.6480 C   0  0  0  0  0  0  0  0  0  0  0  0
   35.5310   28.8330   37.6240 N   0  0  0  0  0  0  0  0  0  0  0  0
   36.9100   30.4870   38.6580 N   0  0  0  0  0  0  0  0  0  0  0  0
   37.1290   31.8690   38.3380 C   0  0  0  0  0  0  0  0  0  0  0  0
   37.7900   32.6420   39.4290 C   0  0  0  0  0  0  0  0  0  0  0  0
   37.4810   32.2490   40.7550 N   0  0  0  0  0  0  0  0  0  0  0  0
   36.4860   31.2200   40.8380 C   0  0  0  0  0  0  0  0  0  0  0  0
   36.9520   30.0320   40.0530 C   0  0  2  0  0  0  0  0  0  0  0  0
   34.3740   27.3360   36.6100 H   0  0  0  0  0  0  0  0  0  0  0  0
   36.0820   27.0540   34.7890 H   0  0  0  0  0  0  0  0  0  0  0  0
   38.1020   28.3930   34.8620 H   0  0  0  0  0  0  0  0  0  0  0  0
   36.1320   32.3310   38.1670 H   0  0  0  0  0  0  0  0  0  0  0  0
   37.6850   32.0230   37.3980 H   0  0  0  0  0  0  0  0  0  0  0  0
   37.5520   33.7330   39.2740 H   0  0  0  0  0  0  0  0  0  0  0  0
   38.9020   32.5720   39.2490 H   0  0  0  0  0  0  0  0  0  0  0  0
   37.3920   32.9880   41.4610 H   0  0  0  0  0  0  0  0  0  0  0  0
   36.3830   30.9240   41.8990 H   0  0  0  0  0  0  0  0  0  0  0  0
   35.4940   31.5270   40.4550 H   0  0  0  0  0  0  0  0  0  0  0  0
   36.2020   29.2220   40.1510 H   0  0  0  0  0  0  0  0  0  0  0  0
   38.3170   29.5700   40.4510 C   0  0  0  0  0  0  0  0  0  0  0  0
   38.7790   30.3730   41.0540 H   0  0  0  0  0  0  0  0  0  0  0  0
   38.8900   29.3670   39.5190 H   0  0  0  0  0  0  0  0  0  0  0  0
   38.2310   28.2690   41.2230 C   0  0  0  0  0  3  0  0  0  0  0  0
   37.3970   27.3450   40.3930 C   0  0  0  0  0  2  0  0  0  0  0  0
   37.0510   26.0530   41.0720 C   0  0  0  0  0  2  0  0  0  0  0  0
   37.0230   26.1600   42.5740 C   0  0  0  0  0  2  0  0  0  0  0  0
   36.6620   27.5250   43.0510 C   0  0  0  0  0  2  0  0  0  0  0  0
   37.6860   28.5300   42.5930 C   0  0  0  0  0  2  0  0  0  0  0  0
  1  6  1  0  0  0  0
  2  3  1  0  0  0  0
  2  1  2  0  0  0  0
  3  4  2  0  0  0  0
  4  5  1  0  0  0  0
  5  7  1  0  0  0  0
  6  5  2  0  0  0  0
  7 12  1  0  0  0  0
  8  7  1  0  0  0  0
  8  9  1  0  0  0  0
  9 10  1  0  0  0  0
 10 11  1  0  0  0  0
 10 20  1  0  0  0  0
 11 21  1  0  0  0  0
 12 23  1  1  0  0  0
 12 24  1  0  0  0  0
 12 11  1  0  0  0  0
 13  1  1  0  0  0  0
 14  2  1  0  0  0  0
 15  3  1  0  0  0  0
 16  8  1  0  0  0  0
 17  8  1  0  0  0  0
 18  9  1  0  0  0  0
 19  9  1  0  0  0  0
 22 11  1  0  0  0  0
 24 25  1  0  0  0  0
 24 27  1  0  0  0  0
 26 24  1  0  0  0  0
 27 32  1  0  0  0  0
 28 29  1  0  0  0  0
 28 27  1  0  0  0  0
 29 30  1  0  0  0  0
 30 31  1  0  0  0  0
 32 31  1  0  0  0  0
M  END
>  <minimizedAffinity>
-4.81536102

$$$$

 OpenBabel03242517263D

 32 34  0  0  1  0  0  0  0  0999 V2000
   40.6830   27.7100   39.0060 C   0  0  0  0  0  0  0  0  0  0  0  0
   41.6920   27.5950   40.0040 C   0  0  0  0  0  0  0  0  0  0  0  0
   41.7070   28.5640   41.0290 C   0  0  0  0  0  0  0  0  0  0  0  0
   40.7730   29.5350   41.0080 N   0  0  0  0  0  0  0  0  0  0  0  0
   39.8230   29.6340   40.0590 C   0  0  0  0  0  0  0  0  0  0  0  0
   39.8050   28.7150   39.0810 N   0  0  0  0  0  0  0  0  0  0  0  0
   38.8950   30.6700   40.1100 N   0  0  0  0  0  0  0  0  0  0  0  0
   39.3350   32.0360   40.0960 C   0  0  0  0  0  0  0  0  0  0  0  0
   38.3040   33.0050   40.5700 C   0  0  0  0  0  0  0  0  0  0  0  0
   36.9550   32.6790   40.2840 N   0  0  0  0  0  0  0  0  0  0  0  0
   36.8010   31.5000   39.4810 C   0  0  0  0  0  0  0  0  0  0  0  0
   37.4640   30.3510   40.1770 C   0  0  2  0  0  0  0  0  0  0  0  0
   40.7050   26.9550   38.2440 H   0  0  0  0  0  0  0  0  0  0  0  0
   42.4520   26.8250   40.0440 H   0  0  0  0  0  0  0  0  0  0  0  0
   42.4560   28.5020   41.7950 H   0  0  0  0  0  0  0  0  0  0  0  0
   39.5700   32.2980   39.0420 H   0  0  0  0  0  0  0  0  0  0  0  0
   40.2720   32.2050   40.6540 H   0  0  0  0  0  0  0  0  0  0  0  0
   38.5640   34.0190   40.1510 H   0  0  0  0  0  0  0  0  0  0  0  0
   38.4520   33.1170   41.6830 H   0  0  0  0  0  0  0  0  0  0  0  0
   36.3220   33.4480   40.0400 H   0  0  0  0  0  0  0  0  0  0  0  0
   35.7210   31.2830   39.3900 H   0  0  0  0  0  0  0  0  0  0  0  0
   37.2340   31.5930   38.4660 H   0  0  0  0  0  0  0  0  0  0  0  0
   37.3090   29.4320   39.5770 H   0  0  0  0  0  0  0  0  0  0  0  0
   36.9940   30.1740   41.5850 C   0  0  0  0  0  0  0  0  0  0  0  0
   36.0940   30.8020   41.7190 H   0  0  0  0  0  0  0  0  0  0  0  0
   37.8230   30.4850   42.2590 H   0  0  0  0  0  0  0  0  0  0  0  0
   36.7050   28.7130   41.8660 C   0  0  0  0  0  3  0  0  0  0  0  0
   37.8340   28.2190   42.7130 C   0  0  0  0  0  2  0  0  0  0  0  0
   37.8170   26.7390   42.9560 C   0  0  0  0  0  2  0  0  0  0  0  0
   37.1270   25.9650   41.8640 C   0  0  0  0  0  2  0  0  0  0  0  0
   37.2150   26.6340   40.5360 C   0  0  0  0  0  2  0  0  0  0  0  0
   36.5310   27.9750   40.5750 C   0  0  0  0  0  2  0  0  0  0  0  0
  1  6  2  0  0  0  0
  1  2  1  0  0  0  0
  2 14  1  0  0  0  0
  2  3  2  0  0  0  0
  3 15  1  0  0  0  0
  4  3  1  0  0  0  0
  5  7  1  0  0  0  0
  5  4  2  0  0  0  0
  6  5  1  0  0  0  0
  7 12  1  0  0  0  0
  8  7  1  0  0  0  0
  8  9  1  0  0  0  0
  8 17  1  0  0  0  0
  9 19  1  0  0  0  0
 10  9  1  0  0  0  0
 11 12  1  0  0  0  0
 11 10  1  0  0  0  0
 12 23  1  6  0  0  0
 12 24  1  0  0  0  0
 13  1  1  0  0  0  0
 16  8  1  0  0  0  0
 18  9  1  0  0  0  0
 20 10  1  0  0  0  0
 21 11  1  0  0  0  0
 22 11  1  0  0  0  0
 24 25  1  0  0  0  0
 24 27  1  0  0  0  0
 24 26  1  0  0  0  0
 27 28  1  0  0  0  0
 28 29  1  0  0  0  0
 30 29  1  0  0  0  0
 31 32  1  0  0  0  0
 31 30  1  0  0  0  0
 32 27  1  0  0  0  0
M  END
>  <minimizedAffinity>
-4.76158142

$$$$
