
 OpenBabel03252507163D

 26 28  0  0  0  0  0  0  0  0999 V2000
   45.2290   36.1630   43.3950 C   0  0  0  0  0  0  0  0  0  0  0  0
   45.8760   34.9490   43.0570 C   0  0  0  0  0  0  0  0  0  0  0  0
   45.8530   33.9470   44.0250 C   0  0  0  0  0  0  0  0  0  0  0  0
   45.2390   34.1550   45.2050 N   0  0  0  0  0  0  0  0  0  0  0  0
   44.6220   35.3460   45.4940 C   0  0  0  0  0  0  0  0  0  0  0  0
   44.6350   36.3120   44.5840 N   0  0  0  0  0  0  0  0  0  0  0  0
   45.2210   36.9840   42.6640 H   0  0  0  0  0  0  0  0  0  0  0  0
   44.1760   35.3560   46.4790 H   0  0  0  0  0  0  0  0  0  0  0  0
   46.5130   32.6840   43.7050 C   0  0  0  0  0  0  0  0  0  0  0  0
   45.7620   31.5520   43.4900 C   0  0  0  0  0  0  0  0  0  0  0  0
   46.4110   30.3750   43.1910 C   0  0  0  0  0  0  0  0  0  0  0  0
   47.7910   30.2690   43.0920 C   0  0  0  0  0  0  0  0  0  0  0  0
   48.4870   31.4520   43.3220 C   0  0  0  0  0  0  0  0  0  0  0  0
   47.8370   32.5880   43.6130 N   0  0  0  0  0  0  0  0  0  0  0  0
   44.6630   31.5530   43.5490 H   0  0  0  0  0  0  0  0  0  0  0  0
   45.8440   29.4510   43.0130 H   0  0  0  0  0  0  0  0  0  0  0  0
   48.3130   29.3550   42.8590 H   0  0  0  0  0  0  0  0  0  0  0  0
   49.5710   31.4710   43.2680 H   0  0  0  0  0  0  0  0  0  0  0  0
   46.5080   34.7870   41.7970 C   0  0  0  0  0  0  0  0  0  0  0  0
   47.7220   35.1500   41.7190 O   0  0  0  0  0  0  0  0  0  0  0  0
   46.0320   34.2580   40.4840 C   0  0  0  0  0  3  0  0  0  0  0  0
   44.6880   33.6490   40.7310 C   0  0  0  0  0  2  0  0  0  0  0  0
   44.2280   32.6960   39.6670 C   0  0  0  0  0  2  0  0  0  0  0  0
   45.2760   31.7150   39.2480 C   0  0  0  0  0  2  0  0  0  0  0  0
   46.5990   31.9000   39.9200 C   0  0  0  0  0  2  0  0  0  0  0  0
   47.0460   33.3360   39.8940 C   0  0  0  0  0  2  0  0  0  0  0  0
  1  6  1  0  0  0  0
  2  1  2  0  0  0  0
  2  3  1  0  0  0  0
  3  4  2  0  0  0  0
  4  5  1  0  0  0  0
  5  8  1  0  0  0  0
  6  5  2  0  0  0  0
  7  1  1  0  0  0  0
  9  3  1  0  0  0  0
 10 15  1  0  0  0  0
 10  9  2  0  0  0  0
 11 10  1  0  0  0  0
 12 11  2  0  0  0  0
 12 13  1  0  0  0  0
 13 14  2  0  0  0  0
 14  9  1  0  0  0  0
 16 11  1  0  0  0  0
 17 12  1  0  0  0  0
 18 13  1  0  0  0  0
 19  2  1  0  0  0  0
 20 19  2  0  0  0  0
 21 22  1  0  0  0  0
 21 19  1  0  0  0  0
 23 22  1  0  0  0  0
 24 23  1  0  0  0  0
 24 25  1  0  0  0  0
 26 25  1  0  0  0  0
 26 21  1  0  0  0  0
M  END
>  <minimizedAffinity>
-4.25867748

>  <minimizedRMSD>
0.639590979

$$$$
