
 OpenBabel03252509263D

 27 29  0  0  1  0  0  0  0  0999 V2000
   46.5200   35.0040   41.9290 C   0  0  1  0  0  0  0  0  0  0  0  0
   48.0510   35.2840   41.9260 C   0  0  0  0  0  0  0  0  0  0  0  0
   47.3370   34.0080   41.3740 C   0  0  2  0  0  0  0  0  0  0  0  0
   45.9470   35.7340   41.3170 H   0  0  0  0  0  0  0  0  0  0  0  0
   48.4040   35.9530   41.1160 H   0  0  0  0  0  0  0  0  0  0  0  0
   48.6090   35.2030   42.8530 H   0  0  0  0  0  0  0  0  0  0  0  0
   47.5670   33.1090   42.0270 H   0  0  0  0  0  0  0  0  0  0  0  0
   44.6350   35.4710   45.1400 C   0  0  0  0  0  0  0  0  0  0  0  0
   45.0920   35.7350   43.8170 C   0  0  0  0  0  0  0  0  0  0  0  0
   46.0120   34.8590   43.3430 C   0  0  0  0  0  0  0  0  0  0  0  0
   46.4700   33.7960   44.0920 N   0  0  0  0  0  0  0  0  0  0  0  0
   46.0110   33.5790   45.3500 C   0  0  0  0  0  0  0  0  0  0  0  0
   45.0850   34.4280   45.8720 N   0  0  0  0  0  0  0  0  0  0  0  0
   43.8920   36.1800   45.5200 H   0  0  0  0  0  0  0  0  0  0  0  0
   46.3370   32.7680   45.9670 H   0  0  0  0  0  0  0  0  0  0  0  0
   44.6420   36.8370   43.0510 N   0  0  0  0  0  0  0  0  0  0  0  0
   43.9860   36.8170   42.2230 H   0  0  0  0  0  0  0  0  0  0  0  0
   44.9320   37.8430   43.2410 H   0  0  0  0  0  0  0  0  0  0  0  0
   47.3970   33.7580   39.8810 C   0  0  0  0  0  0  0  0  0  0  0  0
   46.3820   33.8720   39.4420 H   0  0  0  0  0  0  0  0  0  0  0  0
   48.0670   34.5270   39.4150 H   0  0  0  0  0  0  0  0  0  0  0  0
   47.9220   32.3560   39.6370 C   0  0  0  0  0  3  0  0  0  0  0  0
   49.2330   32.3670   38.9360 C   0  0  0  0  0  2  0  0  0  0  0  0
   50.2060   31.3050   39.2680 C   0  0  0  0  0  2  0  0  0  0  0  0
   49.4970   30.1290   39.9070 C   0  0  0  0  0  2  0  0  0  0  0  0
   48.9830   30.6940   41.2190 C   0  0  0  0  0  2  0  0  0  0  0  0
   47.8150   31.5750   40.8820 C   0  0  0  0  0  2  0  0  0  0  0  0
  1  4  1  6  0  0  0
  1 10  1  0  0  0  0
  2  1  1  0  0  0  0
  2  6  1  0  0  0  0
  3  2  1  0  0  0  0
  3  1  1  0  0  0  0
  3  7  1  1  0  0  0
  5  2  1  0  0  0  0
  8 14  1  0  0  0  0
  8 13  1  0  0  0  0
  9  8  2  0  0  0  0
 10  9  1  0  0  0  0
 10 11  2  0  0  0  0
 11 12  1  0  0  0  0
 12 13  2  0  0  0  0
 12 15  1  0  0  0  0
 16 18  1  0  0  0  0
 16  9  1  0  0  0  0
 17 16  1  0  0  0  0
 19  3  1  0  0  0  0
 20 19  1  0  0  0  0
 21 19  1  0  0  0  0
 22 19  1  0  0  0  0
 22 27  1  0  0  0  0
 23 24  1  0  0  0  0
 23 22  1  0  0  0  0
 24 25  1  0  0  0  0
 25 26  1  0  0  0  0
 27 26  1  0  0  0  0
M  END
>  <minimizedAffinity>
-4.52946568

>  <minimizedRMSD>
0.598195255

$$$$
