
 OpenBabel03252507043D

 44 47  0  0  0  0  0  0  0  0999 V2000
   41.9030   31.6370   42.0700 C   0  0  0  0  0  0  0  0  0  0  0  0
   41.7690   32.5100   41.3440 H   0  0  0  0  0  0  0  0  0  0  0  0
   41.4940   32.0420   43.0210 H   0  0  0  0  0  0  0  0  0  0  0  0
   41.3060   30.5110   41.6780 N   0  0  0  0  0  0  0  0  0  0  0  0
   41.1370   29.3010   42.4080 C   0  0  0  0  0  0  0  0  0  0  0  0
   39.6480   29.4250   42.7270 C   0  0  0  0  0  0  0  0  0  0  0  0
   38.7950   29.4990   41.5540 C   0  0  0  0  0  0  0  0  0  0  0  0
   39.3500   29.9670   40.3040 C   0  0  0  0  0  0  0  0  0  0  0  0
   40.7380   30.5620   40.3060 C   0  0  0  0  0  0  0  0  0  0  0  0
   41.6720   29.4480   43.3900 H   0  0  0  0  0  0  0  0  0  0  0  0
   41.4270   28.3670   41.9580 H   0  0  0  0  0  0  0  0  0  0  0  0
   39.4130   28.5360   43.3610 H   0  0  0  0  0  0  0  0  0  0  0  0
   39.5640   30.3040   43.4220 H   0  0  0  0  0  0  0  0  0  0  0  0
   38.3520   28.4800   41.3490 H   0  0  0  0  0  0  0  0  0  0  0  0
   37.8930   30.1250   41.7870 H   0  0  0  0  0  0  0  0  0  0  0  0
   38.8780   29.9630   39.3620 H   0  0  0  0  0  0  0  0  0  0  0  0
   41.4820   31.2290   38.8970 S   0  0  0  0  0  0  0  0  0  0  0  0
   41.2230   32.9280   38.4960 C   0  0  0  0  0  3  0  0  0  0  0  0
   42.4390   33.8000   38.4210 C   0  0  0  0  0  2  0  0  0  0  0  0
   41.9790   35.2450   38.3550 C   0  0  0  0  0  2  0  0  0  0  0  0
   40.6340   35.3960   37.6730 C   0  0  0  0  0  2  0  0  0  0  0  0
   39.5400   34.6890   38.4470 C   0  0  0  0  0  2  0  0  0  0  0  0
   40.1960   33.6420   39.3600 C   0  0  0  0  0  2  0  0  0  0  0  0
   43.3780   31.5070   42.2150 C   0  0  0  0  0  0  0  0  0  0  0  0
   43.5970   31.1520   43.2640 H   0  0  0  0  0  0  0  0  0  0  0  0
   43.7950   30.7810   41.4930 H   0  0  0  0  0  0  0  0  0  0  0  0
   43.9790   32.8410   42.0610 C   0  0  0  0  0  0  0  0  0  0  0  0
   43.1900   33.9390   41.8170 C   0  0  0  0  0  0  0  0  0  0  0  0
   43.8000   35.1740   41.6640 C   0  0  0  0  0  0  0  0  0  0  0  0
   45.1650   35.2360   41.7670 N   0  0  0  0  0  0  0  0  0  0  0  0
   45.8960   34.1520   42.0060 C   0  0  0  0  0  0  0  0  0  0  0  0
   45.2830   32.9760   42.1470 N   0  0  0  0  0  0  0  0  0  0  0  0
   42.1280   34.0980   41.7210 H   0  0  0  0  0  0  0  0  0  0  0  0
   43.3450   36.1420   41.4660 H   0  0  0  0  0  0  0  0  0  0  0  0
   47.3430   34.3220   42.1300 C   0  0  0  0  0  0  0  0  0  0  0  0
   48.1290   33.2950   42.6420 C   0  0  0  0  0  0  0  0  0  0  0  0
   49.4910   33.4640   42.7670 C   0  0  0  0  0  0  0  0  0  0  0  0
   49.9520   34.6870   42.3540 C   0  0  0  0  0  0  0  0  0  0  0  0
   49.2130   35.7510   41.8340 C   0  0  0  0  0  0  0  0  0  0  0  0
   47.8810   35.4950   41.7460 N   0  0  0  0  0  0  0  0  0  0  0  0
   47.6980   32.3440   42.9540 H   0  0  0  0  0  0  0  0  0  0  0  0
   50.1820   32.7290   43.1520 H   0  0  0  0  0  0  0  0  0  0  0  0
   51.0310   34.8700   42.4350 H   0  0  0  0  0  0  0  0  0  0  0  0
   49.6690   36.6630   41.5410 H   0  0  0  0  0  0  0  0  0  0  0  0
  1 24  1  0  0  0  0
  1  3  1  0  0  0  0
  2  1  1  0  0  0  0
  4  1  1  0  0  0  0
  4  5  1  0  0  0  0
  5  6  1  0  0  0  0
  5 10  1  0  0  0  0
  6 12  1  0  0  0  0
  6 13  1  0  0  0  0
  7 15  1  0  0  0  0
  7  6  1  0  0  0  0
  8  9  2  0  0  0  0
  8  7  1  0  0  0  0
  9  4  1  0  0  0  0
 11  5  1  0  0  0  0
 14  7  1  0  0  0  0
 16  8  1  0  0  0  0
 17  9  1  0  0  0  0
 18 17  1  0  0  0  0
 18 23  1  0  0  0  0
 19 18  1  0  0  0  0
 20 19  1  0  0  0  0
 21 20  1  0  0  0  0
 21 22  1  0  0  0  0
 22 23  1  0  0  0  0
 24 25  1  0  0  0  0
 26 24  1  0  0  0  0
 27 32  1  0  0  0  0
 27 24  1  0  0  0  0
 28 27  2  0  0  0  0
 29 30  2  0  0  0  0
 29 28  1  0  0  0  0
 30 31  1  0  0  0  0
 31 35  1  0  0  0  0
 31 32  2  0  0  0  0
 33 28  1  0  0  0  0
 34 29  1  0  0  0  0
 35 36  1  0  0  0  0
 36 37  2  0  0  0  0
 36 41  1  0  0  0  0
 37 42  1  0  0  0  0
 38 43  1  0  0  0  0
 38 37  1  0  0  0  0
 39 38  2  0  0  0  0
 40 39  1  0  0  0  0
 40 35  2  0  0  0  0
 44 39  1  0  0  0  0
M  END
>  <minimizedAffinity>
-5.35159397

>  <minimizedRMSD>
3.01056528

$$$$
