
 OpenBabel03242519493D

 47 50  0  0  1  0  0  0  0  0999 V2000
   45.4230   27.8560   47.5610 C   0  0  0  0  0  0  0  0  0  0  0  0
   45.9890   27.4080   48.3280 H   0  0  0  0  0  0  0  0  0  0  0  0
   44.3330   27.7520   48.1640 H   0  0  0  0  0  0  0  0  0  0  0  0
   45.0480   27.1270   46.2760 C   0  0  0  0  0  0  0  0  0  0  0  0
   45.4810   26.0960   46.3580 H   0  0  0  0  0  0  0  0  0  0  0  0
   45.4690   27.5860   45.3920 H   0  0  0  0  0  0  0  0  0  0  0  0
   42.9120   28.0560   45.5830 C   0  0  0  0  0  0  0  0  0  0  0  0
   43.5910   26.9920   46.1980 C   0  0  0  0  0  0  0  0  0  0  0  0
   42.7660   25.9920   46.6560 C   0  0  0  0  0  0  0  0  0  0  0  0
   41.4080   25.9810   46.5510 C   0  0  0  0  0  0  0  0  0  0  0  0
   40.7580   27.0420   45.9410 C   0  0  0  0  0  0  0  0  0  0  0  0
   41.5380   28.1060   45.4450 C   0  0  0  0  0  0  0  0  0  0  0  0
   43.3320   25.1830   47.1270 H   0  0  0  0  0  0  0  0  0  0  0  0
   40.9040   25.1140   46.9650 H   0  0  0  0  0  0  0  0  0  0  0  0
   39.6800   26.9940   45.8780 H   0  0  0  0  0  0  0  0  0  0  0  0
   43.4750   29.1880   45.0300 O   0  0  0  0  0  0  0  0  0  0  0  0
   43.9090   29.1260   44.1130 H   0  0  0  0  0  0  0  0  0  0  0  0
   40.8000   29.0700   44.8770 O   0  0  0  0  0  0  0  0  0  0  0  0
   40.1450   29.2770   43.7060 C   0  0  0  0  0  0  0  0  0  0  0  0
   40.7160   30.5860   43.1170 C   0  0  0  0  0  0  0  0  0  0  0  0
   39.9090   30.9310   41.9000 C   0  0  0  0  0  0  0  0  0  0  0  0
   40.0220   29.8310   40.8680 C   0  0  0  0  0  0  0  0  0  0  0  0
   39.7610   28.4710   41.4250 C   0  0  0  0  0  0  0  0  0  0  0  0
   40.5780   28.2190   42.6680 C   0  0  0  0  0  0  0  0  0  0  0  0
   45.4460   29.1890   47.4350 O   0  0  0  0  0  0  0  0  0  0  0  0
   46.1480   31.4360   47.7740 C   0  0  2  0  0  0  0  0  0  0  0  0
   46.9990   31.8320   46.6530 C   0  0  1  0  0  0  0  0  0  0  0  0
   47.1510   30.5690   45.8870 O   0  0  0  0  0  0  0  0  0  0  0  0
   47.6320   29.7920   46.9370 C   0  0  0  0  0  0  0  0  0  0  0  0
   46.3860   29.9770   47.9650 C   0  0  2  0  0  0  0  0  0  0  0  0
   46.2880   32.0260   48.6990 H   0  0  0  0  0  0  0  0  0  0  0  0
   48.0520   32.0150   47.0040 H   0  0  0  0  0  0  0  0  0  0  0  0
   48.5080   30.2350   47.4230 H   0  0  0  0  0  0  0  0  0  0  0  0
   47.6870   28.7290   46.7010 H   0  0  0  0  0  0  0  0  0  0  0  0
   46.9620   29.6220   48.8360 H   0  0  0  0  0  0  0  0  0  0  0  0
   45.0180   34.6860   45.5540 C   0  0  0  0  0  0  0  0  0  0  0  0
   45.4240   34.8880   44.2380 C   0  0  0  0  0  0  0  0  0  0  0  0
   46.3960   34.0230   43.6960 C   0  0  0  0  0  0  0  0  0  0  0  0
   46.8960   33.0340   44.4680 N   0  0  0  0  0  0  0  0  0  0  0  0
   46.4870   32.8540   45.7450 C   0  0  0  0  0  0  0  0  0  0  0  0
   45.5460   33.6760   46.2990 N   0  0  0  0  0  0  0  0  0  0  0  0
   44.9620   35.7120   43.6980 H   0  0  0  0  0  0  0  0  0  0  0  0
   46.6920   34.1940   42.6890 H   0  0  0  0  0  0  0  0  0  0  0  0
   44.0600   35.5120   46.1400 O   0  0  0  0  0  0  0  0  0  0  0  0
   43.1490   35.6790   45.7600 H   0  0  0  0  0  0  0  0  0  0  0  0
   44.7560   31.5870   47.3640 O   0  0  0  0  0  0  0  0  0  0  0  0
   44.2620   30.8460   47.8070 H   0  0  0  0  0  0  0  0  0  0  0  0
  1  3  1  0  0  0  0
  1  2  1  0  0  0  0
  4  5  1  0  0  0  0
  4  1  1  0  0  0  0
  6  4  1  0  0  0  0
  7  8  1  0  0  0  0
  8  4  1  0  0  0  0
  8  9  2  0  0  0  0
  9 13  1  0  0  0  0
 10  9  1  0  0  0  0
 10 14  1  0  0  0  0
 11 10  2  0  0  0  0
 12  7  2  0  0  0  0
 12 11  1  0  0  0  0
 15 11  1  0  0  0  0
 16  7  1  0  0  0  0
 17 16  1  0  0  0  0
 18 12  1  0  0  0  0
 19 18  1  0  0  0  0
 20 19  1  0  0  0  0
 21 20  1  0  0  0  0
 22 23  1  0  0  0  0
 22 21  1  0  0  0  0
 23 24  1  0  0  0  0
 24 19  1  0  0  0  0
 25  1  1  0  0  0  0
 25 30  1  0  0  0  0
 26 30  1  0  0  0  0
 26 31  1  1  0  0  0
 27 32  1  1  0  0  0
 27 26  1  0  0  0  0
 28 27  1  0  0  0  0
 28 29  1  0  0  0  0
 29 33  1  0  0  0  0
 29 30  1  0  0  0  0
 30 35  1  1  0  0  0
 34 29  1  0  0  0  0
 36 44  1  0  0  0  0
 36 41  1  0  0  0  0
 37 36  2  0  0  0  0
 38 37  1  0  0  0  0
 38 39  2  0  0  0  0
 39 40  1  0  0  0  0
 40 41  2  0  0  0  0
 40 27  1  0  0  0  0
 42 37  1  0  0  0  0
 43 38  1  0  0  0  0
 45 44  1  0  0  0  0
 46 26  1  0  0  0  0
 46 47  1  0  0  0  0
M  END
>  <minimizedAffinity>
-6.23884535

>  <minimizedRMSD>
1.2058332

$$$$
