
 OpenBabel03252503363D

 19 20  0  0  0  0  0  0  0  0999 V2000
   37.7260   31.0640   40.9440 C   0  0  0  0  0  0  0  0  0  0  0  0
   37.1570   31.9690   40.2750 O   0  0  0  0  0  0  0  0  0  0  0  0
   39.1440   31.0690   40.8540 N   0  0  0  0  0  0  0  0  0  0  0  0
   39.7720   30.4120   41.3540 H   0  0  0  0  0  0  0  0  0  0  0  0
   40.8680   32.7060   37.9800 C   0  0  0  0  0  0  0  0  0  0  0  0
   40.1820   31.7250   38.7170 C   0  0  0  0  0  0  0  0  0  0  0  0
   39.8380   32.0080   40.0420 C   0  0  0  0  0  0  0  0  0  0  0  0
   40.1770   33.2170   40.5690 N   0  0  0  0  0  0  0  0  0  0  0  0
   40.8390   34.1420   39.8300 C   0  0  0  0  0  0  0  0  0  0  0  0
   41.1720   33.8730   38.5530 N   0  0  0  0  0  0  0  0  0  0  0  0
   41.1400   32.5020   36.9530 H   0  0  0  0  0  0  0  0  0  0  0  0
   39.9170   30.7690   38.2900 H   0  0  0  0  0  0  0  0  0  0  0  0
   41.0960   35.0980   40.2800 H   0  0  0  0  0  0  0  0  0  0  0  0
   37.1160   30.0060   41.8040 C   0  0  0  0  0  3  0  0  0  0  0  0
   38.1790   29.2850   42.6170 C   0  0  0  0  0  2  0  0  0  0  0  0
   37.3830   28.5240   43.6800 C   0  0  0  0  0  2  0  0  0  0  0  0
   36.6690   27.3870   42.9890 C   0  0  0  0  0  2  0  0  0  0  0  0
   36.6260   27.5470   41.4980 C   0  0  0  0  0  2  0  0  0  0  0  0
   36.4000   28.9450   41.0190 C   0  0  0  0  0  2  0  0  0  0  0  0
  1 14  1  0  0  0  0
  2  1  2  0  0  0  0
  3  1  1  0  0  0  0
  3  4  1  0  0  0  0
  5 10  2  0  0  0  0
  5  6  1  0  0  0  0
  6  7  2  0  0  0  0
  7  8  1  0  0  0  0
  7  3  1  0  0  0  0
  9 13  1  0  0  0  0
  9  8  2  0  0  0  0
 10  9  1  0  0  0  0
 11  5  1  0  0  0  0
 12  6  1  0  0  0  0
 14 15  1  0  0  0  0
 15 16  1  0  0  0  0
 17 16  1  0  0  0  0
 18 17  1  0  0  0  0
 19 18  1  0  0  0  0
 19 14  1  0  0  0  0
M  END
>  <minimizedAffinity>
-4.41636801

$$$$

 OpenBabel03252503363D

 19 20  0  0  0  0  0  0  0  0999 V2000
   39.0990   29.8390   42.2500 C   0  0  0  0  0  0  0  0  0  0  0  0
   39.5610   30.6960   43.0520 O   0  0  0  0  0  0  0  0  0  0  0  0
   38.9630   30.2980   40.9130 N   0  0  0  0  0  0  0  0  0  0  0  0
   38.6200   29.7230   40.1210 H   0  0  0  0  0  0  0  0  0  0  0  0
   38.7720   33.9580   40.2200 C   0  0  0  0  0  0  0  0  0  0  0  0
   38.3640   32.6690   40.6040 C   0  0  0  0  0  0  0  0  0  0  0  0
   39.2970   31.6290   40.5420 C   0  0  0  0  0  0  0  0  0  0  0  0
   40.5610   31.9010   40.1150 N   0  0  0  0  0  0  0  0  0  0  0  0
   40.9230   33.1580   39.7520 C   0  0  0  0  0  0  0  0  0  0  0  0
   40.0270   34.1610   39.8100 N   0  0  0  0  0  0  0  0  0  0  0  0
   38.0620   34.7730   40.2620 H   0  0  0  0  0  0  0  0  0  0  0  0
   37.3580   32.4630   40.9420 H   0  0  0  0  0  0  0  0  0  0  0  0
   41.9400   33.3420   39.4140 H   0  0  0  0  0  0  0  0  0  0  0  0
   38.6820   28.4300   42.5170 C   0  0  0  0  0  3  0  0  0  0  0  0
   38.0380   27.8100   41.2890 C   0  0  0  0  0  2  0  0  0  0  0  0
   38.0140   26.3110   41.5960 C   0  0  0  0  0  2  0  0  0  0  0  0
   36.9740   26.0800   42.6660 C   0  0  0  0  0  2  0  0  0  0  0  0
   36.5640   27.3450   43.3620 C   0  0  0  0  0  2  0  0  0  0  0  0
   37.6750   28.3100   43.6240 C   0  0  0  0  0  2  0  0  0  0  0  0
  1 14  1  0  0  0  0
  1  2  2  0  0  0  0
  3  1  1  0  0  0  0
  4  3  1  0  0  0  0
  5 11  1  0  0  0  0
  5  6  1  0  0  0  0
  6 12  1  0  0  0  0
  7  6  2  0  0  0  0
  7  3  1  0  0  0  0
  8  7  1  0  0  0  0
  9 10  1  0  0  0  0
  9  8  2  0  0  0  0
 10  5  2  0  0  0  0
 13  9  1  0  0  0  0
 14 19  1  0  0  0  0
 15 16  1  0  0  0  0
 15 14  1  0  0  0  0
 16 17  1  0  0  0  0
 17 18  1  0  0  0  0
 18 19  1  0  0  0  0
M  END
>  <minimizedAffinity>
-4.4146924

$$$$

 OpenBabel03252503363D

 19 20  0  0  0  0  0  0  0  0999 V2000
   37.3820   27.9430   41.9390 C   0  0  0  0  0  0  0  0  0  0  0  0
   36.1750   28.3020   41.8660 O   0  0  0  0  0  0  0  0  0  0  0  0
   38.2860   28.7630   41.2130 N   0  0  0  0  0  0  0  0  0  0  0  0
   39.3140   28.6280   41.1800 H   0  0  0  0  0  0  0  0  0  0  0  0
   37.0150   30.8830   38.4190 C   0  0  0  0  0  0  0  0  0  0  0  0
   37.4480   29.7380   39.1100 C   0  0  0  0  0  0  0  0  0  0  0  0
   37.8360   29.8730   40.4460 C   0  0  0  0  0  0  0  0  0  0  0  0
   37.7820   31.1020   41.0290 N   0  0  0  0  0  0  0  0  0  0  0  0
   37.3590   32.1890   40.3330 C   0  0  0  0  0  0  0  0  0  0  0  0
   36.9840   32.0620   39.0460 N   0  0  0  0  0  0  0  0  0  0  0  0
   36.7120   30.7940   37.3850 H   0  0  0  0  0  0  0  0  0  0  0  0
   37.4870   28.7660   38.6390 H   0  0  0  0  0  0  0  0  0  0  0  0
   37.3270   33.1570   40.8270 H   0  0  0  0  0  0  0  0  0  0  0  0
   37.9760   26.7880   42.6780 C   0  0  0  0  0  3  0  0  0  0  0  0
   39.4930   26.8090   42.5930 C   0  0  0  0  0  2  0  0  0  0  0  0
   39.9400   25.8190   43.6710 C   0  0  0  0  0  2  0  0  0  0  0  0
   39.6020   24.4300   43.1860 C   0  0  0  0  0  2  0  0  0  0  0  0
   38.6310   24.4340   42.0410 C   0  0  0  0  0  2  0  0  0  0  0  0
   37.5440   25.4550   42.1380 C   0  0  0  0  0  2  0  0  0  0  0  0
  1 14  1  0  0  0  0
  2  1  2  0  0  0  0
  3  1  1  0  0  0  0
  4  3  1  0  0  0  0
  5 10  2  0  0  0  0
  5  6  1  0  0  0  0
  6  7  2  0  0  0  0
  7  8  1  0  0  0  0
  7  3  1  0  0  0  0
  9 13  1  0  0  0  0
  9  8  2  0  0  0  0
 10  9  1  0  0  0  0
 11  5  1  0  0  0  0
 12  6  1  0  0  0  0
 15 14  1  0  0  0  0
 15 16  1  0  0  0  0
 17 16  1  0  0  0  0
 18 19  1  0  0  0  0
 18 17  1  0  0  0  0
 19 14  1  0  0  0  0
M  END
>  <minimizedAffinity>
-4.40381861

$$$$

 OpenBabel03252503363D

 19 20  0  0  0  0  0  0  0  0999 V2000
   37.2080   28.7140   41.6540 C   0  0  0  0  0  0  0  0  0  0  0  0
   37.3270   29.4100   42.6990 O   0  0  0  0  0  0  0  0  0  0  0  0
   37.5750   29.3830   40.4560 N   0  0  0  0  0  0  0  0  0  0  0  0
   37.5590   28.9560   39.5100 H   0  0  0  0  0  0  0  0  0  0  0  0
   37.6460   33.0990   40.1480 C   0  0  0  0  0  0  0  0  0  0  0  0
   37.1450   31.7860   40.1210 C   0  0  0  0  0  0  0  0  0  0  0  0
   38.0050   30.7380   40.4590 C   0  0  0  0  0  0  0  0  0  0  0  0
   39.2920   31.0240   40.8000 N   0  0  0  0  0  0  0  0  0  0  0  0
   39.7450   32.3030   40.8160 C   0  0  0  0  0  0  0  0  0  0  0  0
   38.9180   33.3150   40.4910 N   0  0  0  0  0  0  0  0  0  0  0  0
   36.9920   33.9210   39.8890 H   0  0  0  0  0  0  0  0  0  0  0  0
   36.1210   31.5700   39.8490 H   0  0  0  0  0  0  0  0  0  0  0  0
   40.7780   32.4980   41.0930 H   0  0  0  0  0  0  0  0  0  0  0  0
   36.7400   27.3020   41.5140 C   0  0  0  0  0  3  0  0  0  0  0  0
   37.7150   26.3380   42.1690 C   0  0  0  0  0  2  0  0  0  0  0  0
   36.9340   25.0250   42.2630 C   0  0  0  0  0  2  0  0  0  0  0  0
   36.8060   24.4670   40.8660 C   0  0  0  0  0  2  0  0  0  0  0  0
   37.1140   25.4810   39.8040 C   0  0  0  0  0  2  0  0  0  0  0  0
   36.6120   26.8610   40.0840 C   0  0  0  0  0  2  0  0  0  0  0  0
  1  2  2  0  0  0  0
  3  7  1  0  0  0  0
  3  1  1  0  0  0  0
  4  3  1  0  0  0  0
  5 10  1  0  0  0  0
  6  5  2  0  0  0  0
  6  7  1  0  0  0  0
  7  8  2  0  0  0  0
  8  9  1  0  0  0  0
  9 13  1  0  0  0  0
 10  9  2  0  0  0  0
 11  5  1  0  0  0  0
 12  6  1  0  0  0  0
 14  1  1  0  0  0  0
 14 15  1  0  0  0  0
 15 16  1  0  0  0  0
 17 16  1  0  0  0  0
 18 19  1  0  0  0  0
 18 17  1  0  0  0  0
 19 14  1  0  0  0  0
M  END
>  <minimizedAffinity>
-4.36262369

$$$$

 OpenBabel03252503363D

 19 20  0  0  0  0  0  0  0  0999 V2000
   38.1790   28.3630   42.6760 C   0  0  0  0  0  0  0  0  0  0  0  0
   37.9060   29.2410   43.5380 O   0  0  0  0  0  0  0  0  0  0  0  0
   38.4600   28.8760   41.3820 N   0  0  0  0  0  0  0  0  0  0  0  0
   38.7240   28.3010   40.5600 H   0  0  0  0  0  0  0  0  0  0  0  0
   37.2550   32.2520   40.3480 C   0  0  0  0  0  0  0  0  0  0  0  0
   37.2380   30.8690   40.6000 C   0  0  0  0  0  0  0  0  0  0  0  0
   38.3970   30.2690   41.1000 C   0  0  0  0  0  0  0  0  0  0  0  0
   39.4970   31.0400   41.3240 N   0  0  0  0  0  0  0  0  0  0  0  0
   39.4800   32.3740   41.0700 C   0  0  0  0  0  0  0  0  0  0  0  0
   38.3650   32.9550   40.5880 N   0  0  0  0  0  0  0  0  0  0  0  0
   36.3660   32.7300   39.9610 H   0  0  0  0  0  0  0  0  0  0  0  0
   36.3600   30.2650   40.4200 H   0  0  0  0  0  0  0  0  0  0  0  0
   40.3740   32.9620   41.2590 H   0  0  0  0  0  0  0  0  0  0  0  0
   38.2470   26.8790   42.8340 C   0  0  0  0  0  3  0  0  0  0  0  0
   39.2400   26.2720   41.8570 C   0  0  0  0  0  2  0  0  0  0  0  0
   39.4610   24.8520   42.3830 C   0  0  0  0  0  2  0  0  0  0  0  0
   38.2040   24.0610   42.1100 C   0  0  0  0  0  2  0  0  0  0  0  0
   37.0280   24.9340   41.7790 C   0  0  0  0  0  2  0  0  0  0  0  0
   36.9350   26.1960   42.5750 C   0  0  0  0  0  2  0  0  0  0  0  0
  1 14  1  0  0  0  0
  1  2  2  0  0  0  0
  3  1  1  0  0  0  0
  4  3  1  0  0  0  0
  5 10  2  0  0  0  0
  5  6  1  0  0  0  0
  6  7  2  0  0  0  0
  7  8  1  0  0  0  0
  7  3  1  0  0  0  0
  9 13  1  0  0  0  0
  9  8  2  0  0  0  0
 10  9  1  0  0  0  0
 11  5  1  0  0  0  0
 12  6  1  0  0  0  0
 15 16  1  0  0  0  0
 15 14  1  0  0  0  0
 17 16  1  0  0  0  0
 18 17  1  0  0  0  0
 18 19  1  0  0  0  0
 19 14  1  0  0  0  0
M  END
>  <minimizedAffinity>
-4.33481407

$$$$

 OpenBabel03252503363D

 19 20  0  0  0  0  0  0  0  0999 V2000
   37.1550   28.6130   41.0520 C   0  0  0  0  0  0  0  0  0  0  0  0
   36.4150   28.0600   41.9110 O   0  0  0  0  0  0  0  0  0  0  0  0
   38.4500   28.0420   40.9360 N   0  0  0  0  0  0  0  0  0  0  0  0
   39.1790   28.3560   40.2670 H   0  0  0  0  0  0  0  0  0  0  0  0
   39.9870   26.0350   43.6790 C   0  0  0  0  0  0  0  0  0  0  0  0
   39.6150   27.1590   42.9210 C   0  0  0  0  0  0  0  0  0  0  0  0
   38.8660   26.9580   41.7580 C   0  0  0  0  0  0  0  0  0  0  0  0
   38.5240   25.6890   41.4030 N   0  0  0  0  0  0  0  0  0  0  0  0
   38.8990   24.6250   42.1580 C   0  0  0  0  0  0  0  0  0  0  0  0
   39.6210   24.8150   43.2790 N   0  0  0  0  0  0  0  0  0  0  0  0
   40.5660   26.1750   44.5820 H   0  0  0  0  0  0  0  0  0  0  0  0
   39.8910   28.1630   43.2110 H   0  0  0  0  0  0  0  0  0  0  0  0
   38.6110   23.6240   41.8480 H   0  0  0  0  0  0  0  0  0  0  0  0
   36.8530   29.7680   40.1550 C   0  0  0  0  0  3  0  0  0  0  0  0
   38.0060   30.0350   39.2030 C   0  0  0  0  0  2  0  0  0  0  0  0
   37.4090   30.9660   38.1450 C   0  0  0  0  0  2  0  0  0  0  0  0
   37.1950   32.3140   38.7890 C   0  0  0  0  0  2  0  0  0  0  0  0
   37.2530   32.2580   40.2880 C   0  0  0  0  0  2  0  0  0  0  0  0
   36.6200   31.0510   40.9000 C   0  0  0  0  0  2  0  0  0  0  0  0
  1  2  2  0  0  0  0
  3  1  1  0  0  0  0
  3  7  1  0  0  0  0
  4  3  1  0  0  0  0
  5 11  1  0  0  0  0
  6 12  1  0  0  0  0
  6  5  2  0  0  0  0
  7  6  1  0  0  0  0
  8  7  2  0  0  0  0
  8  9  1  0  0  0  0
  9 10  2  0  0  0  0
 10  5  1  0  0  0  0
 13  9  1  0  0  0  0
 14 19  1  0  0  0  0
 14  1  1  0  0  0  0
 15 14  1  0  0  0  0
 16 17  1  0  0  0  0
 16 15  1  0  0  0  0
 17 18  1  0  0  0  0
 18 19  1  0  0  0  0
M  END
>  <minimizedAffinity>
-4.20386362

$$$$

 OpenBabel03252503363D

 19 20  0  0  0  0  0  0  0  0999 V2000
   36.3220   28.9840   39.1020 C   0  0  0  0  0  0  0  0  0  0  0  0
   37.5720   28.8630   38.9940 O   0  0  0  0  0  0  0  0  0  0  0  0
   35.8170   28.7350   40.4060 N   0  0  0  0  0  0  0  0  0  0  0  0
   34.8190   28.8090   40.6790 H   0  0  0  0  0  0  0  0  0  0  0  0
   37.8310   26.7050   42.8010 C   0  0  0  0  0  0  0  0  0  0  0  0
   36.9800   27.0070   41.7240 C   0  0  0  0  0  0  0  0  0  0  0  0
   36.6690   28.3470   41.4760 C   0  0  0  0  0  0  0  0  0  0  0  0
   37.1990   29.3080   42.2820 N   0  0  0  0  0  0  0  0  0  0  0  0
   38.0180   28.9830   43.3140 C   0  0  0  0  0  0  0  0  0  0  0  0
   38.3190   27.6930   43.5560 N   0  0  0  0  0  0  0  0  0  0  0  0
   38.0800   25.6730   43.0060 H   0  0  0  0  0  0  0  0  0  0  0  0
   36.5640   26.2370   41.0900 H   0  0  0  0  0  0  0  0  0  0  0  0
   38.4250   29.7740   43.9400 H   0  0  0  0  0  0  0  0  0  0  0  0
   35.3180   29.3510   38.0570 C   0  0  0  0  0  3  0  0  0  0  0  0
   34.1770   28.3490   38.0230 C   0  0  0  0  0  2  0  0  0  0  0  0
   33.0930   29.0460   37.1970 C   0  0  0  0  0  2  0  0  0  0  0  0
   33.5560   29.0690   35.7600 C   0  0  0  0  0  2  0  0  0  0  0  0
   35.0210   28.7770   35.6160 C   0  0  0  0  0  2  0  0  0  0  0  0
   35.8920   29.3800   36.6700 C   0  0  0  0  0  2  0  0  0  0  0  0
  1  3  1  0  0  0  0
  2  1  2  0  0  0  0
  3  4  1  0  0  0  0
  3  7  1  0  0  0  0
  5 11  1  0  0  0  0
  5 10  1  0  0  0  0
  6  5  2  0  0  0  0
  7  6  1  0  0  0  0
  7  8  2  0  0  0  0
  8  9  1  0  0  0  0
  9 10  2  0  0  0  0
  9 13  1  0  0  0  0
 12  6  1  0  0  0  0
 14  1  1  0  0  0  0
 15 14  1  0  0  0  0
 16 15  1  0  0  0  0
 17 16  1  0  0  0  0
 18 17  1  0  0  0  0
 18 19  1  0  0  0  0
 19 14  1  0  0  0  0
M  END
>  <minimizedAffinity>
-4.098557

$$$$

 OpenBabel03252503363D

 19 20  0  0  0  0  0  0  0  0999 V2000
   35.8440   28.8070   40.4220 C   0  0  0  0  0  0  0  0  0  0  0  0
   35.3570   29.9490   40.2020 O   0  0  0  0  0  0  0  0  0  0  0  0
   35.8520   27.9430   39.2950 N   0  0  0  0  0  0  0  0  0  0  0  0
   36.2330   26.9780   39.2900 H   0  0  0  0  0  0  0  0  0  0  0  0
   33.5010   28.6560   36.4880 C   0  0  0  0  0  0  0  0  0  0  0  0
   33.9530   28.2350   37.7510 C   0  0  0  0  0  0  0  0  0  0  0  0
   35.3160   28.3460   38.0410 C   0  0  0  0  0  0  0  0  0  0  0  0
   36.1530   28.8540   37.0950 N   0  0  0  0  0  0  0  0  0  0  0  0
   35.6840   29.2510   35.8850 C   0  0  0  0  0  0  0  0  0  0  0  0
   34.3720   29.1460   35.6030 N   0  0  0  0  0  0  0  0  0  0  0  0
   32.4490   28.5770   36.2490 H   0  0  0  0  0  0  0  0  0  0  0  0
   33.2800   27.8330   38.4950 H   0  0  0  0  0  0  0  0  0  0  0  0
   36.3780   29.6520   35.1510 H   0  0  0  0  0  0  0  0  0  0  0  0
   36.4060   28.2530   41.6910 C   0  0  0  0  0  3  0  0  0  0  0  0
   37.4960   29.1560   42.2440 C   0  0  0  0  0  2  0  0  0  0  0  0
   37.6950   28.6640   43.6800 C   0  0  0  0  0  2  0  0  0  0  0  0
   38.3810   27.3210   43.6130 C   0  0  0  0  0  2  0  0  0  0  0  0
   38.3240   26.7060   42.2450 C   0  0  0  0  0  2  0  0  0  0  0  0
   37.0320   26.8990   41.5190 C   0  0  0  0  0  2  0  0  0  0  0  0
  1 14  1  0  0  0  0
  2  1  2  0  0  0  0
  3  1  1  0  0  0  0
  4  3  1  0  0  0  0
  5  6  1  0  0  0  0
  6  7  2  0  0  0  0
  6 12  1  0  0  0  0
  7  3  1  0  0  0  0
  8  7  1  0  0  0  0
  9  8  2  0  0  0  0
 10  9  1  0  0  0  0
 10  5  2  0  0  0  0
 11  5  1  0  0  0  0
 13  9  1  0  0  0  0
 14 15  1  0  0  0  0
 15 16  1  0  0  0  0
 17 16  1  0  0  0  0
 18 17  1  0  0  0  0
 19 14  1  0  0  0  0
 19 18  1  0  0  0  0
M  END
>  <minimizedAffinity>
-4.09851122

$$$$

 OpenBabel03252503363D

 19 20  0  0  0  0  0  0  0  0999 V2000
   36.9720   29.9290   39.0440 C   0  0  0  0  0  0  0  0  0  0  0  0
   37.6630   29.7850   40.0880 O   0  0  0  0  0  0  0  0  0  0  0  0
   37.1480   31.1770   38.3890 N   0  0  0  0  0  0  0  0  0  0  0  0
   36.6760   31.4570   37.5080 H   0  0  0  0  0  0  0  0  0  0  0  0
   38.4640   34.1600   40.2000 C   0  0  0  0  0  0  0  0  0  0  0  0
   37.5440   33.2090   39.7260 C   0  0  0  0  0  0  0  0  0  0  0  0
   38.0140   32.1780   38.9080 C   0  0  0  0  0  0  0  0  0  0  0  0
   39.3400   32.1310   38.6010 N   0  0  0  0  0  0  0  0  0  0  0  0
   40.2030   33.0650   39.0760 C   0  0  0  0  0  0  0  0  0  0  0  0
   39.7530   34.0600   39.8640 N   0  0  0  0  0  0  0  0  0  0  0  0
   38.1150   34.9640   40.8340 H   0  0  0  0  0  0  0  0  0  0  0  0
   36.4930   33.2550   39.9760 H   0  0  0  0  0  0  0  0  0  0  0  0
   41.2550   33.0000   38.8120 H   0  0  0  0  0  0  0  0  0  0  0  0
   36.0080   28.9760   38.4150 C   0  0  0  0  0  3  0  0  0  0  0  0
   35.7690   29.3270   36.9560 C   0  0  0  0  0  2  0  0  0  0  0  0
   35.0830   28.0860   36.3810 C   0  0  0  0  0  2  0  0  0  0  0  0
   33.6820   28.0350   36.9420 C   0  0  0  0  0  2  0  0  0  0  0  0
   33.4990   28.9340   38.1300 C   0  0  0  0  0  2  0  0  0  0  0  0
   34.6580   28.9800   39.0720 C   0  0  0  0  0  2  0  0  0  0  0  0
  1  2  2  0  0  0  0
  3  7  1  0  0  0  0
  3  1  1  0  0  0  0
  4  3  1  0  0  0  0
  5 11  1  0  0  0  0
  6 12  1  0  0  0  0
  6  5  2  0  0  0  0
  7  6  1  0  0  0  0
  8  7  2  0  0  0  0
  8  9  1  0  0  0  0
  9 10  2  0  0  0  0
 10  5  1  0  0  0  0
 13  9  1  0  0  0  0
 14  1  1  0  0  0  0
 14 19  1  0  0  0  0
 15 14  1  0  0  0  0
 16 17  1  0  0  0  0
 16 15  1  0  0  0  0
 17 18  1  0  0  0  0
 18 19  1  0  0  0  0
M  END
>  <minimizedAffinity>
-3.97089028

$$$$
