
 OpenBabel03252507043D

 44 47  0  0  0  0  0  0  0  0999 V2000
   41.8820   31.4540   42.1710 C   0  0  0  0  0  0  0  0  0  0  0  0
   41.6030   32.3590   41.5320 H   0  0  0  0  0  0  0  0  0  0  0  0
   41.6770   31.8090   43.2050 H   0  0  0  0  0  0  0  0  0  0  0  0
   41.2160   30.3420   41.8550 N   0  0  0  0  0  0  0  0  0  0  0  0
   41.3460   29.0440   42.4250 C   0  0  0  0  0  0  0  0  0  0  0  0
   40.0580   29.0200   43.2480 C   0  0  0  0  0  0  0  0  0  0  0  0
   38.8480   29.1710   42.4600 C   0  0  0  0  0  0  0  0  0  0  0  0
   38.9200   29.8260   41.1720 C   0  0  0  0  0  0  0  0  0  0  0  0
   40.2050   30.5160   40.7820 C   0  0  0  0  0  0  0  0  0  0  0  0
   42.1850   29.1110   43.1750 H   0  0  0  0  0  0  0  0  0  0  0  0
   41.4850   28.1940   41.7790 H   0  0  0  0  0  0  0  0  0  0  0  0
   40.0830   28.0460   43.7950 H   0  0  0  0  0  0  0  0  0  0  0  0
   40.1990   29.8010   44.0440 H   0  0  0  0  0  0  0  0  0  0  0  0
   38.3890   28.1550   42.2800 H   0  0  0  0  0  0  0  0  0  0  0  0
   38.0670   29.6970   43.0710 H   0  0  0  0  0  0  0  0  0  0  0  0
   38.1490   29.9010   40.4580 H   0  0  0  0  0  0  0  0  0  0  0  0
   40.3930   31.4000   39.3100 S   0  0  0  0  0  0  0  0  0  0  0  0
   40.3910   33.1650   39.3460 C   0  0  0  0  0  3  0  0  0  0  0  0
   39.6150   33.8180   40.4480 C   0  0  0  0  0  2  0  0  0  0  0  0
   39.5040   35.2990   40.1330 C   0  0  0  0  0  2  0  0  0  0  0  0
   40.6920   35.8150   39.3450 C   0  0  0  0  0  2  0  0  0  0  0  0
   40.7850   35.1480   37.9870 C   0  0  0  0  0  2  0  0  0  0  0  0
   39.9910   33.8350   38.0410 C   0  0  0  0  0  2  0  0  0  0  0  0
   43.3550   31.3300   42.0040 C   0  0  0  0  0  0  0  0  0  0  0  0
   43.7770   30.8700   42.9450 H   0  0  0  0  0  0  0  0  0  0  0  0
   43.6140   30.6900   41.1410 H   0  0  0  0  0  0  0  0  0  0  0  0
   43.9230   32.6810   41.8750 C   0  0  0  0  0  0  0  0  0  0  0  0
   43.1100   33.7590   41.6170 C   0  0  0  0  0  0  0  0  0  0  0  0
   43.6890   35.0110   41.4890 C   0  0  0  0  0  0  0  0  0  0  0  0
   45.0500   35.1100   41.6300 N   0  0  0  0  0  0  0  0  0  0  0  0
   45.8030   34.0460   41.8810 C   0  0  0  0  0  0  0  0  0  0  0  0
   45.2190   32.8520   41.9980 N   0  0  0  0  0  0  0  0  0  0  0  0
   42.0480   33.8880   41.4930 H   0  0  0  0  0  0  0  0  0  0  0  0
   43.2130   35.9680   41.2850 H   0  0  0  0  0  0  0  0  0  0  0  0
   47.2410   34.2550   42.0450 C   0  0  0  0  0  0  0  0  0  0  0  0
   48.0310   33.2720   42.6350 C   0  0  0  0  0  0  0  0  0  0  0  0
   49.3830   33.4790   42.7970 C   0  0  0  0  0  0  0  0  0  0  0  0
   49.8320   34.6900   42.3400 C   0  0  0  0  0  0  0  0  0  0  0  0
   49.0890   35.7110   41.7420 C   0  0  0  0  0  0  0  0  0  0  0  0
   47.7670   35.4200   41.6230 N   0  0  0  0  0  0  0  0  0  0  0  0
   47.6090   32.3280   42.9780 H   0  0  0  0  0  0  0  0  0  0  0  0
   50.0760   32.7800   43.2410 H   0  0  0  0  0  0  0  0  0  0  0  0
   50.9040   34.9020   42.4480 H   0  0  0  0  0  0  0  0  0  0  0  0
   49.5350   36.6170   41.4210 H   0  0  0  0  0  0  0  0  0  0  0  0
  1  3  1  0  0  0  0
  2  1  1  0  0  0  0
  4  1  1  0  0  0  0
  4  5  1  0  0  0  0
  5 10  1  0  0  0  0
  5  6  1  0  0  0  0
  6 12  1  0  0  0  0
  6 13  1  0  0  0  0
  7 15  1  0  0  0  0
  7  6  1  0  0  0  0
  8  7  1  0  0  0  0
  9  8  2  0  0  0  0
  9  4  1  0  0  0  0
 11  5  1  0  0  0  0
 14  7  1  0  0  0  0
 16  8  1  0  0  0  0
 17 18  1  0  0  0  0
 17  9  1  0  0  0  0
 18 19  1  0  0  0  0
 20 19  1  0  0  0  0
 21 20  1  0  0  0  0
 22 23  1  0  0  0  0
 22 21  1  0  0  0  0
 23 18  1  0  0  0  0
 24  1  1  0  0  0  0
 24 25  1  0  0  0  0
 26 24  1  0  0  0  0
 27 32  1  0  0  0  0
 27 24  1  0  0  0  0
 28 27  2  0  0  0  0
 29 28  1  0  0  0  0
 29 30  2  0  0  0  0
 30 31  1  0  0  0  0
 31 32  2  0  0  0  0
 31 35  1  0  0  0  0
 33 28  1  0  0  0  0
 34 29  1  0  0  0  0
 35 36  1  0  0  0  0
 36 37  2  0  0  0  0
 36 41  1  0  0  0  0
 37 42  1  0  0  0  0
 38 43  1  0  0  0  0
 38 37  1  0  0  0  0
 39 38  2  0  0  0  0
 40 39  1  0  0  0  0
 40 35  2  0  0  0  0
 44 39  1  0  0  0  0
M  END
>  <minimizedAffinity>
-5.65585089

>  <minimizedRMSD>
3.24973369

$$$$
