
 OpenBabel03242510573D

 33 35  0  0  0  0  0  0  0  0999 V2000
   45.6730   31.6530   47.1640 C   0  0  0  0  0  0  0  0  0  0  0  0
   45.6070   32.1140   48.4740 C   0  0  0  0  0  0  0  0  0  0  0  0
   45.3740   31.2860   49.5580 C   0  0  0  0  0  0  0  0  0  0  0  0
   45.2020   29.9490   49.3070 C   0  0  0  0  0  0  0  0  0  0  0  0
   45.2670   29.4800   47.9920 C   0  0  0  0  0  0  0  0  0  0  0  0
   45.4960   30.3320   46.9940 N   0  0  0  0  0  0  0  0  0  0  0  0
   45.7510   33.1780   48.6010 H   0  0  0  0  0  0  0  0  0  0  0  0
   45.3270   31.6720   50.5650 H   0  0  0  0  0  0  0  0  0  0  0  0
   45.0190   29.3050   50.1630 H   0  0  0  0  0  0  0  0  0  0  0  0
   44.7720   36.5950   43.8040 C   0  0  0  0  0  0  0  0  0  0  0  0
   45.6560   36.2830   42.7740 C   0  0  0  0  0  0  0  0  0  0  0  0
   46.3170   35.0540   42.8170 C   0  0  0  0  0  0  0  0  0  0  0  0
   46.0700   34.2150   43.8660 N   0  0  0  0  0  0  0  0  0  0  0  0
   45.1970   34.5610   44.8540 C   0  0  0  0  0  0  0  0  0  0  0  0
   44.5430   35.7600   44.8230 N   0  0  0  0  0  0  0  0  0  0  0  0
   45.9240   32.5860   46.0620 C   0  0  0  0  0  0  0  0  0  0  0  0
   46.9230   32.4100   45.3340 O   0  0  0  0  0  0  0  0  0  0  0  0
   44.9880   33.6440   45.9070 N   0  0  0  0  0  0  0  0  0  0  0  0
   44.2200   37.5370   43.8370 H   0  0  0  0  0  0  0  0  0  0  0  0
   45.8120   36.9940   41.9600 H   0  0  0  0  0  0  0  0  0  0  0  0
   47.0100   34.7820   42.0300 H   0  0  0  0  0  0  0  0  0  0  0  0
   44.1590   33.7630   46.5370 H   0  0  0  0  0  0  0  0  0  0  0  0
   45.0850   28.0660   47.7460 C   0  0  0  0  0  0  0  0  0  0  0  0
   44.3490   27.3380   48.5740 C   0  0  0  0  0  0  0  0  0  0  0  0
   44.0570   25.8780   48.4780 C   0  0  0  0  0  0  0  0  0  0  0  0
   43.4990   25.5980   49.3840 H   0  0  0  0  0  0  0  0  0  0  0  0
   43.5310   25.6470   47.5360 H   0  0  0  0  0  0  0  0  0  0  0  0
   45.4040   25.1750   48.3990 C   0  0  0  0  0  0  0  0  0  0  0  0
   45.2000   23.9390   47.5280 C   0  0  0  0  0  0  0  0  0  0  0  0
   46.3940   23.0300   47.6530 C   0  0  0  0  0  0  0  0  0  0  0  0
   47.5820   23.8220   48.1110 C   0  0  0  0  0  0  0  0  0  0  0  0
   47.3730   24.3350   49.5340 C   0  0  0  0  0  0  0  0  0  0  0  0
   45.9370   24.7620   49.7330 C   0  0  0  0  0  0  0  0  0  0  0  0
  1  2  1  0  0  0  0
  2  7  1  0  0  0  0
  2  3  2  0  0  0  0
  3  8  1  0  0  0  0
  4  3  1  0  0  0  0
  4  9  1  0  0  0  0
  5  4  2  0  0  0  0
  6  1  2  0  0  0  0
  6  5  1  0  0  0  0
 10 19  1  0  0  0  0
 10 15  1  0  0  0  0
 11 12  1  0  0  0  0
 11 10  2  0  0  0  0
 12 13  2  0  0  0  0
 13 14  1  0  0  0  0
 14 18  1  0  0  0  0
 15 14  2  0  0  0  0
 16  1  1  0  0  0  0
 17 16  2  0  0  0  0
 18 16  1  0  0  0  0
 18 22  1  0  0  0  0
 20 11  1  0  0  0  0
 21 12  1  0  0  0  0
 23  5  1  0  0  0  0
 23 24  2  0  0  0  0
 25 24  1  0  0  0  0
 25 26  1  0  0  0  0
 27 25  1  0  0  0  0
 28 25  1  0  0  0  0
 28 33  1  0  0  0  0
 29 30  1  0  0  0  0
 29 28  1  0  0  0  0
 30 31  1  0  0  0  0
 31 32  1  0  0  0  0
 32 33  1  0  0  0  0
M  END
>  <minimizedAffinity>
-5.69186163

>  <minimizedRMSD>
1.49544537

$$$$
