
 OpenBabel03252503593D

 31 34  0  0  0  0  0  0  0  0999 V2000
   46.7170   34.7820   42.5370 C   0  0  0  0  0  0  0  0  0  0  0  0
   45.9120   35.9040   42.5420 C   0  0  0  0  0  0  0  0  0  0  0  0
   45.0250   36.0430   43.6010 C   0  0  0  0  0  0  0  0  0  0  0  0
   44.9910   35.0860   44.5640 N   0  0  0  0  0  0  0  0  0  0  0  0
   45.8000   34.0070   44.5150 C   0  0  0  0  0  0  0  0  0  0  0  0
   46.6690   33.8390   43.5050 N   0  0  0  0  0  0  0  0  0  0  0  0
   45.9460   36.6640   41.7660 H   0  0  0  0  0  0  0  0  0  0  0  0
   44.3500   36.8860   43.7000 H   0  0  0  0  0  0  0  0  0  0  0  0
   46.0040   31.6580   45.1690 C   0  0  0  0  0  0  0  0  0  0  0  0
   45.7570   32.9740   45.5630 C   0  0  0  0  0  0  0  0  0  0  0  0
   45.4890   33.2640   46.8810 C   0  0  0  0  0  0  0  0  0  0  0  0
   45.4660   32.2440   47.8100 C   0  0  0  0  0  0  0  0  0  0  0  0
   45.2420   32.2080   49.1240 N   0  0  0  0  0  0  0  0  0  0  0  0
   45.3340   30.9420   49.5850 C   0  0  0  0  0  0  0  0  0  0  0  0
   45.6280   30.1060   48.5400 C   0  0  0  0  0  0  0  0  0  0  0  0
   45.7100   30.9260   47.4330 C   0  0  0  0  0  0  0  0  0  0  0  0
   45.9800   30.6390   46.1010 C   0  0  0  0  0  0  0  0  0  0  0  0
   46.2190   31.3890   44.1460 H   0  0  0  0  0  0  0  0  0  0  0  0
   45.3040   34.2950   47.1380 H   0  0  0  0  0  0  0  0  0  0  0  0
   45.0240   33.0630   49.7160 H   0  0  0  0  0  0  0  0  0  0  0  0
   45.2090   30.5680   50.5910 H   0  0  0  0  0  0  0  0  0  0  0  0
   45.7700   29.0290   48.5620 H   0  0  0  0  0  0  0  0  0  0  0  0
   46.1720   29.6190   45.7950 H   0  0  0  0  0  0  0  0  0  0  0  0
   47.6290   34.6790   41.4100 C   0  0  0  0  0  0  0  0  0  0  0  0
   48.4940   35.5780   41.1070 O   0  0  0  0  0  0  0  0  0  0  0  0
   47.4890   33.4290   40.6160 C   0  0  0  0  0  3  0  0  0  0  0  0
   48.6690   33.3380   39.6400 C   0  0  0  0  0  2  0  0  0  0  0  0
   48.5950   32.0970   38.8140 C   0  0  0  0  0  2  0  0  0  0  0  0
   47.2910   31.3510   38.9980 C   0  0  0  0  0  2  0  0  0  0  0  0
   46.0880   32.2680   38.9290 C   0  0  0  0  0  2  0  0  0  0  0  0
   46.2460   33.4990   39.7620 C   0  0  0  0  0  2  0  0  0  0  0  0
  1  2  2  0  0  0  0
  1  6  1  0  0  0  0
  2  3  1  0  0  0  0
  3  8  1  0  0  0  0
  3  4  2  0  0  0  0
  5  4  1  0  0  0  0
  5 10  1  0  0  0  0
  6  5  2  0  0  0  0
  7  2  1  0  0  0  0
  9 10  2  0  0  0  0
  9 17  1  0  0  0  0
 10 11  1  0  0  0  0
 11 19  1  0  0  0  0
 11 12  2  0  0  0  0
 12 13  1  0  0  0  0
 13 14  1  0  0  0  0
 13 20  1  0  0  0  0
 14 21  1  0  0  0  0
 15 22  1  0  0  0  0
 15 14  2  0  0  0  0
 16 12  1  0  0  0  0
 16 15  1  0  0  0  0
 17 16  2  0  0  0  0
 18  9  1  0  0  0  0
 23 17  1  0  0  0  0
 24  1  1  0  0  0  0
 25 24  2  0  0  0  0
 26 24  1  0  0  0  0
 27 26  1  0  0  0  0
 28 29  1  0  0  0  0
 28 27  1  0  0  0  0
 30 29  1  0  0  0  0
 30 31  1  0  0  0  0
 31 26  1  0  0  0  0
M  END
>  <minimizedAffinity>
-5.67080355

>  <minimizedRMSD>
0.432171047

$$$$
