
 OpenBabel03252505523D

 22 23  0  0  0  0  0  0  0  0999 V2000
   38.5510   31.2900   41.0080 C   0  0  0  0  0  0  0  0  0  0  0  0
   37.4470   31.5450   40.1940 C   0  0  0  0  0  0  0  0  0  0  0  0
   36.2780   30.8000   40.4050 C   0  0  0  0  0  0  0  0  0  0  0  0
   36.2770   29.8760   41.3790 N   0  0  0  0  0  0  0  0  0  0  0  0
   37.3660   29.6550   42.1480 C   0  0  0  0  0  0  0  0  0  0  0  0
   38.4990   30.3440   41.9810 N   0  0  0  0  0  0  0  0  0  0  0  0
   39.4630   31.8570   40.8590 H   0  0  0  0  0  0  0  0  0  0  0  0
   35.4790   31.0460   39.7500 H   0  0  0  0  0  0  0  0  0  0  0  0
   37.6140   32.5940   39.1390 C   0  0  0  0  0  0  0  0  0  0  0  0
   37.0610   32.0570   37.9890 F   0  0  0  0  0  0  0  0  0  0  0  0
   38.9590   32.8160   38.9990 F   0  0  0  0  0  0  0  0  0  0  0  0
   36.9390   33.7310   39.5600 F   0  0  0  0  0  0  0  0  0  0  0  0
   37.3690   28.7000   43.1510 O   0  0  0  0  0  0  0  0  0  0  0  0
   37.0180   27.3640   42.9630 C   0  0  0  0  0  0  0  0  0  0  0  0
   37.1930   26.8540   43.9340 H   0  0  0  0  0  0  0  0  0  0  0  0
   35.9330   27.2710   42.7750 H   0  0  0  0  0  0  0  0  0  0  0  0
   37.8310   26.6220   41.9340 C   0  0  0  0  0  3  0  0  0  0  0  0
   37.4350   25.1580   42.0710 C   0  0  0  0  0  2  0  0  0  0  0  0
   38.6310   24.2350   42.0070 C   0  0  0  0  0  2  0  0  0  0  0  0
   39.5380   24.4140   43.2060 C   0  0  0  0  0  2  0  0  0  0  0  0
   39.7230   25.8910   43.4360 C   0  0  0  0  0  2  0  0  0  0  0  0
   39.3120   26.6930   42.2320 C   0  0  0  0  0  2  0  0  0  0  0  0
  1  6  1  0  0  0  0
  2  3  1  0  0  0  0
  2  1  2  0  0  0  0
  3  4  2  0  0  0  0
  4  5  1  0  0  0  0
  5 13  1  0  0  0  0
  6  5  2  0  0  0  0
  7  1  1  0  0  0  0
  8  3  1  0  0  0  0
  9 12  1  0  0  0  0
  9  2  1  0  0  0  0
 10  9  1  0  0  0  0
 11  9  1  0  0  0  0
 14 13  1  0  0  0  0
 14 15  1  0  0  0  0
 16 14  1  0  0  0  0
 17 18  1  0  0  0  0
 17 22  1  0  0  0  0
 17 14  1  0  0  0  0
 19 18  1  0  0  0  0
 19 20  1  0  0  0  0
 20 21  1  0  0  0  0
 22 21  1  0  0  0  0
M  END
>  <minimizedAffinity>
-5.13096094

$$$$

 OpenBabel03252505523D

 22 23  0  0  0  0  0  0  0  0999 V2000
   36.5090   31.2100   40.5240 C   0  0  0  0  0  0  0  0  0  0  0  0
   37.7480   31.8170   40.3170 C   0  0  0  0  0  0  0  0  0  0  0  0
   38.8460   31.3620   41.0620 C   0  0  0  0  0  0  0  0  0  0  0  0
   38.6520   30.3660   41.9400 N   0  0  0  0  0  0  0  0  0  0  0  0
   37.4370   29.8010   42.1160 C   0  0  0  0  0  0  0  0  0  0  0  0
   36.3660   30.2040   41.4250 N   0  0  0  0  0  0  0  0  0  0  0  0
   35.6500   31.5480   39.9560 H   0  0  0  0  0  0  0  0  0  0  0  0
   39.7560   31.8690   40.8530 H   0  0  0  0  0  0  0  0  0  0  0  0
   37.7950   32.9290   39.3160 C   0  0  0  0  0  0  0  0  0  0  0  0
   37.3810   32.3710   38.1190 F   0  0  0  0  0  0  0  0  0  0  0  0
   39.0940   33.3600   39.2510 F   0  0  0  0  0  0  0  0  0  0  0  0
   36.9360   33.9290   39.7490 F   0  0  0  0  0  0  0  0  0  0  0  0
   37.2340   28.7760   43.0240 O   0  0  0  0  0  0  0  0  0  0  0  0
   36.8330   27.4880   42.6760 C   0  0  0  0  0  0  0  0  0  0  0  0
   36.9250   26.8710   43.5950 H   0  0  0  0  0  0  0  0  0  0  0  0
   35.7580   27.4720   42.4180 H   0  0  0  0  0  0  0  0  0  0  0  0
   37.6730   26.8140   41.6200 C   0  0  0  0  0  3  0  0  0  0  0  0
   36.7540   26.6210   40.4210 C   0  0  0  0  0  2  0  0  0  0  0  0
   36.9190   25.2570   39.7890 C   0  0  0  0  0  2  0  0  0  0  0  0
   36.4450   24.1540   40.7120 C   0  0  0  0  0  2  0  0  0  0  0  0
   36.9890   24.4300   42.0900 C   0  0  0  0  0  2  0  0  0  0  0  0
   38.1100   25.4320   42.0500 C   0  0  0  0  0  2  0  0  0  0  0  0
  1  6  1  0  0  0  0
  2  1  2  0  0  0  0
  2  3  1  0  0  0  0
  3  4  2  0  0  0  0
  4  5  1  0  0  0  0
  5 13  1  0  0  0  0
  6  5  2  0  0  0  0
  7  1  1  0  0  0  0
  8  3  1  0  0  0  0
  9 12  1  0  0  0  0
  9  2  1  0  0  0  0
 10  9  1  0  0  0  0
 11  9  1  0  0  0  0
 14 13  1  0  0  0  0
 14 15  1  0  0  0  0
 16 14  1  0  0  0  0
 17 22  1  0  0  0  0
 17 14  1  0  0  0  0
 18 17  1  0  0  0  0
 19 18  1  0  0  0  0
 19 20  1  0  0  0  0
 20 21  1  0  0  0  0
 22 21  1  0  0  0  0
M  END
>  <minimizedAffinity>
-5.04929638

$$$$

 OpenBabel03252505523D

 22 23  0  0  0  0  0  0  0  0999 V2000
   36.6490   26.6540   40.0540 C   0  0  0  0  0  0  0  0  0  0  0  0
   37.0370   26.1400   41.2910 C   0  0  0  0  0  0  0  0  0  0  0  0
   36.9920   26.9880   42.4080 C   0  0  0  0  0  0  0  0  0  0  0  0
   36.5800   28.2540   42.2320 N   0  0  0  0  0  0  0  0  0  0  0  0
   36.2130   28.7180   41.0170 C   0  0  0  0  0  0  0  0  0  0  0  0
   36.2390   27.9420   39.9290 N   0  0  0  0  0  0  0  0  0  0  0  0
   36.6760   26.0120   39.1800 H   0  0  0  0  0  0  0  0  0  0  0  0
   37.3010   26.5320   43.3160 H   0  0  0  0  0  0  0  0  0  0  0  0
   37.4910   24.7140   41.3190 C   0  0  0  0  0  0  0  0  0  0  0  0
   36.4110   23.9710   40.8720 F   0  0  0  0  0  0  0  0  0  0  0  0
   37.8090   24.4150   42.6170 F   0  0  0  0  0  0  0  0  0  0  0  0
   38.5860   24.6000   40.4740 F   0  0  0  0  0  0  0  0  0  0  0  0
   35.7910   30.0240   40.8320 O   0  0  0  0  0  0  0  0  0  0  0  0
   36.6410   31.1280   40.8190 C   0  0  0  0  0  0  0  0  0  0  0  0
   36.0870   31.9560   41.3110 H   0  0  0  0  0  0  0  0  0  0  0  0
   37.5230   30.9460   41.4590 H   0  0  0  0  0  0  0  0  0  0  0  0
   37.0320   31.6250   39.4520 C   0  0  0  0  0  3  0  0  0  0  0  0
   38.4110   31.0390   39.1780 C   0  0  0  0  0  2  0  0  0  0  0  0
   39.3470   32.0490   38.5520 C   0  0  0  0  0  2  0  0  0  0  0  0
   39.6810   33.1700   39.5150 C   0  0  0  0  0  2  0  0  0  0  0  0
   38.4040   33.6160   40.1760 C   0  0  0  0  0  2  0  0  0  0  0  0
   37.1940   33.1280   39.4270 C   0  0  0  0  0  2  0  0  0  0  0  0
  1  2  1  0  0  0  0
  2  9  1  0  0  0  0
  2  3  2  0  0  0  0
  3  8  1  0  0  0  0
  4  3  1  0  0  0  0
  5  4  2  0  0  0  0
  6  1  2  0  0  0  0
  6  5  1  0  0  0  0
  7  1  1  0  0  0  0
  9 11  1  0  0  0  0
 10  9  1  0  0  0  0
 12  9  1  0  0  0  0
 13  5  1  0  0  0  0
 14 13  1  0  0  0  0
 14 15  1  0  0  0  0
 14 16  1  0  0  0  0
 17 14  1  0  0  0  0
 18 17  1  0  0  0  0
 19 18  1  0  0  0  0
 19 20  1  0  0  0  0
 20 21  1  0  0  0  0
 22 17  1  0  0  0  0
 22 21  1  0  0  0  0
M  END
>  <minimizedAffinity>
-4.7415576

$$$$

 OpenBabel03252505523D

 22 23  0  0  0  0  0  0  0  0999 V2000
   36.1750   29.6380   38.2030 C   0  0  0  0  0  0  0  0  0  0  0  0
   37.1100   29.6750   37.1690 C   0  0  0  0  0  0  0  0  0  0  0  0
   38.4730   29.6700   37.5030 C   0  0  0  0  0  0  0  0  0  0  0  0
   38.8110   29.6320   38.8020 N   0  0  0  0  0  0  0  0  0  0  0  0
   37.8770   29.5980   39.7780 C   0  0  0  0  0  0  0  0  0  0  0  0
   36.5690   29.5990   39.5020 N   0  0  0  0  0  0  0  0  0  0  0  0
   35.1180   29.6390   37.9630 H   0  0  0  0  0  0  0  0  0  0  0  0
   39.1280   29.7000   36.6680 H   0  0  0  0  0  0  0  0  0  0  0  0
   36.5730   29.7340   35.7740 C   0  0  0  0  0  0  0  0  0  0  0  0
   37.2800   28.7820   35.0610 F   0  0  0  0  0  0  0  0  0  0  0  0
   36.8090   30.9990   35.3030 F   0  0  0  0  0  0  0  0  0  0  0  0
   35.2170   29.4430   35.8270 F   0  0  0  0  0  0  0  0  0  0  0  0
   38.2230   29.5630   41.1180 O   0  0  0  0  0  0  0  0  0  0  0  0
   37.3070   29.6120   42.1660 C   0  0  0  0  0  0  0  0  0  0  0  0
   37.2540   30.6740   42.4880 H   0  0  0  0  0  0  0  0  0  0  0  0
   36.2910   29.3650   41.8060 H   0  0  0  0  0  0  0  0  0  0  0  0
   37.6790   28.8100   43.3870 C   0  0  0  0  0  3  0  0  0  0  0  0
   39.0910   28.3010   43.1320 C   0  0  0  0  0  2  0  0  0  0  0  0
   39.2590   26.8550   43.5440 C   0  0  0  0  0  2  0  0  0  0  0  0
   38.4420   25.9280   42.6690 C   0  0  0  0  0  2  0  0  0  0  0  0
   37.0680   26.5230   42.5110 C   0  0  0  0  0  2  0  0  0  0  0  0
   36.8050   27.5860   43.5420 C   0  0  0  0  0  2  0  0  0  0  0  0
  1  6  1  0  0  0  0
  2  3  1  0  0  0  0
  2  1  2  0  0  0  0
  3  4  2  0  0  0  0
  4  5  1  0  0  0  0
  5 13  1  0  0  0  0
  6  5  2  0  0  0  0
  7  1  1  0  0  0  0
  8  3  1  0  0  0  0
  9 12  1  0  0  0  0
  9  2  1  0  0  0  0
 10  9  1  0  0  0  0
 11  9  1  0  0  0  0
 13 14  1  0  0  0  0
 14 15  1  0  0  0  0
 14 17  1  0  0  0  0
 16 14  1  0  0  0  0
 17 22  1  0  0  0  0
 18 17  1  0  0  0  0
 18 19  1  0  0  0  0
 20 19  1  0  0  0  0
 21 20  1  0  0  0  0
 21 22  1  0  0  0  0
M  END
>  <minimizedAffinity>
-4.68384981

$$$$

 OpenBabel03252505523D

 22 23  0  0  0  0  0  0  0  0999 V2000
   37.2190   26.6630   40.0140 C   0  0  0  0  0  0  0  0  0  0  0  0
   37.1380   26.5380   41.4010 C   0  0  0  0  0  0  0  0  0  0  0  0
   36.6560   27.6280   42.1400 C   0  0  0  0  0  0  0  0  0  0  0  0
   36.2980   28.7400   41.4780 N   0  0  0  0  0  0  0  0  0  0  0  0
   36.3910   28.8260   40.1330 C   0  0  0  0  0  0  0  0  0  0  0  0
   36.8430   27.8090   39.3910 N   0  0  0  0  0  0  0  0  0  0  0  0
   37.5870   25.8290   39.4270 H   0  0  0  0  0  0  0  0  0  0  0  0
   36.6210   27.4640   43.1890 H   0  0  0  0  0  0  0  0  0  0  0  0
   37.5940   25.2400   41.9910 C   0  0  0  0  0  0  0  0  0  0  0  0
   38.5370   25.5760   42.9460 F   0  0  0  0  0  0  0  0  0  0  0  0
   38.1430   24.5040   40.9740 F   0  0  0  0  0  0  0  0  0  0  0  0
   36.4880   24.6140   42.5490 F   0  0  0  0  0  0  0  0  0  0  0  0
   36.0270   29.9720   39.4480 O   0  0  0  0  0  0  0  0  0  0  0  0
   36.9070   30.9980   39.1100 C   0  0  0  0  0  0  0  0  0  0  0  0
   37.8680   30.5110   38.8410 H   0  0  0  0  0  0  0  0  0  0  0  0
   36.5710   31.5110   38.1910 H   0  0  0  0  0  0  0  0  0  0  0  0
   37.2160   31.9730   40.2170 C   0  0  0  0  0  3  0  0  0  0  0  0
   37.3110   33.3390   39.5500 C   0  0  0  0  0  2  0  0  0  0  0  0
   38.4790   34.1480   40.0700 C   0  0  0  0  0  2  0  0  0  0  0  0
   39.8040   33.5280   39.6790 C   0  0  0  0  0  2  0  0  0  0  0  0
   39.7230   32.0470   39.9380 C   0  0  0  0  0  2  0  0  0  0  0  0
   38.5680   31.7060   40.8390 C   0  0  0  0  0  2  0  0  0  0  0  0
  1  2  1  0  0  0  0
  2  9  1  0  0  0  0
  2  3  2  0  0  0  0
  3  8  1  0  0  0  0
  4  3  1  0  0  0  0
  5  4  2  0  0  0  0
  6  1  2  0  0  0  0
  6  5  1  0  0  0  0
  7  1  1  0  0  0  0
  9 12  1  0  0  0  0
  9 10  1  0  0  0  0
 11  9  1  0  0  0  0
 13  5  1  0  0  0  0
 14 13  1  0  0  0  0
 14 17  1  0  0  0  0
 15 14  1  0  0  0  0
 16 14  1  0  0  0  0
 17 22  1  0  0  0  0
 18 19  1  0  0  0  0
 18 17  1  0  0  0  0
 20 21  1  0  0  0  0
 20 19  1  0  0  0  0
 21 22  1  0  0  0  0
M  END
>  <minimizedAffinity>
-4.65268183

$$$$

 OpenBabel03252505523D

 22 23  0  0  0  0  0  0  0  0999 V2000
   37.8990   26.7870   40.6750 C   0  0  0  0  0  0  0  0  0  0  0  0
   37.3910   26.0900   41.7710 C   0  0  0  0  0  0  0  0  0  0  0  0
   36.9610   26.8250   42.8860 C   0  0  0  0  0  0  0  0  0  0  0  0
   37.0620   28.1630   42.8450 N   0  0  0  0  0  0  0  0  0  0  0  0
   37.5620   28.8050   41.7660 C   0  0  0  0  0  0  0  0  0  0  0  0
   37.9800   28.1420   40.6830 N   0  0  0  0  0  0  0  0  0  0  0  0
   38.2340   26.2340   39.8040 H   0  0  0  0  0  0  0  0  0  0  0  0
   36.5870   26.2320   43.6830 H   0  0  0  0  0  0  0  0  0  0  0  0
   37.3630   24.5980   41.6690 C   0  0  0  0  0  0  0  0  0  0  0  0
   37.8670   24.3000   40.4150 F   0  0  0  0  0  0  0  0  0  0  0  0
   36.0550   24.2070   41.7950 F   0  0  0  0  0  0  0  0  0  0  0  0
   38.1590   24.0860   42.6840 F   0  0  0  0  0  0  0  0  0  0  0  0
   37.6710   30.1850   41.7220 O   0  0  0  0  0  0  0  0  0  0  0  0
   38.8770   30.8730   41.6140 C   0  0  0  0  0  0  0  0  0  0  0  0
   39.1360   31.2160   42.6380 H   0  0  0  0  0  0  0  0  0  0  0  0
   39.6910   30.1860   41.3210 H   0  0  0  0  0  0  0  0  0  0  0  0
   38.8410   32.1040   40.7450 C   0  0  0  0  0  3  0  0  0  0  0  0
   37.3780   32.3090   40.3770 C   0  0  0  0  0  2  0  0  0  0  0  0
   37.2020   32.6760   38.9210 C   0  0  0  0  0  2  0  0  0  0  0  0
   37.5850   31.5310   38.0060 C   0  0  0  0  0  2  0  0  0  0  0  0
   38.8870   30.9540   38.4980 C   0  0  0  0  0  2  0  0  0  0  0  0
   39.5840   31.8930   39.4440 C   0  0  0  0  0  2  0  0  0  0  0  0
  1  6  2  0  0  0  0
  1  2  1  0  0  0  0
  2  3  2  0  0  0  0
  3  8  1  0  0  0  0
  4  3  1  0  0  0  0
  5  4  2  0  0  0  0
  6  5  1  0  0  0  0
  7  1  1  0  0  0  0
  9  2  1  0  0  0  0
  9 11  1  0  0  0  0
  9 12  1  0  0  0  0
 10  9  1  0  0  0  0
 13  5  1  0  0  0  0
 14 13  1  0  0  0  0
 14 15  1  0  0  0  0
 16 14  1  0  0  0  0
 17 14  1  0  0  0  0
 18 17  1  0  0  0  0
 19 18  1  0  0  0  0
 20 21  1  0  0  0  0
 20 19  1  0  0  0  0
 21 22  1  0  0  0  0
 22 17  1  0  0  0  0
M  END
>  <minimizedAffinity>
-4.55122757

$$$$

 OpenBabel03252505523D

 22 23  0  0  0  0  0  0  0  0999 V2000
   39.0150   26.8500   41.9810 C   0  0  0  0  0  0  0  0  0  0  0  0
   37.7100   26.4500   42.2660 C   0  0  0  0  0  0  0  0  0  0  0  0
   36.8400   27.3830   42.8500 C   0  0  0  0  0  0  0  0  0  0  0  0
   37.3060   28.6150   43.1080 N   0  0  0  0  0  0  0  0  0  0  0  0
   38.5780   28.9680   42.8190 C   0  0  0  0  0  0  0  0  0  0  0  0
   39.4380   28.1100   42.2610 N   0  0  0  0  0  0  0  0  0  0  0  0
   39.7010   26.1420   41.5280 H   0  0  0  0  0  0  0  0  0  0  0  0
   35.8630   27.0110   43.0390 H   0  0  0  0  0  0  0  0  0  0  0  0
   37.3500   25.0360   41.9360 C   0  0  0  0  0  0  0  0  0  0  0  0
   37.0380   25.0350   40.5870 F   0  0  0  0  0  0  0  0  0  0  0  0
   36.2660   24.7030   42.7050 F   0  0  0  0  0  0  0  0  0  0  0  0
   38.4510   24.2390   42.2150 F   0  0  0  0  0  0  0  0  0  0  0  0
   39.0620   30.2370   43.0880 O   0  0  0  0  0  0  0  0  0  0  0  0
   39.7160   31.0400   42.1570 C   0  0  0  0  0  0  0  0  0  0  0  0
   40.0480   31.9490   42.7040 H   0  0  0  0  0  0  0  0  0  0  0  0
   40.6440   30.5530   41.8080 H   0  0  0  0  0  0  0  0  0  0  0  0
   38.8660   31.5170   41.0070 C   0  0  0  0  0  3  0  0  0  0  0  0
   39.5310   30.9770   39.7480 C   0  0  0  0  0  2  0  0  0  0  0  0
   39.5780   32.0060   38.6410 C   0  0  0  0  0  2  0  0  0  0  0  0
   40.4920   33.1620   38.9920 C   0  0  0  0  0  2  0  0  0  0  0  0
   40.1990   33.5760   40.4100 C   0  0  0  0  0  2  0  0  0  0  0  0
   38.8830   33.0250   40.8860 C   0  0  0  0  0  2  0  0  0  0  0  0
  1  6  2  0  0  0  0
  1  2  1  0  0  0  0
  2  3  2  0  0  0  0
  3  8  1  0  0  0  0
  3  4  1  0  0  0  0
  5 13  1  0  0  0  0
  5  4  2  0  0  0  0
  6  5  1  0  0  0  0
  7  1  1  0  0  0  0
  9 12  1  0  0  0  0
  9  2  1  0  0  0  0
  9 11  1  0  0  0  0
 10  9  1  0  0  0  0
 14 15  1  0  0  0  0
 14 13  1  0  0  0  0
 16 14  1  0  0  0  0
 17 14  1  0  0  0  0
 18 17  1  0  0  0  0
 19 20  1  0  0  0  0
 19 18  1  0  0  0  0
 20 21  1  0  0  0  0
 21 22  1  0  0  0  0
 22 17  1  0  0  0  0
M  END
>  <minimizedAffinity>
-4.49716854

$$$$

 OpenBabel03252505523D

 22 23  0  0  0  0  0  0  0  0999 V2000
   40.9140   31.1810   38.4530 C   0  0  0  0  0  0  0  0  0  0  0  0
   41.5450   32.4220   38.5390 C   0  0  0  0  0  0  0  0  0  0  0  0
   41.1990   33.2710   39.6010 C   0  0  0  0  0  0  0  0  0  0  0  0
   40.2760   32.8500   40.4810 N   0  0  0  0  0  0  0  0  0  0  0  0
   39.6850   31.6410   40.3640 C   0  0  0  0  0  0  0  0  0  0  0  0
   39.9870   30.8010   39.3690 N   0  0  0  0  0  0  0  0  0  0  0  0
   41.1710   30.5110   37.6400 H   0  0  0  0  0  0  0  0  0  0  0  0
   41.7170   34.1990   39.6050 H   0  0  0  0  0  0  0  0  0  0  0  0
   42.5370   32.7520   37.4690 C   0  0  0  0  0  0  0  0  0  0  0  0
   43.7700   32.7740   38.0970 F   0  0  0  0  0  0  0  0  0  0  0  0
   42.2000   33.9830   36.9710 F   0  0  0  0  0  0  0  0  0  0  0  0
   42.4640   31.7600   36.5010 F   0  0  0  0  0  0  0  0  0  0  0  0
   38.7300   31.2050   41.2680 O   0  0  0  0  0  0  0  0  0  0  0  0
   38.6230   29.8930   41.7240 C   0  0  0  0  0  0  0  0  0  0  0  0
   38.7690   29.2400   40.8380 H   0  0  0  0  0  0  0  0  0  0  0  0
   39.4560   29.6500   42.4080 H   0  0  0  0  0  0  0  0  0  0  0  0
   37.2860   29.5230   42.3150 C   0  0  0  0  0  3  0  0  0  0  0  0
   37.5970   28.6980   43.5570 C   0  0  0  0  0  2  0  0  0  0  0  0
   36.6960   27.4910   43.6800 C   0  0  0  0  0  2  0  0  0  0  0  0
   36.9570   26.4850   42.5770 C   0  0  0  0  0  2  0  0  0  0  0  0
   37.0590   27.2350   41.2750 C   0  0  0  0  0  2  0  0  0  0  0  0
   36.4950   28.6240   41.3910 C   0  0  0  0  0  2  0  0  0  0  0  0
  1  2  2  0  0  0  0
  1  6  1  0  0  0  0
  2  3  1  0  0  0  0
  3  8  1  0  0  0  0
  3  4  2  0  0  0  0
  5  4  1  0  0  0  0
  5 13  1  0  0  0  0
  6  5  2  0  0  0  0
  7  1  1  0  0  0  0
  9 10  1  0  0  0  0
  9  2  1  0  0  0  0
 11  9  1  0  0  0  0
 12  9  1  0  0  0  0
 13 14  1  0  0  0  0
 14 17  1  0  0  0  0
 14 16  1  0  0  0  0
 15 14  1  0  0  0  0
 17 18  1  0  0  0  0
 18 19  1  0  0  0  0
 20 19  1  0  0  0  0
 21 22  1  0  0  0  0
 21 20  1  0  0  0  0
 22 17  1  0  0  0  0
M  END
>  <minimizedAffinity>
-4.47707558

$$$$

 OpenBabel03252505523D

 22 23  0  0  0  0  0  0  0  0999 V2000
   37.1470   30.5040   37.2480 C   0  0  0  0  0  0  0  0  0  0  0  0
   36.2190   29.6620   36.6350 C   0  0  0  0  0  0  0  0  0  0  0  0
   35.2010   29.1060   37.4240 C   0  0  0  0  0  0  0  0  0  0  0  0
   35.1690   29.4100   38.7310 N   0  0  0  0  0  0  0  0  0  0  0  0
   36.0850   30.2300   39.2920 C   0  0  0  0  0  0  0  0  0  0  0  0
   37.0700   30.7810   38.5750 N   0  0  0  0  0  0  0  0  0  0  0  0
   37.9390   30.9440   36.6530 H   0  0  0  0  0  0  0  0  0  0  0  0
   34.5310   28.4760   36.8920 H   0  0  0  0  0  0  0  0  0  0  0  0
   36.4030   29.4060   35.1720 C   0  0  0  0  0  0  0  0  0  0  0  0
   37.5270   28.6040   35.0720 F   0  0  0  0  0  0  0  0  0  0  0  0
   36.5920   30.6210   34.5690 F   0  0  0  0  0  0  0  0  0  0  0  0
   35.2640   28.7650   34.7050 F   0  0  0  0  0  0  0  0  0  0  0  0
   36.0570   30.5410   40.6410 O   0  0  0  0  0  0  0  0  0  0  0  0
   36.8740   29.9480   41.6000 C   0  0  0  0  0  0  0  0  0  0  0  0
   37.7950   30.5660   41.6540 H   0  0  0  0  0  0  0  0  0  0  0  0
   36.4130   30.0220   42.6020 H   0  0  0  0  0  0  0  0  0  0  0  0
   37.3180   28.5410   41.2890 C   0  0  0  0  0  3  0  0  0  0  0  0
   36.6720   27.6590   42.3500 C   0  0  0  0  0  2  0  0  0  0  0  0
   37.6280   26.6170   42.8840 C   0  0  0  0  0  2  0  0  0  0  0  0
   38.7610   27.2480   43.6660 C   0  0  0  0  0  2  0  0  0  0  0  0
   39.2740   28.4260   42.8790 C   0  0  0  0  0  2  0  0  0  0  0  0
   38.8120   28.3770   41.4490 C   0  0  0  0  0  2  0  0  0  0  0  0
  1  6  1  0  0  0  0
  2  1  2  0  0  0  0
  2  3  1  0  0  0  0
  3  4  2  0  0  0  0
  4  5  1  0  0  0  0
  5 13  1  0  0  0  0
  6  5  2  0  0  0  0
  7  1  1  0  0  0  0
  8  3  1  0  0  0  0
  9  2  1  0  0  0  0
 10  9  1  0  0  0  0
 11  9  1  0  0  0  0
 12  9  1  0  0  0  0
 13 14  1  0  0  0  0
 14 15  1  0  0  0  0
 14 16  1  0  0  0  0
 17 22  1  0  0  0  0
 17 14  1  0  0  0  0
 17 18  1  0  0  0  0
 18 19  1  0  0  0  0
 19 20  1  0  0  0  0
 21 20  1  0  0  0  0
 22 21  1  0  0  0  0
M  END
>  <minimizedAffinity>
-4.33726835

$$$$
