
 OpenBabel03252507043D

 44 47  0  0  0  0  0  0  0  0999 V2000
   41.9020   31.6370   42.0700 C   0  0  0  0  0  0  0  0  0  0  0  0
   41.7680   32.5100   41.3450 H   0  0  0  0  0  0  0  0  0  0  0  0
   41.4940   32.0410   43.0220 H   0  0  0  0  0  0  0  0  0  0  0  0
   41.3060   30.5110   41.6780 N   0  0  0  0  0  0  0  0  0  0  0  0
   41.1370   29.3000   42.4080 C   0  0  0  0  0  0  0  0  0  0  0  0
   39.6480   29.4240   42.7270 C   0  0  0  0  0  0  0  0  0  0  0  0
   38.7950   29.4980   41.5540 C   0  0  0  0  0  0  0  0  0  0  0  0
   39.3500   29.9670   40.3040 C   0  0  0  0  0  0  0  0  0  0  0  0
   40.7380   30.5620   40.3070 C   0  0  0  0  0  0  0  0  0  0  0  0
   41.6710   29.4470   43.3900 H   0  0  0  0  0  0  0  0  0  0  0  0
   41.4270   28.3660   41.9580 H   0  0  0  0  0  0  0  0  0  0  0  0
   39.4130   28.5350   43.3610 H   0  0  0  0  0  0  0  0  0  0  0  0
   39.5640   30.3030   43.4220 H   0  0  0  0  0  0  0  0  0  0  0  0
   38.3520   28.4800   41.3490 H   0  0  0  0  0  0  0  0  0  0  0  0
   37.8930   30.1240   41.7870 H   0  0  0  0  0  0  0  0  0  0  0  0
   38.8780   29.9630   39.3620 H   0  0  0  0  0  0  0  0  0  0  0  0
   41.4820   31.2290   38.8980 S   0  0  0  0  0  0  0  0  0  0  0  0
   41.2220   32.9280   38.4960 C   0  0  0  0  0  3  0  0  0  0  0  0
   42.4380   33.7990   38.4200 C   0  0  0  0  0  2  0  0  0  0  0  0
   41.9790   35.2450   38.3550 C   0  0  0  0  0  2  0  0  0  0  0  0
   40.6340   35.3960   37.6730 C   0  0  0  0  0  2  0  0  0  0  0  0
   39.5400   34.6890   38.4470 C   0  0  0  0  0  2  0  0  0  0  0  0
   40.1960   33.6430   39.3600 C   0  0  0  0  0  2  0  0  0  0  0  0
   43.3770   31.5070   42.2150 C   0  0  0  0  0  0  0  0  0  0  0  0
   43.5970   31.1520   43.2640 H   0  0  0  0  0  0  0  0  0  0  0  0
   43.7940   30.7800   41.4930 H   0  0  0  0  0  0  0  0  0  0  0  0
   43.9790   32.8410   42.0610 C   0  0  0  0  0  0  0  0  0  0  0  0
   43.1890   33.9390   41.8170 C   0  0  0  0  0  0  0  0  0  0  0  0
   43.7990   35.1730   41.6640 C   0  0  0  0  0  0  0  0  0  0  0  0
   45.1650   35.2350   41.7670 N   0  0  0  0  0  0  0  0  0  0  0  0
   45.8950   34.1520   42.0060 C   0  0  0  0  0  0  0  0  0  0  0  0
   45.2820   32.9760   42.1470 N   0  0  0  0  0  0  0  0  0  0  0  0
   42.1280   34.0970   41.7210 H   0  0  0  0  0  0  0  0  0  0  0  0
   43.3440   36.1410   41.4660 H   0  0  0  0  0  0  0  0  0  0  0  0
   47.3420   34.3220   42.1300 C   0  0  0  0  0  0  0  0  0  0  0  0
   48.1290   33.2950   42.6420 C   0  0  0  0  0  0  0  0  0  0  0  0
   49.4900   33.4650   42.7670 C   0  0  0  0  0  0  0  0  0  0  0  0
   49.9520   34.6870   42.3540 C   0  0  0  0  0  0  0  0  0  0  0  0
   49.2120   35.7510   41.8330 C   0  0  0  0  0  0  0  0  0  0  0  0
   47.8810   35.4950   41.7460 N   0  0  0  0  0  0  0  0  0  0  0  0
   47.6970   32.3440   42.9550 H   0  0  0  0  0  0  0  0  0  0  0  0
   50.1810   32.7300   43.1530 H   0  0  0  0  0  0  0  0  0  0  0  0
   51.0300   34.8700   42.4350 H   0  0  0  0  0  0  0  0  0  0  0  0
   49.6680   36.6630   41.5400 H   0  0  0  0  0  0  0  0  0  0  0  0
  1 24  1  0  0  0  0
  1  3  1  0  0  0  0
  2  1  1  0  0  0  0
  4  1  1  0  0  0  0
  4  5  1  0  0  0  0
  5  6  1  0  0  0  0
  5 10  1  0  0  0  0
  6 12  1  0  0  0  0
  6 13  1  0  0  0  0
  7 15  1  0  0  0  0
  7  6  1  0  0  0  0
  8  9  2  0  0  0  0
  8  7  1  0  0  0  0
  9  4  1  0  0  0  0
 11  5  1  0  0  0  0
 14  7  1  0  0  0  0
 16  8  1  0  0  0  0
 17  9  1  0  0  0  0
 18 17  1  0  0  0  0
 18 23  1  0  0  0  0
 19 18  1  0  0  0  0
 20 19  1  0  0  0  0
 21 20  1  0  0  0  0
 21 22  1  0  0  0  0
 22 23  1  0  0  0  0
 24 25  1  0  0  0  0
 26 24  1  0  0  0  0
 27 32  1  0  0  0  0
 27 24  1  0  0  0  0
 28 27  2  0  0  0  0
 29 30  2  0  0  0  0
 29 28  1  0  0  0  0
 30 31  1  0  0  0  0
 31 35  1  0  0  0  0
 31 32  2  0  0  0  0
 33 28  1  0  0  0  0
 34 29  1  0  0  0  0
 35 36  1  0  0  0  0
 36 37  2  0  0  0  0
 36 41  1  0  0  0  0
 37 42  1  0  0  0  0
 38 43  1  0  0  0  0
 38 37  1  0  0  0  0
 39 38  2  0  0  0  0
 40 39  1  0  0  0  0
 40 35  2  0  0  0  0
 44 39  1  0  0  0  0
M  END
>  <minimizedAffinity>
-5.35149622

>  <minimizedRMSD>
3.03500128

$$$$
