
 OpenBabel03252507043D

 44 47  0  0  0  0  0  0  0  0999 V2000
   41.8640   31.7510   41.8730 C   0  0  0  0  0  0  0  0  0  0  0  0
   41.7680   32.6100   41.1240 H   0  0  0  0  0  0  0  0  0  0  0  0
   41.4260   32.1820   42.8000 H   0  0  0  0  0  0  0  0  0  0  0  0
   41.2660   30.6250   41.4830 N   0  0  0  0  0  0  0  0  0  0  0  0
   41.1000   29.4150   42.2150 C   0  0  0  0  0  0  0  0  0  0  0  0
   39.6120   29.5380   42.5380 C   0  0  0  0  0  0  0  0  0  0  0  0
   38.7560   29.6110   41.3670 C   0  0  0  0  0  0  0  0  0  0  0  0
   39.3080   30.0780   40.1140 C   0  0  0  0  0  0  0  0  0  0  0  0
   40.6950   30.6740   40.1130 C   0  0  0  0  0  0  0  0  0  0  0  0
   41.6370   29.5630   43.1950 H   0  0  0  0  0  0  0  0  0  0  0  0
   41.3890   28.4800   41.7650 H   0  0  0  0  0  0  0  0  0  0  0  0
   39.3790   28.6500   43.1730 H   0  0  0  0  0  0  0  0  0  0  0  0
   39.5290   30.4180   43.2320 H   0  0  0  0  0  0  0  0  0  0  0  0
   38.3120   28.5920   41.1640 H   0  0  0  0  0  0  0  0  0  0  0  0
   37.8540   30.2360   41.6010 H   0  0  0  0  0  0  0  0  0  0  0  0
   38.8330   30.0740   39.1740 H   0  0  0  0  0  0  0  0  0  0  0  0
   41.4360   31.3400   38.7020 S   0  0  0  0  0  0  0  0  0  0  0  0
   41.2530   33.0600   38.3510 C   0  0  0  0  0  3  0  0  0  0  0  0
   42.4850   33.9060   38.4490 C   0  0  0  0  0  2  0  0  0  0  0  0
   42.0630   35.3640   38.3990 C   0  0  0  0  0  2  0  0  0  0  0  0
   40.8050   35.5740   37.5800 C   0  0  0  0  0  2  0  0  0  0  0  0
   39.6190   34.8600   38.1960 C   0  0  0  0  0  2  0  0  0  0  0  0
   40.1500   33.7610   39.1270 C   0  0  0  0  0  2  0  0  0  0  0  0
   43.3300   31.6050   42.0750 C   0  0  0  0  0  0  0  0  0  0  0  0
   43.5030   31.2050   43.1160 H   0  0  0  0  0  0  0  0  0  0  0  0
   43.7740   30.9070   41.3410 H   0  0  0  0  0  0  0  0  0  0  0  0
   43.9440   32.9410   42.0020 C   0  0  0  0  0  0  0  0  0  0  0  0
   43.1640   34.0600   41.8390 C   0  0  0  0  0  0  0  0  0  0  0  0
   43.7850   35.2960   41.7620 C   0  0  0  0  0  0  0  0  0  0  0  0
   45.1520   35.3380   41.8550 N   0  0  0  0  0  0  0  0  0  0  0  0
   45.8740   34.2340   42.0140 C   0  0  0  0  0  0  0  0  0  0  0  0
   45.2500   33.0570   42.0840 N   0  0  0  0  0  0  0  0  0  0  0  0
   42.1030   34.2350   41.7650 H   0  0  0  0  0  0  0  0  0  0  0  0
   43.3390   36.2800   41.6320 H   0  0  0  0  0  0  0  0  0  0  0  0
   47.3240   34.3810   42.1340 C   0  0  0  0  0  0  0  0  0  0  0  0
   48.0920   33.3530   42.6720 C   0  0  0  0  0  0  0  0  0  0  0  0
   49.4560   33.5010   42.7930 C   0  0  0  0  0  0  0  0  0  0  0  0
   49.9390   34.7050   42.3500 C   0  0  0  0  0  0  0  0  0  0  0  0
   49.2180   35.7700   41.8040 C   0  0  0  0  0  0  0  0  0  0  0  0
   47.8830   35.5350   41.7220 N   0  0  0  0  0  0  0  0  0  0  0  0
   47.6440   32.4170   43.0070 H   0  0  0  0  0  0  0  0  0  0  0  0
   50.1340   32.7640   43.1960 H   0  0  0  0  0  0  0  0  0  0  0  0
   51.0210   34.8710   42.4270 H   0  0  0  0  0  0  0  0  0  0  0  0
   49.6900   36.6660   41.4900 H   0  0  0  0  0  0  0  0  0  0  0  0
  1 24  1  0  0  0  0
  1  3  1  0  0  0  0
  2  1  1  0  0  0  0
  4  1  1  0  0  0  0
  4  5  1  0  0  0  0
  5  6  1  0  0  0  0
  5 10  1  0  0  0  0
  6 12  1  0  0  0  0
  6 13  1  0  0  0  0
  7 15  1  0  0  0  0
  7  6  1  0  0  0  0
  8  7  1  0  0  0  0
  9  8  2  0  0  0  0
  9  4  1  0  0  0  0
 11  5  1  0  0  0  0
 14  7  1  0  0  0  0
 16  8  1  0  0  0  0
 17  9  1  0  0  0  0
 18 19  1  0  0  0  0
 18 17  1  0  0  0  0
 18 23  1  0  0  0  0
 20 19  1  0  0  0  0
 21 22  1  0  0  0  0
 21 20  1  0  0  0  0
 22 23  1  0  0  0  0
 24 25  1  0  0  0  0
 26 24  1  0  0  0  0
 27 24  1  0  0  0  0
 27 32  1  0  0  0  0
 28 27  2  0  0  0  0
 29 28  1  0  0  0  0
 29 30  2  0  0  0  0
 30 31  1  0  0  0  0
 31 32  2  0  0  0  0
 31 35  1  0  0  0  0
 33 28  1  0  0  0  0
 34 29  1  0  0  0  0
 35 36  1  0  0  0  0
 36 37  2  0  0  0  0
 36 41  1  0  0  0  0
 37 42  1  0  0  0  0
 38 43  1  0  0  0  0
 38 37  1  0  0  0  0
 39 38  2  0  0  0  0
 40 39  1  0  0  0  0
 40 35  2  0  0  0  0
 44 39  1  0  0  0  0
M  END
>  <minimizedAffinity>
-5.36884832

>  <minimizedRMSD>
2.88366556

$$$$
