
 OpenBabel03242510313D

 35 37  0  0  1  0  0  0  0  0999 V2000
   36.9410   31.4340   39.3410 C   0  0  1  0  0  0  0  0  0  0  0  0
   37.1280   30.3190   38.2810 C   0  0  0  0  0  0  0  0  0  0  0  0
   35.7880   29.6600   38.1380 C   0  0  0  0  0  0  0  0  0  0  0  0
   35.6020   28.8660   39.4160 C   0  0  0  0  0  0  0  0  0  0  0  0
   35.7520   29.6560   40.6140 C   0  0  0  0  0  0  0  0  0  0  0  0
   36.7560   30.8440   40.6480 C   0  0  1  0  0  0  0  0  0  0  0  0
   36.0570   32.0150   39.0100 H   0  0  0  0  0  0  0  0  0  0  0  0
   37.8170   29.5900   38.7580 H   0  0  0  0  0  0  0  0  0  0  0  0
   37.5140   30.7410   37.3380 H   0  0  0  0  0  0  0  0  0  0  0  0
   34.9970   30.4210   37.9990 H   0  0  0  0  0  0  0  0  0  0  0  0
   35.7710   28.9590   37.3000 H   0  0  0  0  0  0  0  0  0  0  0  0
   34.5790   28.4420   39.3400 H   0  0  0  0  0  0  0  0  0  0  0  0
   36.3070   28.0070   39.3550 H   0  0  0  0  0  0  0  0  0  0  0  0
   34.7570   30.2370   40.6830 H   0  0  0  0  0  0  0  0  0  0  0  0
   35.7140   29.0660   41.5010 H   0  0  0  0  0  0  0  0  0  0  0  0
   36.3240   31.4160   41.4700 H   0  0  0  0  0  0  0  0  0  0  0  0
   40.4590   32.8920   38.7570 C   0  0  0  0  0  0  0  0  0  0  0  0
   39.3750   32.0490   38.6290 C   0  0  0  0  0  0  0  0  0  0  0  0
   38.1820   32.2650   39.3440 C   0  0  0  0  0  0  0  0  0  0  0  0
   38.1920   33.3380   40.1410 N   0  0  0  0  0  0  0  0  0  0  0  0
   39.2180   34.1610   40.2810 C   0  0  0  0  0  0  0  0  0  0  0  0
   40.3790   33.9460   39.5820 N   0  0  0  0  0  0  0  0  0  0  0  0
   41.2630   32.5610   38.1350 H   0  0  0  0  0  0  0  0  0  0  0  0
   39.3180   31.1550   37.9870 H   0  0  0  0  0  0  0  0  0  0  0  0
   39.2870   35.0400   40.9060 H   0  0  0  0  0  0  0  0  0  0  0  0
   37.9470   30.2750   41.1010 O   0  0  0  0  0  0  0  0  0  0  0  0
   37.7540   29.7400   42.3640 C   0  0  0  0  0  0  0  0  0  0  0  0
   36.6930   29.3020   42.2020 H   0  0  0  0  0  0  0  0  0  0  0  0
   37.4750   30.4700   43.1520 H   0  0  0  0  0  0  0  0  0  0  0  0
   38.5090   28.5460   42.7620 C   0  0  0  0  0  3  0  0  0  0  0  0
   37.5790   27.7320   43.6700 C   0  0  0  0  0  2  0  0  0  0  0  0
   36.6640   26.8490   42.8190 C   0  0  0  0  0  2  0  0  0  0  0  0
   37.5030   25.7140   42.2690 C   0  0  0  0  0  2  0  0  0  0  0  0
   38.9010   26.2240   41.9490 C   0  0  0  0  0  2  0  0  0  0  0  0
   38.7390   27.6600   41.5250 C   0  0  0  0  0  2  0  0  0  0  0  0
  1  7  1  6  0  0  0
  1 19  1  0  0  0  0
  1  6  1  0  0  0  0
  2  8  1  0  0  0  0
  2  1  1  0  0  0  0
  3  2  1  0  0  0  0
  3  4  1  0  0  0  0
  4  5  1  0  0  0  0
  5  6  1  0  0  0  0
  5 14  1  0  0  0  0
  5 15  1  0  0  0  0
  6 26  1  0  0  0  0
  6 16  1  1  0  0  0
  9  2  1  0  0  0  0
 10  3  1  0  0  0  0
 11  3  1  0  0  0  0
 12  4  1  0  0  0  0
 13  4  1  0  0  0  0
 17 22  1  0  0  0  0
 18 17  2  0  0  0  0
 18 19  1  0  0  0  0
 19 20  2  0  0  0  0
 20 21  1  0  0  0  0
 21 25  1  0  0  0  0
 22 21  2  0  0  0  0
 23 17  1  0  0  0  0
 24 18  1  0  0  0  0
 26 27  1  0  0  0  0
 27 30  1  0  0  0  0
 27 29  1  0  0  0  0
 28 27  1  0  0  0  0
 30 31  1  0  0  0  0
 32 31  1  0  0  0  0
 33 32  1  0  0  0  0
 34 33  1  0  0  0  0
 35 34  1  0  0  0  0
 35 30  1  0  0  0  0
M  END
>  <minimizedAffinity>
-5.51723242

$$$$

 OpenBabel03242510313D

 35 37  0  0  1  0  0  0  0  0999 V2000
   36.9740   31.4120   38.3480 C   0  0  1  0  0  0  0  0  0  0  0  0
   37.7030   30.5430   37.2920 C   0  0  0  0  0  0  0  0  0  0  0  0
   36.6250   29.8090   36.5510 C   0  0  0  0  0  0  0  0  0  0  0  0
   36.1120   28.7710   37.5290 C   0  0  0  0  0  0  0  0  0  0  0  0
   35.6930   29.3250   38.7940 C   0  0  0  0  0  0  0  0  0  0  0  0
   36.4210   30.5680   39.3830 C   0  0  1  0  0  0  0  0  0  0  0  0
   36.1930   31.9670   37.7900 H   0  0  0  0  0  0  0  0  0  0  0  0
   38.2750   29.7990   37.8860 H   0  0  0  0  0  0  0  0  0  0  0  0
   38.3350   31.1710   36.6430 H   0  0  0  0  0  0  0  0  0  0  0  0
   35.8310   30.5100   36.2300 H   0  0  0  0  0  0  0  0  0  0  0  0
   37.0220   29.2830   35.6790 H   0  0  0  0  0  0  0  0  0  0  0  0
   35.2650   28.2810   37.0060 H   0  0  0  0  0  0  0  0  0  0  0  0
   36.9150   28.0040   37.6200 H   0  0  0  0  0  0  0  0  0  0  0  0
   34.6650   29.7930   38.5580 H   0  0  0  0  0  0  0  0  0  0  0  0
   35.4270   28.5750   39.5020 H   0  0  0  0  0  0  0  0  0  0  0  0
   35.6370   30.9310   40.0490 H   0  0  0  0  0  0  0  0  0  0  0  0
   38.8130   34.1610   40.3250 C   0  0  0  0  0  0  0  0  0  0  0  0
   37.7770   33.3660   39.8810 C   0  0  0  0  0  0  0  0  0  0  0  0
   37.9860   32.3330   38.9480 C   0  0  0  0  0  0  0  0  0  0  0  0
   39.2520   32.1920   38.5400 N   0  0  0  0  0  0  0  0  0  0  0  0
   40.2610   32.9420   38.9510 C   0  0  0  0  0  0  0  0  0  0  0  0
   40.0520   33.9480   39.8600 N   0  0  0  0  0  0  0  0  0  0  0  0
   38.4520   34.8830   41.0270 H   0  0  0  0  0  0  0  0  0  0  0  0
   36.7210   33.4420   40.1860 H   0  0  0  0  0  0  0  0  0  0  0  0
   41.3000   32.8780   38.6600 H   0  0  0  0  0  0  0  0  0  0  0  0
   37.4380   30.0300   40.1720 O   0  0  0  0  0  0  0  0  0  0  0  0
   36.9010   29.5480   41.3540 C   0  0  0  0  0  0  0  0  0  0  0  0
   35.8110   29.3910   40.9940 H   0  0  0  0  0  0  0  0  0  0  0  0
   36.6760   30.3160   42.1220 H   0  0  0  0  0  0  0  0  0  0  0  0
   37.2590   28.1980   41.8080 C   0  0  0  0  0  3  0  0  0  0  0  0
   38.5940   27.8580   41.1350 C   0  0  0  0  0  2  0  0  0  0  0  0
   39.7510   28.4220   41.9610 C   0  0  0  0  0  2  0  0  0  0  0  0
   39.8910   27.5640   43.2010 C   0  0  0  0  0  2  0  0  0  0  0  0
   38.5120   27.1210   43.6720 C   0  0  0  0  0  2  0  0  0  0  0  0
   37.5670   28.2370   43.3140 C   0  0  0  0  0  2  0  0  0  0  0  0
  1  7  1  6  0  0  0
  1 19  1  0  0  0  0
  1  6  1  0  0  0  0
  2  8  1  0  0  0  0
  2  1  1  0  0  0  0
  3  2  1  0  0  0  0
  3  4  1  0  0  0  0
  4 13  1  0  0  0  0
  4  5  1  0  0  0  0
  5  6  1  0  0  0  0
  5 15  1  0  0  0  0
  6 16  1  1  0  0  0
  6 26  1  0  0  0  0
  9  2  1  0  0  0  0
 10  3  1  0  0  0  0
 11  3  1  0  0  0  0
 12  4  1  0  0  0  0
 14  5  1  0  0  0  0
 17 23  1  0  0  0  0
 18 24  1  0  0  0  0
 18 17  1  0  0  0  0
 19 18  2  0  0  0  0
 20 19  1  0  0  0  0
 20 21  2  0  0  0  0
 21 22  1  0  0  0  0
 22 17  2  0  0  0  0
 25 21  1  0  0  0  0
 26 27  1  0  0  0  0
 27 30  1  0  0  0  0
 27 29  1  0  0  0  0
 28 27  1  0  0  0  0
 30 35  1  0  0  0  0
 31 30  1  0  0  0  0
 31 32  1  0  0  0  0
 32 33  1  0  0  0  0
 33 34  1  0  0  0  0
 35 34  1  0  0  0  0
M  END
>  <minimizedAffinity>
-5.16668558

$$$$

 OpenBabel03242510313D

 35 37  0  0  1  0  0  0  0  0999 V2000
   37.2600   30.5720   38.5900 C   0  0  1  0  0  0  0  0  0  0  0  0
   36.7330   29.1510   38.2690 C   0  0  0  0  0  0  0  0  0  0  0  0
   35.2570   29.1920   38.5310 C   0  0  0  0  0  0  0  0  0  0  0  0
   35.1250   29.2550   40.0390 C   0  0  0  0  0  0  0  0  0  0  0  0
   35.8660   30.3380   40.6390 C   0  0  0  0  0  0  0  0  0  0  0  0
   37.2140   30.8040   40.0170 C   0  0  1  0  0  0  0  0  0  0  0  0
   36.6050   31.2670   38.0260 H   0  0  0  0  0  0  0  0  0  0  0  0
   37.1970   28.4990   39.0400 H   0  0  0  0  0  0  0  0  0  0  0  0
   36.9900   28.8660   37.2360 H   0  0  0  0  0  0  0  0  0  0  0  0
   34.8010   30.0690   38.0330 H   0  0  0  0  0  0  0  0  0  0  0  0
   34.7610   28.2800   38.1870 H   0  0  0  0  0  0  0  0  0  0  0  0
   34.0370   29.3610   40.2260 H   0  0  0  0  0  0  0  0  0  0  0  0
   35.4150   28.2490   40.4200 H   0  0  0  0  0  0  0  0  0  0  0  0
   35.2160   31.2660   40.4190 H   0  0  0  0  0  0  0  0  0  0  0  0
   35.8410   30.3110   41.7050 H   0  0  0  0  0  0  0  0  0  0  0  0
   37.2570   31.8140   40.4260 H   0  0  0  0  0  0  0  0  0  0  0  0
   40.8570   29.8020   37.4440 C   0  0  0  0  0  0  0  0  0  0  0  0
   39.5550   29.5800   37.8410 C   0  0  0  0  0  0  0  0  0  0  0  0
   38.6760   30.6430   38.1220 C   0  0  0  0  0  0  0  0  0  0  0  0
   39.2050   31.8630   37.9710 N   0  0  0  0  0  0  0  0  0  0  0  0
   40.4500   32.1000   37.5920 C   0  0  0  0  0  0  0  0  0  0  0  0
   41.3020   31.0600   37.3200 N   0  0  0  0  0  0  0  0  0  0  0  0
   41.3580   28.8710   37.2800 H   0  0  0  0  0  0  0  0  0  0  0  0
   39.0740   28.5980   37.9800 H   0  0  0  0  0  0  0  0  0  0  0  0
   40.9330   33.0570   37.4540 H   0  0  0  0  0  0  0  0  0  0  0  0
   38.1790   30.0350   40.6690 O   0  0  0  0  0  0  0  0  0  0  0  0
   38.0200   30.1570   42.0390 C   0  0  0  0  0  0  0  0  0  0  0  0
   36.8850   29.9260   42.0990 H   0  0  0  0  0  0  0  0  0  0  0  0
   37.9610   31.1970   42.4200 H   0  0  0  0  0  0  0  0  0  0  0  0
   38.5770   29.1250   42.9220 C   0  0  0  0  0  3  0  0  0  0  0  0
   37.3800   28.4400   43.5920 C   0  0  0  0  0  2  0  0  0  0  0  0
   36.8330   27.3400   42.6800 C   0  0  0  0  0  2  0  0  0  0  0  0
   37.8120   26.1840   42.7170 C   0  0  0  0  0  2  0  0  0  0  0  0
   39.2330   26.7240   42.8120 C   0  0  0  0  0  2  0  0  0  0  0  0
   39.2370   28.0310   42.0650 C   0  0  0  0  0  2  0  0  0  0  0  0
  1  7  1  6  0  0  0
  1  6  1  0  0  0  0
  2  3  1  0  0  0  0
  2  1  1  0  0  0  0
  2  8  1  0  0  0  0
  3  4  1  0  0  0  0
  4 12  1  0  0  0  0
  4 13  1  0  0  0  0
  4  5  1  0  0  0  0
  5 15  1  0  0  0  0
  6 16  1  1  0  0  0
  6  5  1  0  0  0  0
  6 26  1  0  0  0  0
  9  2  1  0  0  0  0
 10  3  1  0  0  0  0
 11  3  1  0  0  0  0
 14  5  1  0  0  0  0
 17 18  1  0  0  0  0
 18 24  1  0  0  0  0
 18 19  2  0  0  0  0
 19  1  1  0  0  0  0
 20 19  1  0  0  0  0
 21 20  2  0  0  0  0
 22 17  2  0  0  0  0
 22 21  1  0  0  0  0
 23 17  1  0  0  0  0
 25 21  1  0  0  0  0
 26 27  1  0  0  0  0
 27 28  1  0  0  0  0
 27 29  1  0  0  0  0
 27 30  1  0  0  0  0
 30 31  1  0  0  0  0
 32 33  1  0  0  0  0
 32 31  1  0  0  0  0
 33 34  1  0  0  0  0
 35 34  1  0  0  0  0
 35 30  1  0  0  0  0
M  END
>  <minimizedAffinity>
-5.06781721

$$$$

 OpenBabel03242510313D

 35 37  0  0  1  0  0  0  0  0999 V2000
   36.1920   27.8880   40.1300 C   0  0  1  0  0  0  0  0  0  0  0  0
   35.2240   29.0950   40.2030 C   0  0  0  0  0  0  0  0  0  0  0  0
   34.3010   28.9510   39.0300 C   0  0  0  0  0  0  0  0  0  0  0  0
   35.1480   29.2870   37.8190 C   0  0  0  0  0  0  0  0  0  0  0  0
   36.3570   28.5050   37.7240 C   0  0  0  0  0  0  0  0  0  0  0  0
   37.0980   28.0500   39.0140 C   0  0  1  0  0  0  0  0  0  0  0  0
   35.5470   26.9930   40.0250 H   0  0  0  0  0  0  0  0  0  0  0  0
   35.8670   29.9830   40.0230 H   0  0  0  0  0  0  0  0  0  0  0  0
   34.7030   29.1160   41.1750 H   0  0  0  0  0  0  0  0  0  0  0  0
   33.8920   27.9240   38.9840 H   0  0  0  0  0  0  0  0  0  0  0  0
   33.4780   29.6690   39.0740 H   0  0  0  0  0  0  0  0  0  0  0  0
   34.4840   29.1060   36.9480 H   0  0  0  0  0  0  0  0  0  0  0  0
   35.3280   30.3850   37.8580 H   0  0  0  0  0  0  0  0  0  0  0  0
   35.9880   27.4810   37.3390 H   0  0  0  0  0  0  0  0  0  0  0  0
   36.9860   28.8180   36.9230 H   0  0  0  0  0  0  0  0  0  0  0  0
   37.6520   27.2030   38.6100 H   0  0  0  0  0  0  0  0  0  0  0  0
   37.9260   28.7320   43.4660 C   0  0  0  0  0  0  0  0  0  0  0  0
   37.1410   28.8940   42.3440 C   0  0  0  0  0  0  0  0  0  0  0  0
   36.9750   27.8610   41.4020 C   0  0  0  0  0  0  0  0  0  0  0  0
   37.6290   26.7300   41.6880 N   0  0  0  0  0  0  0  0  0  0  0  0
   38.3870   26.5510   42.7580 C   0  0  0  0  0  0  0  0  0  0  0  0
   38.5470   27.5620   43.6720 N   0  0  0  0  0  0  0  0  0  0  0  0
   37.9240   29.6260   44.0530 H   0  0  0  0  0  0  0  0  0  0  0  0
   36.5840   29.8030   42.0640 H   0  0  0  0  0  0  0  0  0  0  0  0
   38.9390   25.6660   43.0420 H   0  0  0  0  0  0  0  0  0  0  0  0
   38.0080   29.0770   39.2680 O   0  0  0  0  0  0  0  0  0  0  0  0
   38.4130   29.6440   38.0710 C   0  0  0  0  0  0  0  0  0  0  0  0
   37.3670   29.7960   37.5940 H   0  0  0  0  0  0  0  0  0  0  0  0
   38.7990   28.9310   37.3140 H   0  0  0  0  0  0  0  0  0  0  0  0
   38.9400   31.0140   38.0670 C   0  0  0  0  0  3  0  0  0  0  0  0
   37.7410   31.9350   37.8100 C   0  0  0  0  0  2  0  0  0  0  0  0
   37.0240   32.2340   39.1290 C   0  0  0  0  0  2  0  0  0  0  0  0
   37.8920   33.1950   39.9150 C   0  0  0  0  0  2  0  0  0  0  0  0
   39.3590   32.8620   39.6830 C   0  0  0  0  0  2  0  0  0  0  0  0
   39.4260   31.3720   39.4810 C   0  0  0  0  0  2  0  0  0  0  0  0
  1  7  1  6  0  0  0
  1  2  1  0  0  0  0
  1 19  1  0  0  0  0
  2  9  1  0  0  0  0
  3 11  1  0  0  0  0
  3  2  1  0  0  0  0
  4 13  1  0  0  0  0
  4  3  1  0  0  0  0
  5  4  1  0  0  0  0
  5  6  1  0  0  0  0
  6 16  1  6  0  0  0
  6 26  1  0  0  0  0
  6  1  1  0  0  0  0
  8  2  1  0  0  0  0
 10  3  1  0  0  0  0
 12  4  1  0  0  0  0
 14  5  1  0  0  0  0
 15  5  1  0  0  0  0
 17 22  1  0  0  0  0
 17 23  1  0  0  0  0
 18 17  2  0  0  0  0
 19 20  2  0  0  0  0
 19 18  1  0  0  0  0
 20 21  1  0  0  0  0
 21 25  1  0  0  0  0
 21 22  2  0  0  0  0
 24 18  1  0  0  0  0
 27 26  1  0  0  0  0
 28 27  1  0  0  0  0
 29 27  1  0  0  0  0
 30 27  1  0  0  0  0
 30 35  1  0  0  0  0
 31 30  1  0  0  0  0
 31 32  1  0  0  0  0
 32 33  1  0  0  0  0
 34 33  1  0  0  0  0
 35 34  1  0  0  0  0
M  END
>  <minimizedAffinity>
-5.01526833

$$$$

 OpenBabel03242510313D

 35 37  0  0  1  0  0  0  0  0999 V2000
   37.9770   31.1690   38.8580 C   0  0  1  0  0  0  0  0  0  0  0  0
   36.9700   32.1620   39.4920 C   0  0  0  0  0  0  0  0  0  0  0  0
   37.7130   33.4550   39.6510 C   0  0  0  0  0  0  0  0  0  0  0  0
   38.6880   33.2120   40.7850 C   0  0  0  0  0  0  0  0  0  0  0  0
   39.5330   32.0600   40.5850 C   0  0  0  0  0  0  0  0  0  0  0  0
   38.9930   30.8150   39.8250 C   0  0  1  0  0  0  0  0  0  0  0  0
   38.3960   31.6920   37.9760 H   0  0  0  0  0  0  0  0  0  0  0  0
   36.7750   31.7550   40.5070 H   0  0  0  0  0  0  0  0  0  0  0  0
   36.0650   32.2470   38.8680 H   0  0  0  0  0  0  0  0  0  0  0  0
   38.2260   33.7230   38.7070 H   0  0  0  0  0  0  0  0  0  0  0  0
   37.0470   34.2690   39.9470 H   0  0  0  0  0  0  0  0  0  0  0  0
   39.2870   34.1440   40.8490 H   0  0  0  0  0  0  0  0  0  0  0  0
   38.0780   33.1630   41.7160 H   0  0  0  0  0  0  0  0  0  0  0  0
   40.3180   32.4300   39.8220 H   0  0  0  0  0  0  0  0  0  0  0  0
   40.1450   31.8480   41.4310 H   0  0  0  0  0  0  0  0  0  0  0  0
   39.9400   30.3740   39.5120 H   0  0  0  0  0  0  0  0  0  0  0  0
   36.8520   27.7620   37.4560 C   0  0  0  0  0  0  0  0  0  0  0  0
   37.6860   28.8120   37.7760 C   0  0  0  0  0  0  0  0  0  0  0  0
   37.2170   29.9440   38.4680 C   0  0  0  0  0  0  0  0  0  0  0  0
   35.9170   29.9110   38.7830 N   0  0  0  0  0  0  0  0  0  0  0  0
   35.0980   28.9150   38.4860 C   0  0  0  0  0  0  0  0  0  0  0  0
   35.5600   27.8150   37.8110 N   0  0  0  0  0  0  0  0  0  0  0  0
   37.3950   27.0020   36.9340 H   0  0  0  0  0  0  0  0  0  0  0  0
   38.7600   28.8870   37.5400 H   0  0  0  0  0  0  0  0  0  0  0  0
   34.0440   28.8310   38.7110 H   0  0  0  0  0  0  0  0  0  0  0  0
   38.4540   30.0070   40.8270 O   0  0  0  0  0  0  0  0  0  0  0  0
   39.4320   29.1510   41.3080 C   0  0  0  0  0  0  0  0  0  0  0  0
   39.6540   29.6930   42.3080 H   0  0  0  0  0  0  0  0  0  0  0  0
   40.4390   29.2830   40.8620 H   0  0  0  0  0  0  0  0  0  0  0  0
   39.0490   27.8140   41.7760 C   0  0  0  0  0  3  0  0  0  0  0  0
   38.9260   27.9110   43.3010 C   0  0  0  0  0  2  0  0  0  0  0  0
   37.5340   28.4230   43.6790 C   0  0  0  0  0  2  0  0  0  0  0  0
   36.5510   27.2950   43.4380 C   0  0  0  0  0  2  0  0  0  0  0  0
   36.9740   26.5050   42.2080 C   0  0  0  0  0  2  0  0  0  0  0  0
   37.6290   27.4930   41.2790 C   0  0  0  0  0  2  0  0  0  0  0  0
  1  7  1  6  0  0  0
  1  2  1  0  0  0  0
  1  6  1  0  0  0  0
  2  3  1  0  0  0  0
  2  8  1  0  0  0  0
  3 11  1  0  0  0  0
  3  4  1  0  0  0  0
  4 12  1  0  0  0  0
  4 13  1  0  0  0  0
  5  4  1  0  0  0  0
  5 15  1  0  0  0  0
  6 16  1  6  0  0  0
  6  5  1  0  0  0  0
  6 26  1  0  0  0  0
  9  2  1  0  0  0  0
 10  3  1  0  0  0  0
 14  5  1  0  0  0  0
 17 18  2  0  0  0  0
 17 22  1  0  0  0  0
 18 19  1  0  0  0  0
 19 20  2  0  0  0  0
 19  1  1  0  0  0  0
 21 25  1  0  0  0  0
 21 20  1  0  0  0  0
 22 21  2  0  0  0  0
 23 17  1  0  0  0  0
 24 18  1  0  0  0  0
 26 27  1  0  0  0  0
 27 30  1  0  0  0  0
 27 28  1  0  0  0  0
 29 27  1  0  0  0  0
 30 31  1  0  0  0  0
 31 32  1  0  0  0  0
 33 32  1  0  0  0  0
 34 33  1  0  0  0  0
 35 30  1  0  0  0  0
 35 34  1  0  0  0  0
M  END
>  <minimizedAffinity>
-4.97063494

$$$$

 OpenBabel03242510313D

 35 37  0  0  1  0  0  0  0  0999 V2000
   38.4970   25.5620   42.3290 C   0  0  1  0  0  0  0  0  0  0  0  0
   39.7280   26.5040   42.3520 C   0  0  0  0  0  0  0  0  0  0  0  0
   39.5990   27.3160   43.6060 C   0  0  0  0  0  0  0  0  0  0  0  0
   38.4590   28.2780   43.3370 C   0  0  0  0  0  0  0  0  0  0  0  0
   37.2400   27.6270   42.9210 C   0  0  0  0  0  0  0  0  0  0  0  0
   37.2980   26.3270   42.0690 C   0  0  1  0  0  0  0  0  0  0  0  0
   38.4800   25.0700   43.3220 H   0  0  0  0  0  0  0  0  0  0  0  0
   39.5770   27.1850   41.4880 H   0  0  0  0  0  0  0  0  0  0  0  0
   40.6620   25.9210   42.2980 H   0  0  0  0  0  0  0  0  0  0  0  0
   39.3960   26.6590   44.4730 H   0  0  0  0  0  0  0  0  0  0  0  0
   40.4990   27.9060   43.7980 H   0  0  0  0  0  0  0  0  0  0  0  0
   38.3170   28.8250   44.2910 H   0  0  0  0  0  0  0  0  0  0  0  0
   38.8430   29.0200   42.6000 H   0  0  0  0  0  0  0  0  0  0  0  0
   36.8120   27.1990   43.9040 H   0  0  0  0  0  0  0  0  0  0  0  0
   36.4790   28.3210   42.6440 H   0  0  0  0  0  0  0  0  0  0  0  0
   36.3100   25.9230   42.2970 H   0  0  0  0  0  0  0  0  0  0  0  0
   39.6960   23.6530   39.2050 C   0  0  0  0  0  0  0  0  0  0  0  0
   39.6420   24.6290   40.1770 C   0  0  0  0  0  0  0  0  0  0  0  0
   38.7050   24.5770   41.2260 C   0  0  0  0  0  0  0  0  0  0  0  0
   37.8890   23.5170   41.1980 N   0  0  0  0  0  0  0  0  0  0  0  0
   37.9220   22.5690   40.2760 C   0  0  0  0  0  0  0  0  0  0  0  0
   38.8370   22.6250   39.2550 N   0  0  0  0  0  0  0  0  0  0  0  0
   40.4710   23.8720   38.5010 H   0  0  0  0  0  0  0  0  0  0  0  0
   40.2900   25.5190   40.2440 H   0  0  0  0  0  0  0  0  0  0  0  0
   37.2930   21.6930   40.1990 H   0  0  0  0  0  0  0  0  0  0  0  0
   37.2820   26.7790   40.7490 O   0  0  0  0  0  0  0  0  0  0  0  0
   36.2670   27.7080   40.5900 C   0  0  0  0  0  0  0  0  0  0  0  0
   36.4100   28.2870   41.5840 H   0  0  0  0  0  0  0  0  0  0  0  0
   35.2440   27.3350   40.8020 H   0  0  0  0  0  0  0  0  0  0  0  0
   36.4230   28.7800   39.5990 C   0  0  0  0  0  3  0  0  0  0  0  0
   35.5180   29.9280   40.0620 C   0  0  0  0  0  2  0  0  0  0  0  0
   36.2560   30.7910   41.0870 C   0  0  0  0  0  2  0  0  0  0  0  0
   37.2960   31.6020   40.3400 C   0  0  0  0  0  2  0  0  0  0  0  0
   37.8730   30.7670   39.2060 C   0  0  0  0  0  2  0  0  0  0  0  0
   37.8540   29.3390   39.6820 C   0  0  0  0  0  2  0  0  0  0  0  0
  1  2  1  0  0  0  0
  1  7  1  1  0  0  0
  2  3  1  0  0  0  0
  3 11  1  0  0  0  0
  3 10  1  0  0  0  0
  4  3  1  0  0  0  0
  4 12  1  0  0  0  0
  5  4  1  0  0  0  0
  5 14  1  0  0  0  0
  6 16  1  1  0  0  0
  6  1  1  0  0  0  0
  6  5  1  0  0  0  0
  8  2  1  0  0  0  0
  9  2  1  0  0  0  0
 13  4  1  0  0  0  0
 15  5  1  0  0  0  0
 17 22  2  0  0  0  0
 17 18  1  0  0  0  0
 18 24  1  0  0  0  0
 18 19  2  0  0  0  0
 19  1  1  0  0  0  0
 20 19  1  0  0  0  0
 21 20  2  0  0  0  0
 22 21  1  0  0  0  0
 23 17  1  0  0  0  0
 25 21  1  0  0  0  0
 26  6  1  0  0  0  0
 27 26  1  0  0  0  0
 27 29  1  0  0  0  0
 27 28  1  0  0  0  0
 30 35  1  0  0  0  0
 30 31  1  0  0  0  0
 30 27  1  0  0  0  0
 31 32  1  0  0  0  0
 33 32  1  0  0  0  0
 34 35  1  0  0  0  0
 34 33  1  0  0  0  0
M  END
>  <minimizedAffinity>
-4.77088976

$$$$

 OpenBabel03242510313D

 35 37  0  0  1  0  0  0  0  0999 V2000
   39.8040   29.1640   42.9150 C   0  0  1  0  0  0  0  0  0  0  0  0
   41.0350   28.7430   42.0730 C   0  0  0  0  0  0  0  0  0  0  0  0
   42.1290   29.7000   42.4390 C   0  0  0  0  0  0  0  0  0  0  0  0
   41.7330   31.0160   41.8000 C   0  0  0  0  0  0  0  0  0  0  0  0
   40.4090   31.4590   42.1620 C   0  0  0  0  0  0  0  0  0  0  0  0
   39.2800   30.4200   42.4260 C   0  0  1  0  0  0  0  0  0  0  0  0
   40.1670   29.2340   43.9600 H   0  0  0  0  0  0  0  0  0  0  0  0
   40.7400   28.9490   41.0220 H   0  0  0  0  0  0  0  0  0  0  0  0
   41.2910   27.6870   42.2620 H   0  0  0  0  0  0  0  0  0  0  0  0
   42.2200   29.7800   43.5400 H   0  0  0  0  0  0  0  0  0  0  0  0
   43.0900   29.3960   42.0160 H   0  0  0  0  0  0  0  0  0  0  0  0
   42.5040   31.7390   42.1360 H   0  0  0  0  0  0  0  0  0  0  0  0
   41.8760   30.8850   40.7030 H   0  0  0  0  0  0  0  0  0  0  0  0
   40.5450   31.8750   43.2300 H   0  0  0  0  0  0  0  0  0  0  0  0
   40.1090   32.3330   41.6310 H   0  0  0  0  0  0  0  0  0  0  0  0
   38.6170   31.0320   43.0390 H   0  0  0  0  0  0  0  0  0  0  0  0
   37.7550   26.0700   41.8790 C   0  0  0  0  0  0  0  0  0  0  0  0
   38.8120   26.9540   41.9440 C   0  0  0  0  0  0  0  0  0  0  0  0
   38.7670   28.1010   42.7590 C   0  0  0  0  0  0  0  0  0  0  0  0
   37.6330   28.2540   43.4510 N   0  0  0  0  0  0  0  0  0  0  0  0
   36.6060   27.4200   43.4050 C   0  0  0  0  0  0  0  0  0  0  0  0
   36.6550   26.3040   42.6080 N   0  0  0  0  0  0  0  0  0  0  0  0
   37.9820   25.2680   41.2080 H   0  0  0  0  0  0  0  0  0  0  0  0
   39.7640   26.8730   41.3950 H   0  0  0  0  0  0  0  0  0  0  0  0
   35.6680   27.4890   43.9370 H   0  0  0  0  0  0  0  0  0  0  0  0
   38.6750   30.2470   41.1810 O   0  0  0  0  0  0  0  0  0  0  0  0
   37.9620   31.3870   40.8490 C   0  0  0  0  0  0  0  0  0  0  0  0
   38.7630   31.9010   40.1880 H   0  0  0  0  0  0  0  0  0  0  0  0
   37.9220   32.1680   41.6360 H   0  0  0  0  0  0  0  0  0  0  0  0
   36.8330   31.2830   39.9170 C   0  0  0  0  0  3  0  0  0  0  0  0
   37.1920   32.1580   38.7090 C   0  0  0  0  0  2  0  0  0  0  0  0
   38.0530   31.3600   37.7280 C   0  0  0  0  0  2  0  0  0  0  0  0
   37.1500   30.3620   37.0320 C   0  0  0  0  0  2  0  0  0  0  0  0
   36.1040   29.8510   38.0130 C   0  0  0  0  0  2  0  0  0  0  0  0
   36.7630   29.8480   39.3670 C   0  0  0  0  0  2  0  0  0  0  0  0
  1  7  1  1  0  0  0
  2  9  1  0  0  0  0
  2  3  1  0  0  0  0
  2  1  1  0  0  0  0
  3 10  1  0  0  0  0
  4 12  1  0  0  0  0
  4  5  1  0  0  0  0
  4  3  1  0  0  0  0
  5  6  1  0  0  0  0
  5 14  1  0  0  0  0
  6  1  1  0  0  0  0
  6 16  1  1  0  0  0
  8  2  1  0  0  0  0
 11  3  1  0  0  0  0
 13  4  1  0  0  0  0
 15  5  1  0  0  0  0
 17 18  2  0  0  0  0
 17 22  1  0  0  0  0
 18 19  1  0  0  0  0
 19  1  1  0  0  0  0
 19 20  2  0  0  0  0
 21 20  1  0  0  0  0
 21 25  1  0  0  0  0
 22 21  2  0  0  0  0
 23 17  1  0  0  0  0
 24 18  1  0  0  0  0
 26  6  1  0  0  0  0
 27 26  1  0  0  0  0
 27 29  1  0  0  0  0
 28 27  1  0  0  0  0
 30 27  1  0  0  0  0
 31 30  1  0  0  0  0
 32 31  1  0  0  0  0
 33 32  1  0  0  0  0
 33 34  1  0  0  0  0
 34 35  1  0  0  0  0
 35 30  1  0  0  0  0
M  END
>  <minimizedAffinity>
-4.7021265

$$$$

 OpenBabel03242510313D

 35 37  0  0  1  0  0  0  0  0999 V2000
   38.4070   29.9020   42.2260 C   0  0  1  0  0  0  0  0  0  0  0  0
   37.6690   29.4540   40.9390 C   0  0  0  0  0  0  0  0  0  0  0  0
   36.3010   29.0250   41.3790 C   0  0  0  0  0  0  0  0  0  0  0  0
   36.5130   27.7130   42.1050 C   0  0  0  0  0  0  0  0  0  0  0  0
   37.4830   27.7920   43.1710 C   0  0  0  0  0  0  0  0  0  0  0  0
   38.7030   28.7510   43.0490 C   0  0  1  0  0  0  0  0  0  0  0  0
   37.7240   30.6170   42.7270 H   0  0  0  0  0  0  0  0  0  0  0  0
   38.2170   28.5490   40.6020 H   0  0  0  0  0  0  0  0  0  0  0  0
   37.6590   30.2680   40.1950 H   0  0  0  0  0  0  0  0  0  0  0  0
   35.8460   29.7960   42.0300 H   0  0  0  0  0  0  0  0  0  0  0  0
   35.6440   28.8360   40.5260 H   0  0  0  0  0  0  0  0  0  0  0  0
   35.5110   27.4370   42.4940 H   0  0  0  0  0  0  0  0  0  0  0  0
   36.7680   26.9610   41.3240 H   0  0  0  0  0  0  0  0  0  0  0  0
   36.9070   28.3150   44.0240 H   0  0  0  0  0  0  0  0  0  0  0  0
   37.6910   26.8420   43.6070 H   0  0  0  0  0  0  0  0  0  0  0  0
   38.9460   28.8610   44.1070 H   0  0  0  0  0  0  0  0  0  0  0  0
   41.8300   31.6650   42.0950 C   0  0  0  0  0  0  0  0  0  0  0  0
   40.7130   31.0560   42.6280 C   0  0  0  0  0  0  0  0  0  0  0  0
   39.6840   30.5540   41.8090 C   0  0  0  0  0  0  0  0  0  0  0  0
   39.8820   30.7150   40.4960 N   0  0  0  0  0  0  0  0  0  0  0  0
   40.9440   31.2960   39.9620 C   0  0  0  0  0  0  0  0  0  0  0  0
   41.9440   31.7840   40.7650 N   0  0  0  0  0  0  0  0  0  0  0  0
   42.4910   31.9760   42.8770 H   0  0  0  0  0  0  0  0  0  0  0  0
   40.5040   30.8990   43.6980 H   0  0  0  0  0  0  0  0  0  0  0  0
   41.1600   31.4560   38.9160 H   0  0  0  0  0  0  0  0  0  0  0  0
   39.6970   27.9700   42.4590 O   0  0  0  0  0  0  0  0  0  0  0  0
   39.7610   26.7410   43.0970 C   0  0  0  0  0  0  0  0  0  0  0  0
   38.6230   26.5490   43.2080 H   0  0  0  0  0  0  0  0  0  0  0  0
   39.9930   26.7800   44.1810 H   0  0  0  0  0  0  0  0  0  0  0  0
   40.1860   25.5590   42.3380 C   0  0  0  0  0  3  0  0  0  0  0  0
   39.4200   24.3700   42.9290 C   0  0  0  0  0  2  0  0  0  0  0  0
   38.0380   24.2680   42.2800 C   0  0  0  0  0  2  0  0  0  0  0  0
   38.2310   23.7430   40.8720 C   0  0  0  0  0  2  0  0  0  0  0  0
   39.5170   24.3110   40.2890 C   0  0  0  0  0  2  0  0  0  0  0  0
   39.6830   25.6810   40.8900 C   0  0  0  0  0  2  0  0  0  0  0  0
  1  7  1  1  0  0  0
  1  6  1  0  0  0  0
  2  3  1  0  0  0  0
  2  1  1  0  0  0  0
  3 10  1  0  0  0  0
  3  4  1  0  0  0  0
  4 12  1  0  0  0  0
  4  5  1  0  0  0  0
  5 15  1  0  0  0  0
  5 14  1  0  0  0  0
  6  5  1  0  0  0  0
  6 16  1  1  0  0  0
  8  2  1  0  0  0  0
  9  2  1  0  0  0  0
 11  3  1  0  0  0  0
 13  4  1  0  0  0  0
 17 18  1  0  0  0  0
 17 23  1  0  0  0  0
 18 24  1  0  0  0  0
 19  1  1  0  0  0  0
 19 18  2  0  0  0  0
 20 19  1  0  0  0  0
 21 20  2  0  0  0  0
 21 22  1  0  0  0  0
 22 17  2  0  0  0  0
 25 21  1  0  0  0  0
 26  6  1  0  0  0  0
 26 27  1  0  0  0  0
 27 28  1  0  0  0  0
 27 29  1  0  0  0  0
 30 31  1  0  0  0  0
 30 27  1  0  0  0  0
 32 31  1  0  0  0  0
 33 32  1  0  0  0  0
 34 33  1  0  0  0  0
 34 35  1  0  0  0  0
 35 30  1  0  0  0  0
M  END
>  <minimizedAffinity>
-4.65441847

$$$$

 OpenBabel03242510313D

 35 37  0  0  1  0  0  0  0  0999 V2000
   37.0230   26.8900   41.0320 C   0  0  1  0  0  0  0  0  0  0  0  0
   38.4850   26.4990   41.3650 C   0  0  0  0  0  0  0  0  0  0  0  0
   38.4880   26.1200   42.8160 C   0  0  0  0  0  0  0  0  0  0  0  0
   38.3210   27.4280   43.5650 C   0  0  0  0  0  0  0  0  0  0  0  0
   37.1680   28.1880   43.1500 C   0  0  0  0  0  0  0  0  0  0  0  0
   36.6910   28.1440   41.6700 C   0  0  1  0  0  0  0  0  0  0  0  0
   36.3990   26.0500   41.3970 H   0  0  0  0  0  0  0  0  0  0  0  0
   39.0600   27.4440   41.2590 H   0  0  0  0  0  0  0  0  0  0  0  0
   38.8330   25.6930   40.6980 H   0  0  0  0  0  0  0  0  0  0  0  0
   37.6680   25.4080   43.0300 H   0  0  0  0  0  0  0  0  0  0  0  0
   39.4420   25.6790   43.1160 H   0  0  0  0  0  0  0  0  0  0  0  0
   38.2470   27.1360   44.6330 H   0  0  0  0  0  0  0  0  0  0  0  0
   39.2840   27.9770   43.4520 H   0  0  0  0  0  0  0  0  0  0  0  0
   36.2860   27.6420   43.6570 H   0  0  0  0  0  0  0  0  0  0  0  0
   37.1190   29.1460   43.6170 H   0  0  0  0  0  0  0  0  0  0  0  0
   35.6540   28.4490   41.8090 H   0  0  0  0  0  0  0  0  0  0  0  0
   35.8360   27.3530   37.3960 C   0  0  0  0  0  0  0  0  0  0  0  0
   35.7740   27.2560   38.7700 C   0  0  0  0  0  0  0  0  0  0  0  0
   36.9270   27.0480   39.5490 C   0  0  0  0  0  0  0  0  0  0  0  0
   38.0660   26.9550   38.8540 N   0  0  0  0  0  0  0  0  0  0  0  0
   38.1510   27.0440   37.5370 C   0  0  0  0  0  0  0  0  0  0  0  0
   37.0230   27.2460   36.7820 N   0  0  0  0  0  0  0  0  0  0  0  0
   34.8600   27.5110   36.9890 H   0  0  0  0  0  0  0  0  0  0  0  0
   34.8630   27.3260   39.3870 H   0  0  0  0  0  0  0  0  0  0  0  0
   39.0360   26.9760   36.9210 H   0  0  0  0  0  0  0  0  0  0  0  0
   37.3700   29.1990   41.0580 O   0  0  0  0  0  0  0  0  0  0  0  0
   36.6600   30.3740   41.2400 C   0  0  0  0  0  0  0  0  0  0  0  0
   37.3870   30.8990   41.9760 H   0  0  0  0  0  0  0  0  0  0  0  0
   35.7980   30.3060   41.9360 H   0  0  0  0  0  0  0  0  0  0  0  0
   36.5920   31.3510   40.1460 C   0  0  0  0  0  3  0  0  0  0  0  0
   37.6680   32.4030   40.4430 C   0  0  0  0  0  2  0  0  0  0  0  0
   39.0210   31.9270   39.9110 C   0  0  0  0  0  2  0  0  0  0  0  0
   38.9890   32.0470   38.4010 C   0  0  0  0  0  2  0  0  0  0  0  0
   37.5940   31.7080   37.8940 C   0  0  0  0  0  2  0  0  0  0  0  0
   37.0420   30.6750   38.8390 C   0  0  0  0  0  2  0  0  0  0  0  0
  1  2  1  0  0  0  0
  1  7  1  1  0  0  0
  1  6  1  0  0  0  0
  2  3  1  0  0  0  0
  3 10  1  0  0  0  0
  3 11  1  0  0  0  0
  3  4  1  0  0  0  0
  4 12  1  0  0  0  0
  5  4  1  0  0  0  0
  5 15  1  0  0  0  0
  5 14  1  0  0  0  0
  6 16  1  6  0  0  0
  6  5  1  0  0  0  0
  8  2  1  0  0  0  0
  9  2  1  0  0  0  0
 13  4  1  0  0  0  0
 17 18  1  0  0  0  0
 18 24  1  0  0  0  0
 18 19  2  0  0  0  0
 19  1  1  0  0  0  0
 20 19  1  0  0  0  0
 21 20  2  0  0  0  0
 22 17  2  0  0  0  0
 22 21  1  0  0  0  0
 23 17  1  0  0  0  0
 25 21  1  0  0  0  0
 26 27  1  0  0  0  0
 26  6  1  0  0  0  0
 27 29  1  0  0  0  0
 27 28  1  0  0  0  0
 30 31  1  0  0  0  0
 30 27  1  0  0  0  0
 32 31  1  0  0  0  0
 33 32  1  0  0  0  0
 34 33  1  0  0  0  0
 34 35  1  0  0  0  0
 35 30  1  0  0  0  0
M  END
>  <minimizedAffinity>
-4.64457655

$$$$
