
 OpenBabel03252505493D

 19 20  0  0  0  0  0  0  0  0999 V2000
   44.8560   35.0610   44.9070 C   0  0  0  0  0  0  0  0  0  0  0  0
   45.8300   34.6330   44.0070 C   0  0  0  0  0  0  0  0  0  0  0  0
   46.6850   33.6270   44.4300 C   0  0  0  0  0  0  0  0  0  0  0  0
   46.5490   33.1080   45.6710 N   0  0  0  0  0  0  0  0  0  0  0  0
   45.5940   33.5530   46.5070 C   0  0  0  0  0  0  0  0  0  0  0  0
   44.7360   34.5280   46.1470 N   0  0  0  0  0  0  0  0  0  0  0  0
   44.1570   35.8370   44.6470 H   0  0  0  0  0  0  0  0  0  0  0  0
   47.4290   33.3130   43.7190 H   0  0  0  0  0  0  0  0  0  0  0  0
   45.8620   35.3000   42.6630 C   0  0  0  0  0  0  0  0  0  0  0  0
   45.1240   36.4530   42.7970 F   0  0  0  0  0  0  0  0  0  0  0  0
   45.2690   34.4500   41.7660 F   0  0  0  0  0  0  0  0  0  0  0  0
   47.1860   35.5230   42.3410 F   0  0  0  0  0  0  0  0  0  0  0  0
   45.4470   33.0220   47.7920 O   0  0  0  0  0  0  0  0  0  0  0  0
   45.5200   31.6310   48.0400 C   0  0  0  0  0  3  0  0  0  0  0  0
   46.7300   31.3020   48.8650 C   0  0  0  0  0  2  0  0  0  0  0  0
   47.8630   30.7190   48.0850 C   0  0  0  0  0  2  0  0  0  0  0  0
   47.4700   29.5540   47.2220 C   0  0  0  0  0  2  0  0  0  0  0  0
   46.0150   29.5310   46.8390 C   0  0  0  0  0  2  0  0  0  0  0  0
   45.5390   30.9460   46.6900 C   0  0  0  0  0  2  0  0  0  0  0  0
  1  6  1  0  0  0  0
  2  3  1  0  0  0  0
  2  1  2  0  0  0  0
  3  4  2  0  0  0  0
  4  5  1  0  0  0  0
  5 13  1  0  0  0  0
  6  5  2  0  0  0  0
  7  1  1  0  0  0  0
  8  3  1  0  0  0  0
  9 10  1  0  0  0  0
  9  2  1  0  0  0  0
 11  9  1  0  0  0  0
 12  9  1  0  0  0  0
 13 14  1  0  0  0  0
 14 15  1  0  0  0  0
 16 15  1  0  0  0  0
 17 16  1  0  0  0  0
 18 17  1  0  0  0  0
 19 18  1  0  0  0  0
 19 14  1  0  0  0  0
M  END
>  <minimizedAffinity>
-4.73194838

>  <minimizedRMSD>
0.859610736

$$$$
