
 OpenBabel03242515003D

 34 36  0  0  0  0  0  0  0  0999 V2000
   42.1420   34.7640   41.4280 C   0  0  0  0  0  0  0  0  0  0  0  0
   42.1830   34.9090   42.5320 H   0  0  0  0  0  0  0  0  0  0  0  0
   41.6550   33.7570   41.2760 H   0  0  0  0  0  0  0  0  0  0  0  0
   41.2800   35.7810   40.7550 C   0  0  0  0  0  0  0  0  0  0  0  0
   40.6160   36.2160   41.5420 H   0  0  0  0  0  0  0  0  0  0  0  0
   41.8380   36.6200   40.3110 H   0  0  0  0  0  0  0  0  0  0  0  0
   41.9910   36.0970   37.8130 Cl  0  0  0  0  0  0  0  0  0  0  0  0
   40.6130   35.2220   38.3890 C   0  0  0  0  0  0  0  0  0  0  0  0
   40.3710   35.1340   39.7780 C   0  0  0  0  0  0  0  0  0  0  0  0
   39.2630   34.4260   40.1460 C   0  0  0  0  0  0  0  0  0  0  0  0
   38.3580   33.7890   39.3120 C   0  0  0  0  0  0  0  0  0  0  0  0
   38.6120   33.8870   37.9530 C   0  0  0  0  0  0  0  0  0  0  0  0
   37.5250   33.1140   36.8020 Cl  0  0  0  0  0  0  0  0  0  0  0  0
   39.7170   34.5890   37.5170 C   0  0  0  0  0  0  0  0  0  0  0  0
   39.0500   34.3430   41.2170 H   0  0  0  0  0  0  0  0  0  0  0  0
   37.5080   33.2520   39.7040 H   0  0  0  0  0  0  0  0  0  0  0  0
   39.9090   34.6600   36.4470 H   0  0  0  0  0  0  0  0  0  0  0  0
   43.8080   34.6710   40.7460 S   0  0  0  0  0  0  0  0  0  0  0  0
   45.0620   34.4620   42.0170 C   0  0  0  0  0  0  0  0  0  0  0  0
   46.3920   34.6120   41.6120 C   0  0  0  0  0  0  0  0  0  0  0  0
   47.4010   34.4580   42.5640 C   0  0  0  0  0  0  0  0  0  0  0  0
   47.0290   34.1700   43.8390 N   0  0  0  0  0  0  0  0  0  0  0  0
   45.7470   34.0300   44.2130 C   0  0  0  0  0  0  0  0  0  0  0  0
   44.7870   34.1780   43.2930 N   0  0  0  0  0  0  0  0  0  0  0  0
   46.6180   34.8420   40.5800 H   0  0  0  0  0  0  0  0  0  0  0  0
   48.4310   34.5710   42.2700 H   0  0  0  0  0  0  0  0  0  0  0  0
   45.4560   33.7220   45.5980 C   0  0  0  0  0  0  0  0  0  0  0  0
   44.9630   34.6440   46.2980 O   0  0  0  0  0  0  0  0  0  0  0  0
   45.7190   32.3700   46.2060 C   0  0  0  0  0  3  0  0  0  0  0  0
   47.0560   31.8860   45.6870 C   0  0  0  0  0  2  0  0  0  0  0  0
   47.5260   30.6570   46.3910 C   0  0  0  0  0  2  0  0  0  0  0  0
   47.6780   30.9130   47.8550 C   0  0  0  0  0  2  0  0  0  0  0  0
   47.1500   32.2920   48.1880 C   0  0  0  0  0  2  0  0  0  0  0  0
   45.7020   32.4020   47.7010 C   0  0  0  0  0  2  0  0  0  0  0  0
  1  2  1  0  0  0  0
  3  1  1  0  0  0  0
  4  1  1  0  0  0  0
  4  5  1  0  0  0  0
  6  4  1  0  0  0  0
  7  8  1  0  0  0  0
  8  9  1  0  0  0  0
  9 10  2  0  0  0  0
  9  4  1  0  0  0  0
 10 15  1  0  0  0  0
 11 16  1  0  0  0  0
 11 10  1  0  0  0  0
 12 11  2  0  0  0  0
 13 12  1  0  0  0  0
 14 12  1  0  0  0  0
 14  8  2  0  0  0  0
 17 14  1  0  0  0  0
 18  1  1  0  0  0  0
 18 19  1  0  0  0  0
 19 24  1  0  0  0  0
 20 19  2  0  0  0  0
 20 21  1  0  0  0  0
 21 22  2  0  0  0  0
 22 23  1  0  0  0  0
 23 27  1  0  0  0  0
 24 23  2  0  0  0  0
 25 20  1  0  0  0  0
 26 21  1  0  0  0  0
 27 29  1  0  0  0  0
 27 28  2  0  0  0  0
 29 34  1  0  0  0  0
 30 29  1  0  0  0  0
 30 31  1  0  0  0  0
 31 32  1  0  0  0  0
 32 33  1  0  0  0  0
 34 33  1  0  0  0  0
M  END
>  <minimizedAffinity>
-6.61672115

>  <minimizedRMSD>
0.77312088

$$$$
