
 OpenBabel03242523533D

 40 43  0  0  1  0  0  0  0  0999 V2000
   38.7410   31.5820   39.9770 C   0  0  1  0  0  0  0  0  0  0  0  0
   39.6480   32.2150   41.0370 C   0  0  1  0  0  0  0  0  0  0  0  0
   39.2180   33.5350   41.2730 O   0  0  0  0  0  0  0  0  0  0  0  0
   38.7270   34.1610   40.1270 C   0  0  0  0  0  0  0  0  0  0  0  0
   37.4060   33.5580   39.7010 C   0  0  2  0  0  0  0  0  0  0  0  0
   37.3520   32.1270   40.2740 C   0  0  1  0  0  0  0  0  0  0  0  0
   38.7370   30.4710   40.0910 H   0  0  0  0  0  0  0  0  0  0  0  0
   40.7060   32.2010   40.7350 H   0  0  0  0  0  0  0  0  0  0  0  0
   38.5830   35.2210   40.4240 H   0  0  0  0  0  0  0  0  0  0  0  0
   39.4810   34.1970   39.3080 H   0  0  0  0  0  0  0  0  0  0  0  0
   36.5470   34.1460   40.0480 H   0  0  0  0  0  0  0  0  0  0  0  0
   37.2500   32.2490   41.3600 H   0  0  0  0  0  0  0  0  0  0  0  0
   39.1400   31.9660   38.6990 O   0  0  0  0  0  0  0  0  0  0  0  0
   40.1390   31.9230   38.6980 H   0  0  0  0  0  0  0  0  0  0  0  0
   37.4340   33.3650   38.3130 O   0  0  0  0  0  0  0  0  0  0  0  0
   36.7480   33.8610   37.8410 H   0  0  0  0  0  0  0  0  0  0  0  0
   39.3680   31.5380   42.2290 O   0  0  0  0  0  0  0  0  0  0  0  0
   39.6570   30.2580   42.4780 C   0  0  0  0  0  0  0  0  0  0  0  0
   38.6610   29.3530   42.8400 C   0  0  0  0  0  0  0  0  0  0  0  0
   39.0150   28.0360   43.0850 C   0  0  0  0  0  0  0  0  0  0  0  0
   40.3380   27.6490   42.9670 N   0  0  0  0  0  0  0  0  0  0  0  0
   41.2740   28.5550   42.6140 C   0  0  0  0  0  0  0  0  0  0  0  0
   40.9420   29.8460   42.3710 N   0  0  0  0  0  0  0  0  0  0  0  0
   37.6370   29.6860   42.9230 H   0  0  0  0  0  0  0  0  0  0  0  0
   42.2950   28.2050   42.5340 H   0  0  0  0  0  0  0  0  0  0  0  0
   37.9760   27.0230   43.4910 C   0  0  0  0  0  0  0  0  0  0  0  0
   36.5610   27.5150   43.6780 C   0  0  0  0  0  0  0  0  0  0  0  0
   36.9960   26.5810   42.5340 C   0  0  0  0  0  0  0  0  0  0  0  0
   38.3230   26.4420   44.3810 H   0  0  0  0  0  0  0  0  0  0  0  0
   35.9260   27.0950   44.4830 H   0  0  0  0  0  0  0  0  0  0  0  0
   36.3430   28.5580   43.3520 H   0  0  0  0  0  0  0  0  0  0  0  0
   37.0320   27.0000   41.5170 H   0  0  0  0  0  0  0  0  0  0  0  0
   36.5920   25.5460   42.6490 H   0  0  0  0  0  0  0  0  0  0  0  0
   36.3380   31.3970   39.6860 O   0  0  0  0  0  0  0  0  0  0  0  0
   36.5150   30.0330   39.7710 C   0  0  0  0  0  3  0  0  0  0  0  0
   35.4490   29.3090   40.5240 C   0  0  0  0  0  2  0  0  0  0  0  0
   34.2230   29.0060   39.7040 C   0  0  0  0  0  2  0  0  0  0  0  0
   34.5690   28.2960   38.4070 C   0  0  0  0  0  2  0  0  0  0  0  0
   35.4280   29.2850   37.6310 C   0  0  0  0  0  2  0  0  0  0  0  0
   36.7250   29.3830   38.4250 C   0  0  0  0  0  2  0  0  0  0  0  0
  1  7  1  1  0  0  0
  1  6  1  0  0  0  0
  1  2  1  0  0  0  0
  2  8  1  6  0  0  0
  2  3  1  0  0  0  0
  2 17  1  0  0  0  0
  4  9  1  0  0  0  0
  4  3  1  0  0  0  0
  5 11  1  1  0  0  0
  5  4  1  0  0  0  0
  5  6  1  0  0  0  0
  6 12  1  1  0  0  0
 10  4  1  0  0  0  0
 13  1  1  0  0  0  0
 14 13  1  0  0  0  0
 15  5  1  0  0  0  0
 16 15  1  0  0  0  0
 17 18  1  0  0  0  0
 18 19  1  0  0  0  0
 19 24  1  0  0  0  0
 19 20  2  0  0  0  0
 20 26  1  0  0  0  0
 21 20  1  0  0  0  0
 22 21  2  0  0  0  0
 23 18  2  0  0  0  0
 23 22  1  0  0  0  0
 25 22  1  0  0  0  0
 26 27  1  0  0  0  0
 26 29  1  0  0  0  0
 27 30  1  0  0  0  0
 28 33  1  0  0  0  0
 28 26  1  0  0  0  0
 28 27  1  0  0  0  0
 31 27  1  0  0  0  0
 32 28  1  0  0  0  0
 34 35  1  0  0  0  0
 34  6  1  0  0  0  0
 35 36  1  0  0  0  0
 37 36  1  0  0  0  0
 38 37  1  0  0  0  0
 39 38  1  0  0  0  0
 39 40  1  0  0  0  0
 40 35  1  0  0  0  0
M  END
>  <minimizedAffinity>
-6.09978151

$$$$

 OpenBabel03242523533D

 40 43  0  0  1  0  0  0  0  0999 V2000
   37.1630   31.6040   39.8640 C   0  0  1  0  0  0  0  0  0  0  0  0
   37.5210   31.7100   38.3780 C   0  0  1  0  0  0  0  0  0  0  0  0
   38.8770   32.0730   38.2630 O   0  0  0  0  0  0  0  0  0  0  0  0
   39.2980   32.9340   39.2770 C   0  0  0  0  0  0  0  0  0  0  0  0
   39.3610   32.2170   40.6080 C   0  0  2  0  0  0  0  0  0  0  0  0
   38.4000   31.0140   40.5250 C   0  0  1  0  0  0  0  0  0  0  0  0
   36.3000   30.9080   40.0000 H   0  0  0  0  0  0  0  0  0  0  0  0
   36.8810   32.4330   37.8510 H   0  0  0  0  0  0  0  0  0  0  0  0
   40.3150   33.2560   38.9700 H   0  0  0  0  0  0  0  0  0  0  0  0
   38.7020   33.8750   39.3090 H   0  0  0  0  0  0  0  0  0  0  0  0
   40.3770   31.8850   40.8560 H   0  0  0  0  0  0  0  0  0  0  0  0
   38.8690   30.3120   39.8230 H   0  0  0  0  0  0  0  0  0  0  0  0
   36.8950   32.8640   40.3940 O   0  0  0  0  0  0  0  0  0  0  0  0
   36.3500   33.3420   39.7050 H   0  0  0  0  0  0  0  0  0  0  0  0
   38.7830   33.0430   41.5840 O   0  0  0  0  0  0  0  0  0  0  0  0
   39.3970   33.2880   42.2940 H   0  0  0  0  0  0  0  0  0  0  0  0
   37.4660   30.4030   37.8810 O   0  0  0  0  0  0  0  0  0  0  0  0
   36.5490   29.9370   37.0300 C   0  0  0  0  0  0  0  0  0  0  0  0
   35.3240   29.4550   37.4860 C   0  0  0  0  0  0  0  0  0  0  0  0
   34.4060   28.9850   36.5600 C   0  0  0  0  0  0  0  0  0  0  0  0
   34.7220   29.0030   35.2130 N   0  0  0  0  0  0  0  0  0  0  0  0
   35.9200   29.4770   34.8100 C   0  0  0  0  0  0  0  0  0  0  0  0
   36.8270   29.9400   35.7050 N   0  0  0  0  0  0  0  0  0  0  0  0
   35.1070   29.4540   38.5440 H   0  0  0  0  0  0  0  0  0  0  0  0
   36.1220   29.4710   33.7470 H   0  0  0  0  0  0  0  0  0  0  0  0
   33.0730   28.4430   37.0050 C   0  0  0  0  0  0  0  0  0  0  0  0
   31.9090   29.4030   37.0440 C   0  0  0  0  0  0  0  0  0  0  0  0
   32.0240   28.2420   36.0400 C   0  0  0  0  0  0  0  0  0  0  0  0
   33.1780   27.8940   37.9740 H   0  0  0  0  0  0  0  0  0  0  0  0
   31.1490   29.3270   37.8470 H   0  0  0  0  0  0  0  0  0  0  0  0
   32.0710   30.4090   36.5930 H   0  0  0  0  0  0  0  0  0  0  0  0
   32.2260   28.4940   34.9880 H   0  0  0  0  0  0  0  0  0  0  0  0
   31.2860   27.4280   36.2410 H   0  0  0  0  0  0  0  0  0  0  0  0
   38.1550   30.4880   41.7780 O   0  0  0  0  0  0  0  0  0  0  0  0
   38.6390   29.2090   41.9470 C   0  0  0  0  0  3  0  0  0  0  0  0
   38.5370   28.6810   43.3400 C   0  0  0  0  0  2  0  0  0  0  0  0
   37.1830   28.1150   43.6790 C   0  0  0  0  0  2  0  0  0  0  0  0
   36.7260   27.0870   42.6580 C   0  0  0  0  0  2  0  0  0  0  0  0
   36.6060   27.8570   41.3490 C   0  0  0  0  0  2  0  0  0  0  0  0
   38.0380   28.2210   40.9780 C   0  0  0  0  0  2  0  0  0  0  0  0
  1  7  1  1  0  0  0
  1 13  1  0  0  0  0
  1  6  1  0  0  0  0
  2  8  1  6  0  0  0
  2  1  1  0  0  0  0
  3  2  1  0  0  0  0
  3  4  1  0  0  0  0
  4 10  1  0  0  0  0
  4  5  1  0  0  0  0
  5 11  1  1  0  0  0
  5 15  1  0  0  0  0
  6 12  1  6  0  0  0
  6  5  1  0  0  0  0
  6 34  1  0  0  0  0
  9  4  1  0  0  0  0
 14 13  1  0  0  0  0
 15 16  1  0  0  0  0
 17  2  1  0  0  0  0
 18 19  1  0  0  0  0
 18 17  1  0  0  0  0
 19 24  1  0  0  0  0
 20 26  1  0  0  0  0
 20 19  2  0  0  0  0
 21 20  1  0  0  0  0
 22 21  2  0  0  0  0
 22 23  1  0  0  0  0
 23 18  2  0  0  0  0
 25 22  1  0  0  0  0
 26 27  1  0  0  0  0
 26 29  1  0  0  0  0
 27 30  1  0  0  0  0
 28 33  1  0  0  0  0
 28 26  1  0  0  0  0
 28 27  1  0  0  0  0
 31 27  1  0  0  0  0
 32 28  1  0  0  0  0
 34 35  1  0  0  0  0
 35 36  1  0  0  0  0
 36 37  1  0  0  0  0
 38 37  1  0  0  0  0
 39 38  1  0  0  0  0
 40 39  1  0  0  0  0
 40 35  1  0  0  0  0
M  END
>  <minimizedAffinity>
-6.04712677

$$$$

 OpenBabel03242523533D

 40 43  0  0  1  0  0  0  0  0999 V2000
   37.5470   29.5180   42.3620 C   0  0  1  0  0  0  0  0  0  0  0  0
   39.0610   29.6860   42.5210 C   0  0  1  0  0  0  0  0  0  0  0  0
   39.6540   28.4120   42.6020 O   0  0  0  0  0  0  0  0  0  0  0  0
   38.8540   27.4810   43.2650 C   0  0  0  0  0  0  0  0  0  0  0  0
   37.6390   27.1200   42.4370 C   0  0  2  0  0  0  0  0  0  0  0  0
   37.3800   28.2950   41.4720 C   0  0  1  0  0  0  0  0  0  0  0  0
   37.1130   30.4120   41.8510 H   0  0  0  0  0  0  0  0  0  0  0  0
   39.3170   30.2900   43.4050 H   0  0  0  0  0  0  0  0  0  0  0  0
   39.5040   26.5900   43.3930 H   0  0  0  0  0  0  0  0  0  0  0  0
   38.6020   27.7990   44.3020 H   0  0  0  0  0  0  0  0  0  0  0  0
   37.7760   26.1850   41.8790 H   0  0  0  0  0  0  0  0  0  0  0  0
   38.2090   28.2720   40.7520 H   0  0  0  0  0  0  0  0  0  0  0  0
   36.9470   29.2920   43.5990 O   0  0  0  0  0  0  0  0  0  0  0  0
   37.3900   29.9200   44.2380 H   0  0  0  0  0  0  0  0  0  0  0  0
   36.5150   27.1180   43.2750 O   0  0  0  0  0  0  0  0  0  0  0  0
   36.0730   26.2560   43.3240 H   0  0  0  0  0  0  0  0  0  0  0  0
   39.5140   30.2050   41.3030 O   0  0  0  0  0  0  0  0  0  0  0  0
   39.7370   31.4970   41.0470 C   0  0  0  0  0  0  0  0  0  0  0  0
   41.0330   31.9920   40.9240 C   0  0  0  0  0  0  0  0  0  0  0  0
   41.2100   33.3400   40.6570 C   0  0  0  0  0  0  0  0  0  0  0  0
   40.1040   34.1610   40.5190 N   0  0  0  0  0  0  0  0  0  0  0  0
   38.8640   33.6440   40.6440 C   0  0  0  0  0  0  0  0  0  0  0  0
   38.6770   32.3270   40.9060 N   0  0  0  0  0  0  0  0  0  0  0  0
   41.8760   31.3260   41.0380 H   0  0  0  0  0  0  0  0  0  0  0  0
   38.0300   34.3250   40.5280 H   0  0  0  0  0  0  0  0  0  0  0  0
   42.5920   33.9240   40.5280 C   0  0  0  0  0  0  0  0  0  0  0  0
   43.7440   32.9600   40.3830 C   0  0  0  0  0  0  0  0  0  0  0  0
   43.2660   33.8930   39.2560 C   0  0  0  0  0  0  0  0  0  0  0  0
   42.7830   34.6630   41.3460 H   0  0  0  0  0  0  0  0  0  0  0  0
   44.7190   33.1780   40.8640 H   0  0  0  0  0  0  0  0  0  0  0  0
   43.4870   31.8880   40.2230 H   0  0  0  0  0  0  0  0  0  0  0  0
   42.7460   33.4360   38.4000 H   0  0  0  0  0  0  0  0  0  0  0  0
   43.9950   34.7100   39.0380 H   0  0  0  0  0  0  0  0  0  0  0  0
   36.1260   28.1980   40.9000 O   0  0  0  0  0  0  0  0  0  0  0  0
   35.7230   29.3450   40.2520 C   0  0  0  0  0  3  0  0  0  0  0  0
   36.6800   29.8530   39.2240 C   0  0  0  0  0  2  0  0  0  0  0  0
   36.5620   29.1660   37.8900 C   0  0  0  0  0  2  0  0  0  0  0  0
   35.1340   29.1730   37.3720 C   0  0  0  0  0  2  0  0  0  0  0  0
   34.3390   28.3680   38.3920 C   0  0  0  0  0  2  0  0  0  0  0  0
   34.3430   29.2260   39.6530 C   0  0  0  0  0  2  0  0  0  0  0  0
  1  7  1  6  0  0  0
  1  2  1  0  0  0  0
  1 13  1  0  0  0  0
  2  3  1  0  0  0  0
  2  8  1  1  0  0  0
  3  4  1  0  0  0  0
  4  9  1  0  0  0  0
  4 10  1  0  0  0  0
  5 11  1  6  0  0  0
  5  4  1  0  0  0  0
  5 15  1  0  0  0  0
  6 12  1  6  0  0  0
  6  1  1  0  0  0  0
  6  5  1  0  0  0  0
 13 14  1  0  0  0  0
 15 16  1  0  0  0  0
 17  2  1  0  0  0  0
 18 17  1  0  0  0  0
 19 24  1  0  0  0  0
 19 18  1  0  0  0  0
 20 19  2  0  0  0  0
 21 22  2  0  0  0  0
 21 20  1  0  0  0  0
 22 23  1  0  0  0  0
 23 18  2  0  0  0  0
 25 22  1  0  0  0  0
 26 20  1  0  0  0  0
 26 29  1  0  0  0  0
 27 26  1  0  0  0  0
 27 30  1  0  0  0  0
 28 27  1  0  0  0  0
 28 26  1  0  0  0  0
 31 27  1  0  0  0  0
 32 28  1  0  0  0  0
 33 28  1  0  0  0  0
 34  6  1  0  0  0  0
 35 34  1  0  0  0  0
 36 35  1  0  0  0  0
 37 36  1  0  0  0  0
 38 37  1  0  0  0  0
 38 39  1  0  0  0  0
 39 40  1  0  0  0  0
 40 35  1  0  0  0  0
M  END
>  <minimizedAffinity>
-5.88572693

$$$$

 OpenBabel03242523533D

 40 43  0  0  1  0  0  0  0  0999 V2000
   37.4380   31.7500   39.8890 C   0  0  1  0  0  0  0  0  0  0  0  0
   37.8890   31.9070   38.4340 C   0  0  1  0  0  0  0  0  0  0  0  0
   39.2380   32.3090   38.4170 O   0  0  0  0  0  0  0  0  0  0  0  0
   39.5670   33.1530   39.4780 C   0  0  0  0  0  0  0  0  0  0  0  0
   39.5640   32.4020   40.7920 C   0  0  2  0  0  0  0  0  0  0  0  0
   38.6470   31.1760   40.6150 C   0  0  1  0  0  0  0  0  0  0  0  0
   36.5890   31.0270   39.9510 H   0  0  0  0  0  0  0  0  0  0  0  0
   37.2640   32.6260   37.8850 H   0  0  0  0  0  0  0  0  0  0  0  0
   40.5930   33.5110   39.2480 H   0  0  0  0  0  0  0  0  0  0  0  0
   38.9440   34.0760   39.4960 H   0  0  0  0  0  0  0  0  0  0  0  0
   40.5710   32.0900   41.0980 H   0  0  0  0  0  0  0  0  0  0  0  0
   39.1800   30.5060   39.9270 H   0  0  0  0  0  0  0  0  0  0  0  0
   37.1000   32.9870   40.4330 O   0  0  0  0  0  0  0  0  0  0  0  0
   36.5870   33.4690   39.7220 H   0  0  0  0  0  0  0  0  0  0  0  0
   38.9010   33.1840   41.7490 O   0  0  0  0  0  0  0  0  0  0  0  0
   39.4610   33.4260   42.5030 H   0  0  0  0  0  0  0  0  0  0  0  0
   37.9040   30.6130   37.9010 O   0  0  0  0  0  0  0  0  0  0  0  0
   36.9340   30.0690   37.1620 C   0  0  0  0  0  0  0  0  0  0  0  0
   36.8210   30.3520   35.8020 C   0  0  0  0  0  0  0  0  0  0  0  0
   35.7960   29.7610   35.0810 C   0  0  0  0  0  0  0  0  0  0  0  0
   34.9130   28.9080   35.7190 N   0  0  0  0  0  0  0  0  0  0  0  0
   35.0550   28.6590   37.0380 C   0  0  0  0  0  0  0  0  0  0  0  0
   36.0530   29.2310   37.7560 N   0  0  0  0  0  0  0  0  0  0  0  0
   37.5260   31.0220   35.3330 H   0  0  0  0  0  0  0  0  0  0  0  0
   34.3400   27.9860   37.4940 H   0  0  0  0  0  0  0  0  0  0  0  0
   35.6270   30.0450   33.6110 C   0  0  0  0  0  0  0  0  0  0  0  0
   36.3000   31.2780   33.0590 C   0  0  0  0  0  0  0  0  0  0  0  0
   36.7320   29.8420   32.7110 C   0  0  0  0  0  0  0  0  0  0  0  0
   34.5450   30.0140   33.3290 H   0  0  0  0  0  0  0  0  0  0  0  0
   35.8040   31.8800   32.2720 H   0  0  0  0  0  0  0  0  0  0  0  0
   37.0070   31.8120   33.7350 H   0  0  0  0  0  0  0  0  0  0  0  0
   37.6850   29.4800   33.1260 H   0  0  0  0  0  0  0  0  0  0  0  0
   36.4940   29.5670   31.6550 H   0  0  0  0  0  0  0  0  0  0  0  0
   38.3360   30.6090   41.8350 O   0  0  0  0  0  0  0  0  0  0  0  0
   38.7110   29.2880   41.9450 C   0  0  0  0  0  3  0  0  0  0  0  0
   38.6010   28.7180   43.3210 C   0  0  0  0  0  2  0  0  0  0  0  0
   37.2130   28.2580   43.6790 C   0  0  0  0  0  2  0  0  0  0  0  0
   36.6410   27.3120   42.6370 C   0  0  0  0  0  2  0  0  0  0  0  0
   36.5530   28.1380   41.3590 C   0  0  0  0  0  2  0  0  0  0  0  0
   38.0020   28.3920   40.9590 C   0  0  0  0  0  2  0  0  0  0  0  0
  1  7  1  1  0  0  0
  1 13  1  0  0  0  0
  1  6  1  0  0  0  0
  2  8  1  6  0  0  0
  2  1  1  0  0  0  0
  3  2  1  0  0  0  0
  3  4  1  0  0  0  0
  4 10  1  0  0  0  0
  4  5  1  0  0  0  0
  5 11  1  1  0  0  0
  5 15  1  0  0  0  0
  6 12  1  6  0  0  0
  6  5  1  0  0  0  0
  6 34  1  0  0  0  0
  9  4  1  0  0  0  0
 14 13  1  0  0  0  0
 15 16  1  0  0  0  0
 17  2  1  0  0  0  0
 18 23  1  0  0  0  0
 18 17  1  0  0  0  0
 19 18  2  0  0  0  0
 20 21  2  0  0  0  0
 20 19  1  0  0  0  0
 21 22  1  0  0  0  0
 22 25  1  0  0  0  0
 22 23  2  0  0  0  0
 24 19  1  0  0  0  0
 26 20  1  0  0  0  0
 27 26  1  0  0  0  0
 27 31  1  0  0  0  0
 28 27  1  0  0  0  0
 28 32  1  0  0  0  0
 28 26  1  0  0  0  0
 29 26  1  0  0  0  0
 30 27  1  0  0  0  0
 33 28  1  0  0  0  0
 34 35  1  0  0  0  0
 35 36  1  0  0  0  0
 36 37  1  0  0  0  0
 38 37  1  0  0  0  0
 39 38  1  0  0  0  0
 40 39  1  0  0  0  0
 40 35  1  0  0  0  0
M  END
>  <minimizedAffinity>
-5.88328505

$$$$

 OpenBabel03242523533D

 40 43  0  0  1  0  0  0  0  0999 V2000
   38.6630   30.5820   39.7750 C   0  0  1  0  0  0  0  0  0  0  0  0
   39.2180   30.9720   41.1480 C   0  0  1  0  0  0  0  0  0  0  0  0
   38.8810   32.3130   41.4110 O   0  0  0  0  0  0  0  0  0  0  0  0
   38.8820   33.1090   40.2650 C   0  0  0  0  0  0  0  0  0  0  0  0
   37.7270   32.7510   39.3540 C   0  0  2  0  0  0  0  0  0  0  0  0
   37.3240   31.2990   39.6760 C   0  0  1  0  0  0  0  0  0  0  0  0
   38.4980   29.4780   39.7280 H   0  0  0  0  0  0  0  0  0  0  0  0
   40.3070   30.8270   41.2070 H   0  0  0  0  0  0  0  0  0  0  0  0
   38.7630   34.1460   40.6400 H   0  0  0  0  0  0  0  0  0  0  0  0
   39.8680   33.1070   39.7470 H   0  0  0  0  0  0  0  0  0  0  0  0
   36.8710   33.4270   39.4800 H   0  0  0  0  0  0  0  0  0  0  0  0
   36.8730   31.3340   40.6770 H   0  0  0  0  0  0  0  0  0  0  0  0
   39.5120   31.0180   38.7610 O   0  0  0  0  0  0  0  0  0  0  0  0
   40.4410   30.8260   39.0800 H   0  0  0  0  0  0  0  0  0  0  0  0
   38.2040   32.6850   38.0370 O   0  0  0  0  0  0  0  0  0  0  0  0
   37.7790   33.3200   37.4400 H   0  0  0  0  0  0  0  0  0  0  0  0
   38.4760   30.2370   42.0800 O   0  0  0  0  0  0  0  0  0  0  0  0
   38.6970   28.9620   42.4130 C   0  0  0  0  0  0  0  0  0  0  0  0
   37.7560   27.9730   42.1370 C   0  0  0  0  0  0  0  0  0  0  0  0
   38.0350   26.6660   42.5020 C   0  0  0  0  0  0  0  0  0  0  0  0
   39.2340   26.3710   43.1280 N   0  0  0  0  0  0  0  0  0  0  0  0
   40.1210   27.3570   43.3780 C   0  0  0  0  0  0  0  0  0  0  0  0
   39.8600   28.6400   43.0270 N   0  0  0  0  0  0  0  0  0  0  0  0
   36.8290   28.2350   41.6470 H   0  0  0  0  0  0  0  0  0  0  0  0
   41.0440   27.0790   43.8700 H   0  0  0  0  0  0  0  0  0  0  0  0
   37.0440   25.5640   42.2360 C   0  0  0  0  0  0  0  0  0  0  0  0
   36.8610   25.1230   40.8040 C   0  0  0  0  0  0  0  0  0  0  0  0
   37.5130   24.2480   41.8900 C   0  0  0  0  0  0  0  0  0  0  0  0
   36.0610   25.7980   42.7150 H   0  0  0  0  0  0  0  0  0  0  0  0
   35.8580   24.8340   40.4320 H   0  0  0  0  0  0  0  0  0  0  0  0
   37.5820   25.5280   40.0560 H   0  0  0  0  0  0  0  0  0  0  0  0
   38.5990   24.0790   41.8270 H   0  0  0  0  0  0  0  0  0  0  0  0
   36.8740   23.3790   42.1800 H   0  0  0  0  0  0  0  0  0  0  0  0
   36.4970   30.7850   38.6960 O   0  0  0  0  0  0  0  0  0  0  0  0
   36.2910   29.4270   38.8000 C   0  0  0  0  0  3  0  0  0  0  0  0
   35.1210   29.0330   39.6410 C   0  0  0  0  0  2  0  0  0  0  0  0
   33.8040   29.0850   38.9130 C   0  0  0  0  0  2  0  0  0  0  0  0
   33.8430   28.3030   37.6120 C   0  0  0  0  0  2  0  0  0  0  0  0
   34.8870   29.0090   36.7560 C   0  0  0  0  0  2  0  0  0  0  0  0
   36.2130   28.7410   37.4580 C   0  0  0  0  0  2  0  0  0  0  0  0
  1  7  1  6  0  0  0
  1  2  1  0  0  0  0
  2  8  1  1  0  0  0
  2  3  1  0  0  0  0
  2 17  1  0  0  0  0
  4  9  1  0  0  0  0
  4  3  1  0  0  0  0
  5 11  1  1  0  0  0
  5  6  1  0  0  0  0
  5  4  1  0  0  0  0
  6  1  1  0  0  0  0
  6 12  1  1  0  0  0
 10  4  1  0  0  0  0
 13 14  1  0  0  0  0
 13  1  1  0  0  0  0
 15  5  1  0  0  0  0
 16 15  1  0  0  0  0
 17 18  1  0  0  0  0
 18 23  1  0  0  0  0
 19 18  2  0  0  0  0
 19 20  1  0  0  0  0
 20 21  2  0  0  0  0
 21 22  1  0  0  0  0
 22 25  1  0  0  0  0
 23 22  2  0  0  0  0
 24 19  1  0  0  0  0
 26 20  1  0  0  0  0
 26 29  1  0  0  0  0
 27 28  1  0  0  0  0
 27 26  1  0  0  0  0
 28 33  1  0  0  0  0
 28 26  1  0  0  0  0
 30 27  1  0  0  0  0
 31 27  1  0  0  0  0
 32 28  1  0  0  0  0
 34 35  1  0  0  0  0
 34  6  1  0  0  0  0
 35 36  1  0  0  0  0
 37 36  1  0  0  0  0
 38 37  1  0  0  0  0
 39 40  1  0  0  0  0
 39 38  1  0  0  0  0
 40 35  1  0  0  0  0
M  END
>  <minimizedAffinity>
-5.72383547

$$$$

 OpenBabel03242523533D

 40 43  0  0  1  0  0  0  0  0999 V2000
   37.3720   32.0340   39.3250 C   0  0  1  0  0  0  0  0  0  0  0  0
   38.8740   32.0630   39.6250 C   0  0  1  0  0  0  0  0  0  0  0  0
   39.1640   31.0790   40.5890 O   0  0  0  0  0  0  0  0  0  0  0  0
   38.1400   30.9130   41.5220 C   0  0  0  0  0  0  0  0  0  0  0  0
   36.9260   30.2680   40.8880 C   0  0  2  0  0  0  0  0  0  0  0  0
   36.9900   30.5620   39.3760 C   0  0  1  0  0  0  0  0  0  0  0  0
   37.1790   32.4340   38.3000 H   0  0  0  0  0  0  0  0  0  0  0  0
   39.2060   33.0530   39.9710 H   0  0  0  0  0  0  0  0  0  0  0  0
   38.5670   30.2400   42.2940 H   0  0  0  0  0  0  0  0  0  0  0  0
   37.9050   31.8550   42.0670 H   0  0  0  0  0  0  0  0  0  0  0  0
   36.8840   29.1860   41.0710 H   0  0  0  0  0  0  0  0  0  0  0  0
   37.8340   29.9700   38.9970 H   0  0  0  0  0  0  0  0  0  0  0  0
   36.6660   32.7430   40.2940 O   0  0  0  0  0  0  0  0  0  0  0  0
   37.1990   33.5690   40.4730 H   0  0  0  0  0  0  0  0  0  0  0  0
   35.7830   30.9570   41.3170 O   0  0  0  0  0  0  0  0  0  0  0  0
   35.1580   30.4000   41.8070 H   0  0  0  0  0  0  0  0  0  0  0  0
   39.5010   31.6060   38.4600 O   0  0  0  0  0  0  0  0  0  0  0  0
   40.6920   32.0130   38.0120 C   0  0  0  0  0  0  0  0  0  0  0  0
   41.5350   31.1450   37.3210 C   0  0  0  0  0  0  0  0  0  0  0  0
   42.7590   31.6190   36.8760 C   0  0  0  0  0  0  0  0  0  0  0  0
   43.1160   32.9320   37.1240 N   0  0  0  0  0  0  0  0  0  0  0  0
   42.2720   33.7420   37.7970 C   0  0  0  0  0  0  0  0  0  0  0  0
   41.0720   33.2920   38.2380 N   0  0  0  0  0  0  0  0  0  0  0  0
   41.2270   30.1250   37.1430 H   0  0  0  0  0  0  0  0  0  0  0  0
   42.5950   34.7610   37.9680 H   0  0  0  0  0  0  0  0  0  0  0  0
   43.7090   30.7150   36.1350 C   0  0  0  0  0  0  0  0  0  0  0  0
   44.0040   29.3650   36.7440 C   0  0  0  0  0  0  0  0  0  0  0  0
   43.2040   29.5580   35.4430 C   0  0  0  0  0  0  0  0  0  0  0  0
   44.6530   31.2610   35.8850 H   0  0  0  0  0  0  0  0  0  0  0  0
   45.0210   28.9310   36.6720 H   0  0  0  0  0  0  0  0  0  0  0  0
   43.3820   29.0600   37.6170 H   0  0  0  0  0  0  0  0  0  0  0  0
   42.1220   29.3610   35.4740 H   0  0  0  0  0  0  0  0  0  0  0  0
   43.7640   29.2110   34.5410 H   0  0  0  0  0  0  0  0  0  0  0  0
   35.7820   30.2860   38.7660 O   0  0  0  0  0  0  0  0  0  0  0  0
   35.7080   29.0200   38.2280 C   0  0  0  0  0  3  0  0  0  0  0  0
   34.3360   28.5920   37.8220 C   0  0  0  0  0  2  0  0  0  0  0  0
   33.9190   29.0940   36.4650 C   0  0  0  0  0  2  0  0  0  0  0  0
   34.9450   28.7610   35.3960 C   0  0  0  0  0  2  0  0  0  0  0  0
   36.2060   29.5080   35.8120 C   0  0  0  0  0  2  0  0  0  0  0  0
   36.6700   28.8100   37.0850 C   0  0  0  0  0  2  0  0  0  0  0  0
  1  7  1  6  0  0  0
  1  6  1  0  0  0  0
  1  2  1  0  0  0  0
  1 13  1  0  0  0  0
  2  8  1  1  0  0  0
  2  3  1  0  0  0  0
  3  4  1  0  0  0  0
  4 10  1  0  0  0  0
  4  9  1  0  0  0  0
  5 11  1  1  0  0  0
  5 15  1  0  0  0  0
  5  4  1  0  0  0  0
  6 12  1  6  0  0  0
  6  5  1  0  0  0  0
 13 14  1  0  0  0  0
 15 16  1  0  0  0  0
 17  2  1  0  0  0  0
 18 23  1  0  0  0  0
 18 17  1  0  0  0  0
 19 18  2  0  0  0  0
 20 21  2  0  0  0  0
 20 19  1  0  0  0  0
 21 22  1  0  0  0  0
 22 25  1  0  0  0  0
 22 23  2  0  0  0  0
 24 19  1  0  0  0  0
 26 27  1  0  0  0  0
 26 20  1  0  0  0  0
 27 31  1  0  0  0  0
 28 32  1  0  0  0  0
 28 26  1  0  0  0  0
 28 27  1  0  0  0  0
 29 26  1  0  0  0  0
 30 27  1  0  0  0  0
 33 28  1  0  0  0  0
 34  6  1  0  0  0  0
 35 34  1  0  0  0  0
 36 35  1  0  0  0  0
 37 36  1  0  0  0  0
 38 39  1  0  0  0  0
 38 37  1  0  0  0  0
 39 40  1  0  0  0  0
 40 35  1  0  0  0  0
M  END
>  <minimizedAffinity>
-5.70454264

$$$$

 OpenBabel03242523533D

 40 43  0  0  1  0  0  0  0  0999 V2000
   40.4940   30.4200   39.3960 C   0  0  1  0  0  0  0  0  0  0  0  0
   41.1330   31.2860   40.4860 C   0  0  1  0  0  0  0  0  0  0  0  0
   40.8180   32.6360   40.2380 O   0  0  0  0  0  0  0  0  0  0  0  0
   40.7520   32.9380   38.8780 C   0  0  0  0  0  0  0  0  0  0  0  0
   39.5420   32.2940   38.2350 C   0  0  2  0  0  0  0  0  0  0  0  0
   39.1540   31.0820   39.1060 C   0  0  1  0  0  0  0  0  0  0  0  0
   40.3220   29.3860   39.7800 H   0  0  0  0  0  0  0  0  0  0  0  0
   42.2230   31.1460   40.5350 H   0  0  0  0  0  0  0  0  0  0  0  0
   40.6590   34.0430   38.8380 H   0  0  0  0  0  0  0  0  0  0  0  0
   41.7050   32.7150   38.3460 H   0  0  0  0  0  0  0  0  0  0  0  0
   38.6980   32.9900   38.1420 H   0  0  0  0  0  0  0  0  0  0  0  0
   38.7650   31.5050   40.0420 H   0  0  0  0  0  0  0  0  0  0  0  0
   41.2820   30.4180   38.2470 O   0  0  0  0  0  0  0  0  0  0  0  0
   42.2270   30.3370   38.5630 H   0  0  0  0  0  0  0  0  0  0  0  0
   39.9380   31.7220   37.0180 O   0  0  0  0  0  0  0  0  0  0  0  0
   39.4790   32.0950   36.2490 H   0  0  0  0  0  0  0  0  0  0  0  0
   40.4460   30.9780   41.6660 O   0  0  0  0  0  0  0  0  0  0  0  0
   40.4910   29.8050   42.3030 C   0  0  0  0  0  0  0  0  0  0  0  0
   39.3260   29.1000   42.5940 C   0  0  0  0  0  0  0  0  0  0  0  0
   39.4280   27.8870   43.2560 C   0  0  0  0  0  0  0  0  0  0  0  0
   40.6750   27.4040   43.6120 N   0  0  0  0  0  0  0  0  0  0  0  0
   41.7820   28.1170   43.3120 C   0  0  0  0  0  0  0  0  0  0  0  0
   41.6960   29.3050   42.6660 N   0  0  0  0  0  0  0  0  0  0  0  0
   38.3670   29.5030   42.3030 H   0  0  0  0  0  0  0  0  0  0  0  0
   42.7340   27.6990   43.6110 H   0  0  0  0  0  0  0  0  0  0  0  0
   38.1960   27.0930   43.6030 C   0  0  0  0  0  0  0  0  0  0  0  0
   36.8860   27.8400   43.6790 C   0  0  0  0  0  0  0  0  0  0  0  0
   37.2180   26.8100   42.5850 C   0  0  0  0  0  0  0  0  0  0  0  0
   38.3680   26.4840   44.5250 H   0  0  0  0  0  0  0  0  0  0  0  0
   36.1310   27.5670   44.4430 H   0  0  0  0  0  0  0  0  0  0  0  0
   36.8860   28.8960   43.3220 H   0  0  0  0  0  0  0  0  0  0  0  0
   37.3980   27.1860   41.5660 H   0  0  0  0  0  0  0  0  0  0  0  0
   36.6230   25.8700   42.6880 H   0  0  0  0  0  0  0  0  0  0  0  0
   38.2670   30.2580   38.4410 O   0  0  0  0  0  0  0  0  0  0  0  0
   36.9610   30.6930   38.4920 C   0  0  0  0  0  3  0  0  0  0  0  0
   35.9610   29.7380   37.9270 C   0  0  0  0  0  2  0  0  0  0  0  0
   35.5420   28.6570   38.8880 C   0  0  0  0  0  2  0  0  0  0  0  0
   35.0790   29.2260   40.2170 C   0  0  0  0  0  2  0  0  0  0  0  0
   36.3020   29.9280   40.7950 C   0  0  0  0  0  2  0  0  0  0  0  0
   36.5380   31.1210   39.8760 C   0  0  0  0  0  2  0  0  0  0  0  0
  1  7  1  1  0  0  0
  1  2  1  0  0  0  0
  2  8  1  1  0  0  0
  2 17  1  0  0  0  0
  3  2  1  0  0  0  0
  4  3  1  0  0  0  0
  5 11  1  6  0  0  0
  5  4  1  0  0  0  0
  5  6  1  0  0  0  0
  6  1  1  0  0  0  0
  6 12  1  1  0  0  0
  9  4  1  0  0  0  0
 10  4  1  0  0  0  0
 13 14  1  0  0  0  0
 13  1  1  0  0  0  0
 15  5  1  0  0  0  0
 16 15  1  0  0  0  0
 17 18  1  0  0  0  0
 18 19  2  0  0  0  0
 18 23  1  0  0  0  0
 19 20  1  0  0  0  0
 20 26  1  0  0  0  0
 20 21  2  0  0  0  0
 22 25  1  0  0  0  0
 22 21  1  0  0  0  0
 23 22  2  0  0  0  0
 24 19  1  0  0  0  0
 26 27  1  0  0  0  0
 26 29  1  0  0  0  0
 27 30  1  0  0  0  0
 28 33  1  0  0  0  0
 28 26  1  0  0  0  0
 28 27  1  0  0  0  0
 31 27  1  0  0  0  0
 32 28  1  0  0  0  0
 34 35  1  0  0  0  0
 34  6  1  0  0  0  0
 35 40  1  0  0  0  0
 36 35  1  0  0  0  0
 36 37  1  0  0  0  0
 37 38  1  0  0  0  0
 38 39  1  0  0  0  0
 40 39  1  0  0  0  0
M  END
>  <minimizedAffinity>
-5.68785524

$$$$

 OpenBabel03242523533D

 40 43  0  0  1  0  0  0  0  0999 V2000
   37.3880   31.6030   39.5330 C   0  0  1  0  0  0  0  0  0  0  0  0
   37.9760   31.7270   38.1240 C   0  0  1  0  0  0  0  0  0  0  0  0
   39.2950   32.2090   38.2230 O   0  0  0  0  0  0  0  0  0  0  0  0
   39.4660   33.1150   39.2700 C   0  0  0  0  0  0  0  0  0  0  0  0
   39.3710   32.4200   40.6110 C   0  0  2  0  0  0  0  0  0  0  0  0
   38.5470   31.1340   40.4010 C   0  0  1  0  0  0  0  0  0  0  0  0
   36.5790   30.8330   39.5440 H   0  0  0  0  0  0  0  0  0  0  0  0
   37.3710   32.3830   37.4820 H   0  0  0  0  0  0  0  0  0  0  0  0
   40.4880   33.5240   39.1260 H   0  0  0  0  0  0  0  0  0  0  0  0
   38.7930   33.9980   39.1820 H   0  0  0  0  0  0  0  0  0  0  0  0
   40.3580   32.1830   41.0300 H   0  0  0  0  0  0  0  0  0  0  0  0
   39.1840   30.4700   39.8020 H   0  0  0  0  0  0  0  0  0  0  0  0
   36.9280   32.8390   39.9820 O   0  0  0  0  0  0  0  0  0  0  0  0
   36.4640   33.2580   39.2010 H   0  0  0  0  0  0  0  0  0  0  0  0
   38.5710   33.1990   41.4590 O   0  0  0  0  0  0  0  0  0  0  0  0
   39.0360   33.5050   42.2530 H   0  0  0  0  0  0  0  0  0  0  0  0
   38.1180   30.4150   37.6570 O   0  0  0  0  0  0  0  0  0  0  0  0
   37.1730   29.7110   37.0280 C   0  0  0  0  0  0  0  0  0  0  0  0
   36.7040   28.5090   37.5530 C   0  0  0  0  0  0  0  0  0  0  0  0
   35.7210   27.8180   36.8610 C   0  0  0  0  0  0  0  0  0  0  0  0
   35.2290   28.3330   35.6750 N   0  0  0  0  0  0  0  0  0  0  0  0
   35.7090   29.5010   35.1990 C   0  0  0  0  0  0  0  0  0  0  0  0
   36.6700   30.1860   35.8650 N   0  0  0  0  0  0  0  0  0  0  0  0
   37.1080   28.1330   38.4810 H   0  0  0  0  0  0  0  0  0  0  0  0
   35.2940   29.8630   34.2670 H   0  0  0  0  0  0  0  0  0  0  0  0
   35.1910   26.5080   37.3820 C   0  0  0  0  0  0  0  0  0  0  0  0
   35.9240   25.2510   36.9800 C   0  0  0  0  0  0  0  0  0  0  0  0
   35.9070   25.8060   38.4150 C   0  0  0  0  0  0  0  0  0  0  0  0
   34.0950   26.4200   37.1770 H   0  0  0  0  0  0  0  0  0  0  0  0
   35.3620   24.3190   36.7730 H   0  0  0  0  0  0  0  0  0  0  0  0
   36.8990   25.3820   36.4550 H   0  0  0  0  0  0  0  0  0  0  0  0
   36.8360   26.2520   38.8030 H   0  0  0  0  0  0  0  0  0  0  0  0
   35.3130   25.1690   39.1130 H   0  0  0  0  0  0  0  0  0  0  0  0
   38.1460   30.6000   41.6100 O   0  0  0  0  0  0  0  0  0  0  0  0
   38.6470   29.3400   41.8540 C   0  0  0  0  0  3  0  0  0  0  0  0
   38.5760   28.9030   43.2810 C   0  0  0  0  0  2  0  0  0  0  0  0
   37.2340   28.3460   43.6800 C   0  0  0  0  0  2  0  0  0  0  0  0
   36.7720   27.2490   42.7370 C   0  0  0  0  0  2  0  0  0  0  0  0
   36.6200   27.9290   41.3820 C   0  0  0  0  0  2  0  0  0  0  0  0
   38.0420   28.2840   40.9630 C   0  0  0  0  0  2  0  0  0  0  0  0
  1  7  1  1  0  0  0
  1 13  1  0  0  0  0
  1  6  1  0  0  0  0
  2  8  1  6  0  0  0
  2  3  1  0  0  0  0
  2  1  1  0  0  0  0
  3  4  1  0  0  0  0
  4  5  1  0  0  0  0
  5 11  1  1  0  0  0
  5 15  1  0  0  0  0
  6 12  1  6  0  0  0
  6  5  1  0  0  0  0
  6 34  1  0  0  0  0
  9  4  1  0  0  0  0
 10  4  1  0  0  0  0
 14 13  1  0  0  0  0
 15 16  1  0  0  0  0
 17  2  1  0  0  0  0
 18 19  1  0  0  0  0
 18 17  1  0  0  0  0
 19 24  1  0  0  0  0
 20 26  1  0  0  0  0
 20 19  2  0  0  0  0
 21 20  1  0  0  0  0
 22 21  2  0  0  0  0
 22 23  1  0  0  0  0
 23 18  2  0  0  0  0
 25 22  1  0  0  0  0
 26 28  1  0  0  0  0
 27 26  1  0  0  0  0
 27 28  1  0  0  0  0
 28 32  1  0  0  0  0
 28 33  1  0  0  0  0
 29 26  1  0  0  0  0
 30 27  1  0  0  0  0
 31 27  1  0  0  0  0
 34 35  1  0  0  0  0
 35 36  1  0  0  0  0
 36 37  1  0  0  0  0
 38 37  1  0  0  0  0
 39 38  1  0  0  0  0
 40 39  1  0  0  0  0
 40 35  1  0  0  0  0
M  END
>  <minimizedAffinity>
-5.48854065

$$$$

 OpenBabel03242523533D

 40 43  0  0  1  0  0  0  0  0999 V2000
   37.6300   29.1250   41.9670 C   0  0  1  0  0  0  0  0  0  0  0  0
   37.2830   27.7130   41.4840 C   0  0  1  0  0  0  0  0  0  0  0  0
   36.3220   27.8070   40.4590 O   0  0  0  0  0  0  0  0  0  0  0  0
   35.4240   28.8580   40.6510 C   0  0  0  0  0  0  0  0  0  0  0  0
   36.1030   30.1960   40.4570 C   0  0  2  0  0  0  0  0  0  0  0  0
   37.6090   29.9850   40.7120 C   0  0  1  0  0  0  0  0  0  0  0  0
   38.6560   29.1360   42.4090 H   0  0  0  0  0  0  0  0  0  0  0  0
   36.9160   27.0770   42.3020 H   0  0  0  0  0  0  0  0  0  0  0  0
   34.6460   28.7100   39.8730 H   0  0  0  0  0  0  0  0  0  0  0  0
   34.8750   28.7770   41.6170 H   0  0  0  0  0  0  0  0  0  0  0  0
   35.9350   30.6090   39.4540 H   0  0  0  0  0  0  0  0  0  0  0  0
   37.9680   29.3800   39.8690 H   0  0  0  0  0  0  0  0  0  0  0  0
   36.6750   29.5800   42.8730 O   0  0  0  0  0  0  0  0  0  0  0  0
   36.4700   28.8040   43.4690 H   0  0  0  0  0  0  0  0  0  0  0  0
   35.7020   31.0510   41.4930 O   0  0  0  0  0  0  0  0  0  0  0  0
   35.2390   31.8450   41.1810 H   0  0  0  0  0  0  0  0  0  0  0  0
   38.4330   27.2400   40.8410 O   0  0  0  0  0  0  0  0  0  0  0  0
   38.6540   25.9710   40.4870 C   0  0  0  0  0  0  0  0  0  0  0  0
   39.3850   25.6610   39.3430 C   0  0  0  0  0  0  0  0  0  0  0  0
   39.5880   24.3280   39.0210 C   0  0  0  0  0  0  0  0  0  0  0  0
   39.0650   23.3400   39.8370 N   0  0  0  0  0  0  0  0  0  0  0  0
   38.3620   23.6810   40.9380 C   0  0  0  0  0  0  0  0  0  0  0  0
   38.1560   24.9800   41.2630 N   0  0  0  0  0  0  0  0  0  0  0  0
   39.7810   26.4550   38.7260 H   0  0  0  0  0  0  0  0  0  0  0  0
   37.9720   22.8740   41.5440 H   0  0  0  0  0  0  0  0  0  0  0  0
   40.3610   23.9430   37.7870 C   0  0  0  0  0  0  0  0  0  0  0  0
   41.1100   25.0380   37.0660 C   0  0  0  0  0  0  0  0  0  0  0  0
   41.7990   23.8940   37.8310 C   0  0  0  0  0  0  0  0  0  0  0  0
   39.7130   23.3650   37.0830 H   0  0  0  0  0  0  0  0  0  0  0  0
   41.1700   25.0370   35.9590 H   0  0  0  0  0  0  0  0  0  0  0  0
   41.1730   26.0260   37.5760 H   0  0  0  0  0  0  0  0  0  0  0  0
   42.3030   24.1420   38.7780 H   0  0  0  0  0  0  0  0  0  0  0  0
   42.3120   23.1710   37.1510 H   0  0  0  0  0  0  0  0  0  0  0  0
   38.2600   31.1940   40.8640 O   0  0  0  0  0  0  0  0  0  0  0  0
   38.2710   31.9650   39.7230 C   0  0  0  0  0  3  0  0  0  0  0  0
   38.0670   33.4270   39.9530 C   0  0  0  0  0  2  0  0  0  0  0  0
   39.3190   34.1610   40.3510 C   0  0  0  0  0  2  0  0  0  0  0  0
   40.4610   33.9040   39.3830 C   0  0  0  0  0  2  0  0  0  0  0  0
   40.7340   32.4090   39.4820 C   0  0  0  0  0  2  0  0  0  0  0  0
   39.5020   31.7460   38.8780 C   0  0  0  0  0  2  0  0  0  0  0  0
  1  7  1  1  0  0  0
  1 13  1  0  0  0  0
  2  1  1  0  0  0  0
  2  8  1  1  0  0  0
  3  4  1  0  0  0  0
  3  2  1  0  0  0  0
  4 10  1  0  0  0  0
  5 11  1  6  0  0  0
  5  4  1  0  0  0  0
  5  6  1  0  0  0  0
  5 15  1  0  0  0  0
  6 12  1  6  0  0  0
  6 34  1  0  0  0  0
  6  1  1  0  0  0  0
  9  4  1  0  0  0  0
 13 14  1  0  0  0  0
 16 15  1  0  0  0  0
 17  2  1  0  0  0  0
 18 17  1  0  0  0  0
 18 23  1  0  0  0  0
 19 18  2  0  0  0  0
 20 19  1  0  0  0  0
 20 21  2  0  0  0  0
 21 22  1  0  0  0  0
 22 23  2  0  0  0  0
 22 25  1  0  0  0  0
 24 19  1  0  0  0  0
 26 28  1  0  0  0  0
 26 20  1  0  0  0  0
 27 31  1  0  0  0  0
 27 26  1  0  0  0  0
 27 28  1  0  0  0  0
 28 32  1  0  0  0  0
 29 26  1  0  0  0  0
 30 27  1  0  0  0  0
 33 28  1  0  0  0  0
 35 36  1  0  0  0  0
 35 34  1  0  0  0  0
 36 37  1  0  0  0  0
 38 39  1  0  0  0  0
 38 37  1  0  0  0  0
 40 39  1  0  0  0  0
 40 35  1  0  0  0  0
M  END
>  <minimizedAffinity>
-5.47931194

$$$$
