
 OpenBabel03242517543D

 35 37  0  0  0  0  0  0  0  0999 V2000
   36.9240   29.8560   37.4810 C   0  0  0  0  0  0  0  0  0  0  0  0
   35.6980   29.3520   37.0020 C   0  0  0  0  0  0  0  0  0  0  0  0
   34.6920   29.0670   37.9030 C   0  0  0  0  0  0  0  0  0  0  0  0
   34.9650   29.2960   39.1910 N   0  0  0  0  0  0  0  0  0  0  0  0
   36.1170   29.7710   39.6420 C   0  0  0  0  0  0  0  0  0  0  0  0
   37.0960   30.0490   38.7770 N   0  0  0  0  0  0  0  0  0  0  0  0
   37.7000   30.0730   36.7520 H   0  0  0  0  0  0  0  0  0  0  0  0
   35.4990   29.1740   35.9550 H   0  0  0  0  0  0  0  0  0  0  0  0
   33.3640   28.5210   37.5130 C   0  0  0  0  0  0  0  0  0  0  0  0
   32.8090   28.2370   38.4020 H   0  0  0  0  0  0  0  0  0  0  0  0
   33.6260   27.6340   36.8640 H   0  0  0  0  0  0  0  0  0  0  0  0
   32.6240   29.4680   36.6050 C   0  0  0  0  0  0  0  0  0  0  0  0
   33.0910   30.4700   36.7770 H   0  0  0  0  0  0  0  0  0  0  0  0
   32.8610   29.2210   35.5590 H   0  0  0  0  0  0  0  0  0  0  0  0
   31.1500   29.5140   36.8770 C   0  0  0  0  0  3  0  0  0  0  0  0
   30.7860   29.9810   38.2360 C   0  0  0  0  0  2  0  0  0  0  0  0
   29.6280   30.9880   38.2080 C   0  0  0  0  0  2  0  0  0  0  0  0
   30.1200   32.1750   37.4380 C   0  0  0  0  0  2  0  0  0  0  0  0
   30.5210   31.7900   36.0450 C   0  0  0  0  0  2  0  0  0  0  0  0
   30.4490   30.3030   35.7910 C   0  0  0  0  0  2  0  0  0  0  0  0
   36.3740   29.9990   40.9790 O   0  0  0  0  0  0  0  0  0  0  0  0
   38.3830   29.3540   42.2980 C   0  0  0  0  0  0  0  0  0  0  0  0
   37.1120   29.1840   41.8170 C   0  0  0  0  0  0  0  0  0  0  0  0
   36.4250   28.0440   42.2000 C   0  0  0  0  0  0  0  0  0  0  0  0
   36.9870   27.0930   43.0410 C   0  0  0  0  0  0  0  0  0  0  0  0
   38.2730   27.2930   43.5100 C   0  0  0  0  0  0  0  0  0  0  0  0
   38.9620   28.4340   43.1280 C   0  0  0  0  0  0  0  0  0  0  0  0
   35.4270   27.7950   41.8940 H   0  0  0  0  0  0  0  0  0  0  0  0
   36.4730   26.1970   43.3540 H   0  0  0  0  0  0  0  0  0  0  0  0
   38.8190   26.6440   44.1590 H   0  0  0  0  0  0  0  0  0  0  0  0
   39.9700   28.6930   43.4320 H   0  0  0  0  0  0  0  0  0  0  0  0
   39.1680   30.8100   41.7660 S   0  0  0  0  0  0  0  0  0  0  0  0
   39.9810   30.5900   40.5110 O   0  0  0  0  0  0  0  0  0  0  0  0
   40.1790   31.1940   42.8390 O   0  0  0  0  0  0  0  0  0  0  0  0
   38.3040   31.8480   41.5500 H   0  0  0  0  0  0  0  0  0  0  0  0
  1  6  1  0  0  0  0
  2  1  2  0  0  0  0
  2  3  1  0  0  0  0
  3  4  2  0  0  0  0
  4  5  1  0  0  0  0
  5 21  1  0  0  0  0
  6  5  2  0  0  0  0
  7  1  1  0  0  0  0
  8  2  1  0  0  0  0
  9  3  1  0  0  0  0
  9 10  1  0  0  0  0
 11  9  1  0  0  0  0
 12 13  1  0  0  0  0
 12 15  1  0  0  0  0
 12  9  1  0  0  0  0
 14 12  1  0  0  0  0
 15 16  1  0  0  0  0
 17 16  1  0  0  0  0
 18 17  1  0  0  0  0
 19 18  1  0  0  0  0
 20 19  1  0  0  0  0
 20 15  1  0  0  0  0
 21 23  1  0  0  0  0
 22 27  1  0  0  0  0
 23 24  1  0  0  0  0
 23 22  2  0  0  0  0
 24 25  2  0  0  0  0
 25 29  1  0  0  0  0
 25 26  1  0  0  0  0
 26 30  1  0  0  0  0
 27 31  1  0  0  0  0
 27 26  2  0  0  0  0
 28 24  1  0  0  0  0
 32 22  1  0  0  0  0
 32 34  2  0  0  0  0
 33 32  2  0  0  0  0
 35 32  1  0  0  0  0
M  END
>  <minimizedAffinity>
-5.76960802

$$$$

 OpenBabel03242517543D

 35 37  0  0  0  0  0  0  0  0999 V2000
   37.4600   33.5910   39.7780 C   0  0  0  0  0  0  0  0  0  0  0  0
   37.3860   32.2880   40.3110 C   0  0  0  0  0  0  0  0  0  0  0  0
   38.4990   31.7510   40.9260 C   0  0  0  0  0  0  0  0  0  0  0  0
   39.5870   32.5260   40.9690 N   0  0  0  0  0  0  0  0  0  0  0  0
   39.6560   33.7510   40.4680 C   0  0  0  0  0  0  0  0  0  0  0  0
   38.5850   34.2780   39.8700 N   0  0  0  0  0  0  0  0  0  0  0  0
   36.5700   33.9910   39.2990 H   0  0  0  0  0  0  0  0  0  0  0  0
   36.4950   31.6790   40.2650 H   0  0  0  0  0  0  0  0  0  0  0  0
   38.5390   30.3850   41.5130 C   0  0  0  0  0  0  0  0  0  0  0  0
   39.0210   30.4190   42.4860 H   0  0  0  0  0  0  0  0  0  0  0  0
   39.1350   29.7920   40.7560 H   0  0  0  0  0  0  0  0  0  0  0  0
   37.1740   29.7490   41.5250 C   0  0  0  0  0  0  0  0  0  0  0  0
   36.6710   30.1430   42.4440 H   0  0  0  0  0  0  0  0  0  0  0  0
   36.5840   30.1480   40.6860 H   0  0  0  0  0  0  0  0  0  0  0  0
   37.2230   28.2500   41.5470 C   0  0  0  0  0  3  0  0  0  0  0  0
   38.5740   27.6720   41.3530 C   0  0  0  0  0  2  0  0  0  0  0  0
   38.8600   26.5310   42.3390 C   0  0  0  0  0  2  0  0  0  0  0  0
   38.8190   27.1370   43.7090 C   0  0  0  0  0  2  0  0  0  0  0  0
   37.4830   27.7570   43.9890 C   0  0  0  0  0  2  0  0  0  0  0  0
   36.5510   27.7310   42.8000 C   0  0  0  0  0  2  0  0  0  0  0  0
   40.7930   34.5320   40.5250 O   0  0  0  0  0  0  0  0  0  0  0  0
   43.2190   34.0290   40.2950 C   0  0  0  0  0  0  0  0  0  0  0  0
   41.9660   34.3170   39.8250 C   0  0  0  0  0  0  0  0  0  0  0  0
   41.7990   34.4150   38.4530 C   0  0  0  0  0  0  0  0  0  0  0  0
   42.8520   34.2330   37.5680 C   0  0  0  0  0  0  0  0  0  0  0  0
   44.1070   33.9430   38.0740 C   0  0  0  0  0  0  0  0  0  0  0  0
   44.2760   33.8430   39.4460 C   0  0  0  0  0  0  0  0  0  0  0  0
   40.8710   34.6350   37.9610 H   0  0  0  0  0  0  0  0  0  0  0  0
   42.7480   34.3050   36.4960 H   0  0  0  0  0  0  0  0  0  0  0  0
   44.9980   33.7810   37.5060 H   0  0  0  0  0  0  0  0  0  0  0  0
   45.2080   33.6230   39.9530 H   0  0  0  0  0  0  0  0  0  0  0  0
   43.3350   33.9240   42.0260 S   0  0  0  0  0  0  0  0  0  0  0  0
   44.7660   34.0080   42.5030 O   0  0  0  0  0  0  0  0  0  0  0  0
   42.8570   32.5350   42.4260 O   0  0  0  0  0  0  0  0  0  0  0  0
   42.6000   34.8740   42.6800 H   0  0  0  0  0  0  0  0  0  0  0  0
  1  6  2  0  0  0  0
  1  2  1  0  0  0  0
  2  3  2  0  0  0  0
  3  4  1  0  0  0  0
  3  9  1  0  0  0  0
  5 21  1  0  0  0  0
  5  4  2  0  0  0  0
  6  5  1  0  0  0  0
  7  1  1  0  0  0  0
  8  2  1  0  0  0  0
  9 12  1  0  0  0  0
  9 10  1  0  0  0  0
 11  9  1  0  0  0  0
 12 15  1  0  0  0  0
 12 13  1  0  0  0  0
 14 12  1  0  0  0  0
 15 20  1  0  0  0  0
 16 15  1  0  0  0  0
 16 17  1  0  0  0  0
 17 18  1  0  0  0  0
 18 19  1  0  0  0  0
 20 19  1  0  0  0  0
 22 32  1  0  0  0  0
 23 22  1  0  0  0  0
 23 21  1  0  0  0  0
 24 23  2  0  0  0  0
 25 26  2  0  0  0  0
 25 24  1  0  0  0  0
 26 27  1  0  0  0  0
 27 31  1  0  0  0  0
 27 22  2  0  0  0  0
 28 24  1  0  0  0  0
 29 25  1  0  0  0  0
 30 26  1  0  0  0  0
 32 34  2  0  0  0  0
 32 33  2  0  0  0  0
 32 35  1  0  0  0  0
M  END
>  <minimizedAffinity>
-5.70198441

$$$$

 OpenBabel03242517543D

 35 37  0  0  0  0  0  0  0  0999 V2000
   35.4300   28.7990   37.1740 C   0  0  0  0  0  0  0  0  0  0  0  0
   35.4720   27.9520   38.3000 C   0  0  0  0  0  0  0  0  0  0  0  0
   36.4860   28.1150   39.2230 C   0  0  0  0  0  0  0  0  0  0  0  0
   37.3690   29.0850   38.9720 N   0  0  0  0  0  0  0  0  0  0  0  0
   37.3290   29.8810   37.9130 C   0  0  0  0  0  0  0  0  0  0  0  0
   36.3530   29.7310   37.0140 N   0  0  0  0  0  0  0  0  0  0  0  0
   34.6230   28.6510   36.4610 H   0  0  0  0  0  0  0  0  0  0  0  0
   34.7460   27.1740   38.4830 H   0  0  0  0  0  0  0  0  0  0  0  0
   36.6350   27.2740   40.4410 C   0  0  0  0  0  0  0  0  0  0  0  0
   37.6380   26.8610   40.4800 H   0  0  0  0  0  0  0  0  0  0  0  0
   35.8440   26.4770   40.3070 H   0  0  0  0  0  0  0  0  0  0  0  0
   36.2310   28.0230   41.6830 C   0  0  0  0  0  0  0  0  0  0  0  0
   36.4790   29.0950   41.4760 H   0  0  0  0  0  0  0  0  0  0  0  0
   35.1350   28.0000   41.7760 H   0  0  0  0  0  0  0  0  0  0  0  0
   36.9360   27.5430   42.9160 C   0  0  0  0  0  3  0  0  0  0  0  0
   37.9100   26.4500   42.6860 C   0  0  0  0  0  2  0  0  0  0  0  0
   39.2260   26.6830   43.4400 C   0  0  0  0  0  2  0  0  0  0  0  0
   39.8160   27.9420   42.8810 C   0  0  0  0  0  2  0  0  0  0  0  0
   38.8870   29.1050   43.0630 C   0  0  0  0  0  2  0  0  0  0  0  0
   37.5500   28.7160   43.6500 C   0  0  0  0  0  2  0  0  0  0  0  0
   38.2560   30.8770   37.6760 O   0  0  0  0  0  0  0  0  0  0  0  0
   39.7020   32.4580   38.9420 C   0  0  0  0  0  0  0  0  0  0  0  0
   38.5060   31.9660   38.4900 C   0  0  0  0  0  0  0  0  0  0  0  0
   37.3510   32.6240   38.8790 C   0  0  0  0  0  0  0  0  0  0  0  0
   37.3820   33.7440   39.6980 C   0  0  0  0  0  0  0  0  0  0  0  0
   38.6050   34.2170   40.1380 C   0  0  0  0  0  0  0  0  0  0  0  0
   39.7630   33.5600   39.7500 C   0  0  0  0  0  0  0  0  0  0  0  0
   36.3560   32.3400   38.5940 H   0  0  0  0  0  0  0  0  0  0  0  0
   36.4970   34.2740   40.0160 H   0  0  0  0  0  0  0  0  0  0  0  0
   38.7690   35.0640   40.7690 H   0  0  0  0  0  0  0  0  0  0  0  0
   40.7710   33.8380   40.0320 H   0  0  0  0  0  0  0  0  0  0  0  0
   41.0970   31.5710   38.4050 S   0  0  0  0  0  0  0  0  0  0  0  0
   42.3400   31.9490   39.1760 O   0  0  0  0  0  0  0  0  0  0  0  0
   41.3710   31.9910   36.9660 O   0  0  0  0  0  0  0  0  0  0  0  0
   40.9380   30.2140   38.4700 H   0  0  0  0  0  0  0  0  0  0  0  0
  1  2  1  0  0  0  0
  2  8  1  0  0  0  0
  2  3  2  0  0  0  0
  3  9  1  0  0  0  0
  4  3  1  0  0  0  0
  5  4  2  0  0  0  0
  6  1  2  0  0  0  0
  6  5  1  0  0  0  0
  7  1  1  0  0  0  0
  9 10  1  0  0  0  0
  9 12  1  0  0  0  0
 11  9  1  0  0  0  0
 12 14  1  0  0  0  0
 12 15  1  0  0  0  0
 13 12  1  0  0  0  0
 15 20  1  0  0  0  0
 16 15  1  0  0  0  0
 16 17  1  0  0  0  0
 18 19  1  0  0  0  0
 18 17  1  0  0  0  0
 19 20  1  0  0  0  0
 21  5  1  0  0  0  0
 21 23  1  0  0  0  0
 22 27  1  0  0  0  0
 23 24  1  0  0  0  0
 23 22  2  0  0  0  0
 24 25  2  0  0  0  0
 25 29  1  0  0  0  0
 25 26  1  0  0  0  0
 26 30  1  0  0  0  0
 27 31  1  0  0  0  0
 27 26  2  0  0  0  0
 28 24  1  0  0  0  0
 32 35  1  0  0  0  0
 32 22  1  0  0  0  0
 32 33  2  0  0  0  0
 34 32  2  0  0  0  0
M  END
>  <minimizedAffinity>
-5.69174337

$$$$

 OpenBabel03242517543D

 35 37  0  0  0  0  0  0  0  0999 V2000
   37.2480   33.1400   39.7170 C   0  0  0  0  0  0  0  0  0  0  0  0
   37.2640   31.7630   40.0140 C   0  0  0  0  0  0  0  0  0  0  0  0
   38.4470   31.1790   40.4220 C   0  0  0  0  0  0  0  0  0  0  0  0
   39.5100   31.9840   40.5050 N   0  0  0  0  0  0  0  0  0  0  0  0
   39.4950   33.2790   40.2260 C   0  0  0  0  0  0  0  0  0  0  0  0
   38.3560   33.8520   39.8300 N   0  0  0  0  0  0  0  0  0  0  0  0
   36.3050   33.5770   39.3980 H   0  0  0  0  0  0  0  0  0  0  0  0
   36.3910   31.1300   39.9390 H   0  0  0  0  0  0  0  0  0  0  0  0
   38.5840   29.7340   40.7500 C   0  0  0  0  0  0  0  0  0  0  0  0
   38.8840   29.1840   39.8640 H   0  0  0  0  0  0  0  0  0  0  0  0
   37.5490   29.4480   41.1080 H   0  0  0  0  0  0  0  0  0  0  0  0
   39.4830   29.5210   41.9400 C   0  0  0  0  0  0  0  0  0  0  0  0
   40.3260   28.8880   41.5640 H   0  0  0  0  0  0  0  0  0  0  0  0
   39.9500   30.4800   42.2130 H   0  0  0  0  0  0  0  0  0  0  0  0
   38.7890   28.8560   43.0910 C   0  0  0  0  0  3  0  0  0  0  0  0
   37.3100   28.8450   43.0000 C   0  0  0  0  0  2  0  0  0  0  0  0
   36.7200   27.4780   43.3700 C   0  0  0  0  0  2  0  0  0  0  0  0
   37.2430   26.5040   42.3590 C   0  0  0  0  0  2  0  0  0  0  0  0
   38.7420   26.4570   42.3760 C   0  0  0  0  0  2  0  0  0  0  0  0
   39.3620   27.4720   43.3080 C   0  0  0  0  0  2  0  0  0  0  0  0
   40.6080   34.0900   40.3210 O   0  0  0  0  0  0  0  0  0  0  0  0
   43.0750   33.9840   40.0180 C   0  0  0  0  0  0  0  0  0  0  0  0
   41.7750   33.9590   39.5900 C   0  0  0  0  0  0  0  0  0  0  0  0
   41.5440   33.7790   38.2360 C   0  0  0  0  0  0  0  0  0  0  0  0
   42.5810   33.6270   37.3270 C   0  0  0  0  0  0  0  0  0  0  0  0
   43.8850   33.6560   37.7890 C   0  0  0  0  0  0  0  0  0  0  0  0
   44.1180   33.8360   39.1440 C   0  0  0  0  0  0  0  0  0  0  0  0
   40.5750   33.7410   37.7770 H   0  0  0  0  0  0  0  0  0  0  0  0
   42.4290   33.4850   36.2680 H   0  0  0  0  0  0  0  0  0  0  0  0
   44.7700   33.5520   37.1990 H   0  0  0  0  0  0  0  0  0  0  0  0
   45.0920   33.8760   39.6170 H   0  0  0  0  0  0  0  0  0  0  0  0
   43.2700   34.2150   41.7290 S   0  0  0  0  0  0  0  0  0  0  0  0
   44.4540   35.0960   42.0510 O   0  0  0  0  0  0  0  0  0  0  0  0
   43.6020   32.8550   42.3320 O   0  0  0  0  0  0  0  0  0  0  0  0
   42.1610   34.7330   42.3390 H   0  0  0  0  0  0  0  0  0  0  0  0
  1  6  2  0  0  0  0
  1  2  1  0  0  0  0
  2  3  2  0  0  0  0
  3  4  1  0  0  0  0
  3  9  1  0  0  0  0
  5 21  1  0  0  0  0
  5  4  2  0  0  0  0
  6  5  1  0  0  0  0
  7  1  1  0  0  0  0
  8  2  1  0  0  0  0
  9 11  1  0  0  0  0
  9 12  1  0  0  0  0
 10  9  1  0  0  0  0
 12 14  1  0  0  0  0
 12 15  1  0  0  0  0
 13 12  1  0  0  0  0
 15 20  1  0  0  0  0
 16 15  1  0  0  0  0
 16 17  1  0  0  0  0
 18 19  1  0  0  0  0
 18 17  1  0  0  0  0
 19 20  1  0  0  0  0
 22 32  1  0  0  0  0
 23 22  1  0  0  0  0
 23 21  1  0  0  0  0
 24 23  2  0  0  0  0
 25 26  2  0  0  0  0
 25 24  1  0  0  0  0
 26 27  1  0  0  0  0
 27 31  1  0  0  0  0
 27 22  2  0  0  0  0
 28 24  1  0  0  0  0
 29 25  1  0  0  0  0
 30 26  1  0  0  0  0
 32 33  2  0  0  0  0
 32 34  2  0  0  0  0
 32 35  1  0  0  0  0
M  END
>  <minimizedAffinity>
-5.60888815

$$$$

 OpenBabel03242517543D

 35 37  0  0  0  0  0  0  0  0999 V2000
   38.4780   28.7600   43.2190 C   0  0  0  0  0  0  0  0  0  0  0  0
   38.1800   27.3850   43.3050 C   0  0  0  0  0  0  0  0  0  0  0  0
   37.1760   26.8670   42.5120 C   0  0  0  0  0  0  0  0  0  0  0  0
   36.5500   27.7280   41.7050 N   0  0  0  0  0  0  0  0  0  0  0  0
   36.8320   29.0210   41.6230 C   0  0  0  0  0  0  0  0  0  0  0  0
   37.8010   29.5320   42.3870 N   0  0  0  0  0  0  0  0  0  0  0  0
   39.2730   29.1450   43.8530 H   0  0  0  0  0  0  0  0  0  0  0  0
   38.6990   26.7070   43.9660 H   0  0  0  0  0  0  0  0  0  0  0  0
   36.7680   25.4360   42.5280 C   0  0  0  0  0  0  0  0  0  0  0  0
   35.8290   25.3170   41.9950 H   0  0  0  0  0  0  0  0  0  0  0  0
   36.6720   25.2030   43.6300 H   0  0  0  0  0  0  0  0  0  0  0  0
   37.8730   24.5420   42.0310 C   0  0  0  0  0  0  0  0  0  0  0  0
   38.7560   25.2140   41.8850 H   0  0  0  0  0  0  0  0  0  0  0  0
   38.1710   23.8560   42.8390 H   0  0  0  0  0  0  0  0  0  0  0  0
   37.5280   23.8310   40.7570 C   0  0  0  0  0  3  0  0  0  0  0  0
   36.0860   23.8360   40.4160 C   0  0  0  0  0  2  0  0  0  0  0  0
   35.8440   24.1550   38.9350 C   0  0  0  0  0  2  0  0  0  0  0  0
   36.3670   25.5410   38.7100 C   0  0  0  0  0  2  0  0  0  0  0  0
   37.8270   25.6310   39.0410 C   0  0  0  0  0  2  0  0  0  0  0  0
   38.3870   24.3550   39.6250 C   0  0  0  0  0  2  0  0  0  0  0  0
   36.1700   29.8910   40.7800 O   0  0  0  0  0  0  0  0  0  0  0  0
   37.1500   31.3490   39.0180 C   0  0  0  0  0  0  0  0  0  0  0  0
   36.5430   30.2160   39.4890 C   0  0  0  0  0  0  0  0  0  0  0  0
   36.2410   29.2200   38.5750 C   0  0  0  0  0  0  0  0  0  0  0  0
   36.5330   29.3460   37.2250 C   0  0  0  0  0  0  0  0  0  0  0  0
   37.1460   30.5040   36.7790 C   0  0  0  0  0  0  0  0  0  0  0  0
   37.4510   31.5010   37.6920 C   0  0  0  0  0  0  0  0  0  0  0  0
   35.7670   28.2880   38.8160 H   0  0  0  0  0  0  0  0  0  0  0  0
   36.3070   28.5860   36.4920 H   0  0  0  0  0  0  0  0  0  0  0  0
   37.4240   30.7270   35.7720 H   0  0  0  0  0  0  0  0  0  0  0  0
   37.9280   32.4460   37.4590 H   0  0  0  0  0  0  0  0  0  0  0  0
   37.4930   32.5440   40.2330 S   0  0  0  0  0  0  0  0  0  0  0  0
   37.4360   33.9480   39.6790 O   0  0  0  0  0  0  0  0  0  0  0  0
   38.9380   32.3400   40.6700 O   0  0  0  0  0  0  0  0  0  0  0  0
   36.6660   32.4690   41.3200 H   0  0  0  0  0  0  0  0  0  0  0  0
  1  2  1  0  0  0  0
  1  7  1  0  0  0  0
  2  8  1  0  0  0  0
  3  9  1  0  0  0  0
  3  2  2  0  0  0  0
  4  3  1  0  0  0  0
  5  4  2  0  0  0  0
  5  6  1  0  0  0  0
  6  1  2  0  0  0  0
  9 11  1  0  0  0  0
 10  9  1  0  0  0  0
 12  9  1  0  0  0  0
 12 14  1  0  0  0  0
 13 12  1  0  0  0  0
 15 12  1  0  0  0  0
 16 15  1  0  0  0  0
 17 16  1  0  0  0  0
 18 17  1  0  0  0  0
 18 19  1  0  0  0  0
 19 20  1  0  0  0  0
 20 15  1  0  0  0  0
 21  5  1  0  0  0  0
 22 23  1  0  0  0  0
 22 32  1  0  0  0  0
 23 21  1  0  0  0  0
 24 28  1  0  0  0  0
 24 23  2  0  0  0  0
 25 24  1  0  0  0  0
 26 25  2  0  0  0  0
 26 27  1  0  0  0  0
 27 22  2  0  0  0  0
 29 25  1  0  0  0  0
 30 26  1  0  0  0  0
 31 27  1  0  0  0  0
 32 34  2  0  0  0  0
 32 35  1  0  0  0  0
 33 32  2  0  0  0  0
M  END
>  <minimizedAffinity>
-5.55505848

$$$$

 OpenBabel03242517543D

 35 37  0  0  0  0  0  0  0  0999 V2000
   36.9040   25.1690   38.5560 C   0  0  0  0  0  0  0  0  0  0  0  0
   37.1940   24.9420   39.9170 C   0  0  0  0  0  0  0  0  0  0  0  0
   36.9310   25.9410   40.8340 C   0  0  0  0  0  0  0  0  0  0  0  0
   36.4110   27.0710   40.3480 N   0  0  0  0  0  0  0  0  0  0  0  0
   36.1380   27.2840   39.0690 C   0  0  0  0  0  0  0  0  0  0  0  0
   36.3890   26.3250   38.1750 N   0  0  0  0  0  0  0  0  0  0  0  0
   37.1190   24.3670   37.8540 H   0  0  0  0  0  0  0  0  0  0  0  0
   37.6140   24.0190   40.2870 H   0  0  0  0  0  0  0  0  0  0  0  0
   37.2060   25.8170   42.2900 C   0  0  0  0  0  0  0  0  0  0  0  0
   38.2310   25.4950   42.4430 H   0  0  0  0  0  0  0  0  0  0  0  0
   36.4540   25.0450   42.6340 H   0  0  0  0  0  0  0  0  0  0  0  0
   36.8410   27.0770   43.0300 C   0  0  0  0  0  0  0  0  0  0  0  0
   36.4060   27.7590   42.2570 H   0  0  0  0  0  0  0  0  0  0  0  0
   36.0090   26.8620   43.7180 H   0  0  0  0  0  0  0  0  0  0  0  0
   38.0120   27.7210   43.7090 C   0  0  0  0  0  3  0  0  0  0  0  0
   39.2570   26.9170   43.6920 C   0  0  0  0  0  2  0  0  0  0  0  0
   40.4860   27.7650   43.3370 C   0  0  0  0  0  2  0  0  0  0  0  0
   40.2590   28.2780   41.9480 C   0  0  0  0  0  2  0  0  0  0  0  0
   39.0070   29.1000   41.8710 C   0  0  0  0  0  2  0  0  0  0  0  0
   38.2220   29.1170   43.1620 C   0  0  0  0  0  2  0  0  0  0  0  0
   35.5990   28.4630   38.5930 O   0  0  0  0  0  0  0  0  0  0  0  0
   36.8320   30.1400   37.2300 C   0  0  0  0  0  0  0  0  0  0  0  0
   36.2850   29.6450   38.3830 C   0  0  0  0  0  0  0  0  0  0  0  0
   36.4110   30.4050   39.5340 C   0  0  0  0  0  0  0  0  0  0  0  0
   37.0650   31.6290   39.5410 C   0  0  0  0  0  0  0  0  0  0  0  0
   37.6080   32.1030   38.3590 C   0  0  0  0  0  0  0  0  0  0  0  0
   37.4830   31.3440   37.2060 C   0  0  0  0  0  0  0  0  0  0  0  0
   36.0270   30.1300   40.4980 H   0  0  0  0  0  0  0  0  0  0  0  0
   37.1770   32.2400   40.4240 H   0  0  0  0  0  0  0  0  0  0  0  0
   38.1340   33.0230   38.2270 H   0  0  0  0  0  0  0  0  0  0  0  0
   37.8670   31.6130   36.2290 H   0  0  0  0  0  0  0  0  0  0  0  0
   36.6280   29.1220   35.8370 S   0  0  0  0  0  0  0  0  0  0  0  0
   37.8440   28.2640   35.5780 O   0  0  0  0  0  0  0  0  0  0  0  0
   36.5120   30.0350   34.6230 O   0  0  0  0  0  0  0  0  0  0  0  0
   35.5290   28.3100   35.9120 H   0  0  0  0  0  0  0  0  0  0  0  0
  1  2  1  0  0  0  0
  2  8  1  0  0  0  0
  2  3  2  0  0  0  0
  3  9  1  0  0  0  0
  4  3  1  0  0  0  0
  5  4  2  0  0  0  0
  6  1  2  0  0  0  0
  6  5  1  0  0  0  0
  7  1  1  0  0  0  0
  9 10  1  0  0  0  0
  9 11  1  0  0  0  0
  9 12  1  0  0  0  0
 12 15  1  0  0  0  0
 12 14  1  0  0  0  0
 13 12  1  0  0  0  0
 16 15  1  0  0  0  0
 17 16  1  0  0  0  0
 18 17  1  0  0  0  0
 19 18  1  0  0  0  0
 19 20  1  0  0  0  0
 20 15  1  0  0  0  0
 21  5  1  0  0  0  0
 22 23  1  0  0  0  0
 23 21  1  0  0  0  0
 23 24  2  0  0  0  0
 24 25  1  0  0  0  0
 24 28  1  0  0  0  0
 25 29  1  0  0  0  0
 26 25  2  0  0  0  0
 27 22  2  0  0  0  0
 27 26  1  0  0  0  0
 30 26  1  0  0  0  0
 31 27  1  0  0  0  0
 32 35  1  0  0  0  0
 32 22  1  0  0  0  0
 33 32  2  0  0  0  0
 34 32  2  0  0  0  0
M  END
>  <minimizedAffinity>
-5.50987148

$$$$

 OpenBabel03242517543D

 35 37  0  0  0  0  0  0  0  0999 V2000
   37.4940   31.0790   37.4160 C   0  0  0  0  0  0  0  0  0  0  0  0
   36.6620   30.0340   37.8670 C   0  0  0  0  0  0  0  0  0  0  0  0
   36.5250   29.8240   39.2250 C   0  0  0  0  0  0  0  0  0  0  0  0
   37.2080   30.6480   40.0250 N   0  0  0  0  0  0  0  0  0  0  0  0
   37.9900   31.6310   39.6010 C   0  0  0  0  0  0  0  0  0  0  0  0
   38.1290   31.8400   38.2900 N   0  0  0  0  0  0  0  0  0  0  0  0
   37.5860   31.2230   36.3430 H   0  0  0  0  0  0  0  0  0  0  0  0
   36.1190   29.3800   37.2010 H   0  0  0  0  0  0  0  0  0  0  0  0
   35.6850   28.7470   39.8130 C   0  0  0  0  0  0  0  0  0  0  0  0
   35.8350   27.8240   39.2620 H   0  0  0  0  0  0  0  0  0  0  0  0
   34.6330   29.1480   39.7060 H   0  0  0  0  0  0  0  0  0  0  0  0
   35.9080   28.6210   41.2970 C   0  0  0  0  0  0  0  0  0  0  0  0
   36.4800   29.5370   41.5900 H   0  0  0  0  0  0  0  0  0  0  0  0
   34.9420   28.7120   41.8150 H   0  0  0  0  0  0  0  0  0  0  0  0
   36.6620   27.3810   41.6750 C   0  0  0  0  0  3  0  0  0  0  0  0
   38.0840   27.3680   41.2560 C   0  0  0  0  0  2  0  0  0  0  0  0
   39.0090   26.8630   42.3710 C   0  0  0  0  0  2  0  0  0  0  0  0
   38.8790   27.8380   43.5020 C   0  0  0  0  0  2  0  0  0  0  0  0
   37.4620   27.9210   43.9860 C   0  0  0  0  0  2  0  0  0  0  0  0
   36.4970   27.1080   43.1550 C   0  0  0  0  0  2  0  0  0  0  0  0
   38.6850   32.4690   40.4500 O   0  0  0  0  0  0  0  0  0  0  0  0
   41.1480   32.7130   40.7030 C   0  0  0  0  0  0  0  0  0  0  0  0
   39.9160   32.2090   41.0230 C   0  0  0  0  0  0  0  0  0  0  0  0
   39.8420   31.3020   42.0680 C   0  0  0  0  0  0  0  0  0  0  0  0
   40.9650   30.9050   42.7790 C   0  0  0  0  0  0  0  0  0  0  0  0
   42.1970   31.4320   42.4320 C   0  0  0  0  0  0  0  0  0  0  0  0
   42.2730   32.3400   41.3870 C   0  0  0  0  0  0  0  0  0  0  0  0
   38.9400   30.8370   42.4150 H   0  0  0  0  0  0  0  0  0  0  0  0
   40.9350   30.2000   43.5960 H   0  0  0  0  0  0  0  0  0  0  0  0
   43.1340   31.2120   42.8940 H   0  0  0  0  0  0  0  0  0  0  0  0
   43.1790   32.8150   41.0280 H   0  0  0  0  0  0  0  0  0  0  0  0
   41.1460   33.8420   39.3820 S   0  0  0  0  0  0  0  0  0  0  0  0
   42.5420   34.2890   39.0170 O   0  0  0  0  0  0  0  0  0  0  0  0
   40.4330   35.0990   39.8640 O   0  0  0  0  0  0  0  0  0  0  0  0
   40.5330   33.3630   38.2570 H   0  0  0  0  0  0  0  0  0  0  0  0
  1  2  2  0  0  0  0
  1  6  1  0  0  0  0
  2  3  1  0  0  0  0
  3  9  1  0  0  0  0
  3  4  2  0  0  0  0
  5  4  1  0  0  0  0
  5 21  1  0  0  0  0
  6  5  2  0  0  0  0
  7  1  1  0  0  0  0
  8  2  1  0  0  0  0
  9 12  1  0  0  0  0
 10  9  1  0  0  0  0
 11  9  1  0  0  0  0
 12 13  1  0  0  0  0
 12 15  1  0  0  0  0
 12 14  1  0  0  0  0
 15 20  1  0  0  0  0
 16 15  1  0  0  0  0
 16 17  1  0  0  0  0
 17 18  1  0  0  0  0
 18 19  1  0  0  0  0
 20 19  1  0  0  0  0
 21 23  1  0  0  0  0
 22 23  2  0  0  0  0
 22 27  1  0  0  0  0
 23 24  1  0  0  0  0
 24 28  1  0  0  0  0
 24 25  2  0  0  0  0
 25 29  1  0  0  0  0
 26 25  1  0  0  0  0
 26 30  1  0  0  0  0
 27 26  2  0  0  0  0
 31 27  1  0  0  0  0
 32 34  2  0  0  0  0
 32 22  1  0  0  0  0
 33 32  2  0  0  0  0
 35 32  1  0  0  0  0
M  END
>  <minimizedAffinity>
-5.49483395

$$$$

 OpenBabel03242517543D

 35 37  0  0  0  0  0  0  0  0999 V2000
   35.4710   28.8890   40.5510 C   0  0  0  0  0  0  0  0  0  0  0  0
   36.2280   28.5680   41.6960 C   0  0  0  0  0  0  0  0  0  0  0  0
   37.3770   29.2860   41.9620 C   0  0  0  0  0  0  0  0  0  0  0  0
   37.6900   30.2510   41.0940 N   0  0  0  0  0  0  0  0  0  0  0  0
   36.9780   30.5530   40.0170 C   0  0  0  0  0  0  0  0  0  0  0  0
   35.8660   29.8640   39.7510 N   0  0  0  0  0  0  0  0  0  0  0  0
   34.5710   28.3090   40.3630 H   0  0  0  0  0  0  0  0  0  0  0  0
   35.9550   27.7830   42.3850 H   0  0  0  0  0  0  0  0  0  0  0  0
   38.2580   29.0290   43.1330 C   0  0  0  0  0  0  0  0  0  0  0  0
   37.9380   28.1240   43.6400 H   0  0  0  0  0  0  0  0  0  0  0  0
   38.1220   29.9530   43.7710 H   0  0  0  0  0  0  0  0  0  0  0  0
   39.7120   29.0320   42.7410 C   0  0  0  0  0  0  0  0  0  0  0  0
   39.7270   29.3260   41.6620 H   0  0  0  0  0  0  0  0  0  0  0  0
   40.2240   29.8530   43.2660 H   0  0  0  0  0  0  0  0  0  0  0  0
   40.3780   27.7030   42.9390 C   0  0  0  0  0  3  0  0  0  0  0  0
   39.6220   26.7520   43.7880 C   0  0  0  0  0  2  0  0  0  0  0  0
   39.6000   25.3380   43.1910 C   0  0  0  0  0  2  0  0  0  0  0  0
   38.8830   25.4450   41.8800 C   0  0  0  0  0  2  0  0  0  0  0  0
   39.5790   26.4000   40.9560 C   0  0  0  0  0  2  0  0  0  0  0  0
   40.7490   27.1070   41.5980 C   0  0  0  0  0  2  0  0  0  0  0  0
   37.3230   31.5570   39.1340 O   0  0  0  0  0  0  0  0  0  0  0  0
   39.6310   32.4710   38.9690 C   0  0  0  0  0  0  0  0  0  0  0  0
   38.3100   32.5060   39.3260 C   0  0  0  0  0  0  0  0  0  0  0  0
   37.8470   33.6390   39.9750 C   0  0  0  0  0  0  0  0  0  0  0  0
   38.6780   34.7120   40.2650 C   0  0  0  0  0  0  0  0  0  0  0  0
   40.0080   34.6470   39.8920 C   0  0  0  0  0  0  0  0  0  0  0  0
   40.4730   33.5150   39.2410 C   0  0  0  0  0  0  0  0  0  0  0  0
   36.8370   33.7890   40.3060 H   0  0  0  0  0  0  0  0  0  0  0  0
   38.3430   35.6050   40.7700 H   0  0  0  0  0  0  0  0  0  0  0  0
   40.7500   35.3990   40.0540 H   0  0  0  0  0  0  0  0  0  0  0  0
   41.4910   33.3530   38.9050 H   0  0  0  0  0  0  0  0  0  0  0  0
   40.1230   31.0140   38.1600 S   0  0  0  0  0  0  0  0  0  0  0  0
   40.4890   29.9200   39.1360 O   0  0  0  0  0  0  0  0  0  0  0  0
   41.4090   31.3290   37.4060 O   0  0  0  0  0  0  0  0  0  0  0  0
   39.1840   30.5280   37.2920 H   0  0  0  0  0  0  0  0  0  0  0  0
  1  2  1  0  0  0  0
  2  3  2  0  0  0  0
  2  8  1  0  0  0  0
  3  9  1  0  0  0  0
  4  3  1  0  0  0  0
  5  4  2  0  0  0  0
  6  5  1  0  0  0  0
  6  1  2  0  0  0  0
  7  1  1  0  0  0  0
  9 10  1  0  0  0  0
  9 11  1  0  0  0  0
 12 15  1  0  0  0  0
 12  9  1  0  0  0  0
 12 14  1  0  0  0  0
 13 12  1  0  0  0  0
 15 16  1  0  0  0  0
 17 16  1  0  0  0  0
 18 17  1  0  0  0  0
 19 20  1  0  0  0  0
 19 18  1  0  0  0  0
 20 15  1  0  0  0  0
 21 23  1  0  0  0  0
 21  5  1  0  0  0  0
 22 27  2  0  0  0  0
 22 23  1  0  0  0  0
 23 24  2  0  0  0  0
 24 25  1  0  0  0  0
 24 28  1  0  0  0  0
 25 29  1  0  0  0  0
 26 30  1  0  0  0  0
 26 25  2  0  0  0  0
 27 26  1  0  0  0  0
 31 27  1  0  0  0  0
 32 22  1  0  0  0  0
 32 33  2  0  0  0  0
 34 32  2  0  0  0  0
 35 32  1  0  0  0  0
M  END
>  <minimizedAffinity>
-5.43149567

$$$$

 OpenBabel03242517543D

 35 37  0  0  0  0  0  0  0  0999 V2000
   39.6270   31.1020   41.9380 C   0  0  0  0  0  0  0  0  0  0  0  0
   38.4970   31.4380   41.1650 C   0  0  0  0  0  0  0  0  0  0  0  0
   37.4010   30.5980   41.1820 C   0  0  0  0  0  0  0  0  0  0  0  0
   37.4980   29.5080   41.9470 N   0  0  0  0  0  0  0  0  0  0  0  0
   38.5600   29.1930   42.6750 C   0  0  0  0  0  0  0  0  0  0  0  0
   39.6250   29.9980   42.6640 N   0  0  0  0  0  0  0  0  0  0  0  0
   40.4770   31.7790   41.9090 H   0  0  0  0  0  0  0  0  0  0  0  0
   38.4410   32.3260   40.5530 H   0  0  0  0  0  0  0  0  0  0  0  0
   36.1610   30.8460   40.3980 C   0  0  0  0  0  0  0  0  0  0  0  0
   36.4120   31.3250   39.4570 H   0  0  0  0  0  0  0  0  0  0  0  0
   35.5520   31.5150   41.0760 H   0  0  0  0  0  0  0  0  0  0  0  0
   35.3430   29.5900   40.2490 C   0  0  0  0  0  0  0  0  0  0  0  0
   35.7390   28.8840   41.0210 H   0  0  0  0  0  0  0  0  0  0  0  0
   34.3070   29.7960   40.5590 H   0  0  0  0  0  0  0  0  0  0  0  0
   35.4360   28.9860   38.8790 C   0  0  0  0  0  3  0  0  0  0  0  0
   36.1920   29.7960   37.8950 C   0  0  0  0  0  2  0  0  0  0  0  0
   37.1580   28.9410   37.0640 C   0  0  0  0  0  2  0  0  0  0  0  0
   38.1460   28.3620   38.0290 C   0  0  0  0  0  2  0  0  0  0  0  0
   37.4630   27.5280   39.0720 C   0  0  0  0  0  2  0  0  0  0  0  0
   35.9560   27.5670   38.9750 C   0  0  0  0  0  2  0  0  0  0  0  0
   38.6350   28.0590   43.4590 O   0  0  0  0  0  0  0  0  0  0  0  0
   39.5550   25.8190   42.8850 C   0  0  0  0  0  0  0  0  0  0  0  0
   38.5620   26.7530   43.0110 C   0  0  0  0  0  0  0  0  0  0  0  0
   37.2770   26.3800   42.6490 C   0  0  0  0  0  0  0  0  0  0  0  0
   36.9860   25.1100   42.1720 C   0  0  0  0  0  0  0  0  0  0  0  0
   38.0110   24.1880   42.0570 C   0  0  0  0  0  0  0  0  0  0  0  0
   39.2970   24.5590   42.4190 C   0  0  0  0  0  0  0  0  0  0  0  0
   36.4150   27.0170   42.7000 H   0  0  0  0  0  0  0  0  0  0  0  0
   35.9950   24.7950   41.8830 H   0  0  0  0  0  0  0  0  0  0  0  0
   37.9240   23.1830   41.7060 H   0  0  0  0  0  0  0  0  0  0  0  0
   40.1740   23.9240   42.3700 H   0  0  0  0  0  0  0  0  0  0  0  0
   41.1320   26.3730   43.3620 S   0  0  0  0  0  0  0  0  0  0  0  0
   41.7220   27.3360   42.3580 O   0  0  0  0  0  0  0  0  0  0  0  0
   42.0570   25.1620   43.3510 O   0  0  0  0  0  0  0  0  0  0  0  0
   41.1530   26.9610   44.5960 H   0  0  0  0  0  0  0  0  0  0  0  0
  1  6  1  0  0  0  0
  2  3  1  0  0  0  0
  2  1  2  0  0  0  0
  3  4  2  0  0  0  0
  4  5  1  0  0  0  0
  5 21  1  0  0  0  0
  6  5  2  0  0  0  0
  7  1  1  0  0  0  0
  8  2  1  0  0  0  0
  9 11  1  0  0  0  0
  9  3  1  0  0  0  0
 10  9  1  0  0  0  0
 12  9  1  0  0  0  0
 12 14  1  0  0  0  0
 12 13  1  0  0  0  0
 15 20  1  0  0  0  0
 15 12  1  0  0  0  0
 16 15  1  0  0  0  0
 17 16  1  0  0  0  0
 17 18  1  0  0  0  0
 18 19  1  0  0  0  0
 20 19  1  0  0  0  0
 22 23  1  0  0  0  0
 22 32  1  0  0  0  0
 23 21  1  0  0  0  0
 24 28  1  0  0  0  0
 24 23  2  0  0  0  0
 25 24  1  0  0  0  0
 26 25  2  0  0  0  0
 26 27  1  0  0  0  0
 27 22  2  0  0  0  0
 29 25  1  0  0  0  0
 30 26  1  0  0  0  0
 31 27  1  0  0  0  0
 32 35  1  0  0  0  0
 33 32  2  0  0  0  0
 34 32  2  0  0  0  0
M  END
>  <minimizedAffinity>
-5.40048075

$$$$
