
 OpenBabel03242520273D

 35 37  0  0  0  0  0  0  0  0999 V2000
   37.6670   31.4960   36.9940 C   0  0  0  0  0  0  0  0  0  0  0  0
   38.0690   31.2210   38.3340 C   0  0  0  0  0  0  0  0  0  0  0  0
   37.6700   30.0220   38.8920 C   0  0  0  0  0  0  0  0  0  0  0  0
   36.9160   29.1680   38.1420 N   0  0  0  0  0  0  0  0  0  0  0  0
   36.5410   29.4390   36.8770 C   0  0  0  0  0  0  0  0  0  0  0  0
   36.9200   30.6020   36.3130 N   0  0  0  0  0  0  0  0  0  0  0  0
   37.9690   32.4300   36.5370 H   0  0  0  0  0  0  0  0  0  0  0  0
   35.9450   28.6670   36.4090 H   0  0  0  0  0  0  0  0  0  0  0  0
   38.8470   32.2140   38.9630 N   0  0  0  0  0  0  0  0  0  0  0  0
   40.2940   32.2570   38.8920 C   0  0  0  0  0  0  0  0  0  0  0  0
   40.7950   33.5070   39.5570 C   0  0  0  0  0  0  0  0  0  0  0  0
   40.2720   33.6960   40.8870 N   0  0  0  0  0  0  0  0  0  0  0  0
   38.8580   33.5370   41.0140 C   0  0  0  0  0  0  0  0  0  0  0  0
   38.1420   33.2450   39.7240 C   0  0  0  0  0  0  0  0  0  0  0  0
   40.7030   31.3890   39.4400 H   0  0  0  0  0  0  0  0  0  0  0  0
   40.6630   32.2800   37.8490 H   0  0  0  0  0  0  0  0  0  0  0  0
   41.8840   33.5100   39.6340 H   0  0  0  0  0  0  0  0  0  0  0  0
   40.4750   34.3790   38.9400 H   0  0  0  0  0  0  0  0  0  0  0  0
   40.5140   34.6730   41.1660 H   0  0  0  0  0  0  0  0  0  0  0  0
   38.6700   32.6420   41.6750 H   0  0  0  0  0  0  0  0  0  0  0  0
   38.3250   34.3800   41.4880 H   0  0  0  0  0  0  0  0  0  0  0  0
   38.1140   34.1580   39.0960 H   0  0  0  0  0  0  0  0  0  0  0  0
   37.1120   32.9710   39.9590 H   0  0  0  0  0  0  0  0  0  0  0  0
   38.0750   29.7760   40.1970 O   0  0  0  0  0  0  0  0  0  0  0  0
   37.5360   29.6740   42.7920 O   0  0  0  0  0  0  0  0  0  0  0  0
   36.8600   29.6660   41.4260 P   0  0  1  0  0  0  0  0  0  0  0  0
   35.8520   30.9900   41.2460 O   0  0  0  0  0  0  0  0  0  0  0  0
   35.0610   30.6970   40.7030 H   0  0  0  0  0  0  0  0  0  0  0  0
   36.0500   28.2100   41.2040 O   0  0  0  0  0  0  0  0  0  0  0  0
   36.9500   27.1780   41.2000 C   0  0  0  0  0  3  0  0  0  0  0  0
   36.9980   26.4240   42.5130 C   0  0  0  0  0  2  0  0  0  0  0  0
   38.3200   25.6520   42.4760 C   0  0  0  0  0  2  0  0  0  0  0  0
   38.2380   24.5900   41.4130 C   0  0  0  0  0  2  0  0  0  0  0  0
   37.0670   24.7530   40.4980 C   0  0  0  0  0  2  0  0  0  0  0  0
   36.7620   26.1680   40.1200 C   0  0  0  0  0  2  0  0  0  0  0  0
  1  2  1  0  0  0  0
  2  3  2  0  0  0  0
  2  9  1  0  0  0  0
  3 24  1  0  0  0  0
  4  3  1  0  0  0  0
  5  4  2  0  0  0  0
  6  5  1  0  0  0  0
  6  1  2  0  0  0  0
  7  1  1  0  0  0  0
  8  5  1  0  0  0  0
  9 14  1  0  0  0  0
 10  9  1  0  0  0  0
 10 15  1  0  0  0  0
 10 11  1  0  0  0  0
 11 17  1  0  0  0  0
 11 12  1  0  0  0  0
 12 13  1  0  0  0  0
 12 19  1  0  0  0  0
 13 21  1  0  0  0  0
 13 20  1  0  0  0  0
 14 23  1  0  0  0  0
 14 13  1  0  0  0  0
 16 10  1  0  0  0  0
 18 11  1  0  0  0  0
 22 14  1  0  0  0  0
 24 26  1  0  0  0  0
 26 25  2  1  0  0  0
 27 26  1  0  0  0  0
 28 27  1  0  0  0  0
 29 26  1  0  0  0  0
 30 29  1  0  0  0  0
 30 31  1  0  0  0  0
 32 31  1  0  0  0  0
 33 32  1  0  0  0  0
 34 33  1  0  0  0  0
 35 34  1  0  0  0  0
 35 30  1  0  0  0  0
M  END
>  <minimizedAffinity>
-5.535954

$$$$

 OpenBabel03242520273D

 35 37  0  0  0  0  0  0  0  0999 V2000
   36.6370   30.4680   38.1540 C   0  0  0  0  0  0  0  0  0  0  0  0
   37.6670   30.2050   39.1040 C   0  0  0  0  0  0  0  0  0  0  0  0
   37.5530   29.0680   39.8790 C   0  0  0  0  0  0  0  0  0  0  0  0
   36.4700   28.2570   39.7000 N   0  0  0  0  0  0  0  0  0  0  0  0
   35.5030   28.5150   38.7990 C   0  0  0  0  0  0  0  0  0  0  0  0
   35.5940   29.6200   38.0330 N   0  0  0  0  0  0  0  0  0  0  0  0
   36.7070   31.3540   37.5360 H   0  0  0  0  0  0  0  0  0  0  0  0
   34.7070   27.7840   38.7710 H   0  0  0  0  0  0  0  0  0  0  0  0
   38.7140   31.1470   39.1580 N   0  0  0  0  0  0  0  0  0  0  0  0
   38.6770   32.3340   39.9890 C   0  0  0  0  0  0  0  0  0  0  0  0
   39.9960   33.0470   39.9110 C   0  0  0  0  0  0  0  0  0  0  0  0
   40.4320   33.2960   38.5600 N   0  0  0  0  0  0  0  0  0  0  0  0
   40.3630   32.1730   37.6800 C   0  0  0  0  0  0  0  0  0  0  0  0
   39.8910   30.9000   38.3270 C   0  0  0  0  0  0  0  0  0  0  0  0
   37.8960   33.0130   39.6040 H   0  0  0  0  0  0  0  0  0  0  0  0
   38.5050   32.0940   41.0570 H   0  0  0  0  0  0  0  0  0  0  0  0
   39.9610   34.0110   40.4240 H   0  0  0  0  0  0  0  0  0  0  0  0
   40.7660   32.4060   40.4020 H   0  0  0  0  0  0  0  0  0  0  0  0
   41.4300   33.5990   38.6200 H   0  0  0  0  0  0  0  0  0  0  0  0
   39.6030   32.4080   36.8810 H   0  0  0  0  0  0  0  0  0  0  0  0
   41.2980   31.9280   37.1460 H   0  0  0  0  0  0  0  0  0  0  0  0
   40.6860   30.4980   38.9880 H   0  0  0  0  0  0  0  0  0  0  0  0
   39.7100   30.1640   37.5400 H   0  0  0  0  0  0  0  0  0  0  0  0
   38.5680   28.8330   40.7960 O   0  0  0  0  0  0  0  0  0  0  0  0
   39.2480   30.3090   42.8930 O   0  0  0  0  0  0  0  0  0  0  0  0
   38.2770   29.2170   42.4590 P   0  0  1  0  0  0  0  0  0  0  0  0
   36.6910   29.7400   42.5760 O   0  0  0  0  0  0  0  0  0  0  0  0
   36.1330   28.9540   42.8550 H   0  0  0  0  0  0  0  0  0  0  0  0
   38.5590   27.8220   43.3540 O   0  0  0  0  0  0  0  0  0  0  0  0
   38.4540   26.7240   42.5420 C   0  0  0  0  0  3  0  0  0  0  0  0
   39.3770   25.5940   42.9470 C   0  0  0  0  0  2  0  0  0  0  0  0
   39.4550   24.6880   41.7160 C   0  0  0  0  0  2  0  0  0  0  0  0
   38.1120   24.0440   41.4950 C   0  0  0  0  0  2  0  0  0  0  0  0
   37.0170   24.6600   42.3040 C   0  0  0  0  0  2  0  0  0  0  0  0
   37.0850   26.1500   42.4140 C   0  0  0  0  0  2  0  0  0  0  0  0
  1  2  1  0  0  0  0
  2  9  1  0  0  0  0
  2  3  2  0  0  0  0
  3 24  1  0  0  0  0
  4  3  1  0  0  0  0
  5  4  2  0  0  0  0
  6  1  2  0  0  0  0
  6  5  1  0  0  0  0
  7  1  1  0  0  0  0
  8  5  1  0  0  0  0
  9 10  1  0  0  0  0
 10 16  1  0  0  0  0
 11 10  1  0  0  0  0
 11 18  1  0  0  0  0
 11 17  1  0  0  0  0
 12 19  1  0  0  0  0
 12 11  1  0  0  0  0
 13 14  1  0  0  0  0
 13 12  1  0  0  0  0
 14 22  1  0  0  0  0
 14  9  1  0  0  0  0
 15 10  1  0  0  0  0
 20 13  1  0  0  0  0
 21 13  1  0  0  0  0
 23 14  1  0  0  0  0
 24 26  1  0  0  0  0
 26 27  1  0  0  0  0
 26 25  2  1  0  0  0
 26 29  1  0  0  0  0
 27 28  1  0  0  0  0
 30 31  1  0  0  0  0
 30 29  1  0  0  0  0
 32 31  1  0  0  0  0
 33 32  1  0  0  0  0
 33 34  1  0  0  0  0
 34 35  1  0  0  0  0
 35 30  1  0  0  0  0
M  END
>  <minimizedAffinity>
-5.51846695

$$$$

 OpenBabel03242520273D

 35 37  0  0  0  0  0  0  0  0999 V2000
   41.5910   30.9050   39.6050 C   0  0  0  0  0  0  0  0  0  0  0  0
   40.2650   30.5930   40.0250 C   0  0  0  0  0  0  0  0  0  0  0  0
   40.0310   29.3300   40.5310 C   0  0  0  0  0  0  0  0  0  0  0  0
   41.0700   28.4480   40.6040 N   0  0  0  0  0  0  0  0  0  0  0  0
   42.3190   28.7540   40.2030 C   0  0  0  0  0  0  0  0  0  0  0  0
   42.5700   29.9810   39.7060 N   0  0  0  0  0  0  0  0  0  0  0  0
   41.7960   31.8900   39.2040 H   0  0  0  0  0  0  0  0  0  0  0  0
   43.0380   27.9550   40.3200 H   0  0  0  0  0  0  0  0  0  0  0  0
   39.3110   31.6200   39.8800 N   0  0  0  0  0  0  0  0  0  0  0  0
   39.2720   32.7960   40.7280 C   0  0  0  0  0  0  0  0  0  0  0  0
   38.2240   33.7460   40.2240 C   0  0  0  0  0  0  0  0  0  0  0  0
   36.9380   33.1270   40.0280 N   0  0  0  0  0  0  0  0  0  0  0  0
   36.9570   31.8980   39.3010 C   0  0  0  0  0  0  0  0  0  0  0  0
   38.3180   31.4790   38.8170 C   0  0  0  0  0  0  0  0  0  0  0  0
   38.9930   32.4880   41.7510 H   0  0  0  0  0  0  0  0  0  0  0  0
   40.2320   33.3480   40.7250 H   0  0  0  0  0  0  0  0  0  0  0  0
   38.0800   34.5830   40.9110 H   0  0  0  0  0  0  0  0  0  0  0  0
   38.5620   34.1440   39.2380 H   0  0  0  0  0  0  0  0  0  0  0  0
   36.3560   33.8100   39.4940 H   0  0  0  0  0  0  0  0  0  0  0  0
   36.6170   31.0790   39.9990 H   0  0  0  0  0  0  0  0  0  0  0  0
   36.2820   31.8510   38.4280 H   0  0  0  0  0  0  0  0  0  0  0  0
   38.6340   32.1310   37.9780 H   0  0  0  0  0  0  0  0  0  0  0  0
   38.2450   30.4580   38.4360 H   0  0  0  0  0  0  0  0  0  0  0  0
   38.7330   29.0490   40.9350 O   0  0  0  0  0  0  0  0  0  0  0  0
   39.2480   30.2880   43.2230 O   0  0  0  0  0  0  0  0  0  0  0  0
   38.3360   29.2330   42.6100 P   0  0  1  0  0  0  0  0  0  0  0  0
   36.7320   29.7040   42.6900 O   0  0  0  0  0  0  0  0  0  0  0  0
   36.1810   28.8800   42.8430 H   0  0  0  0  0  0  0  0  0  0  0  0
   38.6050   27.7500   43.3560 O   0  0  0  0  0  0  0  0  0  0  0  0
   38.4140   26.7380   42.4530 C   0  0  0  0  0  3  0  0  0  0  0  0
   39.3840   25.5890   42.6320 C   0  0  0  0  0  2  0  0  0  0  0  0
   39.3250   24.8140   41.3130 C   0  0  0  0  0  2  0  0  0  0  0  0
   37.9700   24.1720   41.1820 C   0  0  0  0  0  2  0  0  0  0  0  0
   36.9710   24.6830   42.1700 C   0  0  0  0  0  2  0  0  0  0  0  0
   37.0420   26.1550   42.4240 C   0  0  0  0  0  2  0  0  0  0  0  0
  1  6  2  0  0  0  0
  1  2  1  0  0  0  0
  2  3  2  0  0  0  0
  3  4  1  0  0  0  0
  3 24  1  0  0  0  0
  5  8  1  0  0  0  0
  5  4  2  0  0  0  0
  6  5  1  0  0  0  0
  7  1  1  0  0  0  0
  9  2  1  0  0  0  0
  9 10  1  0  0  0  0
 10 15  1  0  0  0  0
 11 10  1  0  0  0  0
 11 17  1  0  0  0  0
 12 11  1  0  0  0  0
 13 20  1  0  0  0  0
 13 12  1  0  0  0  0
 14 13  1  0  0  0  0
 14  9  1  0  0  0  0
 16 10  1  0  0  0  0
 18 11  1  0  0  0  0
 19 12  1  0  0  0  0
 21 13  1  0  0  0  0
 22 14  1  0  0  0  0
 23 14  1  0  0  0  0
 24 26  1  0  0  0  0
 26 27  1  0  0  0  0
 26 25  2  1  0  0  0
 26 29  1  0  0  0  0
 27 28  1  0  0  0  0
 30 31  1  0  0  0  0
 30 29  1  0  0  0  0
 32 31  1  0  0  0  0
 33 32  1  0  0  0  0
 33 34  1  0  0  0  0
 34 35  1  0  0  0  0
 35 30  1  0  0  0  0
M  END
>  <minimizedAffinity>
-5.40999269

$$$$

 OpenBabel03242520273D

 35 37  0  0  0  0  0  0  0  0999 V2000
   40.2800   32.7700   39.4890 C   0  0  0  0  0  0  0  0  0  0  0  0
   39.6260   31.5040   39.5220 C   0  0  0  0  0  0  0  0  0  0  0  0
   38.2970   31.4750   39.8980 C   0  0  0  0  0  0  0  0  0  0  0  0
   37.6800   32.6490   40.2180 N   0  0  0  0  0  0  0  0  0  0  0  0
   38.3080   33.8400   40.1840 C   0  0  0  0  0  0  0  0  0  0  0  0
   39.6040   33.8910   39.8200 N   0  0  0  0  0  0  0  0  0  0  0  0
   41.3210   32.8150   39.1970 H   0  0  0  0  0  0  0  0  0  0  0  0
   37.6910   34.6830   40.4640 H   0  0  0  0  0  0  0  0  0  0  0  0
   40.4120   30.3910   39.1610 N   0  0  0  0  0  0  0  0  0  0  0  0
   41.1790   29.6140   40.1150 C   0  0  0  0  0  0  0  0  0  0  0  0
   41.7920   28.4300   39.4230 C   0  0  0  0  0  0  0  0  0  0  0  0
   42.5260   28.7800   38.2340 N   0  0  0  0  0  0  0  0  0  0  0  0
   41.8440   29.6490   37.3290 C   0  0  0  0  0  0  0  0  0  0  0  0
   40.4470   30.0160   37.7480 C   0  0  0  0  0  0  0  0  0  0  0  0
   41.9960   30.2420   40.5100 H   0  0  0  0  0  0  0  0  0  0  0  0
   40.5490   29.2150   40.9340 H   0  0  0  0  0  0  0  0  0  0  0  0
   42.4780   27.8930   40.0830 H   0  0  0  0  0  0  0  0  0  0  0  0
   40.9690   27.7400   39.1230 H   0  0  0  0  0  0  0  0  0  0  0  0
   42.7280   27.8850   37.7340 H   0  0  0  0  0  0  0  0  0  0  0  0
   42.4150   30.6210   37.2890 H   0  0  0  0  0  0  0  0  0  0  0  0
   41.7780   29.2930   36.2860 H   0  0  0  0  0  0  0  0  0  0  0  0
   39.7760   29.1430   37.6210 H   0  0  0  0  0  0  0  0  0  0  0  0
   40.0900   30.8090   37.0880 H   0  0  0  0  0  0  0  0  0  0  0  0
   37.6820   30.2310   39.9220 O   0  0  0  0  0  0  0  0  0  0  0  0
   37.6390   29.7120   42.5230 O   0  0  0  0  0  0  0  0  0  0  0  0
   36.7290   29.8120   41.3050 P   0  0  1  0  0  0  0  0  0  0  0  0
   35.5880   31.0210   41.5040 O   0  0  0  0  0  0  0  0  0  0  0  0
   34.7410   30.7140   41.0620 H   0  0  0  0  0  0  0  0  0  0  0  0
   36.0280   28.3150   40.9980 O   0  0  0  0  0  0  0  0  0  0  0  0
   36.9710   27.3300   41.1250 C   0  0  0  0  0  3  0  0  0  0  0  0
   36.9100   26.6160   42.4590 C   0  0  0  0  0  2  0  0  0  0  0  0
   38.2620   25.9110   42.5910 C   0  0  0  0  0  2  0  0  0  0  0  0
   38.3480   24.8180   41.5600 C   0  0  0  0  0  2  0  0  0  0  0  0
   37.2780   24.8970   40.5190 C   0  0  0  0  0  2  0  0  0  0  0  0
   36.9510   26.2830   40.0650 C   0  0  0  0  0  2  0  0  0  0  0  0
  1  2  2  0  0  0  0
  1  6  1  0  0  0  0
  2  3  1  0  0  0  0
  3 24  1  0  0  0  0
  3  4  2  0  0  0  0
  5  4  1  0  0  0  0
  5  8  1  0  0  0  0
  6  5  2  0  0  0  0
  7  1  1  0  0  0  0
  9  2  1  0  0  0  0
  9 10  1  0  0  0  0
 10 15  1  0  0  0  0
 10 16  1  0  0  0  0
 11 17  1  0  0  0  0
 11 10  1  0  0  0  0
 12 11  1  0  0  0  0
 13 14  1  0  0  0  0
 13 12  1  0  0  0  0
 14  9  1  0  0  0  0
 18 11  1  0  0  0  0
 19 12  1  0  0  0  0
 20 13  1  0  0  0  0
 21 13  1  0  0  0  0
 22 14  1  0  0  0  0
 23 14  1  0  0  0  0
 24 26  1  0  0  0  0
 26 27  1  0  0  0  0
 26 25  2  1  0  0  0
 28 27  1  0  0  0  0
 29 30  1  0  0  0  0
 29 26  1  0  0  0  0
 30 31  1  0  0  0  0
 31 32  1  0  0  0  0
 33 32  1  0  0  0  0
 34 33  1  0  0  0  0
 35 34  1  0  0  0  0
 35 30  1  0  0  0  0
M  END
>  <minimizedAffinity>
-5.20980358

$$$$

 OpenBabel03242520273D

 35 37  0  0  0  0  0  0  0  0999 V2000
   37.3870   31.4340   38.0790 C   0  0  0  0  0  0  0  0  0  0  0  0
   37.7890   30.2340   38.7340 C   0  0  0  0  0  0  0  0  0  0  0  0
   37.9630   30.2760   40.1040 C   0  0  0  0  0  0  0  0  0  0  0  0
   37.7450   31.4540   40.7580 N   0  0  0  0  0  0  0  0  0  0  0  0
   37.3660   32.5820   40.1280 C   0  0  0  0  0  0  0  0  0  0  0  0
   37.1900   32.5640   38.7920 N   0  0  0  0  0  0  0  0  0  0  0  0
   37.2440   31.4240   37.0050 H   0  0  0  0  0  0  0  0  0  0  0  0
   37.2320   33.4370   40.7760 H   0  0  0  0  0  0  0  0  0  0  0  0
   37.9700   29.1080   37.9070 N   0  0  0  0  0  0  0  0  0  0  0  0
   39.2360   28.7690   37.2870 C   0  0  0  0  0  0  0  0  0  0  0  0
   39.1160   27.4470   36.5840 C   0  0  0  0  0  0  0  0  0  0  0  0
   37.9910   27.3780   35.6860 N   0  0  0  0  0  0  0  0  0  0  0  0
   36.7480   27.8230   36.2300 C   0  0  0  0  0  0  0  0  0  0  0  0
   36.8120   28.2470   37.6720 C   0  0  0  0  0  0  0  0  0  0  0  0
   39.4800   29.5380   36.5340 H   0  0  0  0  0  0  0  0  0  0  0  0
   40.0520   28.6650   38.0290 H   0  0  0  0  0  0  0  0  0  0  0  0
   40.0120   27.2220   36.0010 H   0  0  0  0  0  0  0  0  0  0  0  0
   38.9820   26.6550   37.3580 H   0  0  0  0  0  0  0  0  0  0  0  0
   37.8860   26.3740   35.4180 H   0  0  0  0  0  0  0  0  0  0  0  0
   36.4310   28.7420   35.6570 H   0  0  0  0  0  0  0  0  0  0  0  0
   35.9090   27.1100   36.1460 H   0  0  0  0  0  0  0  0  0  0  0  0
   36.9250   27.3540   38.3200 H   0  0  0  0  0  0  0  0  0  0  0  0
   35.8650   28.7270   37.9280 H   0  0  0  0  0  0  0  0  0  0  0  0
   38.3530   29.0950   40.7200 O   0  0  0  0  0  0  0  0  0  0  0  0
   39.5970   30.0710   42.8500 O   0  0  0  0  0  0  0  0  0  0  0  0
   38.5110   29.0820   42.4440 P   0  0  1  0  0  0  0  0  0  0  0  0
   37.0270   29.5210   43.0810 O   0  0  0  0  0  0  0  0  0  0  0  0
   36.5330   28.6780   43.3070 H   0  0  0  0  0  0  0  0  0  0  0  0
   38.9660   27.5270   42.8950 O   0  0  0  0  0  0  0  0  0  0  0  0
   38.4290   26.6180   42.0230 C   0  0  0  0  0  3  0  0  0  0  0  0
   39.3480   25.4490   41.7390 C   0  0  0  0  0  2  0  0  0  0  0  0
   38.8000   24.8180   40.4570 C   0  0  0  0  0  2  0  0  0  0  0  0
   37.4570   24.2040   40.7480 C   0  0  0  0  0  2  0  0  0  0  0  0
   36.8880   24.6160   42.0670 C   0  0  0  0  0  2  0  0  0  0  0  0
   37.1080   26.0520   42.4200 C   0  0  0  0  0  2  0  0  0  0  0  0
  1  2  2  0  0  0  0
  1  6  1  0  0  0  0
  2  3  1  0  0  0  0
  3 24  1  0  0  0  0
  3  4  2  0  0  0  0
  5  4  1  0  0  0  0
  5  8  1  0  0  0  0
  6  5  2  0  0  0  0
  7  1  1  0  0  0  0
  9  2  1  0  0  0  0
 10  9  1  0  0  0  0
 10 16  1  0  0  0  0
 11 10  1  0  0  0  0
 11 18  1  0  0  0  0
 12 13  1  0  0  0  0
 12 11  1  0  0  0  0
 13 14  1  0  0  0  0
 14  9  1  0  0  0  0
 14 23  1  0  0  0  0
 14 22  1  0  0  0  0
 15 10  1  0  0  0  0
 17 11  1  0  0  0  0
 19 12  1  0  0  0  0
 20 13  1  0  0  0  0
 21 13  1  0  0  0  0
 24 26  1  0  0  0  0
 26 25  2  1  0  0  0
 26 29  1  0  0  0  0
 26 27  1  0  0  0  0
 27 28  1  0  0  0  0
 30 35  1  0  0  0  0
 30 29  1  0  0  0  0
 31 30  1  0  0  0  0
 32 33  1  0  0  0  0
 32 31  1  0  0  0  0
 33 34  1  0  0  0  0
 34 35  1  0  0  0  0
M  END
>  <minimizedAffinity>
-5.16657305

$$$$

 OpenBabel03242520273D

 35 37  0  0  0  0  0  0  0  0999 V2000
   39.4520   27.3360   42.3310 C   0  0  0  0  0  0  0  0  0  0  0  0
   38.1200   27.2610   41.8290 C   0  0  0  0  0  0  0  0  0  0  0  0
   37.3050   28.3620   42.0000 C   0  0  0  0  0  0  0  0  0  0  0  0
   37.8090   29.4600   42.6350 N   0  0  0  0  0  0  0  0  0  0  0  0
   39.0690   29.5190   43.1060 C   0  0  0  0  0  0  0  0  0  0  0  0
   39.8820   28.4560   42.9500 N   0  0  0  0  0  0  0  0  0  0  0  0
   40.1080   26.4830   42.2070 H   0  0  0  0  0  0  0  0  0  0  0  0
   39.3260   30.4530   43.5860 H   0  0  0  0  0  0  0  0  0  0  0  0
   37.7630   26.0520   41.1990 N   0  0  0  0  0  0  0  0  0  0  0  0
   37.1220   24.9510   41.8910 C   0  0  0  0  0  0  0  0  0  0  0  0
   36.7630   23.8760   40.9060 C   0  0  0  0  0  0  0  0  0  0  0  0
   37.8660   23.4740   40.0710 N   0  0  0  0  0  0  0  0  0  0  0  0
   38.5980   24.5440   39.4710 C   0  0  0  0  0  0  0  0  0  0  0  0
   38.0620   25.9160   39.7740 C   0  0  0  0  0  0  0  0  0  0  0  0
   37.8350   24.5250   42.6190 H   0  0  0  0  0  0  0  0  0  0  0  0
   36.1810   25.2580   42.3870 H   0  0  0  0  0  0  0  0  0  0  0  0
   36.3940   22.9790   41.4090 H   0  0  0  0  0  0  0  0  0  0  0  0
   35.9600   24.2710   40.2400 H   0  0  0  0  0  0  0  0  0  0  0  0
   37.4630   22.8890   39.3050 H   0  0  0  0  0  0  0  0  0  0  0  0
   39.6440   24.5260   39.8940 H   0  0  0  0  0  0  0  0  0  0  0  0
   38.7140   24.4850   38.3750 H   0  0  0  0  0  0  0  0  0  0  0  0
   37.1150   26.0790   39.2200 H   0  0  0  0  0  0  0  0  0  0  0  0
   38.7860   26.6520   39.4190 H   0  0  0  0  0  0  0  0  0  0  0  0
   36.0130   28.2660   41.5030 O   0  0  0  0  0  0  0  0  0  0  0  0
   34.0440   29.1450   39.9570 O   0  0  0  0  0  0  0  0  0  0  0  0
   35.4800   29.4560   40.3630 P   0  0  1  0  0  0  0  0  0  0  0  0
   35.5840   30.9460   41.1180 O   0  0  0  0  0  0  0  0  0  0  0  0
   36.4600   31.3580   40.8550 H   0  0  0  0  0  0  0  0  0  0  0  0
   36.4830   29.3480   39.0180 O   0  0  0  0  0  0  0  0  0  0  0  0
   37.4250   30.3420   39.0650 C   0  0  0  0  0  3  0  0  0  0  0  0
   38.8410   29.8150   39.1610 C   0  0  0  0  0  2  0  0  0  0  0  0
   39.6720   31.0040   39.6500 C   0  0  0  0  0  2  0  0  0  0  0  0
   39.7120   32.0510   38.5690 C   0  0  0  0  0  2  0  0  0  0  0  0
   38.7240   31.8130   37.4730 C   0  0  0  0  0  2  0  0  0  0  0  0
   37.3920   31.3100   37.9320 C   0  0  0  0  0  2  0  0  0  0  0  0
  1  6  1  0  0  0  0
  2  3  1  0  0  0  0
  2  1  2  0  0  0  0
  3  4  2  0  0  0  0
  4  5  1  0  0  0  0
  5  8  1  0  0  0  0
  6  5  2  0  0  0  0
  7  1  1  0  0  0  0
  9  2  1  0  0  0  0
  9 10  1  0  0  0  0
 10 16  1  0  0  0  0
 10 15  1  0  0  0  0
 11 17  1  0  0  0  0
 11 10  1  0  0  0  0
 12 11  1  0  0  0  0
 13 14  1  0  0  0  0
 13 20  1  0  0  0  0
 13 12  1  0  0  0  0
 14  9  1  0  0  0  0
 18 11  1  0  0  0  0
 19 12  1  0  0  0  0
 21 13  1  0  0  0  0
 22 14  1  0  0  0  0
 23 14  1  0  0  0  0
 24  3  1  0  0  0  0
 26 25  2  6  0  0  0
 26 27  1  0  0  0  0
 26 24  1  0  0  0  0
 28 27  1  0  0  0  0
 29 30  1  0  0  0  0
 29 26  1  0  0  0  0
 30 31  1  0  0  0  0
 31 32  1  0  0  0  0
 33 32  1  0  0  0  0
 34 35  1  0  0  0  0
 34 33  1  0  0  0  0
 35 30  1  0  0  0  0
M  END
>  <minimizedAffinity>
-5.10359573

$$$$

 OpenBabel03242520273D

 35 37  0  0  0  0  0  0  0  0999 V2000
   40.9610   33.2950   39.7800 C   0  0  0  0  0  0  0  0  0  0  0  0
   40.2640   32.2860   39.0540 C   0  0  0  0  0  0  0  0  0  0  0  0
   38.8910   32.2290   39.1880 C   0  0  0  0  0  0  0  0  0  0  0  0
   38.2730   33.1320   40.0030 N   0  0  0  0  0  0  0  0  0  0  0  0
   38.9420   34.0810   40.6850 C   0  0  0  0  0  0  0  0  0  0  0  0
   40.2820   34.1550   40.5690 N   0  0  0  0  0  0  0  0  0  0  0  0
   42.0390   33.3570   39.6900 H   0  0  0  0  0  0  0  0  0  0  0  0
   38.3180   34.7250   41.2900 H   0  0  0  0  0  0  0  0  0  0  0  0
   41.0580   31.4350   38.2590 N   0  0  0  0  0  0  0  0  0  0  0  0
   41.6140   31.8290   36.9790 C   0  0  0  0  0  0  0  0  0  0  0  0
   42.5110   30.7420   36.4610 C   0  0  0  0  0  0  0  0  0  0  0  0
   41.8860   29.4430   36.4490 N   0  0  0  0  0  0  0  0  0  0  0  0
   41.2200   29.0750   37.6580 C   0  0  0  0  0  0  0  0  0  0  0  0
   41.3260   30.0890   38.7640 C   0  0  0  0  0  0  0  0  0  0  0  0
   40.7880   31.9650   36.2590 H   0  0  0  0  0  0  0  0  0  0  0  0
   42.2320   32.7450   37.0540 H   0  0  0  0  0  0  0  0  0  0  0  0
   42.8460   30.9510   35.4430 H   0  0  0  0  0  0  0  0  0  0  0  0
   43.4030   30.6820   37.1280 H   0  0  0  0  0  0  0  0  0  0  0  0
   42.6460   28.7480   36.2730 H   0  0  0  0  0  0  0  0  0  0  0  0
   40.1190   28.9860   37.4310 H   0  0  0  0  0  0  0  0  0  0  0  0
   41.5200   28.1040   38.0900 H   0  0  0  0  0  0  0  0  0  0  0  0
   42.3550   30.0880   39.1770 H   0  0  0  0  0  0  0  0  0  0  0  0
   40.6450   29.7930   39.5650 H   0  0  0  0  0  0  0  0  0  0  0  0
   38.2340   31.2390   38.4700 O   0  0  0  0  0  0  0  0  0  0  0  0
   35.9400   30.0210   39.0090 O   0  0  0  0  0  0  0  0  0  0  0  0
   37.4250   29.9860   39.3500 P   0  0  1  0  0  0  0  0  0  0  0  0
   38.1150   28.5330   38.8890 O   0  0  0  0  0  0  0  0  0  0  0  0
   38.8140   28.2990   39.5690 H   0  0  0  0  0  0  0  0  0  0  0  0
   37.6370   30.3040   40.9880 O   0  0  0  0  0  0  0  0  0  0  0  0
   37.9280   29.1410   41.6490 C   0  0  0  0  0  3  0  0  0  0  0  0
   38.7730   29.3550   42.8870 C   0  0  0  0  0  2  0  0  0  0  0  0
   39.3570   27.9770   43.2110 C   0  0  0  0  0  2  0  0  0  0  0  0
   38.2420   27.0630   43.6450 C   0  0  0  0  0  2  0  0  0  0  0  0
   36.8800   27.6120   43.3660 C   0  0  0  0  0  2  0  0  0  0  0  0
   36.7500   28.3240   42.0580 C   0  0  0  0  0  2  0  0  0  0  0  0
  1  6  1  0  0  0  0
  2  3  1  0  0  0  0
  2  1  2  0  0  0  0
  3  4  2  0  0  0  0
  4  5  1  0  0  0  0
  5  8  1  0  0  0  0
  6  5  2  0  0  0  0
  7  1  1  0  0  0  0
  9 14  1  0  0  0  0
  9  2  1  0  0  0  0
 10 16  1  0  0  0  0
 10  9  1  0  0  0  0
 11 10  1  0  0  0  0
 11 18  1  0  0  0  0
 12 11  1  0  0  0  0
 12 13  1  0  0  0  0
 13 21  1  0  0  0  0
 13 14  1  0  0  0  0
 14 22  1  0  0  0  0
 14 23  1  0  0  0  0
 15 10  1  0  0  0  0
 17 11  1  0  0  0  0
 19 12  1  0  0  0  0
 20 13  1  0  0  0  0
 24  3  1  0  0  0  0
 24 26  1  0  0  0  0
 26 25  2  6  0  0  0
 26 29  1  0  0  0  0
 27 26  1  0  0  0  0
 27 28  1  0  0  0  0
 29 30  1  0  0  0  0
 30 35  1  0  0  0  0
 30 31  1  0  0  0  0
 31 32  1  0  0  0  0
 32 33  1  0  0  0  0
 34 33  1  0  0  0  0
 35 34  1  0  0  0  0
M  END
>  <minimizedAffinity>
-5.07552242

$$$$

 OpenBabel03242520273D

 35 37  0  0  0  0  0  0  0  0999 V2000
   36.8220   31.7420   39.2740 C   0  0  0  0  0  0  0  0  0  0  0  0
   37.0720   30.3760   39.5980 C   0  0  0  0  0  0  0  0  0  0  0  0
   38.0250   30.1060   40.5600 C   0  0  0  0  0  0  0  0  0  0  0  0
   38.6780   31.1510   41.1480 N   0  0  0  0  0  0  0  0  0  0  0  0
   38.4350   32.4370   40.8330 C   0  0  0  0  0  0  0  0  0  0  0  0
   37.5080   32.7230   39.8970 N   0  0  0  0  0  0  0  0  0  0  0  0
   36.0780   31.9750   38.5220 H   0  0  0  0  0  0  0  0  0  0  0  0
   39.0290   33.1550   41.3810 H   0  0  0  0  0  0  0  0  0  0  0  0
   36.3070   29.4230   38.8940 N   0  0  0  0  0  0  0  0  0  0  0  0
   36.7430   28.8100   37.6550 C   0  0  0  0  0  0  0  0  0  0  0  0
   35.7600   27.7520   37.2430 C   0  0  0  0  0  0  0  0  0  0  0  0
   34.3970   28.2180   37.2140 N   0  0  0  0  0  0  0  0  0  0  0  0
   33.9730   28.9380   38.3730 C   0  0  0  0  0  0  0  0  0  0  0  0
   35.0110   29.0460   39.4560 C   0  0  0  0  0  0  0  0  0  0  0  0
   36.7680   29.5810   36.8660 H   0  0  0  0  0  0  0  0  0  0  0  0
   37.7270   28.3110   37.7570 H   0  0  0  0  0  0  0  0  0  0  0  0
   35.9900   27.3570   36.2510 H   0  0  0  0  0  0  0  0  0  0  0  0
   35.8170   26.9190   37.9840 H   0  0  0  0  0  0  0  0  0  0  0  0
   33.7940   27.3710   37.1200 H   0  0  0  0  0  0  0  0  0  0  0  0
   33.7510   29.9980   38.0570 H   0  0  0  0  0  0  0  0  0  0  0  0
   33.0520   28.5650   38.8540 H   0  0  0  0  0  0  0  0  0  0  0  0
   35.1390   28.0630   39.9530 H   0  0  0  0  0  0  0  0  0  0  0  0
   34.6500   29.7530   40.2050 H   0  0  0  0  0  0  0  0  0  0  0  0
   38.2500   28.7700   40.8590 O   0  0  0  0  0  0  0  0  0  0  0  0
   39.0500   27.6290   43.1160 O   0  0  0  0  0  0  0  0  0  0  0  0
   37.8110   28.1950   42.4330 P   0  0  1  0  0  0  0  0  0  0  0  0
   37.1980   29.5000   43.2820 O   0  0  0  0  0  0  0  0  0  0  0  0
   36.1990   29.4730   43.2000 H   0  0  0  0  0  0  0  0  0  0  0  0
   36.6730   26.9760   42.2230 O   0  0  0  0  0  0  0  0  0  0  0  0
   37.2250   25.9480   41.5050 C   0  0  0  0  0  3  0  0  0  0  0  0
   37.0540   24.5980   42.1700 C   0  0  0  0  0  2  0  0  0  0  0  0
   38.0860   23.6920   41.4920 C   0  0  0  0  0  2  0  0  0  0  0  0
   37.6840   23.4810   40.0570 C   0  0  0  0  0  2  0  0  0  0  0  0
   36.6090   24.4110   39.5960 C   0  0  0  0  0  2  0  0  0  0  0  0
   36.7380   25.8120   40.1030 C   0  0  0  0  0  2  0  0  0  0  0  0
  1  2  2  0  0  0  0
  1  6  1  0  0  0  0
  2  3  1  0  0  0  0
  3 24  1  0  0  0  0
  3  4  2  0  0  0  0
  5  4  1  0  0  0  0
  5  8  1  0  0  0  0
  6  5  2  0  0  0  0
  7  1  1  0  0  0  0
  9 14  1  0  0  0  0
  9  2  1  0  0  0  0
 10 16  1  0  0  0  0
 10  9  1  0  0  0  0
 11 10  1  0  0  0  0
 11 18  1  0  0  0  0
 12 11  1  0  0  0  0
 12 13  1  0  0  0  0
 13 21  1  0  0  0  0
 13 14  1  0  0  0  0
 14 22  1  0  0  0  0
 14 23  1  0  0  0  0
 15 10  1  0  0  0  0
 17 11  1  0  0  0  0
 19 12  1  0  0  0  0
 20 13  1  0  0  0  0
 24 26  1  0  0  0  0
 26 25  2  1  0  0  0
 26 27  1  0  0  0  0
 28 27  1  0  0  0  0
 29 26  1  0  0  0  0
 30 31  1  0  0  0  0
 30 29  1  0  0  0  0
 32 31  1  0  0  0  0
 33 32  1  0  0  0  0
 34 33  1  0  0  0  0
 34 35  1  0  0  0  0
 35 30  1  0  0  0  0
M  END
>  <minimizedAffinity>
-5.03853035

$$$$

 OpenBabel03242520273D

 35 37  0  0  0  0  0  0  0  0999 V2000
   37.2920   33.1140   39.6530 C   0  0  0  0  0  0  0  0  0  0  0  0
   37.7200   31.7900   39.9640 C   0  0  0  0  0  0  0  0  0  0  0  0
   38.9900   31.6300   40.4830 C   0  0  0  0  0  0  0  0  0  0  0  0
   39.7670   32.7360   40.6710 N   0  0  0  0  0  0  0  0  0  0  0  0
   39.3520   33.9820   40.3730 C   0  0  0  0  0  0  0  0  0  0  0  0
   38.1170   34.1610   39.8650 N   0  0  0  0  0  0  0  0  0  0  0  0
   36.3000   33.2620   39.2450 H   0  0  0  0  0  0  0  0  0  0  0  0
   40.0770   34.7580   40.5750 H   0  0  0  0  0  0  0  0  0  0  0  0
   36.7910   30.7620   39.7080 N   0  0  0  0  0  0  0  0  0  0  0  0
   35.8700   30.2530   40.7060 C   0  0  0  0  0  0  0  0  0  0  0  0
   34.9360   29.2630   40.0720 C   0  0  0  0  0  0  0  0  0  0  0  0
   35.6150   28.2320   39.3280 N   0  0  0  0  0  0  0  0  0  0  0  0
   36.6190   28.6950   38.4230 C   0  0  0  0  0  0  0  0  0  0  0  0
   36.7660   30.1910   38.3630 C   0  0  0  0  0  0  0  0  0  0  0  0
   36.4480   29.7300   41.4880 H   0  0  0  0  0  0  0  0  0  0  0  0
   35.2410   31.0520   41.1430 H   0  0  0  0  0  0  0  0  0  0  0  0
   34.3130   28.7660   40.8190 H   0  0  0  0  0  0  0  0  0  0  0  0
   34.2760   29.8140   39.3620 H   0  0  0  0  0  0  0  0  0  0  0  0
   34.8840   27.7340   38.7730 H   0  0  0  0  0  0  0  0  0  0  0  0
   37.6140   28.3060   38.7840 H   0  0  0  0  0  0  0  0  0  0  0  0
   36.5180   28.3450   37.3800 H   0  0  0  0  0  0  0  0  0  0  0  0
   35.8990   30.6310   37.8310 H   0  0  0  0  0  0  0  0  0  0  0  0
   37.6630   30.4220   37.7850 H   0  0  0  0  0  0  0  0  0  0  0  0
   39.3840   30.3320   40.7790 O   0  0  0  0  0  0  0  0  0  0  0  0
   41.4900   29.4480   42.1280 O   0  0  0  0  0  0  0  0  0  0  0  0
   40.0930   30.0220   42.3280 P   0  0  1  0  0  0  0  0  0  0  0  0
   40.1510   31.4810   43.1470 O   0  0  0  0  0  0  0  0  0  0  0  0
   39.3420   31.5300   43.7360 H   0  0  0  0  0  0  0  0  0  0  0  0
   39.1230   28.8900   43.1070 O   0  0  0  0  0  0  0  0  0  0  0  0
   38.5830   28.0340   42.1850 C   0  0  0  0  0  3  0  0  0  0  0  0
   39.5160   26.9050   41.8010 C   0  0  0  0  0  2  0  0  0  0  0  0
   38.9520   26.3540   40.4890 C   0  0  0  0  0  2  0  0  0  0  0  0
   37.6260   25.6960   40.7640 C   0  0  0  0  0  2  0  0  0  0  0  0
   37.0790   26.0040   42.1200 C   0  0  0  0  0  2  0  0  0  0  0  0
   37.2810   27.4160   42.5680 C   0  0  0  0  0  2  0  0  0  0  0  0
  1  6  2  0  0  0  0
  1  2  1  0  0  0  0
  2  3  2  0  0  0  0
  3  4  1  0  0  0  0
  3 24  1  0  0  0  0
  5  8  1  0  0  0  0
  5  4  2  0  0  0  0
  6  5  1  0  0  0  0
  7  1  1  0  0  0  0
  9  2  1  0  0  0  0
  9 10  1  0  0  0  0
 10 16  1  0  0  0  0
 10 15  1  0  0  0  0
 11 10  1  0  0  0  0
 11 17  1  0  0  0  0
 12 11  1  0  0  0  0
 13 20  1  0  0  0  0
 13 12  1  0  0  0  0
 14 13  1  0  0  0  0
 14  9  1  0  0  0  0
 18 11  1  0  0  0  0
 19 12  1  0  0  0  0
 21 13  1  0  0  0  0
 22 14  1  0  0  0  0
 23 14  1  0  0  0  0
 24 26  1  0  0  0  0
 26 25  2  6  0  0  0
 26 29  1  0  0  0  0
 26 27  1  0  0  0  0
 27 28  1  0  0  0  0
 30 35  1  0  0  0  0
 30 29  1  0  0  0  0
 31 30  1  0  0  0  0
 32 33  1  0  0  0  0
 32 31  1  0  0  0  0
 33 34  1  0  0  0  0
 34 35  1  0  0  0  0
M  END
>  <minimizedAffinity>
-5.02032995

$$$$
