
 OpenBabel03252505493D

 19 20  0  0  0  0  0  0  0  0999 V2000
   45.0820   34.5290   45.6090 C   0  0  0  0  0  0  0  0  0  0  0  0
   45.5900   34.8030   44.3400 C   0  0  0  0  0  0  0  0  0  0  0  0
   46.6140   33.9900   43.8800 C   0  0  0  0  0  0  0  0  0  0  0  0
   47.0760   32.9850   44.6580 N   0  0  0  0  0  0  0  0  0  0  0  0
   46.5550   32.7590   45.8770 C   0  0  0  0  0  0  0  0  0  0  0  0
   45.5580   33.5170   46.3730 N   0  0  0  0  0  0  0  0  0  0  0  0
   44.2860   35.1180   46.0310 H   0  0  0  0  0  0  0  0  0  0  0  0
   46.9900   34.2200   42.8980 H   0  0  0  0  0  0  0  0  0  0  0  0
   44.9790   35.9500   43.5910 C   0  0  0  0  0  0  0  0  0  0  0  0
   44.8340   36.9660   44.5070 F   0  0  0  0  0  0  0  0  0  0  0  0
   43.7560   35.5390   43.1300 F   0  0  0  0  0  0  0  0  0  0  0  0
   45.8280   36.2630   42.5460 F   0  0  0  0  0  0  0  0  0  0  0  0
   47.0260   31.7220   46.6880 O   0  0  0  0  0  0  0  0  0  0  0  0
   46.8830   30.3620   46.3240 C   0  0  0  0  0  3  0  0  0  0  0  0
   45.4530   30.0530   45.9850 C   0  0  0  0  0  2  0  0  0  0  0  0
   44.7110   29.3300   47.0630 C   0  0  0  0  0  2  0  0  0  0  0  0
   45.4190   28.1060   47.5690 C   0  0  0  0  0  2  0  0  0  0  0  0
   46.9090   28.1260   47.3680 C   0  0  0  0  0  2  0  0  0  0  0  0
   47.3890   29.5410   47.4910 C   0  0  0  0  0  2  0  0  0  0  0  0
  1  7  1  0  0  0  0
  1  6  1  0  0  0  0
  2  1  2  0  0  0  0
  3  2  1  0  0  0  0
  3  4  2  0  0  0  0
  4  5  1  0  0  0  0
  5  6  2  0  0  0  0
  5 13  1  0  0  0  0
  8  3  1  0  0  0  0
  9  2  1  0  0  0  0
  9 10  1  0  0  0  0
 11  9  1  0  0  0  0
 12  9  1  0  0  0  0
 14 13  1  0  0  0  0
 14 19  1  0  0  0  0
 15 14  1  0  0  0  0
 15 16  1  0  0  0  0
 16 17  1  0  0  0  0
 18 19  1  0  0  0  0
 18 17  1  0  0  0  0
M  END
>  <minimizedAffinity>
-4.58920193

>  <minimizedRMSD>
1.69263613

$$$$
