
 OpenBabel03242510583D

 33 35  0  0  0  0  0  0  0  0999 V2000
   40.9460   33.8680   39.0090 C   0  0  0  0  0  0  0  0  0  0  0  0
   41.0130   35.1080   39.6340 C   0  0  0  0  0  0  0  0  0  0  0  0
   39.9650   35.6520   40.3550 C   0  0  0  0  0  0  0  0  0  0  0  0
   38.8110   34.9170   40.4450 C   0  0  0  0  0  0  0  0  0  0  0  0
   38.7370   33.6680   39.8190 C   0  0  0  0  0  0  0  0  0  0  0  0
   39.7850   33.2040   39.1410 N   0  0  0  0  0  0  0  0  0  0  0  0
   41.9520   35.6340   39.5220 H   0  0  0  0  0  0  0  0  0  0  0  0
   40.0460   36.6190   40.8290 H   0  0  0  0  0  0  0  0  0  0  0  0
   37.9910   35.3510   41.0130 H   0  0  0  0  0  0  0  0  0  0  0  0
   43.8970   30.0540   35.3660 C   0  0  0  0  0  0  0  0  0  0  0  0
   45.1740   30.5840   35.5380 C   0  0  0  0  0  0  0  0  0  0  0  0
   45.3380   31.6380   36.4380 C   0  0  0  0  0  0  0  0  0  0  0  0
   44.2430   32.1050   37.1070 N   0  0  0  0  0  0  0  0  0  0  0  0
   43.0100   31.5580   36.9070 C   0  0  0  0  0  0  0  0  0  0  0  0
   42.8360   30.5250   36.0310 N   0  0  0  0  0  0  0  0  0  0  0  0
   42.0950   33.3510   38.2620 C   0  0  0  0  0  0  0  0  0  0  0  0
   43.1420   34.0300   38.2150 O   0  0  0  0  0  0  0  0  0  0  0  0
   41.9230   32.0870   37.6340 N   0  0  0  0  0  0  0  0  0  0  0  0
   43.6920   29.2290   34.6800 H   0  0  0  0  0  0  0  0  0  0  0  0
   46.0120   30.1680   34.9760 H   0  0  0  0  0  0  0  0  0  0  0  0
   46.3190   32.0710   36.5950 H   0  0  0  0  0  0  0  0  0  0  0  0
   41.0280   31.5450   37.6940 H   0  0  0  0  0  0  0  0  0  0  0  0
   37.5120   32.9070   39.9270 C   0  0  0  0  0  3  0  0  0  0  0  0
   37.5060   31.7470   40.5670 C   0  0  0  0  0  3  0  0  0  0  0  0
   36.3430   30.8340   40.7730 C   0  0  0  0  0  0  0  0  0  0  0  0
   35.4900   31.4580   41.0800 H   0  0  0  0  0  0  0  0  0  0  0  0
   36.1570   30.2310   39.8680 H   0  0  0  0  0  0  0  0  0  0  0  0
   36.7540   29.8550   41.8620 C   0  0  0  0  0  3  0  0  0  0  0  0
   38.2670   29.9850   42.0170 C   0  0  0  0  0  2  0  0  0  0  0  0
   38.7900   28.8430   42.8450 C   0  0  0  0  0  2  0  0  0  0  0  0
   37.6820   28.2810   43.6850 C   0  0  0  0  0  2  0  0  0  0  0  0
   36.6180   27.6270   42.8060 C   0  0  0  0  0  2  0  0  0  0  0  0
   36.4070   28.4360   41.5460 C   0  0  0  0  0  2  0  0  0  0  0  0
  1  6  2  0  0  0  0
  1  2  1  0  0  0  0
  2  3  2  0  0  0  0
  3  4  1  0  0  0  0
  3  8  1  0  0  0  0
  4  9  1  0  0  0  0
  5 23  1  0  0  0  0
  5  4  2  0  0  0  0
  6  5  1  0  0  0  0
  7  2  1  0  0  0  0
 10 11  2  0  0  0  0
 10 15  1  0  0  0  0
 11 12  1  0  0  0  0
 12 21  1  0  0  0  0
 12 13  2  0  0  0  0
 14 13  1  0  0  0  0
 14 18  1  0  0  0  0
 15 14  2  0  0  0  0
 16  1  1  0  0  0  0
 17 16  2  0  0  0  0
 18 22  1  0  0  0  0
 18 16  1  0  0  0  0
 19 10  1  0  0  0  0
 20 11  1  0  0  0  0
 23 24  2  0  0  0  0
 24 25  1  0  0  0  0
 25 26  1  0  0  0  0
 25 28  1  0  0  0  0
 27 25  1  0  0  0  0
 28 29  1  0  0  0  0
 29 30  1  0  0  0  0
 30 31  1  0  0  0  0
 32 31  1  0  0  0  0
 33 28  1  0  0  0  0
 33 32  1  0  0  0  0
M  END
>  <minimizedAffinity>
-6.83443785

$$$$

 OpenBabel03242510583D

 33 35  0  0  0  0  0  0  0  0999 V2000
   37.2260   30.6730   41.0110 C   0  0  0  0  0  0  0  0  0  0  0  0
   36.0590   30.2320   40.3960 C   0  0  0  0  0  0  0  0  0  0  0  0
   35.4640   29.0160   40.6830 C   0  0  0  0  0  0  0  0  0  0  0  0
   36.0690   28.2230   41.6230 C   0  0  0  0  0  0  0  0  0  0  0  0
   37.2420   28.6610   42.2450 C   0  0  0  0  0  0  0  0  0  0  0  0
   37.7620   29.8430   41.9210 N   0  0  0  0  0  0  0  0  0  0  0  0
   35.6350   30.9070   39.6650 H   0  0  0  0  0  0  0  0  0  0  0  0
   34.5580   28.6990   40.1880 H   0  0  0  0  0  0  0  0  0  0  0  0
   35.5960   27.2680   41.8430 H   0  0  0  0  0  0  0  0  0  0  0  0
   41.6350   34.7480   40.3150 C   0  0  0  0  0  0  0  0  0  0  0  0
   40.8290   35.8440   40.0160 C   0  0  0  0  0  0  0  0  0  0  0  0
   39.4430   35.6760   40.0460 C   0  0  0  0  0  0  0  0  0  0  0  0
   38.9400   34.4470   40.3640 N   0  0  0  0  0  0  0  0  0  0  0  0
   39.7650   33.4000   40.6490 C   0  0  0  0  0  0  0  0  0  0  0  0
   41.1230   33.5510   40.6240 N   0  0  0  0  0  0  0  0  0  0  0  0
   37.8030   31.9730   40.6590 C   0  0  0  0  0  0  0  0  0  0  0  0
   37.0770   32.8310   40.1150 O   0  0  0  0  0  0  0  0  0  0  0  0
   39.1770   32.1590   40.9710 N   0  0  0  0  0  0  0  0  0  0  0  0
   42.7250   34.8050   40.3120 H   0  0  0  0  0  0  0  0  0  0  0  0
   41.2890   36.8030   39.7700 H   0  0  0  0  0  0  0  0  0  0  0  0
   38.7900   36.5100   39.8190 H   0  0  0  0  0  0  0  0  0  0  0  0
   39.7570   31.4160   41.4280 H   0  0  0  0  0  0  0  0  0  0  0  0
   37.8660   27.8100   43.2350 C   0  0  0  0  0  3  0  0  0  0  0  0
   39.0520   27.2700   42.9940 C   0  0  0  0  0  3  0  0  0  0  0  0
   39.8360   26.3740   43.8920 C   0  0  0  0  0  0  0  0  0  0  0  0
   39.2340   26.2150   44.7990 H   0  0  0  0  0  0  0  0  0  0  0  0
   40.1150   25.4430   43.3680 H   0  0  0  0  0  0  0  0  0  0  0  0
   41.1380   27.1010   44.1930 C   0  0  0  0  0  3  0  0  0  0  0  0
   41.3060   28.1610   43.1080 C   0  0  0  0  0  2  0  0  0  0  0  0
   42.7060   28.7110   43.1520 C   0  0  0  0  0  2  0  0  0  0  0  0
   43.2940   28.4820   44.5120 C   0  0  0  0  0  2  0  0  0  0  0  0
   43.4890   26.9900   44.7710 C   0  0  0  0  0  2  0  0  0  0  0  0
   42.3320   26.2020   44.1990 C   0  0  0  0  0  2  0  0  0  0  0  0
  1  6  1  0  0  0  0
  2  3  1  0  0  0  0
  2  1  2  0  0  0  0
  3  4  2  0  0  0  0
  4  9  1  0  0  0  0
  4  5  1  0  0  0  0
  5 23  1  0  0  0  0
  6  5  2  0  0  0  0
  7  2  1  0  0  0  0
  8  3  1  0  0  0  0
 10 15  1  0  0  0  0
 11 12  1  0  0  0  0
 11 10  2  0  0  0  0
 12 13  2  0  0  0  0
 13 14  1  0  0  0  0
 14 18  1  0  0  0  0
 15 14  2  0  0  0  0
 16 18  1  0  0  0  0
 16  1  1  0  0  0  0
 17 16  2  0  0  0  0
 18 22  1  0  0  0  0
 19 10  1  0  0  0  0
 20 11  1  0  0  0  0
 21 12  1  0  0  0  0
 24 23  2  0  0  0  0
 24 25  1  0  0  0  0
 25 28  1  0  0  0  0
 25 26  1  0  0  0  0
 27 25  1  0  0  0  0
 28 33  1  0  0  0  0
 29 30  1  0  0  0  0
 29 28  1  0  0  0  0
 30 31  1  0  0  0  0
 31 32  1  0  0  0  0
 33 32  1  0  0  0  0
M  END
>  <minimizedAffinity>
-6.76956797

$$$$

 OpenBabel03242510583D

 33 35  0  0  0  0  0  0  0  0999 V2000
   39.9130   32.6010   40.5700 C   0  0  0  0  0  0  0  0  0  0  0  0
   39.0190   33.3930   39.8580 C   0  0  0  0  0  0  0  0  0  0  0  0
   37.6770   33.0860   39.7220 C   0  0  0  0  0  0  0  0  0  0  0  0
   37.2250   31.9410   40.3260 C   0  0  0  0  0  0  0  0  0  0  0  0
   38.1190   31.1400   41.0440 C   0  0  0  0  0  0  0  0  0  0  0  0
   39.4000   31.4950   41.1360 N   0  0  0  0  0  0  0  0  0  0  0  0
   39.4410   34.2810   39.4070 H   0  0  0  0  0  0  0  0  0  0  0  0
   37.0060   33.7200   39.1620 H   0  0  0  0  0  0  0  0  0  0  0  0
   36.1700   31.7060   40.2140 H   0  0  0  0  0  0  0  0  0  0  0  0
   44.6160   35.8480   42.5380 C   0  0  0  0  0  0  0  0  0  0  0  0
   45.5820   35.3020   41.6970 C   0  0  0  0  0  0  0  0  0  0  0  0
   45.1810   34.3590   40.7490 C   0  0  0  0  0  0  0  0  0  0  0  0
   43.8610   34.0130   40.6880 N   0  0  0  0  0  0  0  0  0  0  0  0
   42.9470   34.5720   41.5320 C   0  0  0  0  0  0  0  0  0  0  0  0
   43.3270   35.4960   42.4630 N   0  0  0  0  0  0  0  0  0  0  0  0
   41.3230   32.9860   40.6750 C   0  0  0  0  0  0  0  0  0  0  0  0
   42.1880   32.2730   40.1260 O   0  0  0  0  0  0  0  0  0  0  0  0
   41.6000   34.1690   41.4120 N   0  0  0  0  0  0  0  0  0  0  0  0
   44.8550   36.5900   43.3020 H   0  0  0  0  0  0  0  0  0  0  0  0
   46.6230   35.6190   41.7920 H   0  0  0  0  0  0  0  0  0  0  0  0
   45.9090   33.9170   40.0800 H   0  0  0  0  0  0  0  0  0  0  0  0
   40.8480   34.7440   41.8610 H   0  0  0  0  0  0  0  0  0  0  0  0
   37.6250   29.9370   41.6750 C   0  0  0  0  0  3  0  0  0  0  0  0
   38.1740   29.5040   42.8010 C   0  0  0  0  0  3  0  0  0  0  0  0
   37.7960   28.2900   43.5820 C   0  0  0  0  0  0  0  0  0  0  0  0
   38.0650   28.4830   44.6320 H   0  0  0  0  0  0  0  0  0  0  0  0
   36.7310   28.0440   43.4280 H   0  0  0  0  0  0  0  0  0  0  0  0
   38.5920   27.1350   42.9940 C   0  0  0  0  0  3  0  0  0  0  0  0
   37.5740   26.1170   42.4880 C   0  0  0  0  0  2  0  0  0  0  0  0
   38.2700   24.8200   42.1760 C   0  0  0  0  0  2  0  0  0  0  0  0
   39.7270   25.0760   41.9310 C   0  0  0  0  0  2  0  0  0  0  0  0
   40.4140   25.5510   43.2090 C   0  0  0  0  0  2  0  0  0  0  0  0
   39.5030   26.4790   43.9810 C   0  0  0  0  0  2  0  0  0  0  0  0
  1 16  1  0  0  0  0
  1  6  1  0  0  0  0
  2  1  2  0  0  0  0
  3  2  1  0  0  0  0
  3  4  2  0  0  0  0
  4  5  1  0  0  0  0
  5  6  2  0  0  0  0
  5 23  1  0  0  0  0
  7  2  1  0  0  0  0
  8  3  1  0  0  0  0
  9  4  1  0  0  0  0
 10 19  1  0  0  0  0
 11 20  1  0  0  0  0
 11 10  2  0  0  0  0
 12 11  1  0  0  0  0
 13 12  2  0  0  0  0
 13 14  1  0  0  0  0
 14 15  2  0  0  0  0
 15 10  1  0  0  0  0
 16 18  1  0  0  0  0
 17 16  2  0  0  0  0
 18 14  1  0  0  0  0
 18 22  1  0  0  0  0
 21 12  1  0  0  0  0
 23 24  2  0  0  0  0
 24 25  1  0  0  0  0
 25 26  1  0  0  0  0
 27 25  1  0  0  0  0
 28 25  1  0  0  0  0
 28 33  1  0  0  0  0
 29 28  1  0  0  0  0
 30 29  1  0  0  0  0
 31 30  1  0  0  0  0
 31 32  1  0  0  0  0
 32 33  1  0  0  0  0
M  END
>  <minimizedAffinity>
-6.7665267

$$$$

 OpenBabel03242510583D

 33 35  0  0  0  0  0  0  0  0999 V2000
   37.1730   30.9060   39.1340 C   0  0  0  0  0  0  0  0  0  0  0  0
   36.5890   30.6060   37.9080 C   0  0  0  0  0  0  0  0  0  0  0  0
   35.9690   29.3990   37.6380 C   0  0  0  0  0  0  0  0  0  0  0  0
   35.9410   28.4650   38.6420 C   0  0  0  0  0  0  0  0  0  0  0  0
   36.5260   28.7600   39.8770 C   0  0  0  0  0  0  0  0  0  0  0  0
   37.1070   29.9440   40.0700 N   0  0  0  0  0  0  0  0  0  0  0  0
   36.6470   31.3870   37.1620 H   0  0  0  0  0  0  0  0  0  0  0  0
   35.5240   29.1930   36.6770 H   0  0  0  0  0  0  0  0  0  0  0  0
   35.4530   27.5180   38.4230 H   0  0  0  0  0  0  0  0  0  0  0  0
   41.7070   34.6700   40.4760 C   0  0  0  0  0  0  0  0  0  0  0  0
   40.9640   35.8470   40.5170 C   0  0  0  0  0  0  0  0  0  0  0  0
   39.5830   35.7670   40.3310 C   0  0  0  0  0  0  0  0  0  0  0  0
   39.0220   34.5400   40.1160 N   0  0  0  0  0  0  0  0  0  0  0  0
   39.7870   33.4120   40.0830 C   0  0  0  0  0  0  0  0  0  0  0  0
   41.1390   33.4770   40.2640 N   0  0  0  0  0  0  0  0  0  0  0  0
   37.8130   32.2060   39.3520 C   0  0  0  0  0  0  0  0  0  0  0  0
   37.1750   33.2470   39.0870 O   0  0  0  0  0  0  0  0  0  0  0  0
   39.1400   32.1780   39.8580 N   0  0  0  0  0  0  0  0  0  0  0  0
   42.7900   34.6550   40.6130 H   0  0  0  0  0  0  0  0  0  0  0  0
   41.4690   36.7990   40.6930 H   0  0  0  0  0  0  0  0  0  0  0  0
   38.9780   36.6650   40.3580 H   0  0  0  0  0  0  0  0  0  0  0  0
   39.6460   31.2850   40.0690 H   0  0  0  0  0  0  0  0  0  0  0  0
   36.4860   27.7630   40.9240 C   0  0  0  0  0  3  0  0  0  0  0  0
   36.8950   28.0670   42.1470 C   0  0  0  0  0  3  0  0  0  0  0  0
   36.9250   27.1710   43.3390 C   0  0  0  0  0  0  0  0  0  0  0  0
   36.4320   27.7090   44.1630 H   0  0  0  0  0  0  0  0  0  0  0  0
   36.4690   26.1940   43.1040 H   0  0  0  0  0  0  0  0  0  0  0  0
   38.3920   26.8980   43.6350 C   0  0  0  0  0  3  0  0  0  0  0  0
   39.1560   28.1620   43.2490 C   0  0  0  0  0  2  0  0  0  0  0  0
   40.6320   27.8690   43.2170 C   0  0  0  0  0  2  0  0  0  0  0  0
   40.9260   26.6690   44.0660 C   0  0  0  0  0  2  0  0  0  0  0  0
   40.3000   25.4140   43.4620 C   0  0  0  0  0  2  0  0  0  0  0  0
   38.9430   25.7330   42.8770 C   0  0  0  0  0  2  0  0  0  0  0  0
  1 16  1  0  0  0  0
  1  6  1  0  0  0  0
  2  1  2  0  0  0  0
  3  2  1  0  0  0  0
  3  4  2  0  0  0  0
  4  5  1  0  0  0  0
  5  6  2  0  0  0  0
  5 23  1  0  0  0  0
  7  2  1  0  0  0  0
  8  3  1  0  0  0  0
  9  4  1  0  0  0  0
 10 11  1  0  0  0  0
 10 19  1  0  0  0  0
 11 20  1  0  0  0  0
 12 21  1  0  0  0  0
 12 11  2  0  0  0  0
 13 12  1  0  0  0  0
 14 13  2  0  0  0  0
 14 15  1  0  0  0  0
 15 10  2  0  0  0  0
 16 18  1  0  0  0  0
 17 16  2  0  0  0  0
 18 22  1  0  0  0  0
 18 14  1  0  0  0  0
 23 24  2  0  0  0  0
 24 25  1  0  0  0  0
 25 28  1  0  0  0  0
 25 26  1  0  0  0  0
 27 25  1  0  0  0  0
 29 28  1  0  0  0  0
 30 29  1  0  0  0  0
 30 31  1  0  0  0  0
 32 31  1  0  0  0  0
 33 32  1  0  0  0  0
 33 28  1  0  0  0  0
M  END
>  <minimizedAffinity>
-6.46427393

$$$$

 OpenBabel03242510583D

 33 35  0  0  0  0  0  0  0  0999 V2000
   37.7050   30.4940   41.0730 C   0  0  0  0  0  0  0  0  0  0  0  0
   36.5150   30.7710   40.4090 C   0  0  0  0  0  0  0  0  0  0  0  0
   35.4530   29.8860   40.3540 C   0  0  0  0  0  0  0  0  0  0  0  0
   35.6020   28.6810   40.9920 C   0  0  0  0  0  0  0  0  0  0  0  0
   36.7960   28.3960   41.6620 C   0  0  0  0  0  0  0  0  0  0  0  0
   37.7790   29.2950   41.6750 N   0  0  0  0  0  0  0  0  0  0  0  0
   36.4660   31.7380   39.9280 H   0  0  0  0  0  0  0  0  0  0  0  0
   34.5410   30.1280   39.8300 H   0  0  0  0  0  0  0  0  0  0  0  0
   34.7630   27.9900   40.9450 H   0  0  0  0  0  0  0  0  0  0  0  0
   40.3160   35.8480   40.0510 C   0  0  0  0  0  0  0  0  0  0  0  0
   41.6140   35.4930   40.4120 C   0  0  0  0  0  0  0  0  0  0  0  0
   41.8630   34.1680   40.7730 C   0  0  0  0  0  0  0  0  0  0  0  0
   40.8250   33.2790   40.7580 N   0  0  0  0  0  0  0  0  0  0  0  0
   39.5690   33.6690   40.3990 C   0  0  0  0  0  0  0  0  0  0  0  0
   39.3130   34.9630   40.0420 N   0  0  0  0  0  0  0  0  0  0  0  0
   38.7900   31.4780   41.0910 C   0  0  0  0  0  0  0  0  0  0  0  0
   39.8480   31.2040   41.6960 O   0  0  0  0  0  0  0  0  0  0  0  0
   38.5460   32.6990   40.4040 N   0  0  0  0  0  0  0  0  0  0  0  0
   40.0470   36.8640   39.7560 H   0  0  0  0  0  0  0  0  0  0  0  0
   42.4030   36.2470   40.4030 H   0  0  0  0  0  0  0  0  0  0  0  0
   42.8620   33.8610   41.0580 H   0  0  0  0  0  0  0  0  0  0  0  0
   37.6450   32.8960   39.9070 H   0  0  0  0  0  0  0  0  0  0  0  0
   36.9330   27.1200   42.3300 C   0  0  0  0  0  3  0  0  0  0  0  0
   37.1070   26.0150   41.6200 C   0  0  0  0  0  3  0  0  0  0  0  0
   37.2640   24.6240   42.1370 C   0  0  0  0  0  0  0  0  0  0  0  0
   38.3170   24.5040   42.4330 H   0  0  0  0  0  0  0  0  0  0  0  0
   36.5430   24.4270   42.9490 H   0  0  0  0  0  0  0  0  0  0  0  0
   36.8840   23.6960   40.9930 C   0  0  0  0  0  3  0  0  0  0  0  0
   38.1500   22.9310   40.6150 C   0  0  0  0  0  2  0  0  0  0  0  0
   37.9400   22.2260   39.3020 C   0  0  0  0  0  2  0  0  0  0  0  0
   36.4730   22.0340   39.0630 C   0  0  0  0  0  2  0  0  0  0  0  0
   35.7790   23.3790   38.8610 C   0  0  0  0  0  2  0  0  0  0  0  0
   36.3620   24.4170   39.7930 C   0  0  0  0  0  2  0  0  0  0  0  0
  1 16  1  0  0  0  0
  1  6  1  0  0  0  0
  2  1  2  0  0  0  0
  3  2  1  0  0  0  0
  3  4  2  0  0  0  0
  4  5  1  0  0  0  0
  5  6  2  0  0  0  0
  5 23  1  0  0  0  0
  7  2  1  0  0  0  0
  8  3  1  0  0  0  0
  9  4  1  0  0  0  0
 10 11  1  0  0  0  0
 11 12  2  0  0  0  0
 12 21  1  0  0  0  0
 13 12  1  0  0  0  0
 14 18  1  0  0  0  0
 14 13  2  0  0  0  0
 15 10  2  0  0  0  0
 15 14  1  0  0  0  0
 16 17  2  0  0  0  0
 18 16  1  0  0  0  0
 19 10  1  0  0  0  0
 20 11  1  0  0  0  0
 22 18  1  0  0  0  0
 24 25  1  0  0  0  0
 24 23  2  0  0  0  0
 25 26  1  0  0  0  0
 25 27  1  0  0  0  0
 28 25  1  0  0  0  0
 29 28  1  0  0  0  0
 30 29  1  0  0  0  0
 31 30  1  0  0  0  0
 32 31  1  0  0  0  0
 32 33  1  0  0  0  0
 33 28  1  0  0  0  0
M  END
>  <minimizedAffinity>
-6.23643923

$$$$

 OpenBabel03242510583D

 33 35  0  0  0  0  0  0  0  0999 V2000
   37.7870   30.3870   38.3090 C   0  0  0  0  0  0  0  0  0  0  0  0
   36.8710   30.2420   37.2730 C   0  0  0  0  0  0  0  0  0  0  0  0
   35.6620   29.5830   37.4170 C   0  0  0  0  0  0  0  0  0  0  0  0
   35.3740   29.0540   38.6490 C   0  0  0  0  0  0  0  0  0  0  0  0
   36.2910   29.1970   39.6940 C   0  0  0  0  0  0  0  0  0  0  0  0
   37.4360   29.8450   39.4870 N   0  0  0  0  0  0  0  0  0  0  0  0
   37.1620   30.6820   36.3290 H   0  0  0  0  0  0  0  0  0  0  0  0
   34.9700   29.4840   36.5940 H   0  0  0  0  0  0  0  0  0  0  0  0
   34.4230   28.5370   38.7540 H   0  0  0  0  0  0  0  0  0  0  0  0
   41.8000   34.8540   38.9990 C   0  0  0  0  0  0  0  0  0  0  0  0
   42.7010   34.4470   38.0180 C   0  0  0  0  0  0  0  0  0  0  0  0
   42.3820   33.3260   37.2490 C   0  0  0  0  0  0  0  0  0  0  0  0
   41.2040   32.6790   37.4920 N   0  0  0  0  0  0  0  0  0  0  0  0
   40.3510   33.1110   38.4630 C   0  0  0  0  0  0  0  0  0  0  0  0
   40.6500   34.2070   39.2220 N   0  0  0  0  0  0  0  0  0  0  0  0
   39.0490   31.0980   38.0870 C   0  0  0  0  0  0  0  0  0  0  0  0
   39.9500   30.5430   37.4240 O   0  0  0  0  0  0  0  0  0  0  0  0
   39.1500   32.3960   38.6590 N   0  0  0  0  0  0  0  0  0  0  0  0
   41.9810   35.7200   39.6380 H   0  0  0  0  0  0  0  0  0  0  0  0
   43.6270   35.0060   37.8690 H   0  0  0  0  0  0  0  0  0  0  0  0
   43.0620   32.9860   36.4770 H   0  0  0  0  0  0  0  0  0  0  0  0
   38.3740   32.8320   39.2100 H   0  0  0  0  0  0  0  0  0  0  0  0
   35.9680   28.6340   40.9870 C   0  0  0  0  0  3  0  0  0  0  0  0
   36.8750   27.9340   41.6510 C   0  0  0  0  0  3  0  0  0  0  0  0
   36.7170   27.2840   42.9840 C   0  0  0  0  0  0  0  0  0  0  0  0
   36.2710   28.0300   43.6590 H   0  0  0  0  0  0  0  0  0  0  0  0
   36.1340   26.3510   42.8970 H   0  0  0  0  0  0  0  0  0  0  0  0
   38.1130   26.8750   43.4310 C   0  0  0  0  0  3  0  0  0  0  0  0
   39.0120   28.0900   43.2170 C   0  0  0  0  0  2  0  0  0  0  0  0
   40.4540   27.6790   43.3390 C   0  0  0  0  0  2  0  0  0  0  0  0
   40.5510   26.4150   44.1400 C   0  0  0  0  0  2  0  0  0  0  0  0
   39.9100   25.2500   43.3890 C   0  0  0  0  0  2  0  0  0  0  0  0
   38.6620   25.7110   42.6710 C   0  0  0  0  0  2  0  0  0  0  0  0
  1  6  1  0  0  0  0
  2  3  1  0  0  0  0
  2  1  2  0  0  0  0
  3  4  2  0  0  0  0
  4  9  1  0  0  0  0
  4  5  1  0  0  0  0
  5 23  1  0  0  0  0
  6  5  2  0  0  0  0
  7  2  1  0  0  0  0
  8  3  1  0  0  0  0
 10 15  1  0  0  0  0
 10 19  1  0  0  0  0
 11 10  2  0  0  0  0
 12 13  2  0  0  0  0
 12 11  1  0  0  0  0
 13 14  1  0  0  0  0
 14 18  1  0  0  0  0
 14 15  2  0  0  0  0
 16  1  1  0  0  0  0
 16 18  1  0  0  0  0
 17 16  2  0  0  0  0
 18 22  1  0  0  0  0
 20 11  1  0  0  0  0
 21 12  1  0  0  0  0
 23 24  2  0  0  0  0
 24 25  1  0  0  0  0
 25 28  1  0  0  0  0
 25 26  1  0  0  0  0
 27 25  1  0  0  0  0
 29 30  1  0  0  0  0
 29 28  1  0  0  0  0
 30 31  1  0  0  0  0
 32 31  1  0  0  0  0
 33 32  1  0  0  0  0
 33 28  1  0  0  0  0
M  END
>  <minimizedAffinity>
-6.18743467

$$$$

 OpenBabel03242510583D

 33 35  0  0  0  0  0  0  0  0999 V2000
   37.6670   29.3490   41.8560 C   0  0  0  0  0  0  0  0  0  0  0  0
   37.6740   29.0960   43.2230 C   0  0  0  0  0  0  0  0  0  0  0  0
   37.4420   27.8440   43.7650 C   0  0  0  0  0  0  0  0  0  0  0  0
   37.1950   26.8150   42.8930 C   0  0  0  0  0  0  0  0  0  0  0  0
   37.1860   27.0620   41.5170 C   0  0  0  0  0  0  0  0  0  0  0  0
   37.4180   28.2930   41.0630 N   0  0  0  0  0  0  0  0  0  0  0  0
   37.8760   29.9520   43.8530 H   0  0  0  0  0  0  0  0  0  0  0  0
   37.4530   27.6780   44.8310 H   0  0  0  0  0  0  0  0  0  0  0  0
   37.0130   25.8340   43.3250 H   0  0  0  0  0  0  0  0  0  0  0  0
   41.0430   34.1150   40.3020 C   0  0  0  0  0  0  0  0  0  0  0  0
   40.0020   35.0080   40.0590 C   0  0  0  0  0  0  0  0  0  0  0  0
   38.6940   34.5820   40.2960 C   0  0  0  0  0  0  0  0  0  0  0  0
   38.4920   33.3110   40.7540 N   0  0  0  0  0  0  0  0  0  0  0  0
   39.5410   32.4680   40.9770 C   0  0  0  0  0  0  0  0  0  0  0  0
   40.8260   32.8730   40.7500 N   0  0  0  0  0  0  0  0  0  0  0  0
   37.9220   30.7000   41.3500 C   0  0  0  0  0  0  0  0  0  0  0  0
   36.9740   31.3550   40.8670 O   0  0  0  0  0  0  0  0  0  0  0  0
   39.2590   31.1700   41.4520 N   0  0  0  0  0  0  0  0  0  0  0  0
   42.0910   34.3770   40.1400 H   0  0  0  0  0  0  0  0  0  0  0  0
   40.2260   36.0120   39.6940 H   0  0  0  0  0  0  0  0  0  0  0  0
   37.8630   35.2540   40.1170 H   0  0  0  0  0  0  0  0  0  0  0  0
   40.0310   30.5920   41.8630 H   0  0  0  0  0  0  0  0  0  0  0  0
   36.9250   25.9640   40.6130 C   0  0  0  0  0  3  0  0  0  0  0  0
   36.9370   24.7170   41.0620 C   0  0  0  0  0  3  0  0  0  0  0  0
   36.6930   23.4720   40.2780 C   0  0  0  0  0  0  0  0  0  0  0  0
   37.6550   23.1710   39.8360 H   0  0  0  0  0  0  0  0  0  0  0  0
   36.2270   22.6970   40.9110 H   0  0  0  0  0  0  0  0  0  0  0  0
   35.6650   23.8290   39.2140 C   0  0  0  0  0  3  0  0  0  0  0  0
   34.4480   22.9450   39.4700 C   0  0  0  0  0  2  0  0  0  0  0  0
   33.5180   23.0120   38.2890 C   0  0  0  0  0  2  0  0  0  0  0  0
   33.7690   24.2760   37.5210 C   0  0  0  0  0  2  0  0  0  0  0  0
   35.1560   24.2520   36.8830 C   0  0  0  0  0  2  0  0  0  0  0  0
   36.1550   23.6090   37.8190 C   0  0  0  0  0  2  0  0  0  0  0  0
  1  2  1  0  0  0  0
  2  3  2  0  0  0  0
  2  7  1  0  0  0  0
  3  8  1  0  0  0  0
  4  9  1  0  0  0  0
  4  3  1  0  0  0  0
  5  4  2  0  0  0  0
  6  5  1  0  0  0  0
  6  1  2  0  0  0  0
 10 15  1  0  0  0  0
 11 12  1  0  0  0  0
 11 10  2  0  0  0  0
 12 13  2  0  0  0  0
 13 14  1  0  0  0  0
 14 18  1  0  0  0  0
 15 14  2  0  0  0  0
 16 18  1  0  0  0  0
 16  1  1  0  0  0  0
 17 16  2  0  0  0  0
 18 22  1  0  0  0  0
 19 10  1  0  0  0  0
 20 11  1  0  0  0  0
 21 12  1  0  0  0  0
 23 24  2  0  0  0  0
 23  5  1  0  0  0  0
 25 27  1  0  0  0  0
 25 24  1  0  0  0  0
 26 25  1  0  0  0  0
 28 29  1  0  0  0  0
 28 25  1  0  0  0  0
 30 29  1  0  0  0  0
 31 30  1  0  0  0  0
 32 31  1  0  0  0  0
 32 33  1  0  0  0  0
 33 28  1  0  0  0  0
M  END
>  <minimizedAffinity>
-6.07757902

$$$$

 OpenBabel03242510583D

 33 35  0  0  0  0  0  0  0  0999 V2000
   37.9070   30.0600   41.4120 C   0  0  0  0  0  0  0  0  0  0  0  0
   38.1890   29.6430   42.7080 C   0  0  0  0  0  0  0  0  0  0  0  0
   37.9650   28.3540   43.1570 C   0  0  0  0  0  0  0  0  0  0  0  0
   37.4370   27.4570   42.2630 C   0  0  0  0  0  0  0  0  0  0  0  0
   37.1510   27.8700   40.9580 C   0  0  0  0  0  0  0  0  0  0  0  0
   37.3920   29.1280   40.5930 N   0  0  0  0  0  0  0  0  0  0  0  0
   38.6040   30.4010   43.3600 H   0  0  0  0  0  0  0  0  0  0  0  0
   38.1940   28.0590   44.1700 H   0  0  0  0  0  0  0  0  0  0  0  0
   37.2630   26.4460   42.6220 H   0  0  0  0  0  0  0  0  0  0  0  0
   41.3220   34.8640   40.0790 C   0  0  0  0  0  0  0  0  0  0  0  0
   40.2930   35.7950   39.9580 C   0  0  0  0  0  0  0  0  0  0  0  0
   38.9880   35.3790   40.2250 C   0  0  0  0  0  0  0  0  0  0  0  0
   38.7760   34.0800   40.5890 N   0  0  0  0  0  0  0  0  0  0  0  0
   39.8130   33.2000   40.6940 C   0  0  0  0  0  0  0  0  0  0  0  0
   41.0950   33.5950   40.4370 N   0  0  0  0  0  0  0  0  0  0  0  0
   38.1700   31.4420   41.0040 C   0  0  0  0  0  0  0  0  0  0  0  0
   37.2180   32.1530   40.6210 O   0  0  0  0  0  0  0  0  0  0  0  0
   39.5230   31.8740   41.0770 N   0  0  0  0  0  0  0  0  0  0  0  0
   42.3670   35.1170   39.8870 H   0  0  0  0  0  0  0  0  0  0  0  0
   40.5240   36.8210   39.6640 H   0  0  0  0  0  0  0  0  0  0  0  0
   38.1660   36.0800   40.1410 H   0  0  0  0  0  0  0  0  0  0  0  0
   40.2980   31.2490   41.4030 H   0  0  0  0  0  0  0  0  0  0  0  0
   36.5950   26.9090   40.0300 C   0  0  0  0  0  3  0  0  0  0  0  0
   35.9830   27.3260   38.9310 C   0  0  0  0  0  3  0  0  0  0  0  0
   35.3550   26.4840   37.8720 C   0  0  0  0  0  0  0  0  0  0  0  0
   36.1720   26.0200   37.2980 H   0  0  0  0  0  0  0  0  0  0  0  0
   34.6500   25.7600   38.3160 H   0  0  0  0  0  0  0  0  0  0  0  0
   34.5200   27.4240   37.0150 C   0  0  0  0  0  3  0  0  0  0  0  0
   35.4660   28.0260   35.9800 C   0  0  0  0  0  2  0  0  0  0  0  0
   34.7950   29.1880   35.2990 C   0  0  0  0  0  2  0  0  0  0  0  0
   33.3070   29.0570   35.4270 C   0  0  0  0  0  2  0  0  0  0  0  0
   32.8770   29.2000   36.8860 C   0  0  0  0  0  2  0  0  0  0  0  0
   33.8750   28.5230   37.7970 C   0  0  0  0  0  2  0  0  0  0  0  0
  1  2  1  0  0  0  0
  2  3  2  0  0  0  0
  2  7  1  0  0  0  0
  3  8  1  0  0  0  0
  4  9  1  0  0  0  0
  4  3  1  0  0  0  0
  5  4  2  0  0  0  0
  6  5  1  0  0  0  0
  6  1  2  0  0  0  0
 10 15  1  0  0  0  0
 11 10  2  0  0  0  0
 11 12  1  0  0  0  0
 12 13  2  0  0  0  0
 13 14  1  0  0  0  0
 14 18  1  0  0  0  0
 15 14  2  0  0  0  0
 16 18  1  0  0  0  0
 16  1  1  0  0  0  0
 17 16  2  0  0  0  0
 18 22  1  0  0  0  0
 19 10  1  0  0  0  0
 20 11  1  0  0  0  0
 21 12  1  0  0  0  0
 23  5  1  0  0  0  0
 24 23  2  0  0  0  0
 25 27  1  0  0  0  0
 25 24  1  0  0  0  0
 26 25  1  0  0  0  0
 28 33  1  0  0  0  0
 28 25  1  0  0  0  0
 29 28  1  0  0  0  0
 30 31  1  0  0  0  0
 30 29  1  0  0  0  0
 31 32  1  0  0  0  0
 32 33  1  0  0  0  0
M  END
>  <minimizedAffinity>
-6.01214743

$$$$

 OpenBabel03242510583D

 33 35  0  0  0  0  0  0  0  0999 V2000
   39.8500   33.9710   40.2960 C   0  0  0  0  0  0  0  0  0  0  0  0
   38.7930   34.8440   40.0630 C   0  0  0  0  0  0  0  0  0  0  0  0
   37.5510   34.4290   39.6150 C   0  0  0  0  0  0  0  0  0  0  0  0
   37.3750   33.0870   39.3960 C   0  0  0  0  0  0  0  0  0  0  0  0
   38.4340   32.2040   39.6280 C   0  0  0  0  0  0  0  0  0  0  0  0
   39.6040   32.6710   40.0610 N   0  0  0  0  0  0  0  0  0  0  0  0
   39.0000   35.8880   40.2560 H   0  0  0  0  0  0  0  0  0  0  0  0
   36.7490   35.1300   39.4410 H   0  0  0  0  0  0  0  0  0  0  0  0
   36.3970   32.7670   39.0430 H   0  0  0  0  0  0  0  0  0  0  0  0
   45.4100   33.5880   42.6330 C   0  0  0  0  0  0  0  0  0  0  0  0
   45.6430   34.9530   42.7820 C   0  0  0  0  0  0  0  0  0  0  0  0
   44.6170   35.8410   42.4530 C   0  0  0  0  0  0  0  0  0  0  0  0
   43.4330   35.3330   41.9990 N   0  0  0  0  0  0  0  0  0  0  0  0
   43.2480   33.9890   41.8670 C   0  0  0  0  0  0  0  0  0  0  0  0
   44.2430   33.1100   42.1870 N   0  0  0  0  0  0  0  0  0  0  0  0
   41.1390   34.4790   40.7720 C   0  0  0  0  0  0  0  0  0  0  0  0
   41.4120   35.6870   40.6090 O   0  0  0  0  0  0  0  0  0  0  0  0
   41.9990   33.5340   41.3950 N   0  0  0  0  0  0  0  0  0  0  0  0
   46.1650   32.8360   42.8710 H   0  0  0  0  0  0  0  0  0  0  0  0
   46.6110   35.3000   43.1500 H   0  0  0  0  0  0  0  0  0  0  0  0
   44.7670   36.9080   42.5580 H   0  0  0  0  0  0  0  0  0  0  0  0
   41.7370   32.5260   41.5140 H   0  0  0  0  0  0  0  0  0  0  0  0
   38.2290   30.7910   39.3920 C   0  0  0  0  0  3  0  0  0  0  0  0
   39.1270   29.9110   39.8100 C   0  0  0  0  0  3  0  0  0  0  0  0
   39.0800   28.4280   39.6530 C   0  0  0  0  0  0  0  0  0  0  0  0
   38.3660   28.2090   38.8450 H   0  0  0  0  0  0  0  0  0  0  0  0
   40.0920   28.0220   39.4820 H   0  0  0  0  0  0  0  0  0  0  0  0
   38.6150   27.8700   40.9900 C   0  0  0  0  0  3  0  0  0  0  0  0
   37.0910   27.9500   40.9890 C   0  0  0  0  0  2  0  0  0  0  0  0
   36.5720   27.7100   42.3820 C   0  0  0  0  0  2  0  0  0  0  0  0
   37.5950   26.9550   43.1770 C   0  0  0  0  0  2  0  0  0  0  0  0
   38.8410   27.8090   43.4020 C   0  0  0  0  0  2  0  0  0  0  0  0
   39.1520   28.6220   42.1660 C   0  0  0  0  0  2  0  0  0  0  0  0
  1 16  1  0  0  0  0
  2  7  1  0  0  0  0
  2  1  1  0  0  0  0
  3  2  2  0  0  0  0
  4  3  1  0  0  0  0
  4  5  2  0  0  0  0
  5  6  1  0  0  0  0
  6  1  2  0  0  0  0
  8  3  1  0  0  0  0
  9  4  1  0  0  0  0
 10 11  1  0  0  0  0
 10 19  1  0  0  0  0
 11 20  1  0  0  0  0
 12 21  1  0  0  0  0
 12 11  2  0  0  0  0
 13 12  1  0  0  0  0
 14 13  2  0  0  0  0
 14 15  1  0  0  0  0
 15 10  2  0  0  0  0
 16 18  1  0  0  0  0
 17 16  2  0  0  0  0
 18 22  1  0  0  0  0
 18 14  1  0  0  0  0
 23  5  1  0  0  0  0
 23 24  2  0  0  0  0
 25 24  1  0  0  0  0
 25 28  1  0  0  0  0
 26 25  1  0  0  0  0
 27 25  1  0  0  0  0
 28 33  1  0  0  0  0
 29 28  1  0  0  0  0
 29 30  1  0  0  0  0
 30 31  1  0  0  0  0
 31 32  1  0  0  0  0
 33 32  1  0  0  0  0
M  END
>  <minimizedAffinity>
-5.99681997

$$$$
