
 OpenBabel03252508563D

 21 22  0  0  0  0  0  0  0  0999 V2000
   46.5800   34.7710   41.7740 C   0  0  0  0  0  0  0  0  0  0  0  0
   46.5510   33.6910   41.5110 H   0  0  0  0  0  0  0  0  0  0  0  0
   45.9660   35.3130   41.0520 H   0  0  0  0  0  0  0  0  0  0  0  0
   44.5150   36.0530   44.6490 C   0  0  0  0  0  0  0  0  0  0  0  0
   45.1240   35.9480   43.3900 C   0  0  0  0  0  0  0  0  0  0  0  0
   45.9450   34.8660   43.1130 C   0  0  0  0  0  0  0  0  0  0  0  0
   46.1130   33.9500   44.1060 N   0  0  0  0  0  0  0  0  0  0  0  0
   45.5200   34.0720   45.3070 C   0  0  0  0  0  0  0  0  0  0  0  0
   44.7300   35.1010   45.5890 N   0  0  0  0  0  0  0  0  0  0  0  0
   43.9000   36.9380   44.7450 H   0  0  0  0  0  0  0  0  0  0  0  0
   44.9830   36.6820   42.6100 H   0  0  0  0  0  0  0  0  0  0  0  0
   45.6810   33.3100   46.0830 H   0  0  0  0  0  0  0  0  0  0  0  0
   47.9840   35.3070   41.8670 C   0  0  0  0  0  0  0  0  0  0  0  0
   48.0300   36.2320   41.2670 H   0  0  0  0  0  0  0  0  0  0  0  0
   48.1650   35.6060   42.9190 H   0  0  0  0  0  0  0  0  0  0  0  0
   49.0420   34.3580   41.3790 C   0  0  0  0  0  3  0  0  0  0  0  0
   50.1460   34.3390   42.3970 C   0  0  0  0  0  2  0  0  0  0  0  0
   50.7030   32.9580   42.6340 C   0  0  0  0  0  2  0  0  0  0  0  0
   50.8910   32.3360   41.2520 C   0  0  0  0  0  2  0  0  0  0  0  0
   49.5200   32.0080   40.7340 C   0  0  0  0  0  2  0  0  0  0  0  0
   48.4630   32.9910   41.0900 C   0  0  0  0  0  2  0  0  0  0  0  0
  1 13  1  0  0  0  0
  1  6  1  0  0  0  0
  2  1  1  0  0  0  0
  3  1  1  0  0  0  0
  4 10  1  0  0  0  0
  4  9  1  0  0  0  0
  5  4  2  0  0  0  0
  6  5  1  0  0  0  0
  6  7  2  0  0  0  0
  7  8  1  0  0  0  0
  8  9  2  0  0  0  0
  8 12  1  0  0  0  0
 11  5  1  0  0  0  0
 13 15  1  0  0  0  0
 14 13  1  0  0  0  0
 16 13  1  0  0  0  0
 16 17  1  0  0  0  0
 17 18  1  0  0  0  0
 19 18  1  0  0  0  0
 20 21  1  0  0  0  0
 20 19  1  0  0  0  0
 21 16  1  0  0  0  0
M  END
>  <minimizedAffinity>
-4.63314629

>  <minimizedRMSD>
2.79342914

$$$$
