
 OpenBabel03252507043D

 44 47  0  0  0  0  0  0  0  0999 V2000
   41.8910   31.4880   42.0600 C   0  0  0  0  0  0  0  0  0  0  0  0
   41.8090   32.1120   41.1060 H   0  0  0  0  0  0  0  0  0  0  0  0
   41.4250   32.1460   42.8260 H   0  0  0  0  0  0  0  0  0  0  0  0
   41.3120   30.2900   41.9740 N   0  0  0  0  0  0  0  0  0  0  0  0
   41.4160   29.1920   42.8740 C   0  0  0  0  0  0  0  0  0  0  0  0
   40.0370   29.2910   43.5250 C   0  0  0  0  0  0  0  0  0  0  0  0
   38.9310   29.1530   42.5950 C   0  0  0  0  0  0  0  0  0  0  0  0
   39.1400   29.4610   41.1970 C   0  0  0  0  0  0  0  0  0  0  0  0
   40.4370   30.1140   40.7860 C   0  0  0  0  0  0  0  0  0  0  0  0
   42.1510   29.5050   43.6700 H   0  0  0  0  0  0  0  0  0  0  0  0
   41.6670   28.2170   42.4930 H   0  0  0  0  0  0  0  0  0  0  0  0
   40.0290   28.4940   44.3070 H   0  0  0  0  0  0  0  0  0  0  0  0
   40.0470   30.2570   44.1000 H   0  0  0  0  0  0  0  0  0  0  0  0
   38.5360   28.0960   42.6370 H   0  0  0  0  0  0  0  0  0  0  0  0
   38.0610   29.7630   42.9550 H   0  0  0  0  0  0  0  0  0  0  0  0
   38.4630   29.2980   40.4060 H   0  0  0  0  0  0  0  0  0  0  0  0
   40.7770   30.6030   39.1640 S   0  0  0  0  0  0  0  0  0  0  0  0
   40.3720   32.2420   38.6450 C   0  0  0  0  0  3  0  0  0  0  0  0
   41.5180   33.1580   38.3410 C   0  0  0  0  0  2  0  0  0  0  0  0
   40.9700   34.5660   38.2010 C   0  0  0  0  0  2  0  0  0  0  0  0
   39.5470   34.5870   37.6800 C   0  0  0  0  0  2  0  0  0  0  0  0
   38.5960   33.9080   38.6430 C   0  0  0  0  0  2  0  0  0  0  0  0
   39.4140   32.9880   39.5600 C   0  0  0  0  0  2  0  0  0  0  0  0
   43.3520   31.4220   42.3290 C   0  0  0  0  0  0  0  0  0  0  0  0
   43.4980   31.2330   43.4330 H   0  0  0  0  0  0  0  0  0  0  0  0
   43.8350   30.6080   41.7570 H   0  0  0  0  0  0  0  0  0  0  0  0
   43.9420   32.7340   42.0190 C   0  0  0  0  0  0  0  0  0  0  0  0
   43.1500   33.7710   41.5860 C   0  0  0  0  0  0  0  0  0  0  0  0
   43.7490   34.9850   41.2920 C   0  0  0  0  0  0  0  0  0  0  0  0
   45.1070   35.0900   41.4520 N   0  0  0  0  0  0  0  0  0  0  0  0
   45.8390   34.0660   41.8740 C   0  0  0  0  0  0  0  0  0  0  0  0
   45.2370   32.9080   42.1490 N   0  0  0  0  0  0  0  0  0  0  0  0
   42.0930   33.8910   41.4180 H   0  0  0  0  0  0  0  0  0  0  0  0
   43.2910   35.9060   40.9390 H   0  0  0  0  0  0  0  0  0  0  0  0
   47.2760   34.2820   42.0430 C   0  0  0  0  0  0  0  0  0  0  0  0
   48.0690   33.3010   42.6300 C   0  0  0  0  0  0  0  0  0  0  0  0
   49.4200   33.5150   42.7970 C   0  0  0  0  0  0  0  0  0  0  0  0
   49.8640   34.7310   42.3460 C   0  0  0  0  0  0  0  0  0  0  0  0
   49.1160   35.7500   41.7520 C   0  0  0  0  0  0  0  0  0  0  0  0
   47.7970   35.4520   41.6270 N   0  0  0  0  0  0  0  0  0  0  0  0
   47.6520   32.3530   42.9680 H   0  0  0  0  0  0  0  0  0  0  0  0
   50.1160   32.8170   43.2400 H   0  0  0  0  0  0  0  0  0  0  0  0
   50.9340   34.9480   42.4580 H   0  0  0  0  0  0  0  0  0  0  0  0
   49.5580   36.6600   41.4350 H   0  0  0  0  0  0  0  0  0  0  0  0
  1 24  1  0  0  0  0
  1  3  1  0  0  0  0
  2  1  1  0  0  0  0
  4  1  1  0  0  0  0
  4  5  1  0  0  0  0
  5  6  1  0  0  0  0
  5 10  1  0  0  0  0
  6 13  1  0  0  0  0
  6 12  1  0  0  0  0
  7 14  1  0  0  0  0
  7 15  1  0  0  0  0
  7  6  1  0  0  0  0
  8  7  1  0  0  0  0
  9  8  2  0  0  0  0
  9  4  1  0  0  0  0
 11  5  1  0  0  0  0
 16  8  1  0  0  0  0
 17  9  1  0  0  0  0
 18 17  1  0  0  0  0
 18 23  1  0  0  0  0
 19 18  1  0  0  0  0
 20 19  1  0  0  0  0
 21 20  1  0  0  0  0
 21 22  1  0  0  0  0
 22 23  1  0  0  0  0
 24 25  1  0  0  0  0
 26 24  1  0  0  0  0
 27 32  1  0  0  0  0
 27 24  1  0  0  0  0
 28 27  2  0  0  0  0
 29 30  2  0  0  0  0
 29 28  1  0  0  0  0
 30 31  1  0  0  0  0
 31 35  1  0  0  0  0
 31 32  2  0  0  0  0
 33 28  1  0  0  0  0
 34 29  1  0  0  0  0
 35 36  1  0  0  0  0
 36 37  2  0  0  0  0
 36 41  1  0  0  0  0
 37 42  1  0  0  0  0
 38 43  1  0  0  0  0
 38 37  1  0  0  0  0
 39 38  2  0  0  0  0
 40 39  1  0  0  0  0
 40 35  2  0  0  0  0
 44 39  1  0  0  0  0
M  END
>  <minimizedAffinity>
-5.49785662

>  <minimizedRMSD>
3.48645735

$$$$
