
 OpenBabel03252509263D

 27 29  0  0  1  0  0  0  0  0999 V2000
   46.3610   35.0120   42.1010 C   0  0  1  0  0  0  0  0  0  0  0  0
   47.8860   35.2750   41.9390 C   0  0  0  0  0  0  0  0  0  0  0  0
   47.0750   34.0910   41.3200 C   0  0  2  0  0  0  0  0  0  0  0  0
   45.7350   35.8220   41.6690 H   0  0  0  0  0  0  0  0  0  0  0  0
   48.1530   36.0430   41.1860 H   0  0  0  0  0  0  0  0  0  0  0  0
   48.5540   35.0650   42.7680 H   0  0  0  0  0  0  0  0  0  0  0  0
   47.3610   33.1110   41.8150 H   0  0  0  0  0  0  0  0  0  0  0  0
   44.7970   34.9620   45.5120 C   0  0  0  0  0  0  0  0  0  0  0  0
   45.0730   35.3930   44.1830 C   0  0  0  0  0  0  0  0  0  0  0  0
   46.0310   34.6840   43.5370 C   0  0  0  0  0  0  0  0  0  0  0  0
   46.6880   33.6260   44.1300 N   0  0  0  0  0  0  0  0  0  0  0  0
   46.3970   33.2460   45.3990 C   0  0  0  0  0  0  0  0  0  0  0  0
   45.4420   33.9250   46.0900 N   0  0  0  0  0  0  0  0  0  0  0  0
   44.0220   35.5370   46.0300 H   0  0  0  0  0  0  0  0  0  0  0  0
   46.8810   32.4340   45.8980 H   0  0  0  0  0  0  0  0  0  0  0  0
   44.4180   36.4920   43.5770 N   0  0  0  0  0  0  0  0  0  0  0  0
   43.6810   36.4600   42.8190 H   0  0  0  0  0  0  0  0  0  0  0  0
   44.6080   37.5060   43.8340 H   0  0  0  0  0  0  0  0  0  0  0  0
   46.9400   34.0430   39.8120 C   0  0  0  0  0  0  0  0  0  0  0  0
   46.1100   33.3590   39.5330 H   0  0  0  0  0  0  0  0  0  0  0  0
   46.6860   35.0700   39.4420 H   0  0  0  0  0  0  0  0  0  0  0  0
   48.2470   33.5540   39.2160 C   0  0  0  0  0  3  0  0  0  0  0  0
   48.4790   32.1120   39.4900 C   0  0  0  0  0  2  0  0  0  0  0  0
   49.1800   31.3140   38.4610 C   0  0  0  0  0  2  0  0  0  0  0  0
   49.9560   32.2280   37.5340 C   0  0  0  0  0  2  0  0  0  0  0  0
   48.8720   33.0190   36.8260 C   0  0  0  0  0  2  0  0  0  0  0  0
   48.3450   34.0140   37.8190 C   0  0  0  0  0  2  0  0  0  0  0  0
  1  4  1  6  0  0  0
  1 10  1  0  0  0  0
  2  1  1  0  0  0  0
  2  6  1  0  0  0  0
  3  7  1  1  0  0  0
  3  2  1  0  0  0  0
  3  1  1  0  0  0  0
  5  2  1  0  0  0  0
  8 14  1  0  0  0  0
  8 13  1  0  0  0  0
  9  8  2  0  0  0  0
 10 11  2  0  0  0  0
 10  9  1  0  0  0  0
 11 12  1  0  0  0  0
 12 15  1  0  0  0  0
 12 13  2  0  0  0  0
 16 18  1  0  0  0  0
 16  9  1  0  0  0  0
 17 16  1  0  0  0  0
 19  3  1  0  0  0  0
 20 19  1  0  0  0  0
 21 19  1  0  0  0  0
 22 23  1  0  0  0  0
 22 19  1  0  0  0  0
 24 23  1  0  0  0  0
 25 24  1  0  0  0  0
 26 25  1  0  0  0  0
 26 27  1  0  0  0  0
 27 22  1  0  0  0  0
M  END
>  <minimizedAffinity>
-4.88278532

>  <minimizedRMSD>
0.872357666

$$$$
