
 OpenBabel03242519493D

 47 50  0  0  1  0  0  0  0  0999 V2000
   45.0510   29.3260   47.3480 C   0  0  0  0  0  0  0  0  0  0  0  0
   45.1760   29.2120   48.3870 H   0  0  0  0  0  0  0  0  0  0  0  0
   43.8160   29.5070   47.4120 H   0  0  0  0  0  0  0  0  0  0  0  0
   45.0640   28.1500   46.3780 C   0  0  0  0  0  0  0  0  0  0  0  0
   45.4330   27.2650   46.9590 H   0  0  0  0  0  0  0  0  0  0  0  0
   45.7390   28.2960   45.5460 H   0  0  0  0  0  0  0  0  0  0  0  0
   43.1530   28.7440   45.0000 C   0  0  0  0  0  0  0  0  0  0  0  0
   43.6950   27.8590   45.9450 C   0  0  0  0  0  0  0  0  0  0  0  0
   42.8330   26.8610   46.3360 C   0  0  0  0  0  0  0  0  0  0  0  0
   41.5590   26.6980   45.8810 C   0  0  0  0  0  0  0  0  0  0  0  0
   41.0440   27.5840   44.9490 C   0  0  0  0  0  0  0  0  0  0  0  0
   41.8690   28.6350   44.5000 C   0  0  0  0  0  0  0  0  0  0  0  0
   43.2910   26.1940   47.0710 H   0  0  0  0  0  0  0  0  0  0  0  0
   41.0100   25.8580   46.2910 H   0  0  0  0  0  0  0  0  0  0  0  0
   40.0290   27.4200   44.6150 H   0  0  0  0  0  0  0  0  0  0  0  0
   43.7820   29.8310   44.4280 O   0  0  0  0  0  0  0  0  0  0  0  0
   44.4540   29.6760   43.6810 H   0  0  0  0  0  0  0  0  0  0  0  0
   41.2640   29.4230   43.6010 O   0  0  0  0  0  0  0  0  0  0  0  0
   41.6220   30.3370   42.6620 C   0  0  0  0  0  3  0  0  0  0  0  0
   41.6980   29.5730   41.3210 C   0  0  0  0  0  2  0  0  0  0  0  0
   42.2410   30.5150   40.2880 C   0  0  0  0  0  2  0  0  0  0  0  0
   41.3230   31.7060   40.1300 C   0  0  0  0  0  2  0  0  0  0  0  0
   40.9590   32.3460   41.4280 C   0  0  0  0  0  2  0  0  0  0  0  0
   40.4630   31.3290   42.4240 C   0  0  0  0  0  2  0  0  0  0  0  0
   45.3870   30.4920   46.7820 O   0  0  0  0  0  0  0  0  0  0  0  0
   46.6510   32.4910   46.5300 C   0  0  2  0  0  0  0  0  0  0  0  0
   47.1080   32.5810   45.1440 C   0  0  1  0  0  0  0  0  0  0  0  0
   46.6850   31.2790   44.5680 O   0  0  0  0  0  0  0  0  0  0  0  0
   47.3220   30.4670   45.5010 C   0  0  0  0  0  0  0  0  0  0  0  0
   46.6060   31.0350   46.8460 C   0  0  2  0  0  0  0  0  0  0  0  0
   47.2440   33.0770   47.2570 H   0  0  0  0  0  0  0  0  0  0  0  0
   48.2290   32.5010   45.0930 H   0  0  0  0  0  0  0  0  0  0  0  0
   48.3910   30.6910   45.5960 H   0  0  0  0  0  0  0  0  0  0  0  0
   47.0480   29.4150   45.4220 H   0  0  0  0  0  0  0  0  0  0  0  0
   47.3610   30.5930   47.5180 H   0  0  0  0  0  0  0  0  0  0  0  0
   44.7810   35.1900   44.1180 C   0  0  0  0  0  0  0  0  0  0  0  0
   45.3450   35.7000   42.9520 C   0  0  0  0  0  0  0  0  0  0  0  0
   46.5490   35.1370   42.4860 C   0  0  0  0  0  0  0  0  0  0  0  0
   47.1130   34.1280   43.1850 N   0  0  0  0  0  0  0  0  0  0  0  0
   46.5500   33.6460   44.3160 C   0  0  0  0  0  0  0  0  0  0  0  0
   45.3800   34.1710   44.7920 N   0  0  0  0  0  0  0  0  0  0  0  0
   44.8150   36.5140   42.4610 H   0  0  0  0  0  0  0  0  0  0  0  0
   46.9630   35.5410   41.5940 H   0  0  0  0  0  0  0  0  0  0  0  0
   43.5910   35.7110   44.6230 O   0  0  0  0  0  0  0  0  0  0  0  0
   42.7390   35.7800   44.1010 H   0  0  0  0  0  0  0  0  0  0  0  0
   45.2780   32.9800   46.5880 O   0  0  0  0  0  0  0  0  0  0  0  0
   44.8220   32.4230   47.2760 H   0  0  0  0  0  0  0  0  0  0  0  0
  1  3  1  0  0  0  0
  1  2  1  0  0  0  0
  4  5  1  0  0  0  0
  4  1  1  0  0  0  0
  6  4  1  0  0  0  0
  7  8  1  0  0  0  0
  8  9  2  0  0  0  0
  8  4  1  0  0  0  0
  9 13  1  0  0  0  0
 10 14  1  0  0  0  0
 10  9  1  0  0  0  0
 11 10  2  0  0  0  0
 12 11  1  0  0  0  0
 12  7  2  0  0  0  0
 15 11  1  0  0  0  0
 16  7  1  0  0  0  0
 17 16  1  0  0  0  0
 18 12  1  0  0  0  0
 19 18  1  0  0  0  0
 20 19  1  0  0  0  0
 21 20  1  0  0  0  0
 22 21  1  0  0  0  0
 22 23  1  0  0  0  0
 23 24  1  0  0  0  0
 24 19  1  0  0  0  0
 25 30  1  0  0  0  0
 25  1  1  0  0  0  0
 26 46  1  0  0  0  0
 26 30  1  0  0  0  0
 26 31  1  1  0  0  0
 27 32  1  6  0  0  0
 27 26  1  0  0  0  0
 28 27  1  0  0  0  0
 28 29  1  0  0  0  0
 29 33  1  0  0  0  0
 29 30  1  0  0  0  0
 30 35  1  1  0  0  0
 34 29  1  0  0  0  0
 36 44  1  0  0  0  0
 36 41  1  0  0  0  0
 37 36  2  0  0  0  0
 38 37  1  0  0  0  0
 38 39  2  0  0  0  0
 39 40  1  0  0  0  0
 40 41  2  0  0  0  0
 40 27  1  0  0  0  0
 42 37  1  0  0  0  0
 43 38  1  0  0  0  0
 45 44  1  0  0  0  0
 46 47  1  0  0  0  0
M  END
>  <minimizedAffinity>
-5.98890448

>  <minimizedRMSD>
1.52402484

$$$$
