
 OpenBabel03242514173D

 38 40  0  0  0  0  0  0  0  0999 V2000
   45.9610   34.8940   43.3040 C   0  0  0  0  0  0  0  0  0  0  0  0
   45.6750   34.1510   44.4350 C   0  0  0  0  0  0  0  0  0  0  0  0
   44.9050   34.7520   45.3880 C   0  0  0  0  0  0  0  0  0  0  0  0
   44.4660   36.0270   45.1840 N   0  0  0  0  0  0  0  0  0  0  0  0
   44.7480   36.7360   44.0900 C   0  0  0  0  0  0  0  0  0  0  0  0
   45.4910   36.1550   43.1690 N   0  0  0  0  0  0  0  0  0  0  0  0
   44.5460   34.4070   46.3400 H   0  0  0  0  0  0  0  0  0  0  0  0
   44.4000   37.7480   43.9280 H   0  0  0  0  0  0  0  0  0  0  0  0
   46.8170   34.2270   42.3100 C   0  0  0  0  0  0  0  0  0  0  0  0
   48.1950   34.6780   42.2540 C   0  0  0  0  0  0  0  0  0  0  0  0
   48.5400   35.3600   40.9910 C   0  0  0  0  0  0  0  0  0  0  0  0
   48.2890   34.4520   39.8000 C   0  0  0  0  0  0  0  0  0  0  0  0
   46.9800   33.7440   39.8770 C   0  0  0  0  0  0  0  0  0  0  0  0
   46.0970   34.3090   40.9670 C   0  0  0  0  0  0  0  0  0  0  0  0
   46.8140   33.1180   42.4720 H   0  0  0  0  0  0  0  0  0  0  0  0
   48.9860   33.9120   42.4610 H   0  0  0  0  0  0  0  0  0  0  0  0
   48.3500   35.4350   43.0800 H   0  0  0  0  0  0  0  0  0  0  0  0
   47.9060   36.2710   40.9050 H   0  0  0  0  0  0  0  0  0  0  0  0
   49.5910   35.6870   40.9120 H   0  0  0  0  0  0  0  0  0  0  0  0
   48.4000   35.0510   38.8830 H   0  0  0  0  0  0  0  0  0  0  0  0
   49.0910   33.6760   39.7850 H   0  0  0  0  0  0  0  0  0  0  0  0
   47.0860   32.6430   40.0680 H   0  0  0  0  0  0  0  0  0  0  0  0
   46.4460   33.8750   38.9180 H   0  0  0  0  0  0  0  0  0  0  0  0
   45.1770   33.6880   40.9740 H   0  0  0  0  0  0  0  0  0  0  0  0
   45.9220   35.3800   40.7660 H   0  0  0  0  0  0  0  0  0  0  0  0
   45.9930   32.9320   44.8170 O   0  0  0  0  0  0  0  0  0  0  0  0
   47.0220   32.3530   45.4990 C   0  0  0  0  0  0  0  0  0  0  0  0
   48.0100   32.7220   45.1840 H   0  0  0  0  0  0  0  0  0  0  0  0
   47.0320   31.2590   45.2500 H   0  0  0  0  0  0  0  0  0  0  0  0
   46.9720   32.5270   47.0050 C   0  0  0  0  0  0  0  0  0  0  0  0
   46.0990   33.1540   47.2570 H   0  0  0  0  0  0  0  0  0  0  0  0
   47.9280   32.9510   47.3650 H   0  0  0  0  0  0  0  0  0  0  0  0
   46.7470   31.1570   47.6020 C   0  0  0  0  0  0  0  0  0  0  0  0
   47.3670   30.0590   46.8030 C   0  0  0  0  0  0  0  0  0  0  0  0
   48.2220   29.1610   47.6720 C   0  0  0  0  0  0  0  0  0  0  0  0
   49.2910   29.9840   48.3590 C   0  0  0  0  0  0  0  0  0  0  0  0
   48.6350   30.9850   49.2680 C   0  0  0  0  0  0  0  0  0  0  0  0
   47.1570   31.0640   49.0500 C   0  0  0  0  0  0  0  0  0  0  0  0
  1  2  1  0  0  0  0
  2 26  1  0  0  0  0
  2  3  2  0  0  0  0
  3  7  1  0  0  0  0
  4  3  1  0  0  0  0
  5  4  2  0  0  0  0
  6  1  2  0  0  0  0
  6  5  1  0  0  0  0
  8  5  1  0  0  0  0
  9 15  1  0  0  0  0
  9  1  1  0  0  0  0
 10  9  1  0  0  0  0
 10 16  1  0  0  0  0
 10 17  1  0  0  0  0
 11 10  1  0  0  0  0
 12 13  1  0  0  0  0
 12 11  1  0  0  0  0
 13 22  1  0  0  0  0
 13 14  1  0  0  0  0
 14 24  1  0  0  0  0
 14  9  1  0  0  0  0
 18 11  1  0  0  0  0
 19 11  1  0  0  0  0
 20 12  1  0  0  0  0
 21 12  1  0  0  0  0
 23 13  1  0  0  0  0
 25 14  1  0  0  0  0
 26 27  1  0  0  0  0
 27 30  1  0  0  0  0
 28 27  1  0  0  0  0
 29 27  1  0  0  0  0
 30 31  1  0  0  0  0
 30 32  1  0  0  0  0
 30 33  1  0  0  0  0
 33 38  1  0  0  0  0
 34 33  1  0  0  0  0
 34 35  1  0  0  0  0
 35 36  1  0  0  0  0
 36 37  1  0  0  0  0
 38 37  1  0  0  0  0
M  END
>  <minimizedAffinity>
-5.72367334

>  <minimizedRMSD>
1.72197282

$$$$
