
 OpenBabel03242510523D

 19 20  0  0  0  0  0  0  0  0999 V2000
   37.2660   33.1210   39.3380 C   0  0  0  0  0  0  0  0  0  0  0  0
   38.2060   33.9910   39.9140 C   0  0  0  0  0  0  0  0  0  0  0  0
   39.0330   33.4540   40.8940 C   0  0  0  0  0  0  0  0  0  0  0  0
   38.8830   32.1530   41.2230 N   0  0  0  0  0  0  0  0  0  0  0  0
   37.9670   31.3370   40.6500 C   0  0  0  0  0  0  0  0  0  0  0  0
   37.1460   31.8300   39.6920 N   0  0  0  0  0  0  0  0  0  0  0  0
   38.5490   29.6390   42.2660 C   0  0  0  0  0  0  0  0  0  0  0  0
   39.1990   30.4210   42.9840 O   0  0  0  0  0  0  0  0  0  0  0  0
   37.8780   29.9750   41.0590 N   0  0  0  0  0  0  0  0  0  0  0  0
   36.5620   33.4390   38.5540 H   0  0  0  0  0  0  0  0  0  0  0  0
   38.2470   35.0030   39.5850 H   0  0  0  0  0  0  0  0  0  0  0  0
   39.7720   34.0910   41.3630 H   0  0  0  0  0  0  0  0  0  0  0  0
   37.3240   29.3170   40.4450 H   0  0  0  0  0  0  0  0  0  0  0  0
   38.4650   28.2220   42.7060 C   0  0  0  0  0  3  0  0  0  0  0  0
   39.8260   27.6010   42.9250 C   0  0  0  0  0  2  0  0  0  0  0  0
   39.5910   26.3020   43.6790 C   0  0  0  0  0  2  0  0  0  0  0  0
   38.7740   25.4010   42.7800 C   0  0  0  0  0  2  0  0  0  0  0  0
   37.4620   26.0160   42.3880 C   0  0  0  0  0  2  0  0  0  0  0  0
   37.6100   27.3940   41.7960 C   0  0  0  0  0  2  0  0  0  0  0  0
  1  6  2  0  0  0  0
  1  2  1  0  0  0  0
  2  3  2  0  0  0  0
  3  4  1  0  0  0  0
  3 12  1  0  0  0  0
  5  9  1  0  0  0  0
  5  4  2  0  0  0  0
  6  5  1  0  0  0  0
  7 14  1  0  0  0  0
  7  8  2  0  0  0  0
  9  7  1  0  0  0  0
 10  1  1  0  0  0  0
 11  2  1  0  0  0  0
 13  9  1  0  0  0  0
 14 15  1  0  0  0  0
 15 16  1  0  0  0  0
 17 16  1  0  0  0  0
 18 17  1  0  0  0  0
 19 18  1  0  0  0  0
 19 14  1  0  0  0  0
M  END
>  <minimizedAffinity>
-4.74657679

$$$$

 OpenBabel03242510523D

 19 20  0  0  0  0  0  0  0  0999 V2000
   40.9670   33.0110   39.3460 C   0  0  0  0  0  0  0  0  0  0  0  0
   40.2120   34.1610   39.6250 C   0  0  0  0  0  0  0  0  0  0  0  0
   39.0140   33.9700   40.3040 C   0  0  0  0  0  0  0  0  0  0  0  0
   38.6610   32.7120   40.6470 N   0  0  0  0  0  0  0  0  0  0  0  0
   39.4100   31.6210   40.3640 C   0  0  0  0  0  0  0  0  0  0  0  0
   40.5830   31.7740   39.7020 N   0  0  0  0  0  0  0  0  0  0  0  0
   37.5980   30.2370   41.1610 C   0  0  0  0  0  0  0  0  0  0  0  0
   36.7790   31.1740   41.1910 O   0  0  0  0  0  0  0  0  0  0  0  0
   38.9590   30.3300   40.7640 N   0  0  0  0  0  0  0  0  0  0  0  0
   41.9300   33.0460   38.8140 H   0  0  0  0  0  0  0  0  0  0  0  0
   40.5770   35.1110   39.3130 H   0  0  0  0  0  0  0  0  0  0  0  0
   38.4020   34.8310   40.5400 H   0  0  0  0  0  0  0  0  0  0  0  0
   39.6600   29.5390   40.7360 H   0  0  0  0  0  0  0  0  0  0  0  0
   37.1130   28.8960   41.5800 C   0  0  0  0  0  3  0  0  0  0  0  0
   37.4030   28.6050   43.0360 C   0  0  0  0  0  2  0  0  0  0  0  0
   36.5740   27.3830   43.4040 C   0  0  0  0  0  2  0  0  0  0  0  0
   37.0700   26.2310   42.5580 C   0  0  0  0  0  2  0  0  0  0  0  0
   36.9600   26.5080   41.0870 C   0  0  0  0  0  2  0  0  0  0  0  0
   37.6080   27.8060   40.6800 C   0  0  0  0  0  2  0  0  0  0  0  0
  1  2  2  0  0  0  0
  1  6  1  0  0  0  0
  2  3  1  0  0  0  0
  3 12  1  0  0  0  0
  3  4  2  0  0  0  0
  5  4  1  0  0  0  0
  5  9  1  0  0  0  0
  6  5  2  0  0  0  0
  7  8  2  0  0  0  0
  7 14  1  0  0  0  0
  9  7  1  0  0  0  0
 10  1  1  0  0  0  0
 11  2  1  0  0  0  0
 13  9  1  0  0  0  0
 14 15  1  0  0  0  0
 15 16  1  0  0  0  0
 17 16  1  0  0  0  0
 18 17  1  0  0  0  0
 19 18  1  0  0  0  0
 19 14  1  0  0  0  0
M  END
>  <minimizedAffinity>
-4.64911175

$$$$

 OpenBabel03242510523D

 19 20  0  0  0  0  0  0  0  0999 V2000
   37.5160   31.4520   38.0800 C   0  0  0  0  0  0  0  0  0  0  0  0
   37.3190   32.5400   38.9460 C   0  0  0  0  0  0  0  0  0  0  0  0
   37.3590   32.2670   40.3090 C   0  0  0  0  0  0  0  0  0  0  0  0
   37.5820   30.9950   40.7050 N   0  0  0  0  0  0  0  0  0  0  0  0
   37.7690   29.9650   39.8470 C   0  0  0  0  0  0  0  0  0  0  0  0
   37.7360   30.1990   38.5120 N   0  0  0  0  0  0  0  0  0  0  0  0
   37.7070   28.4550   41.7300 C   0  0  0  0  0  0  0  0  0  0  0  0
   37.2760   29.3160   42.5180 O   0  0  0  0  0  0  0  0  0  0  0  0
   37.9990   28.6540   40.3530 N   0  0  0  0  0  0  0  0  0  0  0  0
   37.5050   31.5540   36.9840 H   0  0  0  0  0  0  0  0  0  0  0  0
   37.1490   33.5070   38.5350 H   0  0  0  0  0  0  0  0  0  0  0  0
   37.2120   33.0770   41.0100 H   0  0  0  0  0  0  0  0  0  0  0  0
   38.3650   27.9270   39.6780 H   0  0  0  0  0  0  0  0  0  0  0  0
   37.9420   27.0910   42.2730 C   0  0  0  0  0  3  0  0  0  0  0  0
   39.4110   26.7820   42.4470 C   0  0  0  0  0  2  0  0  0  0  0  0
   39.4890   25.5280   43.3040 C   0  0  0  0  0  2  0  0  0  0  0  0
   38.8350   24.4080   42.5250 C   0  0  0  0  0  2  0  0  0  0  0  0
   37.4070   24.7090   42.1750 C   0  0  0  0  0  2  0  0  0  0  0  0
   37.2360   26.0350   41.4790 C   0  0  0  0  0  2  0  0  0  0  0  0
  1  6  2  0  0  0  0
  1  2  1  0  0  0  0
  2  3  2  0  0  0  0
  3  4  1  0  0  0  0
  3 12  1  0  0  0  0
  5  9  1  0  0  0  0
  5  4  2  0  0  0  0
  6  5  1  0  0  0  0
  7 14  1  0  0  0  0
  7  8  2  0  0  0  0
  9  7  1  0  0  0  0
 10  1  1  0  0  0  0
 11  2  1  0  0  0  0
 13  9  1  0  0  0  0
 14 15  1  0  0  0  0
 15 16  1  0  0  0  0
 17 16  1  0  0  0  0
 18 17  1  0  0  0  0
 19 18  1  0  0  0  0
 19 14  1  0  0  0  0
M  END
>  <minimizedAffinity>
-4.52275562

$$$$

 OpenBabel03242510523D

 19 20  0  0  0  0  0  0  0  0999 V2000
   44.3870   30.1610   35.4070 C   0  0  0  0  0  0  0  0  0  0  0  0
   45.2210   31.1280   35.9920 C   0  0  0  0  0  0  0  0  0  0  0  0
   44.6250   31.9990   36.8970 C   0  0  0  0  0  0  0  0  0  0  0  0
   43.3060   31.8600   37.1520 N   0  0  0  0  0  0  0  0  0  0  0  0
   42.5260   30.9180   36.5730 C   0  0  0  0  0  0  0  0  0  0  0  0
   43.0770   30.0540   35.6850 N   0  0  0  0  0  0  0  0  0  0  0  0
   40.6000   31.9660   37.5840 C   0  0  0  0  0  0  0  0  0  0  0  0
   41.2230   32.9920   37.9150 O   0  0  0  0  0  0  0  0  0  0  0  0
   41.1420   30.8440   36.9010 N   0  0  0  0  0  0  0  0  0  0  0  0
   44.7530   29.4220   34.6780 H   0  0  0  0  0  0  0  0  0  0  0  0
   46.2510   31.1560   35.7250 H   0  0  0  0  0  0  0  0  0  0  0  0
   45.2330   32.7590   37.3710 H   0  0  0  0  0  0  0  0  0  0  0  0
   40.6190   29.9710   36.6170 H   0  0  0  0  0  0  0  0  0  0  0  0
   39.1560   31.9050   37.9330 C   0  0  0  0  0  3  0  0  0  0  0  0
   38.8580   32.5350   39.2740 C   0  0  0  0  0  2  0  0  0  0  0  0
   37.3480   32.7040   39.3440 C   0  0  0  0  0  2  0  0  0  0  0  0
   36.7380   31.3200   39.2990 C   0  0  0  0  0  2  0  0  0  0  0  0
   37.1170   30.5640   38.0590 C   0  0  0  0  0  2  0  0  0  0  0  0
   38.6060   30.5150   37.8300 C   0  0  0  0  0  2  0  0  0  0  0  0
  1  6  2  0  0  0  0
  1  2  1  0  0  0  0
  2  3  2  0  0  0  0
  3  4  1  0  0  0  0
  3 12  1  0  0  0  0
  5  9  1  0  0  0  0
  5  4  2  0  0  0  0
  6  5  1  0  0  0  0
  7  8  2  0  0  0  0
  7 14  1  0  0  0  0
  9  7  1  0  0  0  0
 10  1  1  0  0  0  0
 11  2  1  0  0  0  0
 13  9  1  0  0  0  0
 14 15  1  0  0  0  0
 15 16  1  0  0  0  0
 17 16  1  0  0  0  0
 18 17  1  0  0  0  0
 19 14  1  0  0  0  0
 19 18  1  0  0  0  0
M  END
>  <minimizedAffinity>
-4.33760357

$$$$

 OpenBabel03242510523D

 19 20  0  0  0  0  0  0  0  0999 V2000
   41.9940   33.3010   37.4830 C   0  0  0  0  0  0  0  0  0  0  0  0
   42.1210   34.1610   38.5850 C   0  0  0  0  0  0  0  0  0  0  0  0
   41.1160   34.0970   39.5440 C   0  0  0  0  0  0  0  0  0  0  0  0
   40.1010   33.2260   39.3570 N   0  0  0  0  0  0  0  0  0  0  0  0
   40.0050   32.4080   38.2840 C   0  0  0  0  0  0  0  0  0  0  0  0
   40.9680   32.4470   37.3310 N   0  0  0  0  0  0  0  0  0  0  0  0
   37.8010   31.7690   39.0360 C   0  0  0  0  0  0  0  0  0  0  0  0
   37.7260   32.6850   39.8760 O   0  0  0  0  0  0  0  0  0  0  0  0
   38.8980   31.5190   38.1680 N   0  0  0  0  0  0  0  0  0  0  0  0
   42.7300   33.2680   36.6650 H   0  0  0  0  0  0  0  0  0  0  0  0
   42.9610   34.8130   38.6410 H   0  0  0  0  0  0  0  0  0  0  0  0
   41.1760   34.7440   40.4100 H   0  0  0  0  0  0  0  0  0  0  0  0
   38.9670   30.7440   37.4520 H   0  0  0  0  0  0  0  0  0  0  0  0
   36.6370   30.8500   38.9260 C   0  0  0  0  0  3  0  0  0  0  0  0
   36.4730   29.9760   40.1490 C   0  0  0  0  0  2  0  0  0  0  0  0
   35.0900   29.3520   40.0490 C   0  0  0  0  0  2  0  0  0  0  0  0
   35.0770   28.4820   38.8120 C   0  0  0  0  0  2  0  0  0  0  0  0
   35.3880   29.2540   37.5620 C   0  0  0  0  0  2  0  0  0  0  0  0
   36.6650   30.0480   37.6620 C   0  0  0  0  0  2  0  0  0  0  0  0
  1  2  1  0  0  0  0
  2 11  1  0  0  0  0
  2  3  2  0  0  0  0
  3 12  1  0  0  0  0
  4  3  1  0  0  0  0
  5  4  2  0  0  0  0
  6  1  2  0  0  0  0
  6  5  1  0  0  0  0
  7  8  2  0  0  0  0
  9  5  1  0  0  0  0
  9  7  1  0  0  0  0
 10  1  1  0  0  0  0
 13  9  1  0  0  0  0
 14  7  1  0  0  0  0
 14 15  1  0  0  0  0
 16 15  1  0  0  0  0
 17 16  1  0  0  0  0
 18 19  1  0  0  0  0
 18 17  1  0  0  0  0
 19 14  1  0  0  0  0
M  END
>  <minimizedAffinity>
-4.32042933

$$$$

 OpenBabel03242510523D

 19 20  0  0  0  0  0  0  0  0999 V2000
   37.9720   25.0830   40.4700 C   0  0  0  0  0  0  0  0  0  0  0  0
   37.4110   24.9150   41.7460 C   0  0  0  0  0  0  0  0  0  0  0  0
   37.1130   26.0740   42.4530 C   0  0  0  0  0  0  0  0  0  0  0  0
   37.3760   27.2660   41.8760 N   0  0  0  0  0  0  0  0  0  0  0  0
   37.9180   27.3990   40.6430 C   0  0  0  0  0  0  0  0  0  0  0  0
   38.2200   26.2870   39.9290 N   0  0  0  0  0  0  0  0  0  0  0  0
   38.1090   29.7730   41.0400 C   0  0  0  0  0  0  0  0  0  0  0  0
   37.8690   29.6780   42.2580 O   0  0  0  0  0  0  0  0  0  0  0  0
   38.1620   28.6980   40.1120 N   0  0  0  0  0  0  0  0  0  0  0  0
   38.2470   24.2360   39.8230 H   0  0  0  0  0  0  0  0  0  0  0  0
   37.2410   23.9300   42.1130 H   0  0  0  0  0  0  0  0  0  0  0  0
   36.6780   25.9880   43.4410 H   0  0  0  0  0  0  0  0  0  0  0  0
   38.3650   28.7720   39.0780 H   0  0  0  0  0  0  0  0  0  0  0  0
   38.3620   31.1350   40.5010 C   0  0  0  0  0  3  0  0  0  0  0  0
   39.3380   31.9200   41.3490 C   0  0  0  0  0  2  0  0  0  0  0  0
   39.7540   33.1260   40.5210 C   0  0  0  0  0  2  0  0  0  0  0  0
   38.5150   33.9620   40.2870 C   0  0  0  0  0  2  0  0  0  0  0  0
   37.4310   33.1990   39.5820 C   0  0  0  0  0  2  0  0  0  0  0  0
   37.0940   31.8940   40.2560 C   0  0  0  0  0  2  0  0  0  0  0  0
  1  2  1  0  0  0  0
  2 11  1  0  0  0  0
  2  3  2  0  0  0  0
  3 12  1  0  0  0  0
  4  3  1  0  0  0  0
  5  4  2  0  0  0  0
  6  1  2  0  0  0  0
  6  5  1  0  0  0  0
  7  8  2  0  0  0  0
  9  5  1  0  0  0  0
  9  7  1  0  0  0  0
 10  1  1  0  0  0  0
 13  9  1  0  0  0  0
 14  7  1  0  0  0  0
 14 15  1  0  0  0  0
 16 15  1  0  0  0  0
 17 16  1  0  0  0  0
 18 19  1  0  0  0  0
 18 17  1  0  0  0  0
 19 14  1  0  0  0  0
M  END
>  <minimizedAffinity>
-4.26593542

$$$$

 OpenBabel03242510523D

 19 20  0  0  0  0  0  0  0  0999 V2000
   41.4190   31.8790   37.2700 C   0  0  0  0  0  0  0  0  0  0  0  0
   41.4750   33.2060   37.7240 C   0  0  0  0  0  0  0  0  0  0  0  0
   40.9240   33.4610   38.9740 C   0  0  0  0  0  0  0  0  0  0  0  0
   40.3810   32.4330   39.6610 N   0  0  0  0  0  0  0  0  0  0  0  0
   40.3410   31.1620   39.1980 C   0  0  0  0  0  0  0  0  0  0  0  0
   40.8690   30.8810   37.9820 N   0  0  0  0  0  0  0  0  0  0  0  0
   38.9540   30.5750   41.0870 C   0  0  0  0  0  0  0  0  0  0  0  0
   38.7390   31.7580   41.4080 O   0  0  0  0  0  0  0  0  0  0  0  0
   39.7470   30.1380   39.9910 N   0  0  0  0  0  0  0  0  0  0  0  0
   41.8240   31.5640   36.2960 H   0  0  0  0  0  0  0  0  0  0  0  0
   41.9260   33.9480   37.1060 H   0  0  0  0  0  0  0  0  0  0  0  0
   40.9470   34.4720   39.3610 H   0  0  0  0  0  0  0  0  0  0  0  0
   39.9330   29.1350   39.7130 H   0  0  0  0  0  0  0  0  0  0  0  0
   38.3270   29.5180   41.9230 C   0  0  0  0  0  3  0  0  0  0  0  0
   39.3260   28.4870   42.3970 C   0  0  0  0  0  2  0  0  0  0  0  0
   38.6330   27.6860   43.4890 C   0  0  0  0  0  2  0  0  0  0  0  0
   37.4560   26.9810   42.8520 C   0  0  0  0  0  2  0  0  0  0  0  0
   36.4880   27.9360   42.2160 C   0  0  0  0  0  2  0  0  0  0  0  0
   37.1460   28.8880   41.2510 C   0  0  0  0  0  2  0  0  0  0  0  0
  1  2  2  0  0  0  0
  1  6  1  0  0  0  0
  2  3  1  0  0  0  0
  3 12  1  0  0  0  0
  3  4  2  0  0  0  0
  5  4  1  0  0  0  0
  5  9  1  0  0  0  0
  6  5  2  0  0  0  0
  7  8  2  0  0  0  0
  7 14  1  0  0  0  0
  9  7  1  0  0  0  0
 10  1  1  0  0  0  0
 11  2  1  0  0  0  0
 13  9  1  0  0  0  0
 14 15  1  0  0  0  0
 15 16  1  0  0  0  0
 17 16  1  0  0  0  0
 18 17  1  0  0  0  0
 19 14  1  0  0  0  0
 19 18  1  0  0  0  0
M  END
>  <minimizedAffinity>
-4.1695857

$$$$

 OpenBabel03242510523D

 19 20  0  0  0  0  0  0  0  0999 V2000
   40.4100   25.4890   43.3520 C   0  0  0  0  0  0  0  0  0  0  0  0
   39.6130   24.3540   43.1340 C   0  0  0  0  0  0  0  0  0  0  0  0
   38.5100   24.5160   42.3030 C   0  0  0  0  0  0  0  0  0  0  0  0
   38.2810   25.7340   41.7670 N   0  0  0  0  0  0  0  0  0  0  0  0
   39.0670   26.8120   41.9940 C   0  0  0  0  0  0  0  0  0  0  0  0
   40.1490   26.6870   42.8010 N   0  0  0  0  0  0  0  0  0  0  0  0
   37.4480   28.1720   40.8270 C   0  0  0  0  0  0  0  0  0  0  0  0
   36.5760   27.2830   40.8210 O   0  0  0  0  0  0  0  0  0  0  0  0
   38.7500   28.0610   41.3870 N   0  0  0  0  0  0  0  0  0  0  0  0
   41.3050   25.4750   43.9910 H   0  0  0  0  0  0  0  0  0  0  0  0
   39.8780   23.4360   43.6030 H   0  0  0  0  0  0  0  0  0  0  0  0
   37.8700   23.6650   42.1090 H   0  0  0  0  0  0  0  0  0  0  0  0
   39.4940   28.8110   41.3950 H   0  0  0  0  0  0  0  0  0  0  0  0
   37.1020   29.4690   40.1890 C   0  0  0  0  0  3  0  0  0  0  0  0
   37.6330   29.5810   38.7780 C   0  0  0  0  0  2  0  0  0  0  0  0
   36.9340   30.7760   38.1480 C   0  0  0  0  0  2  0  0  0  0  0  0
   37.3450   32.0030   38.9320 C   0  0  0  0  0  2  0  0  0  0  0  0
   36.9880   31.9020   40.3870 C   0  0  0  0  0  2  0  0  0  0  0  0
   37.4990   30.6410   41.0340 C   0  0  0  0  0  2  0  0  0  0  0  0
  1 10  1  0  0  0  0
  2  1  1  0  0  0  0
  2 11  1  0  0  0  0
  3  2  2  0  0  0  0
  4  5  2  0  0  0  0
  4  3  1  0  0  0  0
  5  6  1  0  0  0  0
  6  1  2  0  0  0  0
  7  9  1  0  0  0  0
  8  7  2  0  0  0  0
  9 13  1  0  0  0  0
  9  5  1  0  0  0  0
 12  3  1  0  0  0  0
 14  7  1  0  0  0  0
 14 19  1  0  0  0  0
 15 14  1  0  0  0  0
 16 15  1  0  0  0  0
 16 17  1  0  0  0  0
 17 18  1  0  0  0  0
 18 19  1  0  0  0  0
M  END
>  <minimizedAffinity>
-4.13738585

$$$$

 OpenBabel03242510523D

 19 20  0  0  0  0  0  0  0  0999 V2000
   38.8860   32.1130   38.4740 C   0  0  0  0  0  0  0  0  0  0  0  0
   38.4950   32.8990   39.5710 C   0  0  0  0  0  0  0  0  0  0  0  0
   38.0380   32.2180   40.6940 C   0  0  0  0  0  0  0  0  0  0  0  0
   38.0010   30.8690   40.6590 N   0  0  0  0  0  0  0  0  0  0  0  0
   38.3840   30.1370   39.5870 C   0  0  0  0  0  0  0  0  0  0  0  0
   38.8340   30.7710   38.4770 N   0  0  0  0  0  0  0  0  0  0  0  0
   37.5460   28.1650   40.7010 C   0  0  0  0  0  0  0  0  0  0  0  0
   36.9440   28.8100   41.5790 O   0  0  0  0  0  0  0  0  0  0  0  0
   38.3110   28.7150   39.6380 N   0  0  0  0  0  0  0  0  0  0  0  0
   39.2630   32.5460   37.5360 H   0  0  0  0  0  0  0  0  0  0  0  0
   38.5620   33.9590   39.5000 H   0  0  0  0  0  0  0  0  0  0  0  0
   37.7280   32.7870   41.5610 H   0  0  0  0  0  0  0  0  0  0  0  0
   38.8240   28.1730   38.8890 H   0  0  0  0  0  0  0  0  0  0  0  0
   37.4600   26.6830   40.7670 C   0  0  0  0  0  3  0  0  0  0  0  0
   36.5880   26.1040   39.6750 C   0  0  0  0  0  2  0  0  0  0  0  0
   36.8590   24.6080   39.6550 C   0  0  0  0  0  2  0  0  0  0  0  0
   36.4160   24.0520   40.9910 C   0  0  0  0  0  2  0  0  0  0  0  0
   37.1290   24.6920   42.1460 C   0  0  0  0  0  2  0  0  0  0  0  0
   37.0540   26.1970   42.1250 C   0  0  0  0  0  2  0  0  0  0  0  0
  1  6  2  0  0  0  0
  1  2  1  0  0  0  0
  2  3  2  0  0  0  0
  3 12  1  0  0  0  0
  4  3  1  0  0  0  0
  5  9  1  0  0  0  0
  5  4  2  0  0  0  0
  6  5  1  0  0  0  0
  7 14  1  0  0  0  0
  7  8  2  0  0  0  0
  9  7  1  0  0  0  0
 10  1  1  0  0  0  0
 11  2  1  0  0  0  0
 13  9  1  0  0  0  0
 14 19  1  0  0  0  0
 15 14  1  0  0  0  0
 16 15  1  0  0  0  0
 16 17  1  0  0  0  0
 17 18  1  0  0  0  0
 19 18  1  0  0  0  0
M  END
>  <minimizedAffinity>
-4.12430859

$$$$
