
 OpenBabel03242514183D

 38 40  0  0  0  0  0  0  0  0999 V2000
   37.9350   31.6740   40.1310 C   0  0  0  0  0  0  0  0  0  0  0  0
   39.2490   31.6670   40.5640 C   0  0  0  0  0  0  0  0  0  0  0  0
   39.8650   32.8800   40.6790 C   0  0  0  0  0  0  0  0  0  0  0  0
   39.1720   34.0130   40.3690 N   0  0  0  0  0  0  0  0  0  0  0  0
   37.9050   34.0080   39.9510 C   0  0  0  0  0  0  0  0  0  0  0  0
   37.3090   32.8370   39.8400 N   0  0  0  0  0  0  0  0  0  0  0  0
   40.8590   33.1510   40.9850 H   0  0  0  0  0  0  0  0  0  0  0  0
   37.3540   34.9060   39.7040 H   0  0  0  0  0  0  0  0  0  0  0  0
   37.3110   30.3490   39.9890 C   0  0  0  0  0  0  0  0  0  0  0  0
   37.2470   29.8180   38.6400 C   0  0  0  0  0  0  0  0  0  0  0  0
   35.8710   29.6950   38.1210 C   0  0  0  0  0  0  0  0  0  0  0  0
   35.0300   28.8070   39.0220 C   0  0  0  0  0  0  0  0  0  0  0  0
   35.2060   29.1160   40.4690 C   0  0  0  0  0  0  0  0  0  0  0  0
   35.9520   30.4140   40.6800 C   0  0  0  0  0  0  0  0  0  0  0  0
   37.8310   29.5990   40.6400 H   0  0  0  0  0  0  0  0  0  0  0  0
   37.7750   28.8470   38.4530 H   0  0  0  0  0  0  0  0  0  0  0  0
   37.7850   30.5380   37.9530 H   0  0  0  0  0  0  0  0  0  0  0  0
   35.4230   30.7140   38.0810 H   0  0  0  0  0  0  0  0  0  0  0  0
   35.7930   29.2670   37.1080 H   0  0  0  0  0  0  0  0  0  0  0  0
   33.9820   28.8780   38.6910 H   0  0  0  0  0  0  0  0  0  0  0  0
   35.3550   27.7510   38.8610 H   0  0  0  0  0  0  0  0  0  0  0  0
   35.7620   28.3150   41.0250 H   0  0  0  0  0  0  0  0  0  0  0  0
   34.2100   29.2270   40.9340 H   0  0  0  0  0  0  0  0  0  0  0  0
   36.0730   30.5270   41.7780 H   0  0  0  0  0  0  0  0  0  0  0  0
   35.3900   31.2320   40.1980 H   0  0  0  0  0  0  0  0  0  0  0  0
   40.0800   30.7060   40.9090 O   0  0  0  0  0  0  0  0  0  0  0  0
   40.3610   30.0120   42.0500 C   0  0  0  0  0  0  0  0  0  0  0  0
   39.8010   30.3760   42.9240 H   0  0  0  0  0  0  0  0  0  0  0  0
   41.4390   30.1870   42.3050 H   0  0  0  0  0  0  0  0  0  0  0  0
   40.0960   28.5210   41.9750 C   0  0  0  0  0  0  0  0  0  0  0  0
   41.0640   27.9910   41.9840 H   0  0  0  0  0  0  0  0  0  0  0  0
   39.4850   28.2940   41.0810 H   0  0  0  0  0  0  0  0  0  0  0  0
   39.3480   28.1410   43.2320 C   0  0  0  0  0  3  0  0  0  0  0  0
   37.9950   28.7640   43.3220 C   0  0  0  0  0  2  0  0  0  0  0  0
   36.9300   27.7280   43.6140 C   0  0  0  0  0  2  0  0  0  0  0  0
   36.9500   26.6600   42.5400 C   0  0  0  0  0  2  0  0  0  0  0  0
   38.2760   25.9530   42.5740 C   0  0  0  0  0  2  0  0  0  0  0  0
   39.2680   26.6510   43.4500 C   0  0  0  0  0  2  0  0  0  0  0  0
  1  2  1  0  0  0  0
  2  3  2  0  0  0  0
  2 26  1  0  0  0  0
  3  7  1  0  0  0  0
  4  3  1  0  0  0  0
  5  4  2  0  0  0  0
  6  5  1  0  0  0  0
  6  1  2  0  0  0  0
  8  5  1  0  0  0  0
  9  1  1  0  0  0  0
  9 15  1  0  0  0  0
  9 14  1  0  0  0  0
 10  9  1  0  0  0  0
 11 10  1  0  0  0  0
 11 12  1  0  0  0  0
 12 13  1  0  0  0  0
 13 14  1  0  0  0  0
 13 23  1  0  0  0  0
 13 22  1  0  0  0  0
 14 24  1  0  0  0  0
 16 10  1  0  0  0  0
 17 10  1  0  0  0  0
 18 11  1  0  0  0  0
 19 11  1  0  0  0  0
 20 12  1  0  0  0  0
 21 12  1  0  0  0  0
 25 14  1  0  0  0  0
 26 27  1  0  0  0  0
 27 29  1  0  0  0  0
 27 28  1  0  0  0  0
 30 31  1  0  0  0  0
 30 27  1  0  0  0  0
 30 33  1  0  0  0  0
 32 30  1  0  0  0  0
 33 34  1  0  0  0  0
 33 38  1  0  0  0  0
 34 35  1  0  0  0  0
 36 37  1  0  0  0  0
 36 35  1  0  0  0  0
 37 38  1  0  0  0  0
M  END
>  <minimizedAffinity>
-5.59984303

$$$$

 OpenBabel03242514183D

 38 40  0  0  0  0  0  0  0  0999 V2000
   38.8250   31.0560   38.7120 C   0  0  0  0  0  0  0  0  0  0  0  0
   39.5980   30.4200   39.6660 C   0  0  0  0  0  0  0  0  0  0  0  0
   40.9460   30.6230   39.6020 C   0  0  0  0  0  0  0  0  0  0  0  0
   41.4540   31.4250   38.6220 N   0  0  0  0  0  0  0  0  0  0  0  0
   40.6990   32.0330   37.7060 C   0  0  0  0  0  0  0  0  0  0  0  0
   39.3970   31.8370   37.7680 N   0  0  0  0  0  0  0  0  0  0  0  0
   41.7550   30.2550   40.2060 H   0  0  0  0  0  0  0  0  0  0  0  0
   41.1010   32.6690   36.9280 H   0  0  0  0  0  0  0  0  0  0  0  0
   37.3800   30.7910   38.7930 C   0  0  0  0  0  0  0  0  0  0  0  0
   36.6680   31.4690   39.8600 C   0  0  0  0  0  0  0  0  0  0  0  0
   36.1350   30.5520   40.8870 C   0  0  0  0  0  0  0  0  0  0  0  0
   35.1980   29.5300   40.2660 C   0  0  0  0  0  0  0  0  0  0  0  0
   35.7390   28.9350   39.0110 C   0  0  0  0  0  0  0  0  0  0  0  0
   37.1990   29.2750   38.8100 C   0  0  0  0  0  0  0  0  0  0  0  0
   36.8810   31.0410   37.8200 H   0  0  0  0  0  0  0  0  0  0  0  0
   35.8440   32.1650   39.5560 H   0  0  0  0  0  0  0  0  0  0  0  0
   37.3970   32.1530   40.3890 H   0  0  0  0  0  0  0  0  0  0  0  0
   36.9950   30.0280   41.3630 H   0  0  0  0  0  0  0  0  0  0  0  0
   35.5650   31.0410   41.6950 H   0  0  0  0  0  0  0  0  0  0  0  0
   34.9590   28.7750   41.0310 H   0  0  0  0  0  0  0  0  0  0  0  0
   34.2450   30.0520   40.0090 H   0  0  0  0  0  0  0  0  0  0  0  0
   35.1870   29.2700   38.0930 H   0  0  0  0  0  0  0  0  0  0  0  0
   35.6610   27.8350   39.0750 H   0  0  0  0  0  0  0  0  0  0  0  0
   37.4880   28.8320   37.8350 H   0  0  0  0  0  0  0  0  0  0  0  0
   37.7760   28.8970   39.6720 H   0  0  0  0  0  0  0  0  0  0  0  0
   39.3120   29.6240   40.6750 O   0  0  0  0  0  0  0  0  0  0  0  0
   39.4220   29.6790   42.0340 C   0  0  0  0  0  0  0  0  0  0  0  0
   38.4490   29.7370   42.5430 H   0  0  0  0  0  0  0  0  0  0  0  0
   39.9440   30.6350   42.3000 H   0  0  0  0  0  0  0  0  0  0  0  0
   40.1560   28.5110   42.6650 C   0  0  0  0  0  0  0  0  0  0  0  0
   40.9170   28.9080   43.3590 H   0  0  0  0  0  0  0  0  0  0  0  0
   40.5840   27.8670   41.8750 H   0  0  0  0  0  0  0  0  0  0  0  0
   39.1420   27.7400   43.4790 C   0  0  0  0  0  3  0  0  0  0  0  0
   37.7880   28.3660   43.4780 C   0  0  0  0  0  2  0  0  0  0  0  0
   36.7180   27.3620   43.1070 C   0  0  0  0  0  2  0  0  0  0  0  0
   37.0270   26.7670   41.7490 C   0  0  0  0  0  2  0  0  0  0  0  0
   38.3280   26.0180   41.8240 C   0  0  0  0  0  2  0  0  0  0  0  0
   39.0610   26.2830   43.1020 C   0  0  0  0  0  2  0  0  0  0  0  0
  1  9  1  0  0  0  0
  1  2  1  0  0  0  0
  2 26  1  0  0  0  0
  3  2  2  0  0  0  0
  3  7  1  0  0  0  0
  4  3  1  0  0  0  0
  5  6  1  0  0  0  0
  5  4  2  0  0  0  0
  6  1  2  0  0  0  0
  8  5  1  0  0  0  0
  9 14  1  0  0  0  0
  9 10  1  0  0  0  0
 10 17  1  0  0  0  0
 10 11  1  0  0  0  0
 11 18  1  0  0  0  0
 11 19  1  0  0  0  0
 12 11  1  0  0  0  0
 12 20  1  0  0  0  0
 13 23  1  0  0  0  0
 13 12  1  0  0  0  0
 14 13  1  0  0  0  0
 14 25  1  0  0  0  0
 15  9  1  0  0  0  0
 16 10  1  0  0  0  0
 21 12  1  0  0  0  0
 22 13  1  0  0  0  0
 24 14  1  0  0  0  0
 26 27  1  0  0  0  0
 27 29  1  0  0  0  0
 27 28  1  0  0  0  0
 27 30  1  0  0  0  0
 30 31  1  0  0  0  0
 30 33  1  0  0  0  0
 32 30  1  0  0  0  0
 34 33  1  0  0  0  0
 35 34  1  0  0  0  0
 36 37  1  0  0  0  0
 36 35  1  0  0  0  0
 37 38  1  0  0  0  0
 38 33  1  0  0  0  0
M  END
>  <minimizedAffinity>
-5.19239092

$$$$

 OpenBabel03242514183D

 38 40  0  0  0  0  0  0  0  0999 V2000
   37.4150   29.8660   38.4880 C   0  0  0  0  0  0  0  0  0  0  0  0
   37.3890   28.4950   38.6700 C   0  0  0  0  0  0  0  0  0  0  0  0
   36.9640   27.7420   37.6150 C   0  0  0  0  0  0  0  0  0  0  0  0
   36.5940   28.3640   36.4580 N   0  0  0  0  0  0  0  0  0  0  0  0
   36.6220   29.6870   36.2930 C   0  0  0  0  0  0  0  0  0  0  0  0
   37.0330   30.4150   37.3120 N   0  0  0  0  0  0  0  0  0  0  0  0
   36.8480   26.6810   37.4930 H   0  0  0  0  0  0  0  0  0  0  0  0
   36.3280   30.1800   35.3760 H   0  0  0  0  0  0  0  0  0  0  0  0
   37.8490   30.6500   39.6560 C   0  0  0  0  0  0  0  0  0  0  0  0
   36.9400   31.6920   40.0950 C   0  0  0  0  0  0  0  0  0  0  0  0
   37.4790   33.0550   39.9180 C   0  0  0  0  0  0  0  0  0  0  0  0
   38.7890   33.2200   40.6690 C   0  0  0  0  0  0  0  0  0  0  0  0
   39.7180   32.0710   40.4740 C   0  0  0  0  0  0  0  0  0  0  0  0
   39.2570   31.1580   39.3590 C   0  0  0  0  0  0  0  0  0  0  0  0
   38.0590   29.9730   40.5250 H   0  0  0  0  0  0  0  0  0  0  0  0
   36.5430   31.6100   41.1400 H   0  0  0  0  0  0  0  0  0  0  0  0
   36.0050   31.6330   39.4610 H   0  0  0  0  0  0  0  0  0  0  0  0
   37.6490   33.2220   38.8310 H   0  0  0  0  0  0  0  0  0  0  0  0
   36.8180   33.8650   40.2720 H   0  0  0  0  0  0  0  0  0  0  0  0
   39.2320   34.1850   40.3760 H   0  0  0  0  0  0  0  0  0  0  0  0
   38.5540   33.2830   41.7580 H   0  0  0  0  0  0  0  0  0  0  0  0
   39.8380   31.4420   41.3950 H   0  0  0  0  0  0  0  0  0  0  0  0
   40.7130   32.4600   40.1920 H   0  0  0  0  0  0  0  0  0  0  0  0
   39.9810   30.3180   39.3280 H   0  0  0  0  0  0  0  0  0  0  0  0
   39.1940   31.7400   38.4230 H   0  0  0  0  0  0  0  0  0  0  0  0
   37.6990   27.7140   39.6840 O   0  0  0  0  0  0  0  0  0  0  0  0
   37.0120   27.0330   40.6460 C   0  0  0  0  0  0  0  0  0  0  0  0
   37.6410   26.3200   41.2000 H   0  0  0  0  0  0  0  0  0  0  0  0
   36.2390   26.4000   40.1370 H   0  0  0  0  0  0  0  0  0  0  0  0
   36.3430   27.9030   41.6930 C   0  0  0  0  0  0  0  0  0  0  0  0
   35.3030   27.5570   41.8250 H   0  0  0  0  0  0  0  0  0  0  0  0
   36.4130   28.9650   41.3970 H   0  0  0  0  0  0  0  0  0  0  0  0
   37.0770   27.6710   42.9940 C   0  0  0  0  0  3  0  0  0  0  0  0
   38.1440   26.6340   42.8910 C   0  0  0  0  0  2  0  0  0  0  0  0
   39.4620   27.1430   43.4350 C   0  0  0  0  0  2  0  0  0  0  0  0
   39.8700   28.3960   42.6900 C   0  0  0  0  0  2  0  0  0  0  0  0
   38.8460   29.4700   42.9350 C   0  0  0  0  0  2  0  0  0  0  0  0
   37.6190   28.9390   43.6050 C   0  0  0  0  0  2  0  0  0  0  0  0
  1  2  1  0  0  0  0
  1  9  1  0  0  0  0
  2 26  1  0  0  0  0
  3  2  2  0  0  0  0
  4  3  1  0  0  0  0
  5  4  2  0  0  0  0
  5  6  1  0  0  0  0
  6  1  2  0  0  0  0
  7  3  1  0  0  0  0
  8  5  1  0  0  0  0
  9 10  1  0  0  0  0
  9 15  1  0  0  0  0
 10 16  1  0  0  0  0
 11 10  1  0  0  0  0
 11 19  1  0  0  0  0
 11 12  1  0  0  0  0
 12 21  1  0  0  0  0
 13 12  1  0  0  0  0
 13 22  1  0  0  0  0
 14  9  1  0  0  0  0
 14 13  1  0  0  0  0
 17 10  1  0  0  0  0
 18 11  1  0  0  0  0
 20 12  1  0  0  0  0
 23 13  1  0  0  0  0
 24 14  1  0  0  0  0
 25 14  1  0  0  0  0
 26 27  1  0  0  0  0
 27 28  1  0  0  0  0
 27 30  1  0  0  0  0
 29 27  1  0  0  0  0
 30 31  1  0  0  0  0
 30 33  1  0  0  0  0
 32 30  1  0  0  0  0
 33 38  1  0  0  0  0
 34 33  1  0  0  0  0
 34 35  1  0  0  0  0
 36 37  1  0  0  0  0
 36 35  1  0  0  0  0
 37 38  1  0  0  0  0
M  END
>  <minimizedAffinity>
-5.08159065

$$$$

 OpenBabel03242514183D

 38 40  0  0  0  0  0  0  0  0999 V2000
   37.6970   25.1870   41.4360 C   0  0  0  0  0  0  0  0  0  0  0  0
   37.2460   25.7340   40.2490 C   0  0  0  0  0  0  0  0  0  0  0  0
   36.9860   24.8650   39.2290 C   0  0  0  0  0  0  0  0  0  0  0  0
   37.1800   23.5290   39.4260 N   0  0  0  0  0  0  0  0  0  0  0  0
   37.6160   23.0110   40.5750 C   0  0  0  0  0  0  0  0  0  0  0  0
   37.8670   23.8500   41.5600 N   0  0  0  0  0  0  0  0  0  0  0  0
   36.6360   25.0230   38.2250 H   0  0  0  0  0  0  0  0  0  0  0  0
   37.7700   21.9510   40.7320 H   0  0  0  0  0  0  0  0  0  0  0  0
   37.9950   26.1540   42.5040 C   0  0  0  0  0  0  0  0  0  0  0  0
   36.8490   26.8060   43.1090 C   0  0  0  0  0  0  0  0  0  0  0  0
   36.7860   28.2550   42.8390 C   0  0  0  0  0  0  0  0  0  0  0  0
   38.0430   28.9520   43.3300 C   0  0  0  0  0  0  0  0  0  0  0  0
   39.2910   28.2260   42.9610 C   0  0  0  0  0  0  0  0  0  0  0  0
   39.0270   27.1330   41.9500 C   0  0  0  0  0  0  0  0  0  0  0  0
   38.5960   25.6680   43.3160 H   0  0  0  0  0  0  0  0  0  0  0  0
   36.7030   26.6520   44.2090 H   0  0  0  0  0  0  0  0  0  0  0  0
   35.9130   26.3560   42.6610 H   0  0  0  0  0  0  0  0  0  0  0  0
   36.6870   28.3990   41.7390 H   0  0  0  0  0  0  0  0  0  0  0  0
   35.9390   28.7800   43.3120 H   0  0  0  0  0  0  0  0  0  0  0  0
   38.0250   29.9910   42.9630 H   0  0  0  0  0  0  0  0  0  0  0  0
   37.9970   28.9970   44.4450 H   0  0  0  0  0  0  0  0  0  0  0  0
   39.8010   27.7530   43.8410 H   0  0  0  0  0  0  0  0  0  0  0  0
   39.9970   28.9410   42.4990 H   0  0  0  0  0  0  0  0  0  0  0  0
   40.0000   26.6260   41.7810 H   0  0  0  0  0  0  0  0  0  0  0  0
   38.5840   27.5820   41.0440 H   0  0  0  0  0  0  0  0  0  0  0  0
   36.9960   26.9680   39.8620 O   0  0  0  0  0  0  0  0  0  0  0  0
   35.9770   27.6100   39.2210 C   0  0  0  0  0  0  0  0  0  0  0  0
   34.9850   27.2140   39.4850 H   0  0  0  0  0  0  0  0  0  0  0  0
   36.0820   27.4160   38.1220 H   0  0  0  0  0  0  0  0  0  0  0  0
   35.9090   29.1060   39.4650 C   0  0  0  0  0  0  0  0  0  0  0  0
   35.8650   29.2830   40.5540 H   0  0  0  0  0  0  0  0  0  0  0  0
   35.0470   29.5340   38.9210 H   0  0  0  0  0  0  0  0  0  0  0  0
   37.2010   29.6970   38.9510 C   0  0  0  0  0  3  0  0  0  0  0  0
   37.0100   30.5950   37.7750 C   0  0  0  0  0  2  0  0  0  0  0  0
   37.6870   31.9330   37.9870 C   0  0  0  0  0  2  0  0  0  0  0  0
   37.1450   32.5840   39.2430 C   0  0  0  0  0  2  0  0  0  0  0  0
   37.4840   31.7240   40.4280 C   0  0  0  0  0  2  0  0  0  0  0  0
   38.0100   30.3830   40.0240 C   0  0  0  0  0  2  0  0  0  0  0  0
  1  6  1  0  0  0  0
  1  9  1  0  0  0  0
  2  1  2  0  0  0  0
  3  4  2  0  0  0  0
  3  2  1  0  0  0  0
  4  5  1  0  0  0  0
  5  8  1  0  0  0  0
  5  6  2  0  0  0  0
  7  3  1  0  0  0  0
  9 10  1  0  0  0  0
  9 15  1  0  0  0  0
 10 16  1  0  0  0  0
 11 10  1  0  0  0  0
 11 19  1  0  0  0  0
 11 12  1  0  0  0  0
 12 21  1  0  0  0  0
 13 12  1  0  0  0  0
 13 22  1  0  0  0  0
 14  9  1  0  0  0  0
 14 13  1  0  0  0  0
 17 10  1  0  0  0  0
 18 11  1  0  0  0  0
 20 12  1  0  0  0  0
 23 13  1  0  0  0  0
 24 14  1  0  0  0  0
 25 14  1  0  0  0  0
 26  2  1  0  0  0  0
 27 30  1  0  0  0  0
 27 28  1  0  0  0  0
 27 26  1  0  0  0  0
 29 27  1  0  0  0  0
 30 31  1  0  0  0  0
 32 30  1  0  0  0  0
 33 30  1  0  0  0  0
 33 38  1  0  0  0  0
 34 35  1  0  0  0  0
 34 33  1  0  0  0  0
 35 36  1  0  0  0  0
 36 37  1  0  0  0  0
 38 37  1  0  0  0  0
M  END
>  <minimizedAffinity>
-5.03756618

$$$$

 OpenBabel03242514183D

 38 40  0  0  0  0  0  0  0  0999 V2000
   38.1540   30.6500   40.2990 C   0  0  0  0  0  0  0  0  0  0  0  0
   38.7340   30.5120   41.5470 C   0  0  0  0  0  0  0  0  0  0  0  0
   39.6670   31.4440   41.8990 C   0  0  0  0  0  0  0  0  0  0  0  0
   39.9750   32.4440   41.0230 N   0  0  0  0  0  0  0  0  0  0  0  0
   39.4100   32.5670   39.8210 C   0  0  0  0  0  0  0  0  0  0  0  0
   38.5090   31.6670   39.4810 N   0  0  0  0  0  0  0  0  0  0  0  0
   40.2570   31.5660   42.7890 H   0  0  0  0  0  0  0  0  0  0  0  0
   39.6540   33.3590   39.1250 H   0  0  0  0  0  0  0  0  0  0  0  0
   37.1750   29.6110   39.9400 C   0  0  0  0  0  0  0  0  0  0  0  0
   37.1490   29.2190   38.5440 C   0  0  0  0  0  0  0  0  0  0  0  0
   35.8970   29.5830   37.8530 C   0  0  0  0  0  0  0  0  0  0  0  0
   34.6970   28.9600   38.5440 C   0  0  0  0  0  0  0  0  0  0  0  0
   34.7430   29.1000   40.0270 C   0  0  0  0  0  0  0  0  0  0  0  0
   35.8180   30.0700   40.4670 C   0  0  0  0  0  0  0  0  0  0  0  0
   37.3320   28.6930   40.5640 H   0  0  0  0  0  0  0  0  0  0  0  0
   37.3690   28.1440   38.3170 H   0  0  0  0  0  0  0  0  0  0  0  0
   37.9810   29.7680   38.0090 H   0  0  0  0  0  0  0  0  0  0  0  0
   35.8020   30.6930   37.8710 H   0  0  0  0  0  0  0  0  0  0  0  0
   35.8410   29.2690   36.7970 H   0  0  0  0  0  0  0  0  0  0  0  0
   33.7850   29.3880   38.1000 H   0  0  0  0  0  0  0  0  0  0  0  0
   34.6950   27.8680   38.3090 H   0  0  0  0  0  0  0  0  0  0  0  0
   34.9320   28.1280   40.5550 H   0  0  0  0  0  0  0  0  0  0  0  0
   33.7740   29.4990   40.3790 H   0  0  0  0  0  0  0  0  0  0  0  0
   35.8030   30.0660   41.5760 H   0  0  0  0  0  0  0  0  0  0  0  0
   35.6180   31.0560   40.0120 H   0  0  0  0  0  0  0  0  0  0  0  0
   38.5790   29.6410   42.5230 O   0  0  0  0  0  0  0  0  0  0  0  0
   39.1020   28.4230   42.8440 C   0  0  0  0  0  0  0  0  0  0  0  0
   39.5530   28.3990   43.8470 H   0  0  0  0  0  0  0  0  0  0  0  0
   39.9510   28.2130   42.1420 H   0  0  0  0  0  0  0  0  0  0  0  0
   38.1160   27.2710   42.8020 C   0  0  0  0  0  0  0  0  0  0  0  0
   37.1860   27.6220   42.3210 H   0  0  0  0  0  0  0  0  0  0  0  0
   37.9550   26.8790   43.8230 H   0  0  0  0  0  0  0  0  0  0  0  0
   38.7200   26.2040   41.9190 C   0  0  0  0  0  3  0  0  0  0  0  0
   38.6000   24.8300   42.4890 C   0  0  0  0  0  2  0  0  0  0  0  0
   38.0050   23.8660   41.4840 C   0  0  0  0  0  2  0  0  0  0  0  0
   36.6510   24.3720   41.0330 C   0  0  0  0  0  2  0  0  0  0  0  0
   36.8270   25.6900   40.3310 C   0  0  0  0  0  2  0  0  0  0  0  0
   38.2070   26.2430   40.5010 C   0  0  0  0  0  2  0  0  0  0  0  0
  1  2  1  0  0  0  0
  2  3  2  0  0  0  0
  2 26  1  0  0  0  0
  3  7  1  0  0  0  0
  4  3  1  0  0  0  0
  5  4  2  0  0  0  0
  6  5  1  0  0  0  0
  6  1  2  0  0  0  0
  8  5  1  0  0  0  0
  9  1  1  0  0  0  0
  9 14  1  0  0  0  0
  9 15  1  0  0  0  0
 10  9  1  0  0  0  0
 11 18  1  0  0  0  0
 11 10  1  0  0  0  0
 11 12  1  0  0  0  0
 12 13  1  0  0  0  0
 13 23  1  0  0  0  0
 13 14  1  0  0  0  0
 13 22  1  0  0  0  0
 14 24  1  0  0  0  0
 16 10  1  0  0  0  0
 17 10  1  0  0  0  0
 19 11  1  0  0  0  0
 20 12  1  0  0  0  0
 21 12  1  0  0  0  0
 25 14  1  0  0  0  0
 26 27  1  0  0  0  0
 27 28  1  0  0  0  0
 29 27  1  0  0  0  0
 30 27  1  0  0  0  0
 30 32  1  0  0  0  0
 31 30  1  0  0  0  0
 33 34  1  0  0  0  0
 33 30  1  0  0  0  0
 35 34  1  0  0  0  0
 36 35  1  0  0  0  0
 37 38  1  0  0  0  0
 37 36  1  0  0  0  0
 38 33  1  0  0  0  0
M  END
>  <minimizedAffinity>
-5.00577402

$$$$

 OpenBabel03242514183D

 38 40  0  0  0  0  0  0  0  0999 V2000
   38.6930   30.4750   41.6940 C   0  0  0  0  0  0  0  0  0  0  0  0
   37.4590   29.9030   41.9410 C   0  0  0  0  0  0  0  0  0  0  0  0
   36.4060   30.3710   41.2100 C   0  0  0  0  0  0  0  0  0  0  0  0
   36.6180   31.3580   40.2920 N   0  0  0  0  0  0  0  0  0  0  0  0
   37.8130   31.9030   40.0620 C   0  0  0  0  0  0  0  0  0  0  0  0
   38.8300   31.4510   40.7680 N   0  0  0  0  0  0  0  0  0  0  0  0
   35.3640   30.1080   41.2050 H   0  0  0  0  0  0  0  0  0  0  0  0
   37.9820   32.6860   39.3340 H   0  0  0  0  0  0  0  0  0  0  0  0
   39.8000   29.9680   42.5210 C   0  0  0  0  0  0  0  0  0  0  0  0
   40.8460   30.9220   42.8370 C   0  0  0  0  0  0  0  0  0  0  0  0
   42.1470   30.5950   42.2200 C   0  0  0  0  0  0  0  0  0  0  0  0
   42.6170   29.2160   42.6480 C   0  0  0  0  0  0  0  0  0  0  0  0
   41.5380   28.1900   42.5880 C   0  0  0  0  0  0  0  0  0  0  0  0
   40.3190   28.6990   41.8500 C   0  0  0  0  0  0  0  0  0  0  0  0
   39.4090   29.5410   43.4810 H   0  0  0  0  0  0  0  0  0  0  0  0
   41.0230   31.1390   43.9220 H   0  0  0  0  0  0  0  0  0  0  0  0
   40.5390   31.9290   42.4220 H   0  0  0  0  0  0  0  0  0  0  0  0
   42.0210   30.6190   41.1140 H   0  0  0  0  0  0  0  0  0  0  0  0
   42.9660   31.2910   42.4680 H   0  0  0  0  0  0  0  0  0  0  0  0
   43.4970   28.9510   42.0420 H   0  0  0  0  0  0  0  0  0  0  0  0
   42.9580   29.2850   43.7100 H   0  0  0  0  0  0  0  0  0  0  0  0
   41.1980   27.8500   43.6020 H   0  0  0  0  0  0  0  0  0  0  0  0
   41.9140   27.3090   42.0380 H   0  0  0  0  0  0  0  0  0  0  0  0
   39.5650   27.8870   41.9040 H   0  0  0  0  0  0  0  0  0  0  0  0
   40.6140   28.9800   40.8250 H   0  0  0  0  0  0  0  0  0  0  0  0
   37.0500   28.9590   42.7640 O   0  0  0  0  0  0  0  0  0  0  0  0
   36.5140   27.7110   42.6390 C   0  0  0  0  0  0  0  0  0  0  0  0
   35.4340   27.7250   42.4310 H   0  0  0  0  0  0  0  0  0  0  0  0
   36.6090   27.1920   43.6290 H   0  0  0  0  0  0  0  0  0  0  0  0
   37.1380   26.8510   41.5570 C   0  0  0  0  0  0  0  0  0  0  0  0
   38.1030   27.2990   41.2640 H   0  0  0  0  0  0  0  0  0  0  0  0
   36.4340   26.7460   40.7110 H   0  0  0  0  0  0  0  0  0  0  0  0
   37.4220   25.5010   42.1730 C   0  0  0  0  0  3  0  0  0  0  0  0
   36.7870   24.3710   41.4340 C   0  0  0  0  0  2  0  0  0  0  0  0
   37.7930   23.2850   41.1170 C   0  0  0  0  0  2  0  0  0  0  0  0
   38.9350   23.8680   40.3120 C   0  0  0  0  0  2  0  0  0  0  0  0
   39.6460   24.9010   41.1420 C   0  0  0  0  0  2  0  0  0  0  0  0
   38.8920   25.2420   42.3880 C   0  0  0  0  0  2  0  0  0  0  0  0
  1  2  1  0  0  0  0
  1  9  1  0  0  0  0
  2 26  1  0  0  0  0
  3  2  2  0  0  0  0
  4  3  1  0  0  0  0
  5  4  2  0  0  0  0
  5  6  1  0  0  0  0
  6  1  2  0  0  0  0
  7  3  1  0  0  0  0
  8  5  1  0  0  0  0
  9 10  1  0  0  0  0
  9 15  1  0  0  0  0
 10 16  1  0  0  0  0
 11 19  1  0  0  0  0
 11 12  1  0  0  0  0
 11 10  1  0  0  0  0
 12 21  1  0  0  0  0
 13 12  1  0  0  0  0
 13 22  1  0  0  0  0
 14 24  1  0  0  0  0
 14  9  1  0  0  0  0
 14 13  1  0  0  0  0
 17 10  1  0  0  0  0
 18 11  1  0  0  0  0
 20 12  1  0  0  0  0
 23 13  1  0  0  0  0
 25 14  1  0  0  0  0
 27 26  1  0  0  0  0
 27 29  1  0  0  0  0
 28 27  1  0  0  0  0
 30 33  1  0  0  0  0
 30 27  1  0  0  0  0
 31 30  1  0  0  0  0
 32 30  1  0  0  0  0
 33 38  1  0  0  0  0
 34 33  1  0  0  0  0
 35 34  1  0  0  0  0
 36 35  1  0  0  0  0
 36 37  1  0  0  0  0
 37 38  1  0  0  0  0
M  END
>  <minimizedAffinity>
-4.89682007

$$$$

 OpenBabel03242514183D

 38 40  0  0  0  0  0  0  0  0999 V2000
   39.2320   26.0590   42.2480 C   0  0  0  0  0  0  0  0  0  0  0  0
   39.4630   27.2190   42.9660 C   0  0  0  0  0  0  0  0  0  0  0  0
   40.6260   27.2810   43.6790 C   0  0  0  0  0  0  0  0  0  0  0  0
   41.4830   26.2200   43.6490 N   0  0  0  0  0  0  0  0  0  0  0  0
   41.2500   25.1060   42.9540 C   0  0  0  0  0  0  0  0  0  0  0  0
   40.1280   25.0460   42.2660 N   0  0  0  0  0  0  0  0  0  0  0  0
   41.0390   28.0470   44.3090 H   0  0  0  0  0  0  0  0  0  0  0  0
   41.9300   24.2640   42.9310 H   0  0  0  0  0  0  0  0  0  0  0  0
   37.9570   26.0140   41.5160 C   0  0  0  0  0  0  0  0  0  0  0  0
   36.9610   25.0930   42.0310 C   0  0  0  0  0  0  0  0  0  0  0  0
   36.6670   23.9730   41.1160 C   0  0  0  0  0  0  0  0  0  0  0  0
   36.1880   24.4850   39.7690 C   0  0  0  0  0  0  0  0  0  0  0  0
   37.0140   25.6120   39.2500 C   0  0  0  0  0  0  0  0  0  0  0  0
   38.2900   25.7860   40.0440 C   0  0  0  0  0  0  0  0  0  0  0  0
   37.5000   27.0370   41.4620 H   0  0  0  0  0  0  0  0  0  0  0  0
   35.9850   25.5360   42.3600 H   0  0  0  0  0  0  0  0  0  0  0  0
   37.3660   24.6330   42.9810 H   0  0  0  0  0  0  0  0  0  0  0  0
   37.6020   23.3830   40.9800 H   0  0  0  0  0  0  0  0  0  0  0  0
   35.8910   23.2740   41.4720 H   0  0  0  0  0  0  0  0  0  0  0  0
   36.1410   23.6320   39.0750 H   0  0  0  0  0  0  0  0  0  0  0  0
   35.1450   24.8630   39.8970 H   0  0  0  0  0  0  0  0  0  0  0  0
   36.4740   26.5960   39.2640 H   0  0  0  0  0  0  0  0  0  0  0  0
   37.3020   25.3930   38.2060 H   0  0  0  0  0  0  0  0  0  0  0  0
   38.8030   26.6710   39.6140 H   0  0  0  0  0  0  0  0  0  0  0  0
   38.8740   24.8510   39.9920 H   0  0  0  0  0  0  0  0  0  0  0  0
   38.7810   28.3340   43.1230 O   0  0  0  0  0  0  0  0  0  0  0  0
   38.7080   29.5390   42.4890 C   0  0  0  0  0  0  0  0  0  0  0  0
   39.5040   30.2350   42.7940 H   0  0  0  0  0  0  0  0  0  0  0  0
   37.7540   30.0390   42.8020 H   0  0  0  0  0  0  0  0  0  0  0  0
   38.7690   29.4720   40.9750 C   0  0  0  0  0  0  0  0  0  0  0  0
   38.5550   28.4360   40.6600 H   0  0  0  0  0  0  0  0  0  0  0  0
   39.7510   29.8380   40.6230 H   0  0  0  0  0  0  0  0  0  0  0  0
   37.6610   30.3550   40.4480 C   0  0  0  0  0  3  0  0  0  0  0  0
   37.4700   30.2410   38.9720 C   0  0  0  0  0  2  0  0  0  0  0  0
   36.0200   29.9770   38.6230 C   0  0  0  0  0  2  0  0  0  0  0  0
   35.5520   28.7150   39.3160 C   0  0  0  0  0  2  0  0  0  0  0  0
   35.6180   28.9160   40.8050 C   0  0  0  0  0  2  0  0  0  0  0  0
   36.3530   30.1650   41.1750 C   0  0  0  0  0  2  0  0  0  0  0  0
  1  6  2  0  0  0  0
  1  2  1  0  0  0  0
  2 26  1  0  0  0  0
  2  3  2  0  0  0  0
  3  7  1  0  0  0  0
  4  3  1  0  0  0  0
  5  4  2  0  0  0  0
  6  5  1  0  0  0  0
  8  5  1  0  0  0  0
  9 10  1  0  0  0  0
  9  1  1  0  0  0  0
 10 16  1  0  0  0  0
 10 17  1  0  0  0  0
 11 19  1  0  0  0  0
 11 10  1  0  0  0  0
 12 21  1  0  0  0  0
 12 11  1  0  0  0  0
 13 22  1  0  0  0  0
 13 12  1  0  0  0  0
 13 14  1  0  0  0  0
 14  9  1  0  0  0  0
 15  9  1  0  0  0  0
 18 11  1  0  0  0  0
 20 12  1  0  0  0  0
 23 13  1  0  0  0  0
 24 14  1  0  0  0  0
 25 14  1  0  0  0  0
 27 28  1  0  0  0  0
 27 29  1  0  0  0  0
 27 26  1  0  0  0  0
 30 27  1  0  0  0  0
 31 30  1  0  0  0  0
 32 30  1  0  0  0  0
 33 30  1  0  0  0  0
 33 38  1  0  0  0  0
 34 33  1  0  0  0  0
 35 34  1  0  0  0  0
 35 36  1  0  0  0  0
 36 37  1  0  0  0  0
 37 38  1  0  0  0  0
M  END
>  <minimizedAffinity>
-4.80608892

$$$$

 OpenBabel03242514183D

 38 40  0  0  0  0  0  0  0  0999 V2000
   39.9420   30.9400   40.8190 C   0  0  0  0  0  0  0  0  0  0  0  0
   40.1420   30.3550   42.0560 C   0  0  0  0  0  0  0  0  0  0  0  0
   41.1850   30.8280   42.8000 C   0  0  0  0  0  0  0  0  0  0  0  0
   41.9610   31.8310   42.2970 N   0  0  0  0  0  0  0  0  0  0  0  0
   41.7600   32.3880   41.1020 C   0  0  0  0  0  0  0  0  0  0  0  0
   40.7530   31.9320   40.3840 N   0  0  0  0  0  0  0  0  0  0  0  0
   41.5540   30.5540   43.7710 H   0  0  0  0  0  0  0  0  0  0  0  0
   42.3760   33.1830   40.7030 H   0  0  0  0  0  0  0  0  0  0  0  0
   38.8290   30.3870   40.0320 C   0  0  0  0  0  0  0  0  0  0  0  0
   39.1490   29.9800   38.6770 C   0  0  0  0  0  0  0  0  0  0  0  0
   38.4870   30.8010   37.6440 C   0  0  0  0  0  0  0  0  0  0  0  0
   36.9780   30.7620   37.8070 C   0  0  0  0  0  0  0  0  0  0  0  0
   36.5430   30.9350   39.2220 C   0  0  0  0  0  0  0  0  0  0  0  0
   37.6800   31.3890   40.1090 C   0  0  0  0  0  0  0  0  0  0  0  0
   38.3680   29.5140   40.5650 H   0  0  0  0  0  0  0  0  0  0  0  0
   38.9840   28.9020   38.4200 H   0  0  0  0  0  0  0  0  0  0  0  0
   40.2620   30.1110   38.5250 H   0  0  0  0  0  0  0  0  0  0  0  0
   38.8470   31.8490   37.7530 H   0  0  0  0  0  0  0  0  0  0  0  0
   38.6920   30.4930   36.6050 H   0  0  0  0  0  0  0  0  0  0  0  0
   36.5400   31.5110   37.1290 H   0  0  0  0  0  0  0  0  0  0  0  0
   36.6220   29.7600   37.4650 H   0  0  0  0  0  0  0  0  0  0  0  0
   36.1220   29.9960   39.6710 H   0  0  0  0  0  0  0  0  0  0  0  0
   35.7600   31.7140   39.2620 H   0  0  0  0  0  0  0  0  0  0  0  0
   37.2690   31.4400   41.1390 H   0  0  0  0  0  0  0  0  0  0  0  0
   38.0700   32.3480   39.7270 H   0  0  0  0  0  0  0  0  0  0  0  0
   39.5210   29.3980   42.7130 O   0  0  0  0  0  0  0  0  0  0  0  0
   38.2660   29.2020   43.2110 C   0  0  0  0  0  0  0  0  0  0  0  0
   37.4730   29.4510   42.4900 H   0  0  0  0  0  0  0  0  0  0  0  0
   38.1160   29.9150   44.0620 H   0  0  0  0  0  0  0  0  0  0  0  0
   37.9760   27.7880   43.6800 C   0  0  0  0  0  0  0  0  0  0  0  0
   37.6260   27.8300   44.7260 H   0  0  0  0  0  0  0  0  0  0  0  0
   38.8760   27.1590   43.5480 H   0  0  0  0  0  0  0  0  0  0  0  0
   36.8400   27.2650   42.8310 C   0  0  0  0  0  3  0  0  0  0  0  0
   36.4470   28.1980   41.7350 C   0  0  0  0  0  2  0  0  0  0  0  0
   36.4020   27.4900   40.3980 C   0  0  0  0  0  2  0  0  0  0  0  0
   37.7510   26.8690   40.1050 C   0  0  0  0  0  2  0  0  0  0  0  0
   38.0510   25.8280   41.1470 C   0  0  0  0  0  2  0  0  0  0  0  0
   37.0900   25.8790   42.2920 C   0  0  0  0  0  2  0  0  0  0  0  0
  1  2  1  0  0  0  0
  2 26  1  0  0  0  0
  2  3  2  0  0  0  0
  3  7  1  0  0  0  0
  4  3  1  0  0  0  0
  5  4  2  0  0  0  0
  6  1  2  0  0  0  0
  6  5  1  0  0  0  0
  8  5  1  0  0  0  0
  9 14  1  0  0  0  0
  9 15  1  0  0  0  0
  9  1  1  0  0  0  0
 10  9  1  0  0  0  0
 11 18  1  0  0  0  0
 11 12  1  0  0  0  0
 11 10  1  0  0  0  0
 12 13  1  0  0  0  0
 13 23  1  0  0  0  0
 13 22  1  0  0  0  0
 13 14  1  0  0  0  0
 14 24  1  0  0  0  0
 16 10  1  0  0  0  0
 17 10  1  0  0  0  0
 19 11  1  0  0  0  0
 20 12  1  0  0  0  0
 21 12  1  0  0  0  0
 25 14  1  0  0  0  0
 26 27  1  0  0  0  0
 27 30  1  0  0  0  0
 27 29  1  0  0  0  0
 28 27  1  0  0  0  0
 30 31  1  0  0  0  0
 32 30  1  0  0  0  0
 33 30  1  0  0  0  0
 34 33  1  0  0  0  0
 35 34  1  0  0  0  0
 36 35  1  0  0  0  0
 36 37  1  0  0  0  0
 37 38  1  0  0  0  0
 38 33  1  0  0  0  0
M  END
>  <minimizedAffinity>
-4.79758644

$$$$

 OpenBabel03242514183D

 38 40  0  0  0  0  0  0  0  0999 V2000
   37.1740   25.6720   41.2330 C   0  0  0  0  0  0  0  0  0  0  0  0
   37.5820   26.0960   39.9810 C   0  0  0  0  0  0  0  0  0  0  0  0
   37.3210   25.2610   38.9330 C   0  0  0  0  0  0  0  0  0  0  0  0
   36.6850   24.0770   39.1660 N   0  0  0  0  0  0  0  0  0  0  0  0
   36.2960   23.6770   40.3780 C   0  0  0  0  0  0  0  0  0  0  0  0
   36.5480   24.4830   41.3900 N   0  0  0  0  0  0  0  0  0  0  0  0
   37.5280   25.3460   37.8820 H   0  0  0  0  0  0  0  0  0  0  0  0
   35.7920   22.7380   40.5630 H   0  0  0  0  0  0  0  0  0  0  0  0
   37.4980   26.5820   42.3430 C   0  0  0  0  0  0  0  0  0  0  0  0
   36.5990   27.7070   42.5260 C   0  0  0  0  0  0  0  0  0  0  0  0
   37.2310   29.0130   42.2570 C   0  0  0  0  0  0  0  0  0  0  0  0
   38.4410   29.2230   43.1510 C   0  0  0  0  0  0  0  0  0  0  0  0
   39.3220   28.0230   43.2250 C   0  0  0  0  0  0  0  0  0  0  0  0
   38.9580   26.9930   42.1790 C   0  0  0  0  0  0  0  0  0  0  0  0
   37.5560   26.0150   43.3090 H   0  0  0  0  0  0  0  0  0  0  0  0
   36.0680   27.7750   43.5090 H   0  0  0  0  0  0  0  0  0  0  0  0
   35.7520   27.6030   41.7840 H   0  0  0  0  0  0  0  0  0  0  0  0
   37.5480   29.0320   41.1900 H   0  0  0  0  0  0  0  0  0  0  0  0
   36.5770   29.8870   42.4170 H   0  0  0  0  0  0  0  0  0  0  0  0
   38.9710   30.1240   42.8050 H   0  0  0  0  0  0  0  0  0  0  0  0
   38.0720   29.4340   44.1830 H   0  0  0  0  0  0  0  0  0  0  0  0
   39.2880   27.5130   44.2240 H   0  0  0  0  0  0  0  0  0  0  0  0
   40.3650   28.3340   43.0340 H   0  0  0  0  0  0  0  0  0  0  0  0
   39.6330   26.1280   42.3490 H   0  0  0  0  0  0  0  0  0  0  0  0
   39.0480   27.4510   41.1790 H   0  0  0  0  0  0  0  0  0  0  0  0
   38.1950   27.1790   39.5510 O   0  0  0  0  0  0  0  0  0  0  0  0
   37.8680   28.2490   38.7700 C   0  0  0  0  0  0  0  0  0  0  0  0
   36.8600   28.6390   38.9740 H   0  0  0  0  0  0  0  0  0  0  0  0
   37.8330   27.9030   37.7050 H   0  0  0  0  0  0  0  0  0  0  0  0
   38.8060   29.4360   38.8850 C   0  0  0  0  0  0  0  0  0  0  0  0
   39.6900   29.2470   38.2520 H   0  0  0  0  0  0  0  0  0  0  0  0
   39.0620   29.6090   39.9460 H   0  0  0  0  0  0  0  0  0  0  0  0
   38.0760   30.6320   38.3180 C   0  0  0  0  0  3  0  0  0  0  0  0
   36.9610   31.1070   39.1880 C   0  0  0  0  0  2  0  0  0  0  0  0
   37.0630   32.5950   39.4500 C   0  0  0  0  0  2  0  0  0  0  0  0
   38.4010   32.9100   40.0860 C   0  0  0  0  0  2  0  0  0  0  0  0
   39.4990   32.5550   39.1230 C   0  0  0  0  0  2  0  0  0  0  0  0
   38.9950   31.7710   37.9530 C   0  0  0  0  0  2  0  0  0  0  0  0
  1  6  1  0  0  0  0
  1  9  1  0  0  0  0
  2  1  2  0  0  0  0
  3  4  2  0  0  0  0
  3  2  1  0  0  0  0
  4  5  1  0  0  0  0
  5  8  1  0  0  0  0
  5  6  2  0  0  0  0
  7  3  1  0  0  0  0
  9 10  1  0  0  0  0
  9 15  1  0  0  0  0
 10 16  1  0  0  0  0
 11 19  1  0  0  0  0
 11 10  1  0  0  0  0
 11 12  1  0  0  0  0
 12 13  1  0  0  0  0
 12 21  1  0  0  0  0
 13 22  1  0  0  0  0
 14  9  1  0  0  0  0
 14 24  1  0  0  0  0
 14 13  1  0  0  0  0
 17 10  1  0  0  0  0
 18 11  1  0  0  0  0
 20 12  1  0  0  0  0
 23 13  1  0  0  0  0
 25 14  1  0  0  0  0
 26  2  1  0  0  0  0
 27 30  1  0  0  0  0
 27 28  1  0  0  0  0
 27 26  1  0  0  0  0
 29 27  1  0  0  0  0
 30 32  1  0  0  0  0
 31 30  1  0  0  0  0
 33 30  1  0  0  0  0
 33 34  1  0  0  0  0
 34 35  1  0  0  0  0
 35 36  1  0  0  0  0
 37 36  1  0  0  0  0
 38 33  1  0  0  0  0
 38 37  1  0  0  0  0
M  END
>  <minimizedAffinity>
-4.77546453

$$$$
