
 OpenBabel03252503033D

 31 32  0  0  0  0  0  0  0  0999 V2000
   43.8800   34.4510   40.5980 S   0  0  0  0  0  0  0  0  0  0  0  0
   42.3150   32.3390   39.7420 C   0  0  0  0  0  0  0  0  0  0  0  0
   42.3090   33.6350   40.2300 C   0  0  0  0  0  0  0  0  0  0  0  0
   41.1140   34.3120   40.4380 C   0  0  0  0  0  0  0  0  0  0  0  0
   39.9680   33.6520   40.1430 N   0  0  0  0  0  0  0  0  0  0  0  0
   40.0120   32.3890   39.6690 C   0  0  0  0  0  0  0  0  0  0  0  0
   41.1480   31.7160   39.4610 N   0  0  0  0  0  0  0  0  0  0  0  0
   43.2550   31.8240   39.5860 H   0  0  0  0  0  0  0  0  0  0  0  0
   41.1220   35.3240   40.8200 H   0  0  0  0  0  0  0  0  0  0  0  0
   38.8290   31.7040   39.3620 O   0  0  0  0  0  0  0  0  0  0  0  0
   38.6980   30.4120   39.9380 C   0  0  0  0  0  3  0  0  0  0  0  0
   38.5720   30.5890   41.4370 C   0  0  0  0  0  2  0  0  0  0  0  0
   38.4450   29.2310   42.0910 C   0  0  0  0  0  2  0  0  0  0  0  0
   37.2830   28.4520   41.5120 C   0  0  0  0  0  2  0  0  0  0  0  0
   37.4730   28.3000   40.0050 C   0  0  0  0  0  2  0  0  0  0  0  0
   37.5210   29.6630   39.3940 C   0  0  0  0  0  2  0  0  0  0  0  0
   43.5810   35.8790   41.6260 C   0  0  0  0  0  0  0  0  0  0  0  0
   44.5040   36.5120   41.6050 H   0  0  0  0  0  0  0  0  0  0  0  0
   42.7150   36.4820   41.3100 H   0  0  0  0  0  0  0  0  0  0  0  0
   43.4470   35.4140   42.9990 N   0  0  0  0  0  0  0  0  0  0  0  0
   42.6240   35.8960   43.4240 H   0  0  0  0  0  0  0  0  0  0  0  0
   44.8320   35.7800   43.9400 S   0  0  0  0  0  0  0  0  0  0  0  0
   46.0970   35.2730   43.3160 O   0  0  0  0  0  0  0  0  0  0  0  0
   46.1500   34.4000   42.8230 H   0  0  0  0  0  0  0  0  0  0  0  0
   44.8950   37.2970   44.0180 O   0  0  0  0  0  0  0  0  0  0  0  0
   45.5150   37.7880   44.6110 H   0  0  0  0  0  0  0  0  0  0  0  0
   44.6390   35.2010   45.4920 O   0  0  0  0  0  0  0  0  0  0  0  0
   45.3720   34.0610   45.7200 C   0  0  0  0  0  0  0  0  0  0  0  0
   44.8140   33.4160   46.4290 H   0  0  0  0  0  0  0  0  0  0  0  0
   45.4670   33.5180   44.7480 H   0  0  0  0  0  0  0  0  0  0  0  0
   46.3790   34.2990   46.1320 H   0  0  0  0  0  0  0  0  0  0  0  0
  1 17  1  0  0  0  0
  2  3  1  0  0  0  0
  3  4  2  0  0  0  0
  3  1  1  0  0  0  0
  4  9  1  0  0  0  0
  5  4  1  0  0  0  0
  6  5  2  0  0  0  0
  7  6  1  0  0  0  0
  7  2  2  0  0  0  0
  8  2  1  0  0  0  0
 10  6  1  0  0  0  0
 10 11  1  0  0  0  0
 11 12  1  0  0  0  0
 12 13  1  0  0  0  0
 14 13  1  0  0  0  0
 15 14  1  0  0  0  0
 16 11  1  0  0  0  0
 16 15  1  0  0  0  0
 17 20  1  0  0  0  0
 18 17  1  0  0  0  0
 19 17  1  0  0  0  0
 20 21  1  0  0  0  0
 20 22  1  0  0  0  0
 22 25  1  0  0  0  0
 22 27  1  0  0  0  0
 23 22  1  0  0  0  0
 24 23  1  0  0  0  0
 25 26  1  0  0  0  0
 27 28  1  0  0  0  0
 28 31  1  0  0  0  0
 28 29  1  0  0  0  0
 30 28  1  0  0  0  0
M  END
>  <minimizedAffinity>
-4.62477112

>  <minimizedRMSD>
3.73254538

$$$$
