
 OpenBabel03252507163D

 26 28  0  0  0  0  0  0  0  0999 V2000
   44.6360   35.4980   44.6290 C   0  0  0  0  0  0  0  0  0  0  0  0
   45.4840   34.6730   43.8480 C   0  0  0  0  0  0  0  0  0  0  0  0
   46.0990   33.6150   44.5140 C   0  0  0  0  0  0  0  0  0  0  0  0
   45.8770   33.4160   45.8270 N   0  0  0  0  0  0  0  0  0  0  0  0
   45.0480   34.2380   46.5490 C   0  0  0  0  0  0  0  0  0  0  0  0
   44.4540   35.2510   45.9310 N   0  0  0  0  0  0  0  0  0  0  0  0
   44.1290   36.3470   44.1480 H   0  0  0  0  0  0  0  0  0  0  0  0
   44.9730   33.9460   47.5870 H   0  0  0  0  0  0  0  0  0  0  0  0
   46.9780   32.7480   43.7350 C   0  0  0  0  0  0  0  0  0  0  0  0
   46.5490   31.4980   43.3540 C   0  0  0  0  0  0  0  0  0  0  0  0
   47.3990   30.7020   42.6200 C   0  0  0  0  0  0  0  0  0  0  0  0
   48.6760   31.0950   42.2420 C   0  0  0  0  0  0  0  0  0  0  0  0
   49.0440   32.3700   42.6610 C   0  0  0  0  0  0  0  0  0  0  0  0
   48.2020   33.1300   43.3750 N   0  0  0  0  0  0  0  0  0  0  0  0
   45.5520   31.1120   43.6140 H   0  0  0  0  0  0  0  0  0  0  0  0
   47.0910   29.6980   42.2980 H   0  0  0  0  0  0  0  0  0  0  0  0
   49.3520   30.4830   41.6680 H   0  0  0  0  0  0  0  0  0  0  0  0
   50.0230   32.7680   42.4150 H   0  0  0  0  0  0  0  0  0  0  0  0
   45.6800   34.9320   42.4670 C   0  0  0  0  0  0  0  0  0  0  0  0
   46.7460   35.5440   42.1500 O   0  0  0  0  0  0  0  0  0  0  0  0
   44.8680   34.6250   41.2520 C   0  0  0  0  0  3  0  0  0  0  0  0
   43.7320   35.5990   41.2410 C   0  0  0  0  0  2  0  0  0  0  0  0
   42.5780   35.2040   40.3670 C   0  0  0  0  0  2  0  0  0  0  0  0
   42.1600   33.7780   40.5350 C   0  0  0  0  0  2  0  0  0  0  0  0
   43.0000   32.9980   41.4960 C   0  0  0  0  0  2  0  0  0  0  0  0
   44.4700   33.1880   41.2380 C   0  0  0  0  0  2  0  0  0  0  0  0
  1  6  1  0  0  0  0
  2  3  1  0  0  0  0
  2  1  2  0  0  0  0
  3  4  2  0  0  0  0
  4  5  1  0  0  0  0
  5  8  1  0  0  0  0
  6  5  2  0  0  0  0
  7  1  1  0  0  0  0
  9  3  1  0  0  0  0
 10 15  1  0  0  0  0
 10  9  2  0  0  0  0
 11 10  1  0  0  0  0
 12 11  2  0  0  0  0
 12 13  1  0  0  0  0
 13 14  2  0  0  0  0
 14  9  1  0  0  0  0
 16 11  1  0  0  0  0
 17 12  1  0  0  0  0
 18 13  1  0  0  0  0
 19  2  1  0  0  0  0
 20 19  2  0  0  0  0
 21 19  1  0  0  0  0
 22 21  1  0  0  0  0
 23 24  1  0  0  0  0
 23 22  1  0  0  0  0
 24 25  1  0  0  0  0
 26 21  1  0  0  0  0
 26 25  1  0  0  0  0
M  END
>  <minimizedAffinity>
-4.63558578

>  <minimizedRMSD>
1.54654682

$$$$
