
 OpenBabel03242515003D

 34 36  0  0  0  0  0  0  0  0999 V2000
   42.2690   34.7830   41.5450 C   0  0  0  0  0  0  0  0  0  0  0  0
   42.4300   35.0370   42.6190 H   0  0  0  0  0  0  0  0  0  0  0  0
   41.6690   33.8270   41.5500 H   0  0  0  0  0  0  0  0  0  0  0  0
   41.4550   35.8160   40.8360 C   0  0  0  0  0  0  0  0  0  0  0  0
   40.8160   36.3110   41.6070 H   0  0  0  0  0  0  0  0  0  0  0  0
   42.0530   36.6100   40.3610 H   0  0  0  0  0  0  0  0  0  0  0  0
   42.1250   36.0690   37.8780 Cl  0  0  0  0  0  0  0  0  0  0  0  0
   40.7350   35.2390   38.4900 C   0  0  0  0  0  0  0  0  0  0  0  0
   40.5150   35.1780   39.8840 C   0  0  0  0  0  0  0  0  0  0  0  0
   39.3940   34.5040   40.2810 C   0  0  0  0  0  0  0  0  0  0  0  0
   38.4590   33.8790   39.4710 C   0  0  0  0  0  0  0  0  0  0  0  0
   38.6930   33.9500   38.1080 C   0  0  0  0  0  0  0  0  0  0  0  0
   37.5670   33.1880   36.9870 Cl  0  0  0  0  0  0  0  0  0  0  0  0
   39.8080   34.6170   37.6420 C   0  0  0  0  0  0  0  0  0  0  0  0
   39.1980   34.4420   41.3560 H   0  0  0  0  0  0  0  0  0  0  0  0
   37.6030   33.3700   39.8860 H   0  0  0  0  0  0  0  0  0  0  0  0
   39.9830   34.6670   36.5690 H   0  0  0  0  0  0  0  0  0  0  0  0
   43.8430   34.4330   40.7410 S   0  0  0  0  0  0  0  0  0  0  0  0
   45.2040   34.3200   41.9110 C   0  0  0  0  0  0  0  0  0  0  0  0
   46.4770   34.6280   41.4190 C   0  0  0  0  0  0  0  0  0  0  0  0
   47.5650   34.5550   42.2900 C   0  0  0  0  0  0  0  0  0  0  0  0
   47.3230   34.1860   43.5750 N   0  0  0  0  0  0  0  0  0  0  0  0
   46.0940   33.8930   44.0330 C   0  0  0  0  0  0  0  0  0  0  0  0
   45.0570   33.9660   43.1900 N   0  0  0  0  0  0  0  0  0  0  0  0
   46.5990   34.9160   40.3840 H   0  0  0  0  0  0  0  0  0  0  0  0
   48.5520   34.7900   41.9290 H   0  0  0  0  0  0  0  0  0  0  0  0
   45.9430   33.5090   45.4210 C   0  0  0  0  0  0  0  0  0  0  0  0
   45.1140   34.1610   46.1080 O   0  0  0  0  0  0  0  0  0  0  0  0
   46.7250   32.3850   46.0470 C   0  0  0  0  0  3  0  0  0  0  0  0
   47.0040   32.7690   47.4860 C   0  0  0  0  0  2  0  0  0  0  0  0
   47.5810   31.6370   48.2700 C   0  0  0  0  0  2  0  0  0  0  0  0
   46.6440   30.4740   48.2880 C   0  0  0  0  0  2  0  0  0  0  0  0
   45.4750   30.7490   47.3670 C   0  0  0  0  0  2  0  0  0  0  0  0
   46.0090   31.0760   45.9690 C   0  0  0  0  0  2  0  0  0  0  0  0
  1  3  1  0  0  0  0
  1  2  1  0  0  0  0
  4  1  1  0  0  0  0
  4  5  1  0  0  0  0
  6  4  1  0  0  0  0
  7  8  1  0  0  0  0
  8  9  1  0  0  0  0
  9 10  2  0  0  0  0
  9  4  1  0  0  0  0
 10 15  1  0  0  0  0
 11 16  1  0  0  0  0
 11 10  1  0  0  0  0
 12 11  2  0  0  0  0
 13 12  1  0  0  0  0
 14 12  1  0  0  0  0
 14  8  2  0  0  0  0
 17 14  1  0  0  0  0
 18  1  1  0  0  0  0
 18 19  1  0  0  0  0
 19 24  1  0  0  0  0
 20 19  2  0  0  0  0
 20 21  1  0  0  0  0
 21 22  2  0  0  0  0
 22 23  1  0  0  0  0
 23 27  1  0  0  0  0
 24 23  2  0  0  0  0
 25 20  1  0  0  0  0
 26 21  1  0  0  0  0
 27 29  1  0  0  0  0
 27 28  2  0  0  0  0
 29 30  1  0  0  0  0
 30 31  1  0  0  0  0
 31 32  1  0  0  0  0
 33 32  1  0  0  0  0
 34 29  1  0  0  0  0
 34 33  1  0  0  0  0
M  END
>  <minimizedAffinity>
-6.75844049

>  <minimizedRMSD>
0.860340416

$$$$
