
 OpenBabel03242519283D

 40 43  0  0  0  0  0  0  0  0999 V2000
   46.8650   33.6140   42.2080 C   0  0  0  0  0  0  0  0  0  0  0  0
   46.7720   34.4000   41.0210 C   0  0  0  0  0  0  0  0  0  0  0  0
   47.7970   34.3300   40.0690 C   0  0  0  0  0  0  0  0  0  0  0  0
   48.8420   33.4870   40.3610 N   0  0  0  0  0  0  0  0  0  0  0  0
   48.8910   32.7460   41.5220 C   0  0  0  0  0  0  0  0  0  0  0  0
   47.9160   32.8250   42.4080 N   0  0  0  0  0  0  0  0  0  0  0  0
   45.9960   35.0710   40.7290 H   0  0  0  0  0  0  0  0  0  0  0  0
   47.8030   34.8820   39.1610 H   0  0  0  0  0  0  0  0  0  0  0  0
   45.7360   33.7720   43.1350 C   0  0  0  0  0  0  0  0  0  0  0  0
   44.8470   34.8800   42.8360 C   0  0  0  0  0  0  0  0  0  0  0  0
   44.8730   35.9840   43.8160 C   0  0  0  0  0  0  0  0  0  0  0  0
   44.6410   35.5090   45.2460 C   0  0  0  0  0  0  0  0  0  0  0  0
   45.2530   34.1890   45.5550 C   0  0  0  0  0  0  0  0  0  0  0  0
   46.3560   33.8670   44.5550 C   0  0  0  0  0  0  0  0  0  0  0  0
   45.2070   32.7740   43.1830 H   0  0  0  0  0  0  0  0  0  0  0  0
   43.7840   34.4960   42.8080 H   0  0  0  0  0  0  0  0  0  0  0  0
   44.9860   35.3340   41.8280 H   0  0  0  0  0  0  0  0  0  0  0  0
   45.7430   36.6370   43.8220 H   0  0  0  0  0  0  0  0  0  0  0  0
   43.9990   36.6570   43.5700 H   0  0  0  0  0  0  0  0  0  0  0  0
   43.5530   35.4880   45.4500 H   0  0  0  0  0  0  0  0  0  0  0  0
   45.0730   36.2630   45.9440 H   0  0  0  0  0  0  0  0  0  0  0  0
   45.6680   34.0800   46.5600 H   0  0  0  0  0  0  0  0  0  0  0  0
   44.4500   33.4200   45.3540 H   0  0  0  0  0  0  0  0  0  0  0  0
   47.0370   34.7330   44.4980 H   0  0  0  0  0  0  0  0  0  0  0  0
   46.8170   32.9140   44.8280 H   0  0  0  0  0  0  0  0  0  0  0  0
   50.0780   31.9180   41.6500 C   0  0  0  0  0  0  0  0  0  0  0  0
   50.9370   31.8640   40.6120 N   0  0  0  0  0  0  0  0  0  0  0  0
   51.9630   31.0430   40.9410 C   0  0  0  0  0  0  0  0  0  0  0  0
   51.7350   30.5900   42.1870 N   0  0  0  0  0  0  0  0  0  0  0  0
   50.5820   31.1190   42.6320 N   0  0  0  0  0  0  0  0  0  0  0  0
   52.8100   30.8000   40.3120 H   0  0  0  0  0  0  0  0  0  0  0  0
   52.5520   29.6780   42.9850 C   0  0  0  0  0  0  0  0  0  0  0  0
   53.6010   29.8530   42.7560 H   0  0  0  0  0  0  0  0  0  0  0  0
   52.3320   28.6310   42.6600 H   0  0  0  0  0  0  0  0  0  0  0  0
   52.2320   29.7270   44.4550 C   0  0  0  0  0  0  0  0  0  0  0  0
   51.9960   28.3020   44.9410 C   0  0  0  0  0  0  0  0  0  0  0  0
   53.2370   27.4730   44.9330 C   0  0  0  0  0  0  0  0  0  0  0  0
   54.3830   28.1180   45.6800 C   0  0  0  0  0  0  0  0  0  0  0  0
   54.6160   29.5400   45.2570 C   0  0  0  0  0  0  0  0  0  0  0  0
   53.3200   30.3040   45.3030 C   0  0  0  0  0  0  0  0  0  0  0  0
  1  6  1  0  0  0  0
  1  9  1  0  0  0  0
  2  1  2  0  0  0  0
  3  4  2  0  0  0  0
  3  2  1  0  0  0  0
  4  5  1  0  0  0  0
  5 26  1  0  0  0  0
  5  6  2  0  0  0  0
  7  2  1  0  0  0  0
  8  3  1  0  0  0  0
  9 15  1  0  0  0  0
  9 14  1  0  0  0  0
 10  9  1  0  0  0  0
 10 11  1  0  0  0  0
 11 18  1  0  0  0  0
 11 12  1  0  0  0  0
 12 20  1  0  0  0  0
 12 13  1  0  0  0  0
 12 21  1  0  0  0  0
 13 22  1  0  0  0  0
 14 25  1  0  0  0  0
 14 13  1  0  0  0  0
 16 10  1  0  0  0  0
 17 10  1  0  0  0  0
 19 11  1  0  0  0  0
 23 13  1  0  0  0  0
 24 14  1  0  0  0  0
 26 30  2  0  0  0  0
 27 28  2  0  0  0  0
 27 26  1  0  0  0  0
 28 29  1  0  0  0  0
 29 30  1  0  0  0  0
 29 32  1  0  0  0  0
 31 28  1  0  0  0  0
 32 35  1  0  0  0  0
 33 32  1  0  0  0  0
 34 32  1  0  0  0  0
 35 36  1  0  0  0  0
 35 40  1  0  0  0  0
 37 36  1  0  0  0  0
 37 38  1  0  0  0  0
 39 40  1  0  0  0  0
 39 38  1  0  0  0  0
M  END
>  <minimizedAffinity>
-4.5894804

>  <minimizedRMSD>
1.83667827

$$$$
