
 OpenBabel03252508503D

 25 27  0  0  0  0  0  0  0  0999 V2000
   45.9620   34.1550   41.0460 C   0  0  0  0  0  0  0  0  0  0  0  0
   46.5410   34.8020   42.1320 C   0  0  0  0  0  0  0  0  0  0  0  0
   47.8760   35.2020   42.0130 C   0  0  0  0  0  0  0  0  0  0  0  0
   48.5280   34.9370   40.8500 N   0  0  0  0  0  0  0  0  0  0  0  0
   47.9280   34.3070   39.8210 C   0  0  0  0  0  0  0  0  0  0  0  0
   46.6370   33.9140   39.9240 N   0  0  0  0  0  0  0  0  0  0  0  0
   48.3570   35.7140   42.8520 H   0  0  0  0  0  0  0  0  0  0  0  0
   48.4600   34.1020   38.9030 H   0  0  0  0  0  0  0  0  0  0  0  0
   45.7570   35.0450   43.3450 C   0  0  0  0  0  0  0  0  0  0  0  0
   45.0630   36.2090   43.5760 C   0  0  0  0  0  0  0  0  0  0  0  0
   44.4840   36.0120   44.8060 C   0  0  0  0  0  0  0  0  0  0  0  0
   44.8110   34.7870   45.3030 N   0  0  0  0  0  0  0  0  0  0  0  0
   45.5800   34.2310   44.3960 N   0  0  0  0  0  0  0  0  0  0  0  0
   45.0090   37.0460   42.9250 H   0  0  0  0  0  0  0  0  0  0  0  0
   43.8490   36.7090   45.3430 H   0  0  0  0  0  0  0  0  0  0  0  0
   44.5060   34.3920   46.2130 H   0  0  0  0  0  0  0  0  0  0  0  0
   44.6500   33.7610   41.1600 O   0  0  0  0  0  0  0  0  0  0  0  0
   43.5540   34.4130   40.6730 C   0  0  0  0  0  0  0  0  0  0  0  0
   43.3730   35.6720   40.5790 O   0  0  0  0  0  0  0  0  0  0  0  0
   42.2260   33.9760   40.0980 C   0  0  0  0  0  3  0  0  0  0  0  0
   42.3150   33.8780   38.5970 C   0  0  0  0  0  2  0  0  0  0  0  0
   41.0430   33.1800   38.1530 C   0  0  0  0  0  2  0  0  0  0  0  0
   39.8900   34.1230   38.3740 C   0  0  0  0  0  2  0  0  0  0  0  0
   40.1380   35.1930   39.3800 C   0  0  0  0  0  2  0  0  0  0  0  0
   41.0840   34.8370   40.4840 C   0  0  0  0  0  2  0  0  0  0  0  0
  1 17  1  0  0  0  0
  1  2  1  0  0  0  0
  2  9  1  0  0  0  0
  3  2  2  0  0  0  0
  3  7  1  0  0  0  0
  4  3  1  0  0  0  0
  5  6  1  0  0  0  0
  5  4  2  0  0  0  0
  6  1  2  0  0  0  0
  8  5  1  0  0  0  0
  9 10  1  0  0  0  0
  9 13  2  0  0  0  0
 10 11  2  0  0  0  0
 11 12  1  0  0  0  0
 11 15  1  0  0  0  0
 12 16  1  0  0  0  0
 13 12  1  0  0  0  0
 14 10  1  0  0  0  0
 18 17  1  0  0  0  0
 19 18  2  0  0  0  0
 20 25  1  0  0  0  0
 20 18  1  0  0  0  0
 21 20  1  0  0  0  0
 22 23  1  0  0  0  0
 22 21  1  0  0  0  0
 23 24  1  0  0  0  0
 24 25  1  0  0  0  0
M  END
>  <minimizedAffinity>
-5.79957771

>  <minimizedRMSD>
0.706378043

$$$$
