
 OpenBabel03252503593D

 31 34  0  0  0  0  0  0  0  0999 V2000
   46.7190   35.0170   42.7280 C   0  0  0  0  0  0  0  0  0  0  0  0
   45.8280   36.0720   42.7200 C   0  0  0  0  0  0  0  0  0  0  0  0
   44.8750   36.1040   43.7270 C   0  0  0  0  0  0  0  0  0  0  0  0
   44.8620   35.1140   44.6570 N   0  0  0  0  0  0  0  0  0  0  0  0
   45.7550   34.1030   44.6220 C   0  0  0  0  0  0  0  0  0  0  0  0
   46.6920   34.0390   43.6620 N   0  0  0  0  0  0  0  0  0  0  0  0
   45.8460   36.8590   41.9710 H   0  0  0  0  0  0  0  0  0  0  0  0
   44.1300   36.8880   43.8120 H   0  0  0  0  0  0  0  0  0  0  0  0
   46.0250   31.7390   45.1960 C   0  0  0  0  0  0  0  0  0  0  0  0
   45.7350   33.0330   45.6330 C   0  0  0  0  0  0  0  0  0  0  0  0
   45.4470   33.2680   46.9580 C   0  0  0  0  0  0  0  0  0  0  0  0
   45.4480   32.2160   47.8500 C   0  0  0  0  0  0  0  0  0  0  0  0
   45.2150   32.1280   49.1600 N   0  0  0  0  0  0  0  0  0  0  0  0
   45.3410   30.8490   49.5780 C   0  0  0  0  0  0  0  0  0  0  0  0
   45.6690   30.0600   48.5080 C   0  0  0  0  0  0  0  0  0  0  0  0
   45.7350   30.9200   47.4300 C   0  0  0  0  0  0  0  0  0  0  0  0
   46.0250   30.6880   46.0920 C   0  0  0  0  0  0  0  0  0  0  0  0
   46.2570   31.5130   44.1660 H   0  0  0  0  0  0  0  0  0  0  0  0
   45.2290   34.2830   47.2490 H   0  0  0  0  0  0  0  0  0  0  0  0
   44.9650   32.9540   49.7800 H   0  0  0  0  0  0  0  0  0  0  0  0
   45.2190   30.4370   50.5690 H   0  0  0  0  0  0  0  0  0  0  0  0
   45.8430   28.9870   48.4930 H   0  0  0  0  0  0  0  0  0  0  0  0
   46.2500   29.6860   45.7530 H   0  0  0  0  0  0  0  0  0  0  0  0
   47.6990   35.0240   41.6550 C   0  0  0  0  0  0  0  0  0  0  0  0
   48.6800   35.8510   41.5890 O   0  0  0  0  0  0  0  0  0  0  0  0
   47.4830   33.9840   40.6150 C   0  0  0  0  0  0  0  0  0  0  0  0
   48.1830   34.4320   39.3260 C   0  0  0  0  0  0  0  0  0  0  0  0
   48.0130   33.4240   38.2370 C   0  0  0  0  0  0  0  0  0  0  0  0
   47.0410   32.3250   38.6070 C   0  0  0  0  0  0  0  0  0  0  0  0
   45.7650   32.8670   39.2160 C   0  0  0  0  0  0  0  0  0  0  0  0
   46.0150   33.8880   40.2800 C   0  0  0  0  0  0  0  0  0  0  0  0
  1  6  1  0  0  0  0
  2  1  2  0  0  0  0
  2  3  1  0  0  0  0
  3  8  1  0  0  0  0
  3  4  2  0  0  0  0
  5  4  1  0  0  0  0
  5 10  1  0  0  0  0
  6  5  2  0  0  0  0
  7  2  1  0  0  0  0
  9 10  2  0  0  0  0
  9 17  1  0  0  0  0
 10 11  1  0  0  0  0
 11 19  1  0  0  0  0
 11 12  2  0  0  0  0
 12 13  1  0  0  0  0
 13 14  1  0  0  0  0
 13 20  1  0  0  0  0
 14 21  1  0  0  0  0
 15 14  2  0  0  0  0
 16 12  1  0  0  0  0
 16 15  1  0  0  0  0
 17 16  2  0  0  0  0
 18  9  1  0  0  0  0
 22 15  1  0  0  0  0
 23 17  1  0  0  0  0
 24  1  1  0  0  0  0
 25 24  2  0  0  0  0
 26 24  1  0  0  0  0
 27 26  1  0  0  0  0
 28 29  1  0  0  0  0
 28 27  1  0  0  0  0
 29 30  1  0  0  0  0
 30 31  1  0  0  0  0
 31 26  1  0  0  0  0
M  END
>  <minimizedAffinity>
-6.25596237

>  <minimizedRMSD>
0.428533614

$$$$
