
 OpenBabel03252502383D

 35 37  0  0  1  0  0  0  0  0999 V2000
   38.1600   29.9960   40.6110 C   0  0  1  0  0  0  0  0  0  0  0  0
   39.1460   29.5270   40.7940 H   0  0  0  0  0  0  0  0  0  0  0  0
   37.6130   29.3140   39.4510 N   0  0  0  0  0  0  0  0  0  0  0  0
   38.5890   28.8510   38.5460 C   0  0  0  0  0  0  0  0  0  0  0  0
   37.7930   28.5320   37.2540 C   0  0  0  0  0  0  0  0  0  0  0  0
   37.0840   27.3340   37.5840 N   0  0  0  0  0  0  0  0  0  0  0  0
   36.2470   27.3930   38.7360 C   0  0  0  0  0  0  0  0  0  0  0  0
   36.5870   28.3850   39.7900 C   0  0  0  0  0  0  0  0  0  0  0  0
   39.1140   27.9130   38.8150 H   0  0  0  0  0  0  0  0  0  0  0  0
   39.2580   29.6760   38.2750 H   0  0  0  0  0  0  0  0  0  0  0  0
   38.4660   28.3340   36.4250 H   0  0  0  0  0  0  0  0  0  0  0  0
   37.0630   29.3320   37.1090 H   0  0  0  0  0  0  0  0  0  0  0  0
   37.6640   26.4710   37.5220 H   0  0  0  0  0  0  0  0  0  0  0  0
   36.2250   26.3470   39.1630 H   0  0  0  0  0  0  0  0  0  0  0  0
   35.2070   27.5460   38.3680 H   0  0  0  0  0  0  0  0  0  0  0  0
   36.8990   27.8400   40.7040 H   0  0  0  0  0  0  0  0  0  0  0  0
   35.6410   28.9240   40.0610 H   0  0  0  0  0  0  0  0  0  0  0  0
   37.2850   32.1410   39.7640 C   0  0  0  0  0  0  0  0  0  0  0  0
   38.2940   31.4220   40.4470 C   0  0  0  0  0  0  0  0  0  0  0  0
   39.3610   32.1590   40.9100 C   0  0  0  0  0  0  0  0  0  0  0  0
   39.3810   33.5130   40.6880 N   0  0  0  0  0  0  0  0  0  0  0  0
   38.3980   34.1610   40.0330 C   0  0  0  0  0  0  0  0  0  0  0  0
   37.3210   33.4630   39.5550 N   0  0  0  0  0  0  0  0  0  0  0  0
   36.4020   31.6410   39.3600 H   0  0  0  0  0  0  0  0  0  0  0  0
   40.1550   31.6520   41.4390 H   0  0  0  0  0  0  0  0  0  0  0  0
   38.5090   35.2260   39.9100 H   0  0  0  0  0  0  0  0  0  0  0  0
   37.2370   29.7520   41.8180 C   0  0  0  0  0  0  0  0  0  0  0  0
   36.7610   30.7250   42.0350 H   0  0  0  0  0  0  0  0  0  0  0  0
   36.5230   28.9540   41.5070 H   0  0  0  0  0  0  0  0  0  0  0  0
   38.0610   29.2880   43.0080 C   0  0  0  0  0  3  0  0  0  0  0  0
   39.4030   28.8370   42.4640 C   0  0  0  0  0  2  0  0  0  0  0  0
   40.0530   27.7730   43.3050 C   0  0  0  0  0  2  0  0  0  0  0  0
   39.1810   26.5810   43.5620 C   0  0  0  0  0  2  0  0  0  0  0  0
   37.8100   26.8530   42.9960 C   0  0  0  0  0  2  0  0  0  0  0  0
   37.3260   28.1420   43.6690 C   0  0  0  0  0  2  0  0  0  0  0  0
  1  2  1  1  0  0  0
  1 27  1  0  0  0  0
  3  8  1  0  0  0  0
  3  1  1  0  0  0  0
  4  9  1  0  0  0  0
  4  3  1  0  0  0  0
  5  6  1  0  0  0  0
  5  4  1  0  0  0  0
  6  7  1  0  0  0  0
  7 14  1  0  0  0  0
  7  8  1  0  0  0  0
  8 17  1  0  0  0  0
  8 16  1  0  0  0  0
 10  4  1  0  0  0  0
 11  5  1  0  0  0  0
 12  5  1  0  0  0  0
 13  6  1  0  0  0  0
 15  7  1  0  0  0  0
 18 19  1  0  0  0  0
 19  1  1  0  0  0  0
 19 20  2  0  0  0  0
 20 25  1  0  0  0  0
 21 20  1  0  0  0  0
 22 21  2  0  0  0  0
 23 18  2  0  0  0  0
 23 22  1  0  0  0  0
 24 18  1  0  0  0  0
 26 22  1  0  0  0  0
 27 28  1  0  0  0  0
 27 30  1  0  0  0  0
 29 27  1  0  0  0  0
 30 35  1  0  0  0  0
 31 30  1  0  0  0  0
 31 32  1  0  0  0  0
 32 33  1  0  0  0  0
 34 33  1  0  0  0  0
 34 35  1  0  0  0  0
M  END
>  <minimizedAffinity>
-4.98508167

$$$$

 OpenBabel03252502383D

 35 37  0  0  1  0  0  0  0  0999 V2000
   37.3010   29.8570   39.6140 C   0  0  1  0  0  0  0  0  0  0  0  0
   36.5180   29.7680   40.3910 H   0  0  0  0  0  0  0  0  0  0  0  0
   37.9240   31.1510   39.8340 N   0  0  0  0  0  0  0  0  0  0  0  0
   37.0230   32.1640   40.2160 C   0  0  0  0  0  0  0  0  0  0  0  0
   37.8150   33.4800   40.0100 C   0  0  0  0  0  0  0  0  0  0  0  0
   38.7550   33.4790   41.0890 N   0  0  0  0  0  0  0  0  0  0  0  0
   39.6070   32.3420   41.1820 C   0  0  0  0  0  0  0  0  0  0  0  0
   39.1230   31.0620   40.6000 C   0  0  0  0  0  0  0  0  0  0  0  0
   36.6990   32.1700   41.2760 H   0  0  0  0  0  0  0  0  0  0  0  0
   36.1970   32.2090   39.4970 H   0  0  0  0  0  0  0  0  0  0  0  0
   37.1620   34.3430   40.1030 H   0  0  0  0  0  0  0  0  0  0  0  0
   38.3710   33.3890   39.0730 H   0  0  0  0  0  0  0  0  0  0  0  0
   38.3500   33.7850   41.9990 H   0  0  0  0  0  0  0  0  0  0  0  0
   39.8470   32.2160   42.2790 H   0  0  0  0  0  0  0  0  0  0  0  0
   40.5830   32.6360   40.7340 H   0  0  0  0  0  0  0  0  0  0  0  0
   38.9580   30.3380   41.4230 H   0  0  0  0  0  0  0  0  0  0  0  0
   39.9570   30.6390   39.9800 H   0  0  0  0  0  0  0  0  0  0  0  0
   35.4000   29.2500   38.1640 C   0  0  0  0  0  0  0  0  0  0  0  0
   36.7370   29.6920   38.2970 C   0  0  0  0  0  0  0  0  0  0  0  0
   37.4210   29.9300   37.1260 C   0  0  0  0  0  0  0  0  0  0  0  0
   36.7800   29.7300   35.9290 N   0  0  0  0  0  0  0  0  0  0  0  0
   35.5030   29.3080   35.8450 C   0  0  0  0  0  0  0  0  0  0  0  0
   34.7900   29.0590   36.9880 N   0  0  0  0  0  0  0  0  0  0  0  0
   34.7800   29.0350   39.0380 H   0  0  0  0  0  0  0  0  0  0  0  0
   38.4450   30.2690   37.1790 H   0  0  0  0  0  0  0  0  0  0  0  0
   35.0910   29.1810   34.8570 H   0  0  0  0  0  0  0  0  0  0  0  0
   38.3550   28.7530   39.8100 C   0  0  0  0  0  0  0  0  0  0  0  0
   38.5650   28.3540   38.8020 H   0  0  0  0  0  0  0  0  0  0  0  0
   39.2300   29.2400   40.2990 H   0  0  0  0  0  0  0  0  0  0  0  0
   37.7910   27.6610   40.7040 C   0  0  0  0  0  3  0  0  0  0  0  0
   36.7450   28.3120   41.5880 C   0  0  0  0  0  2  0  0  0  0  0  0
   36.5840   27.6240   42.9160 C   0  0  0  0  0  2  0  0  0  0  0  0
   37.8650   27.4590   43.6780 C   0  0  0  0  0  2  0  0  0  0  0  0
   39.0060   27.9280   42.8130 C   0  0  0  0  0  2  0  0  0  0  0  0
   38.9290   27.0950   41.5270 C   0  0  0  0  0  2  0  0  0  0  0  0
  1 27  1  0  0  0  0
  1  3  1  0  0  0  0
  1  2  1  1  0  0  0
  3  4  1  0  0  0  0
  3  8  1  0  0  0  0
  4  9  1  0  0  0  0
  5 11  1  0  0  0  0
  5  4  1  0  0  0  0
  5  6  1  0  0  0  0
  6  7  1  0  0  0  0
  6 13  1  0  0  0  0
  7 14  1  0  0  0  0
  8  7  1  0  0  0  0
  8 16  1  0  0  0  0
 10  4  1  0  0  0  0
 12  5  1  0  0  0  0
 15  7  1  0  0  0  0
 17  8  1  0  0  0  0
 18 19  1  0  0  0  0
 18 24  1  0  0  0  0
 19  1  1  0  0  0  0
 20 25  1  0  0  0  0
 20 19  2  0  0  0  0
 21 20  1  0  0  0  0
 22 21  2  0  0  0  0
 22 23  1  0  0  0  0
 23 18  2  0  0  0  0
 26 22  1  0  0  0  0
 27 29  1  0  0  0  0
 27 30  1  0  0  0  0
 28 27  1  0  0  0  0
 30 35  1  0  0  0  0
 30 31  1  0  0  0  0
 31 32  1  0  0  0  0
 32 33  1  0  0  0  0
 34 33  1  0  0  0  0
 35 34  1  0  0  0  0
M  END
>  <minimizedAffinity>
-4.88382626

$$$$

 OpenBabel03252502383D

 35 37  0  0  1  0  0  0  0  0999 V2000
   36.9040   29.7770   39.7000 C   0  0  1  0  0  0  0  0  0  0  0  0
   37.8840   29.6420   39.2050 H   0  0  0  0  0  0  0  0  0  0  0  0
   36.9640   28.9720   40.9080 N   0  0  0  0  0  0  0  0  0  0  0  0
   37.6030   27.7280   40.7370 C   0  0  0  0  0  0  0  0  0  0  0  0
   37.2060   26.9170   41.9980 C   0  0  0  0  0  0  0  0  0  0  0  0
   37.9770   27.5200   43.0410 N   0  0  0  0  0  0  0  0  0  0  0  0
   37.8050   28.9230   43.2230 C   0  0  0  0  0  0  0  0  0  0  0  0
   37.3590   29.7240   42.0530 C   0  0  0  0  0  0  0  0  0  0  0  0
   38.7110   27.7350   40.7200 H   0  0  0  0  0  0  0  0  0  0  0  0
   37.1460   27.1950   39.8960 H   0  0  0  0  0  0  0  0  0  0  0  0
   37.4960   25.8750   41.8930 H   0  0  0  0  0  0  0  0  0  0  0  0
   36.1500   27.1110   42.1980 H   0  0  0  0  0  0  0  0  0  0  0  0
   38.9700   27.2050   43.0670 H   0  0  0  0  0  0  0  0  0  0  0  0
   38.7880   29.3110   43.6230 H   0  0  0  0  0  0  0  0  0  0  0  0
   37.1060   29.0510   44.0800 H   0  0  0  0  0  0  0  0  0  0  0  0
   38.1820   30.4050   41.7540 H   0  0  0  0  0  0  0  0  0  0  0  0
   36.5230   30.3860   42.3990 H   0  0  0  0  0  0  0  0  0  0  0  0
   36.0700   29.3500   37.4190 C   0  0  0  0  0  0  0  0  0  0  0  0
   35.8260   29.4230   38.8100 C   0  0  0  0  0  0  0  0  0  0  0  0
   34.5400   29.1510   39.2190 C   0  0  0  0  0  0  0  0  0  0  0  0
   33.5950   28.8320   38.2770 N   0  0  0  0  0  0  0  0  0  0  0  0
   33.8680   28.7720   36.9590 C   0  0  0  0  0  0  0  0  0  0  0  0
   35.1350   29.0370   36.5110 N   0  0  0  0  0  0  0  0  0  0  0  0
   37.0590   29.5500   37.0010 H   0  0  0  0  0  0  0  0  0  0  0  0
   34.3080   29.1950   40.2730 H   0  0  0  0  0  0  0  0  0  0  0  0
   33.0560   28.5130   36.3000 H   0  0  0  0  0  0  0  0  0  0  0  0
   36.7190   31.2540   40.0900 C   0  0  0  0  0  0  0  0  0  0  0  0
   35.6390   31.4630   39.9790 H   0  0  0  0  0  0  0  0  0  0  0  0
   37.0960   31.3500   41.1340 H   0  0  0  0  0  0  0  0  0  0  0  0
   37.5270   32.1360   39.1530 C   0  0  0  0  0  3  0  0  0  0  0  0
   38.9360   31.5750   39.1280 C   0  0  0  0  0  2  0  0  0  0  0  0
   39.9820   32.6190   38.8480 C   0  0  0  0  0  2  0  0  0  0  0  0
   39.9220   33.8040   39.7630 C   0  0  0  0  0  2  0  0  0  0  0  0
   38.7100   33.6700   40.6500 C   0  0  0  0  0  2  0  0  0  0  0  0
   37.5100   33.5460   39.7050 C   0  0  0  0  0  2  0  0  0  0  0  0
  1  2  1  6  0  0  0
  1 27  1  0  0  0  0
  1  3  1  0  0  0  0
  3  8  1  0  0  0  0
  4  3  1  0  0  0  0
  4  5  1  0  0  0  0
  5 12  1  0  0  0  0
  5  6  1  0  0  0  0
  6 13  1  0  0  0  0
  6  7  1  0  0  0  0
  7 14  1  0  0  0  0
  7 15  1  0  0  0  0
  8 17  1  0  0  0  0
  8  7  1  0  0  0  0
  9  4  1  0  0  0  0
 10  4  1  0  0  0  0
 11  5  1  0  0  0  0
 16  8  1  0  0  0  0
 18 19  1  0  0  0  0
 19 20  2  0  0  0  0
 19  1  1  0  0  0  0
 20 25  1  0  0  0  0
 21 20  1  0  0  0  0
 22 21  2  0  0  0  0
 23 22  1  0  0  0  0
 23 18  2  0  0  0  0
 24 18  1  0  0  0  0
 26 22  1  0  0  0  0
 27 29  1  0  0  0  0
 28 27  1  0  0  0  0
 30 35  1  0  0  0  0
 30 27  1  0  0  0  0
 31 30  1  0  0  0  0
 32 31  1  0  0  0  0
 32 33  1  0  0  0  0
 33 34  1  0  0  0  0
 35 34  1  0  0  0  0
M  END
>  <minimizedAffinity>
-4.87543344

$$$$

 OpenBabel03252502383D

 35 37  0  0  1  0  0  0  0  0999 V2000
   37.6440   29.5440   39.9130 C   0  0  1  0  0  0  0  0  0  0  0  0
   38.3120   29.0090   39.2110 H   0  0  0  0  0  0  0  0  0  0  0  0
   38.1410   30.9080   39.9630 N   0  0  0  0  0  0  0  0  0  0  0  0
   39.1600   31.1810   39.0280 C   0  0  0  0  0  0  0  0  0  0  0  0
   39.7840   32.5130   39.5190 C   0  0  0  0  0  0  0  0  0  0  0  0
   38.7920   33.4900   39.1890 N   0  0  0  0  0  0  0  0  0  0  0  0
   37.4900   33.2710   39.7230 C   0  0  0  0  0  0  0  0  0  0  0  0
   37.0970   31.8740   40.0450 C   0  0  0  0  0  0  0  0  0  0  0  0
   38.8420   31.3640   37.9830 H   0  0  0  0  0  0  0  0  0  0  0  0
   39.9570   30.4360   39.1280 H   0  0  0  0  0  0  0  0  0  0  0  0
   40.7000   32.7330   38.9770 H   0  0  0  0  0  0  0  0  0  0  0  0
   39.8630   32.4600   40.6080 H   0  0  0  0  0  0  0  0  0  0  0  0
   38.8000   33.7750   38.1870 H   0  0  0  0  0  0  0  0  0  0  0  0
   36.7660   33.7310   38.9870 H   0  0  0  0  0  0  0  0  0  0  0  0
   37.3990   33.9250   40.6200 H   0  0  0  0  0  0  0  0  0  0  0  0
   36.2830   31.5670   39.3570 H   0  0  0  0  0  0  0  0  0  0  0  0
   36.6460   31.8810   41.0720 H   0  0  0  0  0  0  0  0  0  0  0  0
   38.7300   28.9710   42.0520 C   0  0  0  0  0  0  0  0  0  0  0  0
   37.6090   28.8830   41.1930 C   0  0  0  0  0  0  0  0  0  0  0  0
   36.5420   28.1450   41.6560 C   0  0  0  0  0  0  0  0  0  0  0  0
   36.6280   27.5540   42.8920 N   0  0  0  0  0  0  0  0  0  0  0  0
   37.7150   27.6630   43.6800 C   0  0  0  0  0  0  0  0  0  0  0  0
   38.7970   28.3870   43.2550 N   0  0  0  0  0  0  0  0  0  0  0  0
   39.6220   29.5340   41.7690 H   0  0  0  0  0  0  0  0  0  0  0  0
   35.6640   28.0510   41.0340 H   0  0  0  0  0  0  0  0  0  0  0  0
   37.6830   27.1600   44.6330 H   0  0  0  0  0  0  0  0  0  0  0  0
   36.2090   29.5540   39.3560 C   0  0  0  0  0  0  0  0  0  0  0  0
   35.5810   29.0800   40.1310 H   0  0  0  0  0  0  0  0  0  0  0  0
   35.9590   30.6220   39.1580 H   0  0  0  0  0  0  0  0  0  0  0  0
   36.1540   28.7510   38.0670 C   0  0  0  0  0  3  0  0  0  0  0  0
   36.3280   29.7370   36.9270 C   0  0  0  0  0  2  0  0  0  0  0  0
   35.6550   29.2950   35.6570 C   0  0  0  0  0  2  0  0  0  0  0  0
   34.2040   28.9570   35.8210 C   0  0  0  0  0  2  0  0  0  0  0  0
   33.8510   29.0330   37.2850 C   0  0  0  0  0  2  0  0  0  0  0  0
   34.8050   28.0680   37.9980 C   0  0  0  0  0  2  0  0  0  0  0  0
  1  2  1  6  0  0  0
  1  3  1  0  0  0  0
  1 19  1  0  0  0  0
  3  8  1  0  0  0  0
  4 10  1  0  0  0  0
  4  5  1  0  0  0  0
  4  3  1  0  0  0  0
  5 12  1  0  0  0  0
  6  5  1  0  0  0  0
  6  7  1  0  0  0  0
  7  8  1  0  0  0  0
  7 15  1  0  0  0  0
  8 17  1  0  0  0  0
  9  4  1  0  0  0  0
 11  5  1  0  0  0  0
 13  6  1  0  0  0  0
 14  7  1  0  0  0  0
 16  8  1  0  0  0  0
 18 23  1  0  0  0  0
 19 20  1  0  0  0  0
 19 18  2  0  0  0  0
 20 21  2  0  0  0  0
 21 22  1  0  0  0  0
 22 26  1  0  0  0  0
 23 22  2  0  0  0  0
 24 18  1  0  0  0  0
 25 20  1  0  0  0  0
 27  1  1  0  0  0  0
 27 28  1  0  0  0  0
 29 27  1  0  0  0  0
 30 27  1  0  0  0  0
 31 30  1  0  0  0  0
 32 33  1  0  0  0  0
 32 31  1  0  0  0  0
 33 34  1  0  0  0  0
 34 35  1  0  0  0  0
 35 30  1  0  0  0  0
M  END
>  <minimizedAffinity>
-4.80295944

$$$$

 OpenBabel03252502383D

 35 37  0  0  1  0  0  0  0  0999 V2000
   37.5270   29.5610   40.0250 C   0  0  1  0  0  0  0  0  0  0  0  0
   37.9930   28.9980   39.1940 H   0  0  0  0  0  0  0  0  0  0  0  0
   38.1340   30.8810   39.9900 N   0  0  0  0  0  0  0  0  0  0  0  0
   38.9720   31.0970   38.8790 C   0  0  0  0  0  0  0  0  0  0  0  0
   39.7840   32.3640   39.2520 C   0  0  0  0  0  0  0  0  0  0  0  0
   38.8290   33.4230   39.1300 N   0  0  0  0  0  0  0  0  0  0  0  0
   37.6410   33.2930   39.9060 C   0  0  0  0  0  0  0  0  0  0  0  0
   37.2060   31.9220   40.2840 C   0  0  0  0  0  0  0  0  0  0  0  0
   38.4740   31.3320   37.9170 H   0  0  0  0  0  0  0  0  0  0  0  0
   39.7100   30.2910   38.8140 H   0  0  0  0  0  0  0  0  0  0  0  0
   40.5920   32.5270   38.5440 H   0  0  0  0  0  0  0  0  0  0  0  0
   40.0670   32.2790   40.3030 H   0  0  0  0  0  0  0  0  0  0  0  0
   38.6670   33.7320   38.1490 H   0  0  0  0  0  0  0  0  0  0  0  0
   36.8280   33.8250   39.3280 H   0  0  0  0  0  0  0  0  0  0  0  0
   37.7780   33.9290   40.8100 H   0  0  0  0  0  0  0  0  0  0  0  0
   36.2530   31.6960   39.7650 H   0  0  0  0  0  0  0  0  0  0  0  0
   36.9640   31.9380   41.3790 H   0  0  0  0  0  0  0  0  0  0  0  0
   36.6070   28.1680   41.8400 C   0  0  0  0  0  0  0  0  0  0  0  0
   37.7010   28.8660   41.2760 C   0  0  0  0  0  0  0  0  0  0  0  0
   38.8780   28.8340   41.9890 C   0  0  0  0  0  0  0  0  0  0  0  0
   38.9210   28.1430   43.1740 N   0  0  0  0  0  0  0  0  0  0  0  0
   37.8560   27.4890   43.6760 C   0  0  0  0  0  0  0  0  0  0  0  0
   36.6660   27.4980   42.9990 N   0  0  0  0  0  0  0  0  0  0  0  0
   35.6330   28.1380   41.3470 H   0  0  0  0  0  0  0  0  0  0  0  0
   39.7400   29.3530   41.5960 H   0  0  0  0  0  0  0  0  0  0  0  0
   37.9920   26.9770   44.6150 H   0  0  0  0  0  0  0  0  0  0  0  0
   36.0150   29.6980   39.7750 C   0  0  0  0  0  0  0  0  0  0  0  0
   35.5270   29.0240   40.5020 H   0  0  0  0  0  0  0  0  0  0  0  0
   35.7710   30.7760   39.9180 H   0  0  0  0  0  0  0  0  0  0  0  0
   35.6900   29.2680   38.3540 C   0  0  0  0  0  3  0  0  0  0  0  0
   34.2250   28.8750   38.3380 C   0  0  0  0  0  2  0  0  0  0  0  0
   33.9040   27.8380   37.2980 C   0  0  0  0  0  2  0  0  0  0  0  0
   34.7590   26.6100   37.3750 C   0  0  0  0  0  2  0  0  0  0  0  0
   35.8200   26.8240   38.4250 C   0  0  0  0  0  2  0  0  0  0  0  0
   36.5760   28.0900   38.0060 C   0  0  0  0  0  2  0  0  0  0  0  0
  1  2  1  6  0  0  0
  1 19  1  0  0  0  0
  3  1  1  0  0  0  0
  3  8  1  0  0  0  0
  4  5  1  0  0  0  0
  4  3  1  0  0  0  0
  5 12  1  0  0  0  0
  6  5  1  0  0  0  0
  6  7  1  0  0  0  0
  7  8  1  0  0  0  0
  7 15  1  0  0  0  0
  8 17  1  0  0  0  0
  9  4  1  0  0  0  0
 10  4  1  0  0  0  0
 11  5  1  0  0  0  0
 13  6  1  0  0  0  0
 14  7  1  0  0  0  0
 16  8  1  0  0  0  0
 18 23  1  0  0  0  0
 19 18  2  0  0  0  0
 19 20  1  0  0  0  0
 20 21  2  0  0  0  0
 21 22  1  0  0  0  0
 22 26  1  0  0  0  0
 23 22  2  0  0  0  0
 24 18  1  0  0  0  0
 25 20  1  0  0  0  0
 27 29  1  0  0  0  0
 27  1  1  0  0  0  0
 27 28  1  0  0  0  0
 30 27  1  0  0  0  0
 31 30  1  0  0  0  0
 32 33  1  0  0  0  0
 32 31  1  0  0  0  0
 33 34  1  0  0  0  0
 35 30  1  0  0  0  0
 35 34  1  0  0  0  0
M  END
>  <minimizedAffinity>
-4.78959608

$$$$

 OpenBabel03252502383D

 35 37  0  0  1  0  0  0  0  0999 V2000
   36.3610   28.7710   39.5090 C   0  0  1  0  0  0  0  0  0  0  0  0
   35.8650   29.0060   40.4700 H   0  0  0  0  0  0  0  0  0  0  0  0
   37.1270   29.9570   39.1670 N   0  0  0  0  0  0  0  0  0  0  0  0
   37.4060   30.0820   37.7910 C   0  0  0  0  0  0  0  0  0  0  0  0
   38.5240   31.1540   37.7220 C   0  0  0  0  0  0  0  0  0  0  0  0
   37.8360   32.3760   38.0110 N   0  0  0  0  0  0  0  0  0  0  0  0
   37.1180   32.4190   39.2420 C   0  0  0  0  0  0  0  0  0  0  0  0
   36.6460   31.1310   39.8150 C   0  0  0  0  0  0  0  0  0  0  0  0
   36.5860   30.4610   37.1490 H   0  0  0  0  0  0  0  0  0  0  0  0
   37.8690   29.1590   37.4260 H   0  0  0  0  0  0  0  0  0  0  0  0
   38.9460   31.2080   36.7230 H   0  0  0  0  0  0  0  0  0  0  0  0
   39.2240   30.9560   38.5370 H   0  0  0  0  0  0  0  0  0  0  0  0
   37.3150   32.7680   37.1990 H   0  0  0  0  0  0  0  0  0  0  0  0
   36.2510   33.1250   39.0750 H   0  0  0  0  0  0  0  0  0  0  0  0
   37.7620   32.9640   39.9690 H   0  0  0  0  0  0  0  0  0  0  0  0
   35.5370   31.1150   39.7860 H   0  0  0  0  0  0  0  0  0  0  0  0
   36.9250   31.1250   40.9010 H   0  0  0  0  0  0  0  0  0  0  0  0
   34.1410   29.0430   38.4700 C   0  0  0  0  0  0  0  0  0  0  0  0
   35.3930   28.3870   38.5120 C   0  0  0  0  0  0  0  0  0  0  0  0
   35.5960   27.3980   37.5760 C   0  0  0  0  0  0  0  0  0  0  0  0
   34.5960   27.1150   36.6790 N   0  0  0  0  0  0  0  0  0  0  0  0
   33.4160   27.7650   36.6730 C   0  0  0  0  0  0  0  0  0  0  0  0
   33.1750   28.7540   37.5880 N   0  0  0  0  0  0  0  0  0  0  0  0
   33.8900   29.8400   39.1740 H   0  0  0  0  0  0  0  0  0  0  0  0
   36.5380   26.8700   37.5700 H   0  0  0  0  0  0  0  0  0  0  0  0
   32.6960   27.4670   35.9270 H   0  0  0  0  0  0  0  0  0  0  0  0
   37.3260   27.5880   39.7000 C   0  0  0  0  0  0  0  0  0  0  0  0
   37.1280   26.8980   38.8590 H   0  0  0  0  0  0  0  0  0  0  0  0
   38.3540   28.0210   39.7010 H   0  0  0  0  0  0  0  0  0  0  0  0
   37.0410   26.9020   41.0250 C   0  0  0  0  0  3  0  0  0  0  0  0
   36.5600   27.9770   41.9820 C   0  0  0  0  0  2  0  0  0  0  0  0
   36.8730   27.6680   43.4200 C   0  0  0  0  0  2  0  0  0  0  0  0
   38.3180   27.3640   43.6800 C   0  0  0  0  0  2  0  0  0  0  0  0
   39.0480   27.3240   42.3620 C   0  0  0  0  0  2  0  0  0  0  0  0
   38.3270   26.2710   41.5130 C   0  0  0  0  0  2  0  0  0  0  0  0
  1 27  1  0  0  0  0
  1  2  1  1  0  0  0
  3  1  1  0  0  0  0
  3  8  1  0  0  0  0
  4  3  1  0  0  0  0
  5  4  1  0  0  0  0
  5  6  1  0  0  0  0
  5 12  1  0  0  0  0
  6  7  1  0  0  0  0
  7  8  1  0  0  0  0
  7 15  1  0  0  0  0
  8 17  1  0  0  0  0
  9  4  1  0  0  0  0
 10  4  1  0  0  0  0
 11  5  1  0  0  0  0
 13  6  1  0  0  0  0
 14  7  1  0  0  0  0
 16  8  1  0  0  0  0
 18 19  1  0  0  0  0
 18 24  1  0  0  0  0
 19  1  1  0  0  0  0
 20 19  2  0  0  0  0
 21 20  1  0  0  0  0
 22 21  2  0  0  0  0
 22 23  1  0  0  0  0
 23 18  2  0  0  0  0
 25 20  1  0  0  0  0
 26 22  1  0  0  0  0
 27 29  1  0  0  0  0
 27 30  1  0  0  0  0
 28 27  1  0  0  0  0
 30 35  1  0  0  0  0
 30 31  1  0  0  0  0
 31 32  1  0  0  0  0
 32 33  1  0  0  0  0
 34 33  1  0  0  0  0
 35 34  1  0  0  0  0
M  END
>  <minimizedAffinity>
-4.71271801

$$$$

 OpenBabel03252502383D

 35 37  0  0  1  0  0  0  0  0999 V2000
   39.1650   29.6760   39.7860 C   0  0  1  0  0  0  0  0  0  0  0  0
   38.2690   29.0580   39.5890 H   0  0  0  0  0  0  0  0  0  0  0  0
   38.7170   31.0540   39.6860 N   0  0  0  0  0  0  0  0  0  0  0  0
   37.3260   31.1940   39.5140 C   0  0  0  0  0  0  0  0  0  0  0  0
   37.1430   32.6620   39.0490 C   0  0  0  0  0  0  0  0  0  0  0  0
   37.3850   33.4230   40.2370 N   0  0  0  0  0  0  0  0  0  0  0  0
   38.6400   33.2100   40.8760 C   0  0  0  0  0  0  0  0  0  0  0  0
   39.3120   31.9000   40.6670 C   0  0  0  0  0  0  0  0  0  0  0  0
   36.6980   31.0850   40.4210 H   0  0  0  0  0  0  0  0  0  0  0  0
   36.9990   30.5810   38.6680 H   0  0  0  0  0  0  0  0  0  0  0  0
   36.1240   32.8360   38.7130 H   0  0  0  0  0  0  0  0  0  0  0  0
   37.9370   32.8840   38.3330 H   0  0  0  0  0  0  0  0  0  0  0  0
   36.5740   33.4560   40.8890 H   0  0  0  0  0  0  0  0  0  0  0  0
   38.4690   33.4000   41.9770 H   0  0  0  0  0  0  0  0  0  0  0  0
   39.3040   34.0490   40.5670 H   0  0  0  0  0  0  0  0  0  0  0  0
   39.3320   31.3530   41.6320 H   0  0  0  0  0  0  0  0  0  0  0  0
   40.3830   32.1100   40.4100 H   0  0  0  0  0  0  0  0  0  0  0  0
   41.5660   29.3190   39.3500 C   0  0  0  0  0  0  0  0  0  0  0  0
   40.2330   29.3360   38.8790 C   0  0  0  0  0  0  0  0  0  0  0  0
   40.0510   29.0260   37.5500 C   0  0  0  0  0  0  0  0  0  0  0  0
   41.1470   28.7250   36.7810 N   0  0  0  0  0  0  0  0  0  0  0  0
   42.4020   28.7190   37.2690 C   0  0  0  0  0  0  0  0  0  0  0  0
   42.6250   29.0230   38.5850 N   0  0  0  0  0  0  0  0  0  0  0  0
   41.8070   29.5520   40.3900 H   0  0  0  0  0  0  0  0  0  0  0  0
   39.0490   29.0260   37.1460 H   0  0  0  0  0  0  0  0  0  0  0  0
   43.1950   28.4690   36.5820 H   0  0  0  0  0  0  0  0  0  0  0  0
   39.6700   29.4150   41.2160 C   0  0  0  0  0  0  0  0  0  0  0  0
   40.7730   29.3990   41.1490 H   0  0  0  0  0  0  0  0  0  0  0  0
   39.2650   30.2410   41.8460 H   0  0  0  0  0  0  0  0  0  0  0  0
   39.1500   28.0740   41.7060 C   0  0  0  0  0  3  0  0  0  0  0  0
   37.7700   27.8910   41.1060 C   0  0  0  0  0  2  0  0  0  0  0  0
   36.8660   27.0390   41.9530 C   0  0  0  0  0  2  0  0  0  0  0  0
   36.7470   27.5000   43.3740 C   0  0  0  0  0  2  0  0  0  0  0  0
   37.6980   28.6480   43.5920 C   0  0  0  0  0  2  0  0  0  0  0  0
   39.0880   28.1190   43.2180 C   0  0  0  0  0  2  0  0  0  0  0  0
  1  2  1  6  0  0  0
  1 27  1  0  0  0  0
  3  1  1  0  0  0  0
  3  8  1  0  0  0  0
  4  3  1  0  0  0  0
  4  9  1  0  0  0  0
  5  4  1  0  0  0  0
  5  6  1  0  0  0  0
  6  7  1  0  0  0  0
  6 13  1  0  0  0  0
  7 14  1  0  0  0  0
  8  7  1  0  0  0  0
  8 16  1  0  0  0  0
 10  4  1  0  0  0  0
 11  5  1  0  0  0  0
 12  5  1  0  0  0  0
 15  7  1  0  0  0  0
 17  8  1  0  0  0  0
 18 24  1  0  0  0  0
 19 18  1  0  0  0  0
 19  1  1  0  0  0  0
 20 19  2  0  0  0  0
 21 22  2  0  0  0  0
 21 20  1  0  0  0  0
 22 23  1  0  0  0  0
 23 18  2  0  0  0  0
 25 20  1  0  0  0  0
 26 22  1  0  0  0  0
 27 30  1  0  0  0  0
 27 29  1  0  0  0  0
 28 27  1  0  0  0  0
 30 35  1  0  0  0  0
 31 30  1  0  0  0  0
 31 32  1  0  0  0  0
 32 33  1  0  0  0  0
 33 34  1  0  0  0  0
 35 34  1  0  0  0  0
M  END
>  <minimizedAffinity>
-4.71170521

$$$$

 OpenBabel03252502383D

 35 37  0  0  1  0  0  0  0  0999 V2000
   37.5360   30.0090   39.0560 C   0  0  1  0  0  0  0  0  0  0  0  0
   38.4650   29.4640   38.8020 H   0  0  0  0  0  0  0  0  0  0  0  0
   36.7120   29.9540   37.8610 N   0  0  0  0  0  0  0  0  0  0  0  0
   37.3760   29.4420   36.7290 C   0  0  0  0  0  0  0  0  0  0  0  0
   36.4660   29.8380   35.5380 C   0  0  0  0  0  0  0  0  0  0  0  0
   35.3460   28.9570   35.6640 N   0  0  0  0  0  0  0  0  0  0  0  0
   34.6540   28.9900   36.9090 C   0  0  0  0  0  0  0  0  0  0  0  0
   35.4110   29.4260   38.1120 C   0  0  0  0  0  0  0  0  0  0  0  0
   37.4860   28.3410   36.6710 H   0  0  0  0  0  0  0  0  0  0  0  0
   38.3100   29.9920   36.5740 H   0  0  0  0  0  0  0  0  0  0  0  0
   36.9660   29.6510   34.5920 H   0  0  0  0  0  0  0  0  0  0  0  0
   36.1190   30.8590   35.7120 H   0  0  0  0  0  0  0  0  0  0  0  0
   35.5220   27.9970   35.2990 H   0  0  0  0  0  0  0  0  0  0  0  0
   34.2270   27.9540   37.0590 H   0  0  0  0  0  0  0  0  0  0  0  0
   33.7520   29.6240   36.7570 H   0  0  0  0  0  0  0  0  0  0  0  0
   35.5120   28.5630   38.8010 H   0  0  0  0  0  0  0  0  0  0  0  0
   34.7780   30.1780   38.6520 H   0  0  0  0  0  0  0  0  0  0  0  0
   38.9270   31.5600   40.3760 C   0  0  0  0  0  0  0  0  0  0  0  0
   37.8330   31.3460   39.5060 C   0  0  0  0  0  0  0  0  0  0  0  0
   37.1090   32.4620   39.1500 C   0  0  0  0  0  0  0  0  0  0  0  0
   37.4840   33.6850   39.6480 N   0  0  0  0  0  0  0  0  0  0  0  0
   38.5350   33.8460   40.4750 C   0  0  0  0  0  0  0  0  0  0  0  0
   39.2790   32.7600   40.8540 N   0  0  0  0  0  0  0  0  0  0  0  0
   39.5580   30.7340   40.7130 H   0  0  0  0  0  0  0  0  0  0  0  0
   36.2640   32.3470   38.4870 H   0  0  0  0  0  0  0  0  0  0  0  0
   38.7460   34.8480   40.8110 H   0  0  0  0  0  0  0  0  0  0  0  0
   36.8070   29.2850   40.2020 C   0  0  0  0  0  0  0  0  0  0  0  0
   36.6920   30.0320   41.0070 H   0  0  0  0  0  0  0  0  0  0  0  0
   35.8430   28.9200   39.7770 H   0  0  0  0  0  0  0  0  0  0  0  0
   37.6470   28.1130   40.6840 C   0  0  0  0  0  3  0  0  0  0  0  0
   36.8760   26.8510   40.3470 C   0  0  0  0  0  2  0  0  0  0  0  0
   37.1660   25.7150   41.2880 C   0  0  0  0  0  2  0  0  0  0  0  0
   36.9780   26.0560   42.7350 C   0  0  0  0  0  2  0  0  0  0  0  0
   36.6670   27.5260   42.8490 C   0  0  0  0  0  2  0  0  0  0  0  0
   37.8360   28.2560   42.1790 C   0  0  0  0  0  2  0  0  0  0  0  0
  1  2  1  6  0  0  0
  1 19  1  0  0  0  0
  1 27  1  0  0  0  0
  3  8  1  0  0  0  0
  3  1  1  0  0  0  0
  4  3  1  0  0  0  0
  5  6  1  0  0  0  0
  5 12  1  0  0  0  0
  5  4  1  0  0  0  0
  6  7  1  0  0  0  0
  7 14  1  0  0  0  0
  7  8  1  0  0  0  0
  8 17  1  0  0  0  0
  8 16  1  0  0  0  0
  9  4  1  0  0  0  0
 10  4  1  0  0  0  0
 11  5  1  0  0  0  0
 13  6  1  0  0  0  0
 15  7  1  0  0  0  0
 18 24  1  0  0  0  0
 18 23  1  0  0  0  0
 19 18  2  0  0  0  0
 20 19  1  0  0  0  0
 20 21  2  0  0  0  0
 21 22  1  0  0  0  0
 22 26  1  0  0  0  0
 22 23  2  0  0  0  0
 25 20  1  0  0  0  0
 27 30  1  0  0  0  0
 27 28  1  0  0  0  0
 29 27  1  0  0  0  0
 30 35  1  0  0  0  0
 31 30  1  0  0  0  0
 31 32  1  0  0  0  0
 32 33  1  0  0  0  0
 33 34  1  0  0  0  0
 35 34  1  0  0  0  0
M  END
>  <minimizedAffinity>
-4.67375326

$$$$

 OpenBabel03252502383D

 35 37  0  0  1  0  0  0  0  0999 V2000
   38.6770   29.9850   40.4600 C   0  0  1  0  0  0  0  0  0  0  0  0
   39.2680   29.6020   39.6070 H   0  0  0  0  0  0  0  0  0  0  0  0
   39.2930   31.2500   40.8240 N   0  0  0  0  0  0  0  0  0  0  0  0
   40.5280   31.4890   40.1900 C   0  0  0  0  0  0  0  0  0  0  0  0
   41.1570   32.6510   41.0010 C   0  0  0  0  0  0  0  0  0  0  0  0
   40.3830   33.7900   40.6120 N   0  0  0  0  0  0  0  0  0  0  0  0
   38.9760   33.6920   40.8080 C   0  0  0  0  0  0  0  0  0  0  0  0
   38.3690   32.3350   40.8200 C   0  0  0  0  0  0  0  0  0  0  0  0
   40.4890   31.8420   39.1400 H   0  0  0  0  0  0  0  0  0  0  0  0
   41.1930   30.6340   40.3490 H   0  0  0  0  0  0  0  0  0  0  0  0
   42.1930   32.8050   40.7140 H   0  0  0  0  0  0  0  0  0  0  0  0
   40.9690   32.4550   42.0600 H   0  0  0  0  0  0  0  0  0  0  0  0
   40.6600   34.1920   39.6920 H   0  0  0  0  0  0  0  0  0  0  0  0
   38.5010   34.3350   40.0080 H   0  0  0  0  0  0  0  0  0  0  0  0
   38.7450   34.2370   41.7510 H   0  0  0  0  0  0  0  0  0  0  0  0
   37.7140   32.2310   39.9320 H   0  0  0  0  0  0  0  0  0  0  0  0
   37.6910   32.2790   41.7110 H   0  0  0  0  0  0  0  0  0  0  0  0
   37.7810   29.2430   42.6350 C   0  0  0  0  0  0  0  0  0  0  0  0
   38.6360   29.0200   41.5310 C   0  0  0  0  0  0  0  0  0  0  0  0
   39.3920   27.8700   41.5660 C   0  0  0  0  0  0  0  0  0  0  0  0
   39.2730   27.0280   42.6440 N   0  0  0  0  0  0  0  0  0  0  0  0
   38.4440   27.2770   43.6770 C   0  0  0  0  0  0  0  0  0  0  0  0
   37.6770   28.4110   43.6800 N   0  0  0  0  0  0  0  0  0  0  0  0
   37.1450   30.1290   42.6950 H   0  0  0  0  0  0  0  0  0  0  0  0
   40.0590   27.6580   40.7430 H   0  0  0  0  0  0  0  0  0  0  0  0
   38.4240   26.5530   44.4750 H   0  0  0  0  0  0  0  0  0  0  0  0
   37.2280   30.2440   40.0130 C   0  0  0  0  0  0  0  0  0  0  0  0
   36.6040   30.1030   40.9140 H   0  0  0  0  0  0  0  0  0  0  0  0
   37.2080   31.2810   39.6030 H   0  0  0  0  0  0  0  0  0  0  0  0
   36.8370   29.2440   38.9370 C   0  0  0  0  0  3  0  0  0  0  0  0
   36.3690   30.0470   37.7390 C   0  0  0  0  0  2  0  0  0  0  0  0
   35.3580   29.3180   36.8980 C   0  0  0  0  0  2  0  0  0  0  0  0
   34.1740   28.8130   37.6670 C   0  0  0  0  0  2  0  0  0  0  0  0
   34.4030   29.0750   39.1340 C   0  0  0  0  0  2  0  0  0  0  0  0
   35.7230   28.3780   39.4850 C   0  0  0  0  0  2  0  0  0  0  0  0
  1  2  1  6  0  0  0
  1  3  1  0  0  0  0
  1 19  1  0  0  0  0
  4 10  1  0  0  0  0
  4  3  1  0  0  0  0
  4  5  1  0  0  0  0
  5 12  1  0  0  0  0
  6  7  1  0  0  0  0
  6  5  1  0  0  0  0
  7  8  1  0  0  0  0
  7 15  1  0  0  0  0
  8  3  1  0  0  0  0
  8 17  1  0  0  0  0
  9  4  1  0  0  0  0
 11  5  1  0  0  0  0
 13  6  1  0  0  0  0
 14  7  1  0  0  0  0
 16  8  1  0  0  0  0
 18 24  1  0  0  0  0
 18 23  1  0  0  0  0
 19 20  1  0  0  0  0
 19 18  2  0  0  0  0
 20 21  2  0  0  0  0
 21 22  1  0  0  0  0
 22 23  2  0  0  0  0
 22 26  1  0  0  0  0
 25 20  1  0  0  0  0
 27  1  1  0  0  0  0
 27 28  1  0  0  0  0
 29 27  1  0  0  0  0
 30 35  1  0  0  0  0
 30 27  1  0  0  0  0
 31 30  1  0  0  0  0
 32 33  1  0  0  0  0
 32 31  1  0  0  0  0
 33 34  1  0  0  0  0
 34 35  1  0  0  0  0
M  END
>  <minimizedAffinity>
-4.6655159

$$$$
