
 OpenBabel03252502283D

 32 34  0  0  0  0  0  0  0  0999 V2000
   45.2130   34.3720   41.0680 C   0  0  0  0  0  0  0  0  0  0  0  0
   45.6440   35.0320   42.2120 C   0  0  0  0  0  0  0  0  0  0  0  0
   47.0060   35.2610   42.3720 C   0  0  0  0  0  0  0  0  0  0  0  0
   47.8870   34.8380   41.4110 C   0  0  0  0  0  0  0  0  0  0  0  0
   47.4800   34.1850   40.2720 C   0  0  0  0  0  0  0  0  0  0  0  0
   46.1070   33.9630   40.1290 C   0  0  0  0  0  0  0  0  0  0  0  0
   44.9560   35.3690   42.9760 H   0  0  0  0  0  0  0  0  0  0  0  0
   47.4330   35.7640   43.2250 H   0  0  0  0  0  0  0  0  0  0  0  0
   48.9480   34.9910   41.4870 H   0  0  0  0  0  0  0  0  0  0  0  0
   48.0660   33.8110   39.4600 H   0  0  0  0  0  0  0  0  0  0  0  0
   41.5010   34.7930   40.5340 C   0  0  0  0  0  0  0  0  0  0  0  0
   42.8670   35.1200   40.5970 C   0  0  0  0  0  0  0  0  0  0  0  0
   43.7830   34.1660   40.9640 C   0  0  0  0  0  0  0  0  0  0  0  0
   43.2860   32.9340   41.2480 N   0  0  0  0  0  0  0  0  0  0  0  0
   41.9770   32.6170   41.1890 C   0  0  0  0  0  0  0  0  0  0  0  0
   41.0780   33.5500   40.8300 N   0  0  0  0  0  0  0  0  0  0  0  0
   43.2330   36.1120   40.3630 H   0  0  0  0  0  0  0  0  0  0  0  0
   41.6330   31.6290   41.4230 H   0  0  0  0  0  0  0  0  0  0  0  0
   40.5130   35.8230   40.1380 C   0  0  0  0  0  0  0  0  0  0  0  0
   39.2850   35.1710   39.9470 F   0  0  0  0  0  0  0  0  0  0  0  0
   40.8770   36.2640   38.8700 F   0  0  0  0  0  0  0  0  0  0  0  0
   40.3860   36.8380   41.0420 F   0  0  0  0  0  0  0  0  0  0  0  0
   45.9220   33.1860   37.6540 C   0  0  0  0  0  0  0  0  0  0  0  0
   46.9120   33.6640   37.1160 O   0  0  0  0  0  0  0  0  0  0  0  0
   45.5530   33.3100   39.0090 N   0  0  0  0  0  0  0  0  0  0  0  0
   44.6650   32.8350   39.3610 H   0  0  0  0  0  0  0  0  0  0  0  0
   45.0100   32.3840   36.7690 C   0  0  0  0  0  0  0  0  0  0  0  0
   45.6540   32.2850   35.4110 C   0  0  0  0  0  0  0  0  0  0  0  0
   45.4960   30.8930   34.7930 C   0  0  0  0  0  0  0  0  0  0  0  0
   46.1980   29.8660   35.6570 C   0  0  0  0  0  0  0  0  0  0  0  0
   46.2130   30.2880   37.1050 C   0  0  0  0  0  0  0  0  0  0  0  0
   44.9080   31.0030   37.3990 C   0  0  0  0  0  0  0  0  0  0  0  0
  1  2  1  0  0  0  0
  2  3  2  0  0  0  0
  2  7  1  0  0  0  0
  3  8  1  0  0  0  0
  4  9  1  0  0  0  0
  4  3  1  0  0  0  0
  5  4  2  0  0  0  0
  6  5  1  0  0  0  0
  6  1  2  0  0  0  0
 10  5  1  0  0  0  0
 11 12  2  0  0  0  0
 11 16  1  0  0  0  0
 12 13  1  0  0  0  0
 13  1  1  0  0  0  0
 13 14  2  0  0  0  0
 15 14  1  0  0  0  0
 15 18  1  0  0  0  0
 16 15  2  0  0  0  0
 17 12  1  0  0  0  0
 19 11  1  0  0  0  0
 19 22  1  0  0  0  0
 20 19  1  0  0  0  0
 21 19  1  0  0  0  0
 23 25  1  0  0  0  0
 24 23  2  0  0  0  0
 25 26  1  0  0  0  0
 25  6  1  0  0  0  0
 27 32  1  0  0  0  0
 27 23  1  0  0  0  0
 28 27  1  0  0  0  0
 29 28  1  0  0  0  0
 29 30  1  0  0  0  0
 30 31  1  0  0  0  0
 31 32  1  0  0  0  0
M  END
>  <minimizedAffinity>
-6.04961824

>  <minimizedRMSD>
0.891695321

$$$$
