
 OpenBabel03242512343D

 17 18  0  0  0  0  0  0  0  0999 V2000
   46.4490   34.9300   43.0880 C   0  0  0  0  0  0  0  0  0  0  0  0
   45.5320   36.0010   43.1680 C   0  0  0  0  0  0  0  0  0  0  0  0
   44.6710   35.9990   44.2590 C   0  0  0  0  0  0  0  0  0  0  0  0
   44.7450   35.0000   45.1740 N   0  0  0  0  0  0  0  0  0  0  0  0
   45.6450   33.9930   45.0510 C   0  0  0  0  0  0  0  0  0  0  0  0
   46.4810   33.9660   44.0200 N   0  0  0  0  0  0  0  0  0  0  0  0
   45.4490   36.8010   42.4640 H   0  0  0  0  0  0  0  0  0  0  0  0
   43.9530   36.7990   44.3600 H   0  0  0  0  0  0  0  0  0  0  0  0
   45.6630   33.2200   45.8070 H   0  0  0  0  0  0  0  0  0  0  0  0
   47.3370   34.9310   41.9650 C   0  0  0  0  0  0  0  0  0  0  0  0
   48.2920   35.7360   41.7760 O   0  0  0  0  0  0  0  0  0  0  0  0
   47.1380   33.9010   40.9100 C   0  0  0  0  0  0  0  0  0  0  0  0
   48.2270   33.8880   39.8740 C   0  0  0  0  0  0  0  0  0  0  0  0
   47.7060   33.9310   38.4630 C   0  0  0  0  0  0  0  0  0  0  0  0
   46.5170   33.0850   38.1840 C   0  0  0  0  0  0  0  0  0  0  0  0
   45.7090   32.7190   39.3830 C   0  0  0  0  0  0  0  0  0  0  0  0
   45.7490   33.9200   40.3300 C   0  0  0  0  0  0  0  0  0  0  0  0
  1  2  2  0  0  0  0
  1  6  1  0  0  0  0
  2  3  1  0  0  0  0
  3  8  1  0  0  0  0
  3  4  2  0  0  0  0
  5  4  1  0  0  0  0
  5  9  1  0  0  0  0
  6  5  2  0  0  0  0
  7  2  1  0  0  0  0
 10  1  1  0  0  0  0
 11 10  2  0  0  0  0
 12 10  1  0  0  0  0
 13 12  1  0  0  0  0
 14 13  1  0  0  0  0
 15 14  1  0  0  0  0
 15 16  1  0  0  0  0
 16 17  1  0  0  0  0
 17 12  1  0  0  0  0
M  END
>  <minimizedAffinity>
-4.22249079

>  <minimizedRMSD>
0.802997172

$$$$
