
 OpenBabel03242515003D

 34 36  0  0  0  0  0  0  0  0999 V2000
   42.2130   34.7990   41.5070 C   0  0  0  0  0  0  0  0  0  0  0  0
   42.2710   34.9770   42.6060 H   0  0  0  0  0  0  0  0  0  0  0  0
   41.6940   33.8030   41.3910 H   0  0  0  0  0  0  0  0  0  0  0  0
   41.3740   35.8220   40.8120 C   0  0  0  0  0  0  0  0  0  0  0  0
   40.7230   36.2890   41.5890 H   0  0  0  0  0  0  0  0  0  0  0  0
   41.9520   36.6360   40.3480 H   0  0  0  0  0  0  0  0  0  0  0  0
   42.0780   36.0670   37.8610 Cl  0  0  0  0  0  0  0  0  0  0  0  0
   40.6860   35.2310   38.4590 C   0  0  0  0  0  0  0  0  0  0  0  0
   40.4490   35.1740   39.8510 C   0  0  0  0  0  0  0  0  0  0  0  0
   39.3280   34.4950   40.2370 C   0  0  0  0  0  0  0  0  0  0  0  0
   38.4060   33.8610   39.4190 C   0  0  0  0  0  0  0  0  0  0  0  0
   38.6560   33.9280   38.0580 C   0  0  0  0  0  0  0  0  0  0  0  0
   37.5490   33.1550   36.9260 Cl  0  0  0  0  0  0  0  0  0  0  0  0
   39.7730   34.6000   37.6030 C   0  0  0  0  0  0  0  0  0  0  0  0
   39.1190   34.4360   41.3100 H   0  0  0  0  0  0  0  0  0  0  0  0
   37.5480   33.3480   39.8250 H   0  0  0  0  0  0  0  0  0  0  0  0
   39.9610   34.6460   36.5320 H   0  0  0  0  0  0  0  0  0  0  0  0
   43.8670   34.6350   40.8100 S   0  0  0  0  0  0  0  0  0  0  0  0
   45.1280   34.4170   42.0730 C   0  0  0  0  0  0  0  0  0  0  0  0
   46.4570   34.4330   41.6380 C   0  0  0  0  0  0  0  0  0  0  0  0
   47.4710   34.2680   42.5830 C   0  0  0  0  0  0  0  0  0  0  0  0
   47.1050   34.1000   43.8800 N   0  0  0  0  0  0  0  0  0  0  0  0
   45.8230   34.0870   44.2830 C   0  0  0  0  0  0  0  0  0  0  0  0
   44.8580   34.2460   43.3700 N   0  0  0  0  0  0  0  0  0  0  0  0
   46.6780   34.5720   40.5890 H   0  0  0  0  0  0  0  0  0  0  0  0
   48.5000   34.2780   42.2650 H   0  0  0  0  0  0  0  0  0  0  0  0
   45.5390   33.9010   45.6910 C   0  0  0  0  0  0  0  0  0  0  0  0
   44.6680   34.6500   46.2040 O   0  0  0  0  0  0  0  0  0  0  0  0
   46.2360   32.8660   46.5340 C   0  0  0  0  0  3  0  0  0  0  0  0
   45.4470   32.7140   47.8180 C   0  0  0  0  0  2  0  0  0  0  0  0
   45.9170   31.5590   48.6380 C   0  0  0  0  0  2  0  0  0  0  0  0
   45.7840   30.2820   47.8750 C   0  0  0  0  0  2  0  0  0  0  0  0
   45.3680   30.5800   46.4500 C   0  0  0  0  0  2  0  0  0  0  0  0
   46.3770   31.5540   45.8310 C   0  0  0  0  0  2  0  0  0  0  0  0
  1  2  1  0  0  0  0
  3  1  1  0  0  0  0
  4  1  1  0  0  0  0
  4  5  1  0  0  0  0
  6  4  1  0  0  0  0
  7  8  1  0  0  0  0
  8  9  1  0  0  0  0
  9 10  2  0  0  0  0
  9  4  1  0  0  0  0
 10 15  1  0  0  0  0
 11 16  1  0  0  0  0
 11 10  1  0  0  0  0
 12 11  2  0  0  0  0
 13 12  1  0  0  0  0
 14 12  1  0  0  0  0
 14  8  2  0  0  0  0
 17 14  1  0  0  0  0
 18  1  1  0  0  0  0
 18 19  1  0  0  0  0
 19 24  1  0  0  0  0
 20 19  2  0  0  0  0
 20 21  1  0  0  0  0
 21 22  2  0  0  0  0
 22 23  1  0  0  0  0
 23 27  1  0  0  0  0
 24 23  2  0  0  0  0
 25 20  1  0  0  0  0
 26 21  1  0  0  0  0
 27 28  2  0  0  0  0
 27 29  1  0  0  0  0
 29 30  1  0  0  0  0
 30 31  1  0  0  0  0
 32 31  1  0  0  0  0
 33 32  1  0  0  0  0
 34 33  1  0  0  0  0
 34 29  1  0  0  0  0
M  END
>  <minimizedAffinity>
-6.83325291

>  <minimizedRMSD>
0.899103105

$$$$
