
 OpenBabel03252507043D

 44 47  0  0  0  0  0  0  0  0999 V2000
   41.9280   33.2150   39.6630 C   0  0  0  0  0  0  0  0  0  0  0  0
   42.5340   32.2870   39.3860 H   0  0  0  0  0  0  0  0  0  0  0  0
   42.2610   33.9620   38.9100 H   0  0  0  0  0  0  0  0  0  0  0  0
   40.6090   33.0200   39.6620 N   0  0  0  0  0  0  0  0  0  0  0  0
   39.6100   33.7350   40.3830 C   0  0  0  0  0  0  0  0  0  0  0  0
   39.0180   34.5400   39.2270 C   0  0  0  0  0  0  0  0  0  0  0  0
   38.4680   33.7270   38.1580 C   0  0  0  0  0  0  0  0  0  0  0  0
   38.9480   32.3740   37.9800 C   0  0  0  0  0  0  0  0  0  0  0  0
   40.1510   31.9220   38.7730 C   0  0  0  0  0  0  0  0  0  0  0  0
   40.1580   34.4820   41.0250 H   0  0  0  0  0  0  0  0  0  0  0  0
   38.8900   33.1910   40.9700 H   0  0  0  0  0  0  0  0  0  0  0  0
   38.2450   35.1950   39.6970 H   0  0  0  0  0  0  0  0  0  0  0  0
   39.8340   35.2440   38.9060 H   0  0  0  0  0  0  0  0  0  0  0  0
   37.3470   33.6580   38.2790 H   0  0  0  0  0  0  0  0  0  0  0  0
   38.5840   34.2660   37.1800 H   0  0  0  0  0  0  0  0  0  0  0  0
   38.5590   31.6470   37.3230 H   0  0  0  0  0  0  0  0  0  0  0  0
   40.8690   30.3620   38.5930 S   0  0  0  0  0  0  0  0  0  0  0  0
   41.7270   29.9630   37.1030 C   0  0  0  0  0  3  0  0  0  0  0  0
   42.7820   30.9250   36.6510 C   0  0  0  0  0  2  0  0  0  0  0  0
   43.1810   30.5560   35.2330 C   0  0  0  0  0  2  0  0  0  0  0  0
   43.0390   29.0720   34.9580 C   0  0  0  0  0  2  0  0  0  0  0  0
   41.5960   28.6250   35.0720 C   0  0  0  0  0  2  0  0  0  0  0  0
   40.8350   29.6620   35.9090 C   0  0  0  0  0  2  0  0  0  0  0  0
   42.4660   33.6200   40.9900 C   0  0  0  0  0  0  0  0  0  0  0  0
   42.9380   34.6400   40.8800 H   0  0  0  0  0  0  0  0  0  0  0  0
   41.6690   33.6710   41.7540 H   0  0  0  0  0  0  0  0  0  0  0  0
   43.5290   32.6750   41.3680 C   0  0  0  0  0  0  0  0  0  0  0  0
   43.9520   31.7100   40.4850 C   0  0  0  0  0  0  0  0  0  0  0  0
   44.9450   30.8320   40.8890 C   0  0  0  0  0  0  0  0  0  0  0  0
   45.4570   30.9740   42.1520 N   0  0  0  0  0  0  0  0  0  0  0  0
   45.0240   31.9210   42.9770 C   0  0  0  0  0  0  0  0  0  0  0  0
   44.0660   32.7520   42.5640 N   0  0  0  0  0  0  0  0  0  0  0  0
   43.6950   31.4520   39.4710 H   0  0  0  0  0  0  0  0  0  0  0  0
   45.3990   30.0130   40.3360 H   0  0  0  0  0  0  0  0  0  0  0  0
   45.6530   32.0140   44.2940 C   0  0  0  0  0  0  0  0  0  0  0  0
   45.7580   33.2440   44.9370 C   0  0  0  0  0  0  0  0  0  0  0  0
   46.3610   33.3270   46.1730 C   0  0  0  0  0  0  0  0  0  0  0  0
   46.8180   32.1330   46.6650 C   0  0  0  0  0  0  0  0  0  0  0  0
   46.7410   30.8730   46.0660 C   0  0  0  0  0  0  0  0  0  0  0  0
   46.1310   30.8860   44.8530 N   0  0  0  0  0  0  0  0  0  0  0  0
   45.3730   34.1590   44.4890 H   0  0  0  0  0  0  0  0  0  0  0  0
   46.4900   34.2320   46.7480 H   0  0  0  0  0  0  0  0  0  0  0  0
   47.3070   32.1490   47.6470 H   0  0  0  0  0  0  0  0  0  0  0  0
   47.1290   30.0040   46.5340 H   0  0  0  0  0  0  0  0  0  0  0  0
  1 24  1  0  0  0  0
  2  1  1  0  0  0  0
  3  1  1  0  0  0  0
  4  1  1  0  0  0  0
  4  5  1  0  0  0  0
  5 11  1  0  0  0  0
  5 10  1  0  0  0  0
  6 12  1  0  0  0  0
  6  5  1  0  0  0  0
  7 14  1  0  0  0  0
  7  6  1  0  0  0  0
  8  7  1  0  0  0  0
  8  9  2  0  0  0  0
  9  4  1  0  0  0  0
 13  6  1  0  0  0  0
 15  7  1  0  0  0  0
 16  8  1  0  0  0  0
 17  9  1  0  0  0  0
 18 17  1  0  0  0  0
 19 18  1  0  0  0  0
 20 19  1  0  0  0  0
 21 22  1  0  0  0  0
 21 20  1  0  0  0  0
 22 23  1  0  0  0  0
 23 18  1  0  0  0  0
 24 27  1  0  0  0  0
 24 26  1  0  0  0  0
 25 24  1  0  0  0  0
 27 32  1  0  0  0  0
 28 29  1  0  0  0  0
 28 27  2  0  0  0  0
 29 30  2  0  0  0  0
 30 31  1  0  0  0  0
 31 35  1  0  0  0  0
 32 31  2  0  0  0  0
 33 28  1  0  0  0  0
 34 29  1  0  0  0  0
 35 40  2  0  0  0  0
 35 36  1  0  0  0  0
 36 37  2  0  0  0  0
 37 38  1  0  0  0  0
 37 42  1  0  0  0  0
 38 43  1  0  0  0  0
 39 44  1  0  0  0  0
 39 38  2  0  0  0  0
 40 39  1  0  0  0  0
 41 36  1  0  0  0  0
M  END
>  <minimizedAffinity>
-4.52165461

>  <minimizedRMSD>
5.05407429

$$$$
