
 OpenBabel03242519493D

 47 50  0  0  1  0  0  0  0  0999 V2000
   45.4610   27.6000   47.3620 C   0  0  0  0  0  0  0  0  0  0  0  0
   45.6800   27.2110   48.3160 H   0  0  0  0  0  0  0  0  0  0  0  0
   44.3640   28.0940   47.7010 H   0  0  0  0  0  0  0  0  0  0  0  0
   44.9770   26.7330   46.2050 C   0  0  0  0  0  0  0  0  0  0  0  0
   45.3020   25.6850   46.4380 H   0  0  0  0  0  0  0  0  0  0  0  0
   45.4200   27.0070   45.2580 H   0  0  0  0  0  0  0  0  0  0  0  0
   42.9300   27.8660   45.5510 C   0  0  0  0  0  0  0  0  0  0  0  0
   43.5130   26.7460   46.1640 C   0  0  0  0  0  0  0  0  0  0  0  0
   42.6030   25.8390   46.6560 C   0  0  0  0  0  0  0  0  0  0  0  0
   41.2480   25.9660   46.5830 C   0  0  0  0  0  0  0  0  0  0  0  0
   40.6940   27.0800   45.9740 C   0  0  0  0  0  0  0  0  0  0  0  0
   41.5650   28.0540   45.4450 C   0  0  0  0  0  0  0  0  0  0  0  0
   43.0960   24.9830   47.1250 H   0  0  0  0  0  0  0  0  0  0  0  0
   40.6700   25.1600   47.0210 H   0  0  0  0  0  0  0  0  0  0  0  0
   39.6160   27.1410   45.9380 H   0  0  0  0  0  0  0  0  0  0  0  0
   43.5910   28.9280   44.9700 O   0  0  0  0  0  0  0  0  0  0  0  0
   43.9930   28.8130   44.0430 H   0  0  0  0  0  0  0  0  0  0  0  0
   40.9150   29.0810   44.8820 O   0  0  0  0  0  0  0  0  0  0  0  0
   40.1870   29.3170   43.7600 C   0  0  0  0  0  3  0  0  0  0  0  0
   40.7740   30.5990   43.1270 C   0  0  0  0  0  2  0  0  0  0  0  0
   39.8990   30.9800   41.9690 C   0  0  0  0  0  2  0  0  0  0  0  0
   39.8870   29.8760   40.9350 C   0  0  0  0  0  2  0  0  0  0  0  0
   39.6050   28.5300   41.5140 C   0  0  0  0  0  2  0  0  0  0  0  0
   40.4960   28.2400   42.6970 C   0  0  0  0  0  2  0  0  0  0  0  0
   46.0660   28.7280   46.9700 O   0  0  0  0  0  0  0  0  0  0  0  0
   46.0370   31.0070   47.6510 C   0  0  2  0  0  0  0  0  0  0  0  0
   47.0250   31.7410   46.8630 C   0  0  1  0  0  0  0  0  0  0  0  0
   47.7040   30.6670   46.0940 O   0  0  0  0  0  0  0  0  0  0  0  0
   48.0690   29.8830   47.1860 C   0  0  0  0  0  0  0  0  0  0  0  0
   46.5870   29.6310   47.8070 C   0  0  2  0  0  0  0  0  0  0  0  0
   45.7620   31.4800   48.6120 H   0  0  0  0  0  0  0  0  0  0  0  0
   47.8580   32.1120   47.5220 H   0  0  0  0  0  0  0  0  0  0  0  0
   48.6320   30.4450   47.9390 H   0  0  0  0  0  0  0  0  0  0  0  0
   48.4610   28.9050   46.9070 H   0  0  0  0  0  0  0  0  0  0  0  0
   46.9780   29.3010   48.7850 H   0  0  0  0  0  0  0  0  0  0  0  0
   45.0550   34.5490   45.6320 C   0  0  0  0  0  0  0  0  0  0  0  0
   45.4940   34.7160   44.3230 C   0  0  0  0  0  0  0  0  0  0  0  0
   46.4850   33.8440   43.8300 C   0  0  0  0  0  0  0  0  0  0  0  0
   46.9720   32.8810   44.6420 N   0  0  0  0  0  0  0  0  0  0  0  0
   46.5310   32.7330   45.9120 C   0  0  0  0  0  0  0  0  0  0  0  0
   45.5700   33.5640   46.4190 N   0  0  0  0  0  0  0  0  0  0  0  0
   45.0410   35.5220   43.7480 H   0  0  0  0  0  0  0  0  0  0  0  0
   46.8070   33.9890   42.8260 H   0  0  0  0  0  0  0  0  0  0  0  0
   44.0770   35.3840   46.1700 O   0  0  0  0  0  0  0  0  0  0  0  0
   43.1760   35.5330   45.7620 H   0  0  0  0  0  0  0  0  0  0  0  0
   44.8190   30.8890   46.8560 O   0  0  0  0  0  0  0  0  0  0  0  0
   44.4350   29.9990   47.0820 H   0  0  0  0  0  0  0  0  0  0  0  0
  1  3  1  0  0  0  0
  1  2  1  0  0  0  0
  4  5  1  0  0  0  0
  4  1  1  0  0  0  0
  6  4  1  0  0  0  0
  7  8  1  0  0  0  0
  8  4  1  0  0  0  0
  8  9  2  0  0  0  0
  9 13  1  0  0  0  0
 10  9  1  0  0  0  0
 10 14  1  0  0  0  0
 11 10  2  0  0  0  0
 12  7  2  0  0  0  0
 12 11  1  0  0  0  0
 15 11  1  0  0  0  0
 16  7  1  0  0  0  0
 17 16  1  0  0  0  0
 18 12  1  0  0  0  0
 19 18  1  0  0  0  0
 20 19  1  0  0  0  0
 21 20  1  0  0  0  0
 22 23  1  0  0  0  0
 22 21  1  0  0  0  0
 23 24  1  0  0  0  0
 24 19  1  0  0  0  0
 25  1  1  0  0  0  0
 25 30  1  0  0  0  0
 26 30  1  0  0  0  0
 26 31  1  1  0  0  0
 27 32  1  1  0  0  0
 27 26  1  0  0  0  0
 28 27  1  0  0  0  0
 28 29  1  0  0  0  0
 29 30  1  0  0  0  0
 29 33  1  0  0  0  0
 30 35  1  1  0  0  0
 34 29  1  0  0  0  0
 36 44  1  0  0  0  0
 36 41  1  0  0  0  0
 37 36  2  0  0  0  0
 38 37  1  0  0  0  0
 38 39  2  0  0  0  0
 39 40  1  0  0  0  0
 40 41  2  0  0  0  0
 40 27  1  0  0  0  0
 42 37  1  0  0  0  0
 43 38  1  0  0  0  0
 45 44  1  0  0  0  0
 46 47  1  0  0  0  0
 46 26  1  0  0  0  0
M  END
>  <minimizedAffinity>
-6.09055233

>  <minimizedRMSD>
1.40377784

$$$$
