
 OpenBabel03242519493D

 47 50  0  0  1  0  0  0  0  0999 V2000
   45.2820   29.1130   47.4920 C   0  0  0  0  0  0  0  0  0  0  0  0
   45.5170   28.9440   48.5040 H   0  0  0  0  0  0  0  0  0  0  0  0
   44.0520   29.2260   47.6900 H   0  0  0  0  0  0  0  0  0  0  0  0
   45.2470   27.9970   46.4530 C   0  0  0  0  0  0  0  0  0  0  0  0
   45.6540   27.0820   46.9580 H   0  0  0  0  0  0  0  0  0  0  0  0
   45.8730   28.2000   45.5960 H   0  0  0  0  0  0  0  0  0  0  0  0
   43.2590   28.6510   45.2180 C   0  0  0  0  0  0  0  0  0  0  0  0
   43.8580   27.7190   46.0800 C   0  0  0  0  0  0  0  0  0  0  0  0
   43.0250   26.6930   46.4610 C   0  0  0  0  0  0  0  0  0  0  0  0
   41.7290   26.5450   46.0690 C   0  0  0  0  0  0  0  0  0  0  0  0
   41.1580   27.4770   45.2180 C   0  0  0  0  0  0  0  0  0  0  0  0
   41.9510   28.5580   44.7840 C   0  0  0  0  0  0  0  0  0  0  0  0
   43.5270   25.9890   47.1310 H   0  0  0  0  0  0  0  0  0  0  0  0
   41.2080   25.6780   46.4600 H   0  0  0  0  0  0  0  0  0  0  0  0
   40.1270   27.3230   44.9310 H   0  0  0  0  0  0  0  0  0  0  0  0
   43.8500   29.7740   44.6750 O   0  0  0  0  0  0  0  0  0  0  0  0
   44.4810   29.6670   43.8850 H   0  0  0  0  0  0  0  0  0  0  0  0
   41.2920   29.3910   43.9660 O   0  0  0  0  0  0  0  0  0  0  0  0
   41.4330   29.8870   42.7100 C   0  0  0  0  0  3  0  0  0  0  0  0
   40.6870   28.9110   41.7730 C   0  0  0  0  0  2  0  0  0  0  0  0
   40.9520   29.3410   40.3600 C   0  0  0  0  0  2  0  0  0  0  0  0
   40.4320   30.7430   40.1320 C   0  0  0  0  0  2  0  0  0  0  0  0
   40.8800   31.7130   41.1750 C   0  0  0  0  0  2  0  0  0  0  0  0
   40.6180   31.1910   42.5640 C   0  0  0  0  0  2  0  0  0  0  0  0
   45.5040   30.3250   46.9700 O   0  0  0  0  0  0  0  0  0  0  0  0
   46.5830   32.4270   46.6940 C   0  0  2  0  0  0  0  0  0  0  0  0
   47.1140   32.5030   45.3340 C   0  0  1  0  0  0  0  0  0  0  0  0
   46.8550   31.1420   44.7980 O   0  0  0  0  0  0  0  0  0  0  0  0
   47.5090   30.4370   45.8050 C   0  0  0  0  0  0  0  0  0  0  0  0
   46.6590   30.9880   47.0770 C   0  0  2  0  0  0  0  0  0  0  0  0
   47.0710   33.1000   47.4240 H   0  0  0  0  0  0  0  0  0  0  0  0
   48.2390   32.5320   45.3510 H   0  0  0  0  0  0  0  0  0  0  0  0
   48.5420   30.7700   45.9500 H   0  0  0  0  0  0  0  0  0  0  0  0
   47.3420   29.3610   45.7610 H   0  0  0  0  0  0  0  0  0  0  0  0
   47.4100   30.6530   47.8120 H   0  0  0  0  0  0  0  0  0  0  0  0
   44.8400   35.1230   44.2200 C   0  0  0  0  0  0  0  0  0  0  0  0
   45.2480   35.3870   42.9160 C   0  0  0  0  0  0  0  0  0  0  0  0
   46.3240   34.6470   42.3860 C   0  0  0  0  0  0  0  0  0  0  0  0
   46.9190   33.7130   43.1590 N   0  0  0  0  0  0  0  0  0  0  0  0
   46.5070   33.4710   44.4250 C   0  0  0  0  0  0  0  0  0  0  0  0
   45.4660   34.1720   44.9660 N   0  0  0  0  0  0  0  0  0  0  0  0
   44.7060   36.1590   42.3740 H   0  0  0  0  0  0  0  0  0  0  0  0
   46.6200   34.8640   41.3880 H   0  0  0  0  0  0  0  0  0  0  0  0
   43.7820   35.8260   44.7930 O   0  0  0  0  0  0  0  0  0  0  0  0
   42.8660   35.8920   44.3950 H   0  0  0  0  0  0  0  0  0  0  0  0
   45.1680   32.7790   46.6500 O   0  0  0  0  0  0  0  0  0  0  0  0
   44.7270   32.2100   47.3360 H   0  0  0  0  0  0  0  0  0  0  0  0
  1  3  1  0  0  0  0
  1  2  1  0  0  0  0
  4  5  1  0  0  0  0
  4  1  1  0  0  0  0
  6  4  1  0  0  0  0
  7  8  1  0  0  0  0
  8  4  1  0  0  0  0
  8  9  2  0  0  0  0
  9 13  1  0  0  0  0
 10 14  1  0  0  0  0
 10  9  1  0  0  0  0
 11 10  2  0  0  0  0
 12  7  2  0  0  0  0
 12 11  1  0  0  0  0
 15 11  1  0  0  0  0
 16  7  1  0  0  0  0
 17 16  1  0  0  0  0
 18 12  1  0  0  0  0
 19 18  1  0  0  0  0
 20 19  1  0  0  0  0
 21 20  1  0  0  0  0
 22 21  1  0  0  0  0
 22 23  1  0  0  0  0
 23 24  1  0  0  0  0
 24 19  1  0  0  0  0
 25 30  1  0  0  0  0
 25  1  1  0  0  0  0
 26 30  1  0  0  0  0
 26 31  1  1  0  0  0
 27 32  1  1  0  0  0
 27 26  1  0  0  0  0
 28 27  1  0  0  0  0
 28 29  1  0  0  0  0
 29 33  1  0  0  0  0
 29 30  1  0  0  0  0
 30 35  1  1  0  0  0
 34 29  1  0  0  0  0
 36 44  1  0  0  0  0
 36 41  1  0  0  0  0
 37 36  2  0  0  0  0
 38 37  1  0  0  0  0
 38 39  2  0  0  0  0
 39 40  1  0  0  0  0
 40 41  2  0  0  0  0
 40 27  1  0  0  0  0
 42 37  1  0  0  0  0
 43 38  1  0  0  0  0
 45 44  1  0  0  0  0
 46 26  1  0  0  0  0
 46 47  1  0  0  0  0
M  END
>  <minimizedAffinity>
-5.81639099

>  <minimizedRMSD>
1.34810984

$$$$
