
 OpenBabel03252502293D

 32 34  0  0  0  0  0  0  0  0999 V2000
   36.2910   29.6160   37.4150 C   0  0  0  0  0  0  0  0  0  0  0  0
   36.1660   29.7370   36.0360 C   0  0  0  0  0  0  0  0  0  0  0  0
   35.1170   29.0770   35.4050 C   0  0  0  0  0  0  0  0  0  0  0  0
   34.2390   28.3270   36.1450 C   0  0  0  0  0  0  0  0  0  0  0  0
   34.3470   28.1960   37.5090 C   0  0  0  0  0  0  0  0  0  0  0  0
   35.4060   28.8680   38.1260 C   0  0  0  0  0  0  0  0  0  0  0  0
   36.8540   30.3260   35.4450 H   0  0  0  0  0  0  0  0  0  0  0  0
   34.9400   29.1130   34.3420 H   0  0  0  0  0  0  0  0  0  0  0  0
   33.4130   27.7990   35.7040 H   0  0  0  0  0  0  0  0  0  0  0  0
   33.7290   27.6460   38.1870 H   0  0  0  0  0  0  0  0  0  0  0  0
   38.4780   32.1320   39.1830 C   0  0  0  0  0  0  0  0  0  0  0  0
   37.3210   31.5410   38.6470 C   0  0  0  0  0  0  0  0  0  0  0  0
   37.4030   30.3290   38.0080 C   0  0  0  0  0  0  0  0  0  0  0  0
   38.6400   29.7700   37.9390 N   0  0  0  0  0  0  0  0  0  0  0  0
   39.7520   30.3340   38.4520 C   0  0  0  0  0  0  0  0  0  0  0  0
   39.6730   31.5220   39.0780 N   0  0  0  0  0  0  0  0  0  0  0  0
   36.3470   32.0120   38.7190 H   0  0  0  0  0  0  0  0  0  0  0  0
   40.7070   29.8520   38.3720 H   0  0  0  0  0  0  0  0  0  0  0  0
   38.3880   33.4400   39.8730 C   0  0  0  0  0  0  0  0  0  0  0  0
   39.5490   34.1600   39.5530 F   0  0  0  0  0  0  0  0  0  0  0  0
   38.4970   33.1850   41.2360 F   0  0  0  0  0  0  0  0  0  0  0  0
   37.2700   34.1550   39.5490 F   0  0  0  0  0  0  0  0  0  0  0  0
   36.2250   27.8910   40.3930 C   0  0  0  0  0  0  0  0  0  0  0  0
   36.7300   26.8180   40.0910 O   0  0  0  0  0  0  0  0  0  0  0  0
   35.6310   28.8230   39.5170 N   0  0  0  0  0  0  0  0  0  0  0  0
   35.2310   29.7330   39.9040 H   0  0  0  0  0  0  0  0  0  0  0  0
   36.2430   28.2450   41.8530 C   0  0  0  0  0  3  0  0  0  0  0  0
   37.0250   27.1790   42.5750 C   0  0  0  0  0  2  0  0  0  0  0  0
   37.9350   27.7600   43.6610 C   0  0  0  0  0  2  0  0  0  0  0  0
   38.9680   28.6700   43.0290 C   0  0  0  0  0  2  0  0  0  0  0  0
   38.4410   29.3020   41.7650 C   0  0  0  0  0  2  0  0  0  0  0  0
   36.9630   29.5810   41.9610 C   0  0  0  0  0  2  0  0  0  0  0  0
  1 13  1  0  0  0  0
  1  6  1  0  0  0  0
  2  1  2  0  0  0  0
  3  2  1  0  0  0  0
  3  4  2  0  0  0  0
  4  5  1  0  0  0  0
  5  6  2  0  0  0  0
  5 10  1  0  0  0  0
  6 25  1  0  0  0  0
  7  2  1  0  0  0  0
  8  3  1  0  0  0  0
  9  4  1  0  0  0  0
 11 19  1  0  0  0  0
 12 17  1  0  0  0  0
 12 11  2  0  0  0  0
 13 12  1  0  0  0  0
 14 13  2  0  0  0  0
 14 15  1  0  0  0  0
 15 16  2  0  0  0  0
 16 11  1  0  0  0  0
 18 15  1  0  0  0  0
 19 21  1  0  0  0  0
 20 19  1  0  0  0  0
 22 19  1  0  0  0  0
 23 27  1  0  0  0  0
 24 23  2  0  0  0  0
 25 26  1  0  0  0  0
 25 23  1  0  0  0  0
 27 32  1  0  0  0  0
 27 28  1  0  0  0  0
 28 29  1  0  0  0  0
 30 29  1  0  0  0  0
 31 32  1  0  0  0  0
 31 30  1  0  0  0  0
M  END
>  <minimizedAffinity>
-6.0852437

$$$$

 OpenBabel03252502293D

 32 34  0  0  0  0  0  0  0  0999 V2000
   35.8440   27.3770   38.8260 C   0  0  0  0  0  0  0  0  0  0  0  0
   35.2130   27.1400   37.6110 C   0  0  0  0  0  0  0  0  0  0  0  0
   34.1300   27.9370   37.2600 C   0  0  0  0  0  0  0  0  0  0  0  0
   33.7080   28.9280   38.1080 C   0  0  0  0  0  0  0  0  0  0  0  0
   34.3190   29.1780   39.3130 C   0  0  0  0  0  0  0  0  0  0  0  0
   35.4070   28.3670   39.6500 C   0  0  0  0  0  0  0  0  0  0  0  0
   35.5390   26.3600   36.9360 H   0  0  0  0  0  0  0  0  0  0  0  0
   33.5800   27.8280   36.3390 H   0  0  0  0  0  0  0  0  0  0  0  0
   32.8770   29.5710   37.8820 H   0  0  0  0  0  0  0  0  0  0  0  0
   34.0840   29.9150   40.0520 H   0  0  0  0  0  0  0  0  0  0  0  0
   38.1750   24.8410   40.3680 C   0  0  0  0  0  0  0  0  0  0  0  0
   37.0250   25.6280   40.1790 C   0  0  0  0  0  0  0  0  0  0  0  0
   36.9650   26.5120   39.1300 C   0  0  0  0  0  0  0  0  0  0  0  0
   38.0570   26.5610   38.3240 N   0  0  0  0  0  0  0  0  0  0  0  0
   39.1610   25.8080   38.5030 C   0  0  0  0  0  0  0  0  0  0  0  0
   39.2220   24.9420   39.5300 N   0  0  0  0  0  0  0  0  0  0  0  0
   36.1690   25.5660   40.8400 H   0  0  0  0  0  0  0  0  0  0  0  0
   39.9990   25.8830   37.8370 H   0  0  0  0  0  0  0  0  0  0  0  0
   38.2390   23.8880   41.5010 C   0  0  0  0  0  0  0  0  0  0  0  0
   37.9940   22.6070   40.9830 F   0  0  0  0  0  0  0  0  0  0  0  0
   37.1420   24.1540   42.3130 F   0  0  0  0  0  0  0  0  0  0  0  0
   39.4260   23.9190   42.1760 F   0  0  0  0  0  0  0  0  0  0  0  0
   36.7780   29.5950   41.4870 C   0  0  0  0  0  0  0  0  0  0  0  0
   36.8490   30.7490   41.0860 O   0  0  0  0  0  0  0  0  0  0  0  0
   36.1280   28.5170   40.8520 N   0  0  0  0  0  0  0  0  0  0  0  0
   36.1280   27.5540   41.3110 H   0  0  0  0  0  0  0  0  0  0  0  0
   37.4570   29.3060   42.7960 C   0  0  0  0  0  3  0  0  0  0  0  0
   37.2750   27.8400   43.0950 C   0  0  0  0  0  2  0  0  0  0  0  0
   38.5410   27.2050   43.6800 C   0  0  0  0  0  2  0  0  0  0  0  0
   39.6650   27.2820   42.6680 C   0  0  0  0  0  2  0  0  0  0  0  0
   39.5100   28.4800   41.7650 C   0  0  0  0  0  2  0  0  0  0  0  0
   38.9320   29.6160   42.5900 C   0  0  0  0  0  2  0  0  0  0  0  0
  1 13  1  0  0  0  0
  1  6  1  0  0  0  0
  2  1  2  0  0  0  0
  3  2  1  0  0  0  0
  3  4  2  0  0  0  0
  4  5  1  0  0  0  0
  5  6  2  0  0  0  0
  5 10  1  0  0  0  0
  6 25  1  0  0  0  0
  7  2  1  0  0  0  0
  8  3  1  0  0  0  0
  9  4  1  0  0  0  0
 11 19  1  0  0  0  0
 12 11  1  0  0  0  0
 12 17  1  0  0  0  0
 13 12  2  0  0  0  0
 14 15  2  0  0  0  0
 14 13  1  0  0  0  0
 15 16  1  0  0  0  0
 16 11  2  0  0  0  0
 18 15  1  0  0  0  0
 19 22  1  0  0  0  0
 19 21  1  0  0  0  0
 20 19  1  0  0  0  0
 23 27  1  0  0  0  0
 24 23  2  0  0  0  0
 25 26  1  0  0  0  0
 25 23  1  0  0  0  0
 27 28  1  0  0  0  0
 28 29  1  0  0  0  0
 30 29  1  0  0  0  0
 31 32  1  0  0  0  0
 31 30  1  0  0  0  0
 32 27  1  0  0  0  0
M  END
>  <minimizedAffinity>
-5.89334488

$$$$

 OpenBabel03252502293D

 32 34  0  0  0  0  0  0  0  0999 V2000
   35.4480   27.9910   38.5620 C   0  0  0  0  0  0  0  0  0  0  0  0
   34.3510   28.1510   37.7230 C   0  0  0  0  0  0  0  0  0  0  0  0
   33.8700   27.0380   37.0430 C   0  0  0  0  0  0  0  0  0  0  0  0
   34.4780   25.8200   37.2080 C   0  0  0  0  0  0  0  0  0  0  0  0
   35.5620   25.6430   38.0330 C   0  0  0  0  0  0  0  0  0  0  0  0
   36.0330   26.7720   38.7090 C   0  0  0  0  0  0  0  0  0  0  0  0
   33.8660   29.1070   37.5870 H   0  0  0  0  0  0  0  0  0  0  0  0
   33.0260   27.0650   36.3720 H   0  0  0  0  0  0  0  0  0  0  0  0
   34.1430   24.9310   36.7050 H   0  0  0  0  0  0  0  0  0  0  0  0
   36.1160   24.7520   38.2420 H   0  0  0  0  0  0  0  0  0  0  0  0
   36.8570   31.3890   39.4040 C   0  0  0  0  0  0  0  0  0  0  0  0
   36.4580   30.2840   38.6310 C   0  0  0  0  0  0  0  0  0  0  0  0
   35.8980   29.1890   39.2400 C   0  0  0  0  0  0  0  0  0  0  0  0
   35.7650   29.2560   40.5900 N   0  0  0  0  0  0  0  0  0  0  0  0
   36.1460   30.3140   41.3340 C   0  0  0  0  0  0  0  0  0  0  0  0
   36.6950   31.3880   40.7390 N   0  0  0  0  0  0  0  0  0  0  0  0
   36.5780   30.2600   37.5540 H   0  0  0  0  0  0  0  0  0  0  0  0
   36.0190   30.3190   42.3990 H   0  0  0  0  0  0  0  0  0  0  0  0
   37.4610   32.5700   38.7460 C   0  0  0  0  0  0  0  0  0  0  0  0
   37.4100   32.3480   37.3610 F   0  0  0  0  0  0  0  0  0  0  0  0
   38.8180   32.5530   39.0540 F   0  0  0  0  0  0  0  0  0  0  0  0
   36.8530   33.7500   39.0700 F   0  0  0  0  0  0  0  0  0  0  0  0
   37.5340   25.8710   40.6320 C   0  0  0  0  0  0  0  0  0  0  0  0
   36.9490   24.8690   41.0230 O   0  0  0  0  0  0  0  0  0  0  0  0
   37.1330   26.7310   39.5900 N   0  0  0  0  0  0  0  0  0  0  0  0
   37.7390   27.5720   39.3350 H   0  0  0  0  0  0  0  0  0  0  0  0
   38.8120   26.2120   41.3440 C   0  0  0  0  0  3  0  0  0  0  0  0
   39.1940   27.6170   40.9580 C   0  0  0  0  0  2  0  0  0  0  0  0
   39.7320   28.4210   42.1450 C   0  0  0  0  0  2  0  0  0  0  0  0
   38.6530   28.5630   43.1970 C   0  0  0  0  0  2  0  0  0  0  0  0
   37.7030   27.3920   43.1700 C   0  0  0  0  0  2  0  0  0  0  0  0
   38.5030   26.1470   42.8320 C   0  0  0  0  0  2  0  0  0  0  0  0
  1  6  1  0  0  0  0
  1 13  1  0  0  0  0
  2  1  2  0  0  0  0
  3  4  2  0  0  0  0
  3  2  1  0  0  0  0
  4  5  1  0  0  0  0
  5 10  1  0  0  0  0
  5  6  2  0  0  0  0
  6 25  1  0  0  0  0
  7  2  1  0  0  0  0
  8  3  1  0  0  0  0
  9  4  1  0  0  0  0
 11 16  1  0  0  0  0
 12 13  1  0  0  0  0
 12 11  2  0  0  0  0
 13 14  2  0  0  0  0
 14 15  1  0  0  0  0
 15 18  1  0  0  0  0
 16 15  2  0  0  0  0
 17 12  1  0  0  0  0
 19 21  1  0  0  0  0
 19 22  1  0  0  0  0
 19 11  1  0  0  0  0
 20 19  1  0  0  0  0
 23 24  2  0  0  0  0
 23 27  1  0  0  0  0
 25 23  1  0  0  0  0
 26 25  1  0  0  0  0
 27 32  1  0  0  0  0
 28 27  1  0  0  0  0
 28 29  1  0  0  0  0
 29 30  1  0  0  0  0
 31 30  1  0  0  0  0
 32 31  1  0  0  0  0
M  END
>  <minimizedAffinity>
-5.88434601

$$$$

 OpenBabel03252502293D

 32 34  0  0  0  0  0  0  0  0999 V2000
   37.5960   27.9730   41.0180 C   0  0  0  0  0  0  0  0  0  0  0  0
   37.5710   26.6800   41.5290 C   0  0  0  0  0  0  0  0  0  0  0  0
   38.0490   26.4680   42.8170 C   0  0  0  0  0  0  0  0  0  0  0  0
   38.5300   27.5220   43.5500 C   0  0  0  0  0  0  0  0  0  0  0  0
   38.5620   28.8060   43.0620 C   0  0  0  0  0  0  0  0  0  0  0  0
   38.0770   29.0020   41.7660 C   0  0  0  0  0  0  0  0  0  0  0  0
   37.1940   25.8430   40.9570 H   0  0  0  0  0  0  0  0  0  0  0  0
   38.0690   25.5020   43.2960 H   0  0  0  0  0  0  0  0  0  0  0  0
   38.9090   27.4090   44.5490 H   0  0  0  0  0  0  0  0  0  0  0  0
   38.9090   29.7010   43.5340 H   0  0  0  0  0  0  0  0  0  0  0  0
   35.3920   28.4140   37.9870 C   0  0  0  0  0  0  0  0  0  0  0  0
   35.7620   28.2750   39.3360 C   0  0  0  0  0  0  0  0  0  0  0  0
   37.0840   28.1250   39.6720 C   0  0  0  0  0  0  0  0  0  0  0  0
   37.9680   28.1230   38.6400 N   0  0  0  0  0  0  0  0  0  0  0  0
   37.6170   28.2560   37.3450 C   0  0  0  0  0  0  0  0  0  0  0  0
   36.3220   28.4030   37.0150 N   0  0  0  0  0  0  0  0  0  0  0  0
   35.0320   28.2810   40.1370 H   0  0  0  0  0  0  0  0  0  0  0  0
   38.3540   28.2480   36.5660 H   0  0  0  0  0  0  0  0  0  0  0  0
   33.9640   28.5760   37.6260 C   0  0  0  0  0  0  0  0  0  0  0  0
   33.2910   29.0170   38.7750 F   0  0  0  0  0  0  0  0  0  0  0  0
   33.4610   27.3000   37.3920 F   0  0  0  0  0  0  0  0  0  0  0  0
   33.7560   29.4330   36.5830 F   0  0  0  0  0  0  0  0  0  0  0  0
   37.0390   31.2180   40.8860 C   0  0  0  0  0  0  0  0  0  0  0  0
   35.8550   31.1340   41.1880 O   0  0  0  0  0  0  0  0  0  0  0  0
   38.0470   30.2670   41.1450 N   0  0  0  0  0  0  0  0  0  0  0  0
   39.0500   30.4630   40.8380 H   0  0  0  0  0  0  0  0  0  0  0  0
   37.4500   32.4690   40.1640 C   0  0  0  0  0  3  0  0  0  0  0  0
   38.7540   32.9360   40.7570 C   0  0  0  0  0  2  0  0  0  0  0  0
   39.7290   33.4440   39.6910 C   0  0  0  0  0  2  0  0  0  0  0  0
   40.0880   32.3160   38.7470 C   0  0  0  0  0  2  0  0  0  0  0  0
   38.9640   31.3160   38.6360 C   0  0  0  0  0  2  0  0  0  0  0  0
   37.6520   32.0750   38.7090 C   0  0  0  0  0  2  0  0  0  0  0  0
  1  2  2  0  0  0  0
  1  6  1  0  0  0  0
  2  3  1  0  0  0  0
  3  8  1  0  0  0  0
  3  4  2  0  0  0  0
  4  9  1  0  0  0  0
  5 10  1  0  0  0  0
  5  4  1  0  0  0  0
  6  5  2  0  0  0  0
  7  2  1  0  0  0  0
 11 12  1  0  0  0  0
 12 13  2  0  0  0  0
 12 17  1  0  0  0  0
 13  1  1  0  0  0  0
 14 13  1  0  0  0  0
 15 14  2  0  0  0  0
 16 15  1  0  0  0  0
 16 11  2  0  0  0  0
 18 15  1  0  0  0  0
 19 11  1  0  0  0  0
 19 20  1  0  0  0  0
 21 19  1  0  0  0  0
 22 19  1  0  0  0  0
 23 25  1  0  0  0  0
 23 24  2  0  0  0  0
 25  6  1  0  0  0  0
 26 25  1  0  0  0  0
 27 28  1  0  0  0  0
 27 23  1  0  0  0  0
 29 28  1  0  0  0  0
 30 29  1  0  0  0  0
 31 32  1  0  0  0  0
 31 30  1  0  0  0  0
 32 27  1  0  0  0  0
M  END
>  <minimizedAffinity>
-5.85184193

$$$$

 OpenBabel03252502293D

 32 34  0  0  0  0  0  0  0  0999 V2000
   37.0060   26.7620   39.3030 C   0  0  0  0  0  0  0  0  0  0  0  0
   36.3550   26.3080   38.1620 C   0  0  0  0  0  0  0  0  0  0  0  0
   35.7980   25.0340   38.1780 C   0  0  0  0  0  0  0  0  0  0  0  0
   35.9030   24.2580   39.3030 C   0  0  0  0  0  0  0  0  0  0  0  0
   36.5430   24.6890   40.4410 C   0  0  0  0  0  0  0  0  0  0  0  0
   37.0960   25.9720   40.4060 C   0  0  0  0  0  0  0  0  0  0  0  0
   36.2670   26.9140   37.2700 H   0  0  0  0  0  0  0  0  0  0  0  0
   35.2750   24.5990   37.3420 H   0  0  0  0  0  0  0  0  0  0  0  0
   35.4900   23.2680   39.3660 H   0  0  0  0  0  0  0  0  0  0  0  0
   36.6870   24.1800   41.3700 H   0  0  0  0  0  0  0  0  0  0  0  0
   37.6510   30.4660   39.6230 C   0  0  0  0  0  0  0  0  0  0  0  0
   37.0110   29.2230   39.7760 C   0  0  0  0  0  0  0  0  0  0  0  0
   37.5620   28.0960   39.2190 C   0  0  0  0  0  0  0  0  0  0  0  0
   38.7250   28.2710   38.5380 N   0  0  0  0  0  0  0  0  0  0  0  0
   39.3400   29.4610   38.3890 C   0  0  0  0  0  0  0  0  0  0  0  0
   38.8020   30.5660   38.9340 N   0  0  0  0  0  0  0  0  0  0  0  0
   36.0840   29.1160   40.3260 H   0  0  0  0  0  0  0  0  0  0  0  0
   40.2580   29.5470   37.8410 H   0  0  0  0  0  0  0  0  0  0  0  0
   37.0550   31.6820   40.2250 C   0  0  0  0  0  0  0  0  0  0  0  0
   38.0240   32.2470   41.0670 F   0  0  0  0  0  0  0  0  0  0  0  0
   36.0490   31.2540   41.0840 F   0  0  0  0  0  0  0  0  0  0  0  0
   36.6220   32.5930   39.3040 F   0  0  0  0  0  0  0  0  0  0  0  0
   37.3720   27.2110   42.6760 C   0  0  0  0  0  0  0  0  0  0  0  0
   36.2240   27.4550   43.0250 O   0  0  0  0  0  0  0  0  0  0  0  0
   37.7750   26.5400   41.5030 N   0  0  0  0  0  0  0  0  0  0  0  0
   38.8130   26.3780   41.3170 H   0  0  0  0  0  0  0  0  0  0  0  0
   38.4590   27.6780   43.6020 C   0  0  0  0  0  3  0  0  0  0  0  0
   39.4970   26.5890   43.6800 C   0  0  0  0  0  2  0  0  0  0  0  0
   40.9240   27.1460   43.6760 C   0  0  0  0  0  2  0  0  0  0  0  0
   41.1860   27.8720   42.3740 C   0  0  0  0  0  2  0  0  0  0  0  0
   39.9160   28.4560   41.8070 C   0  0  0  0  0  2  0  0  0  0  0  0
   39.0560   28.9230   42.9670 C   0  0  0  0  0  2  0  0  0  0  0  0
  1  6  1  0  0  0  0
  2  3  1  0  0  0  0
  2  1  2  0  0  0  0
  3  4  2  0  0  0  0
  4  9  1  0  0  0  0
  4  5  1  0  0  0  0
  5 10  1  0  0  0  0
  6  5  2  0  0  0  0
  6 25  1  0  0  0  0
  7  2  1  0  0  0  0
  8  3  1  0  0  0  0
 11 12  1  0  0  0  0
 11 19  1  0  0  0  0
 12 17  1  0  0  0  0
 13  1  1  0  0  0  0
 13 12  2  0  0  0  0
 14 13  1  0  0  0  0
 15 14  2  0  0  0  0
 15 16  1  0  0  0  0
 16 11  2  0  0  0  0
 18 15  1  0  0  0  0
 19 20  1  0  0  0  0
 19 21  1  0  0  0  0
 22 19  1  0  0  0  0
 23 24  2  0  0  0  0
 23 27  1  0  0  0  0
 25 23  1  0  0  0  0
 26 25  1  0  0  0  0
 27 28  1  0  0  0  0
 29 28  1  0  0  0  0
 30 29  1  0  0  0  0
 31 30  1  0  0  0  0
 31 32  1  0  0  0  0
 32 27  1  0  0  0  0
M  END
>  <minimizedAffinity>
-5.85017586

$$$$

 OpenBabel03252502293D

 32 34  0  0  0  0  0  0  0  0999 V2000
   37.7930   31.4510   39.4650 C   0  0  0  0  0  0  0  0  0  0  0  0
   37.5100   32.7620   39.1020 C   0  0  0  0  0  0  0  0  0  0  0  0
   38.0680   33.7920   39.8500 C   0  0  0  0  0  0  0  0  0  0  0  0
   38.8750   33.5000   40.9190 C   0  0  0  0  0  0  0  0  0  0  0  0
   39.1660   32.2110   41.2940 C   0  0  0  0  0  0  0  0  0  0  0  0
   38.5970   31.1880   40.5290 C   0  0  0  0  0  0  0  0  0  0  0  0
   36.8740   33.0020   38.2600 H   0  0  0  0  0  0  0  0  0  0  0  0
   37.9050   34.8380   39.6440 H   0  0  0  0  0  0  0  0  0  0  0  0
   39.3290   34.2610   41.5280 H   0  0  0  0  0  0  0  0  0  0  0  0
   39.7760   31.8610   42.0990 H   0  0  0  0  0  0  0  0  0  0  0  0
   35.3840   29.0480   37.8330 C   0  0  0  0  0  0  0  0  0  0  0  0
   35.8580   30.0610   38.6850 C   0  0  0  0  0  0  0  0  0  0  0  0
   37.1810   30.4270   38.6440 C   0  0  0  0  0  0  0  0  0  0  0  0
   37.9610   29.7600   37.7540 N   0  0  0  0  0  0  0  0  0  0  0  0
   37.5100   28.7870   36.9360 C   0  0  0  0  0  0  0  0  0  0  0  0
   36.2140   28.4280   36.9740 N   0  0  0  0  0  0  0  0  0  0  0  0
   35.2110   30.5750   39.3850 H   0  0  0  0  0  0  0  0  0  0  0  0
   38.1660   28.2910   36.2490 H   0  0  0  0  0  0  0  0  0  0  0  0
   33.9570   28.6540   37.8770 C   0  0  0  0  0  0  0  0  0  0  0  0
   33.2750   29.4510   36.9450 F   0  0  0  0  0  0  0  0  0  0  0  0
   33.4650   29.0600   39.1130 F   0  0  0  0  0  0  0  0  0  0  0  0
   33.7460   27.3270   37.6270 F   0  0  0  0  0  0  0  0  0  0  0  0
   38.3160   28.9080   41.7500 C   0  0  0  0  0  0  0  0  0  0  0  0
   37.4910   29.1380   42.6250 O   0  0  0  0  0  0  0  0  0  0  0  0
   38.8170   29.8210   40.7990 N   0  0  0  0  0  0  0  0  0  0  0  0
   39.5300   29.4950   40.0770 H   0  0  0  0  0  0  0  0  0  0  0  0
   38.8450   27.5040   41.6900 C   0  0  0  0  0  3  0  0  0  0  0  0
   38.0230   26.6610   42.6300 C   0  0  0  0  0  2  0  0  0  0  0  0
   37.7070   25.2800   42.0480 C   0  0  0  0  0  2  0  0  0  0  0  0
   36.8700   25.4330   40.7950 C   0  0  0  0  0  2  0  0  0  0  0  0
   37.1650   26.7360   40.0950 C   0  0  0  0  0  2  0  0  0  0  0  0
   38.6450   27.0310   40.2580 C   0  0  0  0  0  2  0  0  0  0  0  0
  1  6  1  0  0  0  0
  2  1  2  0  0  0  0
  2  3  1  0  0  0  0
  3  4  2  0  0  0  0
  4  5  1  0  0  0  0
  4  9  1  0  0  0  0
  5 10  1  0  0  0  0
  6 25  1  0  0  0  0
  6  5  2  0  0  0  0
  7  2  1  0  0  0  0
  8  3  1  0  0  0  0
 11 19  1  0  0  0  0
 11 12  1  0  0  0  0
 12 17  1  0  0  0  0
 13 12  2  0  0  0  0
 13  1  1  0  0  0  0
 14 13  1  0  0  0  0
 15 16  1  0  0  0  0
 15 14  2  0  0  0  0
 16 11  2  0  0  0  0
 18 15  1  0  0  0  0
 19 21  1  0  0  0  0
 20 19  1  0  0  0  0
 22 19  1  0  0  0  0
 23 24  2  0  0  0  0
 25 23  1  0  0  0  0
 26 25  1  0  0  0  0
 27 23  1  0  0  0  0
 27 28  1  0  0  0  0
 29 28  1  0  0  0  0
 30 29  1  0  0  0  0
 31 32  1  0  0  0  0
 31 30  1  0  0  0  0
 32 27  1  0  0  0  0
M  END
>  <minimizedAffinity>
-5.71614838

$$$$

 OpenBabel03252502293D

 32 34  0  0  0  0  0  0  0  0999 V2000
   36.9240   26.7660   41.0180 C   0  0  0  0  0  0  0  0  0  0  0  0
   37.2560   26.1120   42.1990 C   0  0  0  0  0  0  0  0  0  0  0  0
   37.1950   24.7230   42.2270 C   0  0  0  0  0  0  0  0  0  0  0  0
   36.8120   24.0340   41.1050 C   0  0  0  0  0  0  0  0  0  0  0  0
   36.4800   24.6630   39.9290 C   0  0  0  0  0  0  0  0  0  0  0  0
   36.5480   26.0590   39.9200 C   0  0  0  0  0  0  0  0  0  0  0  0
   37.5590   26.6470   43.0880 H   0  0  0  0  0  0  0  0  0  0  0  0
   37.4340   24.1310   43.0950 H   0  0  0  0  0  0  0  0  0  0  0  0
   36.7500   22.9610   41.0760 H   0  0  0  0  0  0  0  0  0  0  0  0
   36.1700   24.2370   38.9980 H   0  0  0  0  0  0  0  0  0  0  0  0
   38.0940   30.3390   41.3430 C   0  0  0  0  0  0  0  0  0  0  0  0
   38.1410   28.9340   41.3360 C   0  0  0  0  0  0  0  0  0  0  0  0
   37.0080   28.2110   41.0570 C   0  0  0  0  0  0  0  0  0  0  0  0
   35.8860   28.9310   40.7990 N   0  0  0  0  0  0  0  0  0  0  0  0
   35.8360   30.2790   40.8050 C   0  0  0  0  0  0  0  0  0  0  0  0
   36.9450   30.9880   41.0780 N   0  0  0  0  0  0  0  0  0  0  0  0
   39.0530   28.3870   41.5460 H   0  0  0  0  0  0  0  0  0  0  0  0
   34.9240   30.8020   40.5940 H   0  0  0  0  0  0  0  0  0  0  0  0
   39.3170   31.1180   41.6440 C   0  0  0  0  0  0  0  0  0  0  0  0
   39.5720   30.9800   43.0170 F   0  0  0  0  0  0  0  0  0  0  0  0
   38.9900   32.4600   41.4810 F   0  0  0  0  0  0  0  0  0  0  0  0
   40.4040   30.7380   40.9090 F   0  0  0  0  0  0  0  0  0  0  0  0
   35.3900   26.6540   37.6680 C   0  0  0  0  0  0  0  0  0  0  0  0
   34.6600   25.6980   37.4450 O   0  0  0  0  0  0  0  0  0  0  0  0
   36.2390   26.8300   38.7800 N   0  0  0  0  0  0  0  0  0  0  0  0
   36.8220   27.7190   38.8650 H   0  0  0  0  0  0  0  0  0  0  0  0
   35.3720   27.7530   36.6440 C   0  0  0  0  0  3  0  0  0  0  0  0
   34.3040   27.4250   35.6340 C   0  0  0  0  0  2  0  0  0  0  0  0
   33.5060   28.6610   35.2090 C   0  0  0  0  0  2  0  0  0  0  0  0
   32.7780   29.2360   36.4050 C   0  0  0  0  0  2  0  0  0  0  0  0
   33.5230   28.9560   37.6870 C   0  0  0  0  0  2  0  0  0  0  0  0
   35.0090   29.0280   37.3900 C   0  0  0  0  0  2  0  0  0  0  0  0
  1 13  1  0  0  0  0
  1  2  1  0  0  0  0
  2  3  2  0  0  0  0
  2  7  1  0  0  0  0
  3  8  1  0  0  0  0
  4  3  1  0  0  0  0
  5  4  2  0  0  0  0
  6  5  1  0  0  0  0
  6  1  2  0  0  0  0
  9  4  1  0  0  0  0
 10  5  1  0  0  0  0
 11 19  1  0  0  0  0
 12 11  1  0  0  0  0
 12 17  1  0  0  0  0
 13 12  2  0  0  0  0
 14 15  2  0  0  0  0
 14 13  1  0  0  0  0
 15 16  1  0  0  0  0
 16 11  2  0  0  0  0
 18 15  1  0  0  0  0
 19 20  1  0  0  0  0
 21 19  1  0  0  0  0
 22 19  1  0  0  0  0
 23 25  1  0  0  0  0
 24 23  2  0  0  0  0
 25 26  1  0  0  0  0
 25  6  1  0  0  0  0
 27 32  1  0  0  0  0
 27 23  1  0  0  0  0
 28 27  1  0  0  0  0
 29 28  1  0  0  0  0
 29 30  1  0  0  0  0
 30 31  1  0  0  0  0
 32 31  1  0  0  0  0
M  END
>  <minimizedAffinity>
-5.70226479

$$$$

 OpenBabel03252502293D

 32 34  0  0  0  0  0  0  0  0999 V2000
   37.8980   27.5400   38.0250 C   0  0  0  0  0  0  0  0  0  0  0  0
   38.0570   27.2310   36.6790 C   0  0  0  0  0  0  0  0  0  0  0  0
   37.5280   28.1010   35.7320 C   0  0  0  0  0  0  0  0  0  0  0  0
   36.8680   29.2310   36.1380 C   0  0  0  0  0  0  0  0  0  0  0  0
   36.7010   29.5540   37.4630 C   0  0  0  0  0  0  0  0  0  0  0  0
   37.2400   28.6680   38.4010 C   0  0  0  0  0  0  0  0  0  0  0  0
   38.5770   26.3410   36.3500 H   0  0  0  0  0  0  0  0  0  0  0  0
   37.6020   27.9440   34.6680 H   0  0  0  0  0  0  0  0  0  0  0  0
   36.4420   29.9340   35.4450 H   0  0  0  0  0  0  0  0  0  0  0  0
   36.2100   30.3990   37.8980 H   0  0  0  0  0  0  0  0  0  0  0  0
   38.4400   24.9290   40.6960 C   0  0  0  0  0  0  0  0  0  0  0  0
   37.7630   25.8140   39.8380 C   0  0  0  0  0  0  0  0  0  0  0  0
   38.4730   26.5930   38.9580 C   0  0  0  0  0  0  0  0  0  0  0  0
   39.8230   26.4460   38.9810 N   0  0  0  0  0  0  0  0  0  0  0  0
   40.4750   25.5990   39.8030 C   0  0  0  0  0  0  0  0  0  0  0  0
   39.7820   24.8350   40.6650 N   0  0  0  0  0  0  0  0  0  0  0  0
   36.6830   25.9080   39.8420 H   0  0  0  0  0  0  0  0  0  0  0  0
   41.5450   25.5190   39.7830 H   0  0  0  0  0  0  0  0  0  0  0  0
   37.6730   24.0890   41.6450 C   0  0  0  0  0  0  0  0  0  0  0  0
   38.4460   23.9660   42.8100 F   0  0  0  0  0  0  0  0  0  0  0  0
   37.6380   22.8060   41.1090 F   0  0  0  0  0  0  0  0  0  0  0  0
   36.4330   24.5830   41.9360 F   0  0  0  0  0  0  0  0  0  0  0  0
   37.7570   29.7670   40.7000 C   0  0  0  0  0  0  0  0  0  0  0  0
   38.5770   30.6370   40.4380 O   0  0  0  0  0  0  0  0  0  0  0  0
   37.1450   28.8790   39.7920 N   0  0  0  0  0  0  0  0  0  0  0  0
   36.4340   28.1670   40.1450 H   0  0  0  0  0  0  0  0  0  0  0  0
   37.3670   29.6390   42.1460 C   0  0  0  0  0  3  0  0  0  0  0  0
   36.6220   28.3390   42.3080 C   0  0  0  0  0  2  0  0  0  0  0  0
   37.0060   27.6070   43.5980 C   0  0  0  0  0  2  0  0  0  0  0  0
   38.4740   27.2380   43.5590 C   0  0  0  0  0  2  0  0  0  0  0  0
   39.2640   28.2190   42.7290 C   0  0  0  0  0  2  0  0  0  0  0  0
   38.6650   29.5980   42.9370 C   0  0  0  0  0  2  0  0  0  0  0  0
  1  6  1  0  0  0  0
  1 13  1  0  0  0  0
  2  1  2  0  0  0  0
  3  4  2  0  0  0  0
  3  2  1  0  0  0  0
  4  5  1  0  0  0  0
  5 10  1  0  0  0  0
  5  6  2  0  0  0  0
  6 25  1  0  0  0  0
  7  2  1  0  0  0  0
  8  3  1  0  0  0  0
  9  4  1  0  0  0  0
 11 19  1  0  0  0  0
 12 17  1  0  0  0  0
 12 11  2  0  0  0  0
 13 14  2  0  0  0  0
 13 12  1  0  0  0  0
 14 15  1  0  0  0  0
 15 16  2  0  0  0  0
 16 11  1  0  0  0  0
 18 15  1  0  0  0  0
 19 22  1  0  0  0  0
 19 20  1  0  0  0  0
 21 19  1  0  0  0  0
 23 27  1  0  0  0  0
 24 23  2  0  0  0  0
 25 26  1  0  0  0  0
 25 23  1  0  0  0  0
 27 28  1  0  0  0  0
 27 32  1  0  0  0  0
 28 29  1  0  0  0  0
 30 29  1  0  0  0  0
 31 32  1  0  0  0  0
 31 30  1  0  0  0  0
M  END
>  <minimizedAffinity>
-5.689116

$$$$

 OpenBabel03252502293D

 32 34  0  0  0  0  0  0  0  0999 V2000
   37.6010   29.9660   39.1140 C   0  0  0  0  0  0  0  0  0  0  0  0
   37.6410   30.7730   37.9830 C   0  0  0  0  0  0  0  0  0  0  0  0
   37.4220   32.1370   38.1340 C   0  0  0  0  0  0  0  0  0  0  0  0
   37.1730   32.6550   39.3790 C   0  0  0  0  0  0  0  0  0  0  0  0
   37.1290   31.8740   40.5090 C   0  0  0  0  0  0  0  0  0  0  0  0
   37.3520   30.5040   40.3380 C   0  0  0  0  0  0  0  0  0  0  0  0
   37.8370   30.3720   36.9980 H   0  0  0  0  0  0  0  0  0  0  0  0
   37.4340   32.8390   37.3160 H   0  0  0  0  0  0  0  0  0  0  0  0
   36.9970   33.7020   39.5470 H   0  0  0  0  0  0  0  0  0  0  0  0
   36.9460   32.1600   41.5230 H   0  0  0  0  0  0  0  0  0  0  0  0
   37.2230   26.2530   38.5570 C   0  0  0  0  0  0  0  0  0  0  0  0
   36.8640   27.5940   38.7780 C   0  0  0  0  0  0  0  0  0  0  0  0
   37.8370   28.5550   38.8870 C   0  0  0  0  0  0  0  0  0  0  0  0
   39.1210   28.1260   38.7690 N   0  0  0  0  0  0  0  0  0  0  0  0
   39.4690   26.8400   38.5580 C   0  0  0  0  0  0  0  0  0  0  0  0
   38.5170   25.8970   38.4500 N   0  0  0  0  0  0  0  0  0  0  0  0
   35.8300   27.9060   38.8680 H   0  0  0  0  0  0  0  0  0  0  0  0
   40.4980   26.5510   38.4710 H   0  0  0  0  0  0  0  0  0  0  0  0
   36.1720   25.2160   38.4400 C   0  0  0  0  0  0  0  0  0  0  0  0
   35.0110   25.8500   37.9730 F   0  0  0  0  0  0  0  0  0  0  0  0
   35.8570   24.8140   39.7330 F   0  0  0  0  0  0  0  0  0  0  0  0
   36.5170   24.1750   37.6240 F   0  0  0  0  0  0  0  0  0  0  0  0
   38.1040   29.4360   42.5870 C   0  0  0  0  0  0  0  0  0  0  0  0
   39.0260   30.1470   42.9620 O   0  0  0  0  0  0  0  0  0  0  0  0
   37.3410   29.5900   41.4110 N   0  0  0  0  0  0  0  0  0  0  0  0
   36.5510   28.9050   41.1990 H   0  0  0  0  0  0  0  0  0  0  0  0
   37.7540   28.2790   43.4790 C   0  0  0  0  0  3  0  0  0  0  0  0
   36.6110   27.5340   42.8410 C   0  0  0  0  0  2  0  0  0  0  0  0
   36.7680   26.0150   42.9600 C   0  0  0  0  0  2  0  0  0  0  0  0
   38.0120   25.5710   42.2190 C   0  0  0  0  0  2  0  0  0  0  0  0
   39.0590   26.6560   42.2060 C   0  0  0  0  0  2  0  0  0  0  0  0
   38.9880   27.3910   43.5320 C   0  0  0  0  0  2  0  0  0  0  0  0
  1  6  1  0  0  0  0
  2  3  1  0  0  0  0
  2  1  2  0  0  0  0
  3  4  2  0  0  0  0
  4  9  1  0  0  0  0
  4  5  1  0  0  0  0
  5 10  1  0  0  0  0
  6  5  2  0  0  0  0
  6 25  1  0  0  0  0
  7  2  1  0  0  0  0
  8  3  1  0  0  0  0
 11 12  1  0  0  0  0
 12 17  1  0  0  0  0
 12 13  2  0  0  0  0
 13  1  1  0  0  0  0
 14 13  1  0  0  0  0
 15 14  2  0  0  0  0
 16 11  2  0  0  0  0
 16 15  1  0  0  0  0
 18 15  1  0  0  0  0
 19 11  1  0  0  0  0
 19 21  1  0  0  0  0
 20 19  1  0  0  0  0
 22 19  1  0  0  0  0
 23 24  2  0  0  0  0
 23 27  1  0  0  0  0
 25 23  1  0  0  0  0
 26 25  1  0  0  0  0
 27 32  1  0  0  0  0
 28 29  1  0  0  0  0
 28 27  1  0  0  0  0
 30 29  1  0  0  0  0
 31 30  1  0  0  0  0
 31 32  1  0  0  0  0
M  END
>  <minimizedAffinity>
-5.64557123

$$$$
