
 OpenBabel03252507163D

 26 28  0  0  0  0  0  0  0  0999 V2000
   45.6700   36.1660   43.0730 C   0  0  0  0  0  0  0  0  0  0  0  0
   46.1260   34.8250   43.0180 C   0  0  0  0  0  0  0  0  0  0  0  0
   45.7160   33.9910   44.0560 C   0  0  0  0  0  0  0  0  0  0  0  0
   44.9310   34.4660   45.0410 N   0  0  0  0  0  0  0  0  0  0  0  0
   44.5100   35.7720   45.0580 C   0  0  0  0  0  0  0  0  0  0  0  0
   44.8900   36.5810   44.0770 N   0  0  0  0  0  0  0  0  0  0  0  0
   45.9680   36.8620   42.2760 H   0  0  0  0  0  0  0  0  0  0  0  0
   43.8860   35.9970   45.9110 H   0  0  0  0  0  0  0  0  0  0  0  0
   46.1710   32.6040   44.0260 C   0  0  0  0  0  0  0  0  0  0  0  0
   45.3910   31.6380   43.4350 C   0  0  0  0  0  0  0  0  0  0  0  0
   45.8440   30.3380   43.4210 C   0  0  0  0  0  0  0  0  0  0  0  0
   47.0550   29.9470   43.9760 C   0  0  0  0  0  0  0  0  0  0  0  0
   47.7920   30.9740   44.5570 C   0  0  0  0  0  0  0  0  0  0  0  0
   47.3330   32.2340   44.5600 N   0  0  0  0  0  0  0  0  0  0  0  0
   44.4180   31.8660   42.9730 H   0  0  0  0  0  0  0  0  0  0  0  0
   45.2480   29.5400   42.9590 H   0  0  0  0  0  0  0  0  0  0  0  0
   47.4220   28.9340   43.9740 H   0  0  0  0  0  0  0  0  0  0  0  0
   48.7530   30.7690   45.0180 H   0  0  0  0  0  0  0  0  0  0  0  0
   46.9540   34.3810   41.9550 C   0  0  0  0  0  0  0  0  0  0  0  0
   48.1550   34.0960   42.2510 O   0  0  0  0  0  0  0  0  0  0  0  0
   46.7060   34.1650   40.4980 C   0  0  0  0  0  3  0  0  0  0  0  0
   46.0460   32.8280   40.3700 C   0  0  0  0  0  2  0  0  0  0  0  0
   46.1020   32.2320   38.9940 C   0  0  0  0  0  2  0  0  0  0  0  0
   47.4540   32.3100   38.3610 C   0  0  0  0  0  2  0  0  0  0  0  0
   48.4830   33.0130   39.1870 C   0  0  0  0  0  2  0  0  0  0  0  0
   47.9720   34.3230   39.7240 C   0  0  0  0  0  2  0  0  0  0  0  0
  1  6  1  0  0  0  0
  2  1  2  0  0  0  0
  2  3  1  0  0  0  0
  3  4  2  0  0  0  0
  4  5  1  0  0  0  0
  5  8  1  0  0  0  0
  6  5  2  0  0  0  0
  7  1  1  0  0  0  0
  9  3  1  0  0  0  0
  9 14  1  0  0  0  0
 10  9  2  0  0  0  0
 11 10  1  0  0  0  0
 11 12  2  0  0  0  0
 12 13  1  0  0  0  0
 13 14  2  0  0  0  0
 13 18  1  0  0  0  0
 15 10  1  0  0  0  0
 16 11  1  0  0  0  0
 17 12  1  0  0  0  0
 19 20  2  0  0  0  0
 19  2  1  0  0  0  0
 21 19  1  0  0  0  0
 22 21  1  0  0  0  0
 23 22  1  0  0  0  0
 24 23  1  0  0  0  0
 24 25  1  0  0  0  0
 25 26  1  0  0  0  0
 26 21  1  0  0  0  0
M  END
>  <minimizedAffinity>
-4.23644733

>  <minimizedRMSD>
0.814767122

$$$$
