
 OpenBabel03252507163D

 26 28  0  0  0  0  0  0  0  0999 V2000
   45.1640   36.0660   43.4830 C   0  0  0  0  0  0  0  0  0  0  0  0
   45.8800   34.9030   43.1060 C   0  0  0  0  0  0  0  0  0  0  0  0
   45.9520   33.8870   44.0570 C   0  0  0  0  0  0  0  0  0  0  0  0
   45.3620   34.0360   45.2580 N   0  0  0  0  0  0  0  0  0  0  0  0
   44.6770   35.1790   45.5850 C   0  0  0  0  0  0  0  0  0  0  0  0
   44.5970   36.1580   44.6910 N   0  0  0  0  0  0  0  0  0  0  0  0
   45.0800   36.8960   42.7660 H   0  0  0  0  0  0  0  0  0  0  0  0
   44.2600   35.1440   46.5820 H   0  0  0  0  0  0  0  0  0  0  0  0
   46.6850   32.6770   43.6970 C   0  0  0  0  0  0  0  0  0  0  0  0
   46.0080   31.4930   43.5140 C   0  0  0  0  0  0  0  0  0  0  0  0
   46.7240   30.3670   43.1750 C   0  0  0  0  0  0  0  0  0  0  0  0
   48.1020   30.3620   43.0060 C   0  0  0  0  0  0  0  0  0  0  0  0
   48.7210   31.5930   43.2060 C   0  0  0  0  0  0  0  0  0  0  0  0
   48.0060   32.6770   43.5360 N   0  0  0  0  0  0  0  0  0  0  0  0
   44.9170   31.4140   43.6300 H   0  0  0  0  0  0  0  0  0  0  0  0
   46.2180   29.4050   43.0220 H   0  0  0  0  0  0  0  0  0  0  0  0
   48.6760   29.4890   42.7410 H   0  0  0  0  0  0  0  0  0  0  0  0
   49.7960   31.6910   43.0970 H   0  0  0  0  0  0  0  0  0  0  0  0
   46.4830   34.8030   41.8260 C   0  0  0  0  0  0  0  0  0  0  0  0
   47.6650   35.2540   41.7170 O   0  0  0  0  0  0  0  0  0  0  0  0
   46.0070   34.2560   40.5200 C   0  0  0  0  0  3  0  0  0  0  0  0
   44.7160   33.5530   40.7970 C   0  0  0  0  0  2  0  0  0  0  0  0
   44.2920   32.5810   39.7340 C   0  0  0  0  0  2  0  0  0  0  0  0
   45.3930   31.6810   39.2710 C   0  0  0  0  0  2  0  0  0  0  0  0
   46.7190   31.9500   39.9080 C   0  0  0  0  0  2  0  0  0  0  0  0
   47.0640   33.4160   39.8880 C   0  0  0  0  0  2  0  0  0  0  0  0
  1  6  1  0  0  0  0
  2  1  2  0  0  0  0
  2  3  1  0  0  0  0
  3  4  2  0  0  0  0
  4  5  1  0  0  0  0
  5  8  1  0  0  0  0
  6  5  2  0  0  0  0
  7  1  1  0  0  0  0
  9  3  1  0  0  0  0
 10 15  1  0  0  0  0
 10  9  2  0  0  0  0
 11 10  1  0  0  0  0
 12 11  2  0  0  0  0
 12 13  1  0  0  0  0
 13 14  2  0  0  0  0
 14  9  1  0  0  0  0
 16 11  1  0  0  0  0
 17 12  1  0  0  0  0
 18 13  1  0  0  0  0
 19  2  1  0  0  0  0
 20 19  2  0  0  0  0
 21 22  1  0  0  0  0
 21 19  1  0  0  0  0
 23 22  1  0  0  0  0
 24 23  1  0  0  0  0
 24 25  1  0  0  0  0
 26 25  1  0  0  0  0
 26 21  1  0  0  0  0
M  END
>  <minimizedAffinity>
-4.27071953

>  <minimizedRMSD>
0.960988581

$$$$
