
 OpenBabel03242520263D

 35 37  0  0  0  0  0  0  0  0999 V2000
   44.8510   35.6030   42.6470 C   0  0  0  0  0  0  0  0  0  0  0  0
   45.8810   34.6250   42.7680 C   0  0  0  0  0  0  0  0  0  0  0  0
   46.1830   34.1620   44.0330 C   0  0  0  0  0  0  0  0  0  0  0  0
   45.4880   34.6590   45.0980 N   0  0  0  0  0  0  0  0  0  0  0  0
   44.5170   35.5830   44.9710 C   0  0  0  0  0  0  0  0  0  0  0  0
   44.2060   36.0490   43.7450 N   0  0  0  0  0  0  0  0  0  0  0  0
   44.5980   35.9790   41.6630 H   0  0  0  0  0  0  0  0  0  0  0  0
   44.0550   35.8810   45.9020 H   0  0  0  0  0  0  0  0  0  0  0  0
   46.4970   34.2220   41.5660 N   0  0  0  0  0  0  0  0  0  0  0  0
   47.6750   34.8650   41.0190 C   0  0  0  0  0  0  0  0  0  0  0  0
   48.1450   34.1120   39.8080 C   0  0  0  0  0  0  0  0  0  0  0  0
   47.1050   33.8820   38.8380 N   0  0  0  0  0  0  0  0  0  0  0  0
   45.8830   33.3640   39.3650 C   0  0  0  0  0  0  0  0  0  0  0  0
   45.9040   33.0960   40.8450 C   0  0  0  0  0  0  0  0  0  0  0  0
   47.4070   35.8890   40.7040 H   0  0  0  0  0  0  0  0  0  0  0  0
   48.5180   34.8770   41.7370 H   0  0  0  0  0  0  0  0  0  0  0  0
   48.9540   34.6400   39.2980 H   0  0  0  0  0  0  0  0  0  0  0  0
   48.5210   33.1160   40.1440 H   0  0  0  0  0  0  0  0  0  0  0  0
   47.4820   33.1890   38.1540 H   0  0  0  0  0  0  0  0  0  0  0  0
   45.0820   34.1420   39.2080 H   0  0  0  0  0  0  0  0  0  0  0  0
   45.5090   32.4430   38.8830 H   0  0  0  0  0  0  0  0  0  0  0  0
   46.5260   32.2030   41.0560 H   0  0  0  0  0  0  0  0  0  0  0  0
   44.8840   32.8750   41.1670 H   0  0  0  0  0  0  0  0  0  0  0  0
   47.1880   33.2100   44.1260 O   0  0  0  0  0  0  0  0  0  0  0  0
   45.5410   31.4030   45.1550 O   0  0  0  0  0  0  0  0  0  0  0  0
   46.9790   31.9000   45.2390 P   0  0  1  0  0  0  0  0  0  0  0  0
   48.0590   30.6990   44.7990 O   0  0  0  0  0  0  0  0  0  0  0  0
   48.8780   30.8040   45.3680 H   0  0  0  0  0  0  0  0  0  0  0  0
   47.2810   32.4970   46.7820 O   0  0  0  0  0  0  0  0  0  0  0  0
   46.7370   31.6570   47.7160 C   0  0  0  0  0  0  0  0  0  0  0  0
   45.3180   32.0260   48.0950 C   0  0  0  0  0  0  0  0  0  0  0  0
   45.0610   31.3000   49.4180 C   0  0  0  0  0  0  0  0  0  0  0  0
   45.0300   29.8160   49.1640 C   0  0  0  0  0  0  0  0  0  0  0  0
   45.5420   29.4330   47.8130 C   0  0  0  0  0  0  0  0  0  0  0  0
   46.7330   30.2110   47.3530 C   0  0  0  0  0  0  0  0  0  0  0  0
  1  2  2  0  0  0  0
  1  6  1  0  0  0  0
  2  3  1  0  0  0  0
  3 24  1  0  0  0  0
  3  4  2  0  0  0  0
  5  4  1  0  0  0  0
  5  8  1  0  0  0  0
  6  5  2  0  0  0  0
  7  1  1  0  0  0  0
  9  2  1  0  0  0  0
 10  9  1  0  0  0  0
 10 16  1  0  0  0  0
 11 18  1  0  0  0  0
 11 10  1  0  0  0  0
 12 13  1  0  0  0  0
 12 11  1  0  0  0  0
 13 14  1  0  0  0  0
 14 22  1  0  0  0  0
 14 23  1  0  0  0  0
 14  9  1  0  0  0  0
 15 10  1  0  0  0  0
 17 11  1  0  0  0  0
 19 12  1  0  0  0  0
 20 13  1  0  0  0  0
 21 13  1  0  0  0  0
 24 26  1  0  0  0  0
 26 25  2  6  0  0  0
 26 29  1  0  0  0  0
 27 26  1  0  0  0  0
 27 28  1  0  0  0  0
 29 30  1  0  0  0  0
 30 31  1  0  0  0  0
 31 32  1  0  0  0  0
 33 32  1  0  0  0  0
 34 33  1  0  0  0  0
 35 30  1  0  0  0  0
 35 34  1  0  0  0  0
M  END
>  <minimizedAffinity>
-5.19929409

>  <minimizedRMSD>
1.35209036

$$$$
