
 OpenBabel03242522513D

 23 24  0  0  0  0  0  0  0  0999 V2000
   44.8040   30.6430   47.8230 O   0  0  0  0  0  0  0  0  0  0  0  0
   45.6510   31.8080   48.3810 P   0  0  2  0  0  0  0  0  0  0  0  0
   45.2940   31.8930   50.0220 O   0  0  0  0  0  0  0  0  0  0  0  0
   45.8370   32.5310   50.5250 H   0  0  0  0  0  0  0  0  0  0  0  0
   45.1740   33.2300   47.6070 O   0  0  0  0  0  0  0  0  0  0  0  0
   47.0170   32.9810   44.4870 C   0  0  0  0  0  0  0  0  0  0  0  0
   46.5770   32.7320   45.7990 C   0  0  0  0  0  0  0  0  0  0  0  0
   45.5710   33.5100   46.3160 C   0  0  0  0  0  0  0  0  0  0  0  0
   45.0540   34.4810   45.5300 N   0  0  0  0  0  0  0  0  0  0  0  0
   45.4680   34.7250   44.2810 C   0  0  0  0  0  0  0  0  0  0  0  0
   46.4610   33.9640   43.7560 N   0  0  0  0  0  0  0  0  0  0  0  0
   47.8000   32.4300   43.9840 H   0  0  0  0  0  0  0  0  0  0  0  0
   47.1140   31.9270   46.2270 H   0  0  0  0  0  0  0  0  0  0  0  0
   44.9350   35.5400   43.8090 H   0  0  0  0  0  0  0  0  0  0  0  0
   47.2480   31.4900   48.0960 O   0  0  0  0  0  0  0  0  0  0  0  0
   48.0000   30.3820   48.2780 C   0  0  0  0  0  0  0  0  0  0  0  0
   48.6490   30.3840   49.3850 O   0  0  0  0  0  0  0  0  0  0  0  0
   48.5550   29.0560   47.9060 C   0  0  0  0  0  3  0  0  0  0  0  0
   49.6540   29.1780   46.8870 C   0  0  0  0  0  2  0  0  0  0  0  0
   49.2430   29.4270   45.4920 C   0  0  0  0  0  2  0  0  0  0  0  0
   48.0620   28.6130   45.0330 C   0  0  0  0  0  2  0  0  0  0  0  0
   46.9510   28.6540   46.0240 C   0  0  0  0  0  2  0  0  0  0  0  0
   47.3910   28.2310   47.4040 C   0  0  0  0  0  2  0  0  0  0  0  0
  2  1  2  6  0  0  0
  2  3  1  0  0  0  0
  3  4  1  0  0  0  0
  5  2  1  0  0  0  0
  6  7  1  0  0  0  0
  7 13  1  0  0  0  0
  7  8  2  0  0  0  0
  8  5  1  0  0  0  0
  9  8  1  0  0  0  0
 10  9  2  0  0  0  0
 11 10  1  0  0  0  0
 11  6  2  0  0  0  0
 12  6  1  0  0  0  0
 14 10  1  0  0  0  0
 15 16  1  0  0  0  0
 15  2  1  0  0  0  0
 16 17  2  0  0  0  0
 18 16  1  0  0  0  0
 19 18  1  0  0  0  0
 20 19  1  0  0  0  0
 21 20  1  0  0  0  0
 21 22  1  0  0  0  0
 22 23  1  0  0  0  0
 23 18  1  0  0  0  0
M  END
>  <minimizedAffinity>
-4.33357143

>  <minimizedRMSD>
1.12646151

$$$$
