
 OpenBabel03242512353D

 17 18  0  0  0  0  0  0  0  0999 V2000
   36.6960   28.7670   41.7550 C   0  0  0  0  0  0  0  0  0  0  0  0
   35.7770   28.5100   40.7140 C   0  0  0  0  0  0  0  0  0  0  0  0
   35.5190   29.5610   39.8430 C   0  0  0  0  0  0  0  0  0  0  0  0
   36.1390   30.7540   40.0220 N   0  0  0  0  0  0  0  0  0  0  0  0
   37.0150   30.9500   41.0390 C   0  0  0  0  0  0  0  0  0  0  0  0
   37.2830   29.9660   41.8890 N   0  0  0  0  0  0  0  0  0  0  0  0
   35.2730   27.5820   40.5470 H   0  0  0  0  0  0  0  0  0  0  0  0
   34.8220   29.4090   39.0310 H   0  0  0  0  0  0  0  0  0  0  0  0
   37.4830   31.9200   41.1390 H   0  0  0  0  0  0  0  0  0  0  0  0
   36.9640   27.6850   42.6530 C   0  0  0  0  0  0  0  0  0  0  0  0
   36.2430   27.3380   43.6310 O   0  0  0  0  0  0  0  0  0  0  0  0
   38.1970   26.8800   42.4380 C   0  0  0  0  0  3  0  0  0  0  0  0
   37.9410   25.5670   41.7510 C   0  0  0  0  0  2  0  0  0  0  0  0
   38.5550   24.3930   42.4650 C   0  0  0  0  0  2  0  0  0  0  0  0
   39.9240   24.6040   43.0020 C   0  0  0  0  0  2  0  0  0  0  0  0
   40.3030   26.0300   43.2190 C   0  0  0  0  0  2  0  0  0  0  0  0
   39.0410   26.7610   43.6790 C   0  0  0  0  0  2  0  0  0  0  0  0
  1  6  1  0  0  0  0
  1 10  1  0  0  0  0
  2  1  2  0  0  0  0
  3  4  2  0  0  0  0
  3  2  1  0  0  0  0
  4  5  1  0  0  0  0
  5  9  1  0  0  0  0
  5  6  2  0  0  0  0
  7  2  1  0  0  0  0
  8  3  1  0  0  0  0
 10 11  2  0  0  0  0
 12 10  1  0  0  0  0
 12 17  1  0  0  0  0
 13 12  1  0  0  0  0
 13 14  1  0  0  0  0
 14 15  1  0  0  0  0
 15 16  1  0  0  0  0
 16 17  1  0  0  0  0
M  END
>  <minimizedAffinity>
-4.5201087

$$$$

 OpenBabel03242512353D

 17 18  0  0  0  0  0  0  0  0999 V2000
   38.2930   31.6570   40.4840 C   0  0  0  0  0  0  0  0  0  0  0  0
   39.1970   31.0760   39.5690 C   0  0  0  0  0  0  0  0  0  0  0  0
   40.1230   31.9320   38.9840 C   0  0  0  0  0  0  0  0  0  0  0  0
   40.1210   33.2490   39.3070 N   0  0  0  0  0  0  0  0  0  0  0  0
   39.2300   33.7590   40.1940 C   0  0  0  0  0  0  0  0  0  0  0  0
   38.3320   32.9670   40.7690 N   0  0  0  0  0  0  0  0  0  0  0  0
   39.2240   30.0430   39.2940 H   0  0  0  0  0  0  0  0  0  0  0  0
   40.8340   31.5300   38.2780 H   0  0  0  0  0  0  0  0  0  0  0  0
   39.2690   34.8160   40.4170 H   0  0  0  0  0  0  0  0  0  0  0  0
   37.3390   30.7770   41.0870 C   0  0  0  0  0  0  0  0  0  0  0  0
   36.1040   31.0060   41.2270 O   0  0  0  0  0  0  0  0  0  0  0  0
   37.8180   29.4660   41.6040 C   0  0  0  0  0  3  0  0  0  0  0  0
   36.7530   28.4050   41.6240 C   0  0  0  0  0  2  0  0  0  0  0  0
   36.6370   27.7050   42.9500 C   0  0  0  0  0  2  0  0  0  0  0  0
   37.9190   27.3690   43.6220 C   0  0  0  0  0  2  0  0  0  0  0  0
   39.0910   28.1800   43.1840 C   0  0  0  0  0  2  0  0  0  0  0  0
   38.5740   29.5920   42.9000 C   0  0  0  0  0  2  0  0  0  0  0  0
  1  6  1  0  0  0  0
  1 10  1  0  0  0  0
  2  1  2  0  0  0  0
  3  4  2  0  0  0  0
  3  2  1  0  0  0  0
  4  5  1  0  0  0  0
  5  9  1  0  0  0  0
  5  6  2  0  0  0  0
  7  2  1  0  0  0  0
  8  3  1  0  0  0  0
 10 11  2  0  0  0  0
 10 12  1  0  0  0  0
 12 13  1  0  0  0  0
 12 17  1  0  0  0  0
 13 14  1  0  0  0  0
 14 15  1  0  0  0  0
 16 15  1  0  0  0  0
 17 16  1  0  0  0  0
M  END
>  <minimizedAffinity>
-4.40480328

$$$$

 OpenBabel03242512353D

 17 18  0  0  0  0  0  0  0  0999 V2000
   36.9170   30.1750   40.2960 C   0  0  0  0  0  0  0  0  0  0  0  0
   36.6310   31.5200   40.6180 C   0  0  0  0  0  0  0  0  0  0  0  0
   37.5190   32.4730   40.1360 C   0  0  0  0  0  0  0  0  0  0  0  0
   38.5910   32.0860   39.4010 N   0  0  0  0  0  0  0  0  0  0  0  0
   38.8210   30.7790   39.1190 C   0  0  0  0  0  0  0  0  0  0  0  0
   37.9910   29.8440   39.5650 N   0  0  0  0  0  0  0  0  0  0  0  0
   35.7960   31.8560   41.1950 H   0  0  0  0  0  0  0  0  0  0  0  0
   37.3390   33.5150   40.3580 H   0  0  0  0  0  0  0  0  0  0  0  0
   39.6900   30.5220   38.5290 H   0  0  0  0  0  0  0  0  0  0  0  0
   36.0020   29.1900   40.7920 C   0  0  0  0  0  0  0  0  0  0  0  0
   34.7990   29.0510   40.4330 O   0  0  0  0  0  0  0  0  0  0  0  0
   36.4870   28.2330   41.8220 C   0  0  0  0  0  3  0  0  0  0  0  0
   37.3980   28.8610   42.8400 C   0  0  0  0  0  2  0  0  0  0  0  0
   38.6840   28.1050   43.0340 C   0  0  0  0  0  2  0  0  0  0  0  0
   38.5670   26.6250   43.0740 C   0  0  0  0  0  2  0  0  0  0  0  0
   37.3390   26.0720   42.4330 C   0  0  0  0  0  2  0  0  0  0  0  0
   37.0280   26.9600   41.2270 C   0  0  0  0  0  2  0  0  0  0  0  0
  1  2  1  0  0  0  0
  1 10  1  0  0  0  0
  2  7  1  0  0  0  0
  3  8  1  0  0  0  0
  3  2  2  0  0  0  0
  4  3  1  0  0  0  0
  5  4  2  0  0  0  0
  5  6  1  0  0  0  0
  6  1  2  0  0  0  0
  9  5  1  0  0  0  0
 10 12  1  0  0  0  0
 11 10  2  0  0  0  0
 12 13  1  0  0  0  0
 13 14  1  0  0  0  0
 14 15  1  0  0  0  0
 16 15  1  0  0  0  0
 17 12  1  0  0  0  0
 17 16  1  0  0  0  0
M  END
>  <minimizedAffinity>
-4.33323717

$$$$

 OpenBabel03242512353D

 17 18  0  0  0  0  0  0  0  0999 V2000
   38.2490   31.0190   40.5160 C   0  0  0  0  0  0  0  0  0  0  0  0
   38.5650   32.3710   40.7720 C   0  0  0  0  0  0  0  0  0  0  0  0
   39.7050   32.8680   40.1510 C   0  0  0  0  0  0  0  0  0  0  0  0
   40.4430   32.0600   39.3510 N   0  0  0  0  0  0  0  0  0  0  0  0
   40.0960   30.7670   39.1360 C   0  0  0  0  0  0  0  0  0  0  0  0
   39.0120   30.2610   39.7150 N   0  0  0  0  0  0  0  0  0  0  0  0
   38.0040   33.0320   41.3980 H   0  0  0  0  0  0  0  0  0  0  0  0
   39.9840   33.8970   40.3190 H   0  0  0  0  0  0  0  0  0  0  0  0
   40.7170   30.1630   38.4890 H   0  0  0  0  0  0  0  0  0  0  0  0
   37.0740   30.5050   41.1550 C   0  0  0  0  0  0  0  0  0  0  0  0
   35.8810   30.7680   40.8330 O   0  0  0  0  0  0  0  0  0  0  0  0
   37.2470   29.5740   42.3030 C   0  0  0  0  0  3  0  0  0  0  0  0
   38.6180   29.6300   42.9170 C   0  0  0  0  0  2  0  0  0  0  0  0
   39.2560   28.2760   43.0710 C   0  0  0  0  0  2  0  0  0  0  0  0
   38.3630   27.1880   43.5440 C   0  0  0  0  0  2  0  0  0  0  0  0
   36.9070   27.4260   43.3230 C   0  0  0  0  0  2  0  0  0  0  0  0
   36.7760   28.1770   41.9970 C   0  0  0  0  0  2  0  0  0  0  0  0
  1  2  1  0  0  0  0
  1 10  1  0  0  0  0
  2  7  1  0  0  0  0
  3  8  1  0  0  0  0
  3  2  2  0  0  0  0
  4  3  1  0  0  0  0
  5  4  2  0  0  0  0
  5  6  1  0  0  0  0
  6  1  2  0  0  0  0
  9  5  1  0  0  0  0
 10 12  1  0  0  0  0
 11 10  2  0  0  0  0
 12 13  1  0  0  0  0
 13 14  1  0  0  0  0
 14 15  1  0  0  0  0
 16 15  1  0  0  0  0
 17 12  1  0  0  0  0
 17 16  1  0  0  0  0
M  END
>  <minimizedAffinity>
-4.33206606

$$$$

 OpenBabel03242512353D

 17 18  0  0  0  0  0  0  0  0999 V2000
   37.3680   29.2850   41.9670 C   0  0  0  0  0  0  0  0  0  0  0  0
   38.5820   29.9970   41.8580 C   0  0  0  0  0  0  0  0  0  0  0  0
   38.5500   31.1620   41.1010 C   0  0  0  0  0  0  0  0  0  0  0  0
   37.3920   31.5550   40.5160 N   0  0  0  0  0  0  0  0  0  0  0  0
   36.2510   30.8340   40.6510 C   0  0  0  0  0  0  0  0  0  0  0  0
   36.2480   29.7160   41.3680 N   0  0  0  0  0  0  0  0  0  0  0  0
   39.5110   29.7130   42.3060 H   0  0  0  0  0  0  0  0  0  0  0  0
   39.4570   31.7390   40.9910 H   0  0  0  0  0  0  0  0  0  0  0  0
   35.3530   31.1890   40.1650 H   0  0  0  0  0  0  0  0  0  0  0  0
   37.3990   28.0840   42.7470 C   0  0  0  0  0  0  0  0  0  0  0  0
   36.5940   27.7820   43.6720 O   0  0  0  0  0  0  0  0  0  0  0  0
   38.4640   27.0860   42.4610 C   0  0  0  0  0  3  0  0  0  0  0  0
   37.9730   25.8900   41.6940 C   0  0  0  0  0  2  0  0  0  0  0  0
   38.3650   24.5790   42.3210 C   0  0  0  0  0  2  0  0  0  0  0  0
   39.7510   24.5030   42.8500 C   0  0  0  0  0  2  0  0  0  0  0  0
   40.3840   25.8190   43.1540 C   0  0  0  0  0  2  0  0  0  0  0  0
   39.2760   26.7340   43.6800 C   0  0  0  0  0  2  0  0  0  0  0  0
  1 10  1  0  0  0  0
  2  1  1  0  0  0  0
  2  7  1  0  0  0  0
  3  2  2  0  0  0  0
  4  5  2  0  0  0  0
  4  3  1  0  0  0  0
  5  6  1  0  0  0  0
  6  1  2  0  0  0  0
  8  3  1  0  0  0  0
  9  5  1  0  0  0  0
 10 11  2  0  0  0  0
 12 10  1  0  0  0  0
 12 17  1  0  0  0  0
 13 14  1  0  0  0  0
 13 12  1  0  0  0  0
 14 15  1  0  0  0  0
 15 16  1  0  0  0  0
 16 17  1  0  0  0  0
M  END
>  <minimizedAffinity>
-4.32747555

$$$$

 OpenBabel03242512353D

 17 18  0  0  0  0  0  0  0  0999 V2000
   38.5260   26.5930   42.9140 C   0  0  0  0  0  0  0  0  0  0  0  0
   39.5460   27.4390   43.4020 C   0  0  0  0  0  0  0  0  0  0  0  0
   40.7690   26.8380   43.6780 C   0  0  0  0  0  0  0  0  0  0  0  0
   40.9270   25.5070   43.4740 N   0  0  0  0  0  0  0  0  0  0  0  0
   39.9150   24.7370   43.0020 C   0  0  0  0  0  0  0  0  0  0  0  0
   38.7340   25.2810   42.7290 N   0  0  0  0  0  0  0  0  0  0  0  0
   39.4520   28.4900   43.5730 H   0  0  0  0  0  0  0  0  0  0  0  0
   41.5780   27.4470   44.0530 H   0  0  0  0  0  0  0  0  0  0  0  0
   40.0910   23.6810   42.8570 H   0  0  0  0  0  0  0  0  0  0  0  0
   37.2660   27.2100   42.6280 C   0  0  0  0  0  0  0  0  0  0  0  0
   36.2880   27.2980   43.4220 O   0  0  0  0  0  0  0  0  0  0  0  0
   37.0650   27.8110   41.2820 C   0  0  0  0  0  3  0  0  0  0  0  0
   36.2370   29.0660   41.3040 C   0  0  0  0  0  2  0  0  0  0  0  0
   35.1030   29.0470   40.3150 C   0  0  0  0  0  2  0  0  0  0  0  0
   35.4180   28.4850   38.9770 C   0  0  0  0  0  2  0  0  0  0  0  0
   36.6020   27.5800   38.9360 C   0  0  0  0  0  2  0  0  0  0  0  0
   36.6160   26.8050   40.2550 C   0  0  0  0  0  2  0  0  0  0  0  0
  1  2  1  0  0  0  0
  2  7  1  0  0  0  0
  2  3  2  0  0  0  0
  3  8  1  0  0  0  0
  4  3  1  0  0  0  0
  5  4  2  0  0  0  0
  6  1  2  0  0  0  0
  6  5  1  0  0  0  0
  9  5  1  0  0  0  0
 10  1  1  0  0  0  0
 10 11  2  0  0  0  0
 12 13  1  0  0  0  0
 12 10  1  0  0  0  0
 14 13  1  0  0  0  0
 15 14  1  0  0  0  0
 16 15  1  0  0  0  0
 16 17  1  0  0  0  0
 17 12  1  0  0  0  0
M  END
>  <minimizedAffinity>
-4.24651957

$$$$

 OpenBabel03242512353D

 17 18  0  0  0  0  0  0  0  0999 V2000
   38.7950   31.6510   40.8620 C   0  0  0  0  0  0  0  0  0  0  0  0
   37.5500   31.7850   40.2080 C   0  0  0  0  0  0  0  0  0  0  0  0
   37.2280   33.0560   39.7480 C   0  0  0  0  0  0  0  0  0  0  0  0
   38.0930   34.0820   39.9390 N   0  0  0  0  0  0  0  0  0  0  0  0
   39.2780   33.9000   40.5740 C   0  0  0  0  0  0  0  0  0  0  0  0
   39.6160   32.6980   41.0260 N   0  0  0  0  0  0  0  0  0  0  0  0
   36.8480   30.9960   40.0440 H   0  0  0  0  0  0  0  0  0  0  0  0
   36.2850   33.2050   39.2420 H   0  0  0  0  0  0  0  0  0  0  0  0
   39.9330   34.7510   40.7010 H   0  0  0  0  0  0  0  0  0  0  0  0
   39.1290   30.3420   41.3380 C   0  0  0  0  0  0  0  0  0  0  0  0
   40.2910   29.8500   41.3980 O   0  0  0  0  0  0  0  0  0  0  0  0
   38.0270   29.4610   41.8090 C   0  0  0  0  0  3  0  0  0  0  0  0
   38.0710   29.1860   43.2860 C   0  0  0  0  0  2  0  0  0  0  0  0
   37.9800   27.7220   43.6220 C   0  0  0  0  0  2  0  0  0  0  0  0
   37.0000   26.9340   42.8310 C   0  0  0  0  0  2  0  0  0  0  0  0
   36.6180   27.5360   41.5210 C   0  0  0  0  0  2  0  0  0  0  0  0
   37.8670   28.2230   40.9660 C   0  0  0  0  0  2  0  0  0  0  0  0
  1  6  1  0  0  0  0
  1 10  1  0  0  0  0
  2  1  2  0  0  0  0
  3  4  2  0  0  0  0
  3  2  1  0  0  0  0
  4  5  1  0  0  0  0
  5  9  1  0  0  0  0
  5  6  2  0  0  0  0
  7  2  1  0  0  0  0
  8  3  1  0  0  0  0
 10 11  2  0  0  0  0
 10 12  1  0  0  0  0
 12 13  1  0  0  0  0
 13 14  1  0  0  0  0
 15 14  1  0  0  0  0
 16 15  1  0  0  0  0
 17 16  1  0  0  0  0
 17 12  1  0  0  0  0
M  END
>  <minimizedAffinity>
-4.22966194

$$$$

 OpenBabel03242512353D

 17 18  0  0  0  0  0  0  0  0999 V2000
   36.7210   30.5470   40.0350 C   0  0  0  0  0  0  0  0  0  0  0  0
   36.7580   30.7950   38.6460 C   0  0  0  0  0  0  0  0  0  0  0  0
   37.3850   31.9690   38.2430 C   0  0  0  0  0  0  0  0  0  0  0  0
   37.9190   32.8010   39.1710 N   0  0  0  0  0  0  0  0  0  0  0  0
   37.8570   32.5160   40.4960 C   0  0  0  0  0  0  0  0  0  0  0  0
   37.2650   31.4030   40.9130 N   0  0  0  0  0  0  0  0  0  0  0  0
   36.3460   30.1600   37.8910 H   0  0  0  0  0  0  0  0  0  0  0  0
   37.4360   32.1990   37.1890 H   0  0  0  0  0  0  0  0  0  0  0  0
   38.2980   33.2120   41.1960 H   0  0  0  0  0  0  0  0  0  0  0  0
   36.0760   29.3390   40.4520 C   0  0  0  0  0  0  0  0  0  0  0  0
   34.8370   29.1000   40.3880 O   0  0  0  0  0  0  0  0  0  0  0  0
   36.9180   28.2490   41.0150 C   0  0  0  0  0  3  0  0  0  0  0  0
   37.1330   27.1060   40.0620 C   0  0  0  0  0  2  0  0  0  0  0  0
   36.8270   25.7620   40.6670 C   0  0  0  0  0  2  0  0  0  0  0  0
   37.2950   25.5580   42.0630 C   0  0  0  0  0  2  0  0  0  0  0  0
   37.5330   26.8090   42.8380 C   0  0  0  0  0  2  0  0  0  0  0  0
   36.4750   27.8190   42.3890 C   0  0  0  0  0  2  0  0  0  0  0  0
  1 10  1  0  0  0  0
  1  6  1  0  0  0  0
  2  1  2  0  0  0  0
  3  2  1  0  0  0  0
  3  4  2  0  0  0  0
  4  5  1  0  0  0  0
  5  6  2  0  0  0  0
  5  9  1  0  0  0  0
  7  2  1  0  0  0  0
  8  3  1  0  0  0  0
 10 12  1  0  0  0  0
 11 10  2  0  0  0  0
 12 17  1  0  0  0  0
 13 14  1  0  0  0  0
 13 12  1  0  0  0  0
 14 15  1  0  0  0  0
 15 16  1  0  0  0  0
 17 16  1  0  0  0  0
M  END
>  <minimizedAffinity>
-4.21946573

$$$$

 OpenBabel03242512353D

 17 18  0  0  0  0  0  0  0  0999 V2000
   37.9370   30.4020   41.2680 C   0  0  0  0  0  0  0  0  0  0  0  0
   36.7790   31.0760   40.8220 C   0  0  0  0  0  0  0  0  0  0  0  0
   36.9780   32.1270   39.9350 C   0  0  0  0  0  0  0  0  0  0  0  0
   38.2360   32.4520   39.5460 N   0  0  0  0  0  0  0  0  0  0  0  0
   39.3170   31.7730   40.0040 C   0  0  0  0  0  0  0  0  0  0  0  0
   39.1600   30.7630   40.8530 N   0  0  0  0  0  0  0  0  0  0  0  0
   35.7760   30.8430   41.1100 H   0  0  0  0  0  0  0  0  0  0  0  0
   36.1200   32.6700   39.5670 H   0  0  0  0  0  0  0  0  0  0  0  0
   40.2990   32.0710   39.6650 H   0  0  0  0  0  0  0  0  0  0  0  0
   37.7340   29.3180   42.1820 C   0  0  0  0  0  0  0  0  0  0  0  0
   38.0990   29.2910   43.3910 O   0  0  0  0  0  0  0  0  0  0  0  0
   37.0320   28.1030   41.6890 C   0  0  0  0  0  3  0  0  0  0  0  0
   36.7580   27.0920   42.7660 C   0  0  0  0  0  2  0  0  0  0  0  0
   37.2100   25.7020   42.4060 C   0  0  0  0  0  2  0  0  0  0  0  0
   36.9390   25.2720   41.0100 C   0  0  0  0  0  2  0  0  0  0  0  0
   36.7360   26.3840   40.0370 C   0  0  0  0  0  2  0  0  0  0  0  0
   37.6710   27.5200   40.4560 C   0  0  0  0  0  2  0  0  0  0  0  0
  1 10  1  0  0  0  0
  2  7  1  0  0  0  0
  2  1  2  0  0  0  0
  3  2  1  0  0  0  0
  4  3  2  0  0  0  0
  4  5  1  0  0  0  0
  5  6  2  0  0  0  0
  6  1  1  0  0  0  0
  8  3  1  0  0  0  0
  9  5  1  0  0  0  0
 10 11  2  0  0  0  0
 12 10  1  0  0  0  0
 12 13  1  0  0  0  0
 14 13  1  0  0  0  0
 15 14  1  0  0  0  0
 16 17  1  0  0  0  0
 16 15  1  0  0  0  0
 17 12  1  0  0  0  0
M  END
>  <minimizedAffinity>
-4.13448238

$$$$
