
 OpenBabel03242510503D

 19 20  0  0  0  0  0  0  0  0999 V2000
   44.6880   36.5410   43.9300 C   0  0  0  0  0  0  0  0  0  0  0  0
   45.4890   36.2770   42.8080 C   0  0  0  0  0  0  0  0  0  0  0  0
   46.1850   35.0740   42.8070 C   0  0  0  0  0  0  0  0  0  0  0  0
   46.0470   34.2500   43.8680 N   0  0  0  0  0  0  0  0  0  0  0  0
   45.2670   34.5300   44.9380 C   0  0  0  0  0  0  0  0  0  0  0  0
   44.5760   35.6960   44.9680 N   0  0  0  0  0  0  0  0  0  0  0  0
   46.1650   32.5760   46.0370 C   0  0  0  0  0  0  0  0  0  0  0  0
   47.0820   32.4230   45.2090 O   0  0  0  0  0  0  0  0  0  0  0  0
   45.1810   33.6010   46.0150 N   0  0  0  0  0  0  0  0  0  0  0  0
   44.0950   37.4620   44.0360 H   0  0  0  0  0  0  0  0  0  0  0  0
   45.5310   36.9930   42.0200 H   0  0  0  0  0  0  0  0  0  0  0  0
   46.8140   34.8320   41.9600 H   0  0  0  0  0  0  0  0  0  0  0  0
   44.4010   33.7370   46.7150 H   0  0  0  0  0  0  0  0  0  0  0  0
   46.0890   31.5990   47.1550 C   0  0  0  0  0  0  0  0  0  0  0  0
   45.4950   30.2760   46.7280 C   0  0  0  0  0  0  0  0  0  0  0  0
   45.7860   29.2910   47.8500 C   0  0  0  0  0  0  0  0  0  0  0  0
   45.0620   29.7860   49.0820 C   0  0  0  0  0  0  0  0  0  0  0  0
   45.4870   31.1680   49.4840 C   0  0  0  0  0  0  0  0  0  0  0  0
   45.3950   32.1640   48.3570 C   0  0  0  0  0  0  0  0  0  0  0  0
  1 10  1  0  0  0  0
  1  6  1  0  0  0  0
  2  1  2  0  0  0  0
  3  2  1  0  0  0  0
  3  4  2  0  0  0  0
  4  5  1  0  0  0  0
  5  6  2  0  0  0  0
  5  9  1  0  0  0  0
  7 14  1  0  0  0  0
  8  7  2  0  0  0  0
  9  7  1  0  0  0  0
  9 13  1  0  0  0  0
 11  2  1  0  0  0  0
 12  3  1  0  0  0  0
 14 19  1  0  0  0  0
 15 14  1  0  0  0  0
 15 16  1  0  0  0  0
 16 17  1  0  0  0  0
 17 18  1  0  0  0  0
 19 18  1  0  0  0  0
M  END
>  <minimizedAffinity>
-5.10819197

>  <minimizedRMSD>
1.16265965

$$$$
