
 OpenBabel03252505493D

 19 20  0  0  0  0  0  0  0  0999 V2000
   44.8800   35.0500   44.9100 C   0  0  0  0  0  0  0  0  0  0  0  0
   45.8720   34.5900   44.0460 C   0  0  0  0  0  0  0  0  0  0  0  0
   46.6970   33.5770   44.5110 C   0  0  0  0  0  0  0  0  0  0  0  0
   46.5150   33.0810   45.7550 N   0  0  0  0  0  0  0  0  0  0  0  0
   45.5440   33.5560   46.5550 C   0  0  0  0  0  0  0  0  0  0  0  0
   44.7140   34.5390   46.1540 N   0  0  0  0  0  0  0  0  0  0  0  0
   44.2030   35.8340   44.6170 H   0  0  0  0  0  0  0  0  0  0  0  0
   47.4550   33.2390   43.8260 H   0  0  0  0  0  0  0  0  0  0  0  0
   45.9550   35.2350   42.6940 C   0  0  0  0  0  0  0  0  0  0  0  0
   45.2610   36.4190   42.7960 F   0  0  0  0  0  0  0  0  0  0  0  0
   45.3460   34.3960   41.7980 F   0  0  0  0  0  0  0  0  0  0  0  0
   47.2930   35.4000   42.3940 F   0  0  0  0  0  0  0  0  0  0  0  0
   45.3490   33.0480   47.8430 O   0  0  0  0  0  0  0  0  0  0  0  0
   45.3710   31.6590   48.1120 C   0  0  0  0  0  3  0  0  0  0  0  0
   46.5390   31.3080   48.9880 C   0  0  0  0  0  2  0  0  0  0  0  0
   47.6830   30.6810   48.2590 C   0  0  0  0  0  2  0  0  0  0  0  0
   47.2870   29.5150   47.3980 C   0  0  0  0  0  2  0  0  0  0  0  0
   45.8490   29.5300   46.9590 C   0  0  0  0  0  2  0  0  0  0  0  0
   45.4210   30.9540   46.7720 C   0  0  0  0  0  2  0  0  0  0  0  0
  1  6  1  0  0  0  0
  2  3  1  0  0  0  0
  2  1  2  0  0  0  0
  3  4  2  0  0  0  0
  4  5  1  0  0  0  0
  5 13  1  0  0  0  0
  6  5  2  0  0  0  0
  7  1  1  0  0  0  0
  8  3  1  0  0  0  0
  9 10  1  0  0  0  0
  9  2  1  0  0  0  0
 11  9  1  0  0  0  0
 12  9  1  0  0  0  0
 13 14  1  0  0  0  0
 14 15  1  0  0  0  0
 16 15  1  0  0  0  0
 17 16  1  0  0  0  0
 18 17  1  0  0  0  0
 19 18  1  0  0  0  0
 19 14  1  0  0  0  0
M  END
>  <minimizedAffinity>
-4.73474312

>  <minimizedRMSD>
1.13143957

$$$$
