
 OpenBabel03252507173D

 26 28  0  0  0  0  0  0  0  0999 V2000
   39.9640   31.6340   40.8890 C   0  0  0  0  0  0  0  0  0  0  0  0
   38.9300   30.7690   40.4510 C   0  0  0  0  0  0  0  0  0  0  0  0
   37.7390   31.3790   40.0630 C   0  0  0  0  0  0  0  0  0  0  0  0
   37.6120   32.7180   40.1150 N   0  0  0  0  0  0  0  0  0  0  0  0
   38.6380   33.5210   40.5450 C   0  0  0  0  0  0  0  0  0  0  0  0
   39.7800   32.9580   40.9190 N   0  0  0  0  0  0  0  0  0  0  0  0
   40.9230   31.1990   41.2060 H   0  0  0  0  0  0  0  0  0  0  0  0
   38.3810   34.5710   40.5270 H   0  0  0  0  0  0  0  0  0  0  0  0
   36.6550   30.5130   39.6070 C   0  0  0  0  0  0  0  0  0  0  0  0
   35.7060   30.0730   40.5000 C   0  0  0  0  0  0  0  0  0  0  0  0
   34.6950   29.2570   40.0430 C   0  0  0  0  0  0  0  0  0  0  0  0
   34.5820   28.8520   38.7200 C   0  0  0  0  0  0  0  0  0  0  0  0
   35.5760   29.3340   37.8730 C   0  0  0  0  0  0  0  0  0  0  0  0
   36.5510   30.1270   38.3380 N   0  0  0  0  0  0  0  0  0  0  0  0
   35.7250   30.3490   41.5650 H   0  0  0  0  0  0  0  0  0  0  0  0
   33.9200   28.8860   40.7260 H   0  0  0  0  0  0  0  0  0  0  0  0
   33.7970   28.2140   38.3470 H   0  0  0  0  0  0  0  0  0  0  0  0
   35.5740   29.0730   36.8200 H   0  0  0  0  0  0  0  0  0  0  0  0
   39.1210   29.3640   40.4190 C   0  0  0  0  0  0  0  0  0  0  0  0
   39.5110   28.8680   39.3170 O   0  0  0  0  0  0  0  0  0  0  0  0
   38.9550   28.2930   41.4480 C   0  0  0  0  0  3  0  0  0  0  0  0
   37.8290   27.4250   40.9820 C   0  0  0  0  0  2  0  0  0  0  0  0
   37.2200   26.5650   42.0510 C   0  0  0  0  0  2  0  0  0  0  0  0
   36.9420   27.2980   43.3230 C   0  0  0  0  0  2  0  0  0  0  0  0
   37.3710   28.7300   43.3170 C   0  0  0  0  0  2  0  0  0  0  0  0
   38.7750   28.8930   42.8020 C   0  0  0  0  0  2  0  0  0  0  0  0
  1  6  1  0  0  0  0
  1  7  1  0  0  0  0
  2  1  2  0  0  0  0
  3  4  2  0  0  0  0
  3  2  1  0  0  0  0
  4  5  1  0  0  0  0
  5  6  2  0  0  0  0
  8  5  1  0  0  0  0
  9  3  1  0  0  0  0
  9 10  1  0  0  0  0
 10 15  1  0  0  0  0
 11 10  2  0  0  0  0
 11 16  1  0  0  0  0
 12 11  1  0  0  0  0
 13 14  1  0  0  0  0
 13 12  2  0  0  0  0
 14  9  2  0  0  0  0
 17 12  1  0  0  0  0
 18 13  1  0  0  0  0
 19  2  1  0  0  0  0
 19 21  1  0  0  0  0
 20 19  2  0  0  0  0
 21 26  1  0  0  0  0
 22 21  1  0  0  0  0
 22 23  1  0  0  0  0
 23 24  1  0  0  0  0
 25 24  1  0  0  0  0
 26 25  1  0  0  0  0
M  END
>  <minimizedAffinity>
-5.37698889

$$$$

 OpenBabel03252507173D

 26 28  0  0  0  0  0  0  0  0999 V2000
   35.5660   28.9200   38.0180 C   0  0  0  0  0  0  0  0  0  0  0  0
   36.2610   28.9700   39.2520 C   0  0  0  0  0  0  0  0  0  0  0  0
   36.5610   27.7430   39.8410 C   0  0  0  0  0  0  0  0  0  0  0  0
   36.1960   26.5940   39.2440 N   0  0  0  0  0  0  0  0  0  0  0  0
   35.5230   26.5880   38.0480 C   0  0  0  0  0  0  0  0  0  0  0  0
   35.2290   27.7470   37.4710 N   0  0  0  0  0  0  0  0  0  0  0  0
   35.3060   29.8630   37.5150 H   0  0  0  0  0  0  0  0  0  0  0  0
   35.3030   25.5890   37.6990 H   0  0  0  0  0  0  0  0  0  0  0  0
   37.2770   27.7640   41.1140 C   0  0  0  0  0  0  0  0  0  0  0  0
   36.5750   27.7670   42.2970 C   0  0  0  0  0  0  0  0  0  0  0  0
   37.2760   27.7870   43.4820 C   0  0  0  0  0  0  0  0  0  0  0  0
   38.6630   27.8030   43.5470 C   0  0  0  0  0  0  0  0  0  0  0  0
   39.3080   27.7980   42.3140 C   0  0  0  0  0  0  0  0  0  0  0  0
   38.6070   27.7790   41.1710 N   0  0  0  0  0  0  0  0  0  0  0  0
   35.4750   27.7550   42.3300 H   0  0  0  0  0  0  0  0  0  0  0  0
   36.7500   27.7910   44.4460 H   0  0  0  0  0  0  0  0  0  0  0  0
   39.2240   27.8190   44.4670 H   0  0  0  0  0  0  0  0  0  0  0  0
   40.3910   27.8100   42.2610 H   0  0  0  0  0  0  0  0  0  0  0  0
   36.6200   30.2120   39.8360 C   0  0  0  0  0  0  0  0  0  0  0  0
   35.8240   30.6830   40.7050 O   0  0  0  0  0  0  0  0  0  0  0  0
   37.7850   31.1270   39.6400 C   0  0  0  0  0  3  0  0  0  0  0  0
   38.2790   31.4860   41.0050 C   0  0  0  0  0  2  0  0  0  0  0  0
   39.1470   32.7100   41.0540 C   0  0  0  0  0  2  0  0  0  0  0  0
   38.6000   33.8640   40.2780 C   0  0  0  0  0  2  0  0  0  0  0  0
   37.3250   33.5720   39.5540 C   0  0  0  0  0  2  0  0  0  0  0  0
   37.4020   32.2840   38.7800 C   0  0  0  0  0  2  0  0  0  0  0  0
  1  2  1  0  0  0  0
  2 19  1  0  0  0  0
  2  3  2  0  0  0  0
  3  9  1  0  0  0  0
  4  3  1  0  0  0  0
  5  4  2  0  0  0  0
  6  1  2  0  0  0  0
  6  5  1  0  0  0  0
  7  1  1  0  0  0  0
  8  5  1  0  0  0  0
  9 14  2  0  0  0  0
  9 10  1  0  0  0  0
 10 15  1  0  0  0  0
 10 11  2  0  0  0  0
 11 12  1  0  0  0  0
 11 16  1  0  0  0  0
 12 17  1  0  0  0  0
 13 12  2  0  0  0  0
 14 13  1  0  0  0  0
 18 13  1  0  0  0  0
 19 20  2  0  0  0  0
 21 19  1  0  0  0  0
 21 22  1  0  0  0  0
 22 23  1  0  0  0  0
 24 23  1  0  0  0  0
 25 24  1  0  0  0  0
 26 25  1  0  0  0  0
 26 21  1  0  0  0  0
M  END
>  <minimizedAffinity>
-5.28018618

$$$$

 OpenBabel03252507173D

 26 28  0  0  0  0  0  0  0  0999 V2000
   37.3540   24.6690   42.1830 C   0  0  0  0  0  0  0  0  0  0  0  0
   37.1980   26.0410   41.8680 C   0  0  0  0  0  0  0  0  0  0  0  0
   36.9400   26.3430   40.5330 C   0  0  0  0  0  0  0  0  0  0  0  0
   36.8490   25.3580   39.6190 N   0  0  0  0  0  0  0  0  0  0  0  0
   37.0060   24.0400   39.9640 C   0  0  0  0  0  0  0  0  0  0  0  0
   37.2530   23.7340   41.2330 N   0  0  0  0  0  0  0  0  0  0  0  0
   37.5600   24.3810   43.2250 H   0  0  0  0  0  0  0  0  0  0  0  0
   36.9030   23.3730   39.1200 H   0  0  0  0  0  0  0  0  0  0  0  0
   36.7750   27.7490   40.1780 C   0  0  0  0  0  0  0  0  0  0  0  0
   37.7780   28.4110   39.5090 C   0  0  0  0  0  0  0  0  0  0  0  0
   37.5960   29.7370   39.1880 C   0  0  0  0  0  0  0  0  0  0  0  0
   36.4460   30.4480   39.5040 C   0  0  0  0  0  0  0  0  0  0  0  0
   35.4730   29.7170   40.1800 C   0  0  0  0  0  0  0  0  0  0  0  0
   35.6700   28.4260   40.4840 N   0  0  0  0  0  0  0  0  0  0  0  0
   38.7200   27.9190   39.2230 H   0  0  0  0  0  0  0  0  0  0  0  0
   38.3760   30.2980   38.6550 H   0  0  0  0  0  0  0  0  0  0  0  0
   36.2900   31.4860   39.2590 H   0  0  0  0  0  0  0  0  0  0  0  0
   34.5390   30.1840   40.4710 H   0  0  0  0  0  0  0  0  0  0  0  0
   37.3060   27.0360   42.8750 C   0  0  0  0  0  0  0  0  0  0  0  0
   36.2460   27.3090   43.5190 O   0  0  0  0  0  0  0  0  0  0  0  0
   38.4460   27.8690   43.3610 C   0  0  0  0  0  3  0  0  0  0  0  0
   38.1530   29.2760   42.9470 C   0  0  0  0  0  2  0  0  0  0  0  0
   39.3450   30.1890   42.9500 C   0  0  0  0  0  2  0  0  0  0  0  0
   40.5530   29.5990   42.2990 C   0  0  0  0  0  2  0  0  0  0  0  0
   40.3720   28.1950   41.8180 C   0  0  0  0  0  2  0  0  0  0  0  0
   39.7420   27.3200   42.8670 C   0  0  0  0  0  2  0  0  0  0  0  0
  1  7  1  0  0  0  0
  2  1  1  0  0  0  0
  2 19  1  0  0  0  0
  3  2  2  0  0  0  0
  4  5  2  0  0  0  0
  4  3  1  0  0  0  0
  5  6  1  0  0  0  0
  6  1  2  0  0  0  0
  8  5  1  0  0  0  0
  9 14  1  0  0  0  0
  9  3  1  0  0  0  0
 10  9  2  0  0  0  0
 11 12  2  0  0  0  0
 11 10  1  0  0  0  0
 12 13  1  0  0  0  0
 13 18  1  0  0  0  0
 13 14  2  0  0  0  0
 15 10  1  0  0  0  0
 16 11  1  0  0  0  0
 17 12  1  0  0  0  0
 19 21  1  0  0  0  0
 19 20  2  0  0  0  0
 22 23  1  0  0  0  0
 22 21  1  0  0  0  0
 24 23  1  0  0  0  0
 25 24  1  0  0  0  0
 25 26  1  0  0  0  0
 26 21  1  0  0  0  0
M  END
>  <minimizedAffinity>
-5.14813757

$$$$

 OpenBabel03252507173D

 26 28  0  0  0  0  0  0  0  0999 V2000
   36.8160   28.2730   39.1780 C   0  0  0  0  0  0  0  0  0  0  0  0
   37.2730   29.5020   39.7150 C   0  0  0  0  0  0  0  0  0  0  0  0
   37.7480   30.4370   38.7990 C   0  0  0  0  0  0  0  0  0  0  0  0
   37.7580   30.1560   37.4820 N   0  0  0  0  0  0  0  0  0  0  0  0
   37.3060   28.9530   37.0010 C   0  0  0  0  0  0  0  0  0  0  0  0
   36.8500   28.0490   37.8600 N   0  0  0  0  0  0  0  0  0  0  0  0
   36.4320   27.5020   39.8620 H   0  0  0  0  0  0  0  0  0  0  0  0
   37.3780   28.8810   35.9250 H   0  0  0  0  0  0  0  0  0  0  0  0
   38.2270   31.7130   39.3230 C   0  0  0  0  0  0  0  0  0  0  0  0
   37.3580   32.7720   39.4510 C   0  0  0  0  0  0  0  0  0  0  0  0
   37.8360   33.9640   39.9490 C   0  0  0  0  0  0  0  0  0  0  0  0
   39.1570   34.1550   40.3310 C   0  0  0  0  0  0  0  0  0  0  0  0
   39.9790   33.0430   40.1750 C   0  0  0  0  0  0  0  0  0  0  0  0
   39.4940   31.8920   39.6880 N   0  0  0  0  0  0  0  0  0  0  0  0
   36.2960   32.7010   39.1710 H   0  0  0  0  0  0  0  0  0  0  0  0
   37.1730   34.8310   40.0650 H   0  0  0  0  0  0  0  0  0  0  0  0
   39.5460   35.0810   40.7220 H   0  0  0  0  0  0  0  0  0  0  0  0
   41.0290   33.0930   40.4460 H   0  0  0  0  0  0  0  0  0  0  0  0
   37.2390   29.7420   41.1130 C   0  0  0  0  0  0  0  0  0  0  0  0
   36.1850   30.2810   41.5720 O   0  0  0  0  0  0  0  0  0  0  0  0
   38.2200   29.4880   42.2110 C   0  0  0  0  0  3  0  0  0  0  0  0
   39.3410   28.7030   41.6070 C   0  0  0  0  0  2  0  0  0  0  0  0
   40.2050   27.9810   42.6000 C   0  0  0  0  0  2  0  0  0  0  0  0
   39.4300   27.2390   43.6400 C   0  0  0  0  0  2  0  0  0  0  0  0
   37.9470   27.3970   43.5340 C   0  0  0  0  0  2  0  0  0  0  0  0
   37.5470   28.8380   43.3730 C   0  0  0  0  0  2  0  0  0  0  0  0
  1  2  1  0  0  0  0
  1  7  1  0  0  0  0
  2 19  1  0  0  0  0
  3  9  1  0  0  0  0
  3  2  2  0  0  0  0
  4  3  1  0  0  0  0
  5  4  2  0  0  0  0
  5  6  1  0  0  0  0
  6  1  2  0  0  0  0
  8  5  1  0  0  0  0
  9 10  2  0  0  0  0
  9 14  1  0  0  0  0
 10 11  1  0  0  0  0
 11 16  1  0  0  0  0
 11 12  2  0  0  0  0
 12 17  1  0  0  0  0
 13 12  1  0  0  0  0
 13 18  1  0  0  0  0
 14 13  2  0  0  0  0
 15 10  1  0  0  0  0
 19 20  2  0  0  0  0
 19 21  1  0  0  0  0
 21 26  1  0  0  0  0
 22 21  1  0  0  0  0
 22 23  1  0  0  0  0
 23 24  1  0  0  0  0
 25 24  1  0  0  0  0
 26 25  1  0  0  0  0
M  END
>  <minimizedAffinity>
-5.13944435

$$$$

 OpenBabel03252507173D

 26 28  0  0  0  0  0  0  0  0999 V2000
   39.5720   30.2570   42.5860 C   0  0  0  0  0  0  0  0  0  0  0  0
   38.5240   29.6280   41.8690 C   0  0  0  0  0  0  0  0  0  0  0  0
   38.0010   30.3400   40.7900 C   0  0  0  0  0  0  0  0  0  0  0  0
   38.4890   31.5550   40.4760 N   0  0  0  0  0  0  0  0  0  0  0  0
   39.5060   32.1290   41.1970 C   0  0  0  0  0  0  0  0  0  0  0  0
   40.0160   31.4660   42.2270 N   0  0  0  0  0  0  0  0  0  0  0  0
   40.0160   29.7350   43.4460 H   0  0  0  0  0  0  0  0  0  0  0  0
   39.7850   33.1030   40.8190 H   0  0  0  0  0  0  0  0  0  0  0  0
   36.9200   29.7170   40.0320 C   0  0  0  0  0  0  0  0  0  0  0  0
   35.6270   29.7850   40.4970 C   0  0  0  0  0  0  0  0  0  0  0  0
   34.6280   29.1890   39.7620 C   0  0  0  0  0  0  0  0  0  0  0  0
   34.8560   28.5190   38.5670 C   0  0  0  0  0  0  0  0  0  0  0  0
   36.1850   28.4890   38.1570 C   0  0  0  0  0  0  0  0  0  0  0  0
   37.1440   29.0750   38.8870 N   0  0  0  0  0  0  0  0  0  0  0  0
   35.3640   30.2980   41.4340 H   0  0  0  0  0  0  0  0  0  0  0  0
   33.5840   29.2220   40.1020 H   0  0  0  0  0  0  0  0  0  0  0  0
   34.0840   28.0470   37.9810 H   0  0  0  0  0  0  0  0  0  0  0  0
   36.4650   27.9890   37.2360 H   0  0  0  0  0  0  0  0  0  0  0  0
   38.0490   28.3460   42.2470 C   0  0  0  0  0  0  0  0  0  0  0  0
   37.3740   28.2840   43.3200 O   0  0  0  0  0  0  0  0  0  0  0  0
   38.1780   26.9930   41.6270 C   0  0  0  0  0  3  0  0  0  0  0  0
   37.0100   26.1910   42.1080 C   0  0  0  0  0  2  0  0  0  0  0  0
   37.1690   24.7060   41.9620 C   0  0  0  0  0  2  0  0  0  0  0  0
   38.4940   24.1960   42.4280 C   0  0  0  0  0  2  0  0  0  0  0  0
   39.4330   25.2600   42.8990 C   0  0  0  0  0  2  0  0  0  0  0  0
   39.5160   26.4050   41.9270 C   0  0  0  0  0  2  0  0  0  0  0  0
  1  7  1  0  0  0  0
  2 19  1  0  0  0  0
  2  1  2  0  0  0  0
  3  2  1  0  0  0  0
  4  3  2  0  0  0  0
  4  5  1  0  0  0  0
  5  6  2  0  0  0  0
  6  1  1  0  0  0  0
  8  5  1  0  0  0  0
  9 10  1  0  0  0  0
  9  3  1  0  0  0  0
 10 15  1  0  0  0  0
 11 16  1  0  0  0  0
 11 10  2  0  0  0  0
 12 11  1  0  0  0  0
 13 12  2  0  0  0  0
 13 14  1  0  0  0  0
 14  9  2  0  0  0  0
 17 12  1  0  0  0  0
 18 13  1  0  0  0  0
 19 20  2  0  0  0  0
 21 26  1  0  0  0  0
 21 22  1  0  0  0  0
 21 19  1  0  0  0  0
 23 22  1  0  0  0  0
 23 24  1  0  0  0  0
 24 25  1  0  0  0  0
 26 25  1  0  0  0  0
M  END
>  <minimizedAffinity>
-5.12568903

$$$$

 OpenBabel03252507173D

 26 28  0  0  0  0  0  0  0  0999 V2000
   39.1240   32.1070   40.0690 C   0  0  0  0  0  0  0  0  0  0  0  0
   38.5220   30.9410   40.6020 C   0  0  0  0  0  0  0  0  0  0  0  0
   39.3000   30.1920   41.4830 C   0  0  0  0  0  0  0  0  0  0  0  0
   40.5510   30.5850   41.7880 N   0  0  0  0  0  0  0  0  0  0  0  0
   41.0990   31.7220   41.2500 C   0  0  0  0  0  0  0  0  0  0  0  0
   40.3710   32.4480   40.4090 N   0  0  0  0  0  0  0  0  0  0  0  0
   38.5490   32.7300   39.3680 H   0  0  0  0  0  0  0  0  0  0  0  0
   42.1070   31.9020   41.5930 H   0  0  0  0  0  0  0  0  0  0  0  0
   38.7060   28.9840   42.0490 C   0  0  0  0  0  0  0  0  0  0  0  0
   37.9090   29.0700   43.1670 C   0  0  0  0  0  0  0  0  0  0  0  0
   37.3620   27.9150   43.6790 C   0  0  0  0  0  0  0  0  0  0  0  0
   37.5730   26.6600   43.1240 C   0  0  0  0  0  0  0  0  0  0  0  0
   38.3880   26.6480   41.9960 C   0  0  0  0  0  0  0  0  0  0  0  0
   38.9120   27.7830   41.5130 N   0  0  0  0  0  0  0  0  0  0  0  0
   37.6930   30.0270   43.6650 H   0  0  0  0  0  0  0  0  0  0  0  0
   36.7210   27.9440   44.5700 H   0  0  0  0  0  0  0  0  0  0  0  0
   37.1520   25.7480   43.5140 H   0  0  0  0  0  0  0  0  0  0  0  0
   38.6130   25.7140   41.4910 H   0  0  0  0  0  0  0  0  0  0  0  0
   37.1990   30.5750   40.2440 C   0  0  0  0  0  0  0  0  0  0  0  0
   36.2640   31.3010   40.7050 O   0  0  0  0  0  0  0  0  0  0  0  0
   36.6420   29.4730   39.4040 C   0  0  0  0  0  3  0  0  0  0  0  0
   36.2730   30.0840   38.0890 C   0  0  0  0  0  2  0  0  0  0  0  0
   35.3180   29.2680   37.2670 C   0  0  0  0  0  2  0  0  0  0  0  0
   34.1550   28.7440   38.0460 C   0  0  0  0  0  2  0  0  0  0  0  0
   34.1870   29.0780   39.5030 C   0  0  0  0  0  2  0  0  0  0  0  0
   35.5280   28.7840   40.1160 C   0  0  0  0  0  2  0  0  0  0  0  0
  1  6  2  0  0  0  0
  1  2  1  0  0  0  0
  2  3  2  0  0  0  0
  3  4  1  0  0  0  0
  3  9  1  0  0  0  0
  5  8  1  0  0  0  0
  5  4  2  0  0  0  0
  6  5  1  0  0  0  0
  7  1  1  0  0  0  0
  9 10  1  0  0  0  0
 10 15  1  0  0  0  0
 10 11  2  0  0  0  0
 11 16  1  0  0  0  0
 12 17  1  0  0  0  0
 12 11  1  0  0  0  0
 13 12  2  0  0  0  0
 14 13  1  0  0  0  0
 14  9  2  0  0  0  0
 18 13  1  0  0  0  0
 19  2  1  0  0  0  0
 19 20  2  0  0  0  0
 21 26  1  0  0  0  0
 21 19  1  0  0  0  0
 22 21  1  0  0  0  0
 23 24  1  0  0  0  0
 23 22  1  0  0  0  0
 24 25  1  0  0  0  0
 25 26  1  0  0  0  0
M  END
>  <minimizedAffinity>
-5.12348795

$$$$

 OpenBabel03252507173D

 26 28  0  0  0  0  0  0  0  0999 V2000
   36.9310   30.1150   37.9300 C   0  0  0  0  0  0  0  0  0  0  0  0
   37.1810   29.8180   39.2930 C   0  0  0  0  0  0  0  0  0  0  0  0
   37.3820   28.4750   39.6050 C   0  0  0  0  0  0  0  0  0  0  0  0
   37.3330   27.5370   38.6410 N   0  0  0  0  0  0  0  0  0  0  0  0
   37.0870   27.8660   37.3310 C   0  0  0  0  0  0  0  0  0  0  0  0
   36.8940   29.1410   37.0150 N   0  0  0  0  0  0  0  0  0  0  0  0
   36.7660   31.1610   37.6350 H   0  0  0  0  0  0  0  0  0  0  0  0
   37.0810   27.0030   36.6790 H   0  0  0  0  0  0  0  0  0  0  0  0
   37.6420   28.1390   41.0020 C   0  0  0  0  0  0  0  0  0  0  0  0
   36.5980   27.8130   41.8370 C   0  0  0  0  0  0  0  0  0  0  0  0
   36.8720   27.5010   43.1490 C   0  0  0  0  0  0  0  0  0  0  0  0
   38.1550   27.4960   43.6800 C   0  0  0  0  0  0  0  0  0  0  0  0
   39.1620   27.8350   42.7800 C   0  0  0  0  0  0  0  0  0  0  0  0
   38.8740   28.1360   41.5060 N   0  0  0  0  0  0  0  0  0  0  0  0
   35.5520   27.7940   41.4930 H   0  0  0  0  0  0  0  0  0  0  0  0
   36.0640   27.2370   43.8440 H   0  0  0  0  0  0  0  0  0  0  0  0
   38.3850   27.2540   44.7040 H   0  0  0  0  0  0  0  0  0  0  0  0
   40.1980   27.8590   43.1000 H   0  0  0  0  0  0  0  0  0  0  0  0
   37.2210   30.8490   40.2670 C   0  0  0  0  0  0  0  0  0  0  0  0
   36.1490   31.0600   40.9140 O   0  0  0  0  0  0  0  0  0  0  0  0
   38.2990   31.7800   40.7170 C   0  0  0  0  0  3  0  0  0  0  0  0
   37.8800   33.1520   40.2940 C   0  0  0  0  0  2  0  0  0  0  0  0
   38.9910   34.1610   40.2580 C   0  0  0  0  0  2  0  0  0  0  0  0
   40.2300   33.6650   39.5860 C   0  0  0  0  0  2  0  0  0  0  0  0
   40.1550   32.2440   39.1250 C   0  0  0  0  0  2  0  0  0  0  0  0
   39.6240   31.3340   40.1980 C   0  0  0  0  0  2  0  0  0  0  0  0
  1  2  1  0  0  0  0
  2  3  2  0  0  0  0
  2 19  1  0  0  0  0
  3  9  1  0  0  0  0
  4  3  1  0  0  0  0
  5  4  2  0  0  0  0
  6  5  1  0  0  0  0
  6  1  2  0  0  0  0
  7  1  1  0  0  0  0
  8  5  1  0  0  0  0
  9 14  2  0  0  0  0
  9 10  1  0  0  0  0
 10 11  2  0  0  0  0
 11 12  1  0  0  0  0
 11 16  1  0  0  0  0
 12 17  1  0  0  0  0
 13 18  1  0  0  0  0
 13 12  2  0  0  0  0
 14 13  1  0  0  0  0
 15 10  1  0  0  0  0
 19 21  1  0  0  0  0
 19 20  2  0  0  0  0
 22 21  1  0  0  0  0
 23 22  1  0  0  0  0
 24 23  1  0  0  0  0
 25 24  1  0  0  0  0
 25 26  1  0  0  0  0
 26 21  1  0  0  0  0
M  END
>  <minimizedAffinity>
-5.04425812

$$$$

 OpenBabel03252507173D

 26 28  0  0  0  0  0  0  0  0999 V2000
   39.8860   28.4080   42.2960 C   0  0  0  0  0  0  0  0  0  0  0  0
   38.9140   28.5830   41.2800 C   0  0  0  0  0  0  0  0  0  0  0  0
   37.6530   28.0450   41.5330 C   0  0  0  0  0  0  0  0  0  0  0  0
   37.4080   27.3990   42.6880 N   0  0  0  0  0  0  0  0  0  0  0  0
   38.3780   27.2510   43.6480 C   0  0  0  0  0  0  0  0  0  0  0  0
   39.5840   27.7580   43.4250 N   0  0  0  0  0  0  0  0  0  0  0  0
   40.8960   28.8150   42.1430 H   0  0  0  0  0  0  0  0  0  0  0  0
   38.0250   26.7120   44.5160 H   0  0  0  0  0  0  0  0  0  0  0  0
   36.6310   28.2100   40.5030 C   0  0  0  0  0  0  0  0  0  0  0  0
   35.6030   29.1040   40.6930 C   0  0  0  0  0  0  0  0  0  0  0  0
   34.6530   29.2390   39.7060 C   0  0  0  0  0  0  0  0  0  0  0  0
   34.6760   28.5160   38.5210 C   0  0  0  0  0  0  0  0  0  0  0  0
   35.7430   27.6310   38.3960 C   0  0  0  0  0  0  0  0  0  0  0  0
   36.6570   27.5140   39.3690 N   0  0  0  0  0  0  0  0  0  0  0  0
   35.5140   29.7150   41.6040 H   0  0  0  0  0  0  0  0  0  0  0  0
   33.8180   29.9430   39.8230 H   0  0  0  0  0  0  0  0  0  0  0  0
   33.9390   28.6110   37.7410 H   0  0  0  0  0  0  0  0  0  0  0  0
   35.8480   27.0200   37.5060 H   0  0  0  0  0  0  0  0  0  0  0  0
   39.2300   29.2720   40.0810 C   0  0  0  0  0  0  0  0  0  0  0  0
   39.6610   28.5670   39.1170 O   0  0  0  0  0  0  0  0  0  0  0  0
   39.1620   30.7120   39.6890 C   0  0  0  0  0  3  0  0  0  0  0  0
   38.4230   31.4170   40.7830 C   0  0  0  0  0  2  0  0  0  0  0  0
   37.8720   32.7600   40.4000 C   0  0  0  0  0  2  0  0  0  0  0  0
   37.1660   32.7640   39.0830 C   0  0  0  0  0  2  0  0  0  0  0  0
   37.1870   31.4520   38.3670 C   0  0  0  0  0  2  0  0  0  0  0  0
   38.5680   30.8560   38.3290 C   0  0  0  0  0  2  0  0  0  0  0  0
  1  6  1  0  0  0  0
  2  3  1  0  0  0  0
  2  1  2  0  0  0  0
  3  4  2  0  0  0  0
  4  5  1  0  0  0  0
  5  8  1  0  0  0  0
  6  5  2  0  0  0  0
  7  1  1  0  0  0  0
  9 10  1  0  0  0  0
  9  3  1  0  0  0  0
 10 15  1  0  0  0  0
 11 16  1  0  0  0  0
 11 10  2  0  0  0  0
 12 11  1  0  0  0  0
 13 12  2  0  0  0  0
 13 14  1  0  0  0  0
 14  9  2  0  0  0  0
 17 12  1  0  0  0  0
 18 13  1  0  0  0  0
 19  2  1  0  0  0  0
 20 19  2  0  0  0  0
 21 19  1  0  0  0  0
 21 22  1  0  0  0  0
 23 22  1  0  0  0  0
 24 23  1  0  0  0  0
 25 24  1  0  0  0  0
 26 25  1  0  0  0  0
 26 21  1  0  0  0  0
M  END
>  <minimizedAffinity>
-4.90390921

$$$$

 OpenBabel03252507173D

 26 28  0  0  0  0  0  0  0  0999 V2000
   36.5350   28.0300   37.5360 C   0  0  0  0  0  0  0  0  0  0  0  0
   37.0500   28.2140   38.8430 C   0  0  0  0  0  0  0  0  0  0  0  0
   36.8720   27.1550   39.7310 C   0  0  0  0  0  0  0  0  0  0  0  0
   36.2410   26.0340   39.3350 N   0  0  0  0  0  0  0  0  0  0  0  0
   35.7560   25.8950   38.0590 C   0  0  0  0  0  0  0  0  0  0  0  0
   35.9160   26.8940   37.1990 N   0  0  0  0  0  0  0  0  0  0  0  0
   36.6500   28.8390   36.8000 H   0  0  0  0  0  0  0  0  0  0  0  0
   35.2780   24.9390   37.8970 H   0  0  0  0  0  0  0  0  0  0  0  0
   37.3930   27.3150   41.0860 C   0  0  0  0  0  0  0  0  0  0  0  0
   36.5600   27.7360   42.0970 C   0  0  0  0  0  0  0  0  0  0  0  0
   37.0780   27.8790   43.3640 C   0  0  0  0  0  0  0  0  0  0  0  0
   38.4050   27.6190   43.6800 C   0  0  0  0  0  0  0  0  0  0  0  0
   39.1900   27.1980   42.6100 C   0  0  0  0  0  0  0  0  0  0  0  0
   38.6660   27.0660   41.3830 N   0  0  0  0  0  0  0  0  0  0  0  0
   35.4960   27.9610   41.9290 H   0  0  0  0  0  0  0  0  0  0  0  0
   36.4430   28.2130   44.1960 H   0  0  0  0  0  0  0  0  0  0  0  0
   38.8240   27.7270   44.6670 H   0  0  0  0  0  0  0  0  0  0  0  0
   40.2400   26.9710   42.7560 H   0  0  0  0  0  0  0  0  0  0  0  0
   37.7060   29.4190   39.2050 C   0  0  0  0  0  0  0  0  0  0  0  0
   38.9480   29.4880   38.9510 O   0  0  0  0  0  0  0  0  0  0  0  0
   37.2300   30.6800   39.8480 C   0  0  0  0  0  3  0  0  0  0  0  0
   37.2560   31.7350   38.7880 C   0  0  0  0  0  2  0  0  0  0  0  0
   37.2340   33.1440   39.3070 C   0  0  0  0  0  2  0  0  0  0  0  0
   38.1890   33.3830   40.4310 C   0  0  0  0  0  2  0  0  0  0  0  0
   38.9450   32.1690   40.8670 C   0  0  0  0  0  2  0  0  0  0  0  0
   38.0390   30.9840   41.0640 C   0  0  0  0  0  2  0  0  0  0  0  0
  1  2  1  0  0  0  0
  2 19  1  0  0  0  0
  2  3  2  0  0  0  0
  3  9  1  0  0  0  0
  4  3  1  0  0  0  0
  5  4  2  0  0  0  0
  6  1  2  0  0  0  0
  6  5  1  0  0  0  0
  7  1  1  0  0  0  0
  8  5  1  0  0  0  0
  9 14  2  0  0  0  0
  9 10  1  0  0  0  0
 10 11  2  0  0  0  0
 11 12  1  0  0  0  0
 11 16  1  0  0  0  0
 12 17  1  0  0  0  0
 13 18  1  0  0  0  0
 13 12  2  0  0  0  0
 14 13  1  0  0  0  0
 15 10  1  0  0  0  0
 19 21  1  0  0  0  0
 20 19  2  0  0  0  0
 21 26  1  0  0  0  0
 22 23  1  0  0  0  0
 22 21  1  0  0  0  0
 23 24  1  0  0  0  0
 24 25  1  0  0  0  0
 25 26  1  0  0  0  0
M  END
>  <minimizedAffinity>
-4.89238596

$$$$
