
 OpenBabel03252507163D

 26 28  0  0  0  0  0  0  0  0999 V2000
   45.2120   31.9860   43.2660 C   0  0  0  0  0  0  0  0  0  0  0  0
   45.5770   31.5150   44.5520 C   0  0  0  0  0  0  0  0  0  0  0  0
   45.8760   32.4870   45.5040 C   0  0  0  0  0  0  0  0  0  0  0  0
   45.8130   33.7940   45.1850 N   0  0  0  0  0  0  0  0  0  0  0  0
   45.4550   34.2100   43.9270 C   0  0  0  0  0  0  0  0  0  0  0  0
   45.1660   33.2970   43.0080 N   0  0  0  0  0  0  0  0  0  0  0  0
   44.9670   31.2560   42.4820 H   0  0  0  0  0  0  0  0  0  0  0  0
   45.4490   35.2860   43.8300 H   0  0  0  0  0  0  0  0  0  0  0  0
   46.2560   32.0320   46.8380 C   0  0  0  0  0  0  0  0  0  0  0  0
   45.2860   31.7860   47.7820 C   0  0  0  0  0  0  0  0  0  0  0  0
   45.6730   31.3580   49.0320 C   0  0  0  0  0  0  0  0  0  0  0  0
   46.9980   31.1580   49.3930 C   0  0  0  0  0  0  0  0  0  0  0  0
   47.9250   31.4250   48.3900 C   0  0  0  0  0  0  0  0  0  0  0  0
   47.5290   31.8420   47.1800 N   0  0  0  0  0  0  0  0  0  0  0  0
   44.2140   31.9200   47.5740 H   0  0  0  0  0  0  0  0  0  0  0  0
   44.9260   31.1520   49.8110 H   0  0  0  0  0  0  0  0  0  0  0  0
   47.3160   30.8230   50.3670 H   0  0  0  0  0  0  0  0  0  0  0  0
   48.9870   31.2990   48.5760 H   0  0  0  0  0  0  0  0  0  0  0  0
   45.6280   30.1240   44.8310 C   0  0  0  0  0  0  0  0  0  0  0  0
   44.5660   29.5960   45.2840 O   0  0  0  0  0  0  0  0  0  0  0  0
   46.7090   29.1020   44.7000 C   0  0  0  0  0  3  0  0  0  0  0  0
   46.9430   28.5510   46.0710 C   0  0  0  0  0  2  0  0  0  0  0  0
   48.2540   27.8410   46.2440 C   0  0  0  0  0  2  0  0  0  0  0  0
   49.4190   28.5870   45.6780 C   0  0  0  0  0  2  0  0  0  0  0  0
   49.0590   29.8680   44.9980 C   0  0  0  0  0  2  0  0  0  0  0  0
   47.9100   29.6920   44.0420 C   0  0  0  0  0  2  0  0  0  0  0  0
  1  2  1  0  0  0  0
  2 19  1  0  0  0  0
  2  3  2  0  0  0  0
  3  9  1  0  0  0  0
  4  3  1  0  0  0  0
  5  4  2  0  0  0  0
  6  1  2  0  0  0  0
  6  5  1  0  0  0  0
  7  1  1  0  0  0  0
  8  5  1  0  0  0  0
  9 14  2  0  0  0  0
  9 10  1  0  0  0  0
 10 11  2  0  0  0  0
 11 12  1  0  0  0  0
 11 16  1  0  0  0  0
 12 17  1  0  0  0  0
 13 18  1  0  0  0  0
 13 12  2  0  0  0  0
 14 13  1  0  0  0  0
 15 10  1  0  0  0  0
 19 20  2  0  0  0  0
 21 19  1  0  0  0  0
 21 22  1  0  0  0  0
 22 23  1  0  0  0  0
 24 23  1  0  0  0  0
 25 24  1  0  0  0  0
 26 21  1  0  0  0  0
 26 25  1  0  0  0  0
M  END
>  <minimizedAffinity>
-3.37742233

>  <minimizedRMSD>
6.22041655

$$$$
