
 OpenBabel03252509273D

 27 29  0  0  1  0  0  0  0  0999 V2000
   37.1890   26.6690   42.3340 C   0  0  1  0  0  0  0  0  0  0  0  0
   36.4080   27.4020   43.4630 C   0  0  0  0  0  0  0  0  0  0  0  0
   36.8560   28.0120   42.0950 C   0  0  2  0  0  0  0  0  0  0  0  0
   36.6240   25.8150   41.9020 H   0  0  0  0  0  0  0  0  0  0  0  0
   35.3200   27.1920   43.4940 H   0  0  0  0  0  0  0  0  0  0  0  0
   36.9340   27.7080   44.3610 H   0  0  0  0  0  0  0  0  0  0  0  0
   37.6770   28.7790   42.2510 H   0  0  0  0  0  0  0  0  0  0  0  0
   40.3490   24.8060   43.1220 C   0  0  0  0  0  0  0  0  0  0  0  0
   39.0020   25.0250   42.7140 C   0  0  0  0  0  0  0  0  0  0  0  0
   38.5790   26.3100   42.7990 C   0  0  0  0  0  0  0  0  0  0  0  0
   39.3960   27.3250   43.2510 N   0  0  0  0  0  0  0  0  0  0  0  0
   40.6740   27.0760   43.6320 C   0  0  0  0  0  0  0  0  0  0  0  0
   41.1470   25.8020   43.5640 N   0  0  0  0  0  0  0  0  0  0  0  0
   40.6880   23.7670   43.0520 H   0  0  0  0  0  0  0  0  0  0  0  0
   41.3420   27.8300   43.9890 H   0  0  0  0  0  0  0  0  0  0  0  0
   38.1520   23.9840   42.2700 N   0  0  0  0  0  0  0  0  0  0  0  0
   37.8340   23.7940   41.2800 H   0  0  0  0  0  0  0  0  0  0  0  0
   37.7280   23.2530   42.9170 H   0  0  0  0  0  0  0  0  0  0  0  0
   35.7740   28.4080   41.1120 C   0  0  0  0  0  0  0  0  0  0  0  0
   35.8310   27.7600   40.2120 H   0  0  0  0  0  0  0  0  0  0  0  0
   34.7750   28.2470   41.5950 H   0  0  0  0  0  0  0  0  0  0  0  0
   35.9670   29.8630   40.7280 C   0  0  0  0  0  3  0  0  0  0  0  0
   37.1330   30.4720   41.4210 C   0  0  0  0  0  2  0  0  0  0  0  0
   37.9160   31.4940   40.6950 C   0  0  0  0  0  2  0  0  0  0  0  0
   37.0910   32.0750   39.5650 C   0  0  0  0  0  2  0  0  0  0  0  0
   36.9030   30.9010   38.6210 C   0  0  0  0  0  2  0  0  0  0  0  0
   35.8960   29.9900   39.2610 C   0  0  0  0  0  2  0  0  0  0  0  0
  1  4  1  6  0  0  0
  1 10  1  0  0  0  0
  1  2  1  0  0  0  0
  2  5  1  0  0  0  0
  2  6  1  0  0  0  0
  3  7  1  1  0  0  0
  3  1  1  0  0  0  0
  3  2  1  0  0  0  0
  8 13  1  0  0  0  0
  9 10  1  0  0  0  0
  9  8  2  0  0  0  0
 10 11  2  0  0  0  0
 11 12  1  0  0  0  0
 12 15  1  0  0  0  0
 13 12  2  0  0  0  0
 14  8  1  0  0  0  0
 16  9  1  0  0  0  0
 16 18  1  0  0  0  0
 17 16  1  0  0  0  0
 19 21  1  0  0  0  0
 19  3  1  0  0  0  0
 20 19  1  0  0  0  0
 22 19  1  0  0  0  0
 22 23  1  0  0  0  0
 24 23  1  0  0  0  0
 25 24  1  0  0  0  0
 26 27  1  0  0  0  0
 26 25  1  0  0  0  0
 27 22  1  0  0  0  0
M  END
>  <minimizedAffinity>
-5.33879089

$$$$

 OpenBabel03252509273D

 27 29  0  0  1  0  0  0  0  0999 V2000
   36.9260   31.3750   40.3260 C   0  0  1  0  0  0  0  0  0  0  0  0
   36.7260   30.6030   38.9900 C   0  0  0  0  0  0  0  0  0  0  0  0
   36.9800   29.9750   40.3980 C   0  0  2  0  0  0  0  0  0  0  0  0
   36.0330   31.9670   40.6220 H   0  0  0  0  0  0  0  0  0  0  0  0
   35.6720   30.4950   38.6640 H   0  0  0  0  0  0  0  0  0  0  0  0
   37.5290   30.5820   38.2620 H   0  0  0  0  0  0  0  0  0  0  0  0
   38.0110   29.5030   40.4430 H   0  0  0  0  0  0  0  0  0  0  0  0
   39.4180   34.1590   39.9760 C   0  0  0  0  0  0  0  0  0  0  0  0
   38.1670   33.4810   39.9190 C   0  0  0  0  0  0  0  0  0  0  0  0
   38.2050   32.1760   40.2870 C   0  0  0  0  0  0  0  0  0  0  0  0
   39.3720   31.5580   40.6830 N   0  0  0  0  0  0  0  0  0  0  0  0
   40.5450   32.2380   40.7220 C   0  0  0  0  0  0  0  0  0  0  0  0
   40.5590   33.5510   40.3640 N   0  0  0  0  0  0  0  0  0  0  0  0
   39.3830   35.2130   39.6780 H   0  0  0  0  0  0  0  0  0  0  0  0
   41.4730   31.8000   41.0230 H   0  0  0  0  0  0  0  0  0  0  0  0
   36.9700   34.1040   39.4920 N   0  0  0  0  0  0  0  0  0  0  0  0
   36.1510   34.3980   40.0930 H   0  0  0  0  0  0  0  0  0  0  0  0
   36.7640   34.3520   38.4790 H   0  0  0  0  0  0  0  0  0  0  0  0
   35.8640   29.1590   41.0170 C   0  0  0  0  0  0  0  0  0  0  0  0
   35.1870   29.8280   41.5920 H   0  0  0  0  0  0  0  0  0  0  0  0
   35.2690   28.6830   40.1950 H   0  0  0  0  0  0  0  0  0  0  0  0
   36.4690   28.1100   41.9320 C   0  0  0  0  0  3  0  0  0  0  0  0
   37.0460   26.9730   41.1680 C   0  0  0  0  0  2  0  0  0  0  0  0
   38.2520   26.3130   41.7120 C   0  0  0  0  0  2  0  0  0  0  0  0
   38.3870   26.6120   43.1910 C   0  0  0  0  0  2  0  0  0  0  0  0
   38.6380   28.1090   43.2300 C   0  0  0  0  0  2  0  0  0  0  0  0
   37.3270   28.7750   42.9300 C   0  0  0  0  0  2  0  0  0  0  0  0
  1  3  1  0  0  0  0
  1  4  1  1  0  0  0
  2  1  1  0  0  0  0
  2  3  1  0  0  0  0
  3  7  1  1  0  0  0
  3 19  1  0  0  0  0
  5  2  1  0  0  0  0
  6  2  1  0  0  0  0
  8 13  1  0  0  0  0
  9  8  2  0  0  0  0
  9 10  1  0  0  0  0
 10  1  1  0  0  0  0
 10 11  2  0  0  0  0
 11 12  1  0  0  0  0
 12 15  1  0  0  0  0
 13 12  2  0  0  0  0
 14  8  1  0  0  0  0
 16  9  1  0  0  0  0
 16 17  1  0  0  0  0
 18 16  1  0  0  0  0
 19 20  1  0  0  0  0
 19 22  1  0  0  0  0
 21 19  1  0  0  0  0
 22 27  1  0  0  0  0
 23 24  1  0  0  0  0
 23 22  1  0  0  0  0
 24 25  1  0  0  0  0
 25 26  1  0  0  0  0
 27 26  1  0  0  0  0
M  END
>  <minimizedAffinity>
-5.294415

$$$$

 OpenBabel03252509273D

 27 29  0  0  1  0  0  0  0  0999 V2000
   35.9550   28.5740   39.6280 C   0  0  1  0  0  0  0  0  0  0  0  0
   35.8770   27.6540   38.3750 C   0  0  0  0  0  0  0  0  0  0  0  0
   36.8300   27.4770   39.6020 C   0  0  2  0  0  0  0  0  0  0  0  0
   35.0110   28.5880   40.2130 H   0  0  0  0  0  0  0  0  0  0  0  0
   35.0430   26.9240   38.3800 H   0  0  0  0  0  0  0  0  0  0  0  0
   36.3020   27.9950   37.4370 H   0  0  0  0  0  0  0  0  0  0  0  0
   37.9040   27.6840   39.3040 H   0  0  0  0  0  0  0  0  0  0  0  0
   36.9380   32.1950   39.7030 C   0  0  0  0  0  0  0  0  0  0  0  0
   36.3800   30.9600   40.1420 C   0  0  0  0  0  0  0  0  0  0  0  0
   36.4580   29.9450   39.2460 C   0  0  0  0  0  0  0  0  0  0  0  0
   37.0330   30.1040   38.0030 N   0  0  0  0  0  0  0  0  0  0  0  0
   37.5530   31.2980   37.6210 C   0  0  0  0  0  0  0  0  0  0  0  0
   37.5010   32.3480   38.4850 N   0  0  0  0  0  0  0  0  0  0  0  0
   36.8730   33.0130   40.4290 H   0  0  0  0  0  0  0  0  0  0  0  0
   38.0080   31.4670   36.6680 H   0  0  0  0  0  0  0  0  0  0  0  0
   35.7680   30.7970   41.4080 N   0  0  0  0  0  0  0  0  0  0  0  0
   36.1550   30.2790   42.2440 H   0  0  0  0  0  0  0  0  0  0  0  0
   34.8150   31.1970   41.6570 H   0  0  0  0  0  0  0  0  0  0  0  0
   36.6220   26.2640   40.4850 C   0  0  0  0  0  0  0  0  0  0  0  0
   35.5690   26.2360   40.8400 H   0  0  0  0  0  0  0  0  0  0  0  0
   36.8090   25.3410   39.8760 H   0  0  0  0  0  0  0  0  0  0  0  0
   37.5740   26.3440   41.6640 C   0  0  0  0  0  3  0  0  0  0  0  0
   38.8780   26.9480   41.2850 C   0  0  0  0  0  2  0  0  0  0  0  0
   39.5780   27.7740   42.2910 C   0  0  0  0  0  2  0  0  0  0  0  0
   39.0640   27.4500   43.6790 C   0  0  0  0  0  2  0  0  0  0  0  0
   37.6200   27.9170   43.6420 C   0  0  0  0  0  2  0  0  0  0  0  0
   36.8630   26.9120   42.8230 C   0  0  0  0  0  2  0  0  0  0  0  0
  1  4  1  1  0  0  0
  2  5  1  0  0  0  0
  2  3  1  0  0  0  0
  2  1  1  0  0  0  0
  3  7  1  6  0  0  0
  3  1  1  0  0  0  0
  3 19  1  0  0  0  0
  6  2  1  0  0  0  0
  8  9  1  0  0  0  0
  8 14  1  0  0  0  0
  9 16  1  0  0  0  0
 10  1  1  0  0  0  0
 10  9  2  0  0  0  0
 11 10  1  0  0  0  0
 12 11  2  0  0  0  0
 12 13  1  0  0  0  0
 13  8  2  0  0  0  0
 15 12  1  0  0  0  0
 16 18  1  0  0  0  0
 16 17  1  0  0  0  0
 19 20  1  0  0  0  0
 19 22  1  0  0  0  0
 21 19  1  0  0  0  0
 22 27  1  0  0  0  0
 23 22  1  0  0  0  0
 23 24  1  0  0  0  0
 24 25  1  0  0  0  0
 26 25  1  0  0  0  0
 27 26  1  0  0  0  0
M  END
>  <minimizedAffinity>
-5.19054079

$$$$

 OpenBabel03252509273D

 27 29  0  0  1  0  0  0  0  0999 V2000
   36.3610   30.0740   40.9590 C   0  0  1  0  0  0  0  0  0  0  0  0
   35.4120   28.8460   40.8470 C   0  0  0  0  0  0  0  0  0  0  0  0
   36.8410   28.8620   41.4790 C   0  0  2  0  0  0  0  0  0  0  0  0
   35.9430   30.8860   41.5920 H   0  0  0  0  0  0  0  0  0  0  0  0
   34.6130   28.7990   41.6130 H   0  0  0  0  0  0  0  0  0  0  0  0
   35.2780   28.3620   39.8840 H   0  0  0  0  0  0  0  0  0  0  0  0
   37.5690   28.2790   40.8320 H   0  0  0  0  0  0  0  0  0  0  0  0
   37.5600   32.1490   38.0710 C   0  0  0  0  0  0  0  0  0  0  0  0
   37.0990   31.8370   39.3820 C   0  0  0  0  0  0  0  0  0  0  0  0
   36.7980   30.5300   39.5880 C   0  0  0  0  0  0  0  0  0  0  0  0
   36.9290   29.5810   38.5970 N   0  0  0  0  0  0  0  0  0  0  0  0
   37.3700   29.9190   37.3590 C   0  0  0  0  0  0  0  0  0  0  0  0
   37.6870   31.2160   37.1020 N   0  0  0  0  0  0  0  0  0  0  0  0
   37.8020   33.2050   37.9080 H   0  0  0  0  0  0  0  0  0  0  0  0
   37.4860   29.2170   36.5620 H   0  0  0  0  0  0  0  0  0  0  0  0
   36.9420   32.8110   40.3970 N   0  0  0  0  0  0  0  0  0  0  0  0
   37.5530   32.9530   41.2490 H   0  0  0  0  0  0  0  0  0  0  0  0
   36.1600   33.5310   40.4060 H   0  0  0  0  0  0  0  0  0  0  0  0
   36.9550   28.6170   42.9690 C   0  0  0  0  0  0  0  0  0  0  0  0
   37.4580   29.4820   43.4530 H   0  0  0  0  0  0  0  0  0  0  0  0
   35.9230   28.5290   43.3980 H   0  0  0  0  0  0  0  0  0  0  0  0
   37.7530   27.3470   43.1990 C   0  0  0  0  0  3  0  0  0  0  0  0
   37.1790   26.1880   42.4670 C   0  0  0  0  0  2  0  0  0  0  0  0
   38.1110   25.1680   41.9420 C   0  0  0  0  0  2  0  0  0  0  0  0
   39.4370   25.2510   42.6700 C   0  0  0  0  0  2  0  0  0  0  0  0
   39.9820   26.6080   42.2630 C   0  0  0  0  0  2  0  0  0  0  0  0
   39.1870   27.6360   43.0150 C   0  0  0  0  0  2  0  0  0  0  0  0
  1  3  1  0  0  0  0
  1  4  1  1  0  0  0
  2  1  1  0  0  0  0
  2  3  1  0  0  0  0
  2  5  1  0  0  0  0
  3  7  1  6  0  0  0
  3 19  1  0  0  0  0
  6  2  1  0  0  0  0
  8  9  1  0  0  0  0
  9 10  2  0  0  0  0
  9 16  1  0  0  0  0
 10  1  1  0  0  0  0
 11 10  1  0  0  0  0
 12 11  2  0  0  0  0
 13 12  1  0  0  0  0
 13  8  2  0  0  0  0
 14  8  1  0  0  0  0
 15 12  1  0  0  0  0
 16 18  1  0  0  0  0
 16 17  1  0  0  0  0
 19 22  1  0  0  0  0
 19 21  1  0  0  0  0
 19 20  1  0  0  0  0
 23 22  1  0  0  0  0
 24 23  1  0  0  0  0
 24 25  1  0  0  0  0
 26 25  1  0  0  0  0
 26 27  1  0  0  0  0
 27 22  1  0  0  0  0
M  END
>  <minimizedAffinity>
-5.14622927

$$$$

 OpenBabel03252509273D

 27 29  0  0  1  0  0  0  0  0999 V2000
   36.7790   29.8140   41.2250 C   0  0  1  0  0  0  0  0  0  0  0  0
   35.5400   29.1190   40.5900 C   0  0  0  0  0  0  0  0  0  0  0  0
   36.6690   28.4290   41.4220 C   0  0  2  0  0  0  0  0  0  0  0  0
   36.5050   30.5640   41.9980 H   0  0  0  0  0  0  0  0  0  0  0  0
   34.5970   29.2240   41.1640 H   0  0  0  0  0  0  0  0  0  0  0  0
   35.5130   28.9530   39.5180 H   0  0  0  0  0  0  0  0  0  0  0  0
   37.3030   27.7640   40.7570 H   0  0  0  0  0  0  0  0  0  0  0  0
   38.6020   32.0800   38.8530 C   0  0  0  0  0  0  0  0  0  0  0  0
   37.6570   31.6690   39.8360 C   0  0  0  0  0  0  0  0  0  0  0  0
   37.6930   30.3500   40.1500 C   0  0  0  0  0  0  0  0  0  0  0  0
   38.5790   29.4770   39.5550 N   0  0  0  0  0  0  0  0  0  0  0  0
   39.4640   29.9080   38.6210 C   0  0  0  0  0  0  0  0  0  0  0  0
   39.4690   31.2230   38.2730 N   0  0  0  0  0  0  0  0  0  0  0  0
   38.5700   33.1460   38.6030 H   0  0  0  0  0  0  0  0  0  0  0  0
   40.1690   29.2680   38.1350 H   0  0  0  0  0  0  0  0  0  0  0  0
   36.7300   32.5560   40.4340 N   0  0  0  0  0  0  0  0  0  0  0  0
   36.7510   32.9370   41.4190 H   0  0  0  0  0  0  0  0  0  0  0  0
   35.8790   32.9460   39.9290 H   0  0  0  0  0  0  0  0  0  0  0  0
   36.2920   27.8370   42.7640 C   0  0  0  0  0  0  0  0  0  0  0  0
   36.2800   28.6370   43.5360 H   0  0  0  0  0  0  0  0  0  0  0  0
   35.2580   27.4090   42.6900 H   0  0  0  0  0  0  0  0  0  0  0  0
   37.3020   26.7660   43.1320 C   0  0  0  0  0  3  0  0  0  0  0  0
   37.4770   25.7700   42.0420 C   0  0  0  0  0  2  0  0  0  0  0  0
   38.8190   25.1790   41.8520 C   0  0  0  0  0  2  0  0  0  0  0  0
   39.6430   25.3420   43.1130 C   0  0  0  0  0  2  0  0  0  0  0  0
   39.8270   26.8450   43.2250 C   0  0  0  0  0  2  0  0  0  0  0  0
   38.5110   27.4080   43.6780 C   0  0  0  0  0  2  0  0  0  0  0  0
  1  3  1  0  0  0  0
  1  4  1  1  0  0  0
  2  5  1  0  0  0  0
  2  1  1  0  0  0  0
  2  3  1  0  0  0  0
  3  7  1  6  0  0  0
  3 19  1  0  0  0  0
  6  2  1  0  0  0  0
  8  9  1  0  0  0  0
  9 10  2  0  0  0  0
  9 16  1  0  0  0  0
 10  1  1  0  0  0  0
 11 10  1  0  0  0  0
 12 11  2  0  0  0  0
 13 12  1  0  0  0  0
 13  8  2  0  0  0  0
 14  8  1  0  0  0  0
 15 12  1  0  0  0  0
 16 17  1  0  0  0  0
 18 16  1  0  0  0  0
 19 22  1  0  0  0  0
 19 20  1  0  0  0  0
 21 19  1  0  0  0  0
 22 27  1  0  0  0  0
 23 22  1  0  0  0  0
 24 23  1  0  0  0  0
 24 25  1  0  0  0  0
 25 26  1  0  0  0  0
 26 27  1  0  0  0  0
M  END
>  <minimizedAffinity>
-5.05260277

$$$$

 OpenBabel03252509273D

 27 29  0  0  1  0  0  0  0  0999 V2000
   36.8180   28.6680   41.6630 C   0  0  1  0  0  0  0  0  0  0  0  0
   36.3550   27.7840   40.4690 C   0  0  0  0  0  0  0  0  0  0  0  0
   37.3500   27.3710   41.6020 C   0  0  2  0  0  0  0  0  0  0  0  0
   35.9840   28.9540   42.3390 H   0  0  0  0  0  0  0  0  0  0  0  0
   35.3580   27.3150   40.5930 H   0  0  0  0  0  0  0  0  0  0  0  0
   36.7510   27.9770   39.4780 H   0  0  0  0  0  0  0  0  0  0  0  0
   38.4010   27.2670   41.1880 H   0  0  0  0  0  0  0  0  0  0  0  0
   37.9080   32.0960   40.5920 C   0  0  0  0  0  0  0  0  0  0  0  0
   37.0370   31.0460   41.0030 C   0  0  0  0  0  0  0  0  0  0  0  0
   37.6320   29.8390   41.1680 C   0  0  0  0  0  0  0  0  0  0  0  0
   38.9800   29.6480   40.9500 N   0  0  0  0  0  0  0  0  0  0  0  0
   39.7770   30.6740   40.5580 C   0  0  0  0  0  0  0  0  0  0  0  0
   39.2280   31.9060   40.3800 N   0  0  0  0  0  0  0  0  0  0  0  0
   37.4240   33.0700   40.4600 H   0  0  0  0  0  0  0  0  0  0  0  0
   40.8260   30.5720   40.3770 H   0  0  0  0  0  0  0  0  0  0  0  0
   35.6490   31.2310   41.2070 N   0  0  0  0  0  0  0  0  0  0  0  0
   35.1360   31.2650   42.1310 H   0  0  0  0  0  0  0  0  0  0  0  0
   34.9490   31.3620   40.4160 H   0  0  0  0  0  0  0  0  0  0  0  0
   36.9160   26.2790   42.5570 C   0  0  0  0  0  0  0  0  0  0  0  0
   37.2380   26.5370   43.5900 H   0  0  0  0  0  0  0  0  0  0  0  0
   35.7970   26.2170   42.5460 H   0  0  0  0  0  0  0  0  0  0  0  0
   37.5410   24.9670   42.1220 C   0  0  0  0  0  3  0  0  0  0  0  0
   36.5890   24.1260   41.3520 C   0  0  0  0  0  2  0  0  0  0  0  0
   37.1310   23.2820   40.2660 C   0  0  0  0  0  2  0  0  0  0  0  0
   38.6180   23.0710   40.4640 C   0  0  0  0  0  2  0  0  0  0  0  0
   39.2010   24.4610   40.2850 C   0  0  0  0  0  2  0  0  0  0  0  0
   38.8620   25.2340   41.5260 C   0  0  0  0  0  2  0  0  0  0  0  0
  1  4  1  1  0  0  0
  2  5  1  0  0  0  0
  2  3  1  0  0  0  0
  2  1  1  0  0  0  0
  3  7  1  6  0  0  0
  3  1  1  0  0  0  0
  3 19  1  0  0  0  0
  6  2  1  0  0  0  0
  8  9  1  0  0  0  0
  9 10  2  0  0  0  0
  9 16  1  0  0  0  0
 10  1  1  0  0  0  0
 11 10  1  0  0  0  0
 12 11  2  0  0  0  0
 13 12  1  0  0  0  0
 13  8  2  0  0  0  0
 14  8  1  0  0  0  0
 15 12  1  0  0  0  0
 16 17  1  0  0  0  0
 18 16  1  0  0  0  0
 19 20  1  0  0  0  0
 21 19  1  0  0  0  0
 22 19  1  0  0  0  0
 23 22  1  0  0  0  0
 24 25  1  0  0  0  0
 24 23  1  0  0  0  0
 26 25  1  0  0  0  0
 26 27  1  0  0  0  0
 27 22  1  0  0  0  0
M  END
>  <minimizedAffinity>
-4.95034313

$$$$

 OpenBabel03252509273D

 27 29  0  0  1  0  0  0  0  0999 V2000
   38.7020   30.3960   38.6690 C   0  0  1  0  0  0  0  0  0  0  0  0
   39.3280   28.9750   38.5680 C   0  0  0  0  0  0  0  0  0  0  0  0
   38.3100   29.4690   39.6460 C   0  0  2  0  0  0  0  0  0  0  0  0
   38.0760   30.6560   37.7890 H   0  0  0  0  0  0  0  0  0  0  0  0
   38.8580   28.3080   37.8180 H   0  0  0  0  0  0  0  0  0  0  0  0
   40.3620   28.8260   38.8630 H   0  0  0  0  0  0  0  0  0  0  0  0
   38.8130   29.5480   40.6600 H   0  0  0  0  0  0  0  0  0  0  0  0
   41.0960   33.2790   38.4660 C   0  0  0  0  0  0  0  0  0  0  0  0
   40.1320   32.3210   38.0420 C   0  0  0  0  0  0  0  0  0  0  0  0
   39.7650   31.4200   38.9880 C   0  0  0  0  0  0  0  0  0  0  0  0
   40.2920   31.4350   40.2610 N   0  0  0  0  0  0  0  0  0  0  0  0
   41.2110   32.3650   40.6260 C   0  0  0  0  0  0  0  0  0  0  0  0
   41.6110   33.2920   39.7150 N   0  0  0  0  0  0  0  0  0  0  0  0
   41.3900   34.0050   37.7000 H   0  0  0  0  0  0  0  0  0  0  0  0
   41.6460   32.4140   41.6020 H   0  0  0  0  0  0  0  0  0  0  0  0
   39.6030   32.2860   36.7300 N   0  0  0  0  0  0  0  0  0  0  0  0
   38.6330   32.5730   36.4220 H   0  0  0  0  0  0  0  0  0  0  0  0
   40.1530   31.9540   35.8820 H   0  0  0  0  0  0  0  0  0  0  0  0
   36.9310   28.8420   39.6510 C   0  0  0  0  0  0  0  0  0  0  0  0
   36.1860   29.5770   39.2770 H   0  0  0  0  0  0  0  0  0  0  0  0
   36.9340   27.9640   38.9550 H   0  0  0  0  0  0  0  0  0  0  0  0
   36.5880   28.4180   41.0670 C   0  0  0  0  0  3  0  0  0  0  0  0
   36.9440   26.9980   41.3240 C   0  0  0  0  0  2  0  0  0  0  0  0
   37.4030   26.6330   42.6800 C   0  0  0  0  0  2  0  0  0  0  0  0
   36.9610   27.6830   43.6800 C   0  0  0  0  0  2  0  0  0  0  0  0
   37.7360   28.9200   43.2620 C   0  0  0  0  0  2  0  0  0  0  0  0
   37.0850   29.4340   42.0110 C   0  0  0  0  0  2  0  0  0  0  0  0
  1  4  1  6  0  0  0
  1 10  1  0  0  0  0
  1  3  1  0  0  0  0
  2  1  1  0  0  0  0
  2  6  1  0  0  0  0
  2  3  1  0  0  0  0
  3 19  1  0  0  0  0
  3  7  1  1  0  0  0
  5  2  1  0  0  0  0
  8 13  1  0  0  0  0
  9  8  2  0  0  0  0
  9 10  1  0  0  0  0
 10 11  2  0  0  0  0
 11 12  1  0  0  0  0
 12 15  1  0  0  0  0
 13 12  2  0  0  0  0
 14  8  1  0  0  0  0
 16  9  1  0  0  0  0
 17 16  1  0  0  0  0
 18 16  1  0  0  0  0
 19 22  1  0  0  0  0
 20 19  1  0  0  0  0
 21 19  1  0  0  0  0
 22 23  1  0  0  0  0
 22 27  1  0  0  0  0
 23 24  1  0  0  0  0
 24 25  1  0  0  0  0
 26 25  1  0  0  0  0
 27 26  1  0  0  0  0
M  END
>  <minimizedAffinity>
-4.90548229

$$$$

 OpenBabel03252509273D

 27 29  0  0  1  0  0  0  0  0999 V2000
   35.9410   28.7810   39.4120 C   0  0  1  0  0  0  0  0  0  0  0  0
   35.4350   28.2120   38.0550 C   0  0  0  0  0  0  0  0  0  0  0  0
   36.5920   27.6340   38.9330 C   0  0  2  0  0  0  0  0  0  0  0  0
   35.1650   28.7540   40.2070 H   0  0  0  0  0  0  0  0  0  0  0  0
   34.5130   27.6010   38.1160 H   0  0  0  0  0  0  0  0  0  0  0  0
   35.6930   28.7250   37.1340 H   0  0  0  0  0  0  0  0  0  0  0  0
   37.5940   27.7890   38.4230 H   0  0  0  0  0  0  0  0  0  0  0  0
   37.1480   32.2960   39.9340 C   0  0  0  0  0  0  0  0  0  0  0  0
   36.4690   31.0710   40.1960 C   0  0  0  0  0  0  0  0  0  0  0  0
   36.5680   30.1400   39.2150 C   0  0  0  0  0  0  0  0  0  0  0  0
   37.2720   30.3680   38.0530 N   0  0  0  0  0  0  0  0  0  0  0  0
   37.9050   31.5500   37.8390 C   0  0  0  0  0  0  0  0  0  0  0  0
   37.8370   32.5170   38.7940 N   0  0  0  0  0  0  0  0  0  0  0  0
   37.0660   33.0450   40.7280 H   0  0  0  0  0  0  0  0  0  0  0  0
   38.4620   31.7710   36.9540 H   0  0  0  0  0  0  0  0  0  0  0  0
   35.7260   30.8390   41.3780 N   0  0  0  0  0  0  0  0  0  0  0  0
   35.9930   30.2190   42.1910 H   0  0  0  0  0  0  0  0  0  0  0  0
   34.7810   31.2850   41.5770 H   0  0  0  0  0  0  0  0  0  0  0  0
   36.3850   26.2710   39.5610 C   0  0  0  0  0  0  0  0  0  0  0  0
   35.3170   26.1480   39.8410 H   0  0  0  0  0  0  0  0  0  0  0  0
   36.6410   25.4850   38.8040 H   0  0  0  0  0  0  0  0  0  0  0  0
   37.2690   26.1560   40.7890 C   0  0  0  0  0  3  0  0  0  0  0  0
   36.9880   24.9180   41.5620 C   0  0  0  0  0  2  0  0  0  0  0  0
   38.1190   24.2580   42.2490 C   0  0  0  0  0  2  0  0  0  0  0  0
   39.2600   25.2390   42.4330 C   0  0  0  0  0  2  0  0  0  0  0  0
   39.7080   25.5330   41.0130 C   0  0  0  0  0  2  0  0  0  0  0  0
   38.6660   26.4280   40.4080 C   0  0  0  0  0  2  0  0  0  0  0  0
  1  4  1  1  0  0  0
  2  5  1  0  0  0  0
  2  3  1  0  0  0  0
  2  1  1  0  0  0  0
  3  7  1  6  0  0  0
  3  1  1  0  0  0  0
  3 19  1  0  0  0  0
  6  2  1  0  0  0  0
  8  9  1  0  0  0  0
  8 14  1  0  0  0  0
  9 16  1  0  0  0  0
 10  1  1  0  0  0  0
 10  9  2  0  0  0  0
 11 10  1  0  0  0  0
 12 11  2  0  0  0  0
 12 13  1  0  0  0  0
 13  8  2  0  0  0  0
 15 12  1  0  0  0  0
 16 18  1  0  0  0  0
 16 17  1  0  0  0  0
 19 20  1  0  0  0  0
 19 22  1  0  0  0  0
 21 19  1  0  0  0  0
 22 23  1  0  0  0  0
 23 24  1  0  0  0  0
 24 25  1  0  0  0  0
 26 25  1  0  0  0  0
 27 22  1  0  0  0  0
 27 26  1  0  0  0  0
M  END
>  <minimizedAffinity>
-4.81803751

$$$$

 OpenBabel03252509273D

 27 29  0  0  1  0  0  0  0  0999 V2000
   38.9000   29.3340   41.5630 C   0  0  1  0  0  0  0  0  0  0  0  0
   39.2950   30.1600   42.8210 C   0  0  0  0  0  0  0  0  0  0  0  0
   38.0780   29.1870   42.6910 C   0  0  2  0  0  0  0  0  0  0  0  0
   39.6750   28.5930   41.2710 H   0  0  0  0  0  0  0  0  0  0  0  0
   40.1170   29.7290   43.4260 H   0  0  0  0  0  0  0  0  0  0  0  0
   39.1030   31.2280   42.8380 H   0  0  0  0  0  0  0  0  0  0  0  0
   37.1030   29.7670   42.6950 H   0  0  0  0  0  0  0  0  0  0  0  0
   38.6280   31.0750   38.2490 C   0  0  0  0  0  0  0  0  0  0  0  0
   39.1460   30.2150   39.2600 C   0  0  0  0  0  0  0  0  0  0  0  0
   38.4780   30.2500   40.4400 C   0  0  0  0  0  0  0  0  0  0  0  0
   37.3810   31.0620   40.6400 N   0  0  0  0  0  0  0  0  0  0  0  0
   36.9190   31.8680   39.6510 C   0  0  0  0  0  0  0  0  0  0  0  0
   37.5530   31.8680   38.4480 N   0  0  0  0  0  0  0  0  0  0  0  0
   39.1700   31.0440   37.2980 H   0  0  0  0  0  0  0  0  0  0  0  0
   36.0730   32.5130   39.7620 H   0  0  0  0  0  0  0  0  0  0  0  0
   40.2840   29.3970   39.0680 N   0  0  0  0  0  0  0  0  0  0  0  0
   40.3050   28.3470   38.9460 H   0  0  0  0  0  0  0  0  0  0  0  0
   41.2790   29.7710   39.0230 H   0  0  0  0  0  0  0  0  0  0  0  0
   38.0900   27.9290   43.5340 C   0  0  0  0  0  0  0  0  0  0  0  0
   38.8230   28.0410   44.3620 H   0  0  0  0  0  0  0  0  0  0  0  0
   37.0730   27.7900   43.9850 H   0  0  0  0  0  0  0  0  0  0  0  0
   38.4650   26.7500   42.6550 C   0  0  0  0  0  3  0  0  0  0  0  0
   39.5170   25.9040   43.2780 C   0  0  0  0  0  2  0  0  0  0  0  0
   39.4730   24.4480   43.0290 C   0  0  0  0  0  2  0  0  0  0  0  0
   38.6470   24.1560   41.7930 C   0  0  0  0  0  2  0  0  0  0  0  0
   37.2460   24.5850   42.1920 C   0  0  0  0  0  2  0  0  0  0  0  0
   37.2370   26.0860   42.1850 C   0  0  0  0  0  2  0  0  0  0  0  0
  1  4  1  6  0  0  0
  1  3  1  0  0  0  0
  1  2  1  0  0  0  0
  2  6  1  0  0  0  0
  2  5  1  0  0  0  0
  3  7  1  6  0  0  0
  3  2  1  0  0  0  0
  3 19  1  0  0  0  0
  8 13  2  0  0  0  0
  8  9  1  0  0  0  0
  9 10  2  0  0  0  0
 10 11  1  0  0  0  0
 10  1  1  0  0  0  0
 12 15  1  0  0  0  0
 12 11  2  0  0  0  0
 13 12  1  0  0  0  0
 14  8  1  0  0  0  0
 16  9  1  0  0  0  0
 17 16  1  0  0  0  0
 18 16  1  0  0  0  0
 19 21  1  0  0  0  0
 19 20  1  0  0  0  0
 22 23  1  0  0  0  0
 22 19  1  0  0  0  0
 24 23  1  0  0  0  0
 25 26  1  0  0  0  0
 25 24  1  0  0  0  0
 27 26  1  0  0  0  0
 27 22  1  0  0  0  0
M  END
>  <minimizedAffinity>
-4.8027401

$$$$
