
 OpenBabel03242513113D

 17 18  0  0  0  0  0  0  0  0999 V2000
   45.0170   35.4620   44.0260 C   0  0  0  0  0  0  0  0  0  0  0  0
   46.0170   35.1010   43.1140 C   0  0  0  0  0  0  0  0  0  0  0  0
   46.8930   34.0640   43.4550 C   0  0  0  0  0  0  0  0  0  0  0  0
   46.7100   33.4740   44.6600 N   0  0  0  0  0  0  0  0  0  0  0  0
   45.7400   33.8390   45.5200 C   0  0  0  0  0  0  0  0  0  0  0  0
   44.8880   34.8440   45.1930 N   0  0  0  0  0  0  0  0  0  0  0  0
   44.2980   36.2600   43.8260 H   0  0  0  0  0  0  0  0  0  0  0  0
   46.0820   35.6390   42.1670 H   0  0  0  0  0  0  0  0  0  0  0  0
   47.6690   33.7750   42.7630 H   0  0  0  0  0  0  0  0  0  0  0  0
   45.5630   33.1870   46.8160 C   0  0  0  0  0  0  0  0  0  0  0  0
   44.6840   33.5990   47.6220 O   0  0  0  0  0  0  0  0  0  0  0  0
   46.4510   32.0410   47.1220 C   0  0  0  0  0  0  0  0  0  0  0  0
   46.8490   32.0290   48.5930 C   0  0  0  0  0  0  0  0  0  0  0  0
   48.1620   31.2560   48.6480 C   0  0  0  0  0  0  0  0  0  0  0  0
   48.2510   30.2830   47.5140 C   0  0  0  0  0  0  0  0  0  0  0  0
   46.9260   29.6700   47.1260 C   0  0  0  0  0  0  0  0  0  0  0  0
   45.8720   30.6970   46.8120 C   0  0  0  0  0  0  0  0  0  0  0  0
  1  6  1  0  0  0  0
  2  3  1  0  0  0  0
  2  1  2  0  0  0  0
  3  4  2  0  0  0  0
  4  5  1  0  0  0  0
  5 10  1  0  0  0  0
  6  5  2  0  0  0  0
  7  1  1  0  0  0  0
  8  2  1  0  0  0  0
  9  3  1  0  0  0  0
 10 12  1  0  0  0  0
 10 11  2  0  0  0  0
 12 13  1  0  0  0  0
 13 14  1  0  0  0  0
 15 14  1  0  0  0  0
 16 15  1  0  0  0  0
 17 12  1  0  0  0  0
 17 16  1  0  0  0  0
M  END
>  <minimizedAffinity>
-4.25867844

>  <minimizedRMSD>
1.66465855

$$$$
