
 OpenBabel03242520203D

 32 34  0  0  1  0  0  0  0  0999 V2000
   38.0400   24.3940   41.7300 C   0  0  0  0  0  0  0  0  0  0  0  0
   37.1780   25.4220   42.1390 C   0  0  0  0  0  0  0  0  0  0  0  0
   37.6800   26.4510   42.9200 C   0  0  0  0  0  0  0  0  0  0  0  0
   39.0050   26.3960   43.2480 N   0  0  0  0  0  0  0  0  0  0  0  0
   39.8060   25.3780   42.8290 C   0  0  0  0  0  0  0  0  0  0  0  0
   39.3250   24.3860   42.0760 N   0  0  0  0  0  0  0  0  0  0  0  0
   36.1380   25.3760   41.8260 H   0  0  0  0  0  0  0  0  0  0  0  0
   40.8450   25.4220   43.1410 H   0  0  0  0  0  0  0  0  0  0  0  0
   37.5000   23.2780   40.9010 C   0  0  0  0  0  0  0  0  0  0  0  0
   37.8220   23.4760   39.3740 C   0  0  0  0  0  0  0  0  0  0  0  0
   38.2930   22.3490   40.1850 C   0  0  0  0  0  0  0  0  0  0  0  0
   36.4150   23.0960   41.0930 H   0  0  0  0  0  0  0  0  0  0  0  0
   36.9650   23.2960   38.7000 H   0  0  0  0  0  0  0  0  0  0  0  0
   38.4980   24.3020   39.1140 H   0  0  0  0  0  0  0  0  0  0  0  0
   37.8990   21.3140   40.0080 H   0  0  0  0  0  0  0  0  0  0  0  0
   39.4110   22.3260   40.3390 H   0  0  0  0  0  0  0  0  0  0  0  0
   36.7910   27.5590   43.3560 C   0  0  0  0  0  0  0  0  0  0  0  0
   36.4840   27.3690   44.4020 H   0  0  0  0  0  0  0  0  0  0  0  0
   35.8570   27.5840   42.7490 H   0  0  0  0  0  0  0  0  0  0  0  0
   37.5190   28.8950   43.2950 C   0  0  0  0  0  0  0  0  0  0  0  0
   38.5600   28.6940   42.9650 H   0  0  0  0  0  0  0  0  0  0  0  0
   37.5850   29.2970   44.3140 H   0  0  0  0  0  0  0  0  0  0  0  0
   37.2860   29.7440   41.0180 C   0  0  0  0  0  0  0  0  0  0  0  0
   38.2020   29.0250   40.5600 O   0  0  0  0  0  0  0  0  0  0  0  0
   36.8510   29.8030   42.3580 N   0  0  0  0  0  0  0  0  0  0  0  0
   36.1420   30.3840   42.8230 H   0  0  0  0  0  0  0  0  0  0  0  0
   36.5530   30.6550   40.0620 C   0  0  2  0  0  3  0  0  0  0  0  0
   36.4850   30.1780   38.6800 C   0  0  0  0  0  2  0  0  0  0  0  0
   37.1780   30.9750   37.6190 C   0  0  0  0  0  2  0  0  0  0  0  0
   38.3800   31.7280   38.0830 C   0  0  0  0  0  3  0  0  0  0  0  0
   38.3310   32.2140   39.4800 C   0  0  0  0  0  3  0  0  0  0  0  0
   37.0550   32.0310   40.2170 C   0  0  0  0  0  2  0  0  0  0  0  0
  1  6  2  0  0  0  0
  1  2  1  0  0  0  0
  2  3  2  0  0  0  0
  3  4  1  0  0  0  0
  3 17  1  0  0  0  0
  5  8  1  0  0  0  0
  5  4  2  0  0  0  0
  6  5  1  0  0  0  0
  7  2  1  0  0  0  0
  9 12  1  0  0  0  0
  9  1  1  0  0  0  0
 10 11  1  0  0  0  0
 10  9  1  0  0  0  0
 11 16  1  0  0  0  0
 11  9  1  0  0  0  0
 13 10  1  0  0  0  0
 14 10  1  0  0  0  0
 15 11  1  0  0  0  0
 17 18  1  0  0  0  0
 19 17  1  0  0  0  0
 20 17  1  0  0  0  0
 20 22  1  0  0  0  0
 21 20  1  0  0  0  0
 23 25  1  0  0  0  0
 24 23  2  0  0  0  0
 25 26  1  0  0  0  0
 25 20  1  0  0  0  0
 27 32  1  0  0  0  0
 27 23  1  1  0  0  0
 28 27  1  0  0  0  0
 29 30  1  0  0  0  0
 29 28  1  0  0  0  0
 30 31  2  0  0  0  0
 31 32  1  0  0  0  0
M  END
>  <minimizedAffinity>
-5.28384781

$$$$

 OpenBabel03242520203D

 32 34  0  0  1  0  0  0  0  0999 V2000
   36.2810   29.1020   35.6700 C   0  0  0  0  0  0  0  0  0  0  0  0
   35.4400   29.2850   36.7770 C   0  0  0  0  0  0  0  0  0  0  0  0
   35.9050   28.9440   38.0380 C   0  0  0  0  0  0  0  0  0  0  0  0
   37.1720   28.4420   38.1220 N   0  0  0  0  0  0  0  0  0  0  0  0
   37.9540   28.2810   37.0180 C   0  0  0  0  0  0  0  0  0  0  0  0
   37.5100   28.6090   35.8040 N   0  0  0  0  0  0  0  0  0  0  0  0
   34.4470   29.6910   36.6070 H   0  0  0  0  0  0  0  0  0  0  0  0
   38.9470   27.8740   37.1870 H   0  0  0  0  0  0  0  0  0  0  0  0
   35.7800   29.4550   34.3100 C   0  0  0  0  0  0  0  0  0  0  0  0
   36.1920   30.9160   33.8960 C   0  0  0  0  0  0  0  0  0  0  0  0
   36.6050   29.7010   33.1850 C   0  0  0  0  0  0  0  0  0  0  0  0
   34.6840   29.2690   34.2020 H   0  0  0  0  0  0  0  0  0  0  0  0
   35.3740   31.5120   33.4530 H   0  0  0  0  0  0  0  0  0  0  0  0
   36.8890   31.4410   34.5640 H   0  0  0  0  0  0  0  0  0  0  0  0
   36.2130   29.4800   32.1590 H   0  0  0  0  0  0  0  0  0  0  0  0
   37.7120   29.4870   33.2410 H   0  0  0  0  0  0  0  0  0  0  0  0
   35.0380   29.1400   39.2300 C   0  0  0  0  0  0  0  0  0  0  0  0
   34.8640   28.1530   39.7000 H   0  0  0  0  0  0  0  0  0  0  0  0
   34.0390   29.5350   38.9360 H   0  0  0  0  0  0  0  0  0  0  0  0
   35.7120   30.0530   40.2450 C   0  0  0  0  0  0  0  0  0  0  0  0
   35.0250   30.9040   40.4380 H   0  0  0  0  0  0  0  0  0  0  0  0
   36.6130   30.4760   39.7820 H   0  0  0  0  0  0  0  0  0  0  0  0
   37.3480   29.1150   41.7940 C   0  0  0  0  0  0  0  0  0  0  0  0
   38.3330   29.4520   41.1000 O   0  0  0  0  0  0  0  0  0  0  0  0
   35.9880   29.3260   41.4880 N   0  0  0  0  0  0  0  0  0  0  0  0
   35.1260   29.0520   41.9750 H   0  0  0  0  0  0  0  0  0  0  0  0
   37.6110   28.4030   43.1010 C   0  0  2  0  0  3  0  0  0  0  0  0
   39.0150   28.0780   43.3580 C   0  0  0  0  0  2  0  0  0  0  0  0
   39.4060   26.6360   43.4370 C   0  0  0  0  0  2  0  0  0  0  0  0
   38.5720   25.7120   42.6130 C   0  0  0  0  0  3  0  0  0  0  0  0
   37.1520   26.1010   42.4550 C   0  0  0  0  0  3  0  0  0  0  0  0
   36.6790   27.2710   43.2360 C   0  0  0  0  0  2  0  0  0  0  0  0
  1  6  2  0  0  0  0
  1  2  1  0  0  0  0
  2  3  2  0  0  0  0
  3  4  1  0  0  0  0
  3 17  1  0  0  0  0
  5  8  1  0  0  0  0
  5  4  2  0  0  0  0
  6  5  1  0  0  0  0
  7  2  1  0  0  0  0
  9  1  1  0  0  0  0
 10  9  1  0  0  0  0
 10 14  1  0  0  0  0
 11 16  1  0  0  0  0
 11 10  1  0  0  0  0
 11  9  1  0  0  0  0
 12  9  1  0  0  0  0
 13 10  1  0  0  0  0
 15 11  1  0  0  0  0
 17 18  1  0  0  0  0
 17 20  1  0  0  0  0
 19 17  1  0  0  0  0
 20 21  1  0  0  0  0
 20 25  1  0  0  0  0
 22 20  1  0  0  0  0
 24 23  2  0  0  0  0
 25 23  1  0  0  0  0
 25 26  1  0  0  0  0
 27 23  1  6  0  0  0
 27 32  1  0  0  0  0
 27 28  1  0  0  0  0
 28 29  1  0  0  0  0
 30 29  1  0  0  0  0
 31 30  2  0  0  0  0
 31 32  1  0  0  0  0
M  END
>  <minimizedAffinity>
-5.12369823

$$$$

 OpenBabel03242520203D

 32 34  0  0  1  0  0  0  0  0999 V2000
   37.7290   26.5710   41.9660 C   0  0  0  0  0  0  0  0  0  0  0  0
   38.8510   27.3980   41.8140 C   0  0  0  0  0  0  0  0  0  0  0  0
   38.9900   28.5010   42.6420 C   0  0  0  0  0  0  0  0  0  0  0  0
   38.0090   28.7150   43.5680 N   0  0  0  0  0  0  0  0  0  0  0  0
   36.9360   27.8840   43.6800 C   0  0  0  0  0  0  0  0  0  0  0  0
   36.7990   26.8210   42.8850 N   0  0  0  0  0  0  0  0  0  0  0  0
   39.5770   27.1440   41.0470 H   0  0  0  0  0  0  0  0  0  0  0  0
   36.2080   28.1380   44.4450 H   0  0  0  0  0  0  0  0  0  0  0  0
   37.5680   25.3910   41.0680 C   0  0  0  0  0  0  0  0  0  0  0  0
   37.8860   24.0420   41.8130 C   0  0  0  0  0  0  0  0  0  0  0  0
   36.5850   24.3840   41.2280 C   0  0  0  0  0  0  0  0  0  0  0  0
   38.1420   25.5030   40.1170 H   0  0  0  0  0  0  0  0  0  0  0  0
   38.5330   23.3490   41.2460 H   0  0  0  0  0  0  0  0  0  0  0  0
   38.0460   24.1020   42.8990 H   0  0  0  0  0  0  0  0  0  0  0  0
   36.2060   23.8410   40.3230 H   0  0  0  0  0  0  0  0  0  0  0  0
   35.7580   24.5180   41.9850 H   0  0  0  0  0  0  0  0  0  0  0  0
   40.1770   29.3870   42.5110 C   0  0  0  0  0  0  0  0  0  0  0  0
   40.8790   28.9260   41.7900 H   0  0  0  0  0  0  0  0  0  0  0  0
   40.7210   29.4700   43.4790 H   0  0  0  0  0  0  0  0  0  0  0  0
   39.7730   30.7600   41.9890 C   0  0  0  0  0  0  0  0  0  0  0  0
   40.4470   31.0080   41.1430 H   0  0  0  0  0  0  0  0  0  0  0  0
   39.9730   31.4980   42.7770 H   0  0  0  0  0  0  0  0  0  0  0  0
   38.1560   31.0130   40.1790 C   0  0  0  0  0  0  0  0  0  0  0  0
   39.0250   31.2850   39.3200 O   0  0  0  0  0  0  0  0  0  0  0  0
   38.3760   30.7510   41.5470 N   0  0  0  0  0  0  0  0  0  0  0  0
   37.7270   30.5590   42.3200 H   0  0  0  0  0  0  0  0  0  0  0  0
   36.7130   30.9560   39.7350 C   0  0  2  0  0  3  0  0  0  0  0  0
   35.7950   30.3370   40.6920 C   0  0  0  0  0  2  0  0  0  0  0  0
   35.1120   29.0650   40.2990 C   0  0  0  0  0  2  0  0  0  0  0  0
   35.8800   28.2060   39.3500 C   0  0  0  0  0  3  0  0  0  0  0  0
   36.7410   28.9280   38.3870 C   0  0  0  0  0  3  0  0  0  0  0  0
   36.6440   30.4090   38.3690 C   0  0  0  0  0  2  0  0  0  0  0  0
  1  6  1  0  0  0  0
  2  1  2  0  0  0  0
  2  3  1  0  0  0  0
  3  4  2  0  0  0  0
  4  5  1  0  0  0  0
  5  8  1  0  0  0  0
  6  5  2  0  0  0  0
  7  2  1  0  0  0  0
  9 11  1  0  0  0  0
  9 10  1  0  0  0  0
  9  1  1  0  0  0  0
 10 14  1  0  0  0  0
 11 10  1  0  0  0  0
 11 16  1  0  0  0  0
 12  9  1  0  0  0  0
 13 10  1  0  0  0  0
 15 11  1  0  0  0  0
 17  3  1  0  0  0  0
 17 19  1  0  0  0  0
 18 17  1  0  0  0  0
 20 17  1  0  0  0  0
 20 22  1  0  0  0  0
 21 20  1  0  0  0  0
 23 25  1  0  0  0  0
 24 23  2  0  0  0  0
 25 20  1  0  0  0  0
 25 26  1  0  0  0  0
 27 23  1  1  0  0  0
 27 28  1  0  0  0  0
 29 28  1  0  0  0  0
 30 29  1  0  0  0  0
 31 30  2  0  0  0  0
 32 31  1  0  0  0  0
 32 27  1  0  0  0  0
M  END
>  <minimizedAffinity>
-5.06128454

$$$$

 OpenBabel03242520203D

 32 34  0  0  1  0  0  0  0  0999 V2000
   39.0930   32.8050   39.6080 C   0  0  0  0  0  0  0  0  0  0  0  0
   38.0610   32.3790   40.4560 C   0  0  0  0  0  0  0  0  0  0  0  0
   37.1930   31.3920   40.0170 C   0  0  0  0  0  0  0  0  0  0  0  0
   37.4010   30.8890   38.7640 N   0  0  0  0  0  0  0  0  0  0  0  0
   38.4170   31.3340   37.9730 C   0  0  0  0  0  0  0  0  0  0  0  0
   39.2550   32.2840   38.3940 N   0  0  0  0  0  0  0  0  0  0  0  0
   37.9770   32.8410   41.4360 H   0  0  0  0  0  0  0  0  0  0  0  0
   38.5020   30.8740   36.9930 H   0  0  0  0  0  0  0  0  0  0  0  0
   40.0210   33.8760   40.0720 C   0  0  0  0  0  0  0  0  0  0  0  0
   41.3480   33.2810   40.6700 C   0  0  0  0  0  0  0  0  0  0  0  0
   41.2830   34.1560   39.4940 C   0  0  0  0  0  0  0  0  0  0  0  0
   39.5210   34.5970   40.7640 H   0  0  0  0  0  0  0  0  0  0  0  0
   41.6620   33.7360   41.6260 H   0  0  0  0  0  0  0  0  0  0  0  0
   41.5010   32.1990   40.5560 H   0  0  0  0  0  0  0  0  0  0  0  0
   41.6860   35.2010   39.5380 H   0  0  0  0  0  0  0  0  0  0  0  0
   41.5840   33.6550   38.5280 H   0  0  0  0  0  0  0  0  0  0  0  0
   36.0980   30.9130   40.9010 C   0  0  0  0  0  0  0  0  0  0  0  0
   35.2070   31.5460   40.7280 H   0  0  0  0  0  0  0  0  0  0  0  0
   36.3710   31.0330   41.9740 H   0  0  0  0  0  0  0  0  0  0  0  0
   35.7390   29.4670   40.5850 C   0  0  0  0  0  0  0  0  0  0  0  0
   36.3630   29.1470   39.7250 H   0  0  0  0  0  0  0  0  0  0  0  0
   34.6960   29.4400   40.2440 H   0  0  0  0  0  0  0  0  0  0  0  0
   37.2980   28.1020   41.8740 C   0  0  0  0  0  0  0  0  0  0  0  0
   38.2500   28.2810   41.0830 O   0  0  0  0  0  0  0  0  0  0  0  0
   35.9890   28.6090   41.7470 N   0  0  0  0  0  0  0  0  0  0  0  0
   35.1460   28.4830   42.3220 H   0  0  0  0  0  0  0  0  0  0  0  0
   37.5450   27.2570   43.1020 C   0  0  2  0  0  3  0  0  0  0  0  0
   38.9410   27.1920   43.5390 C   0  0  0  0  0  2  0  0  0  0  0  0
   39.6370   25.8690   43.4920 C   0  0  0  0  0  2  0  0  0  0  0  0
   39.1510   24.9390   42.4310 C   0  0  0  0  0  3  0  0  0  0  0  0
   37.7130   25.0460   42.0960 C   0  0  0  0  0  3  0  0  0  0  0  0
   36.8880   25.9500   42.9360 C   0  0  0  0  0  2  0  0  0  0  0  0
  1  9  1  0  0  0  0
  1  2  1  0  0  0  0
  2  7  1  0  0  0  0
  3  2  2  0  0  0  0
  3 17  1  0  0  0  0
  4  3  1  0  0  0  0
  5  6  1  0  0  0  0
  5  4  2  0  0  0  0
  6  1  2  0  0  0  0
  8  5  1  0  0  0  0
  9 10  1  0  0  0  0
  9 12  1  0  0  0  0
 10 13  1  0  0  0  0
 11 15  1  0  0  0  0
 11  9  1  0  0  0  0
 11 10  1  0  0  0  0
 14 10  1  0  0  0  0
 16 11  1  0  0  0  0
 17 19  1  0  0  0  0
 18 17  1  0  0  0  0
 20 17  1  0  0  0  0
 20 25  1  0  0  0  0
 21 20  1  0  0  0  0
 22 20  1  0  0  0  0
 24 23  2  0  0  0  0
 25 23  1  0  0  0  0
 25 26  1  0  0  0  0
 27 23  1  6  0  0  0
 27 28  1  0  0  0  0
 29 28  1  0  0  0  0
 30 29  1  0  0  0  0
 31 30  2  0  0  0  0
 31 32  1  0  0  0  0
 32 27  1  0  0  0  0
M  END
>  <minimizedAffinity>
-5.04905844

$$$$

 OpenBabel03242520203D

 32 34  0  0  1  0  0  0  0  0999 V2000
   37.9490   26.8850   42.1190 C   0  0  0  0  0  0  0  0  0  0  0  0
   39.1420   27.5730   41.8530 C   0  0  0  0  0  0  0  0  0  0  0  0
   39.3680   28.7920   42.4720 C   0  0  0  0  0  0  0  0  0  0  0  0
   38.3970   29.2550   43.3140 N   0  0  0  0  0  0  0  0  0  0  0  0
   37.2530   28.5520   43.5430 C   0  0  0  0  0  0  0  0  0  0  0  0
   37.0330   27.3780   42.9490 N   0  0  0  0  0  0  0  0  0  0  0  0
   39.8530   27.1220   41.1660 H   0  0  0  0  0  0  0  0  0  0  0  0
   36.5410   29.0020   44.2280 H   0  0  0  0  0  0  0  0  0  0  0  0
   37.6960   25.5800   41.4440 C   0  0  0  0  0  0  0  0  0  0  0  0
   38.2650   24.3720   42.2770 C   0  0  0  0  0  0  0  0  0  0  0  0
   36.8480   24.5630   41.9470 C   0  0  0  0  0  0  0  0  0  0  0  0
   38.0490   25.5760   40.3840 H   0  0  0  0  0  0  0  0  0  0  0  0
   38.8310   23.6340   41.6820 H   0  0  0  0  0  0  0  0  0  0  0  0
   38.6420   24.6000   43.2840 H   0  0  0  0  0  0  0  0  0  0  0  0
   36.3320   23.8750   41.2280 H   0  0  0  0  0  0  0  0  0  0  0  0
   36.1890   24.7690   42.8410 H   0  0  0  0  0  0  0  0  0  0  0  0
   40.6300   29.5360   42.2170 C   0  0  0  0  0  0  0  0  0  0  0  0
   40.7790   29.6040   41.1230 H   0  0  0  0  0  0  0  0  0  0  0  0
   41.5070   28.9840   42.6250 H   0  0  0  0  0  0  0  0  0  0  0  0
   40.5540   30.9450   42.7890 C   0  0  0  0  0  0  0  0  0  0  0  0
   41.5940   31.2950   42.9590 H   0  0  0  0  0  0  0  0  0  0  0  0
   40.0760   30.8890   43.7760 H   0  0  0  0  0  0  0  0  0  0  0  0
   40.6590   32.4660   40.8830 C   0  0  0  0  0  0  0  0  0  0  0  0
   41.8990   32.3620   40.7530 O   0  0  0  0  0  0  0  0  0  0  0  0
   39.8580   31.8400   41.8600 N   0  0  0  0  0  0  0  0  0  0  0  0
   38.8520   31.8990   42.0610 H   0  0  0  0  0  0  0  0  0  0  0  0
   39.9150   33.3490   39.9090 C   0  0  2  0  0  3  0  0  0  0  0  0
   38.5890   33.7810   40.3520 C   0  0  0  0  0  2  0  0  0  0  0  0
   37.3960   33.3170   39.5760 C   0  0  0  0  0  2  0  0  0  0  0  0
   37.5560   31.9930   38.9070 C   0  0  0  0  0  3  0  0  0  0  0  0
   38.9270   31.6700   38.4490 C   0  0  0  0  0  3  0  0  0  0  0  0
   39.9510   32.7380   38.5690 C   0  0  0  0  0  2  0  0  0  0  0  0
  1  6  1  0  0  0  0
  2  1  2  0  0  0  0
  2  3  1  0  0  0  0
  3  4  2  0  0  0  0
  4  5  1  0  0  0  0
  5  8  1  0  0  0  0
  6  5  2  0  0  0  0
  7  2  1  0  0  0  0
  9 11  1  0  0  0  0
  9  1  1  0  0  0  0
  9 10  1  0  0  0  0
 10 14  1  0  0  0  0
 11 10  1  0  0  0  0
 11 16  1  0  0  0  0
 12  9  1  0  0  0  0
 13 10  1  0  0  0  0
 15 11  1  0  0  0  0
 17  3  1  0  0  0  0
 17 19  1  0  0  0  0
 17 20  1  0  0  0  0
 18 17  1  0  0  0  0
 20 21  1  0  0  0  0
 20 22  1  0  0  0  0
 23 25  1  0  0  0  0
 24 23  2  0  0  0  0
 25 26  1  0  0  0  0
 25 20  1  0  0  0  0
 27 28  1  0  0  0  0
 27 23  1  1  0  0  0
 29 28  1  0  0  0  0
 30 29  1  0  0  0  0
 31 32  1  0  0  0  0
 31 30  2  0  0  0  0
 32 27  1  0  0  0  0
M  END
>  <minimizedAffinity>
-5.02364397

$$$$

 OpenBabel03242520203D

 32 34  0  0  1  0  0  0  0  0999 V2000
   40.6320   31.9030   40.9230 C   0  0  0  0  0  0  0  0  0  0  0  0
   39.5020   31.1340   40.6080 C   0  0  0  0  0  0  0  0  0  0  0  0
   38.3730   31.7690   40.1160 C   0  0  0  0  0  0  0  0  0  0  0  0
   38.4340   33.1250   39.9660 N   0  0  0  0  0  0  0  0  0  0  0  0
   39.5540   33.8310   40.2850 C   0  0  0  0  0  0  0  0  0  0  0  0
   40.6430   33.2230   40.7580 N   0  0  0  0  0  0  0  0  0  0  0  0
   39.5520   30.0600   40.7640 H   0  0  0  0  0  0  0  0  0  0  0  0
   39.5060   34.9050   40.1310 H   0  0  0  0  0  0  0  0  0  0  0  0
   41.8450   31.2250   41.4660 C   0  0  0  0  0  0  0  0  0  0  0  0
   41.8400   31.1930   43.0390 C   0  0  0  0  0  0  0  0  0  0  0  0
   41.8330   30.0030   42.1820 C   0  0  0  0  0  0  0  0  0  0  0  0
   42.7900   31.6480   41.0470 H   0  0  0  0  0  0  0  0  0  0  0  0
   42.8000   31.4800   43.5040 H   0  0  0  0  0  0  0  0  0  0  0  0
   40.9210   31.5310   43.5380 H   0  0  0  0  0  0  0  0  0  0  0  0
   42.7280   29.3310   42.1320 H   0  0  0  0  0  0  0  0  0  0  0  0
   40.8840   29.3950   42.2430 H   0  0  0  0  0  0  0  0  0  0  0  0
   37.1660   30.9760   39.7630 C   0  0  0  0  0  0  0  0  0  0  0  0
   37.4840   29.9430   39.5270 H   0  0  0  0  0  0  0  0  0  0  0  0
   36.6800   31.3780   38.8450 H   0  0  0  0  0  0  0  0  0  0  0  0
   36.1860   30.9320   40.9280 C   0  0  0  0  0  0  0  0  0  0  0  0
   35.1830   30.6980   40.5130 H   0  0  0  0  0  0  0  0  0  0  0  0
   36.1200   31.9390   41.3590 H   0  0  0  0  0  0  0  0  0  0  0  0
   36.2870   28.5780   41.5630 C   0  0  0  0  0  0  0  0  0  0  0  0
   35.6830   28.1830   40.5410 O   0  0  0  0  0  0  0  0  0  0  0  0
   36.5900   29.9130   41.9010 N   0  0  0  0  0  0  0  0  0  0  0  0
   37.0430   30.3250   42.7260 H   0  0  0  0  0  0  0  0  0  0  0  0
   36.7520   27.5400   42.5580 C   0  0  2  0  0  3  0  0  0  0  0  0
   37.6800   28.0310   43.5770 C   0  0  0  0  0  2  0  0  0  0  0  0
   39.0720   27.4800   43.5930 C   0  0  0  0  0  2  0  0  0  0  0  0
   39.5940   27.0510   42.2620 C   0  0  0  0  0  3  0  0  0  0  0  0
   38.5830   26.5210   41.3190 C   0  0  0  0  0  3  0  0  0  0  0  0
   37.2040   26.3380   41.8360 C   0  0  0  0  0  2  0  0  0  0  0  0
  1  9  1  0  0  0  0
  2  7  1  0  0  0  0
  2  1  2  0  0  0  0
  3  2  1  0  0  0  0
  4  3  2  0  0  0  0
  4  5  1  0  0  0  0
  5  6  2  0  0  0  0
  6  1  1  0  0  0  0
  8  5  1  0  0  0  0
  9 11  1  0  0  0  0
  9 10  1  0  0  0  0
 10 13  1  0  0  0  0
 10 14  1  0  0  0  0
 11 16  1  0  0  0  0
 11 10  1  0  0  0  0
 12  9  1  0  0  0  0
 15 11  1  0  0  0  0
 17  3  1  0  0  0  0
 17 20  1  0  0  0  0
 18 17  1  0  0  0  0
 19 17  1  0  0  0  0
 20 22  1  0  0  0  0
 20 25  1  0  0  0  0
 21 20  1  0  0  0  0
 23 25  1  0  0  0  0
 24 23  2  0  0  0  0
 25 26  1  0  0  0  0
 27 23  1  6  0  0  0
 27 28  1  0  0  0  0
 28 29  1  0  0  0  0
 30 29  1  0  0  0  0
 31 32  1  0  0  0  0
 31 30  2  0  0  0  0
 32 27  1  0  0  0  0
M  END
>  <minimizedAffinity>
-4.97925615

$$$$

 OpenBabel03242520203D

 32 34  0  0  1  0  0  0  0  0999 V2000
   40.4550   32.7410   39.3520 C   0  0  0  0  0  0  0  0  0  0  0  0
   39.4720   31.9960   38.6850 C   0  0  0  0  0  0  0  0  0  0  0  0
   38.2100   31.8900   39.2490 C   0  0  0  0  0  0  0  0  0  0  0  0
   38.0020   32.5280   40.4390 N   0  0  0  0  0  0  0  0  0  0  0  0
   38.9880   33.2400   41.0520 C   0  0  0  0  0  0  0  0  0  0  0  0
   40.2030   33.3450   40.5110 N   0  0  0  0  0  0  0  0  0  0  0  0
   39.7350   31.5250   37.7420 H   0  0  0  0  0  0  0  0  0  0  0  0
   38.7270   33.7110   41.9950 H   0  0  0  0  0  0  0  0  0  0  0  0
   41.8180   32.8460   38.7550 C   0  0  0  0  0  0  0  0  0  0  0  0
   41.9850   34.1610   37.9090 C   0  0  0  0  0  0  0  0  0  0  0  0
   42.7750   33.8300   39.1000 C   0  0  0  0  0  0  0  0  0  0  0  0
   42.1020   31.9280   38.1860 H   0  0  0  0  0  0  0  0  0  0  0  0
   42.4620   34.0120   36.9240 H   0  0  0  0  0  0  0  0  0  0  0  0
   41.1670   34.8920   37.9640 H   0  0  0  0  0  0  0  0  0  0  0  0
   43.8660   33.5880   39.0110 H   0  0  0  0  0  0  0  0  0  0  0  0
   42.5910   34.5120   39.9810 H   0  0  0  0  0  0  0  0  0  0  0  0
   37.1460   31.1180   38.5560 C   0  0  0  0  0  0  0  0  0  0  0  0
   37.2860   31.2330   37.4640 H   0  0  0  0  0  0  0  0  0  0  0  0
   36.1370   31.5270   38.7930 H   0  0  0  0  0  0  0  0  0  0  0  0
   37.2330   29.6390   38.9070 C   0  0  0  0  0  0  0  0  0  0  0  0
   37.9620   29.1720   38.2110 H   0  0  0  0  0  0  0  0  0  0  0  0
   36.2590   29.1780   38.6970 H   0  0  0  0  0  0  0  0  0  0  0  0
   36.6710   29.0720   41.2140 C   0  0  0  0  0  0  0  0  0  0  0  0
   35.4570   28.8950   40.9690 O   0  0  0  0  0  0  0  0  0  0  0  0
   37.6680   29.4640   40.2960 N   0  0  0  0  0  0  0  0  0  0  0  0
   38.6670   29.6680   40.4170 H   0  0  0  0  0  0  0  0  0  0  0  0
   37.1490   28.8560   42.6300 C   0  0  2  0  0  3  0  0  0  0  0  0
   38.5910   29.0130   42.8290 C   0  0  0  0  0  2  0  0  0  0  0  0
   39.3830   27.8140   43.2490 C   0  0  0  0  0  2  0  0  0  0  0  0
   38.8400   26.5050   42.7820 C   0  0  0  0  0  3  0  0  0  0  0  0
   37.3660   26.4310   42.6620 C   0  0  0  0  0  3  0  0  0  0  0  0
   36.5870   27.5970   43.1490 C   0  0  0  0  0  2  0  0  0  0  0  0
  1  6  1  0  0  0  0
  2  3  1  0  0  0  0
  2  1  2  0  0  0  0
  3  4  2  0  0  0  0
  4  5  1  0  0  0  0
  5  8  1  0  0  0  0
  6  5  2  0  0  0  0
  7  2  1  0  0  0  0
  9 11  1  0  0  0  0
  9  1  1  0  0  0  0
 10 14  1  0  0  0  0
 10  9  1  0  0  0  0
 10 11  1  0  0  0  0
 11 16  1  0  0  0  0
 12  9  1  0  0  0  0
 13 10  1  0  0  0  0
 15 11  1  0  0  0  0
 17 19  1  0  0  0  0
 17 20  1  0  0  0  0
 17  3  1  0  0  0  0
 18 17  1  0  0  0  0
 20 25  1  0  0  0  0
 21 20  1  0  0  0  0
 22 20  1  0  0  0  0
 24 23  2  0  0  0  0
 25 26  1  0  0  0  0
 25 23  1  0  0  0  0
 27 23  1  6  0  0  0
 27 28  1  0  0  0  0
 27 32  1  0  0  0  0
 28 29  1  0  0  0  0
 30 29  1  0  0  0  0
 31 30  2  0  0  0  0
 31 32  1  0  0  0  0
M  END
>  <minimizedAffinity>
-4.91270924

$$$$

 OpenBabel03242520203D

 32 34  0  0  1  0  0  0  0  0999 V2000
   35.9700   29.2450   37.9830 C   0  0  0  0  0  0  0  0  0  0  0  0
   36.7080   30.3900   38.3190 C   0  0  0  0  0  0  0  0  0  0  0  0
   36.5660   30.9340   39.5860 C   0  0  0  0  0  0  0  0  0  0  0  0
   35.7020   30.3110   40.4400 N   0  0  0  0  0  0  0  0  0  0  0  0
   35.0050   29.2000   40.0710 C   0  0  0  0  0  0  0  0  0  0  0  0
   35.1400   28.6740   38.8520 N   0  0  0  0  0  0  0  0  0  0  0  0
   37.3700   30.8130   37.5680 H   0  0  0  0  0  0  0  0  0  0  0  0
   34.3430   28.7770   40.8190 H   0  0  0  0  0  0  0  0  0  0  0  0
   36.1090   28.6650   36.6160 C   0  0  0  0  0  0  0  0  0  0  0  0
   34.9700   29.1630   35.6520 C   0  0  0  0  0  0  0  0  0  0  0  0
   36.4010   29.4120   35.4490 C   0  0  0  0  0  0  0  0  0  0  0  0
   36.2000   27.5520   36.6370 H   0  0  0  0  0  0  0  0  0  0  0  0
   34.5020   28.3640   35.0490 H   0  0  0  0  0  0  0  0  0  0  0  0
   34.3110   29.9550   36.0330 H   0  0  0  0  0  0  0  0  0  0  0  0
   36.9520   28.9180   34.6070 H   0  0  0  0  0  0  0  0  0  0  0  0
   36.6980   30.4980   35.5340 H   0  0  0  0  0  0  0  0  0  0  0  0
   37.3470   32.1390   39.9710 C   0  0  0  0  0  0  0  0  0  0  0  0
   36.8060   32.6590   40.7850 H   0  0  0  0  0  0  0  0  0  0  0  0
   37.4150   32.8580   39.1240 H   0  0  0  0  0  0  0  0  0  0  0  0
   38.7310   31.7510   40.4740 C   0  0  0  0  0  0  0  0  0  0  0  0
   39.3060   32.6880   40.6280 H   0  0  0  0  0  0  0  0  0  0  0  0
   39.2420   31.1960   39.6770 H   0  0  0  0  0  0  0  0  0  0  0  0
   39.0720   29.6610   41.6880 C   0  0  0  0  0  0  0  0  0  0  0  0
   39.5040   29.0460   40.6880 O   0  0  0  0  0  0  0  0  0  0  0  0
   38.6300   31.0000   41.7290 N   0  0  0  0  0  0  0  0  0  0  0  0
   38.2290   31.5660   42.4870 H   0  0  0  0  0  0  0  0  0  0  0  0
   39.0010   28.9190   43.0020 C   0  0  2  0  0  3  0  0  0  0  0  0
   39.8230   27.7100   43.0750 C   0  0  0  0  0  2  0  0  0  0  0  0
   39.1320   26.3920   43.2320 C   0  0  0  0  0  2  0  0  0  0  0  0
   37.7670   26.3220   42.6340 C   0  0  0  0  0  3  0  0  0  0  0  0
   36.9950   27.5850   42.6530 C   0  0  0  0  0  3  0  0  0  0  0  0
   37.5910   28.7320   43.3820 C   0  0  0  0  0  2  0  0  0  0  0  0
  1  2  2  0  0  0  0
  1  6  1  0  0  0  0
  2  3  1  0  0  0  0
  3 17  1  0  0  0  0
  3  4  2  0  0  0  0
  5  4  1  0  0  0  0
  5  8  1  0  0  0  0
  6  5  2  0  0  0  0
  7  2  1  0  0  0  0
  9 12  1  0  0  0  0
  9  1  1  0  0  0  0
 10 14  1  0  0  0  0
 10  9  1  0  0  0  0
 11 16  1  0  0  0  0
 11 10  1  0  0  0  0
 11  9  1  0  0  0  0
 13 10  1  0  0  0  0
 15 11  1  0  0  0  0
 17 20  1  0  0  0  0
 17 18  1  0  0  0  0
 19 17  1  0  0  0  0
 20 21  1  0  0  0  0
 20 25  1  0  0  0  0
 22 20  1  0  0  0  0
 23 25  1  0  0  0  0
 24 23  2  0  0  0  0
 25 26  1  0  0  0  0
 27 23  1  6  0  0  0
 27 28  1  0  0  0  0
 27 32  1  0  0  0  0
 28 29  1  0  0  0  0
 30 31  2  0  0  0  0
 30 29  1  0  0  0  0
 31 32  1  0  0  0  0
M  END
>  <minimizedAffinity>
-4.85713196

$$$$

 OpenBabel03242520203D

 32 34  0  0  1  0  0  0  0  0999 V2000
   37.4840   25.2470   40.5700 C   0  0  0  0  0  0  0  0  0  0  0  0
   37.2830   25.8290   41.8300 C   0  0  0  0  0  0  0  0  0  0  0  0
   38.1250   26.8490   42.2420 C   0  0  0  0  0  0  0  0  0  0  0  0
   39.1150   27.2290   41.3810 N   0  0  0  0  0  0  0  0  0  0  0  0
   39.2730   26.6350   40.1650 C   0  0  0  0  0  0  0  0  0  0  0  0
   38.4630   25.6530   39.7650 N   0  0  0  0  0  0  0  0  0  0  0  0
   36.4670   25.4560   42.4440 H   0  0  0  0  0  0  0  0  0  0  0  0
   40.0890   27.0050   39.5510 H   0  0  0  0  0  0  0  0  0  0  0  0
   36.5880   24.1400   40.1280 C   0  0  0  0  0  0  0  0  0  0  0  0
   35.7130   24.5550   38.8890 C   0  0  0  0  0  0  0  0  0  0  0  0
   36.6930   23.4640   38.8880 C   0  0  0  0  0  0  0  0  0  0  0  0
   35.9780   23.7290   40.9690 H   0  0  0  0  0  0  0  0  0  0  0  0
   34.6460   24.2810   38.9720 H   0  0  0  0  0  0  0  0  0  0  0  0
   35.9470   25.5200   38.4190 H   0  0  0  0  0  0  0  0  0  0  0  0
   36.3580   22.3960   38.8170 H   0  0  0  0  0  0  0  0  0  0  0  0
   37.5850   23.6440   38.2210 H   0  0  0  0  0  0  0  0  0  0  0  0
   37.9260   27.4920   43.5680 C   0  0  0  0  0  0  0  0  0  0  0  0
   38.8510   27.3600   44.1610 H   0  0  0  0  0  0  0  0  0  0  0  0
   37.1090   26.9900   44.1350 H   0  0  0  0  0  0  0  0  0  0  0  0
   37.6520   28.9810   43.4130 C   0  0  0  0  0  0  0  0  0  0  0  0
   38.6200   29.4790   43.1940 H   0  0  0  0  0  0  0  0  0  0  0  0
   37.3110   29.3700   44.3820 H   0  0  0  0  0  0  0  0  0  0  0  0
   37.0610   30.1990   41.3820 C   0  0  0  0  0  0  0  0  0  0  0  0
   38.0930   30.9070   41.3990 O   0  0  0  0  0  0  0  0  0  0  0  0
   36.6970   29.2180   42.3270 N   0  0  0  0  0  0  0  0  0  0  0  0
   35.8610   28.6250   42.4110 H   0  0  0  0  0  0  0  0  0  0  0  0
   36.0840   30.3960   40.2470 C   0  0  2  0  0  3  0  0  0  0  0  0
   35.0320   29.3820   40.1520 C   0  0  0  0  0  2  0  0  0  0  0  0
   35.0020   28.5050   38.9400 C   0  0  0  0  0  2  0  0  0  0  0  0
   36.3320   28.2510   38.3120 C   0  0  0  0  0  3  0  0  0  0  0  0
   37.3100   29.3580   38.4180 C   0  0  0  0  0  3  0  0  0  0  0  0
   36.8270   30.6360   38.9980 C   0  0  0  0  0  2  0  0  0  0  0  0
  1  2  1  0  0  0  0
  2  3  2  0  0  0  0
  2  7  1  0  0  0  0
  3 17  1  0  0  0  0
  4  3  1  0  0  0  0
  5  4  2  0  0  0  0
  6  5  1  0  0  0  0
  6  1  2  0  0  0  0
  8  5  1  0  0  0  0
  9  1  1  0  0  0  0
  9 12  1  0  0  0  0
 10 13  1  0  0  0  0
 10  9  1  0  0  0  0
 11 10  1  0  0  0  0
 11  9  1  0  0  0  0
 14 10  1  0  0  0  0
 15 11  1  0  0  0  0
 16 11  1  0  0  0  0
 17 19  1  0  0  0  0
 17 18  1  0  0  0  0
 20 17  1  0  0  0  0
 20 22  1  0  0  0  0
 21 20  1  0  0  0  0
 23 24  2  0  0  0  0
 23 25  1  0  0  0  0
 25 26  1  0  0  0  0
 25 20  1  0  0  0  0
 27 23  1  1  0  0  0
 28 27  1  0  0  0  0
 29 28  1  0  0  0  0
 30 31  2  0  0  0  0
 30 29  1  0  0  0  0
 31 32  1  0  0  0  0
 32 27  1  0  0  0  0
M  END
>  <minimizedAffinity>
-4.76178265

$$$$
