
 OpenBabel03242517283D

 37 39  0  0  1  0  0  0  0  0999 V2000
   45.0120   34.6410   44.9480 C   0  0  0  0  0  0  0  0  0  0  0  0
   45.9050   34.5680   43.8500 C   0  0  0  0  0  0  0  0  0  0  0  0
   47.0040   33.6870   43.9570 C   0  0  0  0  0  0  0  0  0  0  0  0
   47.1330   32.9740   45.0970 N   0  0  0  0  0  0  0  0  0  0  0  0
   46.2670   33.0590   46.1350 C   0  0  0  0  0  0  0  0  0  0  0  0
   45.2310   33.8910   46.0290 N   0  0  0  0  0  0  0  0  0  0  0  0
   46.4950   32.2740   47.2700 N   0  0  0  0  0  0  0  0  0  0  0  0
   47.7180   32.4000   48.0070 C   0  0  0  0  0  0  0  0  0  0  0  0
   47.9790   31.2450   48.9270 C   0  0  0  0  0  0  0  0  0  0  0  0
   46.8410   30.6350   49.5010 N   0  0  0  0  0  0  0  0  0  0  0  0
   45.6060   31.2780   49.1860 C   0  0  0  0  0  0  0  0  0  0  0  0
   45.4680   31.3260   47.6870 C   0  0  2  0  0  0  0  0  0  0  0  0
   44.1650   35.2880   44.9230 H   0  0  0  0  0  0  0  0  0  0  0  0
   45.7390   35.1650   42.9780 H   0  0  0  0  0  0  0  0  0  0  0  0
   47.6950   33.6170   43.1340 H   0  0  0  0  0  0  0  0  0  0  0  0
   48.5450   32.5260   47.2810 H   0  0  0  0  0  0  0  0  0  0  0  0
   47.7010   33.3320   48.6130 H   0  0  0  0  0  0  0  0  0  0  0  0
   48.5170   30.4750   48.3110 H   0  0  0  0  0  0  0  0  0  0  0  0
   48.6720   31.5260   49.7350 H   0  0  0  0  0  0  0  0  0  0  0  0
   46.7900   29.5880   49.4190 H   0  0  0  0  0  0  0  0  0  0  0  0
   44.7730   30.7650   49.6890 H   0  0  0  0  0  0  0  0  0  0  0  0
   45.6450   32.3250   49.5480 H   0  0  0  0  0  0  0  0  0  0  0  0
   44.4850   31.7380   47.4130 H   0  0  0  0  0  0  0  0  0  0  0  0
   45.6070   29.9850   47.0460 C   0  0  0  0  0  0  0  0  0  0  0  0
   45.1240   30.0010   46.0420 H   0  0  0  0  0  0  0  0  0  0  0  0
   46.6510   29.6060   47.0020 H   0  0  0  0  0  0  0  0  0  0  0  0
   44.8210   29.0070   47.8720 C   0  0  0  0  0  0  0  0  0  0  0  0
   45.0330   27.6960   47.7720 C   0  0  0  0  0  0  0  0  0  0  0  0
   44.3010   26.6590   48.5510 C   0  0  0  0  0  0  0  0  0  0  0  0
   45.0920   26.0960   49.1030 H   0  0  0  0  0  0  0  0  0  0  0  0
   43.5960   27.0890   49.2640 H   0  0  0  0  0  0  0  0  0  0  0  0
   43.6930   25.6680   47.5920 C   0  0  0  0  0  0  0  0  0  0  0  0
   44.6770   24.9850   46.6990 C   0  0  0  0  0  0  0  0  0  0  0  0
   43.9630   23.7220   46.2010 C   0  0  0  0  0  0  0  0  0  0  0  0
   42.7590   24.1210   45.4110 C   0  0  0  0  0  0  0  0  0  0  0  0
   41.8600   25.0760   46.1330 C   0  0  0  0  0  0  0  0  0  0  0  0
   42.6090   26.2480   46.7490 C   0  0  0  0  0  0  0  0  0  0  0  0
  1  6  1  0  0  0  0
  2  3  1  0  0  0  0
  2  1  2  0  0  0  0
  3  4  2  0  0  0  0
  4  5  1  0  0  0  0
  5  7  1  0  0  0  0
  6  5  2  0  0  0  0
  7 12  1  0  0  0  0
  7  8  1  0  0  0  0
  8 17  1  0  0  0  0
  8  9  1  0  0  0  0
  9 10  1  0  0  0  0
  9 19  1  0  0  0  0
 11 10  1  0  0  0  0
 11 22  1  0  0  0  0
 11 21  1  0  0  0  0
 12 23  1  6  0  0  0
 12 11  1  0  0  0  0
 13  1  1  0  0  0  0
 14  2  1  0  0  0  0
 15  3  1  0  0  0  0
 16  8  1  0  0  0  0
 18  9  1  0  0  0  0
 20 10  1  0  0  0  0
 24 12  1  0  0  0  0
 24 27  1  0  0  0  0
 25 24  1  0  0  0  0
 26 24  1  0  0  0  0
 28 27  2  0  0  0  0
 28 29  1  0  0  0  0
 29 30  1  0  0  0  0
 29 31  1  0  0  0  0
 32 29  1  0  0  0  0
 33 32  1  0  0  0  0
 34 33  1  0  0  0  0
 35 36  1  0  0  0  0
 35 34  1  0  0  0  0
 36 37  1  0  0  0  0
 37 32  1  0  0  0  0
M  END
>  <minimizedAffinity>
-5.67032671

>  <minimizedRMSD>
0.183049068

$$$$
