
 OpenBabel03242515003D

 34 36  0  0  0  0  0  0  0  0999 V2000
   42.1370   34.7660   41.4290 C   0  0  0  0  0  0  0  0  0  0  0  0
   42.1810   34.9140   42.5330 H   0  0  0  0  0  0  0  0  0  0  0  0
   41.6490   33.7590   41.2810 H   0  0  0  0  0  0  0  0  0  0  0  0
   41.2730   35.7820   40.7560 C   0  0  0  0  0  0  0  0  0  0  0  0
   40.6090   36.2160   41.5420 H   0  0  0  0  0  0  0  0  0  0  0  0
   41.8310   36.6220   40.3120 H   0  0  0  0  0  0  0  0  0  0  0  0
   41.9870   36.0980   37.8140 Cl  0  0  0  0  0  0  0  0  0  0  0  0
   40.6100   35.2210   38.3890 C   0  0  0  0  0  0  0  0  0  0  0  0
   40.3660   35.1340   39.7780 C   0  0  0  0  0  0  0  0  0  0  0  0
   39.2580   34.4250   40.1450 C   0  0  0  0  0  0  0  0  0  0  0  0
   38.3550   33.7870   39.3100 C   0  0  0  0  0  0  0  0  0  0  0  0
   38.6100   33.8840   37.9520 C   0  0  0  0  0  0  0  0  0  0  0  0
   37.5250   33.1100   36.8000 Cl  0  0  0  0  0  0  0  0  0  0  0  0
   39.7150   34.5880   37.5160 C   0  0  0  0  0  0  0  0  0  0  0  0
   39.0450   34.3410   41.2150 H   0  0  0  0  0  0  0  0  0  0  0  0
   37.5050   33.2490   39.7010 H   0  0  0  0  0  0  0  0  0  0  0  0
   39.9080   34.6590   36.4470 H   0  0  0  0  0  0  0  0  0  0  0  0
   43.8000   34.6710   40.7430 S   0  0  0  0  0  0  0  0  0  0  0  0
   45.0580   34.4690   42.0120 C   0  0  0  0  0  0  0  0  0  0  0  0
   46.3870   34.6280   41.6040 C   0  0  0  0  0  0  0  0  0  0  0  0
   47.3980   34.4810   42.5550 C   0  0  0  0  0  0  0  0  0  0  0  0
   47.0310   34.1900   43.8300 N   0  0  0  0  0  0  0  0  0  0  0  0
   45.7490   34.0400   44.2060 C   0  0  0  0  0  0  0  0  0  0  0  0
   44.7870   34.1830   43.2880 N   0  0  0  0  0  0  0  0  0  0  0  0
   46.6090   34.8600   40.5730 H   0  0  0  0  0  0  0  0  0  0  0  0
   48.4270   34.6000   42.2590 H   0  0  0  0  0  0  0  0  0  0  0  0
   45.4630   33.7300   45.5920 C   0  0  0  0  0  0  0  0  0  0  0  0
   44.9520   34.6430   46.2900 O   0  0  0  0  0  0  0  0  0  0  0  0
   45.7510   32.3840   46.2030 C   0  0  0  0  0  3  0  0  0  0  0  0
   47.0360   31.8680   45.5900 C   0  0  0  0  0  2  0  0  0  0  0  0
   47.5380   30.6420   46.2790 C   0  0  0  0  0  2  0  0  0  0  0  0
   47.8080   30.9210   47.7210 C   0  0  0  0  0  2  0  0  0  0  0  0
   47.3320   32.3150   48.0690 C   0  0  0  0  0  2  0  0  0  0  0  0
   45.8510   32.4420   47.6940 C   0  0  0  0  0  2  0  0  0  0  0  0
  1  2  1  0  0  0  0
  3  1  1  0  0  0  0
  4  1  1  0  0  0  0
  4  5  1  0  0  0  0
  6  4  1  0  0  0  0
  7  8  1  0  0  0  0
  8  9  1  0  0  0  0
  9 10  2  0  0  0  0
  9  4  1  0  0  0  0
 10 15  1  0  0  0  0
 11 16  1  0  0  0  0
 11 10  1  0  0  0  0
 12 11  2  0  0  0  0
 13 12  1  0  0  0  0
 14 12  1  0  0  0  0
 14  8  2  0  0  0  0
 17 14  1  0  0  0  0
 18  1  1  0  0  0  0
 18 19  1  0  0  0  0
 19 24  1  0  0  0  0
 20 19  2  0  0  0  0
 20 21  1  0  0  0  0
 21 22  2  0  0  0  0
 22 23  1  0  0  0  0
 23 27  1  0  0  0  0
 24 23  2  0  0  0  0
 25 20  1  0  0  0  0
 26 21  1  0  0  0  0
 27 29  1  0  0  0  0
 27 28  2  0  0  0  0
 29 34  1  0  0  0  0
 30 29  1  0  0  0  0
 30 31  1  0  0  0  0
 31 32  1  0  0  0  0
 32 33  1  0  0  0  0
 34 33  1  0  0  0  0
M  END
>  <minimizedAffinity>
-6.64096022

>  <minimizedRMSD>
0.699929953

$$$$
