
 OpenBabel03242519413D

 26 28  0  0  1  0  0  0  0  0999 V2000
   48.1680   32.8880   41.9410 O   0  0  0  0  0  0  0  0  0  0  0  0
   47.2940   33.9960   41.4030 P   0  0  2  0  0  0  0  0  0  0  0  0
   45.6890   33.8090   42.0080 O   0  0  0  0  0  0  0  0  0  0  0  0
   44.3690   35.9150   44.6310 C   0  0  0  0  0  0  0  0  0  0  0  0
   44.7100   35.4430   43.3470 C   0  0  0  0  0  0  0  0  0  0  0  0
   45.3800   34.2210   43.2610 C   0  0  0  0  0  0  0  0  0  0  0  0
   45.6760   33.5400   44.3880 N   0  0  0  0  0  0  0  0  0  0  0  0
   45.3380   34.0170   45.6080 C   0  0  0  0  0  0  0  0  0  0  0  0
   44.6900   35.1940   45.7380 N   0  0  0  0  0  0  0  0  0  0  0  0
   43.8570   36.8470   44.7120 H   0  0  0  0  0  0  0  0  0  0  0  0
   44.4490   36.0240   42.4870 H   0  0  0  0  0  0  0  0  0  0  0  0
   45.6090   33.4160   46.4660 H   0  0  0  0  0  0  0  0  0  0  0  0
   47.1190   33.9490   39.7550 O   0  0  0  0  0  0  0  0  0  0  0  0
   46.2190   33.3420   38.9720 C   0  0  2  0  0  3  0  0  0  0  0  0
   46.5350   33.3190   37.7260 O   0  0  0  0  0  0  0  0  0  0  0  0
   45.1730   32.6780   38.3160 C   0  0  0  0  0  0  0  0  0  0  0  0
   43.9690   32.4020   39.1880 C   0  0  0  0  0  2  0  0  0  0  0  0
   44.1270   31.1180   39.9720 C   0  0  0  0  0  2  0  0  0  0  0  0
   43.8970   30.0120   38.9680 C   0  0  0  0  0  2  0  0  0  0  0  0
   44.7220   30.2200   37.7720 C   0  0  0  0  0  2  0  0  0  0  0  0
   45.6230   31.3470   37.6500 C   0  0  0  0  0  2  0  0  0  0  0  0
   47.8240   35.4540   41.9730 O   0  0  0  0  0  0  0  0  0  0  0  0
   49.0540   35.7790   41.4310 C   0  0  0  0  0  0  0  0  0  0  0  0
   49.4590   37.0640   41.7840 F   0  0  0  0  0  0  0  0  0  0  0  0
   49.9750   34.8410   41.7650 F   0  0  0  0  0  0  0  0  0  0  0  0
   48.8930   35.7890   40.0530 F   0  0  0  0  0  0  0  0  0  0  0  0
  2  1  2  1  0  0  0
  2 22  1  0  0  0  0
  2  3  1  0  0  0  0
  3  6  1  0  0  0  0
  4 10  1  0  0  0  0
  4  9  1  0  0  0  0
  5  4  2  0  0  0  0
  6  5  1  0  0  0  0
  6  7  2  0  0  0  0
  7  8  1  0  0  0  0
  8  9  2  0  0  0  0
  8 12  1  0  0  0  0
 11  5  1  0  0  0  0
 13  2  1  0  0  0  0
 14 13  1  6  0  0  0
 15 16  1  0  0  0  0
 15 14  1  0  0  0  0
 16 14  1  0  0  0  0
 16 17  1  0  0  0  0
 17 18  1  0  0  0  0
 19 18  1  0  0  0  0
 20 19  1  0  0  0  0
 21 20  1  0  0  0  0
 21 16  1  0  0  0  0
 23 25  1  0  0  0  0
 23 24  1  0  0  0  0
 23 22  1  0  0  0  0
 26 23  1  0  0  0  0
M  END
>  <minimizedAffinity>
-4.85644197

>  <minimizedRMSD>
0.485609919

$$$$
