
 OpenBabel03252509293D

 18 19  0  0  0  0  0  0  0  0999 V2000
   44.4480   36.0060   44.9420 C   0  0  0  0  0  0  0  0  0  0  0  0
   44.4850   35.8590   43.5340 C   0  0  0  0  0  0  0  0  0  0  0  0
   44.9490   34.6470   43.0300 C   0  0  0  0  0  0  0  0  0  0  0  0
   45.3420   33.6680   43.8920 N   0  0  0  0  0  0  0  0  0  0  0  0
   45.2870   33.8570   45.2440 C   0  0  0  0  0  0  0  0  0  0  0  0
   44.8430   35.0170   45.7600 N   0  0  0  0  0  0  0  0  0  0  0  0
   44.0920   36.9380   45.3510 H   0  0  0  0  0  0  0  0  0  0  0  0
   44.1590   36.6770   42.9260 H   0  0  0  0  0  0  0  0  0  0  0  0
   45.5960   33.0880   45.9210 H   0  0  0  0  0  0  0  0  0  0  0  0
   44.9840   34.5030   41.5760 C   0  0  0  0  0  0  0  0  0  0  0  0
   44.4570   33.5580   41.3250 H   0  0  0  0  0  0  0  0  0  0  0  0
   44.4750   35.3110   41.0370 H   0  0  0  0  0  0  0  0  0  0  0  0
   46.3740   34.3580   41.0200 C   0  0  0  0  0  3  0  0  0  0  0  0
   47.4420   35.0440   41.8170 C   0  0  0  0  0  2  0  0  0  0  0  0
   48.6540   35.1390   40.8880 C   0  0  0  0  0  2  0  0  0  0  0  0
   49.1000   33.7290   40.6060 C   0  0  0  0  0  2  0  0  0  0  0  0
   48.0010   32.9470   39.9250 C   0  0  0  0  0  2  0  0  0  0  0  0
   46.7860   32.9080   40.8590 C   0  0  0  0  0  2  0  0  0  0  0  0
  1  7  1  0  0  0  0
  1  6  1  0  0  0  0
  2  1  2  0  0  0  0
  3  2  1  0  0  0  0
  3  4  2  0  0  0  0
  4  5  1  0  0  0  0
  5  6  2  0  0  0  0
  5  9  1  0  0  0  0
  8  2  1  0  0  0  0
 10  3  1  0  0  0  0
 11 10  1  0  0  0  0
 12 10  1  0  0  0  0
 13 10  1  0  0  0  0
 13 14  1  0  0  0  0
 15 14  1  0  0  0  0
 16 15  1  0  0  0  0
 17 16  1  0  0  0  0
 17 18  1  0  0  0  0
 18 13  1  0  0  0  0
M  END
>  <minimizedAffinity>
-3.90069389

>  <minimizedRMSD>
2.33098459

$$$$
