
 OpenBabel03252505303D

 24 25  0  0  1  0  0  0  0  0999 V2000
   47.0510   32.0960   48.2960 O   0  0  0  0  0  0  0  0  0  0  0  0
   45.9700   32.3650   47.2380 P   0  0  1  0  0  0  0  0  0  0  0  0
   44.6970   33.2590   47.8510 O   0  0  0  0  0  0  0  0  0  0  0  0
   44.9560   33.5210   48.7770 H   0  0  0  0  0  0  0  0  0  0  0  0
   46.7330   33.1940   45.9680 O   0  0  0  0  0  0  0  0  0  0  0  0
   44.4760   35.6300   44.7290 C   0  0  0  0  0  0  0  0  0  0  0  0
   44.8510   35.8090   43.3800 C   0  0  0  0  0  0  0  0  0  0  0  0
   45.9370   35.0320   42.9210 C   0  0  0  0  0  0  0  0  0  0  0  0
   46.5310   34.1810   43.8080 N   0  0  0  0  0  0  0  0  0  0  0  0
   46.1290   34.0550   45.0770 C   0  0  0  0  0  0  0  0  0  0  0  0
   45.1110   34.7730   45.5370 N   0  0  0  0  0  0  0  0  0  0  0  0
   43.6350   36.2450   45.0490 H   0  0  0  0  0  0  0  0  0  0  0  0
   44.3620   36.4870   42.7130 H   0  0  0  0  0  0  0  0  0  0  0  0
   46.3000   35.0980   41.9020 H   0  0  0  0  0  0  0  0  0  0  0  0
   45.3990   30.8630   46.7570 O   0  0  0  0  0  0  0  0  0  0  0  0
   45.9080   29.9140   47.6150 C   0  0  0  0  0  0  0  0  0  0  0  0
   46.8850   29.5400   47.2220 H   0  0  0  0  0  0  0  0  0  0  0  0
   46.0650   30.3450   48.6220 H   0  0  0  0  0  0  0  0  0  0  0  0
   44.9790   28.7320   47.6160 C   0  0  1  0  0  0  0  0  0  0  0  0
   44.2110   28.7080   46.3280 C   0  0  0  0  0  0  0  0  0  0  0  0
   43.4490   27.4730   46.0490 C   0  0  0  0  0  0  0  0  0  0  0  0
   43.5590   26.3400   46.9900 C   0  0  0  0  0  0  0  0  0  0  0  0
   44.6780   26.3760   47.9730 C   0  0  0  0  0  0  0  0  0  0  0  0
   45.7290   27.4140   47.6590 C   0  0  0  0  0  0  0  0  0  0  0  0
  2  3  1  0  0  0  0
  2  1  2  1  0  0  0
  3  4  1  0  0  0  0
  5  2  1  0  0  0  0
  6 12  1  0  0  0  0
  6 11  1  0  0  0  0
  7  6  2  0  0  0  0
  8  7  1  0  0  0  0
  8  9  2  0  0  0  0
  9 10  1  0  0  0  0
 10 11  2  0  0  0  0
 10  5  1  0  0  0  0
 13  7  1  0  0  0  0
 14  8  1  0  0  0  0
 15  2  1  0  0  0  0
 15 16  1  0  0  0  0
 16 18  1  0  0  0  0
 17 16  1  0  0  0  0
 19 16  1  6  0  0  0
 19 24  1  0  0  0  0
 20 19  1  0  0  0  0
 21 20  1  0  0  0  0
 21 22  2  0  0  0  0
 22 23  1  0  0  0  0
 24 23  1  0  0  0  0
M  END
>  <minimizedAffinity>
-4.88760185

>  <minimizedRMSD>
0.434399009

$$$$
