
 OpenBabel03242519493D

 47 50  0  0  1  0  0  0  0  0999 V2000
   45.1540   28.0500   48.0210 C   0  0  0  0  0  0  0  0  0  0  0  0
   45.5710   27.6400   48.8970 H   0  0  0  0  0  0  0  0  0  0  0  0
   43.9720   27.9620   48.4190 H   0  0  0  0  0  0  0  0  0  0  0  0
   45.0200   27.2640   46.7220 C   0  0  0  0  0  0  0  0  0  0  0  0
   45.4300   26.2400   46.9270 H   0  0  0  0  0  0  0  0  0  0  0  0
   45.5970   27.6870   45.9110 H   0  0  0  0  0  0  0  0  0  0  0  0
   43.0530   28.1410   45.5980 C   0  0  0  0  0  0  0  0  0  0  0  0
   43.6030   27.1160   46.3840 C   0  0  0  0  0  0  0  0  0  0  0  0
   42.7030   26.1370   46.7350 C   0  0  0  0  0  0  0  0  0  0  0  0
   41.3880   26.1120   46.3810 C   0  0  0  0  0  0  0  0  0  0  0  0
   40.8660   27.1350   45.6060 C   0  0  0  0  0  0  0  0  0  0  0  0
   41.7280   28.1760   45.2060 C   0  0  0  0  0  0  0  0  0  0  0  0
   43.1690   25.3580   47.3450 H   0  0  0  0  0  0  0  0  0  0  0  0
   40.8130   25.2660   46.7410 H   0  0  0  0  0  0  0  0  0  0  0  0
   39.8180   27.0770   45.3480 H   0  0  0  0  0  0  0  0  0  0  0  0
   43.7130   29.2450   45.0990 O   0  0  0  0  0  0  0  0  0  0  0  0
   44.3080   29.1380   44.2820 H   0  0  0  0  0  0  0  0  0  0  0  0
   41.1120   29.1040   44.4610 O   0  0  0  0  0  0  0  0  0  0  0  0
   40.8490   29.3270   43.1480 C   0  0  0  0  0  3  0  0  0  0  0  0
   39.3170   29.2190   42.9880 C   0  0  0  0  0  2  0  0  0  0  0  0
   39.0010   29.3060   41.5240 C   0  0  0  0  0  2  0  0  0  0  0  0
   39.4660   30.6330   40.9670 C   0  0  0  0  0  2  0  0  0  0  0  0
   40.8780   30.9590   41.3210 C   0  0  0  0  0  2  0  0  0  0  0  0
   41.1240   30.8070   42.8010 C   0  0  0  0  0  2  0  0  0  0  0  0
   45.1990   29.3760   47.8440 O   0  0  0  0  0  0  0  0  0  0  0  0
   46.0060   31.6090   47.9890 C   0  0  2  0  0  0  0  0  0  0  0  0
   46.9460   31.8360   46.8920 C   0  0  1  0  0  0  0  0  0  0  0  0
   47.0730   30.4900   46.2770 O   0  0  0  0  0  0  0  0  0  0  0  0
   47.4420   29.8100   47.4340 C   0  0  0  0  0  0  0  0  0  0  0  0
   46.1480   30.1690   48.3500 C   0  0  2  0  0  0  0  0  0  0  0  0
   46.1230   32.2900   48.8530 H   0  0  0  0  0  0  0  0  0  0  0  0
   47.9850   32.0030   47.2920 H   0  0  0  0  0  0  0  0  0  0  0  0
   48.3110   30.2590   47.9280 H   0  0  0  0  0  0  0  0  0  0  0  0
   47.4510   28.7260   47.3170 H   0  0  0  0  0  0  0  0  0  0  0  0
   46.6480   29.8840   49.2910 H   0  0  0  0  0  0  0  0  0  0  0  0
   45.1590   34.6090   45.3450 C   0  0  0  0  0  0  0  0  0  0  0  0
   45.6930   34.6760   44.0620 C   0  0  0  0  0  0  0  0  0  0  0  0
   46.6870   33.7460   43.6990 C   0  0  0  0  0  0  0  0  0  0  0  0
   47.0840   32.8260   44.6040 N   0  0  0  0  0  0  0  0  0  0  0  0
   46.5520   32.7760   45.8470 C   0  0  0  0  0  0  0  0  0  0  0  0
   45.5860   33.6650   46.2290 N   0  0  0  0  0  0  0  0  0  0  0  0
   45.3080   35.4540   43.4050 H   0  0  0  0  0  0  0  0  0  0  0  0
   47.0820   33.8140   42.7140 H   0  0  0  0  0  0  0  0  0  0  0  0
   44.1740   35.5050   45.7570 O   0  0  0  0  0  0  0  0  0  0  0  0
   43.3080   35.6520   45.2760 H   0  0  0  0  0  0  0  0  0  0  0  0
   44.6540   31.7840   47.4710 O   0  0  0  0  0  0  0  0  0  0  0  0
   44.0910   31.1220   47.9560 H   0  0  0  0  0  0  0  0  0  0  0  0
  1  3  1  0  0  0  0
  1  2  1  0  0  0  0
  4  5  1  0  0  0  0
  4  1  1  0  0  0  0
  6  4  1  0  0  0  0
  7  8  1  0  0  0  0
  8  4  1  0  0  0  0
  8  9  2  0  0  0  0
  9 13  1  0  0  0  0
 10  9  1  0  0  0  0
 10 14  1  0  0  0  0
 11 10  2  0  0  0  0
 12  7  2  0  0  0  0
 12 11  1  0  0  0  0
 15 11  1  0  0  0  0
 16  7  1  0  0  0  0
 17 16  1  0  0  0  0
 18 12  1  0  0  0  0
 19 18  1  0  0  0  0
 20 19  1  0  0  0  0
 21 20  1  0  0  0  0
 22 23  1  0  0  0  0
 22 21  1  0  0  0  0
 23 24  1  0  0  0  0
 24 19  1  0  0  0  0
 25  1  1  0  0  0  0
 25 30  1  0  0  0  0
 26 30  1  0  0  0  0
 26 31  1  1  0  0  0
 27 32  1  1  0  0  0
 27 26  1  0  0  0  0
 28 27  1  0  0  0  0
 28 29  1  0  0  0  0
 29 33  1  0  0  0  0
 29 30  1  0  0  0  0
 30 35  1  1  0  0  0
 34 29  1  0  0  0  0
 36 44  1  0  0  0  0
 36 41  1  0  0  0  0
 37 36  2  0  0  0  0
 38 37  1  0  0  0  0
 38 39  2  0  0  0  0
 39 40  1  0  0  0  0
 40 41  2  0  0  0  0
 40 27  1  0  0  0  0
 42 37  1  0  0  0  0
 43 38  1  0  0  0  0
 45 44  1  0  0  0  0
 46 47  1  0  0  0  0
 46 26  1  0  0  0  0
M  END
>  <minimizedAffinity>
-6.22574854

>  <minimizedRMSD>
1.51440549

$$$$
