
 OpenBabel03252507163D

 26 28  0  0  0  0  0  0  0  0999 V2000
   45.6150   35.7920   42.9200 C   0  0  0  0  0  0  0  0  0  0  0  0
   46.0640   34.4500   42.9840 C   0  0  0  0  0  0  0  0  0  0  0  0
   45.7360   33.7440   44.1400 C   0  0  0  0  0  0  0  0  0  0  0  0
   45.0290   34.3360   45.1210 N   0  0  0  0  0  0  0  0  0  0  0  0
   44.6120   35.6390   45.0210 C   0  0  0  0  0  0  0  0  0  0  0  0
   44.9160   36.3270   43.9260 N   0  0  0  0  0  0  0  0  0  0  0  0
   45.8500   36.3900   42.0280 H   0  0  0  0  0  0  0  0  0  0  0  0
   44.0560   35.9670   45.8880 H   0  0  0  0  0  0  0  0  0  0  0  0
   46.1860   32.3580   44.2350 C   0  0  0  0  0  0  0  0  0  0  0  0
   45.3390   31.3350   43.8790 C   0  0  0  0  0  0  0  0  0  0  0  0
   45.7890   30.0380   43.9790 C   0  0  0  0  0  0  0  0  0  0  0  0
   47.0620   29.7050   44.4220 C   0  0  0  0  0  0  0  0  0  0  0  0
   47.8650   30.7890   44.7660 C   0  0  0  0  0  0  0  0  0  0  0  0
   47.4070   32.0440   44.6620 N   0  0  0  0  0  0  0  0  0  0  0  0
   44.3150   31.5160   43.5170 H   0  0  0  0  0  0  0  0  0  0  0  0
   45.1410   29.1950   43.7040 H   0  0  0  0  0  0  0  0  0  0  0  0
   47.4280   28.6950   44.5060 H   0  0  0  0  0  0  0  0  0  0  0  0
   48.8770   30.6310   45.1240 H   0  0  0  0  0  0  0  0  0  0  0  0
   46.8070   33.8790   41.9190 C   0  0  0  0  0  0  0  0  0  0  0  0
   48.0150   34.2520   41.8040 O   0  0  0  0  0  0  0  0  0  0  0  0
   46.4590   32.8890   40.8560 C   0  0  0  0  0  3  0  0  0  0  0  0
   47.6080   31.9340   40.7710 C   0  0  0  0  0  2  0  0  0  0  0  0
   47.6640   31.1340   39.5010 C   0  0  0  0  0  2  0  0  0  0  0  0
   47.4580   31.9550   38.2690 C   0  0  0  0  0  2  0  0  0  0  0  0
   47.1790   33.4000   38.5280 C   0  0  0  0  0  2  0  0  0  0  0  0
   46.1220   33.5870   39.5820 C   0  0  0  0  0  2  0  0  0  0  0  0
  1  2  2  0  0  0  0
  1  6  1  0  0  0  0
  2  3  1  0  0  0  0
  3  9  1  0  0  0  0
  3  4  2  0  0  0  0
  5  4  1  0  0  0  0
  5  8  1  0  0  0  0
  6  5  2  0  0  0  0
  7  1  1  0  0  0  0
  9 14  1  0  0  0  0
 10 11  1  0  0  0  0
 10  9  2  0  0  0  0
 11 12  2  0  0  0  0
 12 17  1  0  0  0  0
 12 13  1  0  0  0  0
 13 18  1  0  0  0  0
 14 13  2  0  0  0  0
 15 10  1  0  0  0  0
 16 11  1  0  0  0  0
 19  2  1  0  0  0  0
 20 19  2  0  0  0  0
 21 19  1  0  0  0  0
 22 21  1  0  0  0  0
 23 22  1  0  0  0  0
 24 25  1  0  0  0  0
 24 23  1  0  0  0  0
 25 26  1  0  0  0  0
 26 21  1  0  0  0  0
M  END
>  <minimizedAffinity>
-3.82772684

>  <minimizedRMSD>
1.06898963

$$$$
