
 OpenBabel03252503353D

 19 20  0  0  0  0  0  0  0  0999 V2000
   46.5860   34.0750   40.8410 C   0  0  0  0  0  0  0  0  0  0  0  0
   45.4300   33.5850   40.9470 O   0  0  0  0  0  0  0  0  0  0  0  0
   47.0410   34.7670   41.9950 N   0  0  0  0  0  0  0  0  0  0  0  0
   47.9730   35.2130   42.0910 H   0  0  0  0  0  0  0  0  0  0  0  0
   44.5530   36.0440   44.4630 C   0  0  0  0  0  0  0  0  0  0  0  0
   45.3250   35.9720   43.2910 C   0  0  0  0  0  0  0  0  0  0  0  0
   46.2240   34.9110   43.1500 C   0  0  0  0  0  0  0  0  0  0  0  0
   46.3180   33.9880   44.1470 N   0  0  0  0  0  0  0  0  0  0  0  0
   45.5570   34.0860   45.2670 C   0  0  0  0  0  0  0  0  0  0  0  0
   44.6910   35.1080   45.4060 N   0  0  0  0  0  0  0  0  0  0  0  0
   43.8530   36.8590   44.5870 H   0  0  0  0  0  0  0  0  0  0  0  0
   45.2430   36.7090   42.5050 H   0  0  0  0  0  0  0  0  0  0  0  0
   45.6560   33.3340   46.0450 H   0  0  0  0  0  0  0  0  0  0  0  0
   47.5270   34.0230   39.6810 C   0  0  0  0  0  3  0  0  0  0  0  0
   46.8310   33.4870   38.4410 C   0  0  0  0  0  2  0  0  0  0  0  0
   47.7850   33.8390   37.2970 C   0  0  0  0  0  2  0  0  0  0  0  0
   48.9930   32.9380   37.4140 C   0  0  0  0  0  2  0  0  0  0  0  0
   49.0930   32.2730   38.7540 C   0  0  0  0  0  2  0  0  0  0  0  0
   48.7100   33.1300   39.9170 C   0  0  0  0  0  2  0  0  0  0  0  0
  1  2  2  0  0  0  0
  1  3  1  0  0  0  0
  3  4  1  0  0  0  0
  3  7  1  0  0  0  0
  5 11  1  0  0  0  0
  5 10  1  0  0  0  0
  6  5  2  0  0  0  0
  7  6  1  0  0  0  0
  7  8  2  0  0  0  0
  8  9  1  0  0  0  0
  9 10  2  0  0  0  0
  9 13  1  0  0  0  0
 12  6  1  0  0  0  0
 14 19  1  0  0  0  0
 14  1  1  0  0  0  0
 15 14  1  0  0  0  0
 16 17  1  0  0  0  0
 16 15  1  0  0  0  0
 17 18  1  0  0  0  0
 18 19  1  0  0  0  0
M  END
>  <minimizedAffinity>
-4.39476919

>  <minimizedRMSD>
0.327614933

$$$$
