
 OpenBabel03252509273D

 27 29  0  0  1  0  0  0  0  0999 V2000
   46.5680   35.0460   41.9220 C   0  0  1  0  0  0  0  0  0  0  0  0
   48.1040   35.2920   41.9360 C   0  0  0  0  0  0  0  0  0  0  0  0
   47.3670   34.0490   41.3420 C   0  0  2  0  0  0  0  0  0  0  0  0
   46.0140   35.8050   41.3290 H   0  0  0  0  0  0  0  0  0  0  0  0
   48.4760   35.9780   41.1480 H   0  0  0  0  0  0  0  0  0  0  0  0
   48.6540   35.1720   42.8630 H   0  0  0  0  0  0  0  0  0  0  0  0
   47.5730   33.1270   41.9700 H   0  0  0  0  0  0  0  0  0  0  0  0
   44.6440   35.4310   45.1210 C   0  0  0  0  0  0  0  0  0  0  0  0
   45.1100   35.7240   43.8070 C   0  0  0  0  0  0  0  0  0  0  0  0
   46.0480   34.8700   43.3280 C   0  0  0  0  0  0  0  0  0  0  0  0
   46.5130   33.8010   44.0640 N   0  0  0  0  0  0  0  0  0  0  0  0
   46.0450   33.5560   45.3140 C   0  0  0  0  0  0  0  0  0  0  0  0
   45.1020   34.3840   45.8390 N   0  0  0  0  0  0  0  0  0  0  0  0
   43.8860   36.1230   45.5040 H   0  0  0  0  0  0  0  0  0  0  0  0
   46.3770   32.7410   45.9200 H   0  0  0  0  0  0  0  0  0  0  0  0
   44.6520   36.8320   43.0550 N   0  0  0  0  0  0  0  0  0  0  0  0
   44.0040   36.8160   42.2190 H   0  0  0  0  0  0  0  0  0  0  0  0
   44.9240   37.8390   43.2630 H   0  0  0  0  0  0  0  0  0  0  0  0
   47.4310   33.8420   39.8420 C   0  0  0  0  0  0  0  0  0  0  0  0
   46.4220   33.9940   39.4010 H   0  0  0  0  0  0  0  0  0  0  0  0
   48.1220   34.6080   39.4040 H   0  0  0  0  0  0  0  0  0  0  0  0
   47.9230   32.4350   39.5600 C   0  0  0  0  0  3  0  0  0  0  0  0
   49.3880   32.3050   39.7800 C   0  0  0  0  0  2  0  0  0  0  0  0
   49.8990   31.0160   40.2950 C   0  0  0  0  0  2  0  0  0  0  0  0
   48.8890   29.9160   40.0430 C   0  0  0  0  0  2  0  0  0  0  0  0
   47.7100   30.3100   40.9130 C   0  0  0  0  0  2  0  0  0  0  0  0
   47.0370   31.4670   40.2330 C   0  0  0  0  0  2  0  0  0  0  0  0
  1  4  1  6  0  0  0
  1  2  1  0  0  0  0
  1 10  1  0  0  0  0
  2  6  1  0  0  0  0
  3  1  1  0  0  0  0
  3  2  1  0  0  0  0
  3  7  1  1  0  0  0
  5  2  1  0  0  0  0
  8 14  1  0  0  0  0
  8 13  1  0  0  0  0
  9  8  2  0  0  0  0
 10  9  1  0  0  0  0
 10 11  2  0  0  0  0
 11 12  1  0  0  0  0
 12 13  2  0  0  0  0
 12 15  1  0  0  0  0
 16 18  1  0  0  0  0
 16  9  1  0  0  0  0
 17 16  1  0  0  0  0
 19  3  1  0  0  0  0
 20 19  1  0  0  0  0
 21 19  1  0  0  0  0
 22 23  1  0  0  0  0
 22 19  1  0  0  0  0
 22 27  1  0  0  0  0
 23 24  1  0  0  0  0
 25 24  1  0  0  0  0
 25 26  1  0  0  0  0
 27 26  1  0  0  0  0
M  END
>  <minimizedAffinity>
-4.43787193

>  <minimizedRMSD>
0.655046403

$$$$
