
 OpenBabel03252508503D

 25 27  0  0  0  0  0  0  0  0999 V2000
   45.9400   34.1650   41.0300 C   0  0  0  0  0  0  0  0  0  0  0  0
   46.5300   34.7980   42.1180 C   0  0  0  0  0  0  0  0  0  0  0  0
   47.8700   35.1790   42.0000 C   0  0  0  0  0  0  0  0  0  0  0  0
   48.5170   34.9120   40.8350 N   0  0  0  0  0  0  0  0  0  0  0  0
   47.9070   34.2960   39.8030 C   0  0  0  0  0  0  0  0  0  0  0  0
   46.6100   33.9210   39.9050 N   0  0  0  0  0  0  0  0  0  0  0  0
   48.3600   35.6790   42.8420 H   0  0  0  0  0  0  0  0  0  0  0  0
   48.4360   34.0890   38.8840 H   0  0  0  0  0  0  0  0  0  0  0  0
   45.7510   35.0440   43.3340 C   0  0  0  0  0  0  0  0  0  0  0  0
   45.0740   36.2170   43.5730 C   0  0  0  0  0  0  0  0  0  0  0  0
   44.4940   36.0210   44.8020 C   0  0  0  0  0  0  0  0  0  0  0  0
   44.8040   34.7890   45.2920 N   0  0  0  0  0  0  0  0  0  0  0  0
   45.5640   34.2270   44.3800 N   0  0  0  0  0  0  0  0  0  0  0  0
   45.0320   37.0580   42.9270 H   0  0  0  0  0  0  0  0  0  0  0  0
   43.8700   36.7240   45.3440 H   0  0  0  0  0  0  0  0  0  0  0  0
   44.4930   34.3930   46.2000 H   0  0  0  0  0  0  0  0  0  0  0  0
   44.6230   33.7890   41.1430 O   0  0  0  0  0  0  0  0  0  0  0  0
   43.5360   34.4570   40.6570 C   0  0  0  0  0  0  0  0  0  0  0  0
   43.3510   35.7180   40.6130 O   0  0  0  0  0  0  0  0  0  0  0  0
   42.2260   34.0390   40.0290 C   0  0  0  0  0  3  0  0  0  0  0  0
   42.4520   33.5770   38.6120 C   0  0  0  0  0  2  0  0  0  0  0  0
   41.1490   32.9330   38.1770 C   0  0  0  0  0  2  0  0  0  0  0  0
   40.1150   34.0180   38.0310 C   0  0  0  0  0  2  0  0  0  0  0  0
   40.4030   35.2650   38.7940 C   0  0  0  0  0  2  0  0  0  0  0  0
   41.1770   35.0840   40.0610 C   0  0  0  0  0  2  0  0  0  0  0  0
  1 17  1  0  0  0  0
  1  2  1  0  0  0  0
  2  9  1  0  0  0  0
  3  2  2  0  0  0  0
  3  7  1  0  0  0  0
  4  3  1  0  0  0  0
  5  6  1  0  0  0  0
  5  4  2  0  0  0  0
  6  1  2  0  0  0  0
  8  5  1  0  0  0  0
  9 10  1  0  0  0  0
  9 13  2  0  0  0  0
 10 11  2  0  0  0  0
 11 12  1  0  0  0  0
 11 15  1  0  0  0  0
 12 16  1  0  0  0  0
 13 12  1  0  0  0  0
 14 10  1  0  0  0  0
 18 17  1  0  0  0  0
 19 18  2  0  0  0  0
 20 25  1  0  0  0  0
 20 18  1  0  0  0  0
 21 20  1  0  0  0  0
 22 21  1  0  0  0  0
 23 22  1  0  0  0  0
 23 24  1  0  0  0  0
 24 25  1  0  0  0  0
M  END
>  <minimizedAffinity>
-5.76938534

>  <minimizedRMSD>
0.884770215

$$$$
