
 OpenBabel03252504243D

 18 19  0  0  0  0  0  0  0  0999 V2000
   44.3700   35.8900   43.7550 C   0  0  0  0  0  0  0  0  0  0  0  0
   44.2740   35.0420   42.6370 C   0  0  0  0  0  0  0  0  0  0  0  0
   44.7070   33.7320   42.7790 C   0  0  0  0  0  0  0  0  0  0  0  0
   45.1940   33.3400   43.9760 N   0  0  0  0  0  0  0  0  0  0  0  0
   45.2740   34.1760   45.0310 C   0  0  0  0  0  0  0  0  0  0  0  0
   44.8630   35.4610   44.9320 N   0  0  0  0  0  0  0  0  0  0  0  0
   44.0510   36.9200   43.7070 H   0  0  0  0  0  0  0  0  0  0  0  0
   44.6180   33.1100   41.9020 H   0  0  0  0  0  0  0  0  0  0  0  0
   45.6920   33.6770   45.9020 H   0  0  0  0  0  0  0  0  0  0  0  0
   43.7140   35.6580   41.4190 C   0  0  0  0  0  0  0  0  0  0  0  0
   44.4960   35.6410   40.6160 H   0  0  0  0  0  0  0  0  0  0  0  0
   43.5460   36.7470   41.6060 H   0  0  0  0  0  0  0  0  0  0  0  0
   42.4550   34.9860   40.9200 C   0  0  0  0  0  0  0  0  0  0  0  0
   41.2610   35.4860   41.7000 C   0  0  0  0  0  0  0  0  0  0  0  0
   40.0960   34.6300   41.2330 C   0  0  0  0  0  0  0  0  0  0  0  0
   39.8420   34.9370   39.8020 C   0  0  0  0  0  0  0  0  0  0  0  0
   40.9950   34.8420   38.8760 C   0  0  0  0  0  0  0  0  0  0  0  0
   42.3240   35.2180   39.4480 C   0  0  0  0  0  0  0  0  0  0  0  0
  1  6  1  0  0  0  0
  2  3  1  0  0  0  0
  2  1  2  0  0  0  0
  3  4  2  0  0  0  0
  4  5  1  0  0  0  0
  5  9  1  0  0  0  0
  6  5  2  0  0  0  0
  7  1  1  0  0  0  0
  8  3  1  0  0  0  0
 10 12  1  0  0  0  0
 10  2  1  0  0  0  0
 11 10  1  0  0  0  0
 13 10  1  0  0  0  0
 13 14  1  0  0  0  0
 15 14  1  0  0  0  0
 16 15  1  0  0  0  0
 17 18  1  0  0  0  0
 17 16  1  0  0  0  0
 18 13  1  0  0  0  0
M  END
>  <minimizedAffinity>
-4.50409365

>  <minimizedRMSD>
1.0720849

$$$$
