
 OpenBabel03252507163D

 26 28  0  0  0  0  0  0  0  0999 V2000
   45.2010   36.1180   43.4210 C   0  0  0  0  0  0  0  0  0  0  0  0
   45.8890   34.9310   43.0690 C   0  0  0  0  0  0  0  0  0  0  0  0
   45.9180   33.9250   44.0330 C   0  0  0  0  0  0  0  0  0  0  0  0
   45.3150   34.1060   45.2230 N   0  0  0  0  0  0  0  0  0  0  0  0
   44.6580   35.2720   45.5260 C   0  0  0  0  0  0  0  0  0  0  0  0
   44.6200   36.2410   44.6190 N   0  0  0  0  0  0  0  0  0  0  0  0
   45.1510   36.9410   42.6930 H   0  0  0  0  0  0  0  0  0  0  0  0
   44.2270   35.2620   46.5170 H   0  0  0  0  0  0  0  0  0  0  0  0
   46.6210   32.6900   43.6980 C   0  0  0  0  0  0  0  0  0  0  0  0
   45.9120   31.5270   43.5070 C   0  0  0  0  0  0  0  0  0  0  0  0
   46.6000   30.3760   43.1930 C   0  0  0  0  0  0  0  0  0  0  0  0
   47.9800   30.3270   43.0570 C   0  0  0  0  0  0  0  0  0  0  0  0
   48.6330   31.5390   43.2640 C   0  0  0  0  0  0  0  0  0  0  0  0
   47.9450   32.6470   43.5700 N   0  0  0  0  0  0  0  0  0  0  0  0
   44.8150   31.4830   43.5960 H   0  0  0  0  0  0  0  0  0  0  0  0
   46.0670   29.4290   43.0330 H   0  0  0  0  0  0  0  0  0  0  0  0
   48.5330   29.4340   42.8120 H   0  0  0  0  0  0  0  0  0  0  0  0
   49.7130   31.6020   43.1810 H   0  0  0  0  0  0  0  0  0  0  0  0
   46.5070   34.7970   41.7980 C   0  0  0  0  0  0  0  0  0  0  0  0
   47.7030   35.2110   41.7020 O   0  0  0  0  0  0  0  0  0  0  0  0
   46.0330   34.2490   40.4920 C   0  0  0  0  0  3  0  0  0  0  0  0
   44.7220   33.5810   40.7600 C   0  0  0  0  0  2  0  0  0  0  0  0
   44.2880   32.6110   39.7010 C   0  0  0  0  0  2  0  0  0  0  0  0
   45.3710   31.6790   39.2620 C   0  0  0  0  0  2  0  0  0  0  0  0
   46.6950   31.9210   39.9130 C   0  0  0  0  0  2  0  0  0  0  0  0
   47.0760   33.3760   39.8830 C   0  0  0  0  0  2  0  0  0  0  0  0
  1  6  1  0  0  0  0
  2  1  2  0  0  0  0
  2  3  1  0  0  0  0
  3  4  2  0  0  0  0
  4  5  1  0  0  0  0
  5  8  1  0  0  0  0
  6  5  2  0  0  0  0
  7  1  1  0  0  0  0
  9  3  1  0  0  0  0
 10 15  1  0  0  0  0
 10  9  2  0  0  0  0
 11 10  1  0  0  0  0
 12 11  2  0  0  0  0
 12 13  1  0  0  0  0
 13 14  2  0  0  0  0
 14  9  1  0  0  0  0
 16 11  1  0  0  0  0
 17 12  1  0  0  0  0
 18 13  1  0  0  0  0
 19  2  1  0  0  0  0
 20 19  2  0  0  0  0
 21 22  1  0  0  0  0
 21 19  1  0  0  0  0
 23 22  1  0  0  0  0
 24 23  1  0  0  0  0
 24 25  1  0  0  0  0
 26 25  1  0  0  0  0
 26 21  1  0  0  0  0
M  END
>  <minimizedAffinity>
-4.26958513

>  <minimizedRMSD>
0.581300855

$$$$
