
 OpenBabel03242515003D

 34 36  0  0  0  0  0  0  0  0999 V2000
   42.2700   34.7870   41.5470 C   0  0  0  0  0  0  0  0  0  0  0  0
   42.4310   35.0420   42.6200 H   0  0  0  0  0  0  0  0  0  0  0  0
   41.6690   33.8310   41.5530 H   0  0  0  0  0  0  0  0  0  0  0  0
   41.4570   35.8190   40.8360 C   0  0  0  0  0  0  0  0  0  0  0  0
   40.8170   36.3150   41.6060 H   0  0  0  0  0  0  0  0  0  0  0  0
   42.0550   36.6120   40.3600 H   0  0  0  0  0  0  0  0  0  0  0  0
   42.1260   36.0700   37.8780 Cl  0  0  0  0  0  0  0  0  0  0  0  0
   40.7360   35.2400   38.4910 C   0  0  0  0  0  0  0  0  0  0  0  0
   40.5160   35.1800   39.8840 C   0  0  0  0  0  0  0  0  0  0  0  0
   39.3950   34.5070   40.2820 C   0  0  0  0  0  0  0  0  0  0  0  0
   38.4610   33.8810   39.4730 C   0  0  0  0  0  0  0  0  0  0  0  0
   38.6940   33.9500   38.1090 C   0  0  0  0  0  0  0  0  0  0  0  0
   37.5690   33.1880   36.9890 Cl  0  0  0  0  0  0  0  0  0  0  0  0
   39.8100   34.6170   37.6430 C   0  0  0  0  0  0  0  0  0  0  0  0
   39.1990   34.4450   41.3570 H   0  0  0  0  0  0  0  0  0  0  0  0
   37.6040   33.3720   39.8880 H   0  0  0  0  0  0  0  0  0  0  0  0
   39.9850   34.6660   36.5700 H   0  0  0  0  0  0  0  0  0  0  0  0
   43.8440   34.4340   40.7440 S   0  0  0  0  0  0  0  0  0  0  0  0
   45.2040   34.3200   41.9140 C   0  0  0  0  0  0  0  0  0  0  0  0
   46.4770   34.6280   41.4230 C   0  0  0  0  0  0  0  0  0  0  0  0
   47.5640   34.5530   42.2950 C   0  0  0  0  0  0  0  0  0  0  0  0
   47.3210   34.1830   43.5790 N   0  0  0  0  0  0  0  0  0  0  0  0
   46.0920   33.8910   44.0360 C   0  0  0  0  0  0  0  0  0  0  0  0
   45.0560   33.9650   43.1930 N   0  0  0  0  0  0  0  0  0  0  0  0
   46.6000   34.9160   40.3880 H   0  0  0  0  0  0  0  0  0  0  0  0
   48.5520   34.7870   41.9340 H   0  0  0  0  0  0  0  0  0  0  0  0
   45.9400   33.5060   45.4240 C   0  0  0  0  0  0  0  0  0  0  0  0
   45.1120   34.1580   46.1110 O   0  0  0  0  0  0  0  0  0  0  0  0
   46.7210   32.3820   46.0500 C   0  0  0  0  0  3  0  0  0  0  0  0
   47.0070   32.7680   47.4860 C   0  0  0  0  0  2  0  0  0  0  0  0
   47.5850   31.6360   48.2710 C   0  0  0  0  0  2  0  0  0  0  0  0
   46.6430   30.4760   48.2970 C   0  0  0  0  0  2  0  0  0  0  0  0
   45.4710   30.7530   47.3790 C   0  0  0  0  0  2  0  0  0  0  0  0
   46.0000   31.0740   45.9770 C   0  0  0  0  0  2  0  0  0  0  0  0
  1  3  1  0  0  0  0
  1  2  1  0  0  0  0
  4  1  1  0  0  0  0
  4  5  1  0  0  0  0
  6  4  1  0  0  0  0
  7  8  1  0  0  0  0
  8  9  1  0  0  0  0
  9 10  2  0  0  0  0
  9  4  1  0  0  0  0
 10 15  1  0  0  0  0
 11 16  1  0  0  0  0
 11 10  1  0  0  0  0
 12 11  2  0  0  0  0
 13 12  1  0  0  0  0
 14 12  1  0  0  0  0
 14  8  2  0  0  0  0
 17 14  1  0  0  0  0
 18  1  1  0  0  0  0
 18 19  1  0  0  0  0
 19 24  1  0  0  0  0
 20 19  2  0  0  0  0
 20 21  1  0  0  0  0
 21 22  2  0  0  0  0
 22 23  1  0  0  0  0
 23 27  1  0  0  0  0
 24 23  2  0  0  0  0
 25 20  1  0  0  0  0
 26 21  1  0  0  0  0
 27 29  1  0  0  0  0
 27 28  2  0  0  0  0
 29 30  1  0  0  0  0
 30 31  1  0  0  0  0
 31 32  1  0  0  0  0
 33 32  1  0  0  0  0
 34 29  1  0  0  0  0
 34 33  1  0  0  0  0
M  END
>  <minimizedAffinity>
-6.75780725

>  <minimizedRMSD>
0.900829136

$$$$
