
 OpenBabel03242522503D

 23 24  0  0  0  0  0  0  0  0999 V2000
   44.8020   30.6410   47.8230 O   0  0  0  0  0  0  0  0  0  0  0  0
   45.6480   31.8060   48.3820 P   0  0  2  0  0  0  0  0  0  0  0  0
   45.2890   31.8920   50.0230 O   0  0  0  0  0  0  0  0  0  0  0  0
   45.8320   32.5290   50.5260 H   0  0  0  0  0  0  0  0  0  0  0  0
   45.1710   33.2280   47.6070 O   0  0  0  0  0  0  0  0  0  0  0  0
   47.0140   32.9770   44.4870 C   0  0  0  0  0  0  0  0  0  0  0  0
   46.5730   32.7270   45.7990 C   0  0  0  0  0  0  0  0  0  0  0  0
   45.5690   33.5080   46.3170 C   0  0  0  0  0  0  0  0  0  0  0  0
   45.0550   34.4810   45.5310 N   0  0  0  0  0  0  0  0  0  0  0  0
   45.4690   34.7250   44.2820 C   0  0  0  0  0  0  0  0  0  0  0  0
   46.4600   33.9620   43.7580 N   0  0  0  0  0  0  0  0  0  0  0  0
   47.7950   32.4240   43.9850 H   0  0  0  0  0  0  0  0  0  0  0  0
   47.1080   31.9210   46.2270 H   0  0  0  0  0  0  0  0  0  0  0  0
   44.9390   35.5420   43.8110 H   0  0  0  0  0  0  0  0  0  0  0  0
   47.2460   31.4890   48.0980 O   0  0  0  0  0  0  0  0  0  0  0  0
   47.9970   30.3810   48.2790 C   0  0  0  0  0  0  0  0  0  0  0  0
   48.6490   30.3830   49.3830 O   0  0  0  0  0  0  0  0  0  0  0  0
   48.5500   29.0540   47.9060 C   0  0  0  0  0  3  0  0  0  0  0  0
   49.6500   29.1750   46.8880 C   0  0  0  0  0  2  0  0  0  0  0  0
   49.2420   29.4260   45.4930 C   0  0  0  0  0  2  0  0  0  0  0  0
   48.0600   28.6150   45.0310 C   0  0  0  0  0  2  0  0  0  0  0  0
   46.9480   28.6570   46.0210 C   0  0  0  0  0  2  0  0  0  0  0  0
   47.3860   28.2320   47.4020 C   0  0  0  0  0  2  0  0  0  0  0  0
  2  1  2  6  0  0  0
  2  3  1  0  0  0  0
  3  4  1  0  0  0  0
  5  2  1  0  0  0  0
  6  7  1  0  0  0  0
  7 13  1  0  0  0  0
  7  8  2  0  0  0  0
  8  5  1  0  0  0  0
  9  8  1  0  0  0  0
 10  9  2  0  0  0  0
 11 10  1  0  0  0  0
 11  6  2  0  0  0  0
 12  6  1  0  0  0  0
 14 10  1  0  0  0  0
 15 16  1  0  0  0  0
 15  2  1  0  0  0  0
 16 17  2  0  0  0  0
 18 16  1  0  0  0  0
 19 18  1  0  0  0  0
 20 19  1  0  0  0  0
 21 20  1  0  0  0  0
 21 22  1  0  0  0  0
 22 23  1  0  0  0  0
 23 18  1  0  0  0  0
M  END
>  <minimizedAffinity>
-4.33304548

>  <minimizedRMSD>
1.03104401

$$$$
