
 OpenBabel03252503593D

 31 34  0  0  0  0  0  0  0  0999 V2000
   46.9170   34.9910   42.6960 C   0  0  0  0  0  0  0  0  0  0  0  0
   45.9510   35.9680   42.5590 C   0  0  0  0  0  0  0  0  0  0  0  0
   44.8950   35.9440   43.4580 C   0  0  0  0  0  0  0  0  0  0  0  0
   44.8610   34.9790   44.4140 N   0  0  0  0  0  0  0  0  0  0  0  0
   45.8310   34.0460   44.5070 C   0  0  0  0  0  0  0  0  0  0  0  0
   46.8680   34.0370   43.6540 N   0  0  0  0  0  0  0  0  0  0  0  0
   45.9870   36.7350   41.7900 H   0  0  0  0  0  0  0  0  0  0  0  0
   44.0850   36.6650   43.4380 H   0  0  0  0  0  0  0  0  0  0  0  0
   46.0450   31.6920   45.1410 C   0  0  0  0  0  0  0  0  0  0  0  0
   45.7880   33.0030   45.5450 C   0  0  0  0  0  0  0  0  0  0  0  0
   45.5100   33.2790   46.8640 C   0  0  0  0  0  0  0  0  0  0  0  0
   45.4870   32.2500   47.7830 C   0  0  0  0  0  0  0  0  0  0  0  0
   45.2550   32.2010   49.0960 N   0  0  0  0  0  0  0  0  0  0  0  0
   45.3510   30.9310   49.5450 C   0  0  0  0  0  0  0  0  0  0  0  0
   45.6580   30.1070   48.4950 C   0  0  0  0  0  0  0  0  0  0  0  0
   45.7410   30.9380   47.3960 C   0  0  0  0  0  0  0  0  0  0  0  0
   46.0220   30.6640   46.0630 C   0  0  0  0  0  0  0  0  0  0  0  0
   46.2680   31.4340   44.1160 H   0  0  0  0  0  0  0  0  0  0  0  0
   45.3170   34.3060   47.1300 H   0  0  0  0  0  0  0  0  0  0  0  0
   45.0280   33.0490   49.6940 H   0  0  0  0  0  0  0  0  0  0  0  0
   45.2230   30.5480   50.5470 H   0  0  0  0  0  0  0  0  0  0  0  0
   45.8060   29.0310   48.5070 H   0  0  0  0  0  0  0  0  0  0  0  0
   46.2210   29.6490   45.7490 H   0  0  0  0  0  0  0  0  0  0  0  0
   48.0040   35.0540   41.7330 C   0  0  0  0  0  0  0  0  0  0  0  0
   48.8980   35.9760   41.7240 O   0  0  0  0  0  0  0  0  0  0  0  0
   48.0100   33.9500   40.7360 C   0  0  0  0  0  3  0  0  0  0  0  0
   49.2190   33.0500   41.0160 C   0  0  0  0  0  2  0  0  0  0  0  0
   49.2820   31.9100   40.0530 C   0  0  0  0  0  2  0  0  0  0  0  0
   48.2690   32.0370   38.9340 C   0  0  0  0  0  2  0  0  0  0  0  0
   48.2560   33.4230   38.3250 C   0  0  0  0  0  2  0  0  0  0  0  0
   48.2180   34.5100   39.3510 C   0  0  0  0  0  2  0  0  0  0  0  0
  1  6  1  0  0  0  0
  2  1  2  0  0  0  0
  2  3  1  0  0  0  0
  3  4  2  0  0  0  0
  4  5  1  0  0  0  0
  5 10  1  0  0  0  0
  6  5  2  0  0  0  0
  7  2  1  0  0  0  0
  8  3  1  0  0  0  0
  9 10  2  0  0  0  0
  9 17  1  0  0  0  0
 10 11  1  0  0  0  0
 11 19  1  0  0  0  0
 11 12  2  0  0  0  0
 12 13  1  0  0  0  0
 13 14  1  0  0  0  0
 13 20  1  0  0  0  0
 14 21  1  0  0  0  0
 15 22  1  0  0  0  0
 15 14  2  0  0  0  0
 16 12  1  0  0  0  0
 16 15  1  0  0  0  0
 17 16  2  0  0  0  0
 18  9  1  0  0  0  0
 23 17  1  0  0  0  0
 24  1  1  0  0  0  0
 25 24  2  0  0  0  0
 26 27  1  0  0  0  0
 26 24  1  0  0  0  0
 28 27  1  0  0  0  0
 29 28  1  0  0  0  0
 30 29  1  0  0  0  0
 30 31  1  0  0  0  0
 31 26  1  0  0  0  0
M  END
>  <minimizedAffinity>
-6.22401381

>  <minimizedRMSD>
0.459826171

$$$$
