
 OpenBabel03252508503D

 25 27  0  0  0  0  0  0  0  0999 V2000
   45.8230   34.2010   41.0170 C   0  0  0  0  0  0  0  0  0  0  0  0
   46.4510   34.7990   42.1040 C   0  0  0  0  0  0  0  0  0  0  0  0
   47.8070   35.1160   41.9760 C   0  0  0  0  0  0  0  0  0  0  0  0
   48.4310   34.8240   40.8040 N   0  0  0  0  0  0  0  0  0  0  0  0
   47.7840   34.2440   39.7750 C   0  0  0  0  0  0  0  0  0  0  0  0
   46.4710   33.9310   39.8860 N   0  0  0  0  0  0  0  0  0  0  0  0
   48.3270   35.5880   42.8160 H   0  0  0  0  0  0  0  0  0  0  0  0
   48.2940   34.0170   38.8500 H   0  0  0  0  0  0  0  0  0  0  0  0
   45.6960   35.0760   43.3270 C   0  0  0  0  0  0  0  0  0  0  0  0
   45.0880   36.2830   43.5830 C   0  0  0  0  0  0  0  0  0  0  0  0
   44.5050   36.1070   44.8150 C   0  0  0  0  0  0  0  0  0  0  0  0
   44.7470   34.8540   45.2890 N   0  0  0  0  0  0  0  0  0  0  0  0
   45.4680   34.2590   44.3660 N   0  0  0  0  0  0  0  0  0  0  0  0
   45.0910   37.1330   42.9470 H   0  0  0  0  0  0  0  0  0  0  0  0
   43.9270   36.8380   45.3680 H   0  0  0  0  0  0  0  0  0  0  0  0
   44.4200   34.4660   46.1940 H   0  0  0  0  0  0  0  0  0  0  0  0
   44.4900   33.8880   41.1400 O   0  0  0  0  0  0  0  0  0  0  0  0
   43.4350   34.5870   40.6290 C   0  0  0  0  0  0  0  0  0  0  0  0
   42.8530   35.6030   41.1350 O   0  0  0  0  0  0  0  0  0  0  0  0
   42.5910   34.4750   39.3790 C   0  0  0  0  0  3  0  0  0  0  0  0
   41.5400   35.5560   39.3620 C   0  0  0  0  0  2  0  0  0  0  0  0
   40.9410   35.5260   37.9690 C   0  0  0  0  0  2  0  0  0  0  0  0
   40.1420   34.2560   37.8290 C   0  0  0  0  0  2  0  0  0  0  0  0
   40.5240   33.1680   38.7720 C   0  0  0  0  0  2  0  0  0  0  0  0
   41.9590   33.1490   39.1910 C   0  0  0  0  0  2  0  0  0  0  0  0
  1 17  1  0  0  0  0
  1  2  1  0  0  0  0
  2  9  1  0  0  0  0
  3  2  2  0  0  0  0
  3  7  1  0  0  0  0
  4  3  1  0  0  0  0
  5  6  1  0  0  0  0
  5  4  2  0  0  0  0
  6  1  2  0  0  0  0
  8  5  1  0  0  0  0
  9 10  1  0  0  0  0
  9 13  2  0  0  0  0
 10 11  2  0  0  0  0
 11 12  1  0  0  0  0
 11 15  1  0  0  0  0
 12 16  1  0  0  0  0
 13 12  1  0  0  0  0
 14 10  1  0  0  0  0
 18 19  2  0  0  0  0
 18 17  1  0  0  0  0
 20 18  1  0  0  0  0
 21 20  1  0  0  0  0
 22 21  1  0  0  0  0
 23 22  1  0  0  0  0
 23 24  1  0  0  0  0
 24 25  1  0  0  0  0
 25 20  1  0  0  0  0
M  END
>  <minimizedAffinity>
-5.8029809

>  <minimizedRMSD>
0.905423343

$$$$
