
 OpenBabel03252506203D

 30 32  0  0  0  0  0  0  0  0999 V2000
   45.0930   36.4810   43.0020 C   0  0  0  0  0  0  0  0  0  0  0  0
   43.8340   36.6120   42.3960 C   0  0  0  0  0  0  0  0  0  0  0  0
   43.4830   35.6470   41.4230 C   0  0  0  0  0  0  0  0  0  0  0  0
   44.3640   34.6660   41.1320 N   0  0  0  0  0  0  0  0  0  0  0  0
   45.5650   34.5810   41.7430 C   0  0  0  0  0  0  0  0  0  0  0  0
   45.9240   35.4830   42.6690 N   0  0  0  0  0  0  0  0  0  0  0  0
   43.1410   37.3910   42.6290 H   0  0  0  0  0  0  0  0  0  0  0  0
   42.5500   35.6600   40.9050 H   0  0  0  0  0  0  0  0  0  0  0  0
   48.3470   35.4130   40.8750 Cl  0  0  0  0  0  0  0  0  0  0  0  0
   47.7490   33.7860   40.9490 C   0  0  0  0  0  0  0  0  0  0  0  0
   46.4550   33.4780   41.3590 C   0  0  0  0  0  0  0  0  0  0  0  0
   45.9540   32.1980   41.4280 C   0  0  0  0  0  0  0  0  0  0  0  0
   46.8180   31.1830   41.0600 C   0  0  0  0  0  0  0  0  0  0  0  0
   48.1190   31.3780   40.6390 C   0  0  0  0  0  0  0  0  0  0  0  0
   48.5340   32.7120   40.6030 C   0  0  0  0  0  0  0  0  0  0  0  0
   44.9600   32.0090   41.7460 H   0  0  0  0  0  0  0  0  0  0  0  0
   46.5030   30.1430   41.0840 H   0  0  0  0  0  0  0  0  0  0  0  0
   48.7700   30.5740   40.3580 H   0  0  0  0  0  0  0  0  0  0  0  0
   49.5530   32.9030   40.2770 H   0  0  0  0  0  0  0  0  0  0  0  0
   45.4740   37.4780   44.0180 C   0  0  0  0  0  3  0  0  0  0  0  0
   45.7440   38.6990   43.6180 C   0  0  0  0  0  3  0  0  0  0  0  0
   46.1350   39.7560   44.5820 C   0  0  0  0  0  0  0  0  0  0  0  0
   46.8470   40.4690   44.1310 H   0  0  0  0  0  0  0  0  0  0  0  0
   46.5350   39.3220   45.5300 H   0  0  0  0  0  0  0  0  0  0  0  0
   44.8560   40.5100   44.9360 C   0  0  0  0  0  3  0  0  0  0  0  0
   44.6820   40.5240   46.3980 C   0  0  0  0  0  2  0  0  0  0  0  0
   44.1830   41.8180   46.9930 C   0  0  0  0  0  2  0  0  0  0  0  0
   43.1410   42.3540   46.0320 C   0  0  0  0  0  2  0  0  0  0  0  0
   43.9280   42.8510   44.8430 C   0  0  0  0  0  2  0  0  0  0  0  0
   44.8280   41.8340   44.2510 C   0  0  0  0  0  2  0  0  0  0  0  0
  1 20  1  0  0  0  0
  2  7  1  0  0  0  0
  2  1  2  0  0  0  0
  3  2  1  0  0  0  0
  4  3  2  0  0  0  0
  4  5  1  0  0  0  0
  5  6  2  0  0  0  0
  6  1  1  0  0  0  0
  8  3  1  0  0  0  0
  9 10  1  0  0  0  0
 10 11  1  0  0  0  0
 11 12  2  0  0  0  0
 11  5  1  0  0  0  0
 12 16  1  0  0  0  0
 13 17  1  0  0  0  0
 13 12  1  0  0  0  0
 14 13  2  0  0  0  0
 15 14  1  0  0  0  0
 15 10  2  0  0  0  0
 18 14  1  0  0  0  0
 19 15  1  0  0  0  0
 21 20  2  0  0  0  0
 21 22  1  0  0  0  0
 22 25  1  0  0  0  0
 22 24  1  0  0  0  0
 23 22  1  0  0  0  0
 25 26  1  0  0  0  0
 26 27  1  0  0  0  0
 28 27  1  0  0  0  0
 29 28  1  0  0  0  0
 30 29  1  0  0  0  0
 30 25  1  0  0  0  0
M  END
>  <minimizedAffinity>
-1.77778435

>  <minimizedRMSD>
2.22344422

$$$$
