
 OpenBabel03252509243D

 24 26  0  0  1  0  0  0  0  0999 V2000
   46.5510   35.0520   41.9750 C   0  0  1  0  0  0  0  0  0  0  0  0
   48.0760   35.3290   41.9470 C   0  0  0  0  0  0  0  0  0  0  0  0
   47.3610   34.0840   41.3280 C   0  0  2  0  0  0  0  0  0  0  0  0
   45.9540   35.8310   41.4730 H   0  0  0  0  0  0  0  0  0  0  0  0
   48.6680   35.1850   42.8480 H   0  0  0  0  0  0  0  0  0  0  0  0
   48.3520   36.1180   41.2520 H   0  0  0  0  0  0  0  0  0  0  0  0
   47.6060   33.1470   41.9110 H   0  0  0  0  0  0  0  0  0  0  0  0
   44.7120   35.2410   45.2440 C   0  0  0  0  0  0  0  0  0  0  0  0
   45.1320   35.6050   43.9270 C   0  0  0  0  0  0  0  0  0  0  0  0
   46.0980   34.7900   43.4030 C   0  0  0  0  0  0  0  0  0  0  0  0
   46.6110   33.7170   44.1070 N   0  0  0  0  0  0  0  0  0  0  0  0
   46.1800   33.4250   45.3400 C   0  0  0  0  0  0  0  0  0  0  0  0
   45.2180   34.1980   45.9150 N   0  0  0  0  0  0  0  0  0  0  0  0
   43.9490   35.8540   45.7020 H   0  0  0  0  0  0  0  0  0  0  0  0
   46.6880   32.5580   45.7370 H   0  0  0  0  0  0  0  0  0  0  0  0
   44.6150   36.7300   43.2270 N   0  0  0  0  0  0  0  0  0  0  0  0
   45.0350   37.6820   43.1020 H   0  0  0  0  0  0  0  0  0  0  0  0
   43.6760   36.4370   42.8230 H   0  0  0  0  0  0  0  0  0  0  0  0
   47.4560   33.9200   39.8410 C   0  0  0  0  0  3  0  0  0  0  0  0
   48.5450   32.9460   39.4390 C   0  0  0  0  0  2  0  0  0  0  0  0
   48.7740   32.9160   37.9640 C   0  0  0  0  0  2  0  0  0  0  0  0
   47.5910   33.4010   37.1700 C   0  0  0  0  0  2  0  0  0  0  0  0
   46.3280   32.9260   37.8470 C   0  0  0  0  0  2  0  0  0  0  0  0
   46.1640   33.4470   39.2520 C   0  0  0  0  0  2  0  0  0  0  0  0
  1  4  1  6  0  0  0
  1 10  1  0  0  0  0
  2  1  1  0  0  0  0
  2  5  1  0  0  0  0
  3  7  1  1  0  0  0
  3  2  1  0  0  0  0
  3  1  1  0  0  0  0
  6  2  1  0  0  0  0
  8 14  1  0  0  0  0
  8 13  1  0  0  0  0
  9  8  2  0  0  0  0
 10  9  1  0  0  0  0
 10 11  2  0  0  0  0
 11 12  1  0  0  0  0
 12 15  1  0  0  0  0
 12 13  2  0  0  0  0
 16  9  1  0  0  0  0
 17 16  1  0  0  0  0
 18 16  1  0  0  0  0
 19  3  1  0  0  0  0
 20 19  1  0  0  0  0
 21 20  1  0  0  0  0
 22 23  1  0  0  0  0
 22 21  1  0  0  0  0
 23 24  1  0  0  0  0
 24 19  1  0  0  0  0
M  END
>  <minimizedAffinity>
-4.95715714

>  <minimizedRMSD>
0.468760759

$$$$
