
 OpenBabel03252502533D

 28 30  0  0  0  0  0  0  0  0999 V2000
   46.1620   29.8470   44.4150 Br  0  0  0  0  0  0  0  0  0  0  0  0
   45.8200   30.5870   46.1670 C   0  0  0  0  0  0  0  0  0  0  0  0
   46.3000   31.8690   46.3750 C   0  0  0  0  0  0  0  0  0  0  0  0
   46.0390   32.3790   47.6510 C   0  0  0  0  0  0  0  0  0  0  0  0
   45.3660   31.6830   48.6310 C   0  0  0  0  0  0  0  0  0  0  0  0
   44.9260   30.4260   48.3420 C   0  0  0  0  0  0  0  0  0  0  0  0
   45.1380   29.8450   47.1140 C   0  0  0  0  0  0  0  0  0  0  0  0
   46.3760   33.3840   47.9210 H   0  0  0  0  0  0  0  0  0  0  0  0
   45.1830   32.1120   49.6080 H   0  0  0  0  0  0  0  0  0  0  0  0
   44.3920   29.8480   49.0840 H   0  0  0  0  0  0  0  0  0  0  0  0
   44.7030   28.4950   46.7060 C   0  0  0  0  0  0  0  0  0  0  0  0
   43.3100   28.5110   46.1030 C   0  0  0  0  0  0  0  0  0  0  0  0
   43.1190   27.1200   45.4930 C   0  0  0  0  0  0  0  0  0  0  0  0
   43.0850   26.1440   46.6420 C   0  0  0  0  0  0  0  0  0  0  0  0
   44.3830   26.1460   47.4290 C   0  0  0  0  0  0  0  0  0  0  0  0
   44.7500   27.5480   47.8730 C   0  0  0  0  0  0  0  0  0  0  0  0
   47.0290   32.7080   45.4160 C   0  0  0  0  0  0  0  0  0  0  0  0
   47.9610   33.0840   45.9080 H   0  0  0  0  0  0  0  0  0  0  0  0
   47.3800   32.0570   44.5860 H   0  0  0  0  0  0  0  0  0  0  0  0
   44.5320   35.4580   45.0450 C   0  0  0  0  0  0  0  0  0  0  0  0
   44.7750   35.9040   43.7380 C   0  0  0  0  0  0  0  0  0  0  0  0
   45.7830   35.2540   43.0250 C   0  0  0  0  0  0  0  0  0  0  0  0
   46.4830   34.2310   43.6030 N   0  0  0  0  0  0  0  0  0  0  0  0
   46.2060   33.8320   44.8850 C   0  0  0  0  0  0  0  0  0  0  0  0
   45.2290   34.4660   45.5690 N   0  0  0  0  0  0  0  0  0  0  0  0
   43.7610   35.9310   45.6350 H   0  0  0  0  0  0  0  0  0  0  0  0
   44.1890   36.7190   43.3330 H   0  0  0  0  0  0  0  0  0  0  0  0
   45.9900   35.5810   42.0120 H   0  0  0  0  0  0  0  0  0  0  0  0
  1  2  1  0  0  0  0
  2  3  2  0  0  0  0
  2  7  1  0  0  0  0
  3  4  1  0  0  0  0
  4  8  1  0  0  0  0
  4  5  2  0  0  0  0
  5  9  1  0  0  0  0
  6  5  1  0  0  0  0
  6 10  1  0  0  0  0
  7  6  2  0  0  0  0
 11  7  1  0  0  0  0
 11 16  1  0  0  0  0
 12 11  1  0  0  0  0
 13 12  1  0  0  0  0
 13 14  1  0  0  0  0
 14 15  1  0  0  0  0
 15 16  1  0  0  0  0
 17 18  1  0  0  0  0
 17  3  1  0  0  0  0
 19 17  1  0  0  0  0
 20 25  1  0  0  0  0
 20 26  1  0  0  0  0
 21 20  2  0  0  0  0
 22 23  2  0  0  0  0
 22 21  1  0  0  0  0
 23 24  1  0  0  0  0
 24 17  1  0  0  0  0
 24 25  2  0  0  0  0
 27 21  1  0  0  0  0
 28 22  1  0  0  0  0
M  END
>  <minimizedAffinity>
-5.41368914

>  <minimizedRMSD>
1.20375407

$$$$
