
 OpenBabel03242517093D

 31 33  0  0  1  0  0  0  0  0999 V2000
   36.5160   30.5200   40.2510 C   0  0  2  0  0  0  0  0  0  0  0  0
   36.8210   29.9680   38.9130 C   0  0  2  0  0  0  0  0  0  0  0  0
   37.9100   30.6880   38.1980 C   0  0  0  0  0  0  0  0  0  0  0  0
   37.7730   32.1910   38.1360 C   0  0  0  0  0  0  0  0  0  0  0  0
   37.1420   32.7770   39.3740 C   0  0  0  0  0  0  0  0  0  0  0  0
   37.2490   31.8220   40.5440 C   0  0  0  0  0  0  0  0  0  0  0  0
   35.4320   30.7840   40.4090 H   0  0  0  0  0  0  0  0  0  0  0  0
   37.2750   28.9330   39.0820 H   0  0  0  0  0  0  0  0  0  0  0  0
   38.9230   30.4510   38.5360 H   0  0  0  0  0  0  0  0  0  0  0  0
   37.8680   30.3370   37.1290 H   0  0  0  0  0  0  0  0  0  0  0  0
   38.7970   32.6350   38.0790 H   0  0  0  0  0  0  0  0  0  0  0  0
   37.2620   32.5090   37.2100 H   0  0  0  0  0  0  0  0  0  0  0  0
   37.6270   33.7220   39.6800 H   0  0  0  0  0  0  0  0  0  0  0  0
   36.0640   32.9550   39.1890 H   0  0  0  0  0  0  0  0  0  0  0  0
   36.8310   32.3210   41.4140 H   0  0  0  0  0  0  0  0  0  0  0  0
   38.3190   31.5430   40.6400 H   0  0  0  0  0  0  0  0  0  0  0  0
   36.8610   29.5820   41.3350 C   0  0  0  0  0  0  0  0  0  0  0  0
   38.0230   29.9010   42.0650 C   0  0  0  0  0  0  0  0  0  0  0  0
   38.4430   29.0610   43.1060 C   0  0  0  0  0  0  0  0  0  0  0  0
   37.6680   27.9550   43.3460 N   0  0  0  0  0  0  0  0  0  0  0  0
   36.5530   27.6740   42.6240 C   0  0  0  0  0  0  0  0  0  0  0  0
   36.1670   28.4840   41.6350 N   0  0  0  0  0  0  0  0  0  0  0  0
   38.6960   30.7370   41.9700 H   0  0  0  0  0  0  0  0  0  0  0  0
   39.3180   29.2230   43.7200 H   0  0  0  0  0  0  0  0  0  0  0  0
   36.0180   26.7630   42.9110 H   0  0  0  0  0  0  0  0  0  0  0  0
   35.6290   29.6350   38.0500 C   0  0  0  0  0  3  0  0  0  0  0  0
   36.1210   29.1130   36.6850 C   0  0  0  0  0  2  0  0  0  0  0  0
   35.0150   29.1030   35.6850 C   0  0  0  0  0  2  0  0  0  0  0  0
   33.8650   28.2760   36.2100 C   0  0  0  0  0  2  0  0  0  0  0  0
   33.5020   28.6090   37.6220 C   0  0  0  0  0  2  0  0  0  0  0  0
   34.7250   28.5730   38.5520 C   0  0  0  0  0  2  0  0  0  0  0  0
  1  7  1  1  0  0  0
  1  6  1  0  0  0  0
  1 17  1  0  0  0  0
  2  8  1  1  0  0  0
  2  1  1  0  0  0  0
  3  9  1  0  0  0  0
  3  2  1  0  0  0  0
  4  3  1  0  0  0  0
  4  5  1  0  0  0  0
  5 13  1  0  0  0  0
  5  6  1  0  0  0  0
  6 16  1  0  0  0  0
  6 15  1  0  0  0  0
 10  3  1  0  0  0  0
 11  4  1  0  0  0  0
 12  4  1  0  0  0  0
 14  5  1  0  0  0  0
 17 22  2  0  0  0  0
 17 18  1  0  0  0  0
 18 19  2  0  0  0  0
 19 20  1  0  0  0  0
 19 24  1  0  0  0  0
 21 25  1  0  0  0  0
 21 20  2  0  0  0  0
 22 21  1  0  0  0  0
 23 18  1  0  0  0  0
 26 31  1  0  0  0  0
 26  2  1  0  0  0  0
 27 26  1  0  0  0  0
 28 29  1  0  0  0  0
 28 27  1  0  0  0  0
 29 30  1  0  0  0  0
 30 31  1  0  0  0  0
M  END
>  <minimizedAffinity>
-5.35472584

$$$$

 OpenBabel03242517093D

 31 33  0  0  1  0  0  0  0  0999 V2000
   37.0030   29.3390   39.3020 C   0  0  2  0  0  0  0  0  0  0  0  0
   36.5250   29.7290   40.6470 C   0  0  2  0  0  0  0  0  0  0  0  0
   36.2060   31.1770   40.7760 C   0  0  0  0  0  0  0  0  0  0  0  0
   37.2730   32.1300   40.2920 C   0  0  0  0  0  0  0  0  0  0  0  0
   38.0300   31.6090   39.0960 C   0  0  0  0  0  0  0  0  0  0  0  0
   37.2460   30.5280   38.3840 C   0  0  0  0  0  0  0  0  0  0  0  0
   37.9900   28.7950   39.2990 H   0  0  0  0  0  0  0  0  0  0  0  0
   35.5050   29.2350   40.7870 H   0  0  0  0  0  0  0  0  0  0  0  0
   35.2510   31.4830   40.3390 H   0  0  0  0  0  0  0  0  0  0  0  0
   36.1010   31.3780   41.8790 H   0  0  0  0  0  0  0  0  0  0  0  0
   36.7750   33.0700   39.9480 H   0  0  0  0  0  0  0  0  0  0  0  0
   37.9420   32.4350   41.1150 H   0  0  0  0  0  0  0  0  0  0  0  0
   38.2360   32.4040   38.3550 H   0  0  0  0  0  0  0  0  0  0  0  0
   38.9850   31.1600   39.4320 H   0  0  0  0  0  0  0  0  0  0  0  0
   37.8140   30.2350   37.5050 H   0  0  0  0  0  0  0  0  0  0  0  0
   36.2400   30.9440   38.1670 H   0  0  0  0  0  0  0  0  0  0  0  0
   36.0540   28.4490   38.6090 C   0  0  0  0  0  0  0  0  0  0  0  0
   34.8680   29.0620   38.1580 C   0  0  0  0  0  0  0  0  0  0  0  0
   33.8950   28.2970   37.5000 C   0  0  0  0  0  0  0  0  0  0  0  0
   34.1770   26.9640   37.3380 N   0  0  0  0  0  0  0  0  0  0  0  0
   35.3300   26.4010   37.7840 C   0  0  0  0  0  0  0  0  0  0  0  0
   36.2460   27.1450   38.4090 N   0  0  0  0  0  0  0  0  0  0  0  0
   34.5480   30.0890   38.2230 H   0  0  0  0  0  0  0  0  0  0  0  0
   32.9580   28.6760   37.1200 H   0  0  0  0  0  0  0  0  0  0  0  0
   35.4400   25.3290   37.5940 H   0  0  0  0  0  0  0  0  0  0  0  0
   37.2970   29.1600   41.8110 C   0  0  0  0  0  3  0  0  0  0  0  0
   36.5730   27.9020   42.3340 C   0  0  0  0  0  2  0  0  0  0  0  0
   37.0850   27.5080   43.6780 C   0  0  0  0  0  2  0  0  0  0  0  0
   38.5790   27.2970   43.6080 C   0  0  0  0  0  2  0  0  0  0  0  0
   39.2950   28.4060   42.9060 C   0  0  0  0  0  2  0  0  0  0  0  0
   38.6790   28.7050   41.5300 C   0  0  0  0  0  2  0  0  0  0  0  0
  1  7  1  1  0  0  0
  1  2  1  0  0  0  0
  2  3  1  0  0  0  0
  2  8  1  1  0  0  0
  2 26  1  0  0  0  0
  3 10  1  0  0  0  0
  4  3  1  0  0  0  0
  4 12  1  0  0  0  0
  5 14  1  0  0  0  0
  5  4  1  0  0  0  0
  6  5  1  0  0  0  0
  6  1  1  0  0  0  0
  9  3  1  0  0  0  0
 11  4  1  0  0  0  0
 13  5  1  0  0  0  0
 15  6  1  0  0  0  0
 16  6  1  0  0  0  0
 17  1  1  0  0  0  0
 18 23  1  0  0  0  0
 18 17  2  0  0  0  0
 19 18  1  0  0  0  0
 20 19  2  0  0  0  0
 20 21  1  0  0  0  0
 21 22  2  0  0  0  0
 22 17  1  0  0  0  0
 24 19  1  0  0  0  0
 25 21  1  0  0  0  0
 26 27  1  0  0  0  0
 27 28  1  0  0  0  0
 29 28  1  0  0  0  0
 30 29  1  0  0  0  0
 31 26  1  0  0  0  0
 31 30  1  0  0  0  0
M  END
>  <minimizedAffinity>
-5.1412158

$$$$

 OpenBabel03242517093D

 31 33  0  0  1  0  0  0  0  0999 V2000
   36.6130   29.6160   38.4350 C   0  0  2  0  0  0  0  0  0  0  0  0
   36.1580   29.3580   39.8190 C   0  0  2  0  0  0  0  0  0  0  0  0
   36.0300   30.5870   40.6490 C   0  0  0  0  0  0  0  0  0  0  0  0
   37.2250   31.5100   40.6450 C   0  0  0  0  0  0  0  0  0  0  0  0
   37.9360   31.5470   39.3150 C   0  0  0  0  0  0  0  0  0  0  0  0
   37.0340   31.0600   38.2010 C   0  0  0  0  0  0  0  0  0  0  0  0
   37.5200   29.0220   38.1260 H   0  0  0  0  0  0  0  0  0  0  0  0
   35.0780   28.9920   39.7450 H   0  0  0  0  0  0  0  0  0  0  0  0
   35.1350   31.1850   40.4570 H   0  0  0  0  0  0  0  0  0  0  0  0
   35.9250   30.2360   41.7140 H   0  0  0  0  0  0  0  0  0  0  0  0
   36.8640   32.5530   40.8230 H   0  0  0  0  0  0  0  0  0  0  0  0
   37.9080   31.2870   41.4830 H   0  0  0  0  0  0  0  0  0  0  0  0
   38.2630   32.5690   39.0470 H   0  0  0  0  0  0  0  0  0  0  0  0
   38.8150   30.8730   39.3490 H   0  0  0  0  0  0  0  0  0  0  0  0
   37.5800   31.1640   37.2680 H   0  0  0  0  0  0  0  0  0  0  0  0
   36.0970   31.6530   38.2580 H   0  0  0  0  0  0  0  0  0  0  0  0
   35.5730   29.3070   37.4380 C   0  0  0  0  0  0  0  0  0  0  0  0
   34.3130   28.9610   37.9640 C   0  0  0  0  0  0  0  0  0  0  0  0
   33.2610   28.6340   37.0980 C   0  0  0  0  0  0  0  0  0  0  0  0
   33.5440   28.6760   35.7550 N   0  0  0  0  0  0  0  0  0  0  0  0
   34.7690   29.0130   35.2770 C   0  0  0  0  0  0  0  0  0  0  0  0
   35.7610   29.3210   36.1180 N   0  0  0  0  0  0  0  0  0  0  0  0
   33.9790   28.9040   38.9880 H   0  0  0  0  0  0  0  0  0  0  0  0
   32.2640   28.3580   37.4070 H   0  0  0  0  0  0  0  0  0  0  0  0
   34.8710   29.0110   34.1880 H   0  0  0  0  0  0  0  0  0  0  0  0
   36.8190   28.2010   40.5250 C   0  0  0  0  0  3  0  0  0  0  0  0
   36.3010   28.1290   41.9770 C   0  0  0  0  0  2  0  0  0  0  0  0
   37.1630   27.2430   42.8100 C   0  0  0  0  0  2  0  0  0  0  0  0
   37.2360   25.8710   42.1820 C   0  0  0  0  0  2  0  0  0  0  0  0
   37.5230   25.9140   40.7150 C   0  0  0  0  0  2  0  0  0  0  0  0
   36.5590   26.8510   39.9700 C   0  0  0  0  0  2  0  0  0  0  0  0
  1  7  1  6  0  0  0
  1  2  1  0  0  0  0
  2  8  1  6  0  0  0
  2 26  1  0  0  0  0
  2  3  1  0  0  0  0
  3 10  1  0  0  0  0
  4  3  1  0  0  0  0
  4 11  1  0  0  0  0
  4 12  1  0  0  0  0
  5 14  1  0  0  0  0
  5  4  1  0  0  0  0
  6 16  1  0  0  0  0
  6  1  1  0  0  0  0
  6  5  1  0  0  0  0
  9  3  1  0  0  0  0
 13  5  1  0  0  0  0
 15  6  1  0  0  0  0
 17 18  1  0  0  0  0
 17  1  1  0  0  0  0
 18 23  1  0  0  0  0
 19 24  1  0  0  0  0
 19 18  2  0  0  0  0
 20 19  1  0  0  0  0
 21 20  2  0  0  0  0
 21 22  1  0  0  0  0
 22 17  2  0  0  0  0
 25 21  1  0  0  0  0
 26 27  1  0  0  0  0
 27 28  1  0  0  0  0
 29 28  1  0  0  0  0
 30 29  1  0  0  0  0
 31 26  1  0  0  0  0
 31 30  1  0  0  0  0
M  END
>  <minimizedAffinity>
-5.13497257

$$$$

 OpenBabel03242517093D

 31 33  0  0  1  0  0  0  0  0999 V2000
   37.2880   30.2000   40.9700 C   0  0  2  0  0  0  0  0  0  0  0  0
   38.0070   29.0170   40.4490 C   0  0  2  0  0  0  0  0  0  0  0  0
   37.3270   28.3550   39.3030 C   0  0  0  0  0  0  0  0  0  0  0  0
   35.8620   28.0440   39.5000 C   0  0  0  0  0  0  0  0  0  0  0  0
   35.1460   29.0800   40.3300 C   0  0  0  0  0  0  0  0  0  0  0  0
   35.9110   30.3860   40.3490 C   0  0  0  0  0  0  0  0  0  0  0  0
   37.0780   30.1670   42.0770 H   0  0  0  0  0  0  0  0  0  0  0  0
   38.9730   29.4040   39.9770 H   0  0  0  0  0  0  0  0  0  0  0  0
   37.4430   28.8590   38.3400 H   0  0  0  0  0  0  0  0  0  0  0  0
   37.8310   27.3570   39.1740 H   0  0  0  0  0  0  0  0  0  0  0  0
   35.3620   28.0600   38.5000 H   0  0  0  0  0  0  0  0  0  0  0  0
   35.7170   27.0200   39.8860 H   0  0  0  0  0  0  0  0  0  0  0  0
   34.1350   29.3000   39.9390 H   0  0  0  0  0  0  0  0  0  0  0  0
   35.0700   28.7250   41.3760 H   0  0  0  0  0  0  0  0  0  0  0  0
   35.3200   31.1040   40.9110 H   0  0  0  0  0  0  0  0  0  0  0  0
   36.1000   30.6690   39.2920 H   0  0  0  0  0  0  0  0  0  0  0  0
   38.0330   31.4520   40.7420 C   0  0  0  0  0  0  0  0  0  0  0  0
   37.2930   32.4990   40.1590 C   0  0  0  0  0  0  0  0  0  0  0  0
   37.9160   33.7250   39.8880 C   0  0  0  0  0  0  0  0  0  0  0  0
   39.2440   33.8200   40.2210 N   0  0  0  0  0  0  0  0  0  0  0  0
   39.9310   32.7910   40.7820 C   0  0  0  0  0  0  0  0  0  0  0  0
   39.3220   31.6300   41.0330 N   0  0  0  0  0  0  0  0  0  0  0  0
   36.2560   32.5400   39.8670 H   0  0  0  0  0  0  0  0  0  0  0  0
   37.4320   34.5840   39.4450 H   0  0  0  0  0  0  0  0  0  0  0  0
   40.9840   32.9880   41.0030 H   0  0  0  0  0  0  0  0  0  0  0  0
   38.5420   28.0620   41.4870 C   0  0  0  0  0  3  0  0  0  0  0  0
   40.0830   28.1360   41.4990 C   0  0  0  0  0  2  0  0  0  0  0  0
   40.6700   26.9830   42.2400 C   0  0  0  0  0  2  0  0  0  0  0  0
   40.1070   26.9420   43.6410 C   0  0  0  0  0  2  0  0  0  0  0  0
   38.6200   27.0890   43.6800 C   0  0  0  0  0  2  0  0  0  0  0  0
   38.1450   28.3200   42.8910 C   0  0  0  0  0  2  0  0  0  0  0  0
  1  7  1  1  0  0  0
  2  8  1  6  0  0  0
  2  1  1  0  0  0  0
  2 26  1  0  0  0  0
  3  4  1  0  0  0  0
  3  2  1  0  0  0  0
  4 12  1  0  0  0  0
  4  5  1  0  0  0  0
  5  6  1  0  0  0  0
  5 14  1  0  0  0  0
  6 15  1  0  0  0  0
  6  1  1  0  0  0  0
  9  3  1  0  0  0  0
 10  3  1  0  0  0  0
 11  4  1  0  0  0  0
 13  5  1  0  0  0  0
 16  6  1  0  0  0  0
 17  1  1  0  0  0  0
 17 22  1  0  0  0  0
 18 17  2  0  0  0  0
 19 18  1  0  0  0  0
 19 20  2  0  0  0  0
 20 21  1  0  0  0  0
 21 25  1  0  0  0  0
 21 22  2  0  0  0  0
 23 18  1  0  0  0  0
 24 19  1  0  0  0  0
 26 27  1  0  0  0  0
 26 31  1  0  0  0  0
 27 28  1  0  0  0  0
 28 29  1  0  0  0  0
 29 30  1  0  0  0  0
 31 30  1  0  0  0  0
M  END
>  <minimizedAffinity>
-5.09143162

$$$$

 OpenBabel03242517093D

 31 33  0  0  1  0  0  0  0  0999 V2000
   36.2650   27.7880   39.0050 C   0  0  2  0  0  0  0  0  0  0  0  0
   35.5220   29.0250   39.3270 C   0  0  2  0  0  0  0  0  0  0  0  0
   34.0970   29.0010   38.8980 C   0  0  0  0  0  0  0  0  0  0  0  0
   33.8480   28.5860   37.4670 C   0  0  0  0  0  0  0  0  0  0  0  0
   34.8210   27.5410   36.9790 C   0  0  0  0  0  0  0  0  0  0  0  0
   35.4720   26.8200   38.1390 C   0  0  0  0  0  0  0  0  0  0  0  0
   37.2130   27.9540   38.4180 H   0  0  0  0  0  0  0  0  0  0  0  0
   35.4400   29.0710   40.4650 H   0  0  0  0  0  0  0  0  0  0  0  0
   33.4280   28.4220   39.5420 H   0  0  0  0  0  0  0  0  0  0  0  0
   33.7290   30.0620   38.9720 H   0  0  0  0  0  0  0  0  0  0  0  0
   32.8390   28.1100   37.4090 H   0  0  0  0  0  0  0  0  0  0  0  0
   33.8000   29.4630   36.7980 H   0  0  0  0  0  0  0  0  0  0  0  0
   34.3270   26.7750   36.3540 H   0  0  0  0  0  0  0  0  0  0  0  0
   35.6270   28.0310   36.3980 H   0  0  0  0  0  0  0  0  0  0  0  0
   36.1130   26.0460   37.7260 H   0  0  0  0  0  0  0  0  0  0  0  0
   34.6540   26.4440   38.7900 H   0  0  0  0  0  0  0  0  0  0  0  0
   36.6680   27.0480   40.2150 C   0  0  0  0  0  0  0  0  0  0  0  0
   36.9820   25.6890   40.0180 C   0  0  0  0  0  0  0  0  0  0  0  0
   37.3610   24.8960   41.1100 C   0  0  0  0  0  0  0  0  0  0  0  0
   37.4020   25.5220   42.3310 N   0  0  0  0  0  0  0  0  0  0  0  0
   37.0940   26.8350   42.4890 C   0  0  0  0  0  0  0  0  0  0  0  0
   36.7330   27.5750   41.4380 N   0  0  0  0  0  0  0  0  0  0  0  0
   36.9920   25.1020   39.1140 H   0  0  0  0  0  0  0  0  0  0  0  0
   37.6190   23.8490   41.0570 H   0  0  0  0  0  0  0  0  0  0  0  0
   37.1630   27.2190   43.5110 H   0  0  0  0  0  0  0  0  0  0  0  0
   36.2350   30.3200   39.0260 C   0  0  0  0  0  3  0  0  0  0  0  0
   36.7880   30.9120   40.3380 C   0  0  0  0  0  2  0  0  0  0  0  0
   37.1880   32.3370   40.1570 C   0  0  0  0  0  2  0  0  0  0  0  0
   38.1950   32.4420   39.0360 C   0  0  0  0  0  2  0  0  0  0  0  0
   37.7880   31.6900   37.8100 C   0  0  0  0  0  2  0  0  0  0  0  0
   37.4130   30.2330   38.1300 C   0  0  0  0  0  2  0  0  0  0  0  0
  1  7  1  6  0  0  0
  1  2  1  0  0  0  0
  1 17  1  0  0  0  0
  2  8  1  1  0  0  0
  3 10  1  0  0  0  0
  3  2  1  0  0  0  0
  3  9  1  0  0  0  0
  4  3  1  0  0  0  0
  5  4  1  0  0  0  0
  5  6  1  0  0  0  0
  6 16  1  0  0  0  0
  6  1  1  0  0  0  0
 11  4  1  0  0  0  0
 12  4  1  0  0  0  0
 13  5  1  0  0  0  0
 14  5  1  0  0  0  0
 15  6  1  0  0  0  0
 17 22  1  0  0  0  0
 18 17  2  0  0  0  0
 18 19  1  0  0  0  0
 19 20  2  0  0  0  0
 20 21  1  0  0  0  0
 21 25  1  0  0  0  0
 22 21  2  0  0  0  0
 23 18  1  0  0  0  0
 24 19  1  0  0  0  0
 26  2  1  0  0  0  0
 26 27  1  0  0  0  0
 28 27  1  0  0  0  0
 29 28  1  0  0  0  0
 30 31  1  0  0  0  0
 30 29  1  0  0  0  0
 31 26  1  0  0  0  0
M  END
>  <minimizedAffinity>
-5.00576878

$$$$

 OpenBabel03242517093D

 31 33  0  0  1  0  0  0  0  0999 V2000
   35.6060   29.0020   39.0900 C   0  0  2  0  0  0  0  0  0  0  0  0
   36.4980   27.8260   39.0070 C   0  0  2  0  0  0  0  0  0  0  0  0
   36.4450   27.1210   37.6970 C   0  0  0  0  0  0  0  0  0  0  0  0
   35.0640   26.7810   37.1900 C   0  0  0  0  0  0  0  0  0  0  0  0
   34.0310   27.8180   37.5530 C   0  0  0  0  0  0  0  0  0  0  0  0
   34.6830   29.1420   37.8890 C   0  0  0  0  0  0  0  0  0  0  0  0
   34.9000   28.9890   39.9690 H   0  0  0  0  0  0  0  0  0  0  0  0
   37.5690   28.2240   39.0340 H   0  0  0  0  0  0  0  0  0  0  0  0
   36.9970   27.6070   36.8870 H   0  0  0  0  0  0  0  0  0  0  0  0
   36.9610   26.1330   37.8520 H   0  0  0  0  0  0  0  0  0  0  0  0
   35.0940   26.7620   36.0730 H   0  0  0  0  0  0  0  0  0  0  0  0
   34.7650   25.7620   37.4940 H   0  0  0  0  0  0  0  0  0  0  0  0
   33.3220   28.0050   36.7250 H   0  0  0  0  0  0  0  0  0  0  0  0
   33.4740   27.4850   38.4500 H   0  0  0  0  0  0  0  0  0  0  0  0
   33.8900   29.8580   38.0840 H   0  0  0  0  0  0  0  0  0  0  0  0
   35.3450   29.4050   37.0370 H   0  0  0  0  0  0  0  0  0  0  0  0
   36.3580   30.2660   39.2020 C   0  0  0  0  0  0  0  0  0  0  0  0
   36.9730   30.7110   38.0160 C   0  0  0  0  0  0  0  0  0  0  0  0
   37.7250   31.8940   38.0210 C   0  0  0  0  0  0  0  0  0  0  0  0
   37.8080   32.5550   39.2210 N   0  0  0  0  0  0  0  0  0  0  0  0
   37.2030   32.1010   40.3490 C   0  0  0  0  0  0  0  0  0  0  0  0
   36.4920   30.9710   40.3250 N   0  0  0  0  0  0  0  0  0  0  0  0
   36.9690   30.2820   37.0270 H   0  0  0  0  0  0  0  0  0  0  0  0
   38.2310   32.3130   37.1640 H   0  0  0  0  0  0  0  0  0  0  0  0
   37.3420   32.7160   41.2430 H   0  0  0  0  0  0  0  0  0  0  0  0
   36.4910   26.9070   40.2040 C   0  0  0  0  0  3  0  0  0  0  0  0
   37.0520   25.5300   39.7910 C   0  0  0  0  0  2  0  0  0  0  0  0
   36.7460   24.4960   40.8200 C   0  0  0  0  0  2  0  0  0  0  0  0
   37.2920   24.9360   42.1580 C   0  0  0  0  0  2  0  0  0  0  0  0
   36.9480   26.3510   42.4940 C   0  0  0  0  0  2  0  0  0  0  0  0
   37.3240   27.3170   41.3590 C   0  0  0  0  0  2  0  0  0  0  0  0
  1 17  1  0  0  0  0
  1  7  1  1  0  0  0
  2  8  1  1  0  0  0
  2  1  1  0  0  0  0
  2 26  1  0  0  0  0
  3 10  1  0  0  0  0
  3  2  1  0  0  0  0
  4 12  1  0  0  0  0
  4  5  1  0  0  0  0
  4  3  1  0  0  0  0
  5  6  1  0  0  0  0
  5 14  1  0  0  0  0
  6 15  1  0  0  0  0
  6  1  1  0  0  0  0
  9  3  1  0  0  0  0
 11  4  1  0  0  0  0
 13  5  1  0  0  0  0
 16  6  1  0  0  0  0
 17 22  1  0  0  0  0
 18 19  1  0  0  0  0
 18 17  2  0  0  0  0
 19 20  2  0  0  0  0
 20 21  1  0  0  0  0
 21 25  1  0  0  0  0
 22 21  2  0  0  0  0
 23 18  1  0  0  0  0
 24 19  1  0  0  0  0
 26 31  1  0  0  0  0
 27 26  1  0  0  0  0
 27 28  1  0  0  0  0
 28 29  1  0  0  0  0
 29 30  1  0  0  0  0
 31 30  1  0  0  0  0
M  END
>  <minimizedAffinity>
-4.99136305

$$$$

 OpenBabel03242517093D

 31 33  0  0  1  0  0  0  0  0999 V2000
   37.5910   30.7830   39.5110 C   0  0  2  0  0  0  0  0  0  0  0  0
   38.3900   29.5550   39.7100 C   0  0  2  0  0  0  0  0  0  0  0  0
   38.5630   28.7420   38.4760 C   0  0  0  0  0  0  0  0  0  0  0  0
   37.2990   28.4370   37.7070 C   0  0  0  0  0  0  0  0  0  0  0  0
   36.2930   29.5600   37.7590 C   0  0  0  0  0  0  0  0  0  0  0  0
   36.9570   30.8690   38.1300 C   0  0  0  0  0  0  0  0  0  0  0  0
   36.7160   30.8880   40.2130 H   0  0  0  0  0  0  0  0  0  0  0  0
   39.4570   29.8920   39.9400 H   0  0  0  0  0  0  0  0  0  0  0  0
   39.3080   29.1210   37.7710 H   0  0  0  0  0  0  0  0  0  0  0  0
   38.9590   27.7420   38.8110 H   0  0  0  0  0  0  0  0  0  0  0  0
   37.5630   28.3180   36.6280 H   0  0  0  0  0  0  0  0  0  0  0  0
   36.8670   27.4680   38.0130 H   0  0  0  0  0  0  0  0  0  0  0  0
   35.7910   29.7140   36.7850 H   0  0  0  0  0  0  0  0  0  0  0  0
   35.5350   29.3400   38.5360 H   0  0  0  0  0  0  0  0  0  0  0  0
   36.1960   31.6440   38.0950 H   0  0  0  0  0  0  0  0  0  0  0  0
   37.8020   31.0170   37.4260 H   0  0  0  0  0  0  0  0  0  0  0  0
   38.3950   32.0070   39.6890 C   0  0  0  0  0  0  0  0  0  0  0  0
   39.6330   32.0210   39.0180 C   0  0  0  0  0  0  0  0  0  0  0  0
   40.4770   33.1330   39.1370 C   0  0  0  0  0  0  0  0  0  0  0  0
   40.0220   34.1610   39.9240 N   0  0  0  0  0  0  0  0  0  0  0  0
   38.8220   34.1180   40.5590 C   0  0  0  0  0  0  0  0  0  0  0  0
   38.0310   33.0500   40.4350 N   0  0  0  0  0  0  0  0  0  0  0  0
   40.0840   31.2830   38.3740 H   0  0  0  0  0  0  0  0  0  0  0  0
   41.4420   33.2360   38.6610 H   0  0  0  0  0  0  0  0  0  0  0  0
   38.5700   34.9990   41.1580 H   0  0  0  0  0  0  0  0  0  0  0  0
   38.0600   28.7470   40.9410 C   0  0  0  0  0  3  0  0  0  0  0  0
   38.9590   29.2070   42.1070 C   0  0  0  0  0  2  0  0  0  0  0  0
   38.9270   28.2250   43.2290 C   0  0  0  0  0  2  0  0  0  0  0  0
   37.5000   28.0200   43.6800 C   0  0  0  0  0  2  0  0  0  0  0  0
   36.5550   27.7860   42.5450 C   0  0  0  0  0  2  0  0  0  0  0  0
   36.6790   28.8720   41.4640 C   0  0  0  0  0  2  0  0  0  0  0  0
  1 17  1  0  0  0  0
  1  2  1  0  0  0  0
  1  7  1  1  0  0  0
  2  8  1  1  0  0  0
  2 26  1  0  0  0  0
  3 10  1  0  0  0  0
  3  2  1  0  0  0  0
  4  5  1  0  0  0  0
  4 12  1  0  0  0  0
  4  3  1  0  0  0  0
  5  6  1  0  0  0  0
  5 14  1  0  0  0  0
  6  1  1  0  0  0  0
  9  3  1  0  0  0  0
 11  4  1  0  0  0  0
 13  5  1  0  0  0  0
 15  6  1  0  0  0  0
 16  6  1  0  0  0  0
 17 22  1  0  0  0  0
 18 19  1  0  0  0  0
 18 17  2  0  0  0  0
 19 20  2  0  0  0  0
 20 21  1  0  0  0  0
 21 25  1  0  0  0  0
 22 21  2  0  0  0  0
 23 18  1  0  0  0  0
 24 19  1  0  0  0  0
 26 31  1  0  0  0  0
 26 27  1  0  0  0  0
 27 28  1  0  0  0  0
 28 29  1  0  0  0  0
 30 29  1  0  0  0  0
 31 30  1  0  0  0  0
M  END
>  <minimizedAffinity>
-4.97985268

$$$$

 OpenBabel03242517093D

 31 33  0  0  1  0  0  0  0  0999 V2000
   38.8900   31.0880   41.3700 C   0  0  2  0  0  0  0  0  0  0  0  0
   38.8390   29.7840   40.6740 C   0  0  2  0  0  0  0  0  0  0  0  0
   38.3060   29.8610   39.2870 C   0  0  0  0  0  0  0  0  0  0  0  0
   37.0010   30.6030   39.1250 C   0  0  0  0  0  0  0  0  0  0  0  0
   36.8650   31.7700   40.0720 C   0  0  0  0  0  0  0  0  0  0  0  0
   38.2170   32.2090   40.5920 C   0  0  0  0  0  0  0  0  0  0  0  0
   38.3660   31.1040   42.3670 H   0  0  0  0  0  0  0  0  0  0  0  0
   39.9220   29.4580   40.5090 H   0  0  0  0  0  0  0  0  0  0  0  0
   39.0100   30.2410   38.5400 H   0  0  0  0  0  0  0  0  0  0  0  0
   38.0910   28.8010   38.9740 H   0  0  0  0  0  0  0  0  0  0  0  0
   36.9720   31.0430   38.0980 H   0  0  0  0  0  0  0  0  0  0  0  0
   36.1390   29.9150   39.1760 H   0  0  0  0  0  0  0  0  0  0  0  0
   36.4020   32.6480   39.5850 H   0  0  0  0  0  0  0  0  0  0  0  0
   36.2560   31.4650   40.9460 H   0  0  0  0  0  0  0  0  0  0  0  0
   38.0590   33.0820   41.2180 H   0  0  0  0  0  0  0  0  0  0  0  0
   38.8650   32.3850   39.7070 H   0  0  0  0  0  0  0  0  0  0  0  0
   40.2730   31.5240   41.6380 C   0  0  0  0  0  0  0  0  0  0  0  0
   40.8230   32.4090   40.6920 C   0  0  0  0  0  0  0  0  0  0  0  0
   42.1380   32.8690   40.8500 C   0  0  0  0  0  0  0  0  0  0  0  0
   42.8150   32.4090   41.9510 N   0  0  0  0  0  0  0  0  0  0  0  0
   42.2570   31.5550   42.8470 C   0  0  0  0  0  0  0  0  0  0  0  0
   41.0030   31.1260   42.6800 N   0  0  0  0  0  0  0  0  0  0  0  0
   40.3870   32.8380   39.8040 H   0  0  0  0  0  0  0  0  0  0  0  0
   42.6440   33.5480   40.1780 H   0  0  0  0  0  0  0  0  0  0  0  0
   42.8970   31.2590   43.6840 H   0  0  0  0  0  0  0  0  0  0  0  0
   38.2990   28.6280   41.4800 C   0  0  0  0  0  3  0  0  0  0  0  0
   37.4840   29.1750   42.6700 C   0  0  0  0  0  2  0  0  0  0  0  0
   37.2270   28.1090   43.6800 C   0  0  0  0  0  2  0  0  0  0  0  0
   36.5270   26.9450   43.0200 C   0  0  0  0  0  2  0  0  0  0  0  0
   37.1710   26.5250   41.7370 C   0  0  0  0  0  2  0  0  0  0  0  0
   37.3680   27.7120   40.7800 C   0  0  0  0  0  2  0  0  0  0  0  0
  1 17  1  0  0  0  0
  1  7  1  1  0  0  0
  2  8  1  6  0  0  0
  2  1  1  0  0  0  0
  2 26  1  0  0  0  0
  3  2  1  0  0  0  0
  4 12  1  0  0  0  0
  4  3  1  0  0  0  0
  4  5  1  0  0  0  0
  5  6  1  0  0  0  0
  5 14  1  0  0  0  0
  6 15  1  0  0  0  0
  6  1  1  0  0  0  0
  9  3  1  0  0  0  0
 10  3  1  0  0  0  0
 11  4  1  0  0  0  0
 13  5  1  0  0  0  0
 16  6  1  0  0  0  0
 17 22  1  0  0  0  0
 18 19  1  0  0  0  0
 18 17  2  0  0  0  0
 19 20  2  0  0  0  0
 20 21  1  0  0  0  0
 21 25  1  0  0  0  0
 22 21  2  0  0  0  0
 23 18  1  0  0  0  0
 24 19  1  0  0  0  0
 26 27  1  0  0  0  0
 27 28  1  0  0  0  0
 29 28  1  0  0  0  0
 30 29  1  0  0  0  0
 31 26  1  0  0  0  0
 31 30  1  0  0  0  0
M  END
>  <minimizedAffinity>
-4.9500308

$$$$

 OpenBabel03242517093D

 31 33  0  0  1  0  0  0  0  0999 V2000
   37.3720   26.6410   41.2800 C   0  0  2  0  0  0  0  0  0  0  0  0
   38.3610   27.7410   41.3090 C   0  0  2  0  0  0  0  0  0  0  0  0
   38.7990   28.1200   42.6800 C   0  0  0  0  0  0  0  0  0  0  0  0
   37.6930   28.3710   43.6770 C   0  0  0  0  0  0  0  0  0  0  0  0
   36.4960   27.4760   43.4680 C   0  0  0  0  0  0  0  0  0  0  0  0
   36.8680   26.2500   42.6610 C   0  0  0  0  0  0  0  0  0  0  0  0
   36.4280   26.8790   40.7100 H   0  0  0  0  0  0  0  0  0  0  0  0
   39.3200   27.3300   40.8440 H   0  0  0  0  0  0  0  0  0  0  0  0
   39.5250   27.4430   43.1390 H   0  0  0  0  0  0  0  0  0  0  0  0
   39.3390   29.1030   42.5760 H   0  0  0  0  0  0  0  0  0  0  0  0
   38.0770   28.1270   44.6980 H   0  0  0  0  0  0  0  0  0  0  0  0
   37.4190   29.4400   43.7130 H   0  0  0  0  0  0  0  0  0  0  0  0
   36.0710   27.1210   44.4240 H   0  0  0  0  0  0  0  0  0  0  0  0
   35.7210   28.0260   42.8980 H   0  0  0  0  0  0  0  0  0  0  0  0
   35.9840   25.6220   42.5940 H   0  0  0  0  0  0  0  0  0  0  0  0
   37.7350   25.7770   43.1690 H   0  0  0  0  0  0  0  0  0  0  0  0
   37.9150   25.4180   40.6600 C   0  0  0  0  0  0  0  0  0  0  0  0
   37.4640   24.2060   41.2170 C   0  0  0  0  0  0  0  0  0  0  0  0
   37.9340   22.9880   40.7080 C   0  0  0  0  0  0  0  0  0  0  0  0
   38.8280   23.0670   39.6700 N   0  0  0  0  0  0  0  0  0  0  0  0
   39.2450   24.2520   39.1540 C   0  0  0  0  0  0  0  0  0  0  0  0
   38.7870   25.4040   39.6520 N   0  0  0  0  0  0  0  0  0  0  0  0
   36.7650   24.0260   42.0180 H   0  0  0  0  0  0  0  0  0  0  0  0
   37.6460   22.0110   41.0680 H   0  0  0  0  0  0  0  0  0  0  0  0
   39.9590   24.1860   38.3280 H   0  0  0  0  0  0  0  0  0  0  0  0
   38.0690   28.9140   40.4070 C   0  0  0  0  0  3  0  0  0  0  0  0
   36.5490   28.9980   40.1590 C   0  0  0  0  0  2  0  0  0  0  0  0
   36.2420   29.9040   39.0150 C   0  0  0  0  0  2  0  0  0  0  0  0
   36.8360   31.2680   39.2760 C   0  0  0  0  0  2  0  0  0  0  0  0
   38.2570   31.2100   39.7340 C   0  0  0  0  0  2  0  0  0  0  0  0
   38.4370   30.2530   40.9230 C   0  0  0  0  0  2  0  0  0  0  0  0
  1  7  1  6  0  0  0
  1  2  1  0  0  0  0
  1  6  1  0  0  0  0
  2  8  1  6  0  0  0
  2  3  1  0  0  0  0
  3  9  1  0  0  0  0
  3  4  1  0  0  0  0
  4 12  1  0  0  0  0
  4 11  1  0  0  0  0
  5  4  1  0  0  0  0
  5 13  1  0  0  0  0
  6 16  1  0  0  0  0
  6  5  1  0  0  0  0
 10  3  1  0  0  0  0
 14  5  1  0  0  0  0
 15  6  1  0  0  0  0
 17 18  1  0  0  0  0
 17  1  1  0  0  0  0
 18 23  1  0  0  0  0
 19 24  1  0  0  0  0
 19 18  2  0  0  0  0
 20 19  1  0  0  0  0
 21 22  1  0  0  0  0
 21 20  2  0  0  0  0
 22 17  2  0  0  0  0
 25 21  1  0  0  0  0
 26 31  1  0  0  0  0
 26  2  1  0  0  0  0
 27 26  1  0  0  0  0
 28 29  1  0  0  0  0
 28 27  1  0  0  0  0
 29 30  1  0  0  0  0
 30 31  1  0  0  0  0
M  END
>  <minimizedAffinity>
-4.92651749

$$$$
