
 OpenBabel03252507263D

 24 26  0  0  0  0  0  0  0  0999 V2000
   45.6250   33.7450   45.5460 C   0  0  0  0  0  0  0  0  0  0  0  0
   44.7470   34.7950   45.8580 C   0  0  0  0  0  0  0  0  0  0  0  0
   44.5790   35.8050   44.8880 C   0  0  0  0  0  0  0  0  0  0  0  0
   45.2750   35.7050   43.7070 N   0  0  0  0  0  0  0  0  0  0  0  0
   46.1000   34.6700   43.4740 C   0  0  0  0  0  0  0  0  0  0  0  0
   46.2800   33.7000   44.3700 N   0  0  0  0  0  0  0  0  0  0  0  0
   44.2420   34.8010   46.7980 H   0  0  0  0  0  0  0  0  0  0  0  0
   43.9190   36.6160   45.0960 H   0  0  0  0  0  0  0  0  0  0  0  0
   46.8130   34.6250   42.1920 C   0  0  0  0  0  0  0  0  0  0  0  0
   47.9750   35.3300   42.0080 C   0  0  0  0  0  0  0  0  0  0  0  0
   48.7140   35.3500   40.8440 C   0  0  0  0  0  0  0  0  0  0  0  0
   48.1800   34.5740   39.8210 C   0  0  0  0  0  0  0  0  0  0  0  0
   47.0070   33.8510   39.9790 C   0  0  0  0  0  0  0  0  0  0  0  0
   46.3290   33.8820   41.1670 N   0  0  0  0  0  0  0  0  0  0  0  0
   48.3800   35.9390   42.8320 H   0  0  0  0  0  0  0  0  0  0  0  0
   49.6290   35.9180   40.7320 H   0  0  0  0  0  0  0  0  0  0  0  0
   48.6760   34.5170   38.8670 H   0  0  0  0  0  0  0  0  0  0  0  0
   46.6020   33.2480   39.1690 H   0  0  0  0  0  0  0  0  0  0  0  0
   45.8690   32.6320   46.5010 C   0  0  0  0  0  3  0  0  0  0  0  0
   47.1120   32.7980   47.3150 C   0  0  0  0  0  2  0  0  0  0  0  0
   47.1280   31.6480   48.3130 C   0  0  0  0  0  2  0  0  0  0  0  0
   47.0140   30.3000   47.6700 C   0  0  0  0  0  2  0  0  0  0  0  0
   45.8880   30.2190   46.6710 C   0  0  0  0  0  2  0  0  0  0  0  0
   46.0670   31.3500   45.6820 C   0  0  0  0  0  2  0  0  0  0  0  0
  1  2  1  0  0  0  0
  1 19  1  0  0  0  0
  2  7  1  0  0  0  0
  3  8  1  0  0  0  0
  3  2  2  0  0  0  0
  4  3  1  0  0  0  0
  5  4  2  0  0  0  0
  5  6  1  0  0  0  0
  6  1  2  0  0  0  0
  9  5  1  0  0  0  0
 10  9  1  0  0  0  0
 10 15  1  0  0  0  0
 11 10  2  0  0  0  0
 12 13  2  0  0  0  0
 12 11  1  0  0  0  0
 13 14  1  0  0  0  0
 14  9  2  0  0  0  0
 16 11  1  0  0  0  0
 17 12  1  0  0  0  0
 18 13  1  0  0  0  0
 19 20  1  0  0  0  0
 20 21  1  0  0  0  0
 22 21  1  0  0  0  0
 23 22  1  0  0  0  0
 24 19  1  0  0  0  0
 24 23  1  0  0  0  0
M  END
>  <minimizedAffinity>
-5.85176706

>  <minimizedRMSD>
0.380194932

$$$$
