
 OpenBabel03252506033D

 25 27  0  0  0  0  0  0  0  0999 V2000
   37.5340   31.9140   36.5540 Cl  0  0  0  0  0  0  0  0  0  0  0  0
   37.3200   30.7110   37.7810 C   0  0  0  0  0  0  0  0  0  0  0  0
   37.9050   30.8600   39.0140 C   0  0  0  0  0  0  0  0  0  0  0  0
   37.6740   29.8420   39.9260 C   0  0  0  0  0  0  0  0  0  0  0  0
   36.9130   28.7210   39.6750 C   0  0  0  0  0  0  0  0  0  0  0  0
   36.3420   28.6000   38.4330 C   0  0  0  0  0  0  0  0  0  0  0  0
   35.3890   27.1590   38.1680 Cl  0  0  0  0  0  0  0  0  0  0  0  0
   36.5430   29.5830   37.4960 C   0  0  0  0  0  0  0  0  0  0  0  0
   38.1340   29.9580   40.8990 H   0  0  0  0  0  0  0  0  0  0  0  0
   36.0740   29.4580   36.5150 H   0  0  0  0  0  0  0  0  0  0  0  0
   40.8300   33.0380   39.2740 C   0  0  0  0  0  0  0  0  0  0  0  0
   40.3190   34.1550   39.9590 C   0  0  0  0  0  0  0  0  0  0  0  0
   38.9580   34.1610   40.3360 C   0  0  0  0  0  0  0  0  0  0  0  0
   38.2220   33.0710   40.0060 N   0  0  0  0  0  0  0  0  0  0  0  0
   38.7240   32.0190   39.3540 C   0  0  0  0  0  0  0  0  0  0  0  0
   40.0360   31.9870   38.9790 N   0  0  0  0  0  0  0  0  0  0  0  0
   41.8790   33.0890   39.0110 H   0  0  0  0  0  0  0  0  0  0  0  0
   40.9520   34.9990   40.1960 H   0  0  0  0  0  0  0  0  0  0  0  0
   38.5440   35.0040   40.8610 H   0  0  0  0  0  0  0  0  0  0  0  0
   36.7450   27.7050   40.7400 C   0  0  0  0  0  3  0  0  0  0  0  0
   36.9150   28.2920   42.1220 C   0  0  0  0  0  2  0  0  0  0  0  0
   36.4220   27.2860   43.1040 C   0  0  0  0  0  2  0  0  0  0  0  0
   36.8860   25.8940   42.9290 C   0  0  0  0  0  2  0  0  0  0  0  0
   37.1410   25.4440   41.5190 C   0  0  0  0  0  2  0  0  0  0  0  0
   37.6700   26.5390   40.6310 C   0  0  0  0  0  2  0  0  0  0  0  0
  1  2  1  0  0  0  0
  2  3  1  0  0  0  0
  3 15  1  0  0  0  0
  3  4  2  0  0  0  0
  4  9  1  0  0  0  0
  5  4  1  0  0  0  0
  5 20  1  0  0  0  0
  6  5  2  0  0  0  0
  7  6  1  0  0  0  0
  8  2  2  0  0  0  0
  8  6  1  0  0  0  0
 10  8  1  0  0  0  0
 11 12  1  0  0  0  0
 12 18  1  0  0  0  0
 12 13  2  0  0  0  0
 13 19  1  0  0  0  0
 14 13  1  0  0  0  0
 15 14  2  0  0  0  0
 16 11  2  0  0  0  0
 16 15  1  0  0  0  0
 17 11  1  0  0  0  0
 20 21  1  0  0  0  0
 21 22  1  0  0  0  0
 23 22  1  0  0  0  0
 24 23  1  0  0  0  0
 25 20  1  0  0  0  0
 25 24  1  0  0  0  0
M  END
>  <minimizedAffinity>
-5.17520523

$$$$

 OpenBabel03252506033D

 25 27  0  0  0  0  0  0  0  0999 V2000
   37.6850   32.1010   36.2830 Cl  0  0  0  0  0  0  0  0  0  0  0  0
   37.6450   31.1560   37.7340 C   0  0  0  0  0  0  0  0  0  0  0  0
   38.6420   31.2740   38.6710 C   0  0  0  0  0  0  0  0  0  0  0  0
   38.5180   30.4740   39.7970 C   0  0  0  0  0  0  0  0  0  0  0  0
   37.4820   29.5920   40.0230 C   0  0  0  0  0  0  0  0  0  0  0  0
   36.5020   29.4980   39.0680 C   0  0  0  0  0  0  0  0  0  0  0  0
   35.2140   28.3660   39.4060 Cl  0  0  0  0  0  0  0  0  0  0  0  0
   36.5820   30.2700   37.9360 C   0  0  0  0  0  0  0  0  0  0  0  0
   39.3020   30.5650   40.5360 H   0  0  0  0  0  0  0  0  0  0  0  0
   35.7840   30.1720   37.1930 H   0  0  0  0  0  0  0  0  0  0  0  0
   40.8570   34.1310   39.2130 C   0  0  0  0  0  0  0  0  0  0  0  0
   41.8520   33.9340   38.2400 C   0  0  0  0  0  0  0  0  0  0  0  0
   41.7630   32.8110   37.3880 C   0  0  0  0  0  0  0  0  0  0  0  0
   40.7050   31.9820   37.5700 N   0  0  0  0  0  0  0  0  0  0  0  0
   39.7680   32.1840   38.5010 C   0  0  0  0  0  0  0  0  0  0  0  0
   39.8310   33.2620   39.3360 N   0  0  0  0  0  0  0  0  0  0  0  0
   40.9770   35.0080   39.8360 H   0  0  0  0  0  0  0  0  0  0  0  0
   42.6760   34.6280   38.1380 H   0  0  0  0  0  0  0  0  0  0  0  0
   42.5120   32.6390   36.6350 H   0  0  0  0  0  0  0  0  0  0  0  0
   37.4700   28.7950   41.2710 C   0  0  0  0  0  3  0  0  0  0  0  0
   38.0930   29.5370   42.4310 C   0  0  0  0  0  2  0  0  0  0  0  0
   37.7500   28.7970   43.6780 C   0  0  0  0  0  2  0  0  0  0  0  0
   37.9470   27.3320   43.6640 C   0  0  0  0  0  2  0  0  0  0  0  0
   37.7400   26.6390   42.3480 C   0  0  0  0  0  2  0  0  0  0  0  0
   38.1550   27.4730   41.1640 C   0  0  0  0  0  2  0  0  0  0  0  0
  1  2  1  0  0  0  0
  2  8  2  0  0  0  0
  2  3  1  0  0  0  0
  3  4  2  0  0  0  0
  4  5  1  0  0  0  0
  4  9  1  0  0  0  0
  5 20  1  0  0  0  0
  6  7  1  0  0  0  0
  6  5  2  0  0  0  0
  8  6  1  0  0  0  0
 10  8  1  0  0  0  0
 11 16  1  0  0  0  0
 11 17  1  0  0  0  0
 12 11  2  0  0  0  0
 13 14  2  0  0  0  0
 13 12  1  0  0  0  0
 14 15  1  0  0  0  0
 15  3  1  0  0  0  0
 15 16  2  0  0  0  0
 18 12  1  0  0  0  0
 19 13  1  0  0  0  0
 20 21  1  0  0  0  0
 21 22  1  0  0  0  0
 23 22  1  0  0  0  0
 24 23  1  0  0  0  0
 25 20  1  0  0  0  0
 25 24  1  0  0  0  0
M  END
>  <minimizedAffinity>
-5.13597727

$$$$

 OpenBabel03252506033D

 25 27  0  0  0  0  0  0  0  0999 V2000
   37.2780   33.4850   39.5180 Cl  0  0  0  0  0  0  0  0  0  0  0  0
   37.7310   31.9360   40.1450 C   0  0  0  0  0  0  0  0  0  0  0  0
   39.0550   31.5920   40.2650 C   0  0  0  0  0  0  0  0  0  0  0  0
   39.3130   30.3290   40.7770 C   0  0  0  0  0  0  0  0  0  0  0  0
   38.3460   29.4250   41.1610 C   0  0  0  0  0  0  0  0  0  0  0  0
   37.0320   29.7990   41.0290 C   0  0  0  0  0  0  0  0  0  0  0  0
   35.8490   28.6150   41.5310 Cl  0  0  0  0  0  0  0  0  0  0  0  0
   36.7270   31.0390   40.5270 C   0  0  0  0  0  0  0  0  0  0  0  0
   40.3560   30.0560   40.8720 H   0  0  0  0  0  0  0  0  0  0  0  0
   35.6700   31.3080   40.4340 H   0  0  0  0  0  0  0  0  0  0  0  0
   41.4860   33.3310   38.1600 C   0  0  0  0  0  0  0  0  0  0  0  0
   42.1490   34.1610   39.0810 C   0  0  0  0  0  0  0  0  0  0  0  0
   41.7600   34.1230   40.4390 C   0  0  0  0  0  0  0  0  0  0  0  0
   40.7540   33.2750   40.7680 N   0  0  0  0  0  0  0  0  0  0  0  0
   40.1340   32.4940   39.8790 C   0  0  0  0  0  0  0  0  0  0  0  0
   40.4910   32.5110   38.5620 N   0  0  0  0  0  0  0  0  0  0  0  0
   41.8260   33.4030   37.1350 H   0  0  0  0  0  0  0  0  0  0  0  0
   42.9460   34.8190   38.7640 H   0  0  0  0  0  0  0  0  0  0  0  0
   42.2530   34.7480   41.1620 H   0  0  0  0  0  0  0  0  0  0  0  0
   38.7580   28.1070   41.6940 C   0  0  0  0  0  3  0  0  0  0  0  0
   39.2390   28.1920   43.1240 C   0  0  0  0  0  2  0  0  0  0  0  0
   39.3230   26.8030   43.6580 C   0  0  0  0  0  2  0  0  0  0  0  0
   39.9940   25.7980   42.8060 C   0  0  0  0  0  2  0  0  0  0  0  0
   39.8660   25.9830   41.3220 C   0  0  0  0  0  2  0  0  0  0  0  0
   39.8270   27.4290   40.9020 C   0  0  0  0  0  2  0  0  0  0  0  0
  1  2  1  0  0  0  0
  2  3  2  0  0  0  0
  2  8  1  0  0  0  0
  3  4  1  0  0  0  0
  4  9  1  0  0  0  0
  4  5  2  0  0  0  0
  5 20  1  0  0  0  0
  6  5  1  0  0  0  0
  6  7  1  0  0  0  0
  8  6  2  0  0  0  0
 10  8  1  0  0  0  0
 11 16  2  0  0  0  0
 11 12  1  0  0  0  0
 12 13  2  0  0  0  0
 13 14  1  0  0  0  0
 13 19  1  0  0  0  0
 15  3  1  0  0  0  0
 15 14  2  0  0  0  0
 16 15  1  0  0  0  0
 17 11  1  0  0  0  0
 18 12  1  0  0  0  0
 20 21  1  0  0  0  0
 21 22  1  0  0  0  0
 23 22  1  0  0  0  0
 24 23  1  0  0  0  0
 25 24  1  0  0  0  0
 25 20  1  0  0  0  0
M  END
>  <minimizedAffinity>
-5.0961132

$$$$

 OpenBabel03252506033D

 25 27  0  0  0  0  0  0  0  0999 V2000
   40.3050   30.8110   42.8490 Cl  0  0  0  0  0  0  0  0  0  0  0  0
   39.7260   29.2440   42.3930 C   0  0  0  0  0  0  0  0  0  0  0  0
   38.8740   29.0980   41.3260 C   0  0  0  0  0  0  0  0  0  0  0  0
   38.4680   27.8040   41.0420 C   0  0  0  0  0  0  0  0  0  0  0  0
   38.8580   26.6860   41.7490 C   0  0  0  0  0  0  0  0  0  0  0  0
   39.7090   26.8640   42.8100 C   0  0  0  0  0  0  0  0  0  0  0  0
   40.1710   25.4150   43.6700 Cl  0  0  0  0  0  0  0  0  0  0  0  0
   40.1380   28.1290   43.1290 C   0  0  0  0  0  0  0  0  0  0  0  0
   37.7970   27.6870   40.2020 H   0  0  0  0  0  0  0  0  0  0  0  0
   40.8170   28.2380   43.9810 H   0  0  0  0  0  0  0  0  0  0  0  0
   36.7940   31.8890   40.2080 C   0  0  0  0  0  0  0  0  0  0  0  0
   37.5000   32.3660   39.0890 C   0  0  0  0  0  0  0  0  0  0  0  0
   38.7010   31.7240   38.7130 C   0  0  0  0  0  0  0  0  0  0  0  0
   39.1000   30.6720   39.4700 N   0  0  0  0  0  0  0  0  0  0  0  0
   38.4180   30.2330   40.5320 C   0  0  0  0  0  0  0  0  0  0  0  0
   37.2550   30.8360   40.9150 N   0  0  0  0  0  0  0  0  0  0  0  0
   35.8820   32.4200   40.4480 H   0  0  0  0  0  0  0  0  0  0  0  0
   37.1350   33.2100   38.5190 H   0  0  0  0  0  0  0  0  0  0  0  0
   39.2570   32.0700   37.8600 H   0  0  0  0  0  0  0  0  0  0  0  0
   38.3500   25.3570   41.3400 C   0  0  0  0  0  3  0  0  0  0  0  0
   39.1960   24.7290   40.2560 C   0  0  0  0  0  2  0  0  0  0  0  0
   38.8000   23.2960   40.1460 C   0  0  0  0  0  2  0  0  0  0  0  0
   37.3530   23.0040   40.0900 C   0  0  0  0  0  2  0  0  0  0  0  0
   36.4490   23.9340   40.8480 C   0  0  0  0  0  2  0  0  0  0  0  0
   36.9360   25.3590   40.8590 C   0  0  0  0  0  2  0  0  0  0  0  0
  2  1  1  0  0  0  0
  2  8  1  0  0  0  0
  3  2  2  0  0  0  0
  4  3  1  0  0  0  0
  4  5  2  0  0  0  0
  5  6  1  0  0  0  0
  6  8  2  0  0  0  0
  6  7  1  0  0  0  0
  8 10  1  0  0  0  0
  9  4  1  0  0  0  0
 11 17  1  0  0  0  0
 11 16  1  0  0  0  0
 12 11  2  0  0  0  0
 13 12  1  0  0  0  0
 13 14  2  0  0  0  0
 14 15  1  0  0  0  0
 15 16  2  0  0  0  0
 15  3  1  0  0  0  0
 18 12  1  0  0  0  0
 19 13  1  0  0  0  0
 20  5  1  0  0  0  0
 21 20  1  0  0  0  0
 22 21  1  0  0  0  0
 23 22  1  0  0  0  0
 23 24  1  0  0  0  0
 24 25  1  0  0  0  0
 25 20  1  0  0  0  0
M  END
>  <minimizedAffinity>
-4.999825

$$$$

 OpenBabel03252506033D

 25 27  0  0  0  0  0  0  0  0999 V2000
   35.4050   28.9170   40.7670 Cl  0  0  0  0  0  0  0  0  0  0  0  0
   36.7450   29.9990   40.5890 C   0  0  0  0  0  0  0  0  0  0  0  0
   38.0270   29.5680   40.8300 C   0  0  0  0  0  0  0  0  0  0  0  0
   39.0290   30.5110   40.6600 C   0  0  0  0  0  0  0  0  0  0  0  0
   38.8210   31.8180   40.2750 C   0  0  0  0  0  0  0  0  0  0  0  0
   37.5290   32.2180   40.0410 C   0  0  0  0  0  0  0  0  0  0  0  0
   37.3230   33.8840   39.5560 Cl  0  0  0  0  0  0  0  0  0  0  0  0
   36.5020   31.3200   40.1970 C   0  0  0  0  0  0  0  0  0  0  0  0
   40.0390   30.1730   40.8490 H   0  0  0  0  0  0  0  0  0  0  0  0
   35.4830   31.6700   40.0040 H   0  0  0  0  0  0  0  0  0  0  0  0
   38.8050   26.0040   40.5870 C   0  0  0  0  0  0  0  0  0  0  0  0
   38.8880   25.6180   41.9370 C   0  0  0  0  0  0  0  0  0  0  0  0
   38.6730   26.5890   42.9410 C   0  0  0  0  0  0  0  0  0  0  0  0
   38.3980   27.8510   42.5280 N   0  0  0  0  0  0  0  0  0  0  0  0
   38.3250   28.2010   41.2410 C   0  0  0  0  0  0  0  0  0  0  0  0
   38.5280   27.2820   40.2520 N   0  0  0  0  0  0  0  0  0  0  0  0
   38.9780   25.2190   39.8640 H   0  0  0  0  0  0  0  0  0  0  0  0
   39.1110   24.5950   42.2100 H   0  0  0  0  0  0  0  0  0  0  0  0
   38.7310   26.3170   43.9800 H   0  0  0  0  0  0  0  0  0  0  0  0
   39.9830   32.7240   40.1300 C   0  0  0  0  0  3  0  0  0  0  0  0
   40.5200   32.7440   38.7170 C   0  0  0  0  0  2  0  0  0  0  0  0
   41.4580   33.8970   38.6060 C   0  0  0  0  0  2  0  0  0  0  0  0
   42.4570   34.0540   39.6830 C   0  0  0  0  0  2  0  0  0  0  0  0
   42.0430   33.6060   41.0550 C   0  0  0  0  0  2  0  0  0  0  0  0
   41.1250   32.4120   41.0390 C   0  0  0  0  0  2  0  0  0  0  0  0
  2  1  1  0  0  0  0
  2  3  1  0  0  0  0
  3 15  1  0  0  0  0
  4  3  2  0  0  0  0
  4  9  1  0  0  0  0
  5  4  1  0  0  0  0
  6  8  1  0  0  0  0
  6  5  2  0  0  0  0
  7  6  1  0  0  0  0
  8  2  2  0  0  0  0
 10  8  1  0  0  0  0
 11 12  1  0  0  0  0
 12 18  1  0  0  0  0
 12 13  2  0  0  0  0
 13 19  1  0  0  0  0
 14 13  1  0  0  0  0
 15 14  2  0  0  0  0
 16 11  2  0  0  0  0
 16 15  1  0  0  0  0
 17 11  1  0  0  0  0
 20  5  1  0  0  0  0
 20 25  1  0  0  0  0
 21 20  1  0  0  0  0
 22 21  1  0  0  0  0
 22 23  1  0  0  0  0
 23 24  1  0  0  0  0
 25 24  1  0  0  0  0
M  END
>  <minimizedAffinity>
-4.93353987

$$$$

 OpenBabel03252506033D

 25 27  0  0  0  0  0  0  0  0999 V2000
   36.0450   27.9680   34.9220 Cl  0  0  0  0  0  0  0  0  0  0  0  0
   34.5520   28.5850   35.5470 C   0  0  0  0  0  0  0  0  0  0  0  0
   34.2810   28.5240   36.8920 C   0  0  0  0  0  0  0  0  0  0  0  0
   33.0600   29.0450   37.2920 C   0  0  0  0  0  0  0  0  0  0  0  0
   32.1290   29.6030   36.4430 C   0  0  0  0  0  0  0  0  0  0  0  0
   32.4290   29.6500   35.1040 C   0  0  0  0  0  0  0  0  0  0  0  0
   31.2140   30.3680   34.0740 Cl  0  0  0  0  0  0  0  0  0  0  0  0
   33.6270   29.1460   34.6610 C   0  0  0  0  0  0  0  0  0  0  0  0
   32.8440   28.9980   38.3510 H   0  0  0  0  0  0  0  0  0  0  0  0
   33.8370   29.1970   33.5880 H   0  0  0  0  0  0  0  0  0  0  0  0
   36.7910   28.3240   39.5430 C   0  0  0  0  0  0  0  0  0  0  0  0
   36.9890   26.9380   39.6710 C   0  0  0  0  0  0  0  0  0  0  0  0
   36.2550   26.0630   38.8400 C   0  0  0  0  0  0  0  0  0  0  0  0
   35.3930   26.6280   37.9590 N   0  0  0  0  0  0  0  0  0  0  0  0
   35.2160   27.9480   37.8510 C   0  0  0  0  0  0  0  0  0  0  0  0
   35.9130   28.8150   38.6420 N   0  0  0  0  0  0  0  0  0  0  0  0
   37.3800   28.9450   40.2050 H   0  0  0  0  0  0  0  0  0  0  0  0
   37.6900   26.5410   40.3920 H   0  0  0  0  0  0  0  0  0  0  0  0
   36.3900   24.9990   38.9200 H   0  0  0  0  0  0  0  0  0  0  0  0
   30.8600   30.1250   37.0010 C   0  0  0  0  0  3  0  0  0  0  0  0
   30.6360   31.5780   36.6520 C   0  0  0  0  0  2  0  0  0  0  0  0
   29.2200   31.9090   36.9780 C   0  0  0  0  0  2  0  0  0  0  0  0
   28.7160   31.4730   38.2970 C   0  0  0  0  0  2  0  0  0  0  0  0
   29.2940   30.2020   38.8500 C   0  0  0  0  0  2  0  0  0  0  0  0
   30.7400   29.9960   38.4840 C   0  0  0  0  0  2  0  0  0  0  0  0
  1  2  1  0  0  0  0
  2  3  1  0  0  0  0
  3  4  2  0  0  0  0
  3 15  1  0  0  0  0
  4  9  1  0  0  0  0
  5 20  1  0  0  0  0
  5  4  1  0  0  0  0
  6  5  2  0  0  0  0
  7  6  1  0  0  0  0
  8  6  1  0  0  0  0
  8  2  2  0  0  0  0
 10  8  1  0  0  0  0
 11 12  1  0  0  0  0
 11 17  1  0  0  0  0
 12 18  1  0  0  0  0
 13 19  1  0  0  0  0
 13 12  2  0  0  0  0
 14 13  1  0  0  0  0
 15 14  2  0  0  0  0
 15 16  1  0  0  0  0
 16 11  2  0  0  0  0
 20 25  1  0  0  0  0
 21 22  1  0  0  0  0
 21 20  1  0  0  0  0
 22 23  1  0  0  0  0
 23 24  1  0  0  0  0
 25 24  1  0  0  0  0
M  END
>  <minimizedAffinity>
-4.80728531

$$$$

 OpenBabel03252506033D

 25 27  0  0  0  0  0  0  0  0999 V2000
   37.0370   21.7870   38.9410 Cl  0  0  0  0  0  0  0  0  0  0  0  0
   37.3300   23.2240   39.8610 C   0  0  0  0  0  0  0  0  0  0  0  0
   36.6400   24.3800   39.5880 C   0  0  0  0  0  0  0  0  0  0  0  0
   36.9470   25.4750   40.3800 C   0  0  0  0  0  0  0  0  0  0  0  0
   37.8790   25.4720   41.3970 C   0  0  0  0  0  0  0  0  0  0  0  0
   38.5510   24.3020   41.6450 C   0  0  0  0  0  0  0  0  0  0  0  0
   39.7190   24.3550   42.9440 Cl  0  0  0  0  0  0  0  0  0  0  0  0
   38.2810   23.1910   40.8860 C   0  0  0  0  0  0  0  0  0  0  0  0
   36.4050   26.3870   40.1670 H   0  0  0  0  0  0  0  0  0  0  0  0
   38.8340   22.2730   41.1080 H   0  0  0  0  0  0  0  0  0  0  0  0
   35.0710   25.2850   36.4120 C   0  0  0  0  0  0  0  0  0  0  0  0
   33.8170   24.6560   36.5020 C   0  0  0  0  0  0  0  0  0  0  0  0
   33.5050   23.9150   37.6630 C   0  0  0  0  0  0  0  0  0  0  0  0
   34.4530   23.8580   38.6310 N   0  0  0  0  0  0  0  0  0  0  0  0
   35.6410   24.4600   38.5290 C   0  0  0  0  0  0  0  0  0  0  0  0
   35.9670   25.1830   37.4170 N   0  0  0  0  0  0  0  0  0  0  0  0
   35.2540   25.8380   35.5010 H   0  0  0  0  0  0  0  0  0  0  0  0
   33.0970   24.7350   35.6980 H   0  0  0  0  0  0  0  0  0  0  0  0
   32.5520   23.4260   37.7550 H   0  0  0  0  0  0  0  0  0  0  0  0
   38.1120   26.7140   42.1700 C   0  0  0  0  0  3  0  0  0  0  0  0
   36.8240   27.3290   42.6660 C   0  0  0  0  0  2  0  0  0  0  0  0
   37.1780   28.3660   43.6760 C   0  0  0  0  0  2  0  0  0  0  0  0
   38.2530   29.3140   43.3140 C   0  0  0  0  0  2  0  0  0  0  0  0
   39.3420   28.7870   42.4260 C   0  0  0  0  0  2  0  0  0  0  0  0
   38.8560   27.7720   41.4250 C   0  0  0  0  0  2  0  0  0  0  0  0
  1  2  1  0  0  0  0
  2  8  1  0  0  0  0
  3  2  2  0  0  0  0
  3  4  1  0  0  0  0
  4  5  2  0  0  0  0
  5  6  1  0  0  0  0
  5 20  1  0  0  0  0
  6  7  1  0  0  0  0
  8 10  1  0  0  0  0
  8  6  2  0  0  0  0
  9  4  1  0  0  0  0
 11 12  2  0  0  0  0
 11 16  1  0  0  0  0
 12 13  1  0  0  0  0
 13 19  1  0  0  0  0
 13 14  2  0  0  0  0
 15 14  1  0  0  0  0
 15  3  1  0  0  0  0
 16 15  2  0  0  0  0
 17 11  1  0  0  0  0
 18 12  1  0  0  0  0
 20 21  1  0  0  0  0
 21 22  1  0  0  0  0
 23 22  1  0  0  0  0
 24 23  1  0  0  0  0
 25 20  1  0  0  0  0
 25 24  1  0  0  0  0
M  END
>  <minimizedAffinity>
-4.75376272

$$$$

 OpenBabel03252506033D

 25 27  0  0  0  0  0  0  0  0999 V2000
   34.9350   23.8700   37.1960 Cl  0  0  0  0  0  0  0  0  0  0  0  0
   35.6820   24.8440   38.4170 C   0  0  0  0  0  0  0  0  0  0  0  0
   35.7650   26.2070   38.2680 C   0  0  0  0  0  0  0  0  0  0  0  0
   36.3810   26.8970   39.3000 C   0  0  0  0  0  0  0  0  0  0  0  0
   36.9020   26.3120   40.4350 C   0  0  0  0  0  0  0  0  0  0  0  0
   36.8040   24.9480   40.5540 C   0  0  0  0  0  0  0  0  0  0  0  0
   37.4800   24.2590   42.0110 Cl  0  0  0  0  0  0  0  0  0  0  0  0
   36.2010   24.2220   39.5570 C   0  0  0  0  0  0  0  0  0  0  0  0
   36.4470   27.9700   39.1850 H   0  0  0  0  0  0  0  0  0  0  0  0
   36.1390   23.1360   39.6820 H   0  0  0  0  0  0  0  0  0  0  0  0
   35.6540   27.7490   34.9550 C   0  0  0  0  0  0  0  0  0  0  0  0
   34.3200   28.1860   34.8670 C   0  0  0  0  0  0  0  0  0  0  0  0
   33.4500   27.9510   35.9550 C   0  0  0  0  0  0  0  0  0  0  0  0
   33.9680   27.3070   37.0300 N   0  0  0  0  0  0  0  0  0  0  0  0
   35.2380   26.8970   37.0960 C   0  0  0  0  0  0  0  0  0  0  0  0
   36.0990   27.1120   36.0590 N   0  0  0  0  0  0  0  0  0  0  0  0
   36.2730   27.9560   34.0920 H   0  0  0  0  0  0  0  0  0  0  0  0
   33.9600   28.6960   33.9840 H   0  0  0  0  0  0  0  0  0  0  0  0
   32.4260   28.2770   35.9110 H   0  0  0  0  0  0  0  0  0  0  0  0
   37.5360   27.1660   41.4650 C   0  0  0  0  0  3  0  0  0  0  0  0
   36.5390   27.6730   42.4810 C   0  0  0  0  0  2  0  0  0  0  0  0
   37.3080   28.2410   43.6240 C   0  0  0  0  0  2  0  0  0  0  0  0
   38.4210   29.1570   43.2940 C   0  0  0  0  0  2  0  0  0  0  0  0
   39.1510   28.8900   42.0100 C   0  0  0  0  0  2  0  0  0  0  0  0
   38.2630   28.3510   40.9200 C   0  0  0  0  0  2  0  0  0  0  0  0
  1  2  1  0  0  0  0
  2  8  1  0  0  0  0
  3  2  2  0  0  0  0
  3  4  1  0  0  0  0
  4  5  2  0  0  0  0
  5  6  1  0  0  0  0
  5 20  1  0  0  0  0
  6  7  1  0  0  0  0
  8 10  1  0  0  0  0
  8  6  2  0  0  0  0
  9  4  1  0  0  0  0
 11 16  1  0  0  0  0
 12 11  2  0  0  0  0
 12 13  1  0  0  0  0
 13 14  2  0  0  0  0
 14 15  1  0  0  0  0
 15  3  1  0  0  0  0
 16 15  2  0  0  0  0
 17 11  1  0  0  0  0
 18 12  1  0  0  0  0
 19 13  1  0  0  0  0
 20 21  1  0  0  0  0
 21 22  1  0  0  0  0
 23 22  1  0  0  0  0
 24 23  1  0  0  0  0
 25 20  1  0  0  0  0
 25 24  1  0  0  0  0
M  END
>  <minimizedAffinity>
-4.75016403

$$$$

 OpenBabel03252506033D

 25 27  0  0  0  0  0  0  0  0999 V2000
   38.5040   29.5510   43.1820 Cl  0  0  0  0  0  0  0  0  0  0  0  0
   37.9020   28.4090   42.0280 C   0  0  0  0  0  0  0  0  0  0  0  0
   37.6900   28.7820   40.7230 C   0  0  0  0  0  0  0  0  0  0  0  0
   37.2060   27.7960   39.8780 C   0  0  0  0  0  0  0  0  0  0  0  0
   36.9320   26.4990   40.2600 C   0  0  0  0  0  0  0  0  0  0  0  0
   37.1550   26.1580   41.5700 C   0  0  0  0  0  0  0  0  0  0  0  0
   36.7920   24.5030   41.9990 Cl  0  0  0  0  0  0  0  0  0  0  0  0
   37.6330   27.1020   42.4450 C   0  0  0  0  0  0  0  0  0  0  0  0
   37.0380   28.0870   38.8500 H   0  0  0  0  0  0  0  0  0  0  0  0
   37.8000   26.7980   43.4840 H   0  0  0  0  0  0  0  0  0  0  0  0
   37.1680   32.3240   39.9830 C   0  0  0  0  0  0  0  0  0  0  0  0
   38.3800   32.6900   39.3730 C   0  0  0  0  0  0  0  0  0  0  0  0
   39.3870   31.7120   39.2110 C   0  0  0  0  0  0  0  0  0  0  0  0
   39.1120   30.4640   39.6660 N   0  0  0  0  0  0  0  0  0  0  0  0
   37.9550   30.1340   40.2450 C   0  0  0  0  0  0  0  0  0  0  0  0
   36.9660   31.0600   40.4120 N   0  0  0  0  0  0  0  0  0  0  0  0
   36.4340   33.1140   40.0800 H   0  0  0  0  0  0  0  0  0  0  0  0
   38.5460   33.7020   39.0280 H   0  0  0  0  0  0  0  0  0  0  0  0
   40.3220   31.9680   38.7460 H   0  0  0  0  0  0  0  0  0  0  0  0
   36.4180   25.5410   39.2550 C   0  0  0  0  0  3  0  0  0  0  0  0
   37.5250   24.7410   38.6080 C   0  0  0  0  0  2  0  0  0  0  0  0
   36.8950   23.6120   37.8670 C   0  0  0  0  0  2  0  0  0  0  0  0
   35.7410   23.9400   37.0030 C   0  0  0  0  0  2  0  0  0  0  0  0
   34.8630   25.0710   37.4550 C   0  0  0  0  0  2  0  0  0  0  0  0
   35.6190   26.1670   38.1600 C   0  0  0  0  0  2  0  0  0  0  0  0
  2  8  1  0  0  0  0
  2  1  1  0  0  0  0
  3  2  2  0  0  0  0
  4  5  2  0  0  0  0
  4  3  1  0  0  0  0
  5  6  1  0  0  0  0
  6  7  1  0  0  0  0
  6  8  2  0  0  0  0
  8 10  1  0  0  0  0
  9  4  1  0  0  0  0
 11 17  1  0  0  0  0
 11 16  1  0  0  0  0
 12 11  2  0  0  0  0
 13 12  1  0  0  0  0
 13 14  2  0  0  0  0
 14 15  1  0  0  0  0
 15 16  2  0  0  0  0
 15  3  1  0  0  0  0
 18 12  1  0  0  0  0
 19 13  1  0  0  0  0
 20  5  1  0  0  0  0
 21 20  1  0  0  0  0
 22 21  1  0  0  0  0
 23 24  1  0  0  0  0
 23 22  1  0  0  0  0
 24 25  1  0  0  0  0
 25 20  1  0  0  0  0
M  END
>  <minimizedAffinity>
-4.73763466

$$$$
