
 OpenBabel03252501093D

 37 40  0  0  1  0  0  0  0  0999 V2000
   34.4770   29.2550   39.8410 O   0  0  0  0  0  0  0  0  0  0  0  0
   35.8040   29.4860   40.5650 P   0  0  2  0  0  0  0  0  0  0  0  0
   35.6280   30.9760   41.3540 O   0  0  0  0  0  0  0  0  0  0  0  0
   35.0700   31.6050   40.8170 H   0  0  0  0  0  0  0  0  0  0  0  0
   37.0870   29.3870   39.5570 O   0  0  0  0  0  0  0  0  0  0  0  0
   37.2200   30.7200   37.5410 C   0  0  1  0  0  0  0  0  0  0  0  0
   38.0650   29.5540   37.2590 C   0  0  0  0  0  0  0  0  0  0  0  0
   36.8740   29.4770   38.2310 C   0  0  1  0  0  0  0  0  0  0  0  0
   36.5020   31.1400   36.7950 H   0  0  0  0  0  0  0  0  0  0  0  0
   37.9490   29.0820   36.2590 H   0  0  0  0  0  0  0  0  0  0  0  0
   39.0610   29.4360   37.7240 H   0  0  0  0  0  0  0  0  0  0  0  0
   36.0840   28.8170   37.8270 H   0  0  0  0  0  0  0  0  0  0  0  0
   39.8440   32.8520   39.2500 C   0  0  0  0  0  0  0  0  0  0  0  0
   39.2640   31.8670   38.4590 C   0  0  0  0  0  0  0  0  0  0  0  0
   37.8600   31.7920   38.3790 C   0  0  0  0  0  0  0  0  0  0  0  0
   37.1080   32.6790   39.0730 N   0  0  0  0  0  0  0  0  0  0  0  0
   37.6990   33.6340   39.8410 C   0  0  0  0  0  0  0  0  0  0  0  0
   39.0590   33.7200   39.9290 N   0  0  0  0  0  0  0  0  0  0  0  0
   40.9070   32.9570   39.3480 H   0  0  0  0  0  0  0  0  0  0  0  0
   39.9130   31.2040   37.9380 H   0  0  0  0  0  0  0  0  0  0  0  0
   37.0800   34.3260   40.3830 H   0  0  0  0  0  0  0  0  0  0  0  0
   35.8640   28.2920   41.7450 O   0  0  0  0  0  0  0  0  0  0  0  0
   37.0290   27.7470   42.2420 C   0  0  0  0  0  0  0  0  0  0  0  0
   37.9140   28.2780   43.1540 C   0  0  0  0  0  0  0  0  0  0  0  0
   39.0310   27.6180   43.5500 C   0  0  0  0  0  0  0  0  0  0  0  0
   39.3090   26.3770   43.0390 C   0  0  0  0  0  0  0  0  0  0  0  0
   38.4000   25.8430   42.1090 C   0  0  0  0  0  0  0  0  0  0  0  0
   37.2920   26.5430   41.7410 N   0  0  0  0  0  0  0  0  0  0  0  0
   37.6320   29.2680   43.5200 H   0  0  0  0  0  0  0  0  0  0  0  0
   39.7030   28.0780   44.2760 H   0  0  0  0  0  0  0  0  0  0  0  0
   40.2060   25.9050   43.3900 H   0  0  0  0  0  0  0  0  0  0  0  0
   38.7250   24.4820   41.5630 C   0  0  0  0  0  3  0  0  0  0  0  0
   37.4960   23.7210   41.1940 C   0  0  0  0  0  2  0  0  0  0  0  0
   37.7030   22.5130   40.3720 C   0  0  0  0  0  2  0  0  0  0  0  0
   38.8400   22.5990   39.3940 C   0  0  0  0  0  2  0  0  0  0  0  0
   39.0440   24.1080   39.1840 C   0  0  0  0  0  2  0  0  0  0  0  0
   39.7090   24.5710   40.4570 C   0  0  0  0  0  2  0  0  0  0  0  0
  2  1  2  6  0  0  0
  2  3  1  0  0  0  0
  2 22  1  0  0  0  0
  4  3  1  0  0  0  0
  5  2  1  0  0  0  0
  6  9  1  6  0  0  0
  6  8  1  0  0  0  0
  6 15  1  0  0  0  0
  7  6  1  0  0  0  0
  7 11  1  0  0  0  0
  7  8  1  0  0  0  0
  8 12  1  6  0  0  0
  8  5  1  0  0  0  0
 10  7  1  0  0  0  0
 13 19  1  0  0  0  0
 13 18  1  0  0  0  0
 14 13  2  0  0  0  0
 15 14  1  0  0  0  0
 15 16  2  0  0  0  0
 16 17  1  0  0  0  0
 17 18  2  0  0  0  0
 17 21  1  0  0  0  0
 20 14  1  0  0  0  0
 22 23  1  0  0  0  0
 23 24  1  0  0  0  0
 24 29  1  0  0  0  0
 24 25  2  0  0  0  0
 25 30  1  0  0  0  0
 26 31  1  0  0  0  0
 26 25  1  0  0  0  0
 27 26  2  0  0  0  0
 28 27  1  0  0  0  0
 28 23  2  0  0  0  0
 32 27  1  0  0  0  0
 33 32  1  0  0  0  0
 34 33  1  0  0  0  0
 35 34  1  0  0  0  0
 36 35  1  0  0  0  0
 36 37  1  0  0  0  0
 37 32  1  0  0  0  0
M  END
>  <minimizedAffinity>
-6.42373323

$$$$

 OpenBabel03252501093D

 37 40  0  0  1  0  0  0  0  0999 V2000
   36.6080   29.9650   39.0600 O   0  0  0  0  0  0  0  0  0  0  0  0
   35.7740   28.8330   39.6610 P   0  0  2  0  0  0  0  0  0  0  0  0
   34.4110   29.5890   40.3270 O   0  0  0  0  0  0  0  0  0  0  0  0
   34.6400   30.4860   40.6970 H   0  0  0  0  0  0  0  0  0  0  0  0
   36.6340   27.9170   40.7060 O   0  0  0  0  0  0  0  0  0  0  0  0
   36.8440   27.0000   42.9360 C   0  0  1  0  0  0  0  0  0  0  0  0
   37.5830   28.2660   42.9970 C   0  0  0  0  0  0  0  0  0  0  0  0
   36.4060   28.0580   42.0260 C   0  0  1  0  0  0  0  0  0  0  0  0
   36.1520   26.6640   43.7470 H   0  0  0  0  0  0  0  0  0  0  0  0
   37.4090   28.9040   43.8900 H   0  0  0  0  0  0  0  0  0  0  0  0
   38.5720   28.3810   42.5180 H   0  0  0  0  0  0  0  0  0  0  0  0
   35.5560   28.7100   42.2980 H   0  0  0  0  0  0  0  0  0  0  0  0
   37.5770   23.6470   41.3320 C   0  0  0  0  0  0  0  0  0  0  0  0
   36.8780   24.7100   41.8900 C   0  0  0  0  0  0  0  0  0  0  0  0
   37.5870   25.8500   42.3150 C   0  0  0  0  0  0  0  0  0  0  0  0
   38.9340   25.8840   42.1700 N   0  0  0  0  0  0  0  0  0  0  0  0
   39.5960   24.8300   41.6200 C   0  0  0  0  0  0  0  0  0  0  0  0
   38.9220   23.7180   41.2050 N   0  0  0  0  0  0  0  0  0  0  0  0
   37.0890   22.7540   40.9920 H   0  0  0  0  0  0  0  0  0  0  0  0
   35.8200   24.6190   41.9730 H   0  0  0  0  0  0  0  0  0  0  0  0
   40.6650   24.8810   41.5170 H   0  0  0  0  0  0  0  0  0  0  0  0
   35.2600   27.9300   38.3410 O   0  0  0  0  0  0  0  0  0  0  0  0
   34.5750   28.4500   37.2620 C   0  0  0  0  0  0  0  0  0  0  0  0
   35.0220   28.6780   35.9800 C   0  0  0  0  0  0  0  0  0  0  0  0
   34.2230   29.2010   35.0160 C   0  0  0  0  0  0  0  0  0  0  0  0
   32.9230   29.5230   35.3050 C   0  0  0  0  0  0  0  0  0  0  0  0
   32.4760   29.2860   36.6170 C   0  0  0  0  0  0  0  0  0  0  0  0
   33.3130   28.7590   37.5520 N   0  0  0  0  0  0  0  0  0  0  0  0
   36.0660   28.4000   35.8190 H   0  0  0  0  0  0  0  0  0  0  0  0
   34.6220   29.3640   34.0130 H   0  0  0  0  0  0  0  0  0  0  0  0
   32.3420   29.9320   34.5020 H   0  0  0  0  0  0  0  0  0  0  0  0
   31.0470   29.6440   36.9100 C   0  0  0  0  0  3  0  0  0  0  0  0
   30.8340   29.9520   38.3540 C   0  0  0  0  0  2  0  0  0  0  0  0
   29.5580   30.6080   38.6970 C   0  0  0  0  0  2  0  0  0  0  0  0
   29.0310   31.5530   37.6550 C   0  0  0  0  0  2  0  0  0  0  0  0
   30.2730   31.9470   36.8390 C   0  0  0  0  0  2  0  0  0  0  0  0
   30.5710   30.7220   36.0090 C   0  0  0  0  0  2  0  0  0  0  0  0
  2  1  2  6  0  0  0
  2  3  1  0  0  0  0
  2  5  1  0  0  0  0
  3  4  1  0  0  0  0
  5  8  1  0  0  0  0
  6  7  1  0  0  0  0
  6  9  1  1  0  0  0
  7 10  1  0  0  0  0
  8 12  1  1  0  0  0
  8  6  1  0  0  0  0
  8  7  1  0  0  0  0
 11  7  1  0  0  0  0
 13 14  1  0  0  0  0
 14 20  1  0  0  0  0
 14 15  2  0  0  0  0
 15  6  1  0  0  0  0
 16 15  1  0  0  0  0
 17 16  2  0  0  0  0
 18 13  2  0  0  0  0
 18 17  1  0  0  0  0
 19 13  1  0  0  0  0
 21 17  1  0  0  0  0
 22  2  1  0  0  0  0
 23 28  1  0  0  0  0
 23 22  1  0  0  0  0
 24 23  2  0  0  0  0
 25 26  2  0  0  0  0
 25 24  1  0  0  0  0
 26 27  1  0  0  0  0
 27 32  1  0  0  0  0
 27 28  2  0  0  0  0
 29 24  1  0  0  0  0
 30 25  1  0  0  0  0
 31 26  1  0  0  0  0
 32 33  1  0  0  0  0
 33 34  1  0  0  0  0
 35 34  1  0  0  0  0
 36 35  1  0  0  0  0
 37 36  1  0  0  0  0
 37 32  1  0  0  0  0
M  END
>  <minimizedAffinity>
-6.08541107

$$$$

 OpenBabel03252501093D

 37 40  0  0  1  0  0  0  0  0999 V2000
   37.1730   31.3230   38.2820 O   0  0  0  0  0  0  0  0  0  0  0  0
   37.1980   31.1790   39.8040 P   0  0  2  0  0  0  0  0  0  0  0  0
   36.7070   32.6880   40.4020 O   0  0  0  0  0  0  0  0  0  0  0  0
   37.0320   33.4300   39.8200 H   0  0  0  0  0  0  0  0  0  0  0  0
   38.6470   30.6590   40.3550 O   0  0  0  0  0  0  0  0  0  0  0  0
   39.5880   30.9320   42.5680 C   0  0  1  0  0  0  0  0  0  0  0  0
   40.7430   31.0370   41.6700 C   0  0  0  0  0  0  0  0  0  0  0  0
   39.3260   31.4350   41.2190 C   0  0  1  0  0  0  0  0  0  0  0  0
   39.4340   31.6160   43.4380 H   0  0  0  0  0  0  0  0  0  0  0  0
   41.4680   31.8540   41.8800 H   0  0  0  0  0  0  0  0  0  0  0  0
   41.1650   30.1490   41.1650 H   0  0  0  0  0  0  0  0  0  0  0  0
   39.2680   32.5230   41.0330 H   0  0  0  0  0  0  0  0  0  0  0  0
   39.6120   27.1840   43.1160 C   0  0  0  0  0  0  0  0  0  0  0  0
   40.0560   28.4760   42.8620 C   0  0  0  0  0  0  0  0  0  0  0  0
   39.1240   29.5320   42.8590 C   0  0  0  0  0  0  0  0  0  0  0  0
   37.8190   29.2640   43.1040 N   0  0  0  0  0  0  0  0  0  0  0  0
   37.4090   27.9900   43.3500 C   0  0  0  0  0  0  0  0  0  0  0  0
   38.3010   26.9560   43.3560 N   0  0  0  0  0  0  0  0  0  0  0  0
   40.2770   26.3410   43.1300 H   0  0  0  0  0  0  0  0  0  0  0  0
   41.0950   28.6170   42.6790 H   0  0  0  0  0  0  0  0  0  0  0  0
   36.3680   27.8040   43.5410 H   0  0  0  0  0  0  0  0  0  0  0  0
   35.9810   30.0750   40.1530 O   0  0  0  0  0  0  0  0  0  0  0  0
   35.6550   28.9990   39.3540 C   0  0  0  0  0  0  0  0  0  0  0  0
   34.7020   28.9120   38.3640 C   0  0  0  0  0  0  0  0  0  0  0  0
   34.4920   27.7730   37.6570 C   0  0  0  0  0  0  0  0  0  0  0  0
   35.2440   26.6570   37.9190 C   0  0  0  0  0  0  0  0  0  0  0  0
   36.2140   26.7560   38.9310 C   0  0  0  0  0  0  0  0  0  0  0  0
   36.3890   27.9200   39.6150 N   0  0  0  0  0  0  0  0  0  0  0  0
   34.1400   29.8360   38.2070 H   0  0  0  0  0  0  0  0  0  0  0  0
   33.7260   27.7520   36.8810 H   0  0  0  0  0  0  0  0  0  0  0  0
   35.0320   25.7890   37.3270 H   0  0  0  0  0  0  0  0  0  0  0  0
   37.0260   25.5220   39.2010 C   0  0  0  0  0  3  0  0  0  0  0  0
   38.2830   25.8310   39.9410 C   0  0  0  0  0  2  0  0  0  0  0  0
   38.9950   24.6760   40.5230 C   0  0  0  0  0  2  0  0  0  0  0  0
   38.1100   23.5630   41.0040 C   0  0  0  0  0  2  0  0  0  0  0  0
   36.7510   24.2380   41.2460 C   0  0  0  0  0  2  0  0  0  0  0  0
   36.2050   24.4760   39.8580 C   0  0  0  0  0  2  0  0  0  0  0  0
  2  1  2  6  0  0  0
  2 22  1  0  0  0  0
  2  5  1  0  0  0  0
  2  3  1  0  0  0  0
  4  3  1  0  0  0  0
  5  8  1  0  0  0  0
  6 15  1  0  0  0  0
  6  9  1  1  0  0  0
  7 10  1  0  0  0  0
  7  6  1  0  0  0  0
  8 12  1  6  0  0  0
  8  7  1  0  0  0  0
  8  6  1  0  0  0  0
 11  7  1  0  0  0  0
 13 19  1  0  0  0  0
 13 18  1  0  0  0  0
 14 13  2  0  0  0  0
 15 14  1  0  0  0  0
 15 16  2  0  0  0  0
 16 17  1  0  0  0  0
 17 18  2  0  0  0  0
 17 21  1  0  0  0  0
 20 14  1  0  0  0  0
 23 28  1  0  0  0  0
 23 22  1  0  0  0  0
 24 23  2  0  0  0  0
 25 26  2  0  0  0  0
 25 24  1  0  0  0  0
 26 27  1  0  0  0  0
 27 32  1  0  0  0  0
 27 28  2  0  0  0  0
 29 24  1  0  0  0  0
 30 25  1  0  0  0  0
 31 26  1  0  0  0  0
 32 37  1  0  0  0  0
 32 33  1  0  0  0  0
 33 34  1  0  0  0  0
 34 35  1  0  0  0  0
 35 36  1  0  0  0  0
 37 36  1  0  0  0  0
M  END
>  <minimizedAffinity>
-5.83255863

$$$$

 OpenBabel03252501093D

 37 40  0  0  1  0  0  0  0  0999 V2000
   37.3670   31.7690   38.2560 O   0  0  0  0  0  0  0  0  0  0  0  0
   37.6680   32.8060   39.3380 P   0  0  2  0  0  0  0  0  0  0  0  0
   36.7340   34.1600   38.9280 O   0  0  0  0  0  0  0  0  0  0  0  0
   36.6620   34.2640   37.9390 H   0  0  0  0  0  0  0  0  0  0  0  0
   39.2690   33.0960   39.4930 O   0  0  0  0  0  0  0  0  0  0  0  0
   40.6920   31.5690   40.7190 C   0  0  1  0  0  0  0  0  0  0  0  0
   41.4060   32.8490   40.7750 C   0  0  0  0  0  0  0  0  0  0  0  0
   39.8720   32.7790   40.6540 C   0  0  1  0  0  0  0  0  0  0  0  0
   40.5890   30.8950   41.6040 H   0  0  0  0  0  0  0  0  0  0  0  0
   41.8340   33.1410   41.7580 H   0  0  0  0  0  0  0  0  0  0  0  0
   41.9290   33.2580   39.8910 H   0  0  0  0  0  0  0  0  0  0  0  0
   39.3920   33.1750   41.5670 H   0  0  0  0  0  0  0  0  0  0  0  0
   40.2330   28.9360   38.0340 C   0  0  0  0  0  0  0  0  0  0  0  0
   40.0680   29.6480   39.2160 C   0  0  0  0  0  0  0  0  0  0  0  0
   40.8480   30.8000   39.4360 C   0  0  0  0  0  0  0  0  0  0  0  0
   41.7400   31.1870   38.4930 N   0  0  0  0  0  0  0  0  0  0  0  0
   41.8830   30.4730   37.3440 C   0  0  0  0  0  0  0  0  0  0  0  0
   41.1350   29.3540   37.1160 N   0  0  0  0  0  0  0  0  0  0  0  0
   39.6670   28.0520   37.8120 H   0  0  0  0  0  0  0  0  0  0  0  0
   39.3480   29.2910   39.9140 H   0  0  0  0  0  0  0  0  0  0  0  0
   42.5990   30.8000   36.6110 H   0  0  0  0  0  0  0  0  0  0  0  0
   37.0270   32.1560   40.7480 O   0  0  0  0  0  0  0  0  0  0  0  0
   36.7650   30.8160   40.9370 C   0  0  0  0  0  0  0  0  0  0  0  0
   35.7790   30.0370   40.3730 C   0  0  0  0  0  0  0  0  0  0  0  0
   35.6430   28.7180   40.6600 C   0  0  0  0  0  0  0  0  0  0  0  0
   36.5050   28.1170   41.5400 C   0  0  0  0  0  0  0  0  0  0  0  0
   37.5080   28.9200   42.1100 C   0  0  0  0  0  0  0  0  0  0  0  0
   37.6060   30.2400   41.7930 N   0  0  0  0  0  0  0  0  0  0  0  0
   35.1280   30.5790   39.6830 H   0  0  0  0  0  0  0  0  0  0  0  0
   34.8460   28.1410   40.1870 H   0  0  0  0  0  0  0  0  0  0  0  0
   36.3470   27.0730   41.7260 H   0  0  0  0  0  0  0  0  0  0  0  0
   38.4420   28.2390   43.0700 C   0  0  0  0  0  3  0  0  0  0  0  0
   38.3550   26.7530   42.9740 C   0  0  0  0  0  2  0  0  0  0  0  0
   39.4330   25.9950   43.6390 C   0  0  0  0  0  2  0  0  0  0  0  0
   40.7800   26.6590   43.6190 C   0  0  0  0  0  2  0  0  0  0  0  0
   40.7050   27.6300   42.4290 C   0  0  0  0  0  2  0  0  0  0  0  0
   39.8260   28.7520   42.9240 C   0  0  0  0  0  2  0  0  0  0  0  0
  2  1  2  6  0  0  0
  2  5  1  0  0  0  0
  2 22  1  0  0  0  0
  3  2  1  0  0  0  0
  4  3  1  0  0  0  0
  5  8  1  0  0  0  0
  6  7  1  0  0  0  0
  6  9  1  1  0  0  0
  7 10  1  0  0  0  0
  8  6  1  0  0  0  0
  8  7  1  0  0  0  0
  8 12  1  1  0  0  0
 11  7  1  0  0  0  0
 13 14  1  0  0  0  0
 14 15  2  0  0  0  0
 14 20  1  0  0  0  0
 15  6  1  0  0  0  0
 16 15  1  0  0  0  0
 17 16  2  0  0  0  0
 18 17  1  0  0  0  0
 18 13  2  0  0  0  0
 19 13  1  0  0  0  0
 21 17  1  0  0  0  0
 22 23  1  0  0  0  0
 23 28  1  0  0  0  0
 24 25  1  0  0  0  0
 24 23  2  0  0  0  0
 25 26  2  0  0  0  0
 26 31  1  0  0  0  0
 26 27  1  0  0  0  0
 27 32  1  0  0  0  0
 28 27  2  0  0  0  0
 29 24  1  0  0  0  0
 30 25  1  0  0  0  0
 33 32  1  0  0  0  0
 33 34  1  0  0  0  0
 35 34  1  0  0  0  0
 36 37  1  0  0  0  0
 36 35  1  0  0  0  0
 37 32  1  0  0  0  0
M  END
>  <minimizedAffinity>
-5.81362534

$$$$

 OpenBabel03252501093D

 37 40  0  0  1  0  0  0  0  0999 V2000
   37.8190   29.1150   38.7240 O   0  0  0  0  0  0  0  0  0  0  0  0
   36.6650   30.0970   38.9300 P   0  0  2  0  0  0  0  0  0  0  0  0
   35.4730   29.6230   37.8220 O   0  0  0  0  0  0  0  0  0  0  0  0
   35.8800   29.2750   36.9800 H   0  0  0  0  0  0  0  0  0  0  0  0
   37.1450   31.6540   38.8000 O   0  0  0  0  0  0  0  0  0  0  0  0
   38.3420   32.7860   40.5750 C   0  0  1  0  0  0  0  0  0  0  0  0
   37.6660   33.8670   39.8500 C   0  0  0  0  0  0  0  0  0  0  0  0
   37.0940   32.4380   39.8930 C   0  0  1  0  0  0  0  0  0  0  0  0
   38.3790   32.7360   41.6900 H   0  0  0  0  0  0  0  0  0  0  0  0
   37.1630   34.6440   40.4650 H   0  0  0  0  0  0  0  0  0  0  0  0
   38.0150   34.2030   38.8560 H   0  0  0  0  0  0  0  0  0  0  0  0
   36.1420   32.4170   40.4540 H   0  0  0  0  0  0  0  0  0  0  0  0
   41.3750   30.6410   39.8310 C   0  0  0  0  0  0  0  0  0  0  0  0
   40.1940   31.0890   40.4120 C   0  0  0  0  0  0  0  0  0  0  0  0
   39.6090   32.2810   39.9430 C   0  0  0  0  0  0  0  0  0  0  0  0
   40.2100   32.9630   38.9380 N   0  0  0  0  0  0  0  0  0  0  0  0
   41.3660   32.5040   38.3860 C   0  0  0  0  0  0  0  0  0  0  0  0
   41.9450   31.3500   38.8300 N   0  0  0  0  0  0  0  0  0  0  0  0
   41.8640   29.7400   40.1470 H   0  0  0  0  0  0  0  0  0  0  0  0
   39.7740   30.5030   41.1950 H   0  0  0  0  0  0  0  0  0  0  0  0
   41.8230   33.0640   37.5900 H   0  0  0  0  0  0  0  0  0  0  0  0
   36.0870   29.7650   40.4710 O   0  0  0  0  0  0  0  0  0  0  0  0
   36.7600   29.0110   41.4090 C   0  0  0  0  0  0  0  0  0  0  0  0
   37.5330   29.4320   42.4680 C   0  0  0  0  0  0  0  0  0  0  0  0
   38.1410   28.5620   43.3140 C   0  0  0  0  0  0  0  0  0  0  0  0
   37.9950   27.2120   43.1280 C   0  0  0  0  0  0  0  0  0  0  0  0
   37.2030   26.7920   42.0450 C   0  0  0  0  0  0  0  0  0  0  0  0
   36.6130   27.7010   41.2210 N   0  0  0  0  0  0  0  0  0  0  0  0
   37.6070   30.5180   42.5570 H   0  0  0  0  0  0  0  0  0  0  0  0
   38.7430   28.9430   44.1400 H   0  0  0  0  0  0  0  0  0  0  0  0
   38.4980   26.5760   43.8290 H   0  0  0  0  0  0  0  0  0  0  0  0
   37.0570   25.3090   41.8610 C   0  0  0  0  0  3  0  0  0  0  0  0
   36.6250   24.9570   40.4780 C   0  0  0  0  0  2  0  0  0  0  0  0
   36.7480   23.5360   40.1000 C   0  0  0  0  0  2  0  0  0  0  0  0
   37.9130   22.8150   40.7150 C   0  0  0  0  0  2  0  0  0  0  0  0
   38.9020   23.9350   41.0770 C   0  0  0  0  0  2  0  0  0  0  0  0
   38.2850   24.5940   42.2870 C   0  0  0  0  0  2  0  0  0  0  0  0
  2  1  2  6  0  0  0
  2 22  1  0  0  0  0
  3  2  1  0  0  0  0
  4  3  1  0  0  0  0
  5  2  1  0  0  0  0
  5  8  1  0  0  0  0
  6  9  1  1  0  0  0
  7  8  1  0  0  0  0
  7 10  1  0  0  0  0
  7  6  1  0  0  0  0
  8 12  1  1  0  0  0
  8  6  1  0  0  0  0
 11  7  1  0  0  0  0
 13 19  1  0  0  0  0
 13 14  1  0  0  0  0
 14 20  1  0  0  0  0
 15 14  2  0  0  0  0
 15  6  1  0  0  0  0
 16 15  1  0  0  0  0
 17 18  1  0  0  0  0
 17 16  2  0  0  0  0
 18 13  2  0  0  0  0
 21 17  1  0  0  0  0
 22 23  1  0  0  0  0
 23 24  1  0  0  0  0
 24 29  1  0  0  0  0
 24 25  2  0  0  0  0
 25 30  1  0  0  0  0
 26 25  1  0  0  0  0
 26 31  1  0  0  0  0
 27 26  2  0  0  0  0
 28 23  2  0  0  0  0
 28 27  1  0  0  0  0
 32 27  1  0  0  0  0
 32 37  1  0  0  0  0
 33 32  1  0  0  0  0
 34 33  1  0  0  0  0
 34 35  1  0  0  0  0
 35 36  1  0  0  0  0
 36 37  1  0  0  0  0
M  END
>  <minimizedAffinity>
-5.75365639

$$$$

 OpenBabel03252501093D

 37 40  0  0  1  0  0  0  0  0999 V2000
   35.1020   28.8900   40.3030 O   0  0  0  0  0  0  0  0  0  0  0  0
   36.2800   29.6320   40.9350 P   0  0  2  0  0  0  0  0  0  0  0  0
   35.6980   31.1870   41.2740 O   0  0  0  0  0  0  0  0  0  0  0  0
   35.0450   31.4870   40.5820 H   0  0  0  0  0  0  0  0  0  0  0  0
   37.6180   29.5870   39.9960 O   0  0  0  0  0  0  0  0  0  0  0  0
   39.1420   31.3960   39.4840 C   0  0  1  0  0  0  0  0  0  0  0  0
   39.0890   30.6090   38.2470 C   0  0  0  0  0  0  0  0  0  0  0  0
   37.9050   30.6560   39.2300 C   0  0  1  0  0  0  0  0  0  0  0  0
   39.1100   32.5130   39.4920 H   0  0  0  0  0  0  0  0  0  0  0  0
   38.9930   31.1780   37.2960 H   0  0  0  0  0  0  0  0  0  0  0  0
   39.5920   29.6290   38.1630 H   0  0  0  0  0  0  0  0  0  0  0  0
   37.0370   31.1640   38.7720 H   0  0  0  0  0  0  0  0  0  0  0  0
   40.8600   30.9100   42.8250 C   0  0  0  0  0  0  0  0  0  0  0  0
   40.0130   31.4160   41.8450 C   0  0  0  0  0  0  0  0  0  0  0  0
   40.0400   30.8470   40.5570 C   0  0  0  0  0  0  0  0  0  0  0  0
   40.8870   29.8210   40.3040 N   0  0  0  0  0  0  0  0  0  0  0  0
   41.7070   29.3440   41.2800 C   0  0  0  0  0  0  0  0  0  0  0  0
   41.6930   29.8850   42.5330 N   0  0  0  0  0  0  0  0  0  0  0  0
   40.8820   31.3040   43.8230 H   0  0  0  0  0  0  0  0  0  0  0  0
   39.3700   32.2210   42.1120 H   0  0  0  0  0  0  0  0  0  0  0  0
   42.3710   28.5290   41.0530 H   0  0  0  0  0  0  0  0  0  0  0  0
   36.5410   28.8570   42.4020 O   0  0  0  0  0  0  0  0  0  0  0  0
   37.4740   27.8610   42.6010 C   0  0  0  0  0  0  0  0  0  0  0  0
   38.6960   27.9310   43.2320 C   0  0  0  0  0  0  0  0  0  0  0  0
   39.5150   26.8560   43.3500 C   0  0  0  0  0  0  0  0  0  0  0  0
   39.1340   25.6460   42.8310 C   0  0  0  0  0  0  0  0  0  0  0  0
   37.8840   25.5840   42.1890 C   0  0  0  0  0  0  0  0  0  0  0  0
   37.0960   26.6900   42.0940 N   0  0  0  0  0  0  0  0  0  0  0  0
   38.9370   28.9240   43.6220 H   0  0  0  0  0  0  0  0  0  0  0  0
   40.4740   26.9600   43.8600 H   0  0  0  0  0  0  0  0  0  0  0  0
   39.8220   24.8340   42.9560 H   0  0  0  0  0  0  0  0  0  0  0  0
   37.4880   24.2490   41.6290 C   0  0  0  0  0  3  0  0  0  0  0  0
   36.3860   24.3670   40.6300 C   0  0  0  0  0  2  0  0  0  0  0  0
   36.1310   23.1750   39.7990 C   0  0  0  0  0  2  0  0  0  0  0  0
   37.3500   22.3660   39.4600 C   0  0  0  0  0  2  0  0  0  0  0  0
   38.5150   23.3570   39.6150 C   0  0  0  0  0  2  0  0  0  0  0  0
   38.6670   23.5150   41.1090 C   0  0  0  0  0  2  0  0  0  0  0  0
  2  1  2  6  0  0  0
  2  3  1  0  0  0  0
  2 22  1  0  0  0  0
  4  3  1  0  0  0  0
  5  2  1  0  0  0  0
  6  9  1  6  0  0  0
  6 15  1  0  0  0  0
  7  8  1  0  0  0  0
  7  6  1  0  0  0  0
  8 12  1  6  0  0  0
  8  6  1  0  0  0  0
  8  5  1  0  0  0  0
 10  7  1  0  0  0  0
 11  7  1  0  0  0  0
 13 19  1  0  0  0  0
 14 20  1  0  0  0  0
 14 13  2  0  0  0  0
 15 14  1  0  0  0  0
 16 15  2  0  0  0  0
 16 17  1  0  0  0  0
 17 18  2  0  0  0  0
 18 13  1  0  0  0  0
 21 17  1  0  0  0  0
 22 23  1  0  0  0  0
 23 24  1  0  0  0  0
 24 25  2  0  0  0  0
 24 29  1  0  0  0  0
 25 30  1  0  0  0  0
 26 31  1  0  0  0  0
 26 25  1  0  0  0  0
 27 26  2  0  0  0  0
 28 27  1  0  0  0  0
 28 23  2  0  0  0  0
 32 27  1  0  0  0  0
 33 32  1  0  0  0  0
 34 33  1  0  0  0  0
 35 36  1  0  0  0  0
 35 34  1  0  0  0  0
 36 37  1  0  0  0  0
 37 32  1  0  0  0  0
M  END
>  <minimizedAffinity>
-5.61955166

$$$$

 OpenBabel03252501093D

 37 40  0  0  1  0  0  0  0  0999 V2000
   41.4390   31.5340   41.6360 O   0  0  0  0  0  0  0  0  0  0  0  0
   40.1740   30.7190   41.3660 P   0  0  2  0  0  0  0  0  0  0  0  0
   40.5580   29.7230   40.0500 O   0  0  0  0  0  0  0  0  0  0  0  0
   41.1740   30.1840   39.4150 H   0  0  0  0  0  0  0  0  0  0  0  0
   38.8590   31.6660   41.1530 O   0  0  0  0  0  0  0  0  0  0  0  0
   37.8590   31.6870   38.9490 C   0  0  1  0  0  0  0  0  0  0  0  0
   37.3380   32.8980   39.5930 C   0  0  0  0  0  0  0  0  0  0  0  0
   38.7040   32.2990   39.9760 C   0  0  1  0  0  0  0  0  0  0  0  0
   38.2200   31.6710   37.8920 H   0  0  0  0  0  0  0  0  0  0  0  0
   37.3340   33.8270   38.9820 H   0  0  0  0  0  0  0  0  0  0  0  0
   36.5650   32.8480   40.3810 H   0  0  0  0  0  0  0  0  0  0  0  0
   39.5240   32.9810   39.6870 H   0  0  0  0  0  0  0  0  0  0  0  0
   35.3500   29.2680   40.4340 C   0  0  0  0  0  0  0  0  0  0  0  0
   35.9710   30.4570   40.0730 C   0  0  0  0  0  0  0  0  0  0  0  0
   37.1670   30.4080   39.3310 C   0  0  0  0  0  0  0  0  0  0  0  0
   37.6830   29.2040   38.9860 N   0  0  0  0  0  0  0  0  0  0  0  0
   37.0560   28.0530   39.3520 C   0  0  0  0  0  0  0  0  0  0  0  0
   35.8960   28.0850   40.0720 N   0  0  0  0  0  0  0  0  0  0  0  0
   34.4380   29.2450   41.0000 H   0  0  0  0  0  0  0  0  0  0  0  0
   35.5110   31.3690   40.3750 H   0  0  0  0  0  0  0  0  0  0  0  0
   37.4860   27.1100   39.0660 H   0  0  0  0  0  0  0  0  0  0  0  0
   40.0020   29.7320   42.7150 O   0  0  0  0  0  0  0  0  0  0  0  0
   39.0190   28.7760   42.8590 C   0  0  0  0  0  0  0  0  0  0  0  0
   37.7830   28.8850   43.4570 C   0  0  0  0  0  0  0  0  0  0  0  0
   36.9140   27.8450   43.5230 C   0  0  0  0  0  0  0  0  0  0  0  0
   37.2560   26.6330   42.9830 C   0  0  0  0  0  0  0  0  0  0  0  0
   38.5200   26.5310   42.3750 C   0  0  0  0  0  0  0  0  0  0  0  0
   39.3590   27.6020   42.3320 N   0  0  0  0  0  0  0  0  0  0  0  0
   37.5750   29.8770   43.8660 H   0  0  0  0  0  0  0  0  0  0  0  0
   35.9450   27.9800   44.0060 H   0  0  0  0  0  0  0  0  0  0  0  0
   36.5290   25.8500   43.0660 H   0  0  0  0  0  0  0  0  0  0  0  0
   38.8720   25.1940   41.7900 C   0  0  0  0  0  3  0  0  0  0  0  0
   37.6720   24.3240   41.6210 C   0  0  0  0  0  2  0  0  0  0  0  0
   37.8510   23.1240   40.7810 C   0  0  0  0  0  2  0  0  0  0  0  0
   38.8100   23.2900   39.6370 C   0  0  0  0  0  2  0  0  0  0  0  0
   38.8460   24.8070   39.3910 C   0  0  0  0  0  2  0  0  0  0  0  0
   39.6600   25.3470   40.5420 C   0  0  0  0  0  2  0  0  0  0  0  0
  2  1  2  1  0  0  0
  2 22  1  0  0  0  0
  3  2  1  0  0  0  0
  4  3  1  0  0  0  0
  5  2  1  0  0  0  0
  6  9  1  6  0  0  0
  6 15  1  0  0  0  0
  6  7  1  0  0  0  0
  6  8  1  0  0  0  0
  7  8  1  0  0  0  0
  7 11  1  0  0  0  0
  8 12  1  6  0  0  0
  8  5  1  0  0  0  0
 10  7  1  0  0  0  0
 13 19  1  0  0  0  0
 14 20  1  0  0  0  0
 14 13  1  0  0  0  0
 15 14  2  0  0  0  0
 16 15  1  0  0  0  0
 16 17  2  0  0  0  0
 17 18  1  0  0  0  0
 18 13  2  0  0  0  0
 21 17  1  0  0  0  0
 22 23  1  0  0  0  0
 23 24  1  0  0  0  0
 24 25  2  0  0  0  0
 24 29  1  0  0  0  0
 25 30  1  0  0  0  0
 26 31  1  0  0  0  0
 26 25  1  0  0  0  0
 27 26  2  0  0  0  0
 28 27  1  0  0  0  0
 28 23  2  0  0  0  0
 32 27  1  0  0  0  0
 33 32  1  0  0  0  0
 34 33  1  0  0  0  0
 35 34  1  0  0  0  0
 36 35  1  0  0  0  0
 36 37  1  0  0  0  0
 37 32  1  0  0  0  0
M  END
>  <minimizedAffinity>
-5.51058054

$$$$

 OpenBabel03252501093D

 37 40  0  0  1  0  0  0  0  0999 V2000
   41.8560   31.2010   37.1730 O   0  0  0  0  0  0  0  0  0  0  0  0
   40.4270   31.3590   37.6960 P   0  0  2  0  0  0  0  0  0  0  0  0
   39.6500   32.3610   36.5710 O   0  0  0  0  0  0  0  0  0  0  0  0
   40.2780   33.0410   36.1980 H   0  0  0  0  0  0  0  0  0  0  0  0
   40.3860   31.8950   39.2390 O   0  0  0  0  0  0  0  0  0  0  0  0
   38.9570   31.4700   41.1460 C   0  0  1  0  0  0  0  0  0  0  0  0
   39.0700   32.9320   41.1000 C   0  0  0  0  0  0  0  0  0  0  0  0
   39.1900   32.0680   39.8310 C   0  0  1  0  0  0  0  0  0  0  0  0
   37.9900   30.9440   41.3360 H   0  0  0  0  0  0  0  0  0  0  0  0
   38.1330   33.5110   41.2450 H   0  0  0  0  0  0  0  0  0  0  0  0
   39.9980   33.4500   41.4050 H   0  0  0  0  0  0  0  0  0  0  0  0
   38.3410   32.2590   39.1490 H   0  0  0  0  0  0  0  0  0  0  0  0
   41.2910   28.6990   42.2540 C   0  0  0  0  0  0  0  0  0  0  0  0
   40.2170   29.3520   41.6610 C   0  0  0  0  0  0  0  0  0  0  0  0
   40.1230   30.7530   41.7680 C   0  0  0  0  0  0  0  0  0  0  0  0
   41.0800   31.4310   42.4460 N   0  0  0  0  0  0  0  0  0  0  0  0
   42.1220   30.7690   43.0190 C   0  0  0  0  0  0  0  0  0  0  0  0
   42.2260   29.4110   42.9230 N   0  0  0  0  0  0  0  0  0  0  0  0
   41.4140   27.6340   42.2040 H   0  0  0  0  0  0  0  0  0  0  0  0
   39.5020   28.7590   41.1400 H   0  0  0  0  0  0  0  0  0  0  0  0
   42.8680   31.3300   43.5530 H   0  0  0  0  0  0  0  0  0  0  0  0
   39.7480   29.8280   37.5650 O   0  0  0  0  0  0  0  0  0  0  0  0
   38.4010   29.5620   37.6860 C   0  0  0  0  0  0  0  0  0  0  0  0
   37.3660   29.9240   36.8530 C   0  0  0  0  0  0  0  0  0  0  0  0
   36.0770   29.5860   37.1070 C   0  0  0  0  0  0  0  0  0  0  0  0
   35.7690   28.8590   38.2280 C   0  0  0  0  0  0  0  0  0  0  0  0
   36.8320   28.4940   39.0720 C   0  0  0  0  0  0  0  0  0  0  0  0
   38.1100   28.8550   38.7770 N   0  0  0  0  0  0  0  0  0  0  0  0
   37.6820   30.5010   35.9800 H   0  0  0  0  0  0  0  0  0  0  0  0
   35.2910   29.8960   36.4170 H   0  0  0  0  0  0  0  0  0  0  0  0
   34.7340   28.6230   38.3740 H   0  0  0  0  0  0  0  0  0  0  0  0
   36.4700   27.6970   40.2930 C   0  0  0  0  0  3  0  0  0  0  0  0
   37.5860   26.8090   40.7300 C   0  0  0  0  0  2  0  0  0  0  0  0
   37.4580   26.2200   42.0780 C   0  0  0  0  0  2  0  0  0  0  0  0
   36.7700   27.0930   43.0870 C   0  0  0  0  0  2  0  0  0  0  0  0
   36.9360   28.5170   42.5320 C   0  0  0  0  0  2  0  0  0  0  0  0
   35.9670   28.5770   41.3760 C   0  0  0  0  0  2  0  0  0  0  0  0
  2  1  2  6  0  0  0
  2  5  1  0  0  0  0
  3  2  1  0  0  0  0
  4  3  1  0  0  0  0
  5  8  1  0  0  0  0
  6  9  1  1  0  0  0
  6 15  1  0  0  0  0
  7  6  1  0  0  0  0
  7 10  1  0  0  0  0
  7 11  1  0  0  0  0
  8 12  1  6  0  0  0
  8  7  1  0  0  0  0
  8  6  1  0  0  0  0
 13 18  1  0  0  0  0
 14 15  1  0  0  0  0
 14 13  2  0  0  0  0
 15 16  2  0  0  0  0
 16 17  1  0  0  0  0
 17 21  1  0  0  0  0
 18 17  2  0  0  0  0
 19 13  1  0  0  0  0
 20 14  1  0  0  0  0
 22 23  1  0  0  0  0
 22  2  1  0  0  0  0
 23 28  1  0  0  0  0
 24 25  1  0  0  0  0
 24 23  2  0  0  0  0
 25 26  2  0  0  0  0
 26 31  1  0  0  0  0
 26 27  1  0  0  0  0
 27 32  1  0  0  0  0
 28 27  2  0  0  0  0
 29 24  1  0  0  0  0
 30 25  1  0  0  0  0
 32 33  1  0  0  0  0
 32 37  1  0  0  0  0
 33 34  1  0  0  0  0
 34 35  1  0  0  0  0
 36 35  1  0  0  0  0
 37 36  1  0  0  0  0
M  END
>  <minimizedAffinity>
-5.45087194

$$$$

 OpenBabel03252501093D

 37 40  0  0  1  0  0  0  0  0999 V2000
   35.2160   28.7630   40.8310 O   0  0  0  0  0  0  0  0  0  0  0  0
   36.4080   29.6980   41.0390 P   0  0  2  0  0  0  0  0  0  0  0  0
   35.7340   31.2410   41.2390 O   0  0  0  0  0  0  0  0  0  0  0  0
   34.9170   31.3540   40.6780 H   0  0  0  0  0  0  0  0  0  0  0  0
   37.5090   29.5780   39.8370 O   0  0  0  0  0  0  0  0  0  0  0  0
   37.2700   30.9290   37.8430 C   0  0  1  0  0  0  0  0  0  0  0  0
   38.1040   29.7990   37.4150 C   0  0  0  0  0  0  0  0  0  0  0  0
   37.0850   29.6680   38.5630 C   0  0  1  0  0  0  0  0  0  0  0  0
   36.4280   31.3260   37.2260 H   0  0  0  0  0  0  0  0  0  0  0  0
   37.8480   29.3290   36.4410 H   0  0  0  0  0  0  0  0  0  0  0  0
   39.1640   29.7170   37.7160 H   0  0  0  0  0  0  0  0  0  0  0  0
   36.2670   28.9810   38.2800 H   0  0  0  0  0  0  0  0  0  0  0  0
   40.0590   33.0790   39.2380 C   0  0  0  0  0  0  0  0  0  0  0  0
   39.4010   32.0770   38.5370 C   0  0  0  0  0  0  0  0  0  0  0  0
   37.9940   32.0190   38.5830 C   0  0  0  0  0  0  0  0  0  0  0  0
   37.3170   32.9400   39.3090 N   0  0  0  0  0  0  0  0  0  0  0  0
   37.9850   33.9130   39.9870 C   0  0  0  0  0  0  0  0  0  0  0  0
   39.3480   33.9810   39.9520 N   0  0  0  0  0  0  0  0  0  0  0  0
   41.1290   33.1720   39.2390 H   0  0  0  0  0  0  0  0  0  0  0  0
   39.9930   31.3860   37.9840 H   0  0  0  0  0  0  0  0  0  0  0  0
   37.4240   34.6320   40.5570 H   0  0  0  0  0  0  0  0  0  0  0  0
   37.0650   29.2360   42.5150 O   0  0  0  0  0  0  0  0  0  0  0  0
   38.1440   28.3900   42.6550 C   0  0  0  0  0  0  0  0  0  0  0  0
   38.4360   27.5170   43.6790 C   0  0  0  0  0  0  0  0  0  0  0  0
   39.5490   26.7420   43.6780 C   0  0  0  0  0  0  0  0  0  0  0  0
   40.4300   26.8130   42.6310 C   0  0  0  0  0  0  0  0  0  0  0  0
   40.1240   27.7070   41.5900 C   0  0  0  0  0  0  0  0  0  0  0  0
   38.9950   28.4650   41.6340 N   0  0  0  0  0  0  0  0  0  0  0  0
   37.6920   27.5110   44.4800 H   0  0  0  0  0  0  0  0  0  0  0  0
   39.7370   26.0640   44.5120 H   0  0  0  0  0  0  0  0  0  0  0  0
   41.2910   26.1760   42.6870 H   0  0  0  0  0  0  0  0  0  0  0  0
   41.1040   27.7660   40.4530 C   0  0  0  0  0  3  0  0  0  0  0  0
   40.9210   28.9920   39.6220 C   0  0  0  0  0  2  0  0  0  0  0  0
   42.0110   29.3060   38.6780 C   0  0  0  0  0  2  0  0  0  0  0  0
   43.3860   28.9350   39.1520 C   0  0  0  0  0  2  0  0  0  0  0  0
   43.2550   28.8740   40.6830 C   0  0  0  0  0  2  0  0  0  0  0  0
   42.4960   27.5940   40.9370 C   0  0  0  0  0  2  0  0  0  0  0  0
  2  1  2  6  0  0  0
  2  3  1  0  0  0  0
  2 22  1  0  0  0  0
  4  3  1  0  0  0  0
  5  2  1  0  0  0  0
  6  9  1  6  0  0  0
  6  8  1  0  0  0  0
  6 15  1  0  0  0  0
  7 11  1  0  0  0  0
  7  6  1  0  0  0  0
  7  8  1  0  0  0  0
  8 12  1  6  0  0  0
  8  5  1  0  0  0  0
 10  7  1  0  0  0  0
 13 19  1  0  0  0  0
 13 18  1  0  0  0  0
 14 15  1  0  0  0  0
 14 13  2  0  0  0  0
 15 16  2  0  0  0  0
 16 17  1  0  0  0  0
 17 21  1  0  0  0  0
 18 17  2  0  0  0  0
 20 14  1  0  0  0  0
 22 23  1  0  0  0  0
 23 24  1  0  0  0  0
 24 29  1  0  0  0  0
 25 24  2  0  0  0  0
 25 30  1  0  0  0  0
 26 31  1  0  0  0  0
 26 25  1  0  0  0  0
 27 28  1  0  0  0  0
 27 26  2  0  0  0  0
 28 23  2  0  0  0  0
 32 37  1  0  0  0  0
 32 27  1  0  0  0  0
 33 32  1  0  0  0  0
 34 35  1  0  0  0  0
 34 33  1  0  0  0  0
 35 36  1  0  0  0  0
 36 37  1  0  0  0  0
M  END
>  <minimizedAffinity>
-5.4199748

$$$$
