
 OpenBabel03252506573D

 35 39  0  0  0  0  0  0  0  0999 V2000
   47.1840   31.3110   45.1490 C   0  0  0  0  0  0  0  0  0  0  0  0
   46.8720   32.6580   45.1470 C   0  0  0  0  0  0  0  0  0  0  0  0
   46.2910   33.3070   46.2230 C   0  0  0  0  0  0  0  0  0  0  0  0
   45.9960   32.5880   47.3770 C   0  0  0  0  0  0  0  0  0  0  0  0
   45.4450   32.8740   48.5900 N   0  0  0  0  0  0  0  0  0  0  0  0
   45.4190   31.7330   49.3190 C   0  0  0  0  0  0  0  0  0  0  0  0
   45.9540   30.7560   48.5520 N   0  0  0  0  0  0  0  0  0  0  0  0
   46.3120   31.2540   47.3650 C   0  0  0  0  0  0  0  0  0  0  0  0
   46.8870   30.5920   46.3130 C   0  0  0  0  0  0  0  0  0  0  0  0
   47.6340   30.8380   44.3000 H   0  0  0  0  0  0  0  0  0  0  0  0
   46.0540   34.3520   46.2090 H   0  0  0  0  0  0  0  0  0  0  0  0
   45.1160   33.8460   48.8480 H   0  0  0  0  0  0  0  0  0  0  0  0
   45.0270   31.6850   50.3270 H   0  0  0  0  0  0  0  0  0  0  0  0
   46.5730   35.1280   42.4280 C   0  0  0  0  0  0  0  0  0  0  0  0
   47.7250   34.9110   41.6900 C   0  0  0  0  0  0  0  0  0  0  0  0
   48.6120   33.9180   42.1190 C   0  0  0  0  0  0  0  0  0  0  0  0
   48.2960   33.2090   43.2480 N   0  0  0  0  0  0  0  0  0  0  0  0
   47.1720   33.4410   43.9420 C   0  0  0  0  0  0  0  0  0  0  0  0
   46.3050   34.3960   43.5430 N   0  0  0  0  0  0  0  0  0  0  0  0
   45.8510   35.8970   42.1290 H   0  0  0  0  0  0  0  0  0  0  0  0
   47.9430   35.4830   40.8110 H   0  0  0  0  0  0  0  0  0  0  0  0
   49.5310   33.7070   41.5760 H   0  0  0  0  0  0  0  0  0  0  0  0
   47.1880   29.1530   46.3950 C   0  0  0  0  0  0  0  0  0  0  0  0
   48.4770   28.6290   46.3930 C   0  0  0  0  0  0  0  0  0  0  0  0
   48.2540   27.2410   46.4850 C   0  0  0  0  0  0  0  0  0  0  0  0
   46.8880   27.0230   46.5360 C   0  0  0  0  0  0  0  0  0  0  0  0
   46.3010   28.2060   46.4780 O   0  0  0  0  0  0  0  0  0  0  0  0
   49.4290   29.1450   46.3350 H   0  0  0  0  0  0  0  0  0  0  0  0
   49.0200   26.4810   46.5130 H   0  0  0  0  0  0  0  0  0  0  0  0
   46.1560   25.7190   46.6370 C   0  0  0  0  0  3  0  0  0  0  0  0
   45.0770   25.7690   47.6780 C   0  0  0  0  0  2  0  0  0  0  0  0
   45.5120   25.1780   48.9980 C   0  0  0  0  0  2  0  0  0  0  0  0
   45.8500   23.7160   48.8510 C   0  0  0  0  0  2  0  0  0  0  0  0
   46.4380   23.4280   47.5010 C   0  0  0  0  0  2  0  0  0  0  0  0
   47.1350   24.6040   46.8710 C   0  0  0  0  0  2  0  0  0  0  0  0
  1  9  1  0  0  0  0
  2  1  2  0  0  0  0
  2  3  1  0  0  0  0
  3  4  2  0  0  0  0
  4  5  1  0  0  0  0
  5 12  1  0  0  0  0
  5  6  1  0  0  0  0
  6 13  1  0  0  0  0
  7  6  2  0  0  0  0
  8  4  1  0  0  0  0
  8  7  1  0  0  0  0
  9 23  1  0  0  0  0
  9  8  2  0  0  0  0
 10  1  1  0  0  0  0
 11  3  1  0  0  0  0
 14 19  1  0  0  0  0
 15 16  1  0  0  0  0
 15 14  2  0  0  0  0
 16 17  2  0  0  0  0
 17 18  1  0  0  0  0
 18  2  1  0  0  0  0
 19 18  2  0  0  0  0
 20 14  1  0  0  0  0
 21 15  1  0  0  0  0
 22 16  1  0  0  0  0
 23 27  1  0  0  0  0
 24 23  2  0  0  0  0
 24 25  1  0  0  0  0
 25 29  1  0  0  0  0
 25 26  2  0  0  0  0
 26 30  1  0  0  0  0
 27 26  1  0  0  0  0
 28 24  1  0  0  0  0
 30 35  1  0  0  0  0
 30 31  1  0  0  0  0
 31 32  1  0  0  0  0
 33 32  1  0  0  0  0
 34 33  1  0  0  0  0
 35 34  1  0  0  0  0
M  END
>  <minimizedAffinity>
-5.71447802

>  <minimizedRMSD>
1.3873235

$$$$
