
 OpenBabel03252506573D

 35 39  0  0  0  0  0  0  0  0999 V2000
   47.3000   31.4640   45.0730 C   0  0  0  0  0  0  0  0  0  0  0  0
   46.9220   32.7930   45.0280 C   0  0  0  0  0  0  0  0  0  0  0  0
   46.2690   33.4330   46.0680 C   0  0  0  0  0  0  0  0  0  0  0  0
   45.9690   32.7260   47.2270 C   0  0  0  0  0  0  0  0  0  0  0  0
   45.3600   33.0090   48.4130 N   0  0  0  0  0  0  0  0  0  0  0  0
   45.3650   31.8840   49.1660 C   0  0  0  0  0  0  0  0  0  0  0  0
   45.9750   30.9190   48.4410 N   0  0  0  0  0  0  0  0  0  0  0  0
   46.3520   31.4100   47.2570 C   0  0  0  0  0  0  0  0  0  0  0  0
   46.9960   30.7550   46.2410 C   0  0  0  0  0  0  0  0  0  0  0  0
   47.8030   30.9960   44.2520 H   0  0  0  0  0  0  0  0  0  0  0  0
   45.9820   34.4660   46.0210 H   0  0  0  0  0  0  0  0  0  0  0  0
   44.9740   33.9690   48.6360 H   0  0  0  0  0  0  0  0  0  0  0  0
   44.9390   31.8380   50.1600 H   0  0  0  0  0  0  0  0  0  0  0  0
   46.6150   35.2100   42.2630 C   0  0  0  0  0  0  0  0  0  0  0  0
   47.7870   35.0120   41.5520 C   0  0  0  0  0  0  0  0  0  0  0  0
   48.6910   34.0490   42.0170 C   0  0  0  0  0  0  0  0  0  0  0  0
   48.3700   33.3510   43.1500 N   0  0  0  0  0  0  0  0  0  0  0  0
   47.2260   33.5640   43.8170 C   0  0  0  0  0  0  0  0  0  0  0  0
   46.3420   34.4890   43.3840 N   0  0  0  0  0  0  0  0  0  0  0  0
   45.8790   35.9540   41.9360 H   0  0  0  0  0  0  0  0  0  0  0  0
   48.0090   35.5750   40.6690 H   0  0  0  0  0  0  0  0  0  0  0  0
   49.6260   33.8540   41.4960 H   0  0  0  0  0  0  0  0  0  0  0  0
   47.3660   29.3350   46.3680 C   0  0  0  0  0  0  0  0  0  0  0  0
   48.6770   28.8690   46.3390 C   0  0  0  0  0  0  0  0  0  0  0  0
   48.5210   27.4780   46.4920 C   0  0  0  0  0  0  0  0  0  0  0  0
   47.1690   27.2020   46.6010 C   0  0  0  0  0  0  0  0  0  0  0  0
   46.5270   28.3540   46.5190 O   0  0  0  0  0  0  0  0  0  0  0  0
   49.6020   29.4240   46.2270 H   0  0  0  0  0  0  0  0  0  0  0  0
   49.3220   26.7540   46.5210 H   0  0  0  0  0  0  0  0  0  0  0  0
   46.5010   25.8720   46.7780 C   0  0  0  0  0  3  0  0  0  0  0  0
   45.4710   25.6220   45.7140 C   0  0  0  0  0  2  0  0  0  0  0  0
   44.0700   25.9480   46.1730 C   0  0  0  0  0  2  0  0  0  0  0  0
   43.6620   25.0690   47.3290 C   0  0  0  0  0  2  0  0  0  0  0  0
   44.8370   24.7390   48.2010 C   0  0  0  0  0  2  0  0  0  0  0  0
   45.9360   25.7680   48.1650 C   0  0  0  0  0  2  0  0  0  0  0  0
  1  9  1  0  0  0  0
  2  1  2  0  0  0  0
  2  3  1  0  0  0  0
  3  4  2  0  0  0  0
  4  8  1  0  0  0  0
  4  5  1  0  0  0  0
  5 12  1  0  0  0  0
  5  6  1  0  0  0  0
  6 13  1  0  0  0  0
  7  6  2  0  0  0  0
  8  7  1  0  0  0  0
  9 23  1  0  0  0  0
  9  8  2  0  0  0  0
 10  1  1  0  0  0  0
 11  3  1  0  0  0  0
 14 19  1  0  0  0  0
 15 16  1  0  0  0  0
 15 14  2  0  0  0  0
 16 17  2  0  0  0  0
 17 18  1  0  0  0  0
 18  2  1  0  0  0  0
 19 18  2  0  0  0  0
 20 14  1  0  0  0  0
 21 15  1  0  0  0  0
 22 16  1  0  0  0  0
 23 27  1  0  0  0  0
 24 23  2  0  0  0  0
 24 25  1  0  0  0  0
 25 29  1  0  0  0  0
 25 26  2  0  0  0  0
 26 30  1  0  0  0  0
 27 26  1  0  0  0  0
 28 24  1  0  0  0  0
 30 35  1  0  0  0  0
 31 32  1  0  0  0  0
 31 30  1  0  0  0  0
 32 33  1  0  0  0  0
 33 34  1  0  0  0  0
 35 34  1  0  0  0  0
M  END
>  <minimizedAffinity>
-5.70330858

>  <minimizedRMSD>
1.3780874

$$$$
