
 OpenBabel03242514143D

 31 33  0  0  0  0  0  0  0  0999 V2000
   36.0760   28.0160   39.9860 C   0  0  0  0  0  0  0  0  0  0  0  0
   36.7800   27.9500   38.7780 C   0  0  0  0  0  0  0  0  0  0  0  0
   36.5470   29.1710   37.9120 C   0  0  0  0  0  0  0  0  0  0  0  0
   35.0900   29.2020   37.4770 C   0  0  0  0  0  0  0  0  0  0  0  0
   34.1640   28.9680   38.6100 C   0  0  0  0  0  0  0  0  0  0  0  0
   34.8970   29.0390   39.9200 C   0  0  0  0  0  0  0  0  0  0  0  0
   35.4580   27.1200   40.2020 H   0  0  0  0  0  0  0  0  0  0  0  0
   37.7770   27.5100   38.6960 H   0  0  0  0  0  0  0  0  0  0  0  0
   36.2670   27.1980   38.1220 H   0  0  0  0  0  0  0  0  0  0  0  0
   37.2290   29.2920   37.0840 H   0  0  0  0  0  0  0  0  0  0  0  0
   36.5420   30.1200   38.5350 H   0  0  0  0  0  0  0  0  0  0  0  0
   34.9940   28.4140   36.6800 H   0  0  0  0  0  0  0  0  0  0  0  0
   34.8910   30.1800   36.9970 H   0  0  0  0  0  0  0  0  0  0  0  0
   33.7970   27.9020   38.5260 H   0  0  0  0  0  0  0  0  0  0  0  0
   33.3080   29.6430   38.6650 H   0  0  0  0  0  0  0  0  0  0  0  0
   35.2920   30.0540   40.1060 H   0  0  0  0  0  0  0  0  0  0  0  0
   34.1650   28.8390   40.7310 H   0  0  0  0  0  0  0  0  0  0  0  0
   36.7730   28.2350   41.2540 C   0  0  0  0  0  0  0  0  0  0  0  0
   37.4330   29.4650   41.3120 C   0  0  0  0  0  0  0  0  0  0  0  0
   37.9190   29.6510   42.5640 C   0  0  0  0  0  0  0  0  0  0  0  0
   37.7900   28.7760   43.5900 N   0  0  0  0  0  0  0  0  0  0  0  0
   37.1710   27.6240   43.4930 C   0  0  0  0  0  0  0  0  0  0  0  0
   36.6640   27.3720   42.3070 N   0  0  0  0  0  0  0  0  0  0  0  0
   38.4810   30.4270   43.0750 H   0  0  0  0  0  0  0  0  0  0  0  0
   36.9620   26.8100   44.1450 H   0  0  0  0  0  0  0  0  0  0  0  0
   37.9340   30.5840   40.5970 C   0  0  0  0  0  3  0  0  0  0  0  0
   39.1000   31.3000   41.3750 C   0  0  0  0  0  2  0  0  0  0  0  0
   39.3600   32.6360   40.7910 C   0  0  0  0  0  2  0  0  0  0  0  0
   38.7980   32.8810   39.4300 C   0  0  0  0  0  2  0  0  0  0  0  0
   37.3070   32.7650   39.4760 C   0  0  0  0  0  2  0  0  0  0  0  0
   36.9220   31.7410   40.5470 C   0  0  0  0  0  2  0  0  0  0  0  0
  1  7  1  0  0  0  0
  1 18  1  0  0  0  0
  2  1  1  0  0  0  0
  3 11  1  0  0  0  0
  3  2  1  0  0  0  0
  4  3  1  0  0  0  0
  4  5  1  0  0  0  0
  5 15  1  0  0  0  0
  5  6  1  0  0  0  0
  6  1  1  0  0  0  0
  6 16  1  0  0  0  0
  6 17  1  0  0  0  0
  8  2  1  0  0  0  0
  9  2  1  0  0  0  0
 10  3  1  0  0  0  0
 12  4  1  0  0  0  0
 13  4  1  0  0  0  0
 14  5  1  0  0  0  0
 18 19  2  0  0  0  0
 18 23  1  0  0  0  0
 19 20  1  0  0  0  0
 20 24  1  0  0  0  0
 20 21  2  0  0  0  0
 22 21  1  0  0  0  0
 22 25  1  0  0  0  0
 23 22  2  0  0  0  0
 26 19  1  0  0  0  0
 26 27  1  0  0  0  0
 28 27  1  0  0  0  0
 29 30  1  0  0  0  0
 29 28  1  0  0  0  0
 30 31  1  0  0  0  0
 31 26  1  0  0  0  0
M  END
>  <minimizedAffinity>
-5.30229092

$$$$

 OpenBabel03242514143D

 31 33  0  0  0  0  0  0  0  0999 V2000
   36.2300   29.1200   38.1830 C   0  0  0  0  0  0  0  0  0  0  0  0
   36.6080   29.0100   36.8400 C   0  0  0  0  0  0  0  0  0  0  0  0
   35.4440   29.2400   35.8980 C   0  0  0  0  0  0  0  0  0  0  0  0
   34.4280   28.1230   36.0790 C   0  0  0  0  0  0  0  0  0  0  0  0
   34.1250   27.8700   37.5070 C   0  0  0  0  0  0  0  0  0  0  0  0
   34.6880   28.9620   38.3720 C   0  0  0  0  0  0  0  0  0  0  0  0
   36.5280   28.2550   38.8120 H   0  0  0  0  0  0  0  0  0  0  0  0
   37.5780   29.3480   36.4660 H   0  0  0  0  0  0  0  0  0  0  0  0
   36.7700   27.9220   36.6180 H   0  0  0  0  0  0  0  0  0  0  0  0
   35.7070   29.3970   34.8620 H   0  0  0  0  0  0  0  0  0  0  0  0
   34.7930   30.1000   36.2530 H   0  0  0  0  0  0  0  0  0  0  0  0
   34.8740   27.2220   35.5730 H   0  0  0  0  0  0  0  0  0  0  0  0
   33.5110   28.3920   35.5200 H   0  0  0  0  0  0  0  0  0  0  0  0
   34.6800   26.9310   37.8050 H   0  0  0  0  0  0  0  0  0  0  0  0
   33.0670   27.7570   37.7500 H   0  0  0  0  0  0  0  0  0  0  0  0
   34.2000   29.9310   38.1650 H   0  0  0  0  0  0  0  0  0  0  0  0
   34.4500   28.7160   39.4280 H   0  0  0  0  0  0  0  0  0  0  0  0
   36.6540   30.2630   38.9930 C   0  0  0  0  0  0  0  0  0  0  0  0
   36.9030   29.9280   40.3270 C   0  0  0  0  0  0  0  0  0  0  0  0
   37.4330   31.0010   40.9630 C   0  0  0  0  0  0  0  0  0  0  0  0
   37.6740   32.2080   40.3950 N   0  0  0  0  0  0  0  0  0  0  0  0
   37.4160   32.4870   39.1400 C   0  0  0  0  0  0  0  0  0  0  0  0
   36.9040   31.4920   38.4510 N   0  0  0  0  0  0  0  0  0  0  0  0
   37.7790   31.2190   41.9700 H   0  0  0  0  0  0  0  0  0  0  0  0
   37.5170   33.3370   38.5080 H   0  0  0  0  0  0  0  0  0  0  0  0
   36.7380   28.9780   41.3680 C   0  0  0  0  0  3  0  0  0  0  0  0
   37.4810   29.4200   42.6840 C   0  0  0  0  0  2  0  0  0  0  0  0
   37.5860   28.2760   43.6190 C   0  0  0  0  0  2  0  0  0  0  0  0
   36.6900   27.1140   43.3450 C   0  0  0  0  0  2  0  0  0  0  0  0
   37.0090   26.5430   42.0000 C   0  0  0  0  0  2  0  0  0  0  0  0
   37.4940   27.6690   41.0840 C   0  0  0  0  0  2  0  0  0  0  0  0
  1  6  1  0  0  0  0
  1  7  1  0  0  0  0
  1 18  1  0  0  0  0
  2  1  1  0  0  0  0
  3  4  1  0  0  0  0
  3 11  1  0  0  0  0
  3  2  1  0  0  0  0
  4  5  1  0  0  0  0
  5 15  1  0  0  0  0
  5 14  1  0  0  0  0
  5  6  1  0  0  0  0
  6 17  1  0  0  0  0
  8  2  1  0  0  0  0
  9  2  1  0  0  0  0
 10  3  1  0  0  0  0
 12  4  1  0  0  0  0
 13  4  1  0  0  0  0
 16  6  1  0  0  0  0
 18 19  1  0  0  0  0
 19 20  2  0  0  0  0
 19 26  1  0  0  0  0
 20 24  1  0  0  0  0
 21 20  1  0  0  0  0
 22 21  2  0  0  0  0
 23 18  2  0  0  0  0
 23 22  1  0  0  0  0
 25 22  1  0  0  0  0
 26 27  1  0  0  0  0
 27 28  1  0  0  0  0
 29 28  1  0  0  0  0
 30 29  1  0  0  0  0
 31 26  1  0  0  0  0
 31 30  1  0  0  0  0
M  END
>  <minimizedAffinity>
-5.21573973

$$$$

 OpenBabel03242514143D

 31 33  0  0  0  0  0  0  0  0999 V2000
   37.0440   25.7930   41.1020 C   0  0  0  0  0  0  0  0  0  0  0  0
   37.0130   24.8000   42.0880 C   0  0  0  0  0  0  0  0  0  0  0  0
   38.2860   23.9790   42.1110 C   0  0  0  0  0  0  0  0  0  0  0  0
   38.3970   23.1930   40.8130 C   0  0  0  0  0  0  0  0  0  0  0  0
   38.1390   24.0410   39.6250 C   0  0  0  0  0  0  0  0  0  0  0  0
   38.1130   25.4950   40.0040 C   0  0  0  0  0  0  0  0  0  0  0  0
   36.1610   25.7920   40.4280 H   0  0  0  0  0  0  0  0  0  0  0  0
   36.5400   24.9450   43.0620 H   0  0  0  0  0  0  0  0  0  0  0  0
   36.3170   23.9920   41.7390 H   0  0  0  0  0  0  0  0  0  0  0  0
   38.4240   23.3580   42.9840 H   0  0  0  0  0  0  0  0  0  0  0  0
   39.2010   24.6370   41.9720 H   0  0  0  0  0  0  0  0  0  0  0  0
   37.6550   22.3520   40.9030 H   0  0  0  0  0  0  0  0  0  0  0  0
   39.4050   22.7390   40.7660 H   0  0  0  0  0  0  0  0  0  0  0  0
   37.0950   23.8030   39.2650 H   0  0  0  0  0  0  0  0  0  0  0  0
   38.8430   23.9190   38.8000 H   0  0  0  0  0  0  0  0  0  0  0  0
   39.1010   25.8350   40.3630 H   0  0  0  0  0  0  0  0  0  0  0  0
   37.9000   26.0820   39.0860 H   0  0  0  0  0  0  0  0  0  0  0  0
   37.1690   27.2070   41.4610 C   0  0  0  0  0  0  0  0  0  0  0  0
   36.4630   28.0550   40.6030 C   0  0  0  0  0  0  0  0  0  0  0  0
   36.5060   29.3180   41.0920 C   0  0  0  0  0  0  0  0  0  0  0  0
   37.1410   29.6960   42.2280 N   0  0  0  0  0  0  0  0  0  0  0  0
   37.8040   28.8700   43.0020 C   0  0  0  0  0  0  0  0  0  0  0  0
   37.8040   27.6200   42.5980 N   0  0  0  0  0  0  0  0  0  0  0  0
   36.1170   30.2860   40.7890 H   0  0  0  0  0  0  0  0  0  0  0  0
   38.3610   28.9480   43.9050 H   0  0  0  0  0  0  0  0  0  0  0  0
   35.8000   28.2090   39.3570 C   0  0  0  0  0  3  0  0  0  0  0  0
   36.6440   29.0750   38.3510 C   0  0  0  0  0  2  0  0  0  0  0  0
   35.7980   29.5060   37.2140 C   0  0  0  0  0  2  0  0  0  0  0  0
   34.5140   28.7680   37.0300 C   0  0  0  0  0  2  0  0  0  0  0  0
   33.6540   28.9510   38.2410 C   0  0  0  0  0  2  0  0  0  0  0  0
   34.5540   29.1020   39.4700 C   0  0  0  0  0  2  0  0  0  0  0  0
  1 18  1  0  0  0  0
  1  2  1  0  0  0  0
  2  3  1  0  0  0  0
  2  8  1  0  0  0  0
  3 10  1  0  0  0  0
  4 12  1  0  0  0  0
  4  3  1  0  0  0  0
  5  6  1  0  0  0  0
  5  4  1  0  0  0  0
  6 16  1  0  0  0  0
  6  1  1  0  0  0  0
  7  1  1  0  0  0  0
  9  2  1  0  0  0  0
 11  3  1  0  0  0  0
 13  4  1  0  0  0  0
 14  5  1  0  0  0  0
 15  5  1  0  0  0  0
 17  6  1  0  0  0  0
 18 23  1  0  0  0  0
 19 20  1  0  0  0  0
 19 18  2  0  0  0  0
 20 21  2  0  0  0  0
 21 22  1  0  0  0  0
 22 25  1  0  0  0  0
 23 22  2  0  0  0  0
 24 20  1  0  0  0  0
 26 31  1  0  0  0  0
 26 19  1  0  0  0  0
 27 26  1  0  0  0  0
 28 27  1  0  0  0  0
 29 28  1  0  0  0  0
 29 30  1  0  0  0  0
 30 31  1  0  0  0  0
M  END
>  <minimizedAffinity>
-5.1807332

$$$$

 OpenBabel03242514143D

 31 33  0  0  0  0  0  0  0  0999 V2000
   36.6210   29.3290   38.2040 C   0  0  0  0  0  0  0  0  0  0  0  0
   37.1210   29.2760   36.8980 C   0  0  0  0  0  0  0  0  0  0  0  0
   36.0530   29.5710   35.8640 C   0  0  0  0  0  0  0  0  0  0  0  0
   35.0090   28.4650   35.8960 C   0  0  0  0  0  0  0  0  0  0  0  0
   34.5710   28.1510   37.2760 C   0  0  0  0  0  0  0  0  0  0  0  0
   35.0660   29.1900   38.2420 C   0  0  0  0  0  0  0  0  0  0  0  0
   36.8470   28.4300   38.8140 H   0  0  0  0  0  0  0  0  0  0  0  0
   38.1260   29.6130   36.6320 H   0  0  0  0  0  0  0  0  0  0  0  0
   37.2880   28.1960   36.6380 H   0  0  0  0  0  0  0  0  0  0  0  0
   36.4130   29.7720   34.8660 H   0  0  0  0  0  0  0  0  0  0  0  0
   35.3830   30.4250   36.2000 H   0  0  0  0  0  0  0  0  0  0  0  0
   35.4880   27.5820   35.3900 H   0  0  0  0  0  0  0  0  0  0  0  0
   34.1520   28.7780   35.2680 H   0  0  0  0  0  0  0  0  0  0  0  0
   35.0830   27.1890   37.5780 H   0  0  0  0  0  0  0  0  0  0  0  0
   33.4940   28.0460   37.4140 H   0  0  0  0  0  0  0  0  0  0  0  0
   34.6130   30.1770   38.0380 H   0  0  0  0  0  0  0  0  0  0  0  0
   34.7270   28.8990   39.2580 H   0  0  0  0  0  0  0  0  0  0  0  0
   36.9830   30.4240   39.1050 C   0  0  0  0  0  0  0  0  0  0  0  0
   37.5430   29.9840   40.3070 C   0  0  0  0  0  0  0  0  0  0  0  0
   37.9860   31.0550   41.0100 C   0  0  0  0  0  0  0  0  0  0  0  0
   37.8920   32.3460   40.6100 N   0  0  0  0  0  0  0  0  0  0  0  0
   37.3480   32.7210   39.4770 C   0  0  0  0  0  0  0  0  0  0  0  0
   36.8980   31.7370   38.7320 N   0  0  0  0  0  0  0  0  0  0  0  0
   38.4770   31.2120   41.9660 H   0  0  0  0  0  0  0  0  0  0  0  0
   37.1700   33.6460   38.9820 H   0  0  0  0  0  0  0  0  0  0  0  0
   37.7580   28.8980   41.1950 C   0  0  0  0  0  3  0  0  0  0  0  0
   36.4040   28.3330   41.7640 C   0  0  0  0  0  2  0  0  0  0  0  0
   36.6660   27.4550   42.9280 C   0  0  0  0  0  2  0  0  0  0  0  0
   38.0700   26.9770   43.0920 C   0  0  0  0  0  2  0  0  0  0  0  0
   38.9780   28.1510   43.2820 C   0  0  0  0  0  2  0  0  0  0  0  0
   38.4130   29.3470   42.5120 C   0  0  0  0  0  2  0  0  0  0  0  0
  1  6  1  0  0  0  0
  1  7  1  0  0  0  0
  1 18  1  0  0  0  0
  2  1  1  0  0  0  0
  3  4  1  0  0  0  0
  3 11  1  0  0  0  0
  3  2  1  0  0  0  0
  4  5  1  0  0  0  0
  5 15  1  0  0  0  0
  5 14  1  0  0  0  0
  5  6  1  0  0  0  0
  6 17  1  0  0  0  0
  8  2  1  0  0  0  0
  9  2  1  0  0  0  0
 10  3  1  0  0  0  0
 12  4  1  0  0  0  0
 13  4  1  0  0  0  0
 16  6  1  0  0  0  0
 18 19  1  0  0  0  0
 19 20  2  0  0  0  0
 19 26  1  0  0  0  0
 20 24  1  0  0  0  0
 21 20  1  0  0  0  0
 22 21  2  0  0  0  0
 23 18  2  0  0  0  0
 23 22  1  0  0  0  0
 25 22  1  0  0  0  0
 26 27  1  0  0  0  0
 26 31  1  0  0  0  0
 27 28  1  0  0  0  0
 28 29  1  0  0  0  0
 29 30  1  0  0  0  0
 31 30  1  0  0  0  0
M  END
>  <minimizedAffinity>
-5.09764957

$$$$

 OpenBabel03242514143D

 31 33  0  0  0  0  0  0  0  0999 V2000
   37.9710   31.2420   39.6430 C   0  0  0  0  0  0  0  0  0  0  0  0
   37.0950   32.1930   40.1790 C   0  0  0  0  0  0  0  0  0  0  0  0
   37.3560   33.5820   39.6340 C   0  0  0  0  0  0  0  0  0  0  0  0
   38.7260   34.0520   40.1000 C   0  0  0  0  0  0  0  0  0  0  0  0
   39.7690   33.0180   39.8950 C   0  0  0  0  0  0  0  0  0  0  0  0
   39.2500   31.9010   39.0350 C   0  0  0  0  0  0  0  0  0  0  0  0
   38.4920   30.6240   40.4040 H   0  0  0  0  0  0  0  0  0  0  0  0
   36.0480   31.9750   40.4060 H   0  0  0  0  0  0  0  0  0  0  0  0
   37.4060   32.3860   41.2410 H   0  0  0  0  0  0  0  0  0  0  0  0
   36.5820   34.3100   39.8240 H   0  0  0  0  0  0  0  0  0  0  0  0
   37.5740   33.5500   38.5200 H   0  0  0  0  0  0  0  0  0  0  0  0
   38.6010   34.3210   41.1850 H   0  0  0  0  0  0  0  0  0  0  0  0
   38.9780   34.9830   39.5560 H   0  0  0  0  0  0  0  0  0  0  0  0
   39.9790   32.5520   40.9030 H   0  0  0  0  0  0  0  0  0  0  0  0
   40.7040   33.3740   39.4590 H   0  0  0  0  0  0  0  0  0  0  0  0
   39.0210   32.2520   38.0140 H   0  0  0  0  0  0  0  0  0  0  0  0
   40.0600   31.1490   38.9290 H   0  0  0  0  0  0  0  0  0  0  0  0
   37.5000   30.2390   38.6870 C   0  0  0  0  0  0  0  0  0  0  0  0
   37.2340   29.0010   39.2760 C   0  0  0  0  0  0  0  0  0  0  0  0
   36.6620   28.1840   38.3580 C   0  0  0  0  0  0  0  0  0  0  0  0
   36.4000   28.5170   37.0710 N   0  0  0  0  0  0  0  0  0  0  0  0
   36.6750   29.6900   36.5510 C   0  0  0  0  0  0  0  0  0  0  0  0
   37.2280   30.5430   37.3830 N   0  0  0  0  0  0  0  0  0  0  0  0
   36.2900   27.1630   38.3450 H   0  0  0  0  0  0  0  0  0  0  0  0
   36.5640   30.1490   35.5970 H   0  0  0  0  0  0  0  0  0  0  0  0
   37.4030   28.1560   40.4040 C   0  0  0  0  0  3  0  0  0  0  0  0
   37.2000   26.6400   40.0340 C   0  0  0  0  0  2  0  0  0  0  0  0
   37.0370   25.8310   41.2650 C   0  0  0  0  0  2  0  0  0  0  0  0
   37.4650   26.4770   42.5410 C   0  0  0  0  0  2  0  0  0  0  0  0
   36.6460   27.7070   42.7770 C   0  0  0  0  0  2  0  0  0  0  0  0
   36.2650   28.3170   41.4260 C   0  0  0  0  0  2  0  0  0  0  0  0
  1  2  1  0  0  0  0
  1  7  1  0  0  0  0
  2  8  1  0  0  0  0
  2  9  1  0  0  0  0
  3 10  1  0  0  0  0
  3  4  1  0  0  0  0
  3  2  1  0  0  0  0
  4 12  1  0  0  0  0
  5  4  1  0  0  0  0
  5 14  1  0  0  0  0
  6  1  1  0  0  0  0
  6  5  1  0  0  0  0
 11  3  1  0  0  0  0
 13  4  1  0  0  0  0
 15  5  1  0  0  0  0
 16  6  1  0  0  0  0
 17  6  1  0  0  0  0
 18 19  1  0  0  0  0
 18  1  1  0  0  0  0
 19 26  1  0  0  0  0
 20 19  2  0  0  0  0
 21 20  1  0  0  0  0
 22 21  2  0  0  0  0
 22 23  1  0  0  0  0
 23 18  2  0  0  0  0
 24 20  1  0  0  0  0
 25 22  1  0  0  0  0
 26 31  1  0  0  0  0
 27 26  1  0  0  0  0
 27 28  1  0  0  0  0
 28 29  1  0  0  0  0
 29 30  1  0  0  0  0
 31 30  1  0  0  0  0
M  END
>  <minimizedAffinity>
-5.05997276

$$$$

 OpenBabel03242514143D

 31 33  0  0  0  0  0  0  0  0999 V2000
   36.4370   29.7890   40.0250 C   0  0  0  0  0  0  0  0  0  0  0  0
   35.1160   29.3370   39.9250 C   0  0  0  0  0  0  0  0  0  0  0  0
   34.9290   28.3650   38.7780 C   0  0  0  0  0  0  0  0  0  0  0  0
   35.1600   29.0940   37.4640 C   0  0  0  0  0  0  0  0  0  0  0  0
   36.3980   29.9090   37.4880 C   0  0  0  0  0  0  0  0  0  0  0  0
   37.2290   29.5790   38.6950 C   0  0  0  0  0  0  0  0  0  0  0  0
   36.5390   30.8930   40.0640 H   0  0  0  0  0  0  0  0  0  0  0  0
   34.4860   29.1480   40.7980 H   0  0  0  0  0  0  0  0  0  0  0  0
   34.4970   30.1780   39.5140 H   0  0  0  0  0  0  0  0  0  0  0  0
   34.0040   27.8080   38.7860 H   0  0  0  0  0  0  0  0  0  0  0  0
   35.8010   27.6410   38.7080 H   0  0  0  0  0  0  0  0  0  0  0  0
   34.2410   29.7220   37.3000 H   0  0  0  0  0  0  0  0  0  0  0  0
   35.1950   28.3440   36.6510 H   0  0  0  0  0  0  0  0  0  0  0  0
   36.0850   30.9870   37.6210 H   0  0  0  0  0  0  0  0  0  0  0  0
   37.0340   29.8240   36.6050 H   0  0  0  0  0  0  0  0  0  0  0  0
   37.5980   28.5380   38.6570 H   0  0  0  0  0  0  0  0  0  0  0  0
   38.1310   30.2270   38.6750 H   0  0  0  0  0  0  0  0  0  0  0  0
   37.3020   29.3510   41.1210 C   0  0  0  0  0  0  0  0  0  0  0  0
   37.4180   27.9610   41.2070 C   0  0  0  0  0  0  0  0  0  0  0  0
   38.3490   27.6500   42.1430 C   0  0  0  0  0  0  0  0  0  0  0  0
   39.0470   28.5460   42.8810 N   0  0  0  0  0  0  0  0  0  0  0  0
   38.9010   29.8460   42.7780 C   0  0  0  0  0  0  0  0  0  0  0  0
   38.0180   30.2300   41.8850 N   0  0  0  0  0  0  0  0  0  0  0  0
   38.7720   26.7350   42.5480 H   0  0  0  0  0  0  0  0  0  0  0  0
   39.3260   30.7030   43.2450 H   0  0  0  0  0  0  0  0  0  0  0  0
   36.9030   26.6950   40.8240 C   0  0  0  0  0  3  0  0  0  0  0  0
   37.0980   25.6190   41.9550 C   0  0  0  0  0  2  0  0  0  0  0  0
   36.8770   24.2590   41.4100 C   0  0  0  0  0  2  0  0  0  0  0  0
   36.1700   24.1810   40.0980 C   0  0  0  0  0  2  0  0  0  0  0  0
   36.9750   24.8890   39.0540 C   0  0  0  0  0  2  0  0  0  0  0  0
   37.7380   26.0410   39.7110 C   0  0  0  0  0  2  0  0  0  0  0  0
  1  7  1  0  0  0  0
  1 18  1  0  0  0  0
  2  1  1  0  0  0  0
  2  8  1  0  0  0  0
  3 10  1  0  0  0  0
  3  2  1  0  0  0  0
  4  5  1  0  0  0  0
  4  3  1  0  0  0  0
  5 14  1  0  0  0  0
  5  6  1  0  0  0  0
  6  1  1  0  0  0  0
  9  2  1  0  0  0  0
 11  3  1  0  0  0  0
 12  4  1  0  0  0  0
 13  4  1  0  0  0  0
 15  5  1  0  0  0  0
 16  6  1  0  0  0  0
 17  6  1  0  0  0  0
 18 19  2  0  0  0  0
 18 23  1  0  0  0  0
 19 20  1  0  0  0  0
 20 24  1  0  0  0  0
 20 21  2  0  0  0  0
 22 21  1  0  0  0  0
 22 25  1  0  0  0  0
 23 22  2  0  0  0  0
 26 19  1  0  0  0  0
 26 27  1  0  0  0  0
 28 27  1  0  0  0  0
 29 28  1  0  0  0  0
 30 31  1  0  0  0  0
 30 29  1  0  0  0  0
 31 26  1  0  0  0  0
M  END
>  <minimizedAffinity>
-5.05789852

$$$$

 OpenBabel03242514143D

 31 33  0  0  0  0  0  0  0  0999 V2000
   38.5220   27.4910   42.3980 C   0  0  0  0  0  0  0  0  0  0  0  0
   38.8130   27.0090   43.6800 C   0  0  0  0  0  0  0  0  0  0  0  0
   40.0000   26.0670   43.6800 C   0  0  0  0  0  0  0  0  0  0  0  0
   39.6410   24.8130   42.8970 C   0  0  0  0  0  0  0  0  0  0  0  0
   39.0070   25.1300   41.5960 C   0  0  0  0  0  0  0  0  0  0  0  0
   39.1410   26.5930   41.2800 C   0  0  0  0  0  0  0  0  0  0  0  0
   37.4620   27.3630   42.0950 H   0  0  0  0  0  0  0  0  0  0  0  0
   38.7070   27.6180   44.5810 H   0  0  0  0  0  0  0  0  0  0  0  0
   38.0240   26.2590   43.9520 H   0  0  0  0  0  0  0  0  0  0  0  0
   40.4170   25.8440   44.6500 H   0  0  0  0  0  0  0  0  0  0  0  0
   40.8230   26.4450   42.9960 H   0  0  0  0  0  0  0  0  0  0  0  0
   38.9600   24.2210   43.5690 H   0  0  0  0  0  0  0  0  0  0  0  0
   40.5620   24.2160   42.7550 H   0  0  0  0  0  0  0  0  0  0  0  0
   37.8970   24.9460   41.7110 H   0  0  0  0  0  0  0  0  0  0  0  0
   39.3800   24.5640   40.7410 H   0  0  0  0  0  0  0  0  0  0  0  0
   40.1990   26.8780   41.1370 H   0  0  0  0  0  0  0  0  0  0  0  0
   38.6360   26.7800   40.3090 H   0  0  0  0  0  0  0  0  0  0  0  0
   38.7900   28.8840   42.0380 C   0  0  0  0  0  0  0  0  0  0  0  0
   37.9000   29.3860   41.0860 C   0  0  0  0  0  0  0  0  0  0  0  0
   38.1220   30.7130   40.9260 C   0  0  0  0  0  0  0  0  0  0  0  0
   39.0650   31.4340   41.5800 N   0  0  0  0  0  0  0  0  0  0  0  0
   39.8910   30.9220   42.4610 C   0  0  0  0  0  0  0  0  0  0  0  0
   39.7350   29.6360   42.6780 N   0  0  0  0  0  0  0  0  0  0  0  0
   37.6960   31.5080   40.3200 H   0  0  0  0  0  0  0  0  0  0  0  0
   40.6830   31.2880   43.0700 H   0  0  0  0  0  0  0  0  0  0  0  0
   36.9180   29.0970   40.1030 C   0  0  0  0  0  3  0  0  0  0  0  0
   37.2310   29.8130   38.7370 C   0  0  0  0  0  2  0  0  0  0  0  0
   36.0390   29.7830   37.8590 C   0  0  0  0  0  2  0  0  0  0  0  0
   34.9710   28.8080   38.2290 C   0  0  0  0  0  2  0  0  0  0  0  0
   34.4400   29.1400   39.5880 C   0  0  0  0  0  2  0  0  0  0  0  0
   35.5650   29.7560   40.4230 C   0  0  0  0  0  2  0  0  0  0  0  0
  1  2  1  0  0  0  0
  2  9  1  0  0  0  0
  2  8  1  0  0  0  0
  3  2  1  0  0  0  0
  3 10  1  0  0  0  0
  4 12  1  0  0  0  0
  4  3  1  0  0  0  0
  5 14  1  0  0  0  0
  5  4  1  0  0  0  0
  6  5  1  0  0  0  0
  6  1  1  0  0  0  0
  7  1  1  0  0  0  0
 11  3  1  0  0  0  0
 13  4  1  0  0  0  0
 15  5  1  0  0  0  0
 16  6  1  0  0  0  0
 17  6  1  0  0  0  0
 18  1  1  0  0  0  0
 18 23  1  0  0  0  0
 19 18  2  0  0  0  0
 20 19  1  0  0  0  0
 20 21  2  0  0  0  0
 21 22  1  0  0  0  0
 22 23  2  0  0  0  0
 22 25  1  0  0  0  0
 24 20  1  0  0  0  0
 26 31  1  0  0  0  0
 26 19  1  0  0  0  0
 27 26  1  0  0  0  0
 28 29  1  0  0  0  0
 28 27  1  0  0  0  0
 29 30  1  0  0  0  0
 30 31  1  0  0  0  0
M  END
>  <minimizedAffinity>
-5.0451231

$$$$

 OpenBabel03242514143D

 31 33  0  0  0  0  0  0  0  0999 V2000
   36.5740   30.9400   39.7070 C   0  0  0  0  0  0  0  0  0  0  0  0
   35.5220   30.3450   40.4120 C   0  0  0  0  0  0  0  0  0  0  0  0
   35.4390   28.8520   40.1630 C   0  0  0  0  0  0  0  0  0  0  0  0
   35.0780   28.6090   38.7060 C   0  0  0  0  0  0  0  0  0  0  0  0
   35.9070   29.4220   37.7840 C   0  0  0  0  0  0  0  0  0  0  0  0
   37.0570   30.0520   38.5160 C   0  0  0  0  0  0  0  0  0  0  0  0
   36.2750   31.8200   39.1010 H   0  0  0  0  0  0  0  0  0  0  0  0
   35.2240   30.6620   41.4150 H   0  0  0  0  0  0  0  0  0  0  0  0
   34.5630   30.6360   39.9080 H   0  0  0  0  0  0  0  0  0  0  0  0
   34.8070   28.3010   40.8440 H   0  0  0  0  0  0  0  0  0  0  0  0
   36.4720   28.3820   40.1480 H   0  0  0  0  0  0  0  0  0  0  0  0
   33.9830   28.8520   38.6200 H   0  0  0  0  0  0  0  0  0  0  0  0
   35.1930   27.5290   38.4950 H   0  0  0  0  0  0  0  0  0  0  0  0
   35.2650   30.2820   37.4290 H   0  0  0  0  0  0  0  0  0  0  0  0
   36.3070   28.8890   36.9190 H   0  0  0  0  0  0  0  0  0  0  0  0
   37.7570   29.2890   38.8990 H   0  0  0  0  0  0  0  0  0  0  0  0
   37.6320   30.6610   37.7880 H   0  0  0  0  0  0  0  0  0  0  0  0
   37.7680   31.4230   40.4030 C   0  0  0  0  0  0  0  0  0  0  0  0
   38.4520   30.4140   41.0850 C   0  0  0  0  0  0  0  0  0  0  0  0
   39.6160   30.9140   41.5680 C   0  0  0  0  0  0  0  0  0  0  0  0
   40.0410   32.1920   41.4180 N   0  0  0  0  0  0  0  0  0  0  0  0
   39.3630   33.1150   40.7790 C   0  0  0  0  0  0  0  0  0  0  0  0
   38.2210   32.7060   40.2730 N   0  0  0  0  0  0  0  0  0  0  0  0
   40.4530   30.5270   42.1430 H   0  0  0  0  0  0  0  0  0  0  0  0
   39.4990   34.1460   40.5520 H   0  0  0  0  0  0  0  0  0  0  0  0
   38.4190   29.0960   41.6100 C   0  0  0  0  0  3  0  0  0  0  0  0
   37.7000   29.0420   43.0090 C   0  0  0  0  0  2  0  0  0  0  0  0
   37.9830   27.7520   43.6800 C   0  0  0  0  0  2  0  0  0  0  0  0
   38.5180   26.6610   42.8130 C   0  0  0  0  0  2  0  0  0  0  0  0
   39.8280   27.0860   42.2270 C   0  0  0  0  0  2  0  0  0  0  0  0
   39.8150   28.6040   42.0300 C   0  0  0  0  0  2  0  0  0  0  0  0
  1 18  1  0  0  0  0
  1  2  1  0  0  0  0
  2  8  1  0  0  0  0
  3  2  1  0  0  0  0
  3 10  1  0  0  0  0
  4  3  1  0  0  0  0
  5  6  1  0  0  0  0
  5  4  1  0  0  0  0
  6 16  1  0  0  0  0
  6  1  1  0  0  0  0
  7  1  1  0  0  0  0
  9  2  1  0  0  0  0
 11  3  1  0  0  0  0
 12  4  1  0  0  0  0
 13  4  1  0  0  0  0
 14  5  1  0  0  0  0
 15  5  1  0  0  0  0
 17  6  1  0  0  0  0
 18 19  1  0  0  0  0
 19 20  2  0  0  0  0
 19 26  1  0  0  0  0
 20 24  1  0  0  0  0
 21 20  1  0  0  0  0
 22 21  2  0  0  0  0
 23 18  2  0  0  0  0
 23 22  1  0  0  0  0
 25 22  1  0  0  0  0
 26 31  1  0  0  0  0
 26 27  1  0  0  0  0
 27 28  1  0  0  0  0
 29 28  1  0  0  0  0
 30 29  1  0  0  0  0
 31 30  1  0  0  0  0
M  END
>  <minimizedAffinity>
-5.01700974

$$$$

 OpenBabel03242514143D

 31 33  0  0  0  0  0  0  0  0999 V2000
   37.8870   28.6470   40.9870 C   0  0  0  0  0  0  0  0  0  0  0  0
   37.9610   27.2730   41.2450 C   0  0  0  0  0  0  0  0  0  0  0  0
   37.0250   26.8500   42.3590 C   0  0  0  0  0  0  0  0  0  0  0  0
   37.4810   27.4860   43.6630 C   0  0  0  0  0  0  0  0  0  0  0  0
   37.7660   28.9320   43.5080 C   0  0  0  0  0  0  0  0  0  0  0  0
   37.2650   29.4350   42.1830 C   0  0  0  0  0  0  0  0  0  0  0  0
   38.8690   29.1630   40.9870 H   0  0  0  0  0  0  0  0  0  0  0  0
   38.1100   26.5280   40.4590 H   0  0  0  0  0  0  0  0  0  0  0  0
   38.9290   27.0760   41.7780 H   0  0  0  0  0  0  0  0  0  0  0  0
   36.8630   25.7860   42.4510 H   0  0  0  0  0  0  0  0  0  0  0  0
   36.0220   27.3750   42.2730 H   0  0  0  0  0  0  0  0  0  0  0  0
   38.3910   26.9060   43.9820 H   0  0  0  0  0  0  0  0  0  0  0  0
   36.6980   27.3150   44.4260 H   0  0  0  0  0  0  0  0  0  0  0  0
   38.8900   29.0490   43.4710 H   0  0  0  0  0  0  0  0  0  0  0  0
   37.3600   29.5770   44.2890 H   0  0  0  0  0  0  0  0  0  0  0  0
   36.1640   29.3730   42.1190 H   0  0  0  0  0  0  0  0  0  0  0  0
   37.5180   30.5130   42.1100 H   0  0  0  0  0  0  0  0  0  0  0  0
   37.2640   29.1500   39.7620 C   0  0  0  0  0  0  0  0  0  0  0  0
   37.7520   30.4000   39.3710 C   0  0  0  0  0  0  0  0  0  0  0  0
   37.2380   30.7180   38.1580 C   0  0  0  0  0  0  0  0  0  0  0  0
   36.3820   29.9480   37.4440 N   0  0  0  0  0  0  0  0  0  0  0  0
   35.9380   28.7830   37.8510 C   0  0  0  0  0  0  0  0  0  0  0  0
   36.3960   28.3990   39.0200 N   0  0  0  0  0  0  0  0  0  0  0  0
   37.3220   31.5550   37.4700 H   0  0  0  0  0  0  0  0  0  0  0  0
   35.2800   28.0380   37.4680 H   0  0  0  0  0  0  0  0  0  0  0  0
   38.4730   31.5660   39.7380 C   0  0  0  0  0  3  0  0  0  0  0  0
   37.5130   32.7800   40.0240 C   0  0  0  0  0  2  0  0  0  0  0  0
   38.2850   34.0440   40.0590 C   0  0  0  0  0  2  0  0  0  0  0  0
   39.7640   33.9100   40.2100 C   0  0  0  0  0  2  0  0  0  0  0  0
   40.3180   33.1530   39.0450 C   0  0  0  0  0  2  0  0  0  0  0  0
   39.2680   32.1510   38.5590 C   0  0  0  0  0  2  0  0  0  0  0  0
  1  2  1  0  0  0  0
  1  6  1  0  0  0  0
  2  9  1  0  0  0  0
  2  3  1  0  0  0  0
  3 10  1  0  0  0  0
  3  4  1  0  0  0  0
  4 12  1  0  0  0  0
  4 13  1  0  0  0  0
  5  4  1  0  0  0  0
  5 15  1  0  0  0  0
  6  5  1  0  0  0  0
  7  1  1  0  0  0  0
  8  2  1  0  0  0  0
 11  3  1  0  0  0  0
 14  5  1  0  0  0  0
 16  6  1  0  0  0  0
 17  6  1  0  0  0  0
 18  1  1  0  0  0  0
 19 26  1  0  0  0  0
 19 18  1  0  0  0  0
 20 19  2  0  0  0  0
 21 22  2  0  0  0  0
 21 20  1  0  0  0  0
 22 23  1  0  0  0  0
 23 18  2  0  0  0  0
 24 20  1  0  0  0  0
 25 22  1  0  0  0  0
 26 27  1  0  0  0  0
 27 28  1  0  0  0  0
 28 29  1  0  0  0  0
 30 29  1  0  0  0  0
 31 30  1  0  0  0  0
 31 26  1  0  0  0  0
M  END
>  <minimizedAffinity>
-5.01305723

$$$$
