
 OpenBabel03252505163D

 22 24  0  0  0  0  0  0  0  0999 V2000
   44.5610   35.8910   44.3710 C   0  0  0  0  0  0  0  0  0  0  0  0
   45.2690   35.8560   43.1570 C   0  0  0  0  0  0  0  0  0  0  0  0
   46.2400   34.8690   43.0620 C   0  0  0  0  0  0  0  0  0  0  0  0
   46.4600   34.0060   44.1080 N   0  0  0  0  0  0  0  0  0  0  0  0
   45.7400   34.0860   45.2610 C   0  0  0  0  0  0  0  0  0  0  0  0
   44.7940   35.0340   45.3790 N   0  0  0  0  0  0  0  0  0  0  0  0
   43.7880   36.6360   44.5150 H   0  0  0  0  0  0  0  0  0  0  0  0
   45.0820   36.5340   42.3640 H   0  0  0  0  0  0  0  0  0  0  0  0
   47.0540   34.7070   41.8090 C   0  0  0  0  0  0  0  0  0  0  0  0
   48.3460   35.4940   41.8500 C   0  0  0  0  0  0  0  0  0  0  0  0
   48.2940   33.9440   41.8780 C   0  0  0  0  0  0  0  0  0  0  0  0
   46.4590   34.7650   40.8810 H   0  0  0  0  0  0  0  0  0  0  0  0
   48.6430   36.0110   42.7740 H   0  0  0  0  0  0  0  0  0  0  0  0
   48.6130   35.9560   40.8830 H   0  0  0  0  0  0  0  0  0  0  0  0
   48.7040   33.5190   42.8060 H   0  0  0  0  0  0  0  0  0  0  0  0
   48.7070   33.4200   40.9720 H   0  0  0  0  0  0  0  0  0  0  0  0
   46.1440   33.0550   46.2550 C   0  0  0  0  0  0  0  0  0  0  0  0
   46.2460   31.6720   45.6650 C   0  0  0  0  0  0  0  0  0  0  0  0
   47.1810   30.8760   46.5840 C   0  0  0  0  0  0  0  0  0  0  0  0
   46.7070   31.0550   47.9890 C   0  0  0  0  0  0  0  0  0  0  0  0
   45.3040   31.6410   48.0760 C   0  0  0  0  0  0  0  0  0  0  0  0
   45.2350   33.0120   47.4590 C   0  0  0  0  0  0  0  0  0  0  0  0
  1  7  1  0  0  0  0
  1  6  1  0  0  0  0
  2  1  2  0  0  0  0
  3  2  1  0  0  0  0
  3  4  2  0  0  0  0
  4  5  1  0  0  0  0
  5  6  2  0  0  0  0
  5 17  1  0  0  0  0
  8  2  1  0  0  0  0
  9 10  1  0  0  0  0
  9 11  1  0  0  0  0
  9  3  1  0  0  0  0
 10 11  1  0  0  0  0
 10 13  1  0  0  0  0
 11 15  1  0  0  0  0
 12  9  1  0  0  0  0
 14 10  1  0  0  0  0
 16 11  1  0  0  0  0
 17 22  1  0  0  0  0
 18 17  1  0  0  0  0
 18 19  1  0  0  0  0
 19 20  1  0  0  0  0
 20 21  1  0  0  0  0
 22 21  1  0  0  0  0
M  END
>  <minimizedAffinity>
-5.23948526

>  <minimizedRMSD>
0.223768339

$$$$
