
 OpenBabel03242511553D

 31 33  0  0  1  0  0  0  0  0999 V2000
   44.0840   33.9240   40.1690 C   0  0  2  0  0  0  0  0  0  0  0  0
   44.0210   33.3250   38.7900 C   0  0  0  0  0  0  0  0  0  0  0  0
   44.5970   31.9450   38.7430 C   0  0  0  0  0  0  0  0  0  0  0  0
   46.0000   31.8730   39.2720 C   0  0  0  0  0  0  0  0  0  0  0  0
   46.2410   32.7750   40.4480 C   0  0  0  0  0  0  0  0  0  0  0  0
   44.9330   33.1630   41.1250 C   0  0  1  0  0  0  0  0  0  0  0  0
   44.5140   34.9770   40.1260 H   0  0  0  0  0  0  0  0  0  0  0  0
   44.5540   33.9790   38.0810 H   0  0  0  0  0  0  0  0  0  0  0  0
   42.9700   33.2640   38.4750 H   0  0  0  0  0  0  0  0  0  0  0  0
   43.9710   31.1340   39.1040 H   0  0  0  0  0  0  0  0  0  0  0  0
   44.7120   31.7240   37.6340 H   0  0  0  0  0  0  0  0  0  0  0  0
   46.7620   32.1180   38.4830 H   0  0  0  0  0  0  0  0  0  0  0  0
   46.1880   30.8010   39.5080 H   0  0  0  0  0  0  0  0  0  0  0  0
   46.9070   32.1890   41.1140 H   0  0  0  0  0  0  0  0  0  0  0  0
   46.7160   33.7120   40.0880 H   0  0  0  0  0  0  0  0  0  0  0  0
   44.4140   32.1620   41.2470 H   0  0  0  0  0  0  0  0  0  0  0  0
   42.7270   34.0880   40.7180 C   0  0  0  0  0  0  0  0  0  0  0  0
   42.3010   35.4070   40.9640 C   0  0  0  0  0  0  0  0  0  0  0  0
   41.0040   35.5910   41.4530 C   0  0  0  0  0  0  0  0  0  0  0  0
   40.2320   34.4790   41.6620 N   0  0  0  0  0  0  0  0  0  0  0  0
   40.6760   33.2210   41.4150 C   0  0  0  0  0  0  0  0  0  0  0  0
   41.9130   33.0450   40.9480 N   0  0  0  0  0  0  0  0  0  0  0  0
   42.8490   36.3230   40.8240 H   0  0  0  0  0  0  0  0  0  0  0  0
   40.6110   36.5710   41.6620 H   0  0  0  0  0  0  0  0  0  0  0  0
   39.9690   32.4290   41.6220 H   0  0  0  0  0  0  0  0  0  0  0  0
   45.1380   33.7330   42.4680 C   0  0  0  0  0  0  0  0  0  0  0  0
   45.7480   32.8080   43.4750 C   0  0  0  0  0  0  0  0  0  0  0  0
   46.9800   33.4580   44.1510 C   0  0  0  0  0  0  0  0  0  0  0  0
   47.8360   33.9370   42.9910 C   0  0  0  0  0  0  0  0  0  0  0  0
   47.1810   35.1920   42.4220 C   0  0  0  0  0  0  0  0  0  0  0  0
   45.6940   35.1260   42.5470 C   0  0  0  0  0  0  0  0  0  0  0  0
  1  7  1  6  0  0  0
  1 17  1  0  0  0  0
  1  6  1  0  0  0  0
  2  1  1  0  0  0  0
  3  2  1  0  0  0  0
  3 10  1  0  0  0  0
  3  4  1  0  0  0  0
  4 13  1  0  0  0  0
  4  5  1  0  0  0  0
  5 14  1  0  0  0  0
  5  6  1  0  0  0  0
  6 16  1  1  0  0  0
  6 26  1  0  0  0  0
  8  2  1  0  0  0  0
  9  2  1  0  0  0  0
 11  3  1  0  0  0  0
 12  4  1  0  0  0  0
 15  5  1  0  0  0  0
 17 22  2  0  0  0  0
 17 18  1  0  0  0  0
 18 19  2  0  0  0  0
 19 20  1  0  0  0  0
 19 24  1  0  0  0  0
 21 25  1  0  0  0  0
 21 20  2  0  0  0  0
 22 21  1  0  0  0  0
 23 18  1  0  0  0  0
 26 31  1  0  0  0  0
 26 27  1  0  0  0  0
 27 28  1  0  0  0  0
 29 28  1  0  0  0  0
 30 31  1  0  0  0  0
 30 29  1  0  0  0  0
M  END
>  <minimizedAffinity>
-4.32093716

>  <minimizedRMSD>
6.05252647

$$$$
