
 OpenBabel03252506573D

 35 39  0  0  0  0  0  0  0  0999 V2000
   47.2360   31.3740   45.1560 C   0  0  0  0  0  0  0  0  0  0  0  0
   46.8710   32.7070   45.1450 C   0  0  0  0  0  0  0  0  0  0  0  0
   46.2490   33.3350   46.2100 C   0  0  0  0  0  0  0  0  0  0  0  0
   45.9680   32.6100   47.3630 C   0  0  0  0  0  0  0  0  0  0  0  0
   45.3900   32.8780   48.5680 N   0  0  0  0  0  0  0  0  0  0  0  0
   45.4000   31.7390   49.3010 C   0  0  0  0  0  0  0  0  0  0  0  0
   45.9830   30.7820   48.5440 N   0  0  0  0  0  0  0  0  0  0  0  0
   46.3380   31.2900   47.3600 C   0  0  0  0  0  0  0  0  0  0  0  0
   46.9520   30.6480   46.3190 C   0  0  0  0  0  0  0  0  0  0  0  0
   47.7150   30.9160   44.3150 H   0  0  0  0  0  0  0  0  0  0  0  0
   45.9710   34.3710   46.1880 H   0  0  0  0  0  0  0  0  0  0  0  0
   45.0180   33.8370   48.8170 H   0  0  0  0  0  0  0  0  0  0  0  0
   44.9970   31.6800   50.3030 H   0  0  0  0  0  0  0  0  0  0  0  0
   46.5170   35.1650   42.4200 C   0  0  0  0  0  0  0  0  0  0  0  0
   47.6790   34.9800   41.6900 C   0  0  0  0  0  0  0  0  0  0  0  0
   48.5910   34.0130   42.1260 C   0  0  0  0  0  0  0  0  0  0  0  0
   48.2890   33.2970   43.2530 N   0  0  0  0  0  0  0  0  0  0  0  0
   47.1540   33.4970   43.9410 C   0  0  0  0  0  0  0  0  0  0  0  0
   46.2630   34.4270   43.5350 N   0  0  0  0  0  0  0  0  0  0  0  0
   45.7740   35.9120   42.1160 H   0  0  0  0  0  0  0  0  0  0  0  0
   47.8850   35.5570   40.8120 H   0  0  0  0  0  0  0  0  0  0  0  0
   49.5190   33.8280   41.5880 H   0  0  0  0  0  0  0  0  0  0  0  0
   47.3100   29.2220   46.4110 C   0  0  0  0  0  0  0  0  0  0  0  0
   48.6170   28.7540   46.5000 C   0  0  0  0  0  0  0  0  0  0  0  0
   48.4500   27.3570   46.5640 C   0  0  0  0  0  0  0  0  0  0  0  0
   47.0950   27.0790   46.5110 C   0  0  0  0  0  0  0  0  0  0  0  0
   46.4620   28.2370   46.4200 O   0  0  0  0  0  0  0  0  0  0  0  0
   49.5470   29.3120   46.5180 H   0  0  0  0  0  0  0  0  0  0  0  0
   49.2450   26.6310   46.6420 H   0  0  0  0  0  0  0  0  0  0  0  0
   46.4150   25.7440   46.5460 C   0  0  0  0  0  3  0  0  0  0  0  0
   47.3350   24.6670   47.0430 C   0  0  0  0  0  2  0  0  0  0  0  0
   47.9680   23.8780   45.9210 C   0  0  0  0  0  2  0  0  0  0  0  0
   46.9210   23.1570   45.1090 C   0  0  0  0  0  2  0  0  0  0  0  0
   45.6470   23.9470   45.0430 C   0  0  0  0  0  2  0  0  0  0  0  0
   45.8370   25.4330   45.1960 C   0  0  0  0  0  2  0  0  0  0  0  0
  1  9  1  0  0  0  0
  2  1  2  0  0  0  0
  2  3  1  0  0  0  0
  3  4  2  0  0  0  0
  4  5  1  0  0  0  0
  5 12  1  0  0  0  0
  5  6  1  0  0  0  0
  6 13  1  0  0  0  0
  7  6  2  0  0  0  0
  8  4  1  0  0  0  0
  8  7  1  0  0  0  0
  9 23  1  0  0  0  0
  9  8  2  0  0  0  0
 10  1  1  0  0  0  0
 11  3  1  0  0  0  0
 14 19  1  0  0  0  0
 15 16  1  0  0  0  0
 15 14  2  0  0  0  0
 16 17  2  0  0  0  0
 17 18  1  0  0  0  0
 18  2  1  0  0  0  0
 19 18  2  0  0  0  0
 20 14  1  0  0  0  0
 21 15  1  0  0  0  0
 22 16  1  0  0  0  0
 23 27  1  0  0  0  0
 23 24  2  0  0  0  0
 24 28  1  0  0  0  0
 24 25  1  0  0  0  0
 25 29  1  0  0  0  0
 26 30  1  0  0  0  0
 26 25  2  0  0  0  0
 27 26  1  0  0  0  0
 30 31  1  0  0  0  0
 32 31  1  0  0  0  0
 33 32  1  0  0  0  0
 34 33  1  0  0  0  0
 34 35  1  0  0  0  0
 35 30  1  0  0  0  0
M  END
>  <minimizedAffinity>
-5.24984789

>  <minimizedRMSD>
0.189692765

$$$$
