
 OpenBabel03252501463D

 20 21  0  0  0  0  0  0  0  0999 V2000
   44.7950   33.0610   43.0000 C   0  0  0  0  0  0  0  0  0  0  0  0
   45.3490   33.8810   43.9840 C   0  0  0  0  0  0  0  0  0  0  0  0
   45.0000   35.2280   43.9940 C   0  0  0  0  0  0  0  0  0  0  0  0
   44.1270   35.6740   43.0330 N   0  0  0  0  0  0  0  0  0  0  0  0
   43.6110   34.8610   42.1000 C   0  0  0  0  0  0  0  0  0  0  0  0
   43.9460   33.5720   42.0920 N   0  0  0  0  0  0  0  0  0  0  0  0
   45.0620   32.0010   42.9810 H   0  0  0  0  0  0  0  0  0  0  0  0
   45.4090   35.8920   44.7380 H   0  0  0  0  0  0  0  0  0  0  0  0
   42.6870   35.4750   41.1300 C   0  0  0  0  0  0  0  0  0  0  0  0
   41.2770   35.5430   41.6450 C   0  0  0  0  0  0  0  0  0  0  0  0
   40.3790   36.0710   40.5680 C   0  0  0  0  0  0  0  0  0  0  0  0
   40.4890   35.2780   39.3010 C   0  0  0  0  0  0  0  0  0  0  0  0
   41.9090   35.3980   38.7780 C   0  0  0  0  0  0  0  0  0  0  0  0
   42.8080   34.7490   39.8120 C   0  0  0  0  0  0  0  0  0  0  0  0
   46.2750   33.3850   44.9950 C   0  0  0  0  0  0  0  0  0  0  0  0
   45.9700   33.0650   46.2340 C   0  0  0  0  0  0  0  0  0  0  0  0
   47.0100   32.5580   47.2040 C   0  0  0  0  0  0  0  0  0  0  0  0
   46.8620   33.1120   48.1460 H   0  0  0  0  0  0  0  0  0  0  0  0
   47.9790   32.9060   46.7890 H   0  0  0  0  0  0  0  0  0  0  0  0
   46.9850   31.4660   47.3000 H   0  0  0  0  0  0  0  0  0  0  0  0
  1  2  1  0  0  0  0
  2  3  2  0  0  0  0
  2 15  1  0  0  0  0
  3  8  1  0  0  0  0
  4  3  1  0  0  0  0
  5  4  2  0  0  0  0
  6  5  1  0  0  0  0
  6  1  2  0  0  0  0
  7  1  1  0  0  0  0
  9 10  1  0  0  0  0
  9  5  1  0  0  0  0
 11 10  1  0  0  0  0
 12 11  1  0  0  0  0
 13 12  1  0  0  0  0
 13 14  1  0  0  0  0
 14  9  1  0  0  0  0
 15 16  2  0  0  0  0
 16 17  1  0  0  0  0
 17 20  1  0  0  0  0
 17 18  1  0  0  0  0
 19 17  1  0  0  0  0
M  END
>  <minimizedAffinity>
-5.10517693

>  <minimizedRMSD>
7.08469105

$$$$
