
 OpenBabel03252508193D

 44 48  0  0  1  0  0  0  0  0999 V2000
   36.0680   25.1250   38.2450 C   0  0  0  0  0  0  0  0  0  0  0  0
   36.4110   26.0290   38.7270 H   0  0  0  0  0  0  0  0  0  0  0  0
   36.9430   24.7500   37.6390 H   0  0  0  0  0  0  0  0  0  0  0  0
   35.5090   24.0470   39.1110 C   0  0  1  0  0  0  0  0  0  0  0  0
   36.3660   22.8320   39.2230 C   0  0  0  0  0  0  0  0  0  0  0  0
   36.1800   23.6990   40.3820 C   0  0  1  0  0  0  0  0  0  0  0  0
   34.4540   23.7240   38.8650 H   0  0  0  0  0  0  0  0  0  0  0  0
   35.9520   21.8090   39.2470 H   0  0  0  0  0  0  0  0  0  0  0  0
   37.3930   22.8550   38.7730 H   0  0  0  0  0  0  0  0  0  0  0  0
   35.5180   23.3150   41.1870 H   0  0  0  0  0  0  0  0  0  0  0  0
   37.2710   24.5980   40.8680 C   0  0  2  0  0  0  0  0  0  0  0  0
   37.8990   24.1550   42.2120 C   0  0  0  0  0  0  0  0  0  0  0  0
   37.0330   25.3320   42.1940 C   0  0  1  0  0  0  0  0  0  0  0  0
   38.0670   24.9480   40.1900 H   0  0  0  0  0  0  0  0  0  0  0  0
   37.5040   23.2330   42.6830 H   0  0  0  0  0  0  0  0  0  0  0  0
   38.9550   24.3160   42.4080 H   0  0  0  0  0  0  0  0  0  0  0  0
   36.0240   25.2290   42.6170 H   0  0  0  0  0  0  0  0  0  0  0  0
   37.5300   26.7480   42.1530 C   0  0  0  0  0  3  0  0  0  0  0  0
   37.3250   27.3240   40.7490 C   0  0  0  0  0  2  0  0  0  0  0  0
   36.2360   28.3790   40.7570 C   0  0  0  0  0  2  0  0  0  0  0  0
   36.7180   29.5380   41.6110 C   0  0  0  0  0  2  0  0  0  0  0  0
   37.3890   29.0580   42.8600 C   0  0  0  0  0  2  0  0  0  0  0  0
   36.8640   27.6490   43.1630 C   0  0  0  0  0  2  0  0  0  0  0  0
   34.8430   26.8660   37.2290 C   0  0  0  0  0  3  0  0  0  0  0  0
   35.0240   25.6120   37.2650 C   0  0  0  0  0  3  0  0  0  0  0  0
   32.6730   27.4410   34.3070 C   0  0  0  0  0  0  0  0  0  0  0  0
   31.8340   28.4570   34.7360 C   0  0  0  0  0  0  0  0  0  0  0  0
   32.0320   28.9150   36.0050 C   0  0  0  0  0  0  0  0  0  0  0  0
   33.0130   28.3750   36.7710 N   0  0  0  0  0  0  0  0  0  0  0  0
   33.8140   27.3900   36.3290 C   0  0  0  0  0  0  0  0  0  0  0  0
   33.6160   26.9520   35.1020 N   0  0  0  0  0  0  0  0  0  0  0  0
   32.5350   27.0550   33.2920 H   0  0  0  0  0  0  0  0  0  0  0  0
   31.0600   28.8710   34.1070 H   0  0  0  0  0  0  0  0  0  0  0  0
   31.2240   29.9800   36.5940 C   0  0  0  0  0  0  0  0  0  0  0  0
   30.6540   29.9070   37.8450 C   0  0  0  0  0  0  0  0  0  0  0  0
   29.8900   30.9160   38.4000 C   0  0  0  0  0  0  0  0  0  0  0  0
   29.6710   32.0690   37.6890 C   0  0  0  0  0  0  0  0  0  0  0  0
   30.2180   32.1910   36.4390 C   0  0  0  0  0  0  0  0  0  0  0  0
   30.9740   31.1530   35.9310 C   0  0  0  0  0  0  0  0  0  0  0  0
   30.8160   28.9920   38.4320 H   0  0  0  0  0  0  0  0  0  0  0  0
   29.4610   30.8030   39.3980 H   0  0  0  0  0  0  0  0  0  0  0  0
   29.0790   32.9010   38.0720 H   0  0  0  0  0  0  0  0  0  0  0  0
   30.0460   33.1020   35.8780 H   0  0  0  0  0  0  0  0  0  0  0  0
   31.3700   31.3330   34.9330 H   0  0  0  0  0  0  0  0  0  0  0  0
  1  2  1  0  0  0  0
  1  4  1  0  0  0  0
  3  1  1  0  0  0  0
  4  7  1  6  0  0  0
  4  5  1  0  0  0  0
  4  6  1  0  0  0  0
  5  8  1  0  0  0  0
  5  6  1  0  0  0  0
  6 11  1  0  0  0  0
  6 10  1  1  0  0  0
  9  5  1  0  0  0  0
 11 14  1  6  0  0  0
 11 13  1  0  0  0  0
 11 12  1  0  0  0  0
 12 16  1  0  0  0  0
 12 15  1  0  0  0  0
 13 12  1  0  0  0  0
 13 17  1  1  0  0  0
 18 13  1  0  0  0  0
 18 23  1  0  0  0  0
 19 20  1  0  0  0  0
 19 18  1  0  0  0  0
 20 21  1  0  0  0  0
 21 22  1  0  0  0  0
 22 23  1  0  0  0  0
 24 25  2  0  0  0  0
 25  1  1  0  0  0  0
 26 27  2  0  0  0  0
 26 31  1  0  0  0  0
 27 28  1  0  0  0  0
 28 34  1  0  0  0  0
 28 29  2  0  0  0  0
 30 29  1  0  0  0  0
 30 24  1  0  0  0  0
 31 30  2  0  0  0  0
 32 26  1  0  0  0  0
 33 27  1  0  0  0  0
 34 35  1  0  0  0  0
 35 36  2  0  0  0  0
 35 40  1  0  0  0  0
 36 41  1  0  0  0  0
 37 42  1  0  0  0  0
 37 36  1  0  0  0  0
 38 37  2  0  0  0  0
 39 38  1  0  0  0  0
 39 34  2  0  0  0  0
 43 38  1  0  0  0  0
 44 39  1  0  0  0  0
M  END
>  <minimizedAffinity>
-6.16402388

$$$$

 OpenBabel03252508193D

 44 48  0  0  1  0  0  0  0  0999 V2000
   37.4370   26.9150   39.1380 C   0  0  0  0  0  0  0  0  0  0  0  0
   37.5990   27.8950   39.5630 H   0  0  0  0  0  0  0  0  0  0  0  0
   38.4220   26.6130   38.6790 H   0  0  0  0  0  0  0  0  0  0  0  0
   36.9100   25.8480   40.0370 C   0  0  1  0  0  0  0  0  0  0  0  0
   37.9580   25.0610   40.7490 C   0  0  0  0  0  0  0  0  0  0  0  0
   37.0890   25.9610   41.5010 C   0  0  1  0  0  0  0  0  0  0  0  0
   36.1790   25.1300   39.5610 H   0  0  0  0  0  0  0  0  0  0  0  0
   37.8770   23.9730   40.9180 H   0  0  0  0  0  0  0  0  0  0  0  0
   39.0260   25.3910   40.6670 H   0  0  0  0  0  0  0  0  0  0  0  0
   36.3000   25.4860   42.1210 H   0  0  0  0  0  0  0  0  0  0  0  0
   37.5930   27.2580   42.0470 C   0  0  2  0  0  0  0  0  0  0  0  0
   37.0890   27.5770   43.4760 C   0  0  0  0  0  0  0  0  0  0  0  0
   36.5490   28.3410   42.3530 C   0  0  1  0  0  0  0  0  0  0  0  0
   38.6560   27.5390   41.9630 H   0  0  0  0  0  0  0  0  0  0  0  0
   36.4230   26.8370   43.9610 H   0  0  0  0  0  0  0  0  0  0  0  0
   37.7230   28.1070   44.1790 H   0  0  0  0  0  0  0  0  0  0  0  0
   35.5230   28.1140   42.0270 H   0  0  0  0  0  0  0  0  0  0  0  0
   37.0210   29.7090   41.9540 C   0  0  0  0  0  3  0  0  0  0  0  0
   38.4860   29.6390   41.5130 C   0  0  0  0  0  2  0  0  0  0  0  0
   38.6060   29.8590   40.0170 C   0  0  0  0  0  2  0  0  0  0  0  0
   38.1530   31.2770   39.7180 C   0  0  0  0  0  2  0  0  0  0  0  0
   36.9230   31.6360   40.4930 C   0  0  0  0  0  2  0  0  0  0  0  0
   36.1990   30.3320   40.8550 C   0  0  0  0  0  2  0  0  0  0  0  0
   35.3860   27.7370   38.3120 C   0  0  0  0  0  3  0  0  0  0  0  0
   36.4750   27.1710   37.9990 C   0  0  0  0  0  3  0  0  0  0  0  0
   33.5170   27.6020   35.1390 C   0  0  0  0  0  0  0  0  0  0  0  0
   32.4740   28.4900   35.3520 C   0  0  0  0  0  0  0  0  0  0  0  0
   32.4400   29.1070   36.5680 C   0  0  0  0  0  0  0  0  0  0  0  0
   33.3980   28.8360   37.4900 N   0  0  0  0  0  0  0  0  0  0  0  0
   34.4000   27.9700   37.2560 C   0  0  0  0  0  0  0  0  0  0  0  0
   34.4260   27.3770   36.0790 N   0  0  0  0  0  0  0  0  0  0  0  0
   33.5680   27.0930   34.1720 H   0  0  0  0  0  0  0  0  0  0  0  0
   31.7230   28.6900   34.6020 H   0  0  0  0  0  0  0  0  0  0  0  0
   31.4000   30.0660   36.9370 C   0  0  0  0  0  0  0  0  0  0  0  0
   31.0690   31.1660   36.1790 C   0  0  0  0  0  0  0  0  0  0  0  0
   30.0850   32.0710   36.5310 C   0  0  0  0  0  0  0  0  0  0  0  0
   29.3810   31.8890   37.6940 C   0  0  0  0  0  0  0  0  0  0  0  0
   29.6730   30.8080   38.4830 C   0  0  0  0  0  0  0  0  0  0  0  0
   30.6660   29.9340   38.0860 C   0  0  0  0  0  0  0  0  0  0  0  0
   31.6200   31.3310   35.2430 H   0  0  0  0  0  0  0  0  0  0  0  0
   29.8650   32.9280   35.8900 H   0  0  0  0  0  0  0  0  0  0  0  0
   28.5940   32.5660   38.0250 H   0  0  0  0  0  0  0  0  0  0  0  0
   29.1170   30.6640   39.4020 H   0  0  0  0  0  0  0  0  0  0  0  0
   30.8320   29.1040   38.7710 H   0  0  0  0  0  0  0  0  0  0  0  0
  1  2  1  0  0  0  0
  1  4  1  0  0  0  0
  3  1  1  0  0  0  0
  4  7  1  6  0  0  0
  4  5  1  0  0  0  0
  4  6  1  0  0  0  0
  5  8  1  0  0  0  0
  5  6  1  0  0  0  0
  6 11  1  0  0  0  0
  6 10  1  1  0  0  0
  9  5  1  0  0  0  0
 11 14  1  6  0  0  0
 11 13  1  0  0  0  0
 11 12  1  0  0  0  0
 12 15  1  0  0  0  0
 12 16  1  0  0  0  0
 13 17  1  6  0  0  0
 13 12  1  0  0  0  0
 18 13  1  0  0  0  0
 19 18  1  0  0  0  0
 20 19  1  0  0  0  0
 21 20  1  0  0  0  0
 21 22  1  0  0  0  0
 22 23  1  0  0  0  0
 23 18  1  0  0  0  0
 25 24  2  0  0  0  0
 25  1  1  0  0  0  0
 26 27  2  0  0  0  0
 26 31  1  0  0  0  0
 27 28  1  0  0  0  0
 28 34  1  0  0  0  0
 28 29  2  0  0  0  0
 30 29  1  0  0  0  0
 30 24  1  0  0  0  0
 31 30  2  0  0  0  0
 32 26  1  0  0  0  0
 33 27  1  0  0  0  0
 34 39  1  0  0  0  0
 35 36  1  0  0  0  0
 35 34  2  0  0  0  0
 36 37  2  0  0  0  0
 37 42  1  0  0  0  0
 37 38  1  0  0  0  0
 38 43  1  0  0  0  0
 39 38  2  0  0  0  0
 39 44  1  0  0  0  0
 40 35  1  0  0  0  0
 41 36  1  0  0  0  0
M  END
>  <minimizedAffinity>
-5.98005533

$$$$

 OpenBabel03252508193D

 44 48  0  0  1  0  0  0  0  0999 V2000
   37.2950   32.6050   39.9050 C   0  0  0  0  0  0  0  0  0  0  0  0
   37.0200   32.4460   40.9380 H   0  0  0  0  0  0  0  0  0  0  0  0
   36.4970   33.2770   39.4760 H   0  0  0  0  0  0  0  0  0  0  0  0
   38.6590   33.1380   39.6250 C   0  0  1  0  0  0  0  0  0  0  0  0
   39.1710   34.1030   40.6400 C   0  0  0  0  0  0  0  0  0  0  0  0
   39.7870   32.7860   40.5140 C   0  0  1  0  0  0  0  0  0  0  0  0
   38.8040   33.5840   38.5970 H   0  0  0  0  0  0  0  0  0  0  0  0
   39.7600   34.9970   40.3710 H   0  0  0  0  0  0  0  0  0  0  0  0
   38.5780   34.2620   41.5780 H   0  0  0  0  0  0  0  0  0  0  0  0
   40.7870   32.7500   40.0330 H   0  0  0  0  0  0  0  0  0  0  0  0
   39.5650   31.7190   41.5380 C   0  0  2  0  0  0  0  0  0  0  0  0
   40.8610   31.2410   42.2380 C   0  0  0  0  0  0  0  0  0  0  0  0
   40.2130   30.3530   41.2750 C   0  0  1  0  0  0  0  0  0  0  0  0
   38.7560   31.8020   42.2820 H   0  0  0  0  0  0  0  0  0  0  0  0
   41.8130   31.7200   41.9360 H   0  0  0  0  0  0  0  0  0  0  0  0
   40.8460   30.9410   43.2810 H   0  0  0  0  0  0  0  0  0  0  0  0
   40.6870   30.2360   40.2900 H   0  0  0  0  0  0  0  0  0  0  0  0
   39.3050   29.2170   41.6490 C   0  0  0  0  0  3  0  0  0  0  0  0
   40.1160   27.9220   41.7500 C   0  0  0  0  0  2  0  0  0  0  0  0
   40.2260   27.4700   43.1930 C   0  0  0  0  0  2  0  0  0  0  0  0
   38.8310   27.1210   43.6780 C   0  0  0  0  0  2  0  0  0  0  0  0
   37.8220   28.1280   43.2210 C   0  0  0  0  0  2  0  0  0  0  0  0
   38.5630   29.4420   42.9430 C   0  0  0  0  0  2  0  0  0  0  0  0
   36.2390   30.4980   39.8010 C   0  0  0  0  0  3  0  0  0  0  0  0
   37.1170   31.2430   39.2710 C   0  0  0  0  0  3  0  0  0  0  0  0
   35.1440   27.6480   37.7380 C   0  0  0  0  0  0  0  0  0  0  0  0
   35.7990   26.5720   38.3180 C   0  0  0  0  0  0  0  0  0  0  0  0
   36.5930   26.8500   39.3910 C   0  0  0  0  0  0  0  0  0  0  0  0
   36.7040   28.1280   39.8350 N   0  0  0  0  0  0  0  0  0  0  0  0
   36.0550   29.1520   39.2550 C   0  0  0  0  0  0  0  0  0  0  0  0
   35.2910   28.8760   38.2170 N   0  0  0  0  0  0  0  0  0  0  0  0
   34.5010   27.4520   36.8750 H   0  0  0  0  0  0  0  0  0  0  0  0
   35.6950   25.5630   37.9460 H   0  0  0  0  0  0  0  0  0  0  0  0
   37.3470   25.8200   40.1030 C   0  0  0  0  0  0  0  0  0  0  0  0
   38.6210   25.4290   39.7590 C   0  0  0  0  0  0  0  0  0  0  0  0
   39.3310   24.4540   40.4350 C   0  0  0  0  0  0  0  0  0  0  0  0
   38.7620   23.8240   41.5120 C   0  0  0  0  0  0  0  0  0  0  0  0
   37.4950   24.1790   41.8940 C   0  0  0  0  0  0  0  0  0  0  0  0
   36.8280   25.1590   41.1850 C   0  0  0  0  0  0  0  0  0  0  0  0
   39.0970   25.9200   38.8990 H   0  0  0  0  0  0  0  0  0  0  0  0
   40.3410   24.1830   40.1170 H   0  0  0  0  0  0  0  0  0  0  0  0
   39.2700   23.0490   42.0860 H   0  0  0  0  0  0  0  0  0  0  0  0
   37.0450   23.6820   42.7450 H   0  0  0  0  0  0  0  0  0  0  0  0
   35.8290   25.3790   41.5560 H   0  0  0  0  0  0  0  0  0  0  0  0
  1  2  1  0  0  0  0
  3  1  1  0  0  0  0
  4  7  1  6  0  0  0
  4  1  1  0  0  0  0
  4  6  1  0  0  0  0
  4  5  1  0  0  0  0
  5  9  1  0  0  0  0
  6 10  1  6  0  0  0
  6  5  1  0  0  0  0
  6 11  1  0  0  0  0
  8  5  1  0  0  0  0
 11 12  1  0  0  0  0
 11 14  1  1  0  0  0
 12 16  1  0  0  0  0
 13 17  1  6  0  0  0
 13 11  1  0  0  0  0
 13 18  1  0  0  0  0
 13 12  1  0  0  0  0
 15 12  1  0  0  0  0
 18 19  1  0  0  0  0
 18 23  1  0  0  0  0
 19 20  1  0  0  0  0
 20 21  1  0  0  0  0
 22 21  1  0  0  0  0
 23 22  1  0  0  0  0
 25 24  2  0  0  0  0
 25  1  1  0  0  0  0
 26 31  2  0  0  0  0
 26 27  1  0  0  0  0
 27 28  2  0  0  0  0
 28 29  1  0  0  0  0
 28 34  1  0  0  0  0
 30 24  1  0  0  0  0
 30 29  2  0  0  0  0
 31 30  1  0  0  0  0
 32 26  1  0  0  0  0
 33 27  1  0  0  0  0
 34 39  1  0  0  0  0
 35 34  2  0  0  0  0
 35 36  1  0  0  0  0
 36 37  2  0  0  0  0
 37 38  1  0  0  0  0
 37 42  1  0  0  0  0
 38 43  1  0  0  0  0
 39 44  1  0  0  0  0
 39 38  2  0  0  0  0
 40 35  1  0  0  0  0
 41 36  1  0  0  0  0
M  END
>  <minimizedAffinity>
-5.95278931

$$$$

 OpenBabel03252508193D

 44 48  0  0  1  0  0  0  0  0999 V2000
   38.2080   23.7270   38.1170 C   0  0  0  0  0  0  0  0  0  0  0  0
   39.2020   24.0070   38.4330 H   0  0  0  0  0  0  0  0  0  0  0  0
   38.3180   23.3500   37.0590 H   0  0  0  0  0  0  0  0  0  0  0  0
   37.4600   22.7510   38.9620 C   0  0  1  0  0  0  0  0  0  0  0  0
   38.3200   21.8750   39.8100 C   0  0  0  0  0  0  0  0  0  0  0  0
   37.4740   22.8870   40.4350 C   0  0  1  0  0  0  0  0  0  0  0  0
   36.7150   22.1040   38.4120 H   0  0  0  0  0  0  0  0  0  0  0  0
   38.0960   20.8090   39.9860 H   0  0  0  0  0  0  0  0  0  0  0  0
   39.4200   22.0830   39.8550 H   0  0  0  0  0  0  0  0  0  0  0  0
   36.5680   22.5210   40.9610 H   0  0  0  0  0  0  0  0  0  0  0  0
   38.0520   24.1370   41.0170 C   0  0  2  0  0  0  0  0  0  0  0  0
   37.9920   24.1960   42.5640 C   0  0  0  0  0  0  0  0  0  0  0  0
   37.0960   25.0550   41.7910 C   0  0  1  0  0  0  0  0  0  0  0  0
   39.0220   24.5310   40.6740 H   0  0  0  0  0  0  0  0  0  0  0  0
   37.5450   23.3310   43.0930 H   0  0  0  0  0  0  0  0  0  0  0  0
   38.7820   24.6810   43.1290 H   0  0  0  0  0  0  0  0  0  0  0  0
   36.0330   24.7760   41.7480 H   0  0  0  0  0  0  0  0  0  0  0  0
   37.3520   26.5060   41.5060 C   0  0  0  0  0  3  0  0  0  0  0  0
   36.9860   27.3440   42.7340 C   0  0  0  0  0  2  0  0  0  0  0  0
   38.2320   27.9100   43.3880 C   0  0  0  0  0  2  0  0  0  0  0  0
   38.8740   28.8750   42.4080 C   0  0  0  0  0  2  0  0  0  0  0  0
   38.8700   28.3270   41.0140 C   0  0  0  0  0  2  0  0  0  0  0  0
   38.7780   26.7980   41.1110 C   0  0  0  0  0  2  0  0  0  0  0  0
   36.2190   24.9630   37.8370 C   0  0  0  0  0  3  0  0  0  0  0  0
   37.4670   25.0430   38.0460 C   0  0  0  0  0  3  0  0  0  0  0  0
   33.6740   27.4660   36.9240 C   0  0  0  0  0  0  0  0  0  0  0  0
   34.1140   28.6100   37.5710 C   0  0  0  0  0  0  0  0  0  0  0  0
   35.2630   28.4950   38.2970 C   0  0  0  0  0  0  0  0  0  0  0  0
   35.9080   27.3020   38.3540 N   0  0  0  0  0  0  0  0  0  0  0  0
   35.4580   26.2080   37.7150 C   0  0  0  0  0  0  0  0  0  0  0  0
   34.3470   26.3270   37.0160 N   0  0  0  0  0  0  0  0  0  0  0  0
   32.7540   27.5320   36.3350 H   0  0  0  0  0  0  0  0  0  0  0  0
   33.5830   29.5490   37.5110 H   0  0  0  0  0  0  0  0  0  0  0  0
   35.8470   29.6140   39.0330 C   0  0  0  0  0  0  0  0  0  0  0  0
   35.6460   29.8350   40.3770 C   0  0  0  0  0  0  0  0  0  0  0  0
   36.2000   30.8940   41.0710 C   0  0  0  0  0  0  0  0  0  0  0  0
   37.0000   31.7920   40.4110 C   0  0  0  0  0  0  0  0  0  0  0  0
   37.2310   31.6150   39.0720 C   0  0  0  0  0  0  0  0  0  0  0  0
   36.6530   30.5400   38.4260 C   0  0  0  0  0  0  0  0  0  0  0  0
   35.0090   29.1270   40.9260 H   0  0  0  0  0  0  0  0  0  0  0  0
   36.0060   31.0200   42.1380 H   0  0  0  0  0  0  0  0  0  0  0  0
   37.4660   32.6470   40.9010 H   0  0  0  0  0  0  0  0  0  0  0  0
   37.8630   32.3250   38.5510 H   0  0  0  0  0  0  0  0  0  0  0  0
   36.8890   30.4760   37.3650 H   0  0  0  0  0  0  0  0  0  0  0  0
  1  2  1  0  0  0  0
  1  4  1  0  0  0  0
  3  1  1  0  0  0  0
  4  7  1  6  0  0  0
  4  5  1  0  0  0  0
  4  6  1  0  0  0  0
  5  9  1  0  0  0  0
  5  8  1  0  0  0  0
  5  6  1  0  0  0  0
  6 10  1  1  0  0  0
  6 11  1  0  0  0  0
 11 14  1  6  0  0  0
 11 13  1  0  0  0  0
 11 12  1  0  0  0  0
 12 15  1  0  0  0  0
 12 16  1  0  0  0  0
 13 17  1  6  0  0  0
 13 12  1  0  0  0  0
 18 13  1  0  0  0  0
 18 19  1  0  0  0  0
 19 20  1  0  0  0  0
 21 20  1  0  0  0  0
 22 23  1  0  0  0  0
 22 21  1  0  0  0  0
 23 18  1  0  0  0  0
 24 25  2  0  0  0  0
 25  1  1  0  0  0  0
 26 31  2  0  0  0  0
 26 27  1  0  0  0  0
 27 28  2  0  0  0  0
 28 29  1  0  0  0  0
 28 34  1  0  0  0  0
 30 24  1  0  0  0  0
 30 29  2  0  0  0  0
 31 30  1  0  0  0  0
 32 26  1  0  0  0  0
 33 27  1  0  0  0  0
 34 35  1  0  0  0  0
 35 40  1  0  0  0  0
 35 36  2  0  0  0  0
 36 41  1  0  0  0  0
 37 42  1  0  0  0  0
 37 36  1  0  0  0  0
 38 37  2  0  0  0  0
 39 34  2  0  0  0  0
 39 38  1  0  0  0  0
 43 38  1  0  0  0  0
 44 39  1  0  0  0  0
M  END
>  <minimizedAffinity>
-5.94118738

$$$$

 OpenBabel03252508193D

 44 48  0  0  1  0  0  0  0  0999 V2000
   41.7280   29.6100   42.9920 C   0  0  0  0  0  0  0  0  0  0  0  0
   41.0520   29.0960   43.6600 H   0  0  0  0  0  0  0  0  0  0  0  0
   42.1560   30.4670   43.5890 H   0  0  0  0  0  0  0  0  0  0  0  0
   42.8080   28.8090   42.3470 C   0  0  1  0  0  0  0  0  0  0  0  0
   43.6680   28.0450   43.2960 C   0  0  0  0  0  0  0  0  0  0  0  0
   42.7640   27.3310   42.4000 C   0  0  1  0  0  0  0  0  0  0  0  0
   43.4740   29.3780   41.6330 H   0  0  0  0  0  0  0  0  0  0  0  0
   44.7570   27.9330   43.1580 H   0  0  0  0  0  0  0  0  0  0  0  0
   43.3810   28.0190   44.3800 H   0  0  0  0  0  0  0  0  0  0  0  0
   43.2300   26.8040   41.5410 H   0  0  0  0  0  0  0  0  0  0  0  0
   41.5130   26.6860   42.9040 C   0  0  2  0  0  0  0  0  0  0  0  0
   41.5230   25.1400   42.8130 C   0  0  0  0  0  0  0  0  0  0  0  0
   40.6770   25.8940   41.8900 C   0  0  1  0  0  0  0  0  0  0  0  0
   41.0580   26.9930   43.8600 H   0  0  0  0  0  0  0  0  0  0  0  0
   42.4310   24.6560   42.4000 H   0  0  0  0  0  0  0  0  0  0  0  0
   41.0250   24.5390   43.5670 H   0  0  0  0  0  0  0  0  0  0  0  0
   41.0060   25.9710   40.8430 H   0  0  0  0  0  0  0  0  0  0  0  0
   39.2040   26.1130   42.0780 C   0  0  0  0  0  3  0  0  0  0  0  0
   38.9340   26.5790   43.5120 C   0  0  0  0  0  2  0  0  0  0  0  0
   38.5060   28.0330   43.5310 C   0  0  0  0  0  2  0  0  0  0  0  0
   37.1760   28.1370   42.8070 C   0  0  0  0  0  2  0  0  0  0  0  0
   37.1630   27.3060   41.5610 C   0  0  0  0  0  2  0  0  0  0  0  0
   38.6170   27.1110   41.1120 C   0  0  0  0  0  2  0  0  0  0  0  0
   40.0880   31.1710   42.3340 C   0  0  0  0  0  3  0  0  0  0  0  0
   40.8160   30.2090   41.9450 C   0  0  0  0  0  3  0  0  0  0  0  0
   38.3040   33.5430   40.1490 C   0  0  0  0  0  0  0  0  0  0  0  0
   37.3420   32.7490   39.5450 C   0  0  0  0  0  0  0  0  0  0  0  0
   37.3300   31.4320   39.8990 C   0  0  0  0  0  0  0  0  0  0  0  0
   38.2320   30.9680   40.8020 N   0  0  0  0  0  0  0  0  0  0  0  0
   39.1540   31.7620   41.3740 C   0  0  0  0  0  0  0  0  0  0  0  0
   39.1600   33.0330   41.0250 N   0  0  0  0  0  0  0  0  0  0  0  0
   38.3360   34.6040   39.8820 H   0  0  0  0  0  0  0  0  0  0  0  0
   36.6350   33.1410   38.8290 H   0  0  0  0  0  0  0  0  0  0  0  0
   36.3760   30.4740   39.3440 C   0  0  0  0  0  0  0  0  0  0  0  0
   36.4070   30.0290   38.0420 C   0  0  0  0  0  0  0  0  0  0  0  0
   35.5020   29.1230   37.5210 C   0  0  0  0  0  0  0  0  0  0  0  0
   34.5080   28.6200   38.3210 C   0  0  0  0  0  0  0  0  0  0  0  0
   34.4360   29.0320   39.6250 C   0  0  0  0  0  0  0  0  0  0  0  0
   35.3640   29.9400   40.0970 C   0  0  0  0  0  0  0  0  0  0  0  0
   37.1950   30.4190   37.3830 H   0  0  0  0  0  0  0  0  0  0  0  0
   35.5750   28.8050   36.4780 H   0  0  0  0  0  0  0  0  0  0  0  0
   33.7670   27.9030   37.9690 H   0  0  0  0  0  0  0  0  0  0  0  0
   33.6500   28.6350   40.2580 H   0  0  0  0  0  0  0  0  0  0  0  0
   35.2330   30.2120   41.1430 H   0  0  0  0  0  0  0  0  0  0  0  0
  1  3  1  0  0  0  0
  1  2  1  0  0  0  0
  4  7  1  6  0  0  0
  4  6  1  0  0  0  0
  4  1  1  0  0  0  0
  4  5  1  0  0  0  0
  5  9  1  0  0  0  0
  6 10  1  6  0  0  0
  6 11  1  0  0  0  0
  6  5  1  0  0  0  0
  8  5  1  0  0  0  0
 11 14  1  1  0  0  0
 12 11  1  0  0  0  0
 12 16  1  0  0  0  0
 13 17  1  6  0  0  0
 13 18  1  0  0  0  0
 13 12  1  0  0  0  0
 13 11  1  0  0  0  0
 15 12  1  0  0  0  0
 18 19  1  0  0  0  0
 19 20  1  0  0  0  0
 21 20  1  0  0  0  0
 22 21  1  0  0  0  0
 23 22  1  0  0  0  0
 23 18  1  0  0  0  0
 25 24  2  0  0  0  0
 25  1  1  0  0  0  0
 26 31  1  0  0  0  0
 27 28  1  0  0  0  0
 27 26  2  0  0  0  0
 28 29  2  0  0  0  0
 29 30  1  0  0  0  0
 30 24  1  0  0  0  0
 31 30  2  0  0  0  0
 32 26  1  0  0  0  0
 33 27  1  0  0  0  0
 34 28  1  0  0  0  0
 34 39  1  0  0  0  0
 35 34  2  0  0  0  0
 36 35  1  0  0  0  0
 36 37  2  0  0  0  0
 37 38  1  0  0  0  0
 38 39  2  0  0  0  0
 38 43  1  0  0  0  0
 39 44  1  0  0  0  0
 40 35  1  0  0  0  0
 41 36  1  0  0  0  0
 42 37  1  0  0  0  0
M  END
>  <minimizedAffinity>
-5.90833759

$$$$

 OpenBabel03252508193D

 44 48  0  0  1  0  0  0  0  0999 V2000
   35.6350   29.3250   40.5630 C   0  0  0  0  0  0  0  0  0  0  0  0
   36.0660   28.3580   40.7750 H   0  0  0  0  0  0  0  0  0  0  0  0
   35.1300   29.6510   41.5180 H   0  0  0  0  0  0  0  0  0  0  0  0
   36.5400   30.3900   40.0400 C   0  0  1  0  0  0  0  0  0  0  0  0
   37.1140   31.2860   41.0850 C   0  0  0  0  0  0  0  0  0  0  0  0
   37.9820   30.3580   40.3660 C   0  0  1  0  0  0  0  0  0  0  0  0
   36.1120   31.0270   39.2120 H   0  0  0  0  0  0  0  0  0  0  0  0
   37.2490   32.3710   40.9320 H   0  0  0  0  0  0  0  0  0  0  0  0
   36.9400   31.0350   42.1630 H   0  0  0  0  0  0  0  0  0  0  0  0
   38.6580   30.7990   39.6050 H   0  0  0  0  0  0  0  0  0  0  0  0
   38.5250   29.1290   41.0230 C   0  0  2  0  0  0  0  0  0  0  0  0
   40.0340   28.8950   40.7680 C   0  0  0  0  0  0  0  0  0  0  0  0
   39.0650   28.0250   40.1040 C   0  0  1  0  0  0  0  0  0  0  0  0
   38.2900   28.8930   42.0740 H   0  0  0  0  0  0  0  0  0  0  0  0
   40.5700   29.6380   40.1450 H   0  0  0  0  0  0  0  0  0  0  0  0
   40.6600   28.4480   41.5340 H   0  0  0  0  0  0  0  0  0  0  0  0
   38.8940   28.1800   39.0290 H   0  0  0  0  0  0  0  0  0  0  0  0
   38.6870   26.6550   40.5860 C   0  0  0  0  0  3  0  0  0  0  0  0
   38.6750   26.6330   42.1170 C   0  0  0  0  0  2  0  0  0  0  0  0
   37.2570   26.5120   42.6400 C   0  0  0  0  0  2  0  0  0  0  0  0
   36.7150   25.1630   42.2050 C   0  0  0  0  0  2  0  0  0  0  0  0
   37.0830   24.8540   40.7870 C   0  0  0  0  0  2  0  0  0  0  0  0
   37.3510   26.1840   40.0710 C   0  0  0  0  0  2  0  0  0  0  0  0
   34.9170   28.4780   38.4820 C   0  0  0  0  0  3  0  0  0  0  0  0
   34.5410   29.0220   39.5630 C   0  0  0  0  0  3  0  0  0  0  0  0
   32.7370   26.7780   36.0460 C   0  0  0  0  0  0  0  0  0  0  0  0
   31.9650   27.8120   35.5410 C   0  0  0  0  0  0  0  0  0  0  0  0
   32.2100   29.0560   36.0450 C   0  0  0  0  0  0  0  0  0  0  0  0
   33.1700   29.2240   36.9900 N   0  0  0  0  0  0  0  0  0  0  0  0
   33.9060   28.2020   37.4600 C   0  0  0  0  0  0  0  0  0  0  0  0
   33.6620   27.0030   36.9690 N   0  0  0  0  0  0  0  0  0  0  0  0
   32.5600   25.7700   35.6590 H   0  0  0  0  0  0  0  0  0  0  0  0
   31.2060   27.6540   34.7890 H   0  0  0  0  0  0  0  0  0  0  0  0
   31.4750   30.2420   35.6120 C   0  0  0  0  0  0  0  0  0  0  0  0
   31.3970   30.6580   34.3020 C   0  0  0  0  0  0  0  0  0  0  0  0
   30.7000   31.7810   33.8950 C   0  0  0  0  0  0  0  0  0  0  0  0
   30.0380   32.5420   34.8250 C   0  0  0  0  0  0  0  0  0  0  0  0
   30.0850   32.1680   36.1420 C   0  0  0  0  0  0  0  0  0  0  0  0
   30.7960   31.0380   36.4960 C   0  0  0  0  0  0  0  0  0  0  0  0
   31.9190   30.0630   33.5400 H   0  0  0  0  0  0  0  0  0  0  0  0
   30.6730   32.0640   32.8410 H   0  0  0  0  0  0  0  0  0  0  0  0
   29.4720   33.4370   34.5670 H   0  0  0  0  0  0  0  0  0  0  0  0
   29.5620   32.7700   36.8760 H   0  0  0  0  0  0  0  0  0  0  0  0
   30.7800   30.8150   37.5610 H   0  0  0  0  0  0  0  0  0  0  0  0
  1  2  1  0  0  0  0
  1  3  1  0  0  0  0
  4  7  1  6  0  0  0
  4  6  1  0  0  0  0
  4  1  1  0  0  0  0
  4  5  1  0  0  0  0
  5  9  1  0  0  0  0
  6 10  1  6  0  0  0
  6 11  1  0  0  0  0
  6  5  1  0  0  0  0
  8  5  1  0  0  0  0
 11 14  1  1  0  0  0
 12 11  1  0  0  0  0
 12 16  1  0  0  0  0
 13 17  1  6  0  0  0
 13 18  1  0  0  0  0
 13 12  1  0  0  0  0
 13 11  1  0  0  0  0
 15 12  1  0  0  0  0
 18 19  1  0  0  0  0
 19 20  1  0  0  0  0
 21 20  1  0  0  0  0
 22 21  1  0  0  0  0
 23 18  1  0  0  0  0
 23 22  1  0  0  0  0
 24 25  2  0  0  0  0
 25  1  1  0  0  0  0
 26 31  1  0  0  0  0
 27 28  1  0  0  0  0
 27 26  2  0  0  0  0
 28 29  2  0  0  0  0
 29 30  1  0  0  0  0
 30 24  1  0  0  0  0
 31 30  2  0  0  0  0
 32 26  1  0  0  0  0
 33 27  1  0  0  0  0
 34 28  1  0  0  0  0
 34 39  1  0  0  0  0
 35 34  2  0  0  0  0
 36 35  1  0  0  0  0
 36 37  2  0  0  0  0
 37 38  1  0  0  0  0
 38 39  2  0  0  0  0
 38 43  1  0  0  0  0
 39 44  1  0  0  0  0
 40 35  1  0  0  0  0
 41 36  1  0  0  0  0
 42 37  1  0  0  0  0
M  END
>  <minimizedAffinity>
-5.77602625

$$$$

 OpenBabel03252508193D

 44 48  0  0  1  0  0  0  0  0999 V2000
   36.8080   30.9550   41.0300 C   0  0  0  0  0  0  0  0  0  0  0  0
   36.9530   30.2580   41.8430 H   0  0  0  0  0  0  0  0  0  0  0  0
   36.2210   31.8150   41.4660 H   0  0  0  0  0  0  0  0  0  0  0  0
   38.0190   31.4400   40.3070 C   0  0  1  0  0  0  0  0  0  0  0  0
   38.8210   32.4570   41.0480 C   0  0  0  0  0  0  0  0  0  0  0  0
   39.3660   31.1210   40.8270 C   0  0  1  0  0  0  0  0  0  0  0  0
   37.8390   31.8160   39.2570 H   0  0  0  0  0  0  0  0  0  0  0  0
   39.2980   33.3190   40.5500 H   0  0  0  0  0  0  0  0  0  0  0  0
   38.5460   32.6880   42.1100 H   0  0  0  0  0  0  0  0  0  0  0  0
   40.1690   31.0330   40.0650 H   0  0  0  0  0  0  0  0  0  0  0  0
   39.4710   30.1270   41.9390 C   0  0  2  0  0  0  0  0  0  0  0  0
   40.9200   29.6730   42.2410 C   0  0  0  0  0  0  0  0  0  0  0  0
   40.0120   28.7360   41.5840 C   0  0  1  0  0  0  0  0  0  0  0  0
   38.9280   30.2720   42.8870 H   0  0  0  0  0  0  0  0  0  0  0  0
   41.7340   30.1140   41.6320 H   0  0  0  0  0  0  0  0  0  0  0  0
   41.2260   29.4410   43.2570 H   0  0  0  0  0  0  0  0  0  0  0  0
   40.1620   28.5460   40.5110 H   0  0  0  0  0  0  0  0  0  0  0  0
   39.2650   27.6430   42.2920 C   0  0  0  0  0  3  0  0  0  0  0  0
   38.4860   28.2330   43.4710 C   0  0  0  0  0  2  0  0  0  0  0  0
   36.9950   28.2020   43.1960 C   0  0  0  0  0  2  0  0  0  0  0  0
   36.5680   26.7470   43.1080 C   0  0  0  0  0  2  0  0  0  0  0  0
   37.5520   25.9330   42.3260 C   0  0  0  0  0  2  0  0  0  0  0  0
   38.3160   26.8850   41.3970 C   0  0  0  0  0  2  0  0  0  0  0  0
   36.3320   29.1360   39.6080 C   0  0  0  0  0  3  0  0  0  0  0  0
   35.8840   30.2210   40.0850 C   0  0  0  0  0  3  0  0  0  0  0  0
   34.8720   26.4840   37.5070 C   0  0  0  0  0  0  0  0  0  0  0  0
   33.8520   27.1410   36.8370 C   0  0  0  0  0  0  0  0  0  0  0  0
   33.6940   28.4660   37.1200 C   0  0  0  0  0  0  0  0  0  0  0  0
   34.5160   29.0670   38.0180 N   0  0  0  0  0  0  0  0  0  0  0  0
   35.4980   28.4040   38.6530 C   0  0  0  0  0  0  0  0  0  0  0  0
   35.6440   27.1240   38.3750 N   0  0  0  0  0  0  0  0  0  0  0  0
   35.0200   25.4200   37.2990 H   0  0  0  0  0  0  0  0  0  0  0  0
   33.2100   26.6410   36.1270 H   0  0  0  0  0  0  0  0  0  0  0  0
   32.6610   29.2890   36.4940 C   0  0  0  0  0  0  0  0  0  0  0  0
   31.5800   29.8070   37.1690 C   0  0  0  0  0  0  0  0  0  0  0  0
   30.6050   30.5850   36.5740 C   0  0  0  0  0  0  0  0  0  0  0  0
   30.6930   30.8750   35.2360 C   0  0  0  0  0  0  0  0  0  0  0  0
   31.7510   30.3820   34.5190 C   0  0  0  0  0  0  0  0  0  0  0  0
   32.6980   29.6100   35.1620 C   0  0  0  0  0  0  0  0  0  0  0  0
   31.4890   29.5880   38.2430 H   0  0  0  0  0  0  0  0  0  0  0  0
   29.7670   30.9700   37.1600 H   0  0  0  0  0  0  0  0  0  0  0  0
   29.9570   31.4830   34.7090 H   0  0  0  0  0  0  0  0  0  0  0  0
   31.8200   30.6110   33.4620 H   0  0  0  0  0  0  0  0  0  0  0  0
   33.5040   29.2610   34.5190 H   0  0  0  0  0  0  0  0  0  0  0  0
  1  3  1  0  0  0  0
  1  2  1  0  0  0  0
  4  7  1  6  0  0  0
  4  6  1  0  0  0  0
  4  1  1  0  0  0  0
  4  5  1  0  0  0  0
  5  9  1  0  0  0  0
  6 10  1  6  0  0  0
  6  5  1  0  0  0  0
  6 11  1  0  0  0  0
  8  5  1  0  0  0  0
 11 12  1  0  0  0  0
 11 14  1  1  0  0  0
 12 16  1  0  0  0  0
 13 17  1  6  0  0  0
 13 11  1  0  0  0  0
 13 12  1  0  0  0  0
 13 18  1  0  0  0  0
 15 12  1  0  0  0  0
 18 19  1  0  0  0  0
 20 19  1  0  0  0  0
 21 20  1  0  0  0  0
 22 21  1  0  0  0  0
 23 18  1  0  0  0  0
 23 22  1  0  0  0  0
 24 25  2  0  0  0  0
 25  1  1  0  0  0  0
 26 31  1  0  0  0  0
 27 28  1  0  0  0  0
 27 26  2  0  0  0  0
 28 29  2  0  0  0  0
 29 30  1  0  0  0  0
 30 24  1  0  0  0  0
 31 30  2  0  0  0  0
 32 26  1  0  0  0  0
 33 27  1  0  0  0  0
 34 28  1  0  0  0  0
 34 35  1  0  0  0  0
 35 40  1  0  0  0  0
 36 41  1  0  0  0  0
 36 35  2  0  0  0  0
 37 36  1  0  0  0  0
 38 39  1  0  0  0  0
 38 37  2  0  0  0  0
 39 34  2  0  0  0  0
 42 37  1  0  0  0  0
 43 38  1  0  0  0  0
 44 39  1  0  0  0  0
M  END
>  <minimizedAffinity>
-5.76355171

$$$$

 OpenBabel03252508193D

 44 48  0  0  1  0  0  0  0  0999 V2000
   40.9170   30.5970   39.2480 C   0  0  0  0  0  0  0  0  0  0  0  0
   40.3270   30.9340   38.4080 H   0  0  0  0  0  0  0  0  0  0  0  0
   41.8400   30.1230   38.8030 H   0  0  0  0  0  0  0  0  0  0  0  0
   41.2760   31.6000   40.2910 C   0  0  1  0  0  0  0  0  0  0  0  0
   41.8450   32.8730   39.7620 C   0  0  0  0  0  0  0  0  0  0  0  0
   40.5240   32.8700   40.3840 C   0  0  1  0  0  0  0  0  0  0  0  0
   41.9460   31.2210   41.1190 H   0  0  0  0  0  0  0  0  0  0  0  0
   42.6700   33.4120   40.2600 H   0  0  0  0  0  0  0  0  0  0  0  0
   41.8470   33.0410   38.6530 H   0  0  0  0  0  0  0  0  0  0  0  0
   40.4530   33.3160   41.3980 H   0  0  0  0  0  0  0  0  0  0  0  0
   39.2780   33.0070   39.5700 C   0  0  2  0  0  0  0  0  0  0  0  0
   38.3220   34.1200   40.0660 C   0  0  0  0  0  0  0  0  0  0  0  0
   37.9460   32.7240   40.2780 C   0  0  1  0  0  0  0  0  0  0  0  0
   39.3140   33.0210   38.4680 H   0  0  0  0  0  0  0  0  0  0  0  0
   38.6360   34.7080   40.9510 H   0  0  0  0  0  0  0  0  0  0  0  0
   37.7290   34.6940   39.3610 H   0  0  0  0  0  0  0  0  0  0  0  0
   38.0290   32.3220   41.2980 H   0  0  0  0  0  0  0  0  0  0  0  0
   36.9930   31.9620   39.4030 C   0  0  0  0  0  3  0  0  0  0  0  0
   37.4630   32.0330   37.9480 C   0  0  0  0  0  2  0  0  0  0  0  0
   37.9700   30.6810   37.4830 C   0  0  0  0  0  2  0  0  0  0  0  0
   36.7970   29.7170   37.4910 C   0  0  0  0  0  2  0  0  0  0  0  0
   35.9540   29.8870   38.7170 C   0  0  0  0  0  2  0  0  0  0  0  0
   36.8320   30.5180   39.8060 C   0  0  0  0  0  2  0  0  0  0  0  0
   40.0480   29.4440   41.1130 C   0  0  0  0  0  3  0  0  0  0  0  0
   40.0900   29.4820   39.8460 C   0  0  0  0  0  3  0  0  0  0  0  0
   38.6100   27.1300   43.5930 C   0  0  0  0  0  0  0  0  0  0  0  0
   37.8290   26.2870   42.8190 C   0  0  0  0  0  0  0  0  0  0  0  0
   37.8160   26.5310   41.4770 C   0  0  0  0  0  0  0  0  0  0  0  0
   38.5470   27.5580   40.9710 N   0  0  0  0  0  0  0  0  0  0  0  0
   39.2960   28.3600   41.7470 C   0  0  0  0  0  0  0  0  0  0  0  0
   39.3030   28.1180   43.0430 N   0  0  0  0  0  0  0  0  0  0  0  0
   38.6370   26.9560   44.6730 H   0  0  0  0  0  0  0  0  0  0  0  0
   37.2560   25.4760   43.2440 H   0  0  0  0  0  0  0  0  0  0  0  0
   37.0390   25.7280   40.5360 C   0  0  0  0  0  0  0  0  0  0  0  0
   36.7040   24.4100   40.7490 C   0  0  0  0  0  0  0  0  0  0  0  0
   35.9680   23.6520   39.8560 C   0  0  0  0  0  0  0  0  0  0  0  0
   35.5330   24.2180   38.6850 C   0  0  0  0  0  0  0  0  0  0  0  0
   35.8400   25.5280   38.4270 C   0  0  0  0  0  0  0  0  0  0  0  0
   36.5780   26.2410   39.3520 C   0  0  0  0  0  0  0  0  0  0  0  0
   37.0420   23.9360   41.6810 H   0  0  0  0  0  0  0  0  0  0  0  0
   35.7320   22.6090   40.0780 H   0  0  0  0  0  0  0  0  0  0  0  0
   34.9490   23.6740   37.9420 H   0  0  0  0  0  0  0  0  0  0  0  0
   35.4960   25.9750   37.5020 H   0  0  0  0  0  0  0  0  0  0  0  0
   36.7770   27.2720   39.0670 H   0  0  0  0  0  0  0  0  0  0  0  0
  1 25  1  0  0  0  0
  1  4  1  0  0  0  0
  2  1  1  0  0  0  0
  3  1  1  0  0  0  0
  4  6  1  0  0  0  0
  4  7  1  1  0  0  0
  5  8  1  0  0  0  0
  5  4  1  0  0  0  0
  5  6  1  0  0  0  0
  6 10  1  1  0  0  0
  9  5  1  0  0  0  0
 11 14  1  6  0  0  0
 11 12  1  0  0  0  0
 11 13  1  0  0  0  0
 11  6  1  0  0  0  0
 12 13  1  0  0  0  0
 12 15  1  0  0  0  0
 13 17  1  1  0  0  0
 16 12  1  0  0  0  0
 18 23  1  0  0  0  0
 18 13  1  0  0  0  0
 19 18  1  0  0  0  0
 20 21  1  0  0  0  0
 20 19  1  0  0  0  0
 21 22  1  0  0  0  0
 22 23  1  0  0  0  0
 24 30  1  0  0  0  0
 25 24  2  0  0  0  0
 26 32  1  0  0  0  0
 27 33  1  0  0  0  0
 27 26  2  0  0  0  0
 28 27  1  0  0  0  0
 29 28  2  0  0  0  0
 29 30  1  0  0  0  0
 30 31  2  0  0  0  0
 31 26  1  0  0  0  0
 34 35  1  0  0  0  0
 34 28  1  0  0  0  0
 35 40  1  0  0  0  0
 36 41  1  0  0  0  0
 36 35  2  0  0  0  0
 37 36  1  0  0  0  0
 38 37  2  0  0  0  0
 38 39  1  0  0  0  0
 39 34  2  0  0  0  0
 42 37  1  0  0  0  0
 43 38  1  0  0  0  0
 44 39  1  0  0  0  0
M  END
>  <minimizedAffinity>
-5.70431185

$$$$

 OpenBabel03252508193D

 44 48  0  0  1  0  0  0  0  0999 V2000
   35.1900   29.4650   40.0880 C   0  0  0  0  0  0  0  0  0  0  0  0
   35.4660   30.4460   39.7300 H   0  0  0  0  0  0  0  0  0  0  0  0
   34.3210   29.6290   40.7890 H   0  0  0  0  0  0  0  0  0  0  0  0
   34.8750   28.4190   39.0720 C   0  0  1  0  0  0  0  0  0  0  0  0
   33.8130   28.8000   38.0960 C   0  0  0  0  0  0  0  0  0  0  0  0
   35.1950   28.6540   37.6470 C   0  0  1  0  0  0  0  0  0  0  0  0
   34.6350   27.3970   39.4870 H   0  0  0  0  0  0  0  0  0  0  0  0
   33.0540   28.0870   37.7310 H   0  0  0  0  0  0  0  0  0  0  0  0
   33.4260   29.8520   38.1060 H   0  0  0  0  0  0  0  0  0  0  0  0
   35.4300   27.7480   37.0510 H   0  0  0  0  0  0  0  0  0  0  0  0
   36.0340   29.8430   37.3050 C   0  0  2  0  0  0  0  0  0  0  0  0
   36.6520   29.7880   35.8860 C   0  0  0  0  0  0  0  0  0  0  0  0
   37.5250   29.5940   37.0410 C   0  0  1  0  0  0  0  0  0  0  0  0
   35.6840   30.8680   37.5120 H   0  0  0  0  0  0  0  0  0  0  0  0
   36.4210   28.9030   35.2600 H   0  0  0  0  0  0  0  0  0  0  0  0
   36.7860   30.6960   35.3070 H   0  0  0  0  0  0  0  0  0  0  0  0
   37.8770   28.5730   37.2480 H   0  0  0  0  0  0  0  0  0  0  0  0
   38.3900   30.6650   37.6380 C   0  0  0  0  0  3  0  0  0  0  0  0
   37.5510   31.9210   37.8920 C   0  0  0  0  0  2  0  0  0  0  0  0
   37.3540   32.1410   39.3800 C   0  0  0  0  0  2  0  0  0  0  0  0
   38.7150   32.4240   39.9920 C   0  0  0  0  0  2  0  0  0  0  0  0
   39.7650   31.5100   39.4420 C   0  0  0  0  0  2  0  0  0  0  0  0
   39.0640   30.2490   38.9210 C   0  0  0  0  0  2  0  0  0  0  0  0
   36.7450   27.8410   40.7970 C   0  0  0  0  0  3  0  0  0  0  0  0
   36.3700   29.0440   40.9340 C   0  0  0  0  0  3  0  0  0  0  0  0
   38.9650   25.7360   42.8520 C   0  0  0  0  0  0  0  0  0  0  0  0
   40.0090   26.5930   43.1640 C   0  0  0  0  0  0  0  0  0  0  0  0
   39.9250   27.8600   42.6660 C   0  0  0  0  0  0  0  0  0  0  0  0
   38.8560   28.2180   41.9100 N   0  0  0  0  0  0  0  0  0  0  0  0
   37.8560   27.3660   41.6240 C   0  0  0  0  0  0  0  0  0  0  0  0
   37.9450   26.1430   42.1080 N   0  0  0  0  0  0  0  0  0  0  0  0
   39.0080   24.7130   43.2390 H   0  0  0  0  0  0  0  0  0  0  0  0
   40.8490   26.2850   43.7680 H   0  0  0  0  0  0  0  0  0  0  0  0
   40.9490   28.8730   42.9100 C   0  0  0  0  0  0  0  0  0  0  0  0
   40.7710   30.2160   42.6700 C   0  0  0  0  0  0  0  0  0  0  0  0
   41.7430   31.1720   42.9010 C   0  0  0  0  0  0  0  0  0  0  0  0
   42.9630   30.7910   43.3990 C   0  0  0  0  0  0  0  0  0  0  0  0
   43.1890   29.4650   43.6550 C   0  0  0  0  0  0  0  0  0  0  0  0
   42.1850   28.5500   43.4060 C   0  0  0  0  0  0  0  0  0  0  0  0
   39.8010   30.5440   42.2710 H   0  0  0  0  0  0  0  0  0  0  0  0
   41.5450   32.2260   42.6920 H   0  0  0  0  0  0  0  0  0  0  0  0
   43.7690   31.4960   43.6030 H   0  0  0  0  0  0  0  0  0  0  0  0
   44.1540   29.1640   44.0480 H   0  0  0  0  0  0  0  0  0  0  0  0
   42.4500   27.5200   43.6370 H   0  0  0  0  0  0  0  0  0  0  0  0
  1  3  1  0  0  0  0
  1 25  1  0  0  0  0
  2  1  1  0  0  0  0
  4  7  1  1  0  0  0
  4  1  1  0  0  0  0
  5  9  1  0  0  0  0
  5  4  1  0  0  0  0
  6 10  1  6  0  0  0
  6  5  1  0  0  0  0
  6  4  1  0  0  0  0
  8  5  1  0  0  0  0
 11 14  1  1  0  0  0
 11  6  1  0  0  0  0
 12 13  1  0  0  0  0
 12 11  1  0  0  0  0
 13 17  1  1  0  0  0
 13 11  1  0  0  0  0
 13 18  1  0  0  0  0
 15 12  1  0  0  0  0
 16 12  1  0  0  0  0
 18 19  1  0  0  0  0
 18 23  1  0  0  0  0
 19 20  1  0  0  0  0
 20 21  1  0  0  0  0
 22 21  1  0  0  0  0
 23 22  1  0  0  0  0
 24 25  2  0  0  0  0
 24 30  1  0  0  0  0
 26 27  1  0  0  0  0
 26 32  1  0  0  0  0
 27 33  1  0  0  0  0
 28 34  1  0  0  0  0
 28 27  2  0  0  0  0
 29 28  1  0  0  0  0
 30 29  2  0  0  0  0
 30 31  1  0  0  0  0
 31 26  2  0  0  0  0
 34 39  1  0  0  0  0
 35 36  1  0  0  0  0
 35 34  2  0  0  0  0
 36 37  2  0  0  0  0
 37 42  1  0  0  0  0
 37 38  1  0  0  0  0
 38 43  1  0  0  0  0
 39 44  1  0  0  0  0
 39 38  2  0  0  0  0
 40 35  1  0  0  0  0
 41 36  1  0  0  0  0
M  END
>  <minimizedAffinity>
-5.68853235

$$$$
