
 OpenBabel03242511353D

 32 34  0  0  1  0  0  0  0  0999 V2000
   33.7170   28.7420   37.3440 C   0  0  0  0  0  0  0  0  0  0  0  0
   32.8470   28.1360   37.6130 H   0  0  0  0  0  0  0  0  0  0  0  0
   33.3470   29.7920   37.1820 H   0  0  0  0  0  0  0  0  0  0  0  0
   36.1740   28.4050   34.7240 C   0  0  1  0  0  0  0  0  0  0  0  0
   35.6450   27.8040   36.0330 C   0  0  0  0  0  0  0  0  0  0  0  0
   34.2320   28.2740   35.9880 C   0  0  2  0  0  0  0  0  0  0  0  0
   34.0970   29.2290   35.0220 O   0  0  0  0  0  0  0  0  0  0  0  0
   35.3460   29.6640   34.6280 C   0  0  0  0  0  0  0  0  0  0  0  0
   35.9520   27.6880   33.9210 H   0  0  0  0  0  0  0  0  0  0  0  0
   36.1900   28.3150   36.8500 H   0  0  0  0  0  0  0  0  0  0  0  0
   35.7540   26.7040   36.0300 H   0  0  0  0  0  0  0  0  0  0  0  0
   33.5860   27.4030   35.7240 H   0  0  0  0  0  0  0  0  0  0  0  0
   35.3040   29.9240   33.5500 H   0  0  0  0  0  0  0  0  0  0  0  0
   35.7720   30.4460   35.2630 H   0  0  0  0  0  0  0  0  0  0  0  0
   37.5470   28.6750   34.8490 O   0  0  0  0  0  0  0  0  0  0  0  0
   37.8790   28.1910   35.6410 H   0  0  0  0  0  0  0  0  0  0  0  0
   34.5830   29.1230   39.6100 C   0  0  0  0  0  3  0  0  0  0  0  0
   34.7850   28.7600   38.3550 C   0  0  0  0  0  3  0  0  0  0  0  0
   35.7090   29.1070   40.5370 C   0  0  0  0  0  0  0  0  0  0  0  0
   36.2520   30.3540   40.9030 C   0  0  0  0  0  0  0  0  0  0  0  0
   37.3370   30.4010   41.7920 C   0  0  0  0  0  0  0  0  0  0  0  0
   37.8130   29.2070   42.2600 N   0  0  0  0  0  0  0  0  0  0  0  0
   37.2570   28.0300   41.8790 C   0  0  0  0  0  0  0  0  0  0  0  0
   36.2350   27.9840   41.0410 N   0  0  0  0  0  0  0  0  0  0  0  0
   35.8960   31.2950   40.5490 H   0  0  0  0  0  0  0  0  0  0  0  0
   37.7810   31.3320   42.0960 H   0  0  0  0  0  0  0  0  0  0  0  0
   37.8790   26.8170   42.4680 C   0  0  0  0  0  3  0  0  0  0  0  0
   39.2780   27.0400   42.9470 C   0  0  0  0  0  2  0  0  0  0  0  0
   39.7310   25.7940   43.6690 C   0  0  0  0  0  2  0  0  0  0  0  0
   39.5210   24.5290   42.8780 C   0  0  0  0  0  2  0  0  0  0  0  0
   38.0940   24.4120   42.3660 C   0  0  0  0  0  2  0  0  0  0  0  0
   37.8640   25.6460   41.4890 C   0  0  0  0  0  2  0  0  0  0  0  0
  1  2  1  0  0  0  0
  1 18  1  0  0  0  0
  3  1  1  0  0  0  0
  4  9  1  6  0  0  0
  4 15  1  0  0  0  0
  4  5  1  0  0  0  0
  5 10  1  0  0  0  0
  6 12  1  6  0  0  0
  6  5  1  0  0  0  0
  6  1  1  0  0  0  0
  7  6  1  0  0  0  0
  8  4  1  0  0  0  0
  8  7  1  0  0  0  0
  8 14  1  0  0  0  0
 11  5  1  0  0  0  0
 13  8  1  0  0  0  0
 15 16  1  0  0  0  0
 17 19  1  0  0  0  0
 18 17  2  0  0  0  0
 19 20  2  0  0  0  0
 19 24  1  0  0  0  0
 20 21  1  0  0  0  0
 21 26  1  0  0  0  0
 21 22  2  0  0  0  0
 23 22  1  0  0  0  0
 23 27  1  0  0  0  0
 24 23  2  0  0  0  0
 25 20  1  0  0  0  0
 27 28  1  0  0  0  0
 28 29  1  0  0  0  0
 30 29  1  0  0  0  0
 31 30  1  0  0  0  0
 32 31  1  0  0  0  0
 32 27  1  0  0  0  0
M  END
>  <minimizedAffinity>
-5.56707859

$$$$

 OpenBabel03242511353D

 32 34  0  0  1  0  0  0  0  0999 V2000
   36.9150   31.8900   39.4790 C   0  0  0  0  0  0  0  0  0  0  0  0
   36.3950   31.7660   38.5240 H   0  0  0  0  0  0  0  0  0  0  0  0
   36.2340   32.4860   40.1460 H   0  0  0  0  0  0  0  0  0  0  0  0
   40.0800   33.3730   40.3730 C   0  0  1  0  0  0  0  0  0  0  0  0
   39.4000   32.1490   39.7460 C   0  0  0  0  0  0  0  0  0  0  0  0
   38.1390   32.7690   39.2520 C   0  0  2  0  0  0  0  0  0  0  0  0
   37.9950   34.0120   39.7980 O   0  0  0  0  0  0  0  0  0  0  0  0
   38.8800   34.1580   40.8480 C   0  0  0  0  0  0  0  0  0  0  0  0
   40.6340   33.8850   39.5750 H   0  0  0  0  0  0  0  0  0  0  0  0
   39.1810   31.4550   40.5800 H   0  0  0  0  0  0  0  0  0  0  0  0
   40.0330   31.7170   38.9480 H   0  0  0  0  0  0  0  0  0  0  0  0
   38.2150   32.8710   38.1430 H   0  0  0  0  0  0  0  0  0  0  0  0
   39.2030   35.2190   40.8900 H   0  0  0  0  0  0  0  0  0  0  0  0
   38.5190   33.7590   41.8000 H   0  0  0  0  0  0  0  0  0  0  0  0
   40.9040   32.9630   41.4340 O   0  0  0  0  0  0  0  0  0  0  0  0
   41.0370   31.9900   41.3550 H   0  0  0  0  0  0  0  0  0  0  0  0
   36.5950   30.1540   41.1850 C   0  0  0  0  0  3  0  0  0  0  0  0
   37.2660   30.6300   40.1510 C   0  0  0  0  0  3  0  0  0  0  0  0
   37.0230   28.8940   41.7820 C   0  0  0  0  0  0  0  0  0  0  0  0
   37.6940   28.9700   43.0190 C   0  0  0  0  0  0  0  0  0  0  0  0
   38.1300   27.7910   43.6420 C   0  0  0  0  0  0  0  0  0  0  0  0
   37.8730   26.6120   42.9970 N   0  0  0  0  0  0  0  0  0  0  0  0
   37.2230   26.5880   41.8060 C   0  0  0  0  0  0  0  0  0  0  0  0
   36.8120   27.6990   41.2190 N   0  0  0  0  0  0  0  0  0  0  0  0
   37.9040   29.8790   43.5370 H   0  0  0  0  0  0  0  0  0  0  0  0
   38.6460   27.8050   44.5850 H   0  0  0  0  0  0  0  0  0  0  0  0
   37.0150   25.2380   41.2270 C   0  0  0  0  0  3  0  0  0  0  0  0
   38.2370   24.3760   41.2740 C   0  0  0  0  0  2  0  0  0  0  0  0
   37.8520   22.9910   40.8150 C   0  0  0  0  0  2  0  0  0  0  0  0
   37.1100   22.9740   39.5040 C   0  0  0  0  0  2  0  0  0  0  0  0
   35.9260   23.9270   39.5120 C   0  0  0  0  0  2  0  0  0  0  0  0
   36.5110   25.3150   39.7880 C   0  0  0  0  0  2  0  0  0  0  0  0
  1  3  1  0  0  0  0
  1 18  1  0  0  0  0
  2  1  1  0  0  0  0
  4  9  1  6  0  0  0
  4  8  1  0  0  0  0
  4 15  1  0  0  0  0
  5  4  1  0  0  0  0
  5 10  1  0  0  0  0
  6 12  1  6  0  0  0
  6  1  1  0  0  0  0
  6  5  1  0  0  0  0
  6  7  1  0  0  0  0
  7  8  1  0  0  0  0
  8 13  1  0  0  0  0
  8 14  1  0  0  0  0
 11  5  1  0  0  0  0
 16 15  1  0  0  0  0
 17 19  1  0  0  0  0
 18 17  2  0  0  0  0
 19 20  1  0  0  0  0
 20 25  1  0  0  0  0
 20 21  2  0  0  0  0
 21 26  1  0  0  0  0
 22 21  1  0  0  0  0
 23 22  2  0  0  0  0
 24 19  2  0  0  0  0
 24 23  1  0  0  0  0
 27 28  1  0  0  0  0
 27 23  1  0  0  0  0
 29 28  1  0  0  0  0
 30 31  1  0  0  0  0
 30 29  1  0  0  0  0
 31 32  1  0  0  0  0
 32 27  1  0  0  0  0
M  END
>  <minimizedAffinity>
-5.48325348

$$$$

 OpenBabel03242511353D

 32 34  0  0  1  0  0  0  0  0999 V2000
   37.6170   25.7720   40.7780 C   0  0  0  0  0  0  0  0  0  0  0  0
   36.9210   25.0040   40.4300 H   0  0  0  0  0  0  0  0  0  0  0  0
   38.6430   25.3110   40.7710 H   0  0  0  0  0  0  0  0  0  0  0  0
   37.3100   27.8950   43.6800 C   0  0  1  0  0  0  0  0  0  0  0  0
   36.5930   27.3630   42.4320 C   0  0  0  0  0  0  0  0  0  0  0  0
   37.3130   26.0730   42.2410 C   0  0  2  0  0  0  0  0  0  0  0  0
   38.4330   26.0540   43.0210 O   0  0  0  0  0  0  0  0  0  0  0  0
   38.6960   27.3290   43.4780 C   0  0  0  0  0  0  0  0  0  0  0  0
   36.8010   27.4710   44.5560 H   0  0  0  0  0  0  0  0  0  0  0  0
   36.8410   28.0620   41.6100 H   0  0  0  0  0  0  0  0  0  0  0  0
   35.5090   27.2510   42.6230 H   0  0  0  0  0  0  0  0  0  0  0  0
   36.6350   25.2480   42.5660 H   0  0  0  0  0  0  0  0  0  0  0  0
   39.1470   27.2530   44.4900 H   0  0  0  0  0  0  0  0  0  0  0  0
   39.2610   27.9520   42.7790 H   0  0  0  0  0  0  0  0  0  0  0  0
   37.2990   29.2990   43.6680 O   0  0  0  0  0  0  0  0  0  0  0  0
   36.6290   29.5910   43.0060 H   0  0  0  0  0  0  0  0  0  0  0  0
   36.9910   27.1050   38.8140 C   0  0  0  0  0  3  0  0  0  0  0  0
   37.6350   26.9960   39.9630 C   0  0  0  0  0  3  0  0  0  0  0  0
   37.0710   28.3630   38.0790 C   0  0  0  0  0  0  0  0  0  0  0  0
   36.6590   28.3410   36.7320 C   0  0  0  0  0  0  0  0  0  0  0  0
   36.7130   29.5210   35.9740 C   0  0  0  0  0  0  0  0  0  0  0  0
   37.1730   30.6460   36.6020 N   0  0  0  0  0  0  0  0  0  0  0  0
   37.5590   30.6180   37.9030 C   0  0  0  0  0  0  0  0  0  0  0  0
   37.5090   29.5070   38.6170 N   0  0  0  0  0  0  0  0  0  0  0  0
   36.2980   27.4750   36.2250 H   0  0  0  0  0  0  0  0  0  0  0  0
   36.4090   29.5480   34.9440 H   0  0  0  0  0  0  0  0  0  0  0  0
   38.0350   31.9140   38.4490 C   0  0  0  0  0  3  0  0  0  0  0  0
   39.4020   31.8390   39.0520 C   0  0  0  0  0  2  0  0  0  0  0  0
   39.8330   33.2400   39.4130 C   0  0  0  0  0  2  0  0  0  0  0  0
   38.8150   33.9920   40.2310 C   0  0  0  0  0  2  0  0  0  0  0  0
   37.4380   33.9610   39.5880 C   0  0  0  0  0  2  0  0  0  0  0  0
   37.0620   32.4800   39.4800 C   0  0  0  0  0  2  0  0  0  0  0  0
  1  6  1  0  0  0  0
  2  1  1  0  0  0  0
  3  1  1  0  0  0  0
  4  9  1  1  0  0  0
  5 11  1  0  0  0  0
  5  4  1  0  0  0  0
  6  5  1  0  0  0  0
  6 12  1  1  0  0  0
  6  7  1  0  0  0  0
  7  8  1  0  0  0  0
  8  4  1  0  0  0  0
  8 13  1  0  0  0  0
 10  5  1  0  0  0  0
 14  8  1  0  0  0  0
 15  4  1  0  0  0  0
 16 15  1  0  0  0  0
 17 18  2  0  0  0  0
 18  1  1  0  0  0  0
 19 24  1  0  0  0  0
 19 17  1  0  0  0  0
 20 19  2  0  0  0  0
 21 22  2  0  0  0  0
 21 20  1  0  0  0  0
 22 23  1  0  0  0  0
 23 27  1  0  0  0  0
 23 24  2  0  0  0  0
 25 20  1  0  0  0  0
 26 21  1  0  0  0  0
 27 28  1  0  0  0  0
 27 32  1  0  0  0  0
 28 29  1  0  0  0  0
 29 30  1  0  0  0  0
 31 30  1  0  0  0  0
 32 31  1  0  0  0  0
M  END
>  <minimizedAffinity>
-5.44849777

$$$$

 OpenBabel03242511353D

 32 34  0  0  1  0  0  0  0  0999 V2000
   37.4940   30.0790   37.4050 C   0  0  0  0  0  0  0  0  0  0  0  0
   38.2240   29.4040   36.9500 H   0  0  0  0  0  0  0  0  0  0  0  0
   37.6350   31.0860   36.9240 H   0  0  0  0  0  0  0  0  0  0  0  0
   36.8340   30.8970   40.8560 C   0  0  1  0  0  0  0  0  0  0  0  0
   36.8080   29.7810   39.8040 C   0  0  0  0  0  0  0  0  0  0  0  0
   37.8610   30.2710   38.8720 C   0  0  2  0  0  0  0  0  0  0  0  0
   38.1670   31.5680   39.1670 O   0  0  0  0  0  0  0  0  0  0  0  0
   37.2020   32.0880   40.0050 C   0  0  0  0  0  0  0  0  0  0  0  0
   37.6120   30.6400   41.5880 H   0  0  0  0  0  0  0  0  0  0  0  0
   35.8150   29.8360   39.3180 H   0  0  0  0  0  0  0  0  0  0  0  0
   37.0350   28.8030   40.2670 H   0  0  0  0  0  0  0  0  0  0  0  0
   38.7730   29.6440   39.0210 H   0  0  0  0  0  0  0  0  0  0  0  0
   37.6850   32.8180   40.6880 H   0  0  0  0  0  0  0  0  0  0  0  0
   36.3170   32.4730   39.4890 H   0  0  0  0  0  0  0  0  0  0  0  0
   35.5610   31.0270   41.4370 O   0  0  0  0  0  0  0  0  0  0  0  0
   35.0420   30.2210   41.2120 H   0  0  0  0  0  0  0  0  0  0  0  0
   35.6850   28.8690   36.2690 C   0  0  0  0  0  3  0  0  0  0  0  0
   36.0930   29.6620   37.2450 C   0  0  0  0  0  3  0  0  0  0  0  0
   34.2720   28.5120   36.1970 C   0  0  0  0  0  0  0  0  0  0  0  0
   33.9630   27.2340   35.6910 C   0  0  0  0  0  0  0  0  0  0  0  0
   32.6210   26.8350   35.5970 C   0  0  0  0  0  0  0  0  0  0  0  0
   31.6720   27.7300   36.0120 N   0  0  0  0  0  0  0  0  0  0  0  0
   32.0190   28.9500   36.4920 C   0  0  0  0  0  0  0  0  0  0  0  0
   33.2830   29.3280   36.5810 N   0  0  0  0  0  0  0  0  0  0  0  0
   34.6870   26.5230   35.3630 H   0  0  0  0  0  0  0  0  0  0  0  0
   32.3420   25.8690   35.2170 H   0  0  0  0  0  0  0  0  0  0  0  0
   30.8830   29.8130   36.9030 C   0  0  0  0  0  3  0  0  0  0  0  0
   30.9180   31.1760   36.2880 C   0  0  0  0  0  2  0  0  0  0  0  0
   29.6360   31.8860   36.6470 C   0  0  0  0  0  2  0  0  0  0  0  0
   29.3250   31.8610   38.1220 C   0  0  0  0  0  2  0  0  0  0  0  0
   29.3800   30.4500   38.6860 C   0  0  0  0  0  2  0  0  0  0  0  0
   30.8030   29.9500   38.4220 C   0  0  0  0  0  2  0  0  0  0  0  0
  1  6  1  0  0  0  0
  2  1  1  0  0  0  0
  3  1  1  0  0  0  0
  4 15  1  0  0  0  0
  4  9  1  1  0  0  0
  5 11  1  0  0  0  0
  5  4  1  0  0  0  0
  6 12  1  1  0  0  0
  6  7  1  0  0  0  0
  6  5  1  0  0  0  0
  7  8  1  0  0  0  0
  8 13  1  0  0  0  0
  8  4  1  0  0  0  0
 10  5  1  0  0  0  0
 14  8  1  0  0  0  0
 16 15  1  0  0  0  0
 17 18  2  0  0  0  0
 18  1  1  0  0  0  0
 19 17  1  0  0  0  0
 19 24  1  0  0  0  0
 20 19  2  0  0  0  0
 21 20  1  0  0  0  0
 21 22  2  0  0  0  0
 22 23  1  0  0  0  0
 23 24  2  0  0  0  0
 23 27  1  0  0  0  0
 25 20  1  0  0  0  0
 26 21  1  0  0  0  0
 27 32  1  0  0  0  0
 28 29  1  0  0  0  0
 28 27  1  0  0  0  0
 29 30  1  0  0  0  0
 30 31  1  0  0  0  0
 32 31  1  0  0  0  0
M  END
>  <minimizedAffinity>
-5.35978651

$$$$

 OpenBabel03242511353D

 32 34  0  0  1  0  0  0  0  0999 V2000
   40.1040   31.4150   42.1770 C   0  0  0  0  0  0  0  0  0  0  0  0
   39.5270   31.9270   42.9530 H   0  0  0  0  0  0  0  0  0  0  0  0
   41.1900   31.5720   42.4190 H   0  0  0  0  0  0  0  0  0  0  0  0
   38.1170   33.1040   39.6830 C   0  0  1  0  0  0  0  0  0  0  0  0
   38.9360   33.2840   40.9680 C   0  0  0  0  0  0  0  0  0  0  0  0
   39.8700   32.1290   40.8510 C   0  0  2  0  0  0  0  0  0  0  0  0
   39.4320   31.2830   39.8740 O   0  0  0  0  0  0  0  0  0  0  0  0
   38.1310   31.6010   39.5400 C   0  0  0  0  0  0  0  0  0  0  0  0
   38.6590   33.6140   38.8750 H   0  0  0  0  0  0  0  0  0  0  0  0
   38.2340   33.1210   41.8080 H   0  0  0  0  0  0  0  0  0  0  0  0
   39.4370   34.2700   40.9770 H   0  0  0  0  0  0  0  0  0  0  0  0
   40.8740   32.5240   40.5600 H   0  0  0  0  0  0  0  0  0  0  0  0
   37.9850   31.3930   38.4590 H   0  0  0  0  0  0  0  0  0  0  0  0
   37.3760   31.1510   40.1900 H   0  0  0  0  0  0  0  0  0  0  0  0
   36.8210   33.6110   39.8750 O   0  0  0  0  0  0  0  0  0  0  0  0
   36.8330   34.1720   40.6850 H   0  0  0  0  0  0  0  0  0  0  0  0
   39.0700   29.3170   42.9240 C   0  0  0  0  0  3  0  0  0  0  0  0
   39.8380   29.9720   42.0710 C   0  0  0  0  0  3  0  0  0  0  0  0
   38.8690   27.8840   42.7330 C   0  0  0  0  0  0  0  0  0  0  0  0
   39.6510   27.0200   43.5240 C   0  0  0  0  0  0  0  0  0  0  0  0
   39.5020   25.6320   43.3840 C   0  0  0  0  0  0  0  0  0  0  0  0
   38.5860   25.1910   42.4680 N   0  0  0  0  0  0  0  0  0  0  0  0
   37.8560   26.0630   41.7280 C   0  0  0  0  0  0  0  0  0  0  0  0
   37.9960   27.3710   41.8590 N   0  0  0  0  0  0  0  0  0  0  0  0
   40.3700   27.3440   44.2430 H   0  0  0  0  0  0  0  0  0  0  0  0
   40.0790   24.9380   43.9680 H   0  0  0  0  0  0  0  0  0  0  0  0
   36.9030   25.4390   40.7760 C   0  0  0  0  0  3  0  0  0  0  0  0
   36.7770   23.9580   40.9450 C   0  0  0  0  0  2  0  0  0  0  0  0
   35.6670   23.4760   40.0440 C   0  0  0  0  0  2  0  0  0  0  0  0
   35.8000   23.9460   38.6180 C   0  0  0  0  0  2  0  0  0  0  0  0
   35.9960   25.4520   38.5350 C   0  0  0  0  0  2  0  0  0  0  0  0
   37.2720   25.7500   39.3280 C   0  0  0  0  0  2  0  0  0  0  0  0
  1  3  1  0  0  0  0
  1  2  1  0  0  0  0
  4  9  1  6  0  0  0
  4 15  1  0  0  0  0
  4  5  1  0  0  0  0
  5 11  1  0  0  0  0
  5 10  1  0  0  0  0
  6 12  1  6  0  0  0
  6  5  1  0  0  0  0
  6  1  1  0  0  0  0
  7  6  1  0  0  0  0
  8  4  1  0  0  0  0
  8  7  1  0  0  0  0
  8 14  1  0  0  0  0
 13  8  1  0  0  0  0
 15 16  1  0  0  0  0
 18  1  1  0  0  0  0
 18 17  2  0  0  0  0
 19 17  1  0  0  0  0
 19 20  1  0  0  0  0
 20 25  1  0  0  0  0
 21 20  2  0  0  0  0
 21 26  1  0  0  0  0
 22 21  1  0  0  0  0
 23 24  1  0  0  0  0
 23 22  2  0  0  0  0
 24 19  2  0  0  0  0
 27 28  1  0  0  0  0
 27 23  1  0  0  0  0
 29 28  1  0  0  0  0
 30 29  1  0  0  0  0
 31 30  1  0  0  0  0
 31 32  1  0  0  0  0
 32 27  1  0  0  0  0
M  END
>  <minimizedAffinity>
-5.33916283

$$$$

 OpenBabel03242511353D

 32 34  0  0  1  0  0  0  0  0999 V2000
   36.5560   30.9990   41.0420 C   0  0  0  0  0  0  0  0  0  0  0  0
   35.5240   31.1220   41.3830 H   0  0  0  0  0  0  0  0  0  0  0  0
   37.1750   31.7600   41.5900 H   0  0  0  0  0  0  0  0  0  0  0  0
   37.9300   30.9280   37.7060 C   0  0  1  0  0  0  0  0  0  0  0  0
   36.9560   30.2480   38.6770 C   0  0  0  0  0  0  0  0  0  0  0  0
   36.6290   31.3930   39.5710 C   0  0  2  0  0  0  0  0  0  0  0  0
   37.5080   32.4140   39.3490 O   0  0  0  0  0  0  0  0  0  0  0  0
   38.5790   31.9450   38.6150 C   0  0  0  0  0  0  0  0  0  0  0  0
   37.3300   31.3900   36.9100 H   0  0  0  0  0  0  0  0  0  0  0  0
   37.5460   29.4910   39.2280 H   0  0  0  0  0  0  0  0  0  0  0  0
   36.0840   29.8390   38.1320 H   0  0  0  0  0  0  0  0  0  0  0  0
   35.6000   31.7460   39.3200 H   0  0  0  0  0  0  0  0  0  0  0  0
   38.9370   32.7640   37.9550 H   0  0  0  0  0  0  0  0  0  0  0  0
   39.3640   31.4740   39.2120 H   0  0  0  0  0  0  0  0  0  0  0  0
   38.8480   29.9830   37.2200 O   0  0  0  0  0  0  0  0  0  0  0  0
   38.4930   29.0850   37.4200 H   0  0  0  0  0  0  0  0  0  0  0  0
   37.3330   29.1690   42.4830 C   0  0  0  0  0  3  0  0  0  0  0  0
   37.1210   29.6610   41.2750 C   0  0  0  0  0  3  0  0  0  0  0  0
   37.8980   27.8300   42.6080 C   0  0  0  0  0  0  0  0  0  0  0  0
   38.9890   27.6780   43.4870 C   0  0  0  0  0  0  0  0  0  0  0  0
   39.5750   26.4140   43.6490 C   0  0  0  0  0  0  0  0  0  0  0  0
   39.0400   25.3810   42.9280 N   0  0  0  0  0  0  0  0  0  0  0  0
   37.9880   25.5760   42.0930 C   0  0  0  0  0  0  0  0  0  0  0  0
   37.4360   26.7670   41.9400 N   0  0  0  0  0  0  0  0  0  0  0  0
   39.4200   28.4710   44.0570 H   0  0  0  0  0  0  0  0  0  0  0  0
   40.4080   26.2550   44.3080 H   0  0  0  0  0  0  0  0  0  0  0  0
   37.5160   24.3640   41.3790 C   0  0  0  0  0  3  0  0  0  0  0  0
   38.6280   23.5120   40.8540 C   0  0  0  0  0  2  0  0  0  0  0  0
   38.0270   22.2410   40.3040 C   0  0  0  0  0  2  0  0  0  0  0  0
   36.8950   22.4790   39.3370 C   0  0  0  0  0  2  0  0  0  0  0  0
   35.8420   23.4100   39.9170 C   0  0  0  0  0  2  0  0  0  0  0  0
   36.5730   24.7190   40.2320 C   0  0  0  0  0  2  0  0  0  0  0  0
  1 18  1  0  0  0  0
  1  2  1  0  0  0  0
  1  3  1  0  0  0  0
  4  9  1  6  0  0  0
  4  8  1  0  0  0  0
  4  5  1  0  0  0  0
  5 10  1  0  0  0  0
  5  6  1  0  0  0  0
  6 12  1  6  0  0  0
  6  1  1  0  0  0  0
  7  6  1  0  0  0  0
  8 14  1  0  0  0  0
  8  7  1  0  0  0  0
 11  5  1  0  0  0  0
 13  8  1  0  0  0  0
 15 16  1  0  0  0  0
 15  4  1  0  0  0  0
 17 19  1  0  0  0  0
 18 17  2  0  0  0  0
 19 20  1  0  0  0  0
 20 21  2  0  0  0  0
 20 25  1  0  0  0  0
 21 26  1  0  0  0  0
 22 21  1  0  0  0  0
 23 22  2  0  0  0  0
 24 23  1  0  0  0  0
 24 19  2  0  0  0  0
 27 23  1  0  0  0  0
 28 27  1  0  0  0  0
 29 28  1  0  0  0  0
 30 31  1  0  0  0  0
 30 29  1  0  0  0  0
 31 32  1  0  0  0  0
 32 27  1  0  0  0  0
M  END
>  <minimizedAffinity>
-5.33706808

$$$$

 OpenBabel03242511353D

 32 34  0  0  1  0  0  0  0  0999 V2000
   37.4440   33.5000   39.6640 C   0  0  0  0  0  0  0  0  0  0  0  0
   37.6510   34.0440   38.7380 H   0  0  0  0  0  0  0  0  0  0  0  0
   36.5950   34.0320   40.1730 H   0  0  0  0  0  0  0  0  0  0  0  0
   40.9230   33.2290   40.5810 C   0  0  1  0  0  0  0  0  0  0  0  0
   39.8730   34.1060   39.8860 C   0  0  0  0  0  0  0  0  0  0  0  0
   38.6420   33.6570   40.5940 C   0  0  2  0  0  0  0  0  0  0  0  0
   38.9070   32.5170   41.2970 O   0  0  0  0  0  0  0  0  0  0  0  0
   40.1130   31.9900   40.8790 C   0  0  0  0  0  0  0  0  0  0  0  0
   41.2420   33.7580   41.4900 H   0  0  0  0  0  0  0  0  0  0  0  0
   39.8460   33.7770   38.8290 H   0  0  0  0  0  0  0  0  0  0  0  0
   40.1070   35.1780   40.0240 H   0  0  0  0  0  0  0  0  0  0  0  0
   38.3430   34.4590   41.3100 H   0  0  0  0  0  0  0  0  0  0  0  0
   40.6030   31.5030   41.7490 H   0  0  0  0  0  0  0  0  0  0  0  0
   40.0450   31.3580   39.9900 H   0  0  0  0  0  0  0  0  0  0  0  0
   41.9850   32.9740   39.6970 O   0  0  0  0  0  0  0  0  0  0  0  0
   41.9170   33.6130   38.9500 H   0  0  0  0  0  0  0  0  0  0  0  0
   37.1860   31.4670   38.3120 C   0  0  0  0  0  3  0  0  0  0  0  0
   37.0830   32.0870   39.4750 C   0  0  0  0  0  3  0  0  0  0  0  0
   36.8020   30.0620   38.2280 C   0  0  0  0  0  0  0  0  0  0  0  0
   36.3510   29.5980   36.9760 C   0  0  0  0  0  0  0  0  0  0  0  0
   35.9670   28.2560   36.8340 C   0  0  0  0  0  0  0  0  0  0  0  0
   36.0560   27.4600   37.9440 N   0  0  0  0  0  0  0  0  0  0  0  0
   36.4970   27.9520   39.1290 C   0  0  0  0  0  0  0  0  0  0  0  0
   36.8580   29.2170   39.2640 N   0  0  0  0  0  0  0  0  0  0  0  0
   36.2740   30.2020   36.1010 H   0  0  0  0  0  0  0  0  0  0  0  0
   35.6180   27.8630   35.8980 H   0  0  0  0  0  0  0  0  0  0  0  0
   36.5400   26.9720   40.2430 C   0  0  0  0  0  3  0  0  0  0  0  0
   37.2820   27.4680   41.4430 C   0  0  0  0  0  2  0  0  0  0  0  0
   37.1090   26.4590   42.5520 C   0  0  0  0  0  2  0  0  0  0  0  0
   37.4370   25.0470   42.1390 C   0  0  0  0  0  2  0  0  0  0  0  0
   36.6990   24.6430   40.8720 C   0  0  0  0  0  2  0  0  0  0  0  0
   37.1400   25.6410   39.7970 C   0  0  0  0  0  2  0  0  0  0  0  0
  1  3  1  0  0  0  0
  1  6  1  0  0  0  0
  2  1  1  0  0  0  0
  4  8  1  0  0  0  0
  4  9  1  1  0  0  0
  5 11  1  0  0  0  0
  5  4  1  0  0  0  0
  5  6  1  0  0  0  0
  6  7  1  0  0  0  0
  6 12  1  1  0  0  0
  8  7  1  0  0  0  0
  8 13  1  0  0  0  0
 10  5  1  0  0  0  0
 14  8  1  0  0  0  0
 15  4  1  0  0  0  0
 16 15  1  0  0  0  0
 17 18  2  0  0  0  0
 18  1  1  0  0  0  0
 19 17  1  0  0  0  0
 19 24  1  0  0  0  0
 20 19  2  0  0  0  0
 21 20  1  0  0  0  0
 21 22  2  0  0  0  0
 22 23  1  0  0  0  0
 23 24  2  0  0  0  0
 23 27  1  0  0  0  0
 25 20  1  0  0  0  0
 26 21  1  0  0  0  0
 27 28  1  0  0  0  0
 28 29  1  0  0  0  0
 30 29  1  0  0  0  0
 31 30  1  0  0  0  0
 32 27  1  0  0  0  0
 32 31  1  0  0  0  0
M  END
>  <minimizedAffinity>
-5.29757547

$$$$

 OpenBabel03242511353D

 32 34  0  0  1  0  0  0  0  0999 V2000
   33.0270   28.9300   36.4360 C   0  0  0  0  0  0  0  0  0  0  0  0
   33.6110   29.2920   35.5850 H   0  0  0  0  0  0  0  0  0  0  0  0
   32.7460   27.8650   36.2110 H   0  0  0  0  0  0  0  0  0  0  0  0
   29.7010   29.6440   37.6400 C   0  0  1  0  0  0  0  0  0  0  0  0
   31.1980   29.8930   37.8660 C   0  0  0  0  0  0  0  0  0  0  0  0
   31.7120   29.7000   36.4820 C   0  0  2  0  0  0  0  0  0  0  0  0
   30.7450   29.1230   35.7100 O   0  0  0  0  0  0  0  0  0  0  0  0
   29.7430   28.6300   36.5220 C   0  0  0  0  0  0  0  0  0  0  0  0
   29.2540   30.5990   37.3310 H   0  0  0  0  0  0  0  0  0  0  0  0
   31.5530   29.0740   38.5210 H   0  0  0  0  0  0  0  0  0  0  0  0
   31.3680   30.9080   38.2730 H   0  0  0  0  0  0  0  0  0  0  0  0
   31.9560   30.7050   36.0600 H   0  0  0  0  0  0  0  0  0  0  0  0
   28.7770   28.7240   35.9840 H   0  0  0  0  0  0  0  0  0  0  0  0
   29.9390   27.6320   36.9230 H   0  0  0  0  0  0  0  0  0  0  0  0
   29.1270   29.1260   38.8120 O   0  0  0  0  0  0  0  0  0  0  0  0
   29.7570   29.2820   39.5530 H   0  0  0  0  0  0  0  0  0  0  0  0
   35.0070   28.6630   37.8630 C   0  0  0  0  0  3  0  0  0  0  0  0
   33.7310   28.9800   37.7270 C   0  0  0  0  0  3  0  0  0  0  0  0
   35.6150   28.7450   39.1870 C   0  0  0  0  0  0  0  0  0  0  0  0
   35.6270   30.0110   39.8050 C   0  0  0  0  0  0  0  0  0  0  0  0
   36.1980   30.1520   41.0790 C   0  0  0  0  0  0  0  0  0  0  0  0
   36.7210   29.0270   41.6570 N   0  0  0  0  0  0  0  0  0  0  0  0
   36.6870   27.8290   41.0220 C   0  0  0  0  0  0  0  0  0  0  0  0
   36.1490   27.6950   39.8210 N   0  0  0  0  0  0  0  0  0  0  0  0
   35.2250   30.8990   39.3720 H   0  0  0  0  0  0  0  0  0  0  0  0
   36.2280   31.0990   41.5850 H   0  0  0  0  0  0  0  0  0  0  0  0
   37.2920   26.6990   41.7710 C   0  0  0  0  0  3  0  0  0  0  0  0
   38.7450   26.8920   42.0660 C   0  0  0  0  0  2  0  0  0  0  0  0
   39.1950   25.7680   42.9670 C   0  0  0  0  0  2  0  0  0  0  0  0
   38.8240   24.3990   42.4530 C   0  0  0  0  0  2  0  0  0  0  0  0
   37.3470   24.3060   42.1090 C   0  0  0  0  0  2  0  0  0  0  0  0
   37.1010   25.3730   41.0380 C   0  0  0  0  0  2  0  0  0  0  0  0
  1  6  1  0  0  0  0
  1 18  1  0  0  0  0
  2  1  1  0  0  0  0
  3  1  1  0  0  0  0
  4  9  1  6  0  0  0
  4  5  1  0  0  0  0
  4 15  1  0  0  0  0
  5 11  1  0  0  0  0
  5 10  1  0  0  0  0
  6 12  1  6  0  0  0
  6  5  1  0  0  0  0
  7  6  1  0  0  0  0
  7  8  1  0  0  0  0
  8 14  1  0  0  0  0
  8  4  1  0  0  0  0
 13  8  1  0  0  0  0
 15 16  1  0  0  0  0
 17 19  1  0  0  0  0
 18 17  2  0  0  0  0
 19 20  2  0  0  0  0
 19 24  1  0  0  0  0
 20 21  1  0  0  0  0
 21 26  1  0  0  0  0
 21 22  2  0  0  0  0
 23 22  1  0  0  0  0
 23 27  1  0  0  0  0
 24 23  2  0  0  0  0
 25 20  1  0  0  0  0
 27 28  1  0  0  0  0
 28 29  1  0  0  0  0
 30 29  1  0  0  0  0
 31 30  1  0  0  0  0
 32 27  1  0  0  0  0
 32 31  1  0  0  0  0
M  END
>  <minimizedAffinity>
-5.21204281

$$$$

 OpenBabel03242511353D

 32 34  0  0  1  0  0  0  0  0999 V2000
   37.2320   29.3360   39.1880 C   0  0  0  0  0  0  0  0  0  0  0  0
   37.0260   28.9730   40.2000 H   0  0  0  0  0  0  0  0  0  0  0  0
   37.9660   28.6190   38.7280 H   0  0  0  0  0  0  0  0  0  0  0  0
   39.2710   32.0440   37.9540 C   0  0  1  0  0  0  0  0  0  0  0  0
   37.8410   31.4990   38.0630 C   0  0  0  0  0  0  0  0  0  0  0  0
   37.9680   30.6660   39.2920 C   0  0  2  0  0  0  0  0  0  0  0  0
   39.2870   30.5080   39.6050 O   0  0  0  0  0  0  0  0  0  0  0  0
   40.0630   30.8950   38.5300 C   0  0  0  0  0  0  0  0  0  0  0  0
   39.3240   32.9500   38.5720 H   0  0  0  0  0  0  0  0  0  0  0  0
   37.6880   30.8500   37.1790 H   0  0  0  0  0  0  0  0  0  0  0  0
   37.1140   32.3270   38.1530 H   0  0  0  0  0  0  0  0  0  0  0  0
   37.4630   31.2060   40.1290 H   0  0  0  0  0  0  0  0  0  0  0  0
   41.0060   31.3340   38.9180 H   0  0  0  0  0  0  0  0  0  0  0  0
   40.2070   30.1170   37.7750 H   0  0  0  0  0  0  0  0  0  0  0  0
   39.5820   32.2850   36.6050 O   0  0  0  0  0  0  0  0  0  0  0  0
   38.7380   32.2830   36.0950 H   0  0  0  0  0  0  0  0  0  0  0  0
   35.4360   28.3790   37.8140 C   0  0  0  0  0  3  0  0  0  0  0  0
   36.0480   29.4350   38.3220 C   0  0  0  0  0  3  0  0  0  0  0  0
   34.2680   28.5830   36.9660 C   0  0  0  0  0  0  0  0  0  0  0  0
   34.3530   28.1130   35.6400 C   0  0  0  0  0  0  0  0  0  0  0  0
   33.2600   28.2810   34.7770 C   0  0  0  0  0  0  0  0  0  0  0  0
   32.1530   28.9050   35.2840 N   0  0  0  0  0  0  0  0  0  0  0  0
   32.1170   29.3410   36.5680 C   0  0  0  0  0  0  0  0  0  0  0  0
   33.1470   29.1830   37.3830 N   0  0  0  0  0  0  0  0  0  0  0  0
   35.2060   27.6250   35.2260 H   0  0  0  0  0  0  0  0  0  0  0  0
   33.2830   27.9380   33.7580 H   0  0  0  0  0  0  0  0  0  0  0  0
   30.8510   29.9980   36.9780 C   0  0  0  0  0  3  0  0  0  0  0  0
   30.7080   31.3920   36.4540 C   0  0  0  0  0  2  0  0  0  0  0  0
   29.3220   31.8810   36.7950 C   0  0  0  0  0  2  0  0  0  0  0  0
   28.9600   31.7060   38.2480 C   0  0  0  0  0  2  0  0  0  0  0  0
   29.2010   30.2810   38.7220 C   0  0  0  0  0  2  0  0  0  0  0  0
   30.6920   30.0140   38.4960 C   0  0  0  0  0  2  0  0  0  0  0  0
  1  6  1  0  0  0  0
  1  2  1  0  0  0  0
  3  1  1  0  0  0  0
  4  5  1  0  0  0  0
  4  8  1  0  0  0  0
  4  9  1  1  0  0  0
  5 11  1  0  0  0  0
  5  6  1  0  0  0  0
  6  7  1  0  0  0  0
  6 12  1  1  0  0  0
  8 13  1  0  0  0  0
  8  7  1  0  0  0  0
 10  5  1  0  0  0  0
 14  8  1  0  0  0  0
 15  4  1  0  0  0  0
 16 15  1  0  0  0  0
 17 18  2  0  0  0  0
 18  1  1  0  0  0  0
 19 24  1  0  0  0  0
 19 17  1  0  0  0  0
 20 19  2  0  0  0  0
 21 22  2  0  0  0  0
 21 20  1  0  0  0  0
 22 23  1  0  0  0  0
 23 27  1  0  0  0  0
 23 24  2  0  0  0  0
 25 20  1  0  0  0  0
 26 21  1  0  0  0  0
 27 32  1  0  0  0  0
 28 29  1  0  0  0  0
 28 27  1  0  0  0  0
 29 30  1  0  0  0  0
 30 31  1  0  0  0  0
 32 31  1  0  0  0  0
M  END
>  <minimizedAffinity>
-5.15993452

$$$$
