
 OpenBabel03252508333D

 29 31  0  0  1  0  0  0  0  0999 V2000
   36.7720   30.2100   39.3590 N   0  0  0  0  0  0  0  0  0  0  0  0
   35.8470   29.8540   40.3450 C   0  0  1  0  0  0  0  0  0  0  0  0
   34.6340   29.0910   39.8830 C   0  0  0  0  0  0  0  0  0  0  0  0
   34.3330   29.0350   38.5290 N   0  0  0  0  0  0  0  0  0  0  0  0
   35.3700   29.1880   37.6150 C   0  0  0  0  0  0  0  0  0  0  0  0
   36.7160   29.3460   38.2100 C   0  0  0  0  0  0  0  0  0  0  0  0
   35.4860   30.7610   40.8780 H   0  0  0  0  0  0  0  0  0  0  0  0
   33.7410   29.5250   40.4470 H   0  0  0  0  0  0  0  0  0  0  0  0
   34.6730   28.0550   40.2740 H   0  0  0  0  0  0  0  0  0  0  0  0
   33.6570   28.2650   38.3540 H   0  0  0  0  0  0  0  0  0  0  0  0
   35.1590   30.0510   36.9200 H   0  0  0  0  0  0  0  0  0  0  0  0
   35.4180   28.2930   36.9300 H   0  0  0  0  0  0  0  0  0  0  0  0
   37.2530   28.3710   38.3610 H   0  0  0  0  0  0  0  0  0  0  0  0
   37.3450   29.8390   37.4020 H   0  0  0  0  0  0  0  0  0  0  0  0
   38.9840   31.0990   39.1560 C   0  0  0  0  0  0  0  0  0  0  0  0
   37.6600   31.3080   39.5220 C   0  0  0  0  0  0  0  0  0  0  0  0
   37.2910   32.5400   40.0230 C   0  0  0  0  0  0  0  0  0  0  0  0
   38.2060   33.5360   40.1610 N   0  0  0  0  0  0  0  0  0  0  0  0
   39.5080   33.3050   39.7940 C   0  0  0  0  0  0  0  0  0  0  0  0
   39.8760   32.1020   39.3010 N   0  0  0  0  0  0  0  0  0  0  0  0
   39.4750   30.2280   38.7560 H   0  0  0  0  0  0  0  0  0  0  0  0
   36.2900   32.7550   40.3080 H   0  0  0  0  0  0  0  0  0  0  0  0
   40.2300   34.1150   39.9100 H   0  0  0  0  0  0  0  0  0  0  0  0
   36.4550   28.9940   41.4670 C   0  0  0  0  0  3  0  0  0  0  0  0
   36.9030   27.6480   41.0370 C   0  0  0  0  0  2  0  0  0  0  0  0
   36.9980   26.7870   42.2900 C   0  0  0  0  0  2  0  0  0  0  0  0
   37.0070   27.6060   43.5410 C   0  0  0  0  0  2  0  0  0  0  0  0
   37.8770   28.8200   43.4590 C   0  0  0  0  0  2  0  0  0  0  0  0
   37.5170   29.6680   42.2550 C   0  0  0  0  0  2  0  0  0  0  0  0
  1 16  1  0  0  0  0
  1  2  1  0  0  0  0
  2  7  1  1  0  0  0
  2 24  1  0  0  0  0
  3  9  1  0  0  0  0
  3  2  1  0  0  0  0
  3  8  1  0  0  0  0
  4  3  1  0  0  0  0
  5  6  1  0  0  0  0
  5  4  1  0  0  0  0
  6 13  1  0  0  0  0
  6  1  1  0  0  0  0
 10  4  1  0  0  0  0
 11  5  1  0  0  0  0
 12  5  1  0  0  0  0
 14  6  1  0  0  0  0
 15 20  2  0  0  0  0
 15 16  1  0  0  0  0
 16 17  2  0  0  0  0
 17 18  1  0  0  0  0
 17 22  1  0  0  0  0
 19 23  1  0  0  0  0
 19 18  2  0  0  0  0
 20 19  1  0  0  0  0
 21 15  1  0  0  0  0
 24 29  1  0  0  0  0
 25 24  1  0  0  0  0
 25 26  1  0  0  0  0
 26 27  1  0  0  0  0
 28 27  1  0  0  0  0
 29 28  1  0  0  0  0
M  END
>  <minimizedAffinity>
-5.22333336

$$$$

 OpenBabel03252508333D

 29 31  0  0  1  0  0  0  0  0999 V2000
   37.0990   30.3030   39.6250 N   0  0  0  0  0  0  0  0  0  0  0  0
   36.4250   29.8110   40.7480 C   0  0  1  0  0  0  0  0  0  0  0  0
   35.1600   29.0400   40.4840 C   0  0  0  0  0  0  0  0  0  0  0  0
   34.5670   29.1000   39.2290 N   0  0  0  0  0  0  0  0  0  0  0  0
   35.3720   29.3880   38.1330 C   0  0  0  0  0  0  0  0  0  0  0  0
   36.8120   29.5520   38.4330 C   0  0  0  0  0  0  0  0  0  0  0  0
   36.1690   30.6440   41.4380 H   0  0  0  0  0  0  0  0  0  0  0  0
   34.4030   29.3750   41.2710 H   0  0  0  0  0  0  0  0  0  0  0  0
   35.3100   27.9740   40.7470 H   0  0  0  0  0  0  0  0  0  0  0  0
   33.8890   28.3190   39.1270 H   0  0  0  0  0  0  0  0  0  0  0  0
   34.9910   30.3040   37.5940 H   0  0  0  0  0  0  0  0  0  0  0  0
   35.2890   28.5670   37.3640 H   0  0  0  0  0  0  0  0  0  0  0  0
   37.3930   28.5930   38.3610 H   0  0  0  0  0  0  0  0  0  0  0  0
   37.2340   30.1490   37.5630 H   0  0  0  0  0  0  0  0  0  0  0  0
   37.3960   32.6440   40.0220 C   0  0  0  0  0  0  0  0  0  0  0  0
   37.9740   31.4210   39.7050 C   0  0  0  0  0  0  0  0  0  0  0  0
   39.3340   31.3640   39.4780 C   0  0  0  0  0  0  0  0  0  0  0  0
   40.1000   32.4840   39.5600 N   0  0  0  0  0  0  0  0  0  0  0  0
   39.5060   33.6800   39.8740 C   0  0  0  0  0  0  0  0  0  0  0  0
   38.1740   33.7440   40.0990 N   0  0  0  0  0  0  0  0  0  0  0  0
   36.3720   32.9060   40.2290 H   0  0  0  0  0  0  0  0  0  0  0  0
   39.8270   30.4520   39.2410 H   0  0  0  0  0  0  0  0  0  0  0  0
   40.1340   34.5700   39.9370 H   0  0  0  0  0  0  0  0  0  0  0  0
   37.2890   28.8760   41.6140 C   0  0  0  0  0  3  0  0  0  0  0  0
   38.1010   29.5670   42.6430 C   0  0  0  0  0  2  0  0  0  0  0  0
   39.2190   28.6130   43.0450 C   0  0  0  0  0  2  0  0  0  0  0  0
   38.9470   27.2070   42.6130 C   0  0  0  0  0  2  0  0  0  0  0  0
   37.5350   26.7700   42.8460 C   0  0  0  0  0  2  0  0  0  0  0  0
   36.5530   27.7340   42.2120 C   0  0  0  0  0  2  0  0  0  0  0  0
  1 16  1  0  0  0  0
  1  2  1  0  0  0  0
  2  7  1  1  0  0  0
  2 24  1  0  0  0  0
  3  9  1  0  0  0  0
  3  2  1  0  0  0  0
  3  8  1  0  0  0  0
  4  3  1  0  0  0  0
  5  6  1  0  0  0  0
  5  4  1  0  0  0  0
  6  1  1  0  0  0  0
 10  4  1  0  0  0  0
 11  5  1  0  0  0  0
 12  5  1  0  0  0  0
 13  6  1  0  0  0  0
 14  6  1  0  0  0  0
 15 20  1  0  0  0  0
 15 21  1  0  0  0  0
 16 15  2  0  0  0  0
 17 18  2  0  0  0  0
 17 16  1  0  0  0  0
 18 19  1  0  0  0  0
 19 23  1  0  0  0  0
 19 20  2  0  0  0  0
 22 17  1  0  0  0  0
 24 29  1  0  0  0  0
 24 25  1  0  0  0  0
 25 26  1  0  0  0  0
 27 28  1  0  0  0  0
 27 26  1  0  0  0  0
 29 28  1  0  0  0  0
M  END
>  <minimizedAffinity>
-5.02029181

$$$$

 OpenBabel03252508333D

 29 31  0  0  1  0  0  0  0  0999 V2000
   38.3250   30.4680   41.2170 N   0  0  0  0  0  0  0  0  0  0  0  0
   37.1150   30.8570   40.6340 C   0  0  1  0  0  0  0  0  0  0  0  0
   37.0040   32.2990   40.2170 C   0  0  0  0  0  0  0  0  0  0  0  0
   37.9360   33.2210   40.6790 N   0  0  0  0  0  0  0  0  0  0  0  0
   39.1980   32.7610   41.0350 C   0  0  0  0  0  0  0  0  0  0  0  0
   39.4230   31.3130   40.8280 C   0  0  0  0  0  0  0  0  0  0  0  0
   36.2700   30.6440   41.3250 H   0  0  0  0  0  0  0  0  0  0  0  0
   35.9580   32.6450   40.5150 H   0  0  0  0  0  0  0  0  0  0  0  0
   36.9650   32.3680   39.1130 H   0  0  0  0  0  0  0  0  0  0  0  0
   37.8910   34.0810   40.0970 H   0  0  0  0  0  0  0  0  0  0  0  0
   39.4280   33.0310   42.1060 H   0  0  0  0  0  0  0  0  0  0  0  0
   39.9900   33.3030   40.4420 H   0  0  0  0  0  0  0  0  0  0  0  0
   39.8350   31.0670   39.8120 H   0  0  0  0  0  0  0  0  0  0  0  0
   40.2950   31.0450   41.5060 H   0  0  0  0  0  0  0  0  0  0  0  0
   39.6340   28.6780   42.1160 C   0  0  0  0  0  0  0  0  0  0  0  0
   38.4150   29.3460   42.0850 C   0  0  0  0  0  0  0  0  0  0  0  0
   37.3810   28.8850   42.8720 C   0  0  0  0  0  0  0  0  0  0  0  0
   37.5440   27.7940   43.6660 N   0  0  0  0  0  0  0  0  0  0  0  0
   38.7560   27.1510   43.6800 C   0  0  0  0  0  0  0  0  0  0  0  0
   39.7750   27.5970   42.9120 N   0  0  0  0  0  0  0  0  0  0  0  0
   40.5530   28.8650   41.5870 H   0  0  0  0  0  0  0  0  0  0  0  0
   36.4320   29.3650   42.8920 H   0  0  0  0  0  0  0  0  0  0  0  0
   38.8710   26.2770   44.3230 H   0  0  0  0  0  0  0  0  0  0  0  0
   36.7610   30.0500   39.3720 C   0  0  0  0  0  3  0  0  0  0  0  0
   35.4290   29.4000   39.4100 C   0  0  0  0  0  2  0  0  0  0  0  0
   35.4460   28.2860   38.3710 C   0  0  0  0  0  2  0  0  0  0  0  0
   36.5780   28.4290   37.4040 C   0  0  0  0  0  2  0  0  0  0  0  0
   36.7890   29.8320   36.9290 C   0  0  0  0  0  2  0  0  0  0  0  0
   36.9450   30.7860   38.0960 C   0  0  0  0  0  2  0  0  0  0  0  0
  1 16  1  0  0  0  0
  2  1  1  0  0  0  0
  2  7  1  1  0  0  0
  3  8  1  0  0  0  0
  3  2  1  0  0  0  0
  3  4  1  0  0  0  0
  4  5  1  0  0  0  0
  5 11  1  0  0  0  0
  6  5  1  0  0  0  0
  6  1  1  0  0  0  0
  6 14  1  0  0  0  0
  9  3  1  0  0  0  0
 10  4  1  0  0  0  0
 12  5  1  0  0  0  0
 13  6  1  0  0  0  0
 15 20  1  0  0  0  0
 16 15  2  0  0  0  0
 16 17  1  0  0  0  0
 17 22  1  0  0  0  0
 17 18  2  0  0  0  0
 18 19  1  0  0  0  0
 19 23  1  0  0  0  0
 20 19  2  0  0  0  0
 21 15  1  0  0  0  0
 24 25  1  0  0  0  0
 24  2  1  0  0  0  0
 26 25  1  0  0  0  0
 27 26  1  0  0  0  0
 28 27  1  0  0  0  0
 28 29  1  0  0  0  0
 29 24  1  0  0  0  0
M  END
>  <minimizedAffinity>
-4.94739103

$$$$

 OpenBabel03252508333D

 29 31  0  0  1  0  0  0  0  0999 V2000
   37.6120   30.8710   39.7570 N   0  0  0  0  0  0  0  0  0  0  0  0
   38.5840   30.1620   40.4690 C   0  0  1  0  0  0  0  0  0  0  0  0
   39.5030   30.9760   41.3400 C   0  0  0  0  0  0  0  0  0  0  0  0
   39.5570   32.3540   41.1820 N   0  0  0  0  0  0  0  0  0  0  0  0
   38.4440   33.0030   40.6580 C   0  0  0  0  0  0  0  0  0  0  0  0
   37.2840   32.1300   40.3700 C   0  0  0  0  0  0  0  0  0  0  0  0
   39.2210   29.5750   39.7710 H   0  0  0  0  0  0  0  0  0  0  0  0
   40.5510   30.5430   41.2030 H   0  0  0  0  0  0  0  0  0  0  0  0
   39.3000   30.7560   42.4070 H   0  0  0  0  0  0  0  0  0  0  0  0
   40.0070   32.7830   42.0150 H   0  0  0  0  0  0  0  0  0  0  0  0
   38.7250   33.5790   39.7290 H   0  0  0  0  0  0  0  0  0  0  0  0
   38.0860   33.7980   41.3730 H   0  0  0  0  0  0  0  0  0  0  0  0
   36.5760   32.0310   41.2370 H   0  0  0  0  0  0  0  0  0  0  0  0
   36.6560   32.7040   39.6170 H   0  0  0  0  0  0  0  0  0  0  0  0
   35.8350   29.6610   38.7050 C   0  0  0  0  0  0  0  0  0  0  0  0
   37.0300   30.3570   38.5650 C   0  0  0  0  0  0  0  0  0  0  0  0
   37.5780   30.4980   37.3070 C   0  0  0  0  0  0  0  0  0  0  0  0
   36.9650   29.9650   36.2180 N   0  0  0  0  0  0  0  0  0  0  0  0
   35.7860   29.2810   36.3810 C   0  0  0  0  0  0  0  0  0  0  0  0
   35.2420   29.1400   37.6100 N   0  0  0  0  0  0  0  0  0  0  0  0
   35.2500   29.4350   39.5800 H   0  0  0  0  0  0  0  0  0  0  0  0
   38.4840   31.0300   37.1450 H   0  0  0  0  0  0  0  0  0  0  0  0
   35.3050   28.8590   35.4970 H   0  0  0  0  0  0  0  0  0  0  0  0
   37.9930   29.0920   41.4040 C   0  0  0  0  0  3  0  0  0  0  0  0
   38.1960   27.6960   40.9490 C   0  0  0  0  0  2  0  0  0  0  0  0
   37.1670   26.8360   41.6720 C   0  0  0  0  0  2  0  0  0  0  0  0
   36.5680   27.5380   42.8490 C   0  0  0  0  0  2  0  0  0  0  0  0
   37.5670   28.2790   43.6800 C   0  0  0  0  0  2  0  0  0  0  0  0
   38.3800   29.2360   42.8300 C   0  0  0  0  0  2  0  0  0  0  0  0
  1  6  1  0  0  0  0
  1  2  1  0  0  0  0
  2  7  1  6  0  0  0
  2  3  1  0  0  0  0
  2 24  1  0  0  0  0
  3  9  1  0  0  0  0
  4  3  1  0  0  0  0
  4 10  1  0  0  0  0
  5  4  1  0  0  0  0
  5 12  1  0  0  0  0
  6  5  1  0  0  0  0
  6 13  1  0  0  0  0
  8  3  1  0  0  0  0
 11  5  1  0  0  0  0
 14  6  1  0  0  0  0
 15 21  1  0  0  0  0
 16 15  1  0  0  0  0
 16  1  1  0  0  0  0
 17 16  2  0  0  0  0
 18 19  2  0  0  0  0
 18 17  1  0  0  0  0
 19 20  1  0  0  0  0
 20 15  2  0  0  0  0
 22 17  1  0  0  0  0
 23 19  1  0  0  0  0
 24 29  1  0  0  0  0
 25 24  1  0  0  0  0
 25 26  1  0  0  0  0
 26 27  1  0  0  0  0
 27 28  1  0  0  0  0
 29 28  1  0  0  0  0
M  END
>  <minimizedAffinity>
-4.89688349

$$$$

 OpenBabel03252508333D

 29 31  0  0  1  0  0  0  0  0999 V2000
   36.6930   29.1980   40.3800 N   0  0  0  0  0  0  0  0  0  0  0  0
   37.3480   29.8280   39.3160 C   0  0  1  0  0  0  0  0  0  0  0  0
   36.5390   30.0430   38.0650 C   0  0  0  0  0  0  0  0  0  0  0  0
   35.3340   29.3710   37.9030 N   0  0  0  0  0  0  0  0  0  0  0  0
   34.6430   28.9700   39.0410 C   0  0  0  0  0  0  0  0  0  0  0  0
   35.2650   29.3600   40.3260 C   0  0  0  0  0  0  0  0  0  0  0  0
   38.2560   29.2540   39.0310 H   0  0  0  0  0  0  0  0  0  0  0  0
   37.2250   29.7960   37.1870 H   0  0  0  0  0  0  0  0  0  0  0  0
   36.3560   31.1250   37.9190 H   0  0  0  0  0  0  0  0  0  0  0  0
   34.7810   29.8260   37.1490 H   0  0  0  0  0  0  0  0  0  0  0  0
   34.4720   27.8550   39.0260 H   0  0  0  0  0  0  0  0  0  0  0  0
   33.6020   29.4040   39.0360 H   0  0  0  0  0  0  0  0  0  0  0  0
   34.9170   30.3590   40.7040 H   0  0  0  0  0  0  0  0  0  0  0  0
   34.8280   28.6500   41.0980 H   0  0  0  0  0  0  0  0  0  0  0  0
   38.1830   27.4210   40.9710 C   0  0  0  0  0  0  0  0  0  0  0  0
   37.4060   28.4940   41.3900 C   0  0  0  0  0  0  0  0  0  0  0  0
   37.3610   28.8030   42.7330 C   0  0  0  0  0  0  0  0  0  0  0  0
   38.0620   28.0700   43.6390 N   0  0  0  0  0  0  0  0  0  0  0  0
   38.8220   27.0150   43.2020 C   0  0  0  0  0  0  0  0  0  0  0  0
   38.8720   26.7070   41.8860 N   0  0  0  0  0  0  0  0  0  0  0  0
   38.3510   27.0140   39.9880 H   0  0  0  0  0  0  0  0  0  0  0  0
   36.7900   29.6200   43.1040 H   0  0  0  0  0  0  0  0  0  0  0  0
   39.3800   26.4370   43.9400 H   0  0  0  0  0  0  0  0  0  0  0  0
   37.8970   31.2190   39.6790 C   0  0  0  0  0  3  0  0  0  0  0  0
   39.3450   31.3970   39.4150 C   0  0  0  0  0  2  0  0  0  0  0  0
   39.8110   32.5780   40.2570 C   0  0  0  0  0  2  0  0  0  0  0  0
   38.6690   33.4060   40.7530 C   0  0  0  0  0  2  0  0  0  0  0  0
   37.6140   33.6550   39.7220 C   0  0  0  0  0  2  0  0  0  0  0  0
   37.1220   32.3540   39.1190 C   0  0  0  0  0  2  0  0  0  0  0  0
  1 16  1  0  0  0  0
  2  7  1  6  0  0  0
  2 24  1  0  0  0  0
  2  1  1  0  0  0  0
  3  2  1  0  0  0  0
  4  3  1  0  0  0  0
  4  5  1  0  0  0  0
  5  6  1  0  0  0  0
  6  1  1  0  0  0  0
  6 13  1  0  0  0  0
  6 14  1  0  0  0  0
  8  3  1  0  0  0  0
  9  3  1  0  0  0  0
 10  4  1  0  0  0  0
 11  5  1  0  0  0  0
 12  5  1  0  0  0  0
 15 16  2  0  0  0  0
 15 20  1  0  0  0  0
 16 17  1  0  0  0  0
 17 22  1  0  0  0  0
 17 18  2  0  0  0  0
 19 18  1  0  0  0  0
 19 23  1  0  0  0  0
 20 19  2  0  0  0  0
 21 15  1  0  0  0  0
 25 24  1  0  0  0  0
 25 26  1  0  0  0  0
 26 27  1  0  0  0  0
 28 27  1  0  0  0  0
 29 24  1  0  0  0  0
 29 28  1  0  0  0  0
M  END
>  <minimizedAffinity>
-4.79329729

$$$$

 OpenBabel03252508333D

 29 31  0  0  1  0  0  0  0  0999 V2000
   38.3760   30.3450   41.0980 N   0  0  0  0  0  0  0  0  0  0  0  0
   37.0630   30.5180   40.6480 C   0  0  1  0  0  0  0  0  0  0  0  0
   36.6720   31.9150   40.2470 C   0  0  0  0  0  0  0  0  0  0  0  0
   37.4810   32.9850   40.6060 N   0  0  0  0  0  0  0  0  0  0  0  0
   38.8330   32.7460   40.8240 C   0  0  0  0  0  0  0  0  0  0  0  0
   39.2720   31.3510   40.5940 C   0  0  0  0  0  0  0  0  0  0  0  0
   36.3430   30.1820   41.4260 H   0  0  0  0  0  0  0  0  0  0  0  0
   35.6200   32.0890   40.6550 H   0  0  0  0  0  0  0  0  0  0  0  0
   36.5050   31.9570   39.1520 H   0  0  0  0  0  0  0  0  0  0  0  0
   37.2340   33.8160   40.0320 H   0  0  0  0  0  0  0  0  0  0  0  0
   39.1270   33.0690   41.8650 H   0  0  0  0  0  0  0  0  0  0  0  0
   39.4570   33.4010   40.1500 H   0  0  0  0  0  0  0  0  0  0  0  0
   39.6080   31.1590   39.5390 H   0  0  0  0  0  0  0  0  0  0  0  0
   40.2420   31.2420   41.1740 H   0  0  0  0  0  0  0  0  0  0  0  0
   37.7650   28.8050   42.8240 C   0  0  0  0  0  0  0  0  0  0  0  0
   38.7420   29.2680   41.9510 C   0  0  0  0  0  0  0  0  0  0  0  0
   39.9880   28.6760   41.9680 C   0  0  0  0  0  0  0  0  0  0  0  0
   40.2630   27.6580   42.8260 N   0  0  0  0  0  0  0  0  0  0  0  0
   39.2830   27.2190   43.6790 C   0  0  0  0  0  0  0  0  0  0  0  0
   38.0590   27.7920   43.6670 N   0  0  0  0  0  0  0  0  0  0  0  0
   36.7480   29.1220   42.9750 H   0  0  0  0  0  0  0  0  0  0  0  0
   40.7670   28.9860   41.3140 H   0  0  0  0  0  0  0  0  0  0  0  0
   39.5180   26.4000   44.3610 H   0  0  0  0  0  0  0  0  0  0  0  0
   36.7170   29.6420   39.4310 C   0  0  0  0  0  3  0  0  0  0  0  0
   35.5650   28.7310   39.6360 C   0  0  0  0  0  2  0  0  0  0  0  0
   35.6710   27.6340   38.5850 C   0  0  0  0  0  2  0  0  0  0  0  0
   36.6070   27.9980   37.4770 C   0  0  0  0  0  2  0  0  0  0  0  0
   36.4570   29.4090   37.0030 C   0  0  0  0  0  2  0  0  0  0  0  0
   36.5700   30.3870   38.1560 C   0  0  0  0  0  2  0  0  0  0  0  0
  1 16  1  0  0  0  0
  2  1  1  0  0  0  0
  2  7  1  1  0  0  0
  3  4  1  0  0  0  0
  3  2  1  0  0  0  0
  3  8  1  0  0  0  0
  4  5  1  0  0  0  0
  5 11  1  0  0  0  0
  6  5  1  0  0  0  0
  6  1  1  0  0  0  0
  6 14  1  0  0  0  0
  9  3  1  0  0  0  0
 10  4  1  0  0  0  0
 12  5  1  0  0  0  0
 13  6  1  0  0  0  0
 15 21  1  0  0  0  0
 15 20  1  0  0  0  0
 16 17  1  0  0  0  0
 16 15  2  0  0  0  0
 17 18  2  0  0  0  0
 18 19  1  0  0  0  0
 19 23  1  0  0  0  0
 20 19  2  0  0  0  0
 22 17  1  0  0  0  0
 24 25  1  0  0  0  0
 24  2  1  0  0  0  0
 26 25  1  0  0  0  0
 27 26  1  0  0  0  0
 28 27  1  0  0  0  0
 28 29  1  0  0  0  0
 29 24  1  0  0  0  0
M  END
>  <minimizedAffinity>
-4.70837688

$$$$

 OpenBabel03252508333D

 29 31  0  0  1  0  0  0  0  0999 V2000
   37.9400   29.7440   41.2460 N   0  0  0  0  0  0  0  0  0  0  0  0
   37.8380   28.6220   40.4180 C   0  0  1  0  0  0  0  0  0  0  0  0
   37.9680   27.2810   41.0880 C   0  0  0  0  0  0  0  0  0  0  0  0
   38.4660   27.2050   42.3830 N   0  0  0  0  0  0  0  0  0  0  0  0
   38.3250   28.3140   43.2100 C   0  0  0  0  0  0  0  0  0  0  0  0
   37.5980   29.4560   42.6130 C   0  0  0  0  0  0  0  0  0  0  0  0
   38.6040   28.6670   39.6130 H   0  0  0  0  0  0  0  0  0  0  0  0
   38.6130   26.6340   40.4020 H   0  0  0  0  0  0  0  0  0  0  0  0
   36.9960   26.7510   41.0580 H   0  0  0  0  0  0  0  0  0  0  0  0
   38.2350   26.2770   42.7900 H   0  0  0  0  0  0  0  0  0  0  0  0
   39.3330   28.6590   43.5810 H   0  0  0  0  0  0  0  0  0  0  0  0
   37.7720   28.0280   44.1500 H   0  0  0  0  0  0  0  0  0  0  0  0
   36.4900   29.4230   42.7960 H   0  0  0  0  0  0  0  0  0  0  0  0
   37.9100   30.3620   43.2230 H   0  0  0  0  0  0  0  0  0  0  0  0
   39.6870   31.1920   40.4850 C   0  0  0  0  0  0  0  0  0  0  0  0
   38.3330   31.0150   40.7440 C   0  0  0  0  0  0  0  0  0  0  0  0
   37.4660   32.0640   40.5160 C   0  0  0  0  0  0  0  0  0  0  0  0
   37.9250   33.2550   40.0470 N   0  0  0  0  0  0  0  0  0  0  0  0
   39.2660   33.4060   39.7990 C   0  0  0  0  0  0  0  0  0  0  0  0
   40.1210   32.3820   40.0190 N   0  0  0  0  0  0  0  0  0  0  0  0
   40.5190   30.5180   40.5970 H   0  0  0  0  0  0  0  0  0  0  0  0
   36.4210   31.9780   40.6880 H   0  0  0  0  0  0  0  0  0  0  0  0
   39.6180   34.3670   39.4220 H   0  0  0  0  0  0  0  0  0  0  0  0
   36.5080   28.5540   39.6470 C   0  0  0  0  0  3  0  0  0  0  0  0
   36.2390   27.2500   38.9960 C   0  0  0  0  0  2  0  0  0  0  0  0
   35.1970   27.4980   37.9110 C   0  0  0  0  0  2  0  0  0  0  0  0
   34.5020   28.8110   38.0830 C   0  0  0  0  0  2  0  0  0  0  0  0
   34.1230   29.1100   39.4990 C   0  0  0  0  0  2  0  0  0  0  0  0
   35.3230   29.0050   40.4190 C   0  0  0  0  0  2  0  0  0  0  0  0
  1  6  1  0  0  0  0
  2  7  1  6  0  0  0
  2  3  1  0  0  0  0
  2  1  1  0  0  0  0
  3  4  1  0  0  0  0
  4 10  1  0  0  0  0
  4  5  1  0  0  0  0
  5 11  1  0  0  0  0
  5 12  1  0  0  0  0
  6 13  1  0  0  0  0
  6  5  1  0  0  0  0
  6 14  1  0  0  0  0
  8  3  1  0  0  0  0
  9  3  1  0  0  0  0
 15 21  1  0  0  0  0
 15 16  1  0  0  0  0
 16  1  1  0  0  0  0
 17 22  1  0  0  0  0
 17 16  2  0  0  0  0
 18 17  1  0  0  0  0
 19 20  1  0  0  0  0
 19 18  2  0  0  0  0
 20 15  2  0  0  0  0
 23 19  1  0  0  0  0
 24  2  1  0  0  0  0
 24 29  1  0  0  0  0
 25 24  1  0  0  0  0
 26 27  1  0  0  0  0
 26 25  1  0  0  0  0
 27 28  1  0  0  0  0
 28 29  1  0  0  0  0
M  END
>  <minimizedAffinity>
-4.68615484

$$$$

 OpenBabel03252508333D

 29 31  0  0  1  0  0  0  0  0999 V2000
   38.1640   27.5210   41.3810 N   0  0  0  0  0  0  0  0  0  0  0  0
   37.0850   28.3930   41.5550 C   0  0  1  0  0  0  0  0  0  0  0  0
   37.3580   29.6480   42.3390 C   0  0  0  0  0  0  0  0  0  0  0  0
   38.5230   29.7500   43.0880 N   0  0  0  0  0  0  0  0  0  0  0  0
   39.6240   28.9950   42.7010 C   0  0  0  0  0  0  0  0  0  0  0  0
   39.4350   28.1870   41.4760 C   0  0  0  0  0  0  0  0  0  0  0  0
   36.2410   27.8660   42.0530 H   0  0  0  0  0  0  0  0  0  0  0  0
   36.4580   29.8060   43.0250 H   0  0  0  0  0  0  0  0  0  0  0  0
   37.2960   30.5290   41.6700 H   0  0  0  0  0  0  0  0  0  0  0  0
   38.6940   30.7470   43.3310 H   0  0  0  0  0  0  0  0  0  0  0  0
   39.9610   28.3280   43.5470 H   0  0  0  0  0  0  0  0  0  0  0  0
   40.5110   29.6670   42.5160 H   0  0  0  0  0  0  0  0  0  0  0  0
   39.7240   28.7300   40.5360 H   0  0  0  0  0  0  0  0  0  0  0  0
   40.2250   27.3720   41.5290 H   0  0  0  0  0  0  0  0  0  0  0  0
   38.7570   25.5720   40.1250 C   0  0  0  0  0  0  0  0  0  0  0  0
   37.9760   26.1340   41.1270 C   0  0  0  0  0  0  0  0  0  0  0  0
   37.0740   25.3350   41.7980 C   0  0  0  0  0  0  0  0  0  0  0  0
   36.9450   24.0180   41.4860 N   0  0  0  0  0  0  0  0  0  0  0  0
   37.7270   23.4860   40.4920 C   0  0  0  0  0  0  0  0  0  0  0  0
   38.6140   24.2630   39.8310 N   0  0  0  0  0  0  0  0  0  0  0  0
   39.5060   26.0100   39.4860 H   0  0  0  0  0  0  0  0  0  0  0  0
   36.4600   25.7130   42.5800 H   0  0  0  0  0  0  0  0  0  0  0  0
   37.6120   22.4280   40.2530 H   0  0  0  0  0  0  0  0  0  0  0  0
   36.4740   28.8770   40.2280 C   0  0  0  0  0  3  0  0  0  0  0  0
   34.9940   28.9580   40.2240 C   0  0  0  0  0  2  0  0  0  0  0  0
   34.5500   28.9570   38.7660 C   0  0  0  0  0  2  0  0  0  0  0  0
   35.6760   29.2650   37.8310 C   0  0  0  0  0  2  0  0  0  0  0  0
   36.5530   30.3840   38.2940 C   0  0  0  0  0  2  0  0  0  0  0  0
   37.0650   30.1310   39.6970 C   0  0  0  0  0  2  0  0  0  0  0  0
  1  6  1  0  0  0  0
  1  2  1  0  0  0  0
  2  7  1  1  0  0  0
  2  3  1  0  0  0  0
  3  8  1  0  0  0  0
  3  4  1  0  0  0  0
  4 10  1  0  0  0  0
  5  4  1  0  0  0  0
  5 11  1  0  0  0  0
  6 14  1  0  0  0  0
  6  5  1  0  0  0  0
  9  3  1  0  0  0  0
 12  5  1  0  0  0  0
 13  6  1  0  0  0  0
 15 16  1  0  0  0  0
 16  1  1  0  0  0  0
 16 17  2  0  0  0  0
 17 22  1  0  0  0  0
 18 17  1  0  0  0  0
 19 18  2  0  0  0  0
 20 15  2  0  0  0  0
 20 19  1  0  0  0  0
 21 15  1  0  0  0  0
 23 19  1  0  0  0  0
 24  2  1  0  0  0  0
 25 24  1  0  0  0  0
 26 25  1  0  0  0  0
 27 28  1  0  0  0  0
 27 26  1  0  0  0  0
 28 29  1  0  0  0  0
 29 24  1  0  0  0  0
M  END
>  <minimizedAffinity>
-4.67359495

$$$$

 OpenBabel03252508333D

 29 31  0  0  1  0  0  0  0  0999 V2000
   39.6670   30.3760   41.4810 N   0  0  0  0  0  0  0  0  0  0  0  0
   40.0430   29.0340   41.5880 C   0  0  1  0  0  0  0  0  0  0  0  0
   41.2510   28.7430   42.4370 C   0  0  0  0  0  0  0  0  0  0  0  0
   42.0920   29.7820   42.8150 N   0  0  0  0  0  0  0  0  0  0  0  0
   41.5640   31.0660   42.8870 C   0  0  0  0  0  0  0  0  0  0  0  0
   40.1170   31.1690   42.5940 C   0  0  0  0  0  0  0  0  0  0  0  0
   40.2340   28.6060   40.5800 H   0  0  0  0  0  0  0  0  0  0  0  0
   41.8600   27.9540   41.8790 H   0  0  0  0  0  0  0  0  0  0  0  0
   40.9450   28.1950   43.3500 H   0  0  0  0  0  0  0  0  0  0  0  0
   42.6950   29.4720   43.6030 H   0  0  0  0  0  0  0  0  0  0  0  0
   42.1370   31.7660   42.2140 H   0  0  0  0  0  0  0  0  0  0  0  0
   41.7200   31.4920   43.9190 H   0  0  0  0  0  0  0  0  0  0  0  0
   39.4690   31.0610   43.5060 H   0  0  0  0  0  0  0  0  0  0  0  0
   39.9450   32.2550   42.3100 H   0  0  0  0  0  0  0  0  0  0  0  0
   37.8460   31.7010   40.6710 C   0  0  0  0  0  0  0  0  0  0  0  0
   38.9110   30.8590   40.3770 C   0  0  0  0  0  0  0  0  0  0  0  0
   39.1640   30.5360   39.0600 C   0  0  0  0  0  0  0  0  0  0  0  0
   38.3840   31.0290   38.0610 N   0  0  0  0  0  0  0  0  0  0  0  0
   37.3370   31.8580   38.3770 C   0  0  0  0  0  0  0  0  0  0  0  0
   37.0850   32.1800   39.6650 N   0  0  0  0  0  0  0  0  0  0  0  0
   37.4790   32.0690   41.6140 H   0  0  0  0  0  0  0  0  0  0  0  0
   39.9720   29.9040   38.7800 H   0  0  0  0  0  0  0  0  0  0  0  0
   36.7210   32.2470   37.5640 H   0  0  0  0  0  0  0  0  0  0  0  0
   38.9310   28.1350   42.1570 C   0  0  0  0  0  3  0  0  0  0  0  0
   39.3360   26.7290   42.3950 C   0  0  0  0  0  2  0  0  0  0  0  0
   38.0590   25.9010   42.4650 C   0  0  0  0  0  2  0  0  0  0  0  0
   36.8440   26.7490   42.6670 C   0  0  0  0  0  2  0  0  0  0  0  0
   37.0300   27.8350   43.6790 C   0  0  0  0  0  2  0  0  0  0  0  0
   38.2400   28.6860   43.3500 C   0  0  0  0  0  2  0  0  0  0  0  0
  1  2  1  0  0  0  0
  1  6  1  0  0  0  0
  2  7  1  6  0  0  0
  2 24  1  0  0  0  0
  2  3  1  0  0  0  0
  3  4  1  0  0  0  0
  3  9  1  0  0  0  0
  4  5  1  0  0  0  0
  4 10  1  0  0  0  0
  5 12  1  0  0  0  0
  6  5  1  0  0  0  0
  6 13  1  0  0  0  0
  8  3  1  0  0  0  0
 11  5  1  0  0  0  0
 14  6  1  0  0  0  0
 15 21  1  0  0  0  0
 16 15  1  0  0  0  0
 16  1  1  0  0  0  0
 17 16  2  0  0  0  0
 18 19  2  0  0  0  0
 18 17  1  0  0  0  0
 19 20  1  0  0  0  0
 20 15  2  0  0  0  0
 22 17  1  0  0  0  0
 23 19  1  0  0  0  0
 24 25  1  0  0  0  0
 24 29  1  0  0  0  0
 25 26  1  0  0  0  0
 26 27  1  0  0  0  0
 27 28  1  0  0  0  0
 29 28  1  0  0  0  0
M  END
>  <minimizedAffinity>
-4.66194248

$$$$
