
 OpenBabel03252507533D

 35 38  0  0  1  0  0  0  0  0999 V2000
   46.5210   35.0590   41.8180 C   0  0  2  0  0  0  0  0  0  0  0  0
   45.9230   35.1580   43.1940 C   0  0  0  0  0  0  0  0  0  0  0  0
   44.5520   35.7210   42.8340 C   0  0  0  0  0  0  0  0  0  0  0  0
   44.2330   35.1280   41.4740 C   0  0  1  0  0  0  0  0  0  0  0  0
   45.4050   34.2870   41.1150 C   0  0  0  0  0  0  0  0  0  0  0  0
   46.6630   36.0600   41.4070 H   0  0  0  0  0  0  0  0  0  0  0  0
   45.8720   34.1770   43.6740 H   0  0  0  0  0  0  0  0  0  0  0  0
   46.4820   35.9170   43.7760 H   0  0  0  0  0  0  0  0  0  0  0  0
   44.5600   36.8120   42.8540 H   0  0  0  0  0  0  0  0  0  0  0  0
   43.7890   35.3740   43.5750 H   0  0  0  0  0  0  0  0  0  0  0  0
   44.2110   35.9830   40.7850 H   0  0  0  0  0  0  0  0  0  0  0  0
   45.7090   34.2890   40.0680 H   0  0  0  0  0  0  0  0  0  0  0  0
   45.5260   33.3320   41.6460 H   0  0  0  0  0  0  0  0  0  0  0  0
   50.0660   33.9030   42.3950 C   0  0  0  0  0  0  0  0  0  0  0  0
   48.9080   34.7120   42.5300 C   0  0  0  0  0  0  0  0  0  0  0  0
   47.7910   34.2800   41.7700 C   0  0  0  0  0  0  0  0  0  0  0  0
   47.8490   33.1460   40.9640 N   0  0  0  0  0  0  0  0  0  0  0  0
   49.0020   32.4520   40.9120 C   0  0  0  0  0  0  0  0  0  0  0  0
   50.0900   32.8240   41.6150 N   0  0  0  0  0  0  0  0  0  0  0  0
   50.9240   34.2220   42.9700 H   0  0  0  0  0  0  0  0  0  0  0  0
   48.8090   35.5830   43.1290 H   0  0  0  0  0  0  0  0  0  0  0  0
   48.9040   31.6020   40.2500 H   0  0  0  0  0  0  0  0  0  0  0  0
   43.0490   34.2360   41.4730 C   0  0  2  0  0  0  0  0  0  0  0  0
   43.2700   32.7940   41.2430 C   0  0  0  0  0  0  0  0  0  0  0  0
   42.3700   33.6380   40.3710 C   0  0  2  0  0  0  0  0  0  0  0  0
   42.4520   34.4650   42.4100 H   0  0  0  0  0  0  0  0  0  0  0  0
   42.8130   32.0810   41.9970 H   0  0  0  0  0  0  0  0  0  0  0  0
   43.9150   32.2460   40.5960 H   0  0  0  0  0  0  0  0  0  0  0  0
   41.2750   33.3990   40.5780 H   0  0  0  0  0  0  0  0  0  0  0  0
   42.5290   33.8020   38.9130 C   0  0  0  0  0  0  0  0  0  0  0  0
   41.5650   32.8390   38.1920 C   0  0  0  0  0  0  0  0  0  0  0  0
   40.1420   33.3050   38.3050 C   0  0  0  0  0  0  0  0  0  0  0  0
   39.8950   34.7090   37.8640 C   0  0  0  0  0  0  0  0  0  0  0  0
   40.8370   35.6230   38.6100 C   0  0  0  0  0  0  0  0  0  0  0  0
   42.2640   35.2210   38.4210 C   0  0  0  0  0  0  0  0  0  0  0  0
  1  6  1  6  0  0  0
  1  2  1  0  0  0  0
  2  7  1  0  0  0  0
  2  8  1  0  0  0  0
  3  9  1  0  0  0  0
  3  2  1  0  0  0  0
  3 10  1  0  0  0  0
  4 11  1  6  0  0  0
  4  3  1  0  0  0  0
  5  4  1  0  0  0  0
  5 13  1  0  0  0  0
  5  1  1  0  0  0  0
 12  5  1  0  0  0  0
 14 15  1  0  0  0  0
 14 20  1  0  0  0  0
 15 21  1  0  0  0  0
 16  1  1  0  0  0  0
 16 15  2  0  0  0  0
 17 16  1  0  0  0  0
 18 17  2  0  0  0  0
 18 19  1  0  0  0  0
 19 14  2  0  0  0  0
 22 18  1  0  0  0  0
 23  4  1  0  0  0  0
 23 26  1  1  0  0  0
 24 23  1  0  0  0  0
 24 27  1  0  0  0  0
 25 29  1  1  0  0  0
 25 24  1  0  0  0  0
 25 23  1  0  0  0  0
 28 24  1  0  0  0  0
 30 25  1  0  0  0  0
 31 32  1  0  0  0  0
 31 30  1  0  0  0  0
 33 32  1  0  0  0  0
 33 34  1  0  0  0  0
 35 34  1  0  0  0  0
 35 30  1  0  0  0  0
M  END
>  <minimizedAffinity>
-5.71035957

>  <minimizedRMSD>
7.37866259

$$$$
