
 OpenBabel03242510063D

 15 16  0  0  1  0  0  0  0  0999 V2000
   36.7000   27.5260   42.6670 C   0  0  0  0  0  0  0  0  0  0  0  0
   37.7870   27.9270   43.4650 C   0  0  0  0  0  0  0  0  0  0  0  0
   38.3510   29.1820   43.2170 C   0  0  0  0  0  0  0  0  0  0  0  0
   37.8200   29.9420   42.2210 N   0  0  0  0  0  0  0  0  0  0  0  0
   36.7730   29.5310   41.4700 C   0  0  0  0  0  0  0  0  0  0  0  0
   36.2100   28.3190   41.6910 N   0  0  0  0  0  0  0  0  0  0  0  0
   36.2470   26.5460   42.8480 H   0  0  0  0  0  0  0  0  0  0  0  0
   38.1830   27.3110   44.2370 H   0  0  0  0  0  0  0  0  0  0  0  0
   39.1870   29.5760   43.7780 H   0  0  0  0  0  0  0  0  0  0  0  0
   36.2500   30.4260   40.3980 C   0  0  2  0  0  3  0  0  0  0  0  0
   36.4580   29.7250   39.1100 C   0  0  0  0  0  2  0  0  0  0  0  0
   37.5920   30.2610   38.2820 C   0  0  0  0  0  2  0  0  0  0  0  0
   37.3000   31.7230   38.0620 C   0  0  0  0  0  2  0  0  0  0  0  0
   37.2580   32.5000   39.3260 C   0  0  0  0  0  3  0  0  0  0  0  0
   36.8660   31.7660   40.5510 C   0  0  0  0  0  3  0  0  0  0  0  0
  1  7  1  0  0  0  0
  1  2  1  0  0  0  0
  2  8  1  0  0  0  0
  3  2  2  0  0  0  0
  3  9  1  0  0  0  0
  4  3  1  0  0  0  0
  5  6  1  0  0  0  0
  5  4  2  0  0  0  0
  6  1  2  0  0  0  0
 10 15  1  0  0  0  0
 10  5  1  1  0  0  0
 11 10  1  0  0  0  0
 12 11  1  0  0  0  0
 13 12  1  0  0  0  0
 13 14  1  0  0  0  0
 14 15  2  0  0  0  0
M  END
>  <minimizedAffinity>
-4.23884392

$$$$

 OpenBabel03242510063D

 15 16  0  0  1  0  0  0  0  0999 V2000
   35.5060   29.5460   40.2220 C   0  0  0  0  0  0  0  0  0  0  0  0
   36.2160   30.7430   40.4260 C   0  0  0  0  0  0  0  0  0  0  0  0
   37.1950   30.7580   41.4240 C   0  0  0  0  0  0  0  0  0  0  0  0
   37.4070   29.6200   42.1380 N   0  0  0  0  0  0  0  0  0  0  0  0
   36.7090   28.4820   41.9190 C   0  0  0  0  0  0  0  0  0  0  0  0
   35.7540   28.4420   40.9580 N   0  0  0  0  0  0  0  0  0  0  0  0
   34.7350   29.5170   39.4440 H   0  0  0  0  0  0  0  0  0  0  0  0
   36.0280   31.6190   39.8530 H   0  0  0  0  0  0  0  0  0  0  0  0
   37.7920   31.6310   41.6530 H   0  0  0  0  0  0  0  0  0  0  0  0
   37.0040   27.2760   42.7460 C   0  0  2  0  0  3  0  0  0  0  0  0
   38.0920   27.6480   43.6790 C   0  0  0  0  0  2  0  0  0  0  0  0
   39.4400   27.0900   43.3210 C   0  0  0  0  0  2  0  0  0  0  0  0
   39.2740   25.5950   43.2520 C   0  0  0  0  0  2  0  0  0  0  0  0
   38.3170   25.1680   42.2010 C   0  0  0  0  0  3  0  0  0  0  0  0
   37.2450   26.1260   41.8430 C   0  0  0  0  0  3  0  0  0  0  0  0
  1  2  2  0  0  0  0
  1  6  1  0  0  0  0
  2  3  1  0  0  0  0
  3  9  1  0  0  0  0
  3  4  2  0  0  0  0
  5  4  1  0  0  0  0
  6  5  2  0  0  0  0
  7  1  1  0  0  0  0
  8  2  1  0  0  0  0
 10  5  1  6  0  0  0
 10 11  1  0  0  0  0
 12 11  1  0  0  0  0
 13 12  1  0  0  0  0
 14 13  1  0  0  0  0
 15 14  2  0  0  0  0
 15 10  1  0  0  0  0
M  END
>  <minimizedAffinity>
-4.23653173

$$$$

 OpenBabel03242510063D

 15 16  0  0  1  0  0  0  0  0999 V2000
   38.3480   29.0410   43.2350 C   0  0  0  0  0  0  0  0  0  0  0  0
   37.7380   27.7990   43.4840 C   0  0  0  0  0  0  0  0  0  0  0  0
   36.6380   27.4430   42.6990 C   0  0  0  0  0  0  0  0  0  0  0  0
   36.2200   28.3150   41.7410 N   0  0  0  0  0  0  0  0  0  0  0  0
   36.8260   29.5040   41.5230 C   0  0  0  0  0  0  0  0  0  0  0  0
   37.8940   29.8720   42.2720 N   0  0  0  0  0  0  0  0  0  0  0  0
   39.2110   29.3360   43.8420 H   0  0  0  0  0  0  0  0  0  0  0  0
   38.0860   27.1370   44.2410 H   0  0  0  0  0  0  0  0  0  0  0  0
   36.1050   26.5090   42.8150 H   0  0  0  0  0  0  0  0  0  0  0  0
   36.3060   30.4020   40.4520 C   0  0  2  0  0  3  0  0  0  0  0  0
   36.4950   29.6930   39.1660 C   0  0  0  0  0  2  0  0  0  0  0  0
   37.6290   30.2120   38.3270 C   0  0  0  0  0  2  0  0  0  0  0  0
   37.3540   31.6760   38.1040 C   0  0  0  0  0  2  0  0  0  0  0  0
   37.3310   32.4580   39.3650 C   0  0  0  0  0  3  0  0  0  0  0  0
   36.9400   31.7330   40.5960 C   0  0  0  0  0  3  0  0  0  0  0  0
  1  2  1  0  0  0  0
  1  7  1  0  0  0  0
  2  8  1  0  0  0  0
  3  9  1  0  0  0  0
  3  2  2  0  0  0  0
  4  3  1  0  0  0  0
  5  4  2  0  0  0  0
  5  6  1  0  0  0  0
  6  1  2  0  0  0  0
 10 15  1  0  0  0  0
 10  5  1  1  0  0  0
 11 10  1  0  0  0  0
 12 11  1  0  0  0  0
 13 12  1  0  0  0  0
 13 14  1  0  0  0  0
 14 15  2  0  0  0  0
M  END
>  <minimizedAffinity>
-4.23131704

$$$$

 OpenBabel03242510063D

 15 16  0  0  1  0  0  0  0  0999 V2000
   37.6090   29.9610   38.5830 C   0  0  0  0  0  0  0  0  0  0  0  0
   37.3570   31.3360   38.4210 C   0  0  0  0  0  0  0  0  0  0  0  0
   37.0410   32.0790   39.5620 C   0  0  0  0  0  0  0  0  0  0  0  0
   36.9940   31.4350   40.7600 N   0  0  0  0  0  0  0  0  0  0  0  0
   37.2420   30.1120   40.8850 C   0  0  0  0  0  0  0  0  0  0  0  0
   37.5500   29.3690   39.7950 N   0  0  0  0  0  0  0  0  0  0  0  0
   37.8580   29.3640   37.6990 H   0  0  0  0  0  0  0  0  0  0  0  0
   37.4000   31.8130   37.4710 H   0  0  0  0  0  0  0  0  0  0  0  0
   36.8330   33.1400   39.5370 H   0  0  0  0  0  0  0  0  0  0  0  0
   37.1710   29.4820   42.2350 C   0  0  2  0  0  3  0  0  0  0  0  0
   38.5190   29.5990   42.8370 C   0  0  0  0  0  2  0  0  0  0  0  0
   39.3080   28.3190   42.8550 C   0  0  0  0  0  2  0  0  0  0  0  0
   38.4670   27.3150   43.5990 C   0  0  0  0  0  2  0  0  0  0  0  0
   37.1730   27.0360   42.9300 C   0  0  0  0  0  3  0  0  0  0  0  0
   36.6020   28.1200   42.0970 C   0  0  0  0  0  3  0  0  0  0  0  0
  1  6  1  0  0  0  0
  2  1  2  0  0  0  0
  2  3  1  0  0  0  0
  3  4  2  0  0  0  0
  4  5  1  0  0  0  0
  6  5  2  0  0  0  0
  7  1  1  0  0  0  0
  8  2  1  0  0  0  0
  9  3  1  0  0  0  0
 10  5  1  6  0  0  0
 10 11  1  0  0  0  0
 11 12  1  0  0  0  0
 12 13  1  0  0  0  0
 14 13  1  0  0  0  0
 15 10  1  0  0  0  0
 15 14  2  0  0  0  0
M  END
>  <minimizedAffinity>
-4.16014338

$$$$

 OpenBabel03242510063D

 15 16  0  0  1  0  0  0  0  0999 V2000
   38.7550   28.8540   42.9700 C   0  0  0  0  0  0  0  0  0  0  0  0
   38.1810   27.7220   43.5740 C   0  0  0  0  0  0  0  0  0  0  0  0
   36.9030   27.3370   43.1560 C   0  0  0  0  0  0  0  0  0  0  0  0
   36.2900   28.0750   42.1920 N   0  0  0  0  0  0  0  0  0  0  0  0
   36.8670   29.1610   41.6280 C   0  0  0  0  0  0  0  0  0  0  0  0
   38.1040   29.5550   42.0170 N   0  0  0  0  0  0  0  0  0  0  0  0
   39.7550   29.1700   43.2870 H   0  0  0  0  0  0  0  0  0  0  0  0
   38.6830   27.1630   44.3270 H   0  0  0  0  0  0  0  0  0  0  0  0
   36.3820   26.4800   43.5610 H   0  0  0  0  0  0  0  0  0  0  0  0
   36.1270   29.9160   40.5760 C   0  0  2  0  0  3  0  0  0  0  0  0
   35.0120   29.0490   40.1270 C   0  0  0  0  0  2  0  0  0  0  0  0
   35.2220   28.4090   38.7840 C   0  0  0  0  0  2  0  0  0  0  0  0
   35.4590   29.5340   37.8110 C   0  0  0  0  0  2  0  0  0  0  0  0
   36.6750   30.3240   38.1280 C   0  0  0  0  0  3  0  0  0  0  0  0
   37.0920   30.3720   39.5480 C   0  0  0  0  0  3  0  0  0  0  0  0
  1  7  1  0  0  0  0
  1  2  1  0  0  0  0
  2  8  1  0  0  0  0
  3  9  1  0  0  0  0
  3  2  2  0  0  0  0
  4  3  1  0  0  0  0
  5  6  1  0  0  0  0
  5  4  2  0  0  0  0
  6  1  2  0  0  0  0
 10  5  1  1  0  0  0
 11 10  1  0  0  0  0
 12 11  1  0  0  0  0
 13 14  1  0  0  0  0
 13 12  1  0  0  0  0
 14 15  2  0  0  0  0
 15 10  1  0  0  0  0
M  END
>  <minimizedAffinity>
-4.11544561

$$$$

 OpenBabel03242510063D

 15 16  0  0  1  0  0  0  0  0999 V2000
   40.5160   25.4600   43.5910 C   0  0  0  0  0  0  0  0  0  0  0  0
   39.9000   24.3540   42.9790 C   0  0  0  0  0  0  0  0  0  0  0  0
   38.6220   24.5350   42.4420 C   0  0  0  0  0  0  0  0  0  0  0  0
   38.0480   25.7640   42.5410 N   0  0  0  0  0  0  0  0  0  0  0  0
   38.6650   26.8110   43.1360 C   0  0  0  0  0  0  0  0  0  0  0  0
   39.9040   26.6610   43.6650 N   0  0  0  0  0  0  0  0  0  0  0  0
   41.5170   25.3350   44.0180 H   0  0  0  0  0  0  0  0  0  0  0  0
   40.3720   23.4030   42.9160 H   0  0  0  0  0  0  0  0  0  0  0  0
   38.0690   23.7450   41.9510 H   0  0  0  0  0  0  0  0  0  0  0  0
   37.9670   28.1260   43.2030 C   0  0  2  0  0  3  0  0  0  0  0  0
   36.5860   27.9080   42.7130 C   0  0  0  0  0  2  0  0  0  0  0  0
   36.3260   28.4280   41.3270 C   0  0  0  0  0  2  0  0  0  0  0  0
   36.6640   29.8950   41.3560 C   0  0  0  0  0  2  0  0  0  0  0  0
   38.0910   30.1530   41.6720 C   0  0  0  0  0  3  0  0  0  0  0  0
   38.7880   29.1390   42.4970 C   0  0  0  0  0  3  0  0  0  0  0  0
  1  6  1  0  0  0  0
  1  7  1  0  0  0  0
  2  1  2  0  0  0  0
  3  4  2  0  0  0  0
  3  2  1  0  0  0  0
  4  5  1  0  0  0  0
  5  6  2  0  0  0  0
  8  2  1  0  0  0  0
  9  3  1  0  0  0  0
 10  5  1  6  0  0  0
 11 10  1  0  0  0  0
 12 13  1  0  0  0  0
 12 11  1  0  0  0  0
 13 14  1  0  0  0  0
 14 15  2  0  0  0  0
 15 10  1  0  0  0  0
M  END
>  <minimizedAffinity>
-4.08181429

$$$$

 OpenBabel03242510063D

 15 16  0  0  1  0  0  0  0  0999 V2000
   39.5890   31.7310   39.8820 C   0  0  0  0  0  0  0  0  0  0  0  0
   38.3640   32.4050   39.7310 C   0  0  0  0  0  0  0  0  0  0  0  0
   37.2510   31.8960   40.4070 C   0  0  0  0  0  0  0  0  0  0  0  0
   37.4140   30.7820   41.1700 N   0  0  0  0  0  0  0  0  0  0  0  0
   38.6050   30.1540   41.2980 C   0  0  0  0  0  0  0  0  0  0  0  0
   39.6980   30.6270   40.6530 N   0  0  0  0  0  0  0  0  0  0  0  0
   40.4700   32.1160   39.3590 H   0  0  0  0  0  0  0  0  0  0  0  0
   38.2660   33.2750   39.1260 H   0  0  0  0  0  0  0  0  0  0  0  0
   36.2690   32.3470   40.3520 H   0  0  0  0  0  0  0  0  0  0  0  0
   38.6990   28.9380   42.1560 C   0  0  2  0  0  3  0  0  0  0  0  0
   38.6630   27.7670   41.2500 C   0  0  0  0  0  2  0  0  0  0  0  0
   37.3570   27.0230   41.2400 C   0  0  0  0  0  2  0  0  0  0  0  0
   37.0940   26.6130   42.6650 C   0  0  0  0  0  2  0  0  0  0  0  0
   36.9460   27.7710   43.5820 C   0  0  0  0  0  3  0  0  0  0  0  0
   37.6590   29.0150   43.2090 C   0  0  0  0  0  3  0  0  0  0  0  0
  1  6  1  0  0  0  0
  2  1  2  0  0  0  0
  2  3  1  0  0  0  0
  3  4  2  0  0  0  0
  4  5  1  0  0  0  0
  6  5  2  0  0  0  0
  7  1  1  0  0  0  0
  8  2  1  0  0  0  0
  9  3  1  0  0  0  0
 10  5  1  6  0  0  0
 10 15  1  0  0  0  0
 11 10  1  0  0  0  0
 12 11  1  0  0  0  0
 12 13  1  0  0  0  0
 13 14  1  0  0  0  0
 15 14  2  0  0  0  0
M  END
>  <minimizedAffinity>
-3.77253699

$$$$

 OpenBabel03242510063D

 15 16  0  0  1  0  0  0  0  0999 V2000
   36.5260   25.6530   39.2110 C   0  0  0  0  0  0  0  0  0  0  0  0
   36.0940   24.3240   39.3690 C   0  0  0  0  0  0  0  0  0  0  0  0
   36.2270   23.7410   40.6330 C   0  0  0  0  0  0  0  0  0  0  0  0
   36.7660   24.4870   41.6340 N   0  0  0  0  0  0  0  0  0  0  0  0
   37.1730   25.7640   41.4530 C   0  0  0  0  0  0  0  0  0  0  0  0
   37.0550   26.3510   40.2380 N   0  0  0  0  0  0  0  0  0  0  0  0
   36.4300   26.1240   38.2270 H   0  0  0  0  0  0  0  0  0  0  0  0
   35.6770   23.7630   38.5670 H   0  0  0  0  0  0  0  0  0  0  0  0
   35.9220   22.7260   40.8510 H   0  0  0  0  0  0  0  0  0  0  0  0
   37.7520   26.5140   42.6040 C   0  0  2  0  0  3  0  0  0  0  0  0
   36.7640   27.5500   42.9860 C   0  0  0  0  0  2  0  0  0  0  0  0
   37.1280   28.9460   42.5650 C   0  0  0  0  0  2  0  0  0  0  0  0
   38.4760   29.2330   43.1730 C   0  0  0  0  0  2  0  0  0  0  0  0
   39.5380   28.3220   42.6790 C   0  0  0  0  0  3  0  0  0  0  0  0
   39.1130   26.9740   42.2380 C   0  0  0  0  0  3  0  0  0  0  0  0
  1  2  2  0  0  0  0
  1  6  1  0  0  0  0
  2  3  1  0  0  0  0
  3  9  1  0  0  0  0
  3  4  2  0  0  0  0
  5  4  1  0  0  0  0
  6  5  2  0  0  0  0
  7  1  1  0  0  0  0
  8  2  1  0  0  0  0
 10  5  1  6  0  0  0
 10 11  1  0  0  0  0
 12 11  1  0  0  0  0
 12 13  1  0  0  0  0
 14 13  1  0  0  0  0
 15 10  1  0  0  0  0
 15 14  2  0  0  0  0
M  END
>  <minimizedAffinity>
-3.77082849

$$$$

 OpenBabel03242510063D

 15 16  0  0  1  0  0  0  0  0999 V2000
   39.4980   24.3960   40.0750 C   0  0  0  0  0  0  0  0  0  0  0  0
   38.5820   23.3290   40.0510 C   0  0  0  0  0  0  0  0  0  0  0  0
   37.5660   23.3200   41.0120 C   0  0  0  0  0  0  0  0  0  0  0  0
   37.5200   24.3400   41.9120 N   0  0  0  0  0  0  0  0  0  0  0  0
   38.4150   25.3540   41.9100 C   0  0  0  0  0  0  0  0  0  0  0  0
   39.4090   25.3850   40.9900 N   0  0  0  0  0  0  0  0  0  0  0  0
   40.3000   24.4180   39.3290 H   0  0  0  0  0  0  0  0  0  0  0  0
   38.6420   22.5440   39.3360 H   0  0  0  0  0  0  0  0  0  0  0  0
   36.8160   22.5430   41.0730 H   0  0  0  0  0  0  0  0  0  0  0  0
   38.2940   26.4340   42.9310 C   0  0  2  0  0  3  0  0  0  0  0  0
   36.9060   26.9470   42.8540 C   0  0  0  0  0  2  0  0  0  0  0  0
   36.7710   28.2850   42.1810 C   0  0  0  0  0  2  0  0  0  0  0  0
   37.6580   29.2330   42.9450 C   0  0  0  0  0  2  0  0  0  0  0  0
   39.0910   28.8480   42.8980 C   0  0  0  0  0  3  0  0  0  0  0  0
   39.3930   27.4080   42.7280 C   0  0  0  0  0  3  0  0  0  0  0  0
  1  6  1  0  0  0  0
  2  1  2  0  0  0  0
  2  3  1  0  0  0  0
  3  9  1  0  0  0  0
  3  4  2  0  0  0  0
  5  4  1  0  0  0  0
  6  5  2  0  0  0  0
  7  1  1  0  0  0  0
  8  2  1  0  0  0  0
 10  5  1  6  0  0  0
 11 10  1  0  0  0  0
 12 11  1  0  0  0  0
 12 13  1  0  0  0  0
 14 13  1  0  0  0  0
 15 14  2  0  0  0  0
 15 10  1  0  0  0  0
M  END
>  <minimizedAffinity>
-3.7442832

$$$$
