
 OpenBabel03242510053D

 15 16  0  0  1  0  0  0  0  0999 V2000
   45.2940   34.3450   45.0380 C   0  0  0  0  0  0  0  0  0  0  0  0
   44.5670   35.4670   44.6020 C   0  0  0  0  0  0  0  0  0  0  0  0
   45.0130   36.1270   43.4530 C   0  0  0  0  0  0  0  0  0  0  0  0
   46.1210   35.6490   42.8230 N   0  0  0  0  0  0  0  0  0  0  0  0
   46.8010   34.5660   43.2660 C   0  0  0  0  0  0  0  0  0  0  0  0
   46.3890   33.9100   44.3780 N   0  0  0  0  0  0  0  0  0  0  0  0
   44.9580   33.8170   45.9370 H   0  0  0  0  0  0  0  0  0  0  0  0
   43.7040   35.8190   45.1150 H   0  0  0  0  0  0  0  0  0  0  0  0
   44.5200   36.9970   43.0410 H   0  0  0  0  0  0  0  0  0  0  0  0
   48.0050   34.1060   42.5170 C   0  0  2  0  0  3  0  0  0  0  0  0
   48.1290   34.9750   41.3240 C   0  0  0  0  0  2  0  0  0  0  0  0
   47.7200   34.3220   40.0320 C   0  0  0  0  0  2  0  0  0  0  0  0
   48.5720   33.0890   39.8950 C   0  0  0  0  0  2  0  0  0  0  0  0
   48.3480   32.1070   40.9850 C   0  0  0  0  0  3  0  0  0  0  0  0
   47.8980   32.6460   42.2900 C   0  0  0  0  0  3  0  0  0  0  0  0
  1  7  1  0  0  0  0
  2  1  1  0  0  0  0
  2  8  1  0  0  0  0
  3  2  2  0  0  0  0
  4  5  2  0  0  0  0
  4  3  1  0  0  0  0
  5  6  1  0  0  0  0
  6  1  2  0  0  0  0
  9  3  1  0  0  0  0
 10  5  1  6  0  0  0
 11 10  1  0  0  0  0
 12 11  1  0  0  0  0
 13 12  1  0  0  0  0
 13 14  1  0  0  0  0
 14 15  2  0  0  0  0
 15 10  1  0  0  0  0
M  END
>  <minimizedAffinity>
-4.02120924

>  <minimizedRMSD>
5.87540245

$$$$
