
 OpenBabel03252509243D

 24 26  0  0  1  0  0  0  0  0999 V2000
   46.3410   34.9970   42.0780 C   0  0  1  0  0  0  0  0  0  0  0  0
   47.8460   35.3320   41.9210 C   0  0  0  0  0  0  0  0  0  0  0  0
   47.1200   34.0820   41.3250 C   0  0  2  0  0  0  0  0  0  0  0  0
   45.6730   35.7690   41.6610 H   0  0  0  0  0  0  0  0  0  0  0  0
   48.5230   35.1810   42.7590 H   0  0  0  0  0  0  0  0  0  0  0  0
   48.0290   36.1540   41.2330 H   0  0  0  0  0  0  0  0  0  0  0  0
   47.4500   33.1370   41.8490 H   0  0  0  0  0  0  0  0  0  0  0  0
   44.7840   34.9860   45.4960 C   0  0  0  0  0  0  0  0  0  0  0  0
   45.0640   35.4070   44.1590 C   0  0  0  0  0  0  0  0  0  0  0  0
   46.0310   34.6710   43.5310 C   0  0  0  0  0  0  0  0  0  0  0  0
   46.6700   33.6170   44.1560 N   0  0  0  0  0  0  0  0  0  0  0  0
   46.3670   33.2680   45.4120 C   0  0  0  0  0  0  0  0  0  0  0  0
   45.4120   33.9620   46.0900 N   0  0  0  0  0  0  0  0  0  0  0  0
   44.0260   35.5350   46.0360 H   0  0  0  0  0  0  0  0  0  0  0  0
   46.9620   32.4260   45.7390 H   0  0  0  0  0  0  0  0  0  0  0  0
   44.4170   36.5130   43.5400 N   0  0  0  0  0  0  0  0  0  0  0  0
   44.7640   37.4930   43.4080 H   0  0  0  0  0  0  0  0  0  0  0  0
   43.4680   36.1680   43.2090 H   0  0  0  0  0  0  0  0  0  0  0  0
   47.0830   33.9710   39.8310 C   0  0  0  0  0  3  0  0  0  0  0  0
   48.3980   34.3650   39.1920 C   0  0  0  0  0  2  0  0  0  0  0  0
   48.3170   34.4390   37.7030 C   0  0  0  0  0  2  0  0  0  0  0  0
   47.1880   33.6230   37.1310 C   0  0  0  0  0  2  0  0  0  0  0  0
   47.0590   32.3490   37.9310 C   0  0  0  0  0  2  0  0  0  0  0  0
   46.7450   32.5820   39.3870 C   0  0  0  0  0  2  0  0  0  0  0  0
  1  4  1  6  0  0  0
  1 10  1  0  0  0  0
  2  1  1  0  0  0  0
  2  5  1  0  0  0  0
  3  7  1  1  0  0  0
  3  2  1  0  0  0  0
  3  1  1  0  0  0  0
  6  2  1  0  0  0  0
  8 14  1  0  0  0  0
  8 13  1  0  0  0  0
  9  8  2  0  0  0  0
 10 11  2  0  0  0  0
 10  9  1  0  0  0  0
 11 12  1  0  0  0  0
 12 15  1  0  0  0  0
 12 13  2  0  0  0  0
 16  9  1  0  0  0  0
 17 16  1  0  0  0  0
 18 16  1  0  0  0  0
 19  3  1  0  0  0  0
 20 19  1  0  0  0  0
 21 20  1  0  0  0  0
 22 21  1  0  0  0  0
 22 23  1  0  0  0  0
 23 24  1  0  0  0  0
 24 19  1  0  0  0  0
M  END
>  <minimizedAffinity>
-5.22778988

>  <minimizedRMSD>
0.609111428

$$$$
