
 OpenBabel03252508273D

 38 42  0  0  1  0  0  0  0  0999 V2000
   34.3060   28.5970   37.3050 C   0  0  1  0  0  0  0  0  0  0  0  0
   33.5550   27.4750   36.7280 C   0  0  0  0  0  0  0  0  0  0  0  0
   32.8700   28.7860   37.2910 C   0  0  2  0  0  0  0  0  0  0  0  0
   35.0330   28.9270   36.4790 H   0  0  0  0  0  0  0  0  0  0  0  0
   33.3440   27.3460   35.6520 H   0  0  0  0  0  0  0  0  0  0  0  0
   33.4010   26.5440   37.2980 H   0  0  0  0  0  0  0  0  0  0  0  0
   32.1660   28.3500   38.0570 H   0  0  0  0  0  0  0  0  0  0  0  0
   32.1410   29.6710   36.3790 C   0  0  0  0  0  0  0  0  0  0  0  0
   32.4730   29.9980   35.1000 C   0  0  0  0  0  0  0  0  0  0  0  0
   31.8290   30.9370   34.3060 C   0  0  0  0  0  0  0  0  0  0  0  0
   30.7380   31.6010   34.8900 C   0  0  0  0  0  0  0  0  0  0  0  0
   30.3710   31.2870   36.1940 C   0  0  0  0  0  0  0  0  0  0  0  0
   29.2570   31.9230   36.7130 C   0  0  0  0  0  0  0  0  0  0  0  0
   28.8220   31.5880   37.9850 C   0  0  0  0  0  0  0  0  0  0  0  0
   29.4800   30.6370   38.7320 C   0  0  0  0  0  0  0  0  0  0  0  0
   30.5840   30.0330   38.1760 C   0  0  0  0  0  0  0  0  0  0  0  0
   31.0660   30.3340   36.9180 C   0  0  0  0  0  0  0  0  0  0  0  0
   33.3240   29.4590   34.6910 H   0  0  0  0  0  0  0  0  0  0  0  0
   32.1510   31.1450   33.2940 H   0  0  0  0  0  0  0  0  0  0  0  0
   30.2030   32.3450   34.3170 H   0  0  0  0  0  0  0  0  0  0  0  0
   28.7540   32.6700   36.0980 H   0  0  0  0  0  0  0  0  0  0  0  0
   27.9300   32.1600   38.2890 H   0  0  0  0  0  0  0  0  0  0  0  0
   28.9910   30.5160   39.6840 H   0  0  0  0  0  0  0  0  0  0  0  0
   30.8530   29.3040   38.8840 H   0  0  0  0  0  0  0  0  0  0  0  0
   35.4950   29.3150   40.7270 C   0  0  0  0  0  0  0  0  0  0  0  0
   36.3760   28.2100   40.9940 C   0  0  0  0  0  0  0  0  0  0  0  0
   36.5140   27.2270   39.9490 C   0  0  0  0  0  0  0  0  0  0  0  0
   35.8390   27.3830   38.8250 N   0  0  0  0  0  0  0  0  0  0  0  0
   35.0040   28.4640   38.6160 C   0  0  0  0  0  0  0  0  0  0  0  0
   34.8440   29.3960   39.5460 N   0  0  0  0  0  0  0  0  0  0  0  0
   35.3930   30.0550   41.5160 H   0  0  0  0  0  0  0  0  0  0  0  0
   36.8900   28.1400   41.9210 H   0  0  0  0  0  0  0  0  0  0  0  0
   37.4220   26.0730   40.1990 C   0  0  0  0  0  3  0  0  0  0  0  0
   38.2510   26.3510   41.4210 C   0  0  0  0  0  2  0  0  0  0  0  0
   38.9660   25.1770   41.9760 C   0  0  0  0  0  2  0  0  0  0  0  0
   38.0890   23.9780   42.1430 C   0  0  0  0  0  2  0  0  0  0  0  0
   37.4630   23.6640   40.8070 C   0  0  0  0  0  2  0  0  0  0  0  0
   36.6320   24.7930   40.3090 C   0  0  0  0  0  2  0  0  0  0  0  0
  1  4  1  6  0  0  0
  1 29  1  0  0  0  0
  2  3  1  0  0  0  0
  2  6  1  0  0  0  0
  2  1  1  0  0  0  0
  3  1  1  0  0  0  0
  3  7  1  1  0  0  0
  5  2  1  0  0  0  0
  8 17  1  0  0  0  0
  8  3  1  0  0  0  0
  9  8  2  0  0  0  0
 10 11  2  0  0  0  0
 10  9  1  0  0  0  0
 11 12  1  0  0  0  0
 12 13  2  0  0  0  0
 12 17  1  0  0  0  0
 13 14  1  0  0  0  0
 14 22  1  0  0  0  0
 14 15  2  0  0  0  0
 15 23  1  0  0  0  0
 16 15  1  0  0  0  0
 16 24  1  0  0  0  0
 17 16  2  0  0  0  0
 18  9  1  0  0  0  0
 19 10  1  0  0  0  0
 20 11  1  0  0  0  0
 21 13  1  0  0  0  0
 25 26  1  0  0  0  0
 25 31  1  0  0  0  0
 26 32  1  0  0  0  0
 27 33  1  0  0  0  0
 27 26  2  0  0  0  0
 28 27  1  0  0  0  0
 29 28  2  0  0  0  0
 29 30  1  0  0  0  0
 30 25  2  0  0  0  0
 33 38  1  0  0  0  0
 33 34  1  0  0  0  0
 34 35  1  0  0  0  0
 35 36  1  0  0  0  0
 37 36  1  0  0  0  0
 38 37  1  0  0  0  0
M  END
>  <minimizedAffinity>
-6.69748783

$$$$

 OpenBabel03252508273D

 38 42  0  0  1  0  0  0  0  0999 V2000
   34.5740   28.9140   36.7550 C   0  0  1  0  0  0  0  0  0  0  0  0
   33.7210   27.7310   36.9360 C   0  0  0  0  0  0  0  0  0  0  0  0
   33.2050   29.2150   37.1220 C   0  0  2  0  0  0  0  0  0  0  0  0
   34.9760   28.8300   35.6820 H   0  0  0  0  0  0  0  0  0  0  0  0
   33.1760   27.2190   36.1250 H   0  0  0  0  0  0  0  0  0  0  0  0
   33.8000   27.1110   37.8440 H   0  0  0  0  0  0  0  0  0  0  0  0
   32.8090   29.1760   38.1770 H   0  0  0  0  0  0  0  0  0  0  0  0
   32.1820   29.7460   36.2170 C   0  0  0  0  0  0  0  0  0  0  0  0
   32.2760   29.9120   34.8680 C   0  0  0  0  0  0  0  0  0  0  0  0
   31.3360   30.5330   34.0580 C   0  0  0  0  0  0  0  0  0  0  0  0
   30.1900   31.0290   34.7020 C   0  0  0  0  0  0  0  0  0  0  0  0
   30.0630   30.8710   36.0780 C   0  0  0  0  0  0  0  0  0  0  0  0
   28.8940   31.3230   36.6650 C   0  0  0  0  0  0  0  0  0  0  0  0
   28.7030   31.1240   38.0230 C   0  0  0  0  0  0  0  0  0  0  0  0
   29.6540   30.4870   38.7870 C   0  0  0  0  0  0  0  0  0  0  0  0
   30.8010   30.0570   38.1600 C   0  0  0  0  0  0  0  0  0  0  0  0
   31.0470   30.2360   36.8140 C   0  0  0  0  0  0  0  0  0  0  0  0
   33.1790   29.5140   34.4150 H   0  0  0  0  0  0  0  0  0  0  0  0
   31.4780   30.6290   32.9900 H   0  0  0  0  0  0  0  0  0  0  0  0
   29.4270   31.5240   34.1180 H   0  0  0  0  0  0  0  0  0  0  0  0
   28.1570   31.8210   36.0360 H   0  0  0  0  0  0  0  0  0  0  0  0
   27.7390   31.5270   38.3760 H   0  0  0  0  0  0  0  0  0  0  0  0
   29.3220   30.4270   39.8100 H   0  0  0  0  0  0  0  0  0  0  0  0
   31.3190   29.5390   38.9150 H   0  0  0  0  0  0  0  0  0  0  0  0
   37.7270   30.2190   38.1660 C   0  0  0  0  0  0  0  0  0  0  0  0
   37.6960   29.7270   39.5170 C   0  0  0  0  0  0  0  0  0  0  0  0
   36.5420   28.9500   39.8950 C   0  0  0  0  0  0  0  0  0  0  0  0
   35.5910   28.7360   39.0060 N   0  0  0  0  0  0  0  0  0  0  0  0
   35.6670   29.2310   37.7180 C   0  0  0  0  0  0  0  0  0  0  0  0
   36.7070   29.9500   37.3200 N   0  0  0  0  0  0  0  0  0  0  0  0
   38.5980   30.8030   37.8830 H   0  0  0  0  0  0  0  0  0  0  0  0
   38.4940   29.9350   40.1860 H   0  0  0  0  0  0  0  0  0  0  0  0
   36.4880   28.4260   41.2880 C   0  0  0  0  0  3  0  0  0  0  0  0
   36.9330   26.9910   41.2960 C   0  0  0  0  0  2  0  0  0  0  0  0
   37.2340   26.4330   42.6360 C   0  0  0  0  0  2  0  0  0  0  0  0
   38.1280   27.3110   43.4520 C   0  0  0  0  0  2  0  0  0  0  0  0
   37.4860   28.6720   43.5510 C   0  0  0  0  0  2  0  0  0  0  0  0
   37.3060   29.2950   42.2120 C   0  0  0  0  0  2  0  0  0  0  0  0
  1  4  1  6  0  0  0
  1  2  1  0  0  0  0
  1  3  1  0  0  0  0
  1 29  1  0  0  0  0
  2  3  1  0  0  0  0
  2  6  1  0  0  0  0
  3  7  1  1  0  0  0
  5  2  1  0  0  0  0
  8 17  1  0  0  0  0
  8  3  1  0  0  0  0
  9  8  2  0  0  0  0
 10 11  2  0  0  0  0
 10  9  1  0  0  0  0
 11 12  1  0  0  0  0
 12 13  2  0  0  0  0
 12 17  1  0  0  0  0
 13 14  1  0  0  0  0
 14 22  1  0  0  0  0
 14 15  2  0  0  0  0
 15 23  1  0  0  0  0
 16 15  1  0  0  0  0
 16 24  1  0  0  0  0
 17 16  2  0  0  0  0
 18  9  1  0  0  0  0
 19 10  1  0  0  0  0
 20 11  1  0  0  0  0
 21 13  1  0  0  0  0
 25 26  1  0  0  0  0
 26 27  2  0  0  0  0
 26 32  1  0  0  0  0
 27 33  1  0  0  0  0
 28 27  1  0  0  0  0
 29 28  2  0  0  0  0
 30 29  1  0  0  0  0
 30 25  2  0  0  0  0
 31 25  1  0  0  0  0
 33 34  1  0  0  0  0
 33 38  1  0  0  0  0
 34 35  1  0  0  0  0
 35 36  1  0  0  0  0
 36 37  1  0  0  0  0
 38 37  1  0  0  0  0
M  END
>  <minimizedAffinity>
-6.6850071

$$$$

 OpenBabel03252508273D

 38 42  0  0  1  0  0  0  0  0999 V2000
   38.6070   29.4520   42.3130 C   0  0  1  0  0  0  0  0  0  0  0  0
   37.6970   29.2260   43.4440 C   0  0  0  0  0  0  0  0  0  0  0  0
   37.9490   28.1600   42.3020 C   0  0  2  0  0  0  0  0  0  0  0  0
   39.6270   29.6800   42.7910 H   0  0  0  0  0  0  0  0  0  0  0  0
   38.0040   28.8340   44.4290 H   0  0  0  0  0  0  0  0  0  0  0  0
   36.7040   29.7030   43.4750 H   0  0  0  0  0  0  0  0  0  0  0  0
   36.8990   27.9880   41.9310 H   0  0  0  0  0  0  0  0  0  0  0  0
   38.5870   26.8830   42.6310 C   0  0  0  0  0  0  0  0  0  0  0  0
   39.6270   26.6720   43.4840 C   0  0  0  0  0  0  0  0  0  0  0  0
   40.2880   25.4670   43.6780 C   0  0  0  0  0  0  0  0  0  0  0  0
   39.8300   24.3770   42.9190 C   0  0  0  0  0  0  0  0  0  0  0  0
   38.7660   24.5590   42.0420 C   0  0  0  0  0  0  0  0  0  0  0  0
   38.3090   23.4480   41.3560 C   0  0  0  0  0  0  0  0  0  0  0  0
   37.2090   23.5770   40.5230 C   0  0  0  0  0  0  0  0  0  0  0  0
   36.5710   24.7870   40.3730 C   0  0  0  0  0  0  0  0  0  0  0  0
   37.0630   25.8650   41.0740 C   0  0  0  0  0  0  0  0  0  0  0  0
   38.1590   25.7950   41.9090 C   0  0  0  0  0  0  0  0  0  0  0  0
   39.9470   27.5430   44.0470 H   0  0  0  0  0  0  0  0  0  0  0  0
   41.1100   25.3730   44.3750 H   0  0  0  0  0  0  0  0  0  0  0  0
   40.3120   23.4160   43.0300 H   0  0  0  0  0  0  0  0  0  0  0  0
   38.8310   22.5010   41.4960 H   0  0  0  0  0  0  0  0  0  0  0  0
   36.9410   22.6280   40.0300 H   0  0  0  0  0  0  0  0  0  0  0  0
   35.7440   24.6830   39.6910 H   0  0  0  0  0  0  0  0  0  0  0  0
   36.3750   26.6320   40.8660 H   0  0  0  0  0  0  0  0  0  0  0  0
   38.3560   32.6180   40.4300 C   0  0  0  0  0  0  0  0  0  0  0  0
   37.5820   32.2400   39.2780 C   0  0  0  0  0  0  0  0  0  0  0  0
   37.1790   30.8590   39.1960 C   0  0  0  0  0  0  0  0  0  0  0  0
   37.5340   30.0270   40.1570 N   0  0  0  0  0  0  0  0  0  0  0  0
   38.2790   30.4390   41.2450 C   0  0  0  0  0  0  0  0  0  0  0  0
   38.6740   31.6980   41.3680 N   0  0  0  0  0  0  0  0  0  0  0  0
   38.6580   33.6600   40.4900 H   0  0  0  0  0  0  0  0  0  0  0  0
   37.3300   32.9580   38.5370 H   0  0  0  0  0  0  0  0  0  0  0  0
   36.3740   30.4420   38.0140 C   0  0  0  0  0  3  0  0  0  0  0  0
   37.2980   30.1090   36.8770 C   0  0  0  0  0  2  0  0  0  0  0  0
   36.6700   29.3810   35.7480 C   0  0  0  0  0  2  0  0  0  0  0  0
   35.8580   28.2050   36.1850 C   0  0  0  0  0  2  0  0  0  0  0  0
   34.8270   28.6870   37.1750 C   0  0  0  0  0  2  0  0  0  0  0  0
   35.4600   29.2980   38.3750 C   0  0  0  0  0  2  0  0  0  0  0  0
  1  4  1  1  0  0  0
  1  2  1  0  0  0  0
  2  6  1  0  0  0  0
  2  5  1  0  0  0  0
  3  7  1  6  0  0  0
  3  1  1  0  0  0  0
  3  8  1  0  0  0  0
  3  2  1  0  0  0  0
  8  9  1  0  0  0  0
  9 10  2  0  0  0  0
  9 18  1  0  0  0  0
 10 19  1  0  0  0  0
 11 20  1  0  0  0  0
 11 10  1  0  0  0  0
 12 11  2  0  0  0  0
 13 21  1  0  0  0  0
 13 12  1  0  0  0  0
 14 13  2  0  0  0  0
 15 14  1  0  0  0  0
 15 16  2  0  0  0  0
 16 17  1  0  0  0  0
 17 12  1  0  0  0  0
 17  8  2  0  0  0  0
 22 14  1  0  0  0  0
 23 15  1  0  0  0  0
 24 16  1  0  0  0  0
 25 31  1  0  0  0  0
 25 30  1  0  0  0  0
 26 25  2  0  0  0  0
 27 26  1  0  0  0  0
 27 28  2  0  0  0  0
 28 29  1  0  0  0  0
 29 30  2  0  0  0  0
 29  1  1  0  0  0  0
 32 26  1  0  0  0  0
 33 38  1  0  0  0  0
 33 27  1  0  0  0  0
 34 33  1  0  0  0  0
 35 36  1  0  0  0  0
 35 34  1  0  0  0  0
 36 37  1  0  0  0  0
 37 38  1  0  0  0  0
M  END
>  <minimizedAffinity>
-6.67883015

$$$$

 OpenBabel03252508273D

 38 42  0  0  1  0  0  0  0  0999 V2000
   36.0070   28.8960   39.3870 C   0  0  1  0  0  0  0  0  0  0  0  0
   35.5130   29.9330   40.3030 C   0  0  0  0  0  0  0  0  0  0  0  0
   35.7850   28.4380   40.7440 C   0  0  2  0  0  0  0  0  0  0  0  0
   36.9960   29.3090   38.9730 H   0  0  0  0  0  0  0  0  0  0  0  0
   36.1550   30.6360   40.8610 H   0  0  0  0  0  0  0  0  0  0  0  0
   34.4620   30.2630   40.2700 H   0  0  0  0  0  0  0  0  0  0  0  0
   34.7770   28.1480   41.1570 H   0  0  0  0  0  0  0  0  0  0  0  0
   36.8360   28.1500   41.7230 C   0  0  0  0  0  0  0  0  0  0  0  0
   37.4860   29.0390   42.5250 C   0  0  0  0  0  0  0  0  0  0  0  0
   38.5630   28.7510   43.3520 C   0  0  0  0  0  0  0  0  0  0  0  0
   39.0110   27.4200   43.3500 C   0  0  0  0  0  0  0  0  0  0  0  0
   38.3650   26.4880   42.5450 C   0  0  0  0  0  0  0  0  0  0  0  0
   38.8000   25.1760   42.6150 C   0  0  0  0  0  0  0  0  0  0  0  0
   38.1380   24.2070   41.8770 C   0  0  0  0  0  0  0  0  0  0  0  0
   37.0620   24.5330   41.0830 C   0  0  0  0  0  0  0  0  0  0  0  0
   36.6670   25.8510   41.0430 C   0  0  0  0  0  0  0  0  0  0  0  0
   37.2940   26.8560   41.7500 C   0  0  0  0  0  0  0  0  0  0  0  0
   37.1050   30.0560   42.4920 H   0  0  0  0  0  0  0  0  0  0  0  0
   39.0310   29.5120   43.9630 H   0  0  0  0  0  0  0  0  0  0  0  0
   39.8490   27.1430   43.9730 H   0  0  0  0  0  0  0  0  0  0  0  0
   39.6530   24.9460   43.2540 H   0  0  0  0  0  0  0  0  0  0  0  0
   38.5760   23.2040   42.0120 H   0  0  0  0  0  0  0  0  0  0  0  0
   36.6860   23.6490   40.5960 H   0  0  0  0  0  0  0  0  0  0  0  0
   35.7970   25.8320   40.4530 H   0  0  0  0  0  0  0  0  0  0  0  0
   34.8190   26.8530   36.5490 C   0  0  0  0  0  0  0  0  0  0  0  0
   33.5510   27.4550   36.2360 C   0  0  0  0  0  0  0  0  0  0  0  0
   33.1440   28.5690   37.0550 C   0  0  0  0  0  0  0  0  0  0  0  0
   33.9350   28.9710   38.0320 N   0  0  0  0  0  0  0  0  0  0  0  0
   35.1460   28.3600   38.2940 C   0  0  0  0  0  0  0  0  0  0  0  0
   35.5660   27.3320   37.5690 N   0  0  0  0  0  0  0  0  0  0  0  0
   35.1230   26.0140   35.9300 H   0  0  0  0  0  0  0  0  0  0  0  0
   32.9590   27.0830   35.4360 H   0  0  0  0  0  0  0  0  0  0  0  0
   31.8360   29.2120   36.7490 C   0  0  0  0  0  3  0  0  0  0  0  0
   31.3430   29.9380   37.9690 C   0  0  0  0  0  2  0  0  0  0  0  0
   30.2250   30.8810   37.7310 C   0  0  0  0  0  2  0  0  0  0  0  0
   30.4670   31.8030   36.5790 C   0  0  0  0  0  2  0  0  0  0  0  0
   30.7540   30.9640   35.3590 C   0  0  0  0  0  2  0  0  0  0  0  0
   31.9600   30.1130   35.5450 C   0  0  0  0  0  2  0  0  0  0  0  0
  1  4  1  6  0  0  0
  1  2  1  0  0  0  0
  1  3  1  0  0  0  0
  2  3  1  0  0  0  0
  2  5  1  0  0  0  0
  3  7  1  1  0  0  0
  3  8  1  0  0  0  0
  6  2  1  0  0  0  0
  8 17  2  0  0  0  0
  8  9  1  0  0  0  0
  9 10  2  0  0  0  0
 10 19  1  0  0  0  0
 11 10  1  0  0  0  0
 11 20  1  0  0  0  0
 12 13  1  0  0  0  0
 12 11  2  0  0  0  0
 13 21  1  0  0  0  0
 14 22  1  0  0  0  0
 14 13  2  0  0  0  0
 15 14  1  0  0  0  0
 16 15  2  0  0  0  0
 16 17  1  0  0  0  0
 17 12  1  0  0  0  0
 18  9  1  0  0  0  0
 23 15  1  0  0  0  0
 24 16  1  0  0  0  0
 25 30  1  0  0  0  0
 26 25  2  0  0  0  0
 26 27  1  0  0  0  0
 27 28  2  0  0  0  0
 28 29  1  0  0  0  0
 29  1  1  0  0  0  0
 30 29  2  0  0  0  0
 31 25  1  0  0  0  0
 32 26  1  0  0  0  0
 33 27  1  0  0  0  0
 33 34  1  0  0  0  0
 35 34  1  0  0  0  0
 36 35  1  0  0  0  0
 37 38  1  0  0  0  0
 37 36  1  0  0  0  0
 38 33  1  0  0  0  0
M  END
>  <minimizedAffinity>
-6.64913654

$$$$

 OpenBabel03252508273D

 38 42  0  0  1  0  0  0  0  0999 V2000
   40.4870   30.0160   41.6690 C   0  0  1  0  0  0  0  0  0  0  0  0
   41.2600   30.3570   42.8710 C   0  0  0  0  0  0  0  0  0  0  0  0
   40.1220   29.2570   42.8480 C   0  0  2  0  0  0  0  0  0  0  0  0
   41.2710   29.7050   40.8890 H   0  0  0  0  0  0  0  0  0  0  0  0
   42.2350   29.9160   43.1380 H   0  0  0  0  0  0  0  0  0  0  0  0
   41.0510   31.2810   43.4340 H   0  0  0  0  0  0  0  0  0  0  0  0
   39.4370   29.6370   43.6590 H   0  0  0  0  0  0  0  0  0  0  0  0
   40.4670   27.8540   43.0920 C   0  0  0  0  0  0  0  0  0  0  0  0
   41.6620   27.3550   43.5100 C   0  0  0  0  0  0  0  0  0  0  0  0
   41.9930   26.0110   43.6120 C   0  0  0  0  0  0  0  0  0  0  0  0
   40.9930   25.0950   43.2450 C   0  0  0  0  0  0  0  0  0  0  0  0
   39.7590   25.5730   42.8170 C   0  0  0  0  0  0  0  0  0  0  0  0
   38.7820   24.6390   42.5200 C   0  0  0  0  0  0  0  0  0  0  0  0
   37.5200   25.0780   42.1530 C   0  0  0  0  0  0  0  0  0  0  0  0
   37.2290   26.4210   42.0830 C   0  0  0  0  0  0  0  0  0  0  0  0
   38.2330   27.3140   42.3860 C   0  0  0  0  0  0  0  0  0  0  0  0
   39.5080   26.9320   42.7480 C   0  0  0  0  0  0  0  0  0  0  0  0
   42.4040   28.1010   43.7820 H   0  0  0  0  0  0  0  0  0  0  0  0
   42.9670   25.6870   43.9530 H   0  0  0  0  0  0  0  0  0  0  0  0
   41.1980   24.0360   43.3020 H   0  0  0  0  0  0  0  0  0  0  0  0
   39.0390   23.5820   42.5870 H   0  0  0  0  0  0  0  0  0  0  0  0
   36.8300   24.2440   41.9390 H   0  0  0  0  0  0  0  0  0  0  0  0
   36.2030   26.5590   41.7860 H   0  0  0  0  0  0  0  0  0  0  0  0
   37.7550   28.2490   42.3450 H   0  0  0  0  0  0  0  0  0  0  0  0
   38.8110   33.1620   40.7030 C   0  0  0  0  0  0  0  0  0  0  0  0
   37.6060   32.6960   40.0710 C   0  0  0  0  0  0  0  0  0  0  0  0
   37.4270   31.2690   39.9940 C   0  0  0  0  0  0  0  0  0  0  0  0
   38.3570   30.4760   40.4930 N   0  0  0  0  0  0  0  0  0  0  0  0
   39.4990   30.9720   41.0910 C   0  0  0  0  0  0  0  0  0  0  0  0
   39.7110   32.2770   41.1880 N   0  0  0  0  0  0  0  0  0  0  0  0
   38.9440   34.2380   40.7610 H   0  0  0  0  0  0  0  0  0  0  0  0
   36.8950   33.3870   39.6880 H   0  0  0  0  0  0  0  0  0  0  0  0
   36.1850   30.7600   39.3470 C   0  0  0  0  0  3  0  0  0  0  0  0
   36.5300   30.1680   38.0100 C   0  0  0  0  0  2  0  0  0  0  0  0
   35.4630   29.3440   37.3930 C   0  0  0  0  0  2  0  0  0  0  0  0
   34.8810   28.3350   38.3300 C   0  0  0  0  0  2  0  0  0  0  0  0
   34.3820   29.0630   39.5530 C   0  0  0  0  0  2  0  0  0  0  0  0
   35.4800   29.7820   40.2540 C   0  0  0  0  0  2  0  0  0  0  0  0
  1  4  1  6  0  0  0
  1  3  1  0  0  0  0
  1  2  1  0  0  0  0
  2  5  1  0  0  0  0
  2  6  1  0  0  0  0
  3  2  1  0  0  0  0
  3  8  1  0  0  0  0
  3  7  1  1  0  0  0
  8  9  1  0  0  0  0
  9 10  2  0  0  0  0
  9 18  1  0  0  0  0
 10 19  1  0  0  0  0
 11 20  1  0  0  0  0
 11 10  1  0  0  0  0
 12 11  2  0  0  0  0
 13 21  1  0  0  0  0
 13 12  1  0  0  0  0
 14 13  2  0  0  0  0
 15 14  1  0  0  0  0
 15 16  2  0  0  0  0
 16 17  1  0  0  0  0
 17 12  1  0  0  0  0
 17  8  2  0  0  0  0
 22 14  1  0  0  0  0
 23 15  1  0  0  0  0
 24 16  1  0  0  0  0
 25 31  1  0  0  0  0
 25 30  1  0  0  0  0
 26 25  2  0  0  0  0
 27 26  1  0  0  0  0
 27 28  2  0  0  0  0
 28 29  1  0  0  0  0
 29 30  2  0  0  0  0
 29  1  1  0  0  0  0
 32 26  1  0  0  0  0
 33 27  1  0  0  0  0
 33 38  1  0  0  0  0
 34 33  1  0  0  0  0
 35 34  1  0  0  0  0
 35 36  1  0  0  0  0
 36 37  1  0  0  0  0
 37 38  1  0  0  0  0
M  END
>  <minimizedAffinity>
-6.58303547

$$$$

 OpenBabel03252508273D

 38 42  0  0  1  0  0  0  0  0999 V2000
   33.8650   28.8970   35.0070 C   0  0  1  0  0  0  0  0  0  0  0  0
   32.7550   27.9380   35.0670 C   0  0  0  0  0  0  0  0  0  0  0  0
   32.7790   29.2950   35.8810 C   0  0  2  0  0  0  0  0  0  0  0  0
   33.9640   29.1700   33.8950 H   0  0  0  0  0  0  0  0  0  0  0  0
   31.9070   27.9120   34.3610 H   0  0  0  0  0  0  0  0  0  0  0  0
   32.8450   27.0050   35.6470 H   0  0  0  0  0  0  0  0  0  0  0  0
   32.6450   28.9180   36.9350 H   0  0  0  0  0  0  0  0  0  0  0  0
   31.7910   30.3350   35.5840 C   0  0  0  0  0  0  0  0  0  0  0  0
   31.7270   31.1250   34.4770 C   0  0  0  0  0  0  0  0  0  0  0  0
   30.8530   32.1860   34.2840 C   0  0  0  0  0  0  0  0  0  0  0  0
   29.9610   32.4560   35.3340 C   0  0  0  0  0  0  0  0  0  0  0  0
   29.9980   31.6640   36.4770 C   0  0  0  0  0  0  0  0  0  0  0  0
   29.0650   31.9260   37.4640 C   0  0  0  0  0  0  0  0  0  0  0  0
   29.0290   31.1170   38.5890 C   0  0  0  0  0  0  0  0  0  0  0  0
   29.9030   30.0640   38.7320 C   0  0  0  0  0  0  0  0  0  0  0  0
   30.8150   29.8420   37.7250 C   0  0  0  0  0  0  0  0  0  0  0  0
   30.9010   30.6210   36.5900 C   0  0  0  0  0  0  0  0  0  0  0  0
   32.4370   30.8790   33.6920 H   0  0  0  0  0  0  0  0  0  0  0  0
   30.8600   32.7720   33.3740 H   0  0  0  0  0  0  0  0  0  0  0  0
   29.2600   33.2730   35.2370 H   0  0  0  0  0  0  0  0  0  0  0  0
   28.3830   32.7650   37.3230 H   0  0  0  0  0  0  0  0  0  0  0  0
   28.2480   31.4250   39.3040 H   0  0  0  0  0  0  0  0  0  0  0  0
   29.7160   29.5580   39.6640 H   0  0  0  0  0  0  0  0  0  0  0  0
   31.2990   28.9560   38.0180 H   0  0  0  0  0  0  0  0  0  0  0  0
   37.0640   27.1970   35.7230 C   0  0  0  0  0  0  0  0  0  0  0  0
   37.6090   27.9880   36.7930 C   0  0  0  0  0  0  0  0  0  0  0  0
   36.8270   29.1190   37.2250 C   0  0  0  0  0  0  0  0  0  0  0  0
   35.6760   29.3690   36.6290 N   0  0  0  0  0  0  0  0  0  0  0  0
   35.1940   28.5780   35.6050 C   0  0  0  0  0  0  0  0  0  0  0  0
   35.8750   27.5270   35.1720 N   0  0  0  0  0  0  0  0  0  0  0  0
   37.6550   26.3450   35.4010 H   0  0  0  0  0  0  0  0  0  0  0  0
   38.5440   27.7350   37.2310 H   0  0  0  0  0  0  0  0  0  0  0  0
   37.3680   29.9540   38.3330 C   0  0  0  0  0  3  0  0  0  0  0  0
   37.9900   31.1960   37.7610 C   0  0  0  0  0  2  0  0  0  0  0  0
   38.2840   32.2640   38.7460 C   0  0  0  0  0  2  0  0  0  0  0  0
   37.1300   32.5670   39.6480 C   0  0  0  0  0  2  0  0  0  0  0  0
   36.7150   31.2860   40.3270 C   0  0  0  0  0  2  0  0  0  0  0  0
   36.2880   30.2540   39.3430 C   0  0  0  0  0  2  0  0  0  0  0  0
  1  4  1  6  0  0  0
  1  2  1  0  0  0  0
  1 29  1  0  0  0  0
  1  3  1  0  0  0  0
  2  6  1  0  0  0  0
  2  3  1  0  0  0  0
  3  7  1  1  0  0  0
  5  2  1  0  0  0  0
  8  3  1  0  0  0  0
  8 17  1  0  0  0  0
  9  8  2  0  0  0  0
 10  9  1  0  0  0  0
 10 11  2  0  0  0  0
 11 12  1  0  0  0  0
 12 17  2  0  0  0  0
 12 13  1  0  0  0  0
 13 14  2  0  0  0  0
 14 15  1  0  0  0  0
 14 22  1  0  0  0  0
 15 23  1  0  0  0  0
 16 24  1  0  0  0  0
 16 15  2  0  0  0  0
 17 16  1  0  0  0  0
 18  9  1  0  0  0  0
 19 10  1  0  0  0  0
 20 11  1  0  0  0  0
 21 13  1  0  0  0  0
 25 26  1  0  0  0  0
 26 27  2  0  0  0  0
 26 32  1  0  0  0  0
 27 33  1  0  0  0  0
 28 27  1  0  0  0  0
 29 28  2  0  0  0  0
 30 29  1  0  0  0  0
 30 25  2  0  0  0  0
 31 25  1  0  0  0  0
 33 38  1  0  0  0  0
 34 33  1  0  0  0  0
 34 35  1  0  0  0  0
 35 36  1  0  0  0  0
 36 37  1  0  0  0  0
 38 37  1  0  0  0  0
M  END
>  <minimizedAffinity>
-6.46131516

$$$$

 OpenBabel03252508273D

 38 42  0  0  1  0  0  0  0  0999 V2000
   37.0000   29.4730   38.8370 C   0  0  1  0  0  0  0  0  0  0  0  0
   36.4700   30.5860   39.6360 C   0  0  0  0  0  0  0  0  0  0  0  0
   36.2350   29.0630   39.9980 C   0  0  2  0  0  0  0  0  0  0  0  0
   38.1370   29.6390   38.8100 H   0  0  0  0  0  0  0  0  0  0  0  0
   37.0240   31.1050   40.4370 H   0  0  0  0  0  0  0  0  0  0  0  0
   35.5950   31.1600   39.2930 H   0  0  0  0  0  0  0  0  0  0  0  0
   35.1090   29.0200   40.0310 H   0  0  0  0  0  0  0  0  0  0  0  0
   36.7990   28.5170   41.2350 C   0  0  0  0  0  0  0  0  0  0  0  0
   37.2160   29.2090   42.3310 C   0  0  0  0  0  0  0  0  0  0  0  0
   37.8610   28.6710   43.4360 C   0  0  0  0  0  0  0  0  0  0  0  0
   38.0980   27.2870   43.4050 C   0  0  0  0  0  0  0  0  0  0  0  0
   37.6810   26.5520   42.3010 C   0  0  0  0  0  0  0  0  0  0  0  0
   37.8820   25.1830   42.3340 C   0  0  0  0  0  0  0  0  0  0  0  0
   37.4220   24.4090   41.2810 C   0  0  0  0  0  0  0  0  0  0  0  0
   36.7700   24.9810   40.2120 C   0  0  0  0  0  0  0  0  0  0  0  0
   36.5950   26.3470   40.2220 C   0  0  0  0  0  0  0  0  0  0  0  0
   37.0410   27.1660   41.2390 C   0  0  0  0  0  0  0  0  0  0  0  0
   37.0120   30.2760   42.3100 H   0  0  0  0  0  0  0  0  0  0  0  0
   38.1640   29.2850   44.2740 H   0  0  0  0  0  0  0  0  0  0  0  0
   38.6000   26.8170   44.2390 H   0  0  0  0  0  0  0  0  0  0  0  0
   38.3990   24.7560   43.1940 H   0  0  0  0  0  0  0  0  0  0  0  0
   37.6420   23.3370   41.4190 H   0  0  0  0  0  0  0  0  0  0  0  0
   36.4890   24.2200   39.5050 H   0  0  0  0  0  0  0  0  0  0  0  0
   36.0120   26.5290   39.3660 H   0  0  0  0  0  0  0  0  0  0  0  0
   36.8410   28.6520   35.2400 C   0  0  0  0  0  0  0  0  0  0  0  0
   35.4300   28.7070   34.9660 C   0  0  0  0  0  0  0  0  0  0  0  0
   34.5680   29.0230   36.0770 C   0  0  0  0  0  0  0  0  0  0  0  0
   35.1020   29.2390   37.2650 N   0  0  0  0  0  0  0  0  0  0  0  0
   36.4650   29.1750   37.4780 C   0  0  0  0  0  0  0  0  0  0  0  0
   37.3010   28.8890   36.4890 N   0  0  0  0  0  0  0  0  0  0  0  0
   37.4890   28.4150   34.4010 H   0  0  0  0  0  0  0  0  0  0  0  0
   35.0620   28.5210   33.9870 H   0  0  0  0  0  0  0  0  0  0  0  0
   33.1020   29.0890   35.8190 C   0  0  0  0  0  3  0  0  0  0  0  0
   32.3840   29.3670   37.1090 C   0  0  0  0  0  2  0  0  0  0  0  0
   30.9650   29.7720   36.9640 C   0  0  0  0  0  2  0  0  0  0  0  0
   30.7630   30.8570   35.9550 C   0  0  0  0  0  2  0  0  0  0  0  0
   31.3420   30.3910   34.6430 C   0  0  0  0  0  2  0  0  0  0  0  0
   32.8000   30.1120   34.7520 C   0  0  0  0  0  2  0  0  0  0  0  0
  1  4  1  1  0  0  0
  1  2  1  0  0  0  0
  1  3  1  0  0  0  0
  2  3  1  0  0  0  0
  2  5  1  0  0  0  0
  3  7  1  6  0  0  0
  3  8  1  0  0  0  0
  6  2  1  0  0  0  0
  8 17  2  0  0  0  0
  8  9  1  0  0  0  0
  9 10  2  0  0  0  0
 10 19  1  0  0  0  0
 11 10  1  0  0  0  0
 11 20  1  0  0  0  0
 12 13  1  0  0  0  0
 12 11  2  0  0  0  0
 13 21  1  0  0  0  0
 14 22  1  0  0  0  0
 14 13  2  0  0  0  0
 15 16  2  0  0  0  0
 15 14  1  0  0  0  0
 16 17  1  0  0  0  0
 17 12  1  0  0  0  0
 18  9  1  0  0  0  0
 23 15  1  0  0  0  0
 24 16  1  0  0  0  0
 25 30  1  0  0  0  0
 26 25  2  0  0  0  0
 26 27  1  0  0  0  0
 27 28  2  0  0  0  0
 28 29  1  0  0  0  0
 29  1  1  0  0  0  0
 30 29  2  0  0  0  0
 31 25  1  0  0  0  0
 32 26  1  0  0  0  0
 33 27  1  0  0  0  0
 33 34  1  0  0  0  0
 35 34  1  0  0  0  0
 36 35  1  0  0  0  0
 37 38  1  0  0  0  0
 37 36  1  0  0  0  0
 38 33  1  0  0  0  0
M  END
>  <minimizedAffinity>
-6.39314795

$$$$

 OpenBabel03252508273D

 38 42  0  0  1  0  0  0  0  0999 V2000
   34.5660   28.4690   37.2140 C   0  0  1  0  0  0  0  0  0  0  0  0
   35.8260   29.2250   37.2170 C   0  0  0  0  0  0  0  0  0  0  0  0
   35.2080   28.5550   38.5110 C   0  0  2  0  0  0  0  0  0  0  0  0
   34.7230   27.6310   36.4440 H   0  0  0  0  0  0  0  0  0  0  0  0
   36.8160   28.7980   36.9830 H   0  0  0  0  0  0  0  0  0  0  0  0
   35.8240   30.3260   37.1740 H   0  0  0  0  0  0  0  0  0  0  0  0
   35.1280   29.4450   39.1990 H   0  0  0  0  0  0  0  0  0  0  0  0
   35.9250   27.4640   39.1750 C   0  0  0  0  0  0  0  0  0  0  0  0
   36.0460   26.1750   38.7540 C   0  0  0  0  0  0  0  0  0  0  0  0
   36.6270   25.1360   39.4680 C   0  0  0  0  0  0  0  0  0  0  0  0
   37.1300   25.4600   40.7380 C   0  0  0  0  0  0  0  0  0  0  0  0
   37.0260   26.7700   41.1960 C   0  0  0  0  0  0  0  0  0  0  0  0
   37.5840   27.0600   42.4280 C   0  0  0  0  0  0  0  0  0  0  0  0
   37.5580   28.3670   42.8890 C   0  0  0  0  0  0  0  0  0  0  0  0
   36.9870   29.3710   42.1390 C   0  0  0  0  0  0  0  0  0  0  0  0
   36.4420   29.0340   40.9210 C   0  0  0  0  0  0  0  0  0  0  0  0
   36.4330   27.7490   40.4190 C   0  0  0  0  0  0  0  0  0  0  0  0
   35.6410   25.9720   37.7660 H   0  0  0  0  0  0  0  0  0  0  0  0
   36.6870   24.1330   39.0670 H   0  0  0  0  0  0  0  0  0  0  0  0
   37.5900   24.6880   41.3380 H   0  0  0  0  0  0  0  0  0  0  0  0
   38.0320   26.2460   42.9990 H   0  0  0  0  0  0  0  0  0  0  0  0
   38.0290   28.4740   43.8800 H   0  0  0  0  0  0  0  0  0  0  0  0
   37.0680   30.3090   42.6620 H   0  0  0  0  0  0  0  0  0  0  0  0
   36.1540   29.9590   40.5130 H   0  0  0  0  0  0  0  0  0  0  0  0
   31.1850   29.8170   37.8380 C   0  0  0  0  0  0  0  0  0  0  0  0
   30.8210   30.3600   36.5570 C   0  0  0  0  0  0  0  0  0  0  0  0
   31.7980   30.2430   35.5040 C   0  0  0  0  0  0  0  0  0  0  0  0
   32.9530   29.6590   35.7610 N   0  0  0  0  0  0  0  0  0  0  0  0
   33.2570   29.1520   37.0090 C   0  0  0  0  0  0  0  0  0  0  0  0
   32.3920   29.2340   38.0110 N   0  0  0  0  0  0  0  0  0  0  0  0
   30.4470   29.9050   38.6290 H   0  0  0  0  0  0  0  0  0  0  0  0
   29.8740   30.8190   36.4140 H   0  0  0  0  0  0  0  0  0  0  0  0
   31.4440   30.7950   34.1660 C   0  0  0  0  0  3  0  0  0  0  0  0
   30.5470   29.8250   33.4510 C   0  0  0  0  0  2  0  0  0  0  0  0
   29.8600   30.3670   32.2550 C   0  0  0  0  0  2  0  0  0  0  0  0
   29.1930   31.6820   32.5040 C   0  0  0  0  0  2  0  0  0  0  0  0
   30.2300   32.6420   33.0310 C   0  0  0  0  0  2  0  0  0  0  0  0
   30.8260   32.1640   34.3080 C   0  0  0  0  0  2  0  0  0  0  0  0
  1  4  1  6  0  0  0
  1  2  1  0  0  0  0
  1  3  1  0  0  0  0
  2  3  1  0  0  0  0
  3  8  1  0  0  0  0
  3  7  1  1  0  0  0
  5  2  1  0  0  0  0
  6  2  1  0  0  0  0
  8 17  1  0  0  0  0
  9  8  2  0  0  0  0
  9 10  1  0  0  0  0
 10 11  2  0  0  0  0
 11 12  1  0  0  0  0
 11 20  1  0  0  0  0
 12 13  1  0  0  0  0
 13 14  2  0  0  0  0
 13 21  1  0  0  0  0
 14 22  1  0  0  0  0
 15 23  1  0  0  0  0
 15 14  1  0  0  0  0
 16 15  2  0  0  0  0
 17 16  1  0  0  0  0
 17 12  2  0  0  0  0
 18  9  1  0  0  0  0
 19 10  1  0  0  0  0
 24 16  1  0  0  0  0
 25 30  1  0  0  0  0
 25 31  1  0  0  0  0
 26 25  2  0  0  0  0
 27 28  2  0  0  0  0
 27 26  1  0  0  0  0
 28 29  1  0  0  0  0
 29  1  1  0  0  0  0
 29 30  2  0  0  0  0
 32 26  1  0  0  0  0
 33 38  1  0  0  0  0
 33 27  1  0  0  0  0
 34 33  1  0  0  0  0
 35 36  1  0  0  0  0
 35 34  1  0  0  0  0
 36 37  1  0  0  0  0
 37 38  1  0  0  0  0
M  END
>  <minimizedAffinity>
-6.22699785

$$$$

 OpenBabel03252508273D

 38 42  0  0  1  0  0  0  0  0999 V2000
   37.2420   26.9860   37.3980 C   0  0  1  0  0  0  0  0  0  0  0  0
   38.5990   27.3460   37.8300 C   0  0  0  0  0  0  0  0  0  0  0  0
   37.3270   27.4640   38.7640 C   0  0  2  0  0  0  0  0  0  0  0  0
   37.3150   25.8880   37.0680 H   0  0  0  0  0  0  0  0  0  0  0  0
   39.3350   26.6380   38.2470 H   0  0  0  0  0  0  0  0  0  0  0  0
   39.0660   28.2880   37.4990 H   0  0  0  0  0  0  0  0  0  0  0  0
   37.3700   28.5540   39.0510 H   0  0  0  0  0  0  0  0  0  0  0  0
   37.2280   26.6270   39.9620 C   0  0  0  0  0  0  0  0  0  0  0  0
   36.9770   25.2900   40.0200 C   0  0  0  0  0  0  0  0  0  0  0  0
   36.7650   24.5510   41.1760 C   0  0  0  0  0  0  0  0  0  0  0  0
   36.8180   25.2610   42.3860 C   0  0  0  0  0  0  0  0  0  0  0  0
   37.0770   26.6280   42.3610 C   0  0  0  0  0  0  0  0  0  0  0  0
   37.1770   27.2790   43.5780 C   0  0  0  0  0  0  0  0  0  0  0  0
   37.4980   28.6270   43.5950 C   0  0  0  0  0  0  0  0  0  0  0  0
   37.7180   29.3190   42.4250 C   0  0  0  0  0  0  0  0  0  0  0  0
   37.6050   28.6300   41.2390 C   0  0  0  0  0  0  0  0  0  0  0  0
   37.2790   27.2910   41.1640 C   0  0  0  0  0  0  0  0  0  0  0  0
   36.9440   24.7850   39.0590 H   0  0  0  0  0  0  0  0  0  0  0  0
   36.5700   23.4870   41.1440 H   0  0  0  0  0  0  0  0  0  0  0  0
   36.6570   24.7350   43.3160 H   0  0  0  0  0  0  0  0  0  0  0  0
   37.0000   26.7070   44.4880 H   0  0  0  0  0  0  0  0  0  0  0  0
   37.5460   29.0350   44.6180 H   0  0  0  0  0  0  0  0  0  0  0  0
   37.9560   30.3460   42.6460 H   0  0  0  0  0  0  0  0  0  0  0  0
   37.8950   29.3330   40.5130 H   0  0  0  0  0  0  0  0  0  0  0  0
   36.5430   29.1710   34.5050 C   0  0  0  0  0  0  0  0  0  0  0  0
   35.1210   29.3700   34.5950 C   0  0  0  0  0  0  0  0  0  0  0  0
   34.4440   28.7070   35.6820 C   0  0  0  0  0  0  0  0  0  0  0  0
   35.1440   27.9660   36.5190 N   0  0  0  0  0  0  0  0  0  0  0  0
   36.5100   27.8060   36.3900 C   0  0  0  0  0  0  0  0  0  0  0  0
   37.1800   28.3940   35.4090 N   0  0  0  0  0  0  0  0  0  0  0  0
   37.0510   29.6720   33.6860 H   0  0  0  0  0  0  0  0  0  0  0  0
   34.6140   29.9790   33.8880 H   0  0  0  0  0  0  0  0  0  0  0  0
   32.9720   28.9000   35.8000 C   0  0  0  0  0  3  0  0  0  0  0  0
   32.6300   29.2550   37.2190 C   0  0  0  0  0  2  0  0  0  0  0  0
   31.2600   29.7820   37.4230 C   0  0  0  0  0  2  0  0  0  0  0  0
   30.8980   30.8690   36.4620 C   0  0  0  0  0  2  0  0  0  0  0  0
   31.0840   30.3390   35.0630 C   0  0  0  0  0  2  0  0  0  0  0  0
   32.4940   29.9330   34.8100 C   0  0  0  0  0  2  0  0  0  0  0  0
  1  4  1  6  0  0  0
  1  2  1  0  0  0  0
  1  3  1  0  0  0  0
  2  5  1  0  0  0  0
  2  3  1  0  0  0  0
  3  7  1  1  0  0  0
  3  8  1  0  0  0  0
  6  2  1  0  0  0  0
  8  9  2  0  0  0  0
  8 17  1  0  0  0  0
  9 10  1  0  0  0  0
 10 11  2  0  0  0  0
 11 20  1  0  0  0  0
 12 11  1  0  0  0  0
 12 13  1  0  0  0  0
 13 14  2  0  0  0  0
 13 21  1  0  0  0  0
 14 22  1  0  0  0  0
 15 23  1  0  0  0  0
 15 14  1  0  0  0  0
 16 15  2  0  0  0  0
 17 16  1  0  0  0  0
 17 12  2  0  0  0  0
 18  9  1  0  0  0  0
 19 10  1  0  0  0  0
 24 16  1  0  0  0  0
 25 26  2  0  0  0  0
 25 30  1  0  0  0  0
 26 27  1  0  0  0  0
 27 33  1  0  0  0  0
 27 28  2  0  0  0  0
 29 28  1  0  0  0  0
 29  1  1  0  0  0  0
 30 29  2  0  0  0  0
 31 25  1  0  0  0  0
 32 26  1  0  0  0  0
 33 34  1  0  0  0  0
 34 35  1  0  0  0  0
 36 35  1  0  0  0  0
 37 36  1  0  0  0  0
 38 37  1  0  0  0  0
 38 33  1  0  0  0  0
M  END
>  <minimizedAffinity>
-6.18702745

$$$$
