
 OpenBabel03242513023D

 28 31  0  0  1  0  0  0  0  0999 V2000
   46.0230   31.2210   45.0950 C   0  0  0  0  0  0  0  0  0  0  0  0
   46.1660   32.5730   45.2800 C   0  0  0  0  0  0  0  0  0  0  0  0
   46.0370   33.1820   46.5310 C   0  0  0  0  0  0  0  0  0  0  0  0
   45.7490   32.4070   47.6560 C   0  0  0  0  0  0  0  0  0  0  0  0
   45.5590   32.6360   48.9790 N   0  0  0  0  0  0  0  0  0  0  0  0
   45.3020   31.4390   49.5910 C   0  0  0  0  0  0  0  0  0  0  0  0
   45.3410   30.4830   48.6160 N   0  0  0  0  0  0  0  0  0  0  0  0
   45.6110   31.0420   47.4270 C   0  0  0  0  0  0  0  0  0  0  0  0
   45.7350   30.4260   46.2050 C   0  0  0  0  0  0  0  0  0  0  0  0
   46.1230   30.7490   44.1240 H   0  0  0  0  0  0  0  0  0  0  0  0
   46.1410   34.2300   46.7140 H   0  0  0  0  0  0  0  0  0  0  0  0
   45.6260   33.6250   49.3430 H   0  0  0  0  0  0  0  0  0  0  0  0
   45.1280   31.4440   50.6400 H   0  0  0  0  0  0  0  0  0  0  0  0
   45.6170   29.3650   46.0940 H   0  0  0  0  0  0  0  0  0  0  0  0
   46.0330   35.3590   42.8720 C   0  0  0  0  0  0  0  0  0  0  0  0
   47.0850   35.0540   42.0100 C   0  0  0  0  0  0  0  0  0  0  0  0
   47.8470   33.8810   42.2570 C   0  0  0  0  0  0  0  0  0  0  0  0
   47.4980   33.1130   43.3380 N   0  0  0  0  0  0  0  0  0  0  0  0
   46.4680   33.4500   44.1490 C   0  0  0  0  0  0  0  0  0  0  0  0
   45.7480   34.5560   43.9170 N   0  0  0  0  0  0  0  0  0  0  0  0
   45.4890   36.2560   42.6400 H   0  0  0  0  0  0  0  0  0  0  0  0
   47.3330   35.6730   41.1720 H   0  0  0  0  0  0  0  0  0  0  0  0
   48.9790   33.5130   41.3640 C   0  0  2  0  0  0  0  0  0  0  0  0
   48.6250   32.2610   40.5940 C   0  0  0  0  0  0  0  0  0  0  0  0
   49.8180   32.0550   39.6550 C   0  0  0  0  0  0  0  0  0  0  0  0
   50.8860   31.5020   40.5700 C   0  0  0  0  0  0  0  0  0  0  0  0
   51.2170   32.3740   41.7170 C   0  0  0  0  0  0  0  0  0  0  0  0
   50.2640   33.4530   42.0800 C   0  0  0  0  0  0  0  0  0  0  0  0
  1  2  2  0  0  0  0
  1  9  1  0  0  0  0
  2  3  1  0  0  0  0
  3 11  1  0  0  0  0
  3  4  2  0  0  0  0
  4  5  1  0  0  0  0
  5 12  1  0  0  0  0
  5  6  1  0  0  0  0
  6 13  1  0  0  0  0
  7  6  2  0  0  0  0
  8  4  1  0  0  0  0
  8  7  1  0  0  0  0
  9  8  2  0  0  0  0
 10  1  1  0  0  0  0
 14  9  1  0  0  0  0
 15 20  1  0  0  0  0
 16 17  1  0  0  0  0
 16 15  2  0  0  0  0
 17 18  2  0  0  0  0
 18 19  1  0  0  0  0
 19  2  1  0  0  0  0
 20 19  2  0  0  0  0
 21 15  1  0  0  0  0
 22 16  1  0  0  0  0
 23 28  1  0  0  0  0
 23 17  1  1  0  0  0
 24 23  1  0  0  0  0
 25 26  1  0  0  0  0
 25 24  1  0  0  0  0
 26 27  1  0  0  0  0
 27 28  2  0  0  0  0
M  END
>  <minimizedAffinity>
-5.95913744

>  <minimizedRMSD>
1.3065505

$$$$
