
 OpenBabel03252508333D

 29 31  0  0  1  0  0  0  0  0999 V2000
   44.4340   34.5240   41.9130 N   0  0  0  0  0  0  0  0  0  0  0  0
   44.8880   33.6660   40.9060 C   0  0  1  0  0  0  0  0  0  0  0  0
   44.0810   33.6370   39.6360 C   0  0  0  0  0  0  0  0  0  0  0  0
   42.8090   34.1950   39.6180 N   0  0  0  0  0  0  0  0  0  0  0  0
   42.5180   35.2050   40.5280 C   0  0  0  0  0  0  0  0  0  0  0  0
   43.6440   35.6110   41.3990 C   0  0  0  0  0  0  0  0  0  0  0  0
   44.9470   32.6240   41.2870 H   0  0  0  0  0  0  0  0  0  0  0  0
   44.0120   32.5420   39.3180 H   0  0  0  0  0  0  0  0  0  0  0  0
   44.6670   34.0820   38.8090 H   0  0  0  0  0  0  0  0  0  0  0  0
   42.5090   34.3440   38.6340 H   0  0  0  0  0  0  0  0  0  0  0  0
   41.6310   34.9190   41.1640 H   0  0  0  0  0  0  0  0  0  0  0  0
   42.1760   36.1310   39.9840 H   0  0  0  0  0  0  0  0  0  0  0  0
   44.2620   36.4450   40.9690 H   0  0  0  0  0  0  0  0  0  0  0  0
   43.1630   36.1140   42.2970 H   0  0  0  0  0  0  0  0  0  0  0  0
   44.5290   35.3760   44.1470 C   0  0  0  0  0  0  0  0  0  0  0  0
   44.7540   34.3120   43.2820 C   0  0  0  0  0  0  0  0  0  0  0  0
   45.2750   33.1390   43.7870 C   0  0  0  0  0  0  0  0  0  0  0  0
   45.5670   33.0210   45.1090 N   0  0  0  0  0  0  0  0  0  0  0  0
   45.3370   34.0850   45.9440 C   0  0  0  0  0  0  0  0  0  0  0  0
   44.8250   35.2370   45.4560 N   0  0  0  0  0  0  0  0  0  0  0  0
   44.1410   36.3630   43.9630 H   0  0  0  0  0  0  0  0  0  0  0  0
   45.4570   32.2920   43.1700 H   0  0  0  0  0  0  0  0  0  0  0  0
   45.5760   33.9740   47.0030 H   0  0  0  0  0  0  0  0  0  0  0  0
   46.3290   33.9680   40.4550 C   0  0  0  0  0  3  0  0  0  0  0  0
   47.1930   34.5560   41.5060 C   0  0  0  0  0  2  0  0  0  0  0  0
   48.3600   35.2320   40.7970 C   0  0  0  0  0  2  0  0  0  0  0  0
   48.4970   34.7850   39.3770 C   0  0  0  0  0  2  0  0  0  0  0  0
   48.3270   33.3100   39.1910 C   0  0  0  0  0  2  0  0  0  0  0  0
   47.0180   32.8340   39.7870 C   0  0  0  0  0  2  0  0  0  0  0  0
  1 16  1  0  0  0  0
  2  7  1  1  0  0  0
  2  1  1  0  0  0  0
  3  2  1  0  0  0  0
  4  3  1  0  0  0  0
  4  5  1  0  0  0  0
  5 11  1  0  0  0  0
  5  6  1  0  0  0  0
  6  1  1  0  0  0  0
  6 14  1  0  0  0  0
  8  3  1  0  0  0  0
  9  3  1  0  0  0  0
 10  4  1  0  0  0  0
 12  5  1  0  0  0  0
 13  6  1  0  0  0  0
 15 20  1  0  0  0  0
 16 17  1  0  0  0  0
 16 15  2  0  0  0  0
 17 18  2  0  0  0  0
 18 19  1  0  0  0  0
 19 23  1  0  0  0  0
 20 19  2  0  0  0  0
 21 15  1  0  0  0  0
 22 17  1  0  0  0  0
 24  2  1  0  0  0  0
 24 25  1  0  0  0  0
 26 25  1  0  0  0  0
 27 26  1  0  0  0  0
 28 27  1  0  0  0  0
 28 29  1  0  0  0  0
 29 24  1  0  0  0  0
M  END
>  <minimizedAffinity>
-4.99905729

>  <minimizedRMSD>
0.410915941

$$$$
