
 OpenBabel03242511093D

 40 44  0  0  1  0  0  0  0  0999 V2000
   47.1930   32.8510   44.1300 C   0  0  0  0  0  0  0  0  0  0  0  0
   47.3360   31.9480   45.1740 C   0  0  0  0  0  0  0  0  0  0  0  0
   46.6340   32.0390   46.3670 C   0  0  0  0  0  0  0  0  0  0  0  0
   45.7370   33.0740   46.5600 C   0  0  0  0  0  0  0  0  0  0  0  0
   45.5700   33.9750   45.5640 C   0  0  0  0  0  0  0  0  0  0  0  0
   44.6770   35.0060   45.7430 C   0  0  0  0  0  0  0  0  0  0  0  0
   44.4540   35.9600   44.7620 C   0  0  0  0  0  0  0  0  0  0  0  0
   45.1830   35.8190   43.5850 C   0  0  0  0  0  0  0  0  0  0  0  0
   46.0690   34.7880   43.4210 C   0  0  0  0  0  0  0  0  0  0  0  0
   46.2850   33.8530   44.3880 C   0  0  0  0  0  0  0  0  0  0  0  0
   48.0250   31.1250   45.0630 H   0  0  0  0  0  0  0  0  0  0  0  0
   46.7980   31.2960   47.1360 H   0  0  0  0  0  0  0  0  0  0  0  0
   45.2260   33.0830   47.5130 H   0  0  0  0  0  0  0  0  0  0  0  0
   44.1480   35.0380   46.6980 H   0  0  0  0  0  0  0  0  0  0  0  0
   43.7140   36.7190   45.0480 H   0  0  0  0  0  0  0  0  0  0  0  0
   44.8630   36.6500   42.9620 H   0  0  0  0  0  0  0  0  0  0  0  0
   46.6630   34.9720   42.0840 C   0  0  0  0  0  0  0  0  0  0  0  0
   46.3650   33.6670   41.2580 C   0  0  0  0  0  0  0  0  0  0  0  0
   46.8420   33.9110   39.8330 C   0  0  0  0  0  0  0  0  0  0  0  0
   48.2660   34.3210   39.7240 C   0  0  0  0  0  0  0  0  0  0  0  0
   48.6370   35.3830   40.7370 C   0  0  0  0  0  0  0  0  0  0  0  0
   48.1770   34.9400   42.1210 C   0  0  0  0  0  0  0  0  0  0  0  0
   47.9360   32.6890   42.9550 N   0  0  0  0  0  0  0  0  0  0  0  0
   47.5560   33.5230   42.4630 H   0  0  0  0  0  0  0  0  0  0  0  0
   49.9200   31.4880   41.8620 C   0  0  1  0  0  0  0  0  0  0  0  0
   48.6530   30.7120   41.5600 C   0  0  0  0  0  0  0  0  0  0  0  0
   48.8390   31.5750   42.8010 C   0  0  2  0  0  0  0  0  0  0  0  0
   50.1570   32.2020   41.0340 H   0  0  0  0  0  0  0  0  0  0  0  0
   47.9460   31.0900   40.7970 H   0  0  0  0  0  0  0  0  0  0  0  0
   48.6020   29.6270   41.7270 H   0  0  0  0  0  0  0  0  0  0  0  0
   48.9750   31.0270   43.7700 H   0  0  0  0  0  0  0  0  0  0  0  0
   52.4320   29.5880   43.8520 C   0  0  0  0  0  0  0  0  0  0  0  0
   53.4320   29.3290   42.8390 C   0  0  0  0  0  0  0  0  0  0  0  0
   53.1970   29.8070   41.5220 C   0  0  0  0  0  0  0  0  0  0  0  0
   52.0710   30.4780   41.2530 N   0  0  0  0  0  0  0  0  0  0  0  0
   51.1460   30.7080   42.2280 C   0  0  0  0  0  0  0  0  0  0  0  0
   51.3330   30.2630   43.5160 N   0  0  0  0  0  0  0  0  0  0  0  0
   52.6250   29.2190   44.8500 H   0  0  0  0  0  0  0  0  0  0  0  0
   54.3220   28.7830   43.1110 H   0  0  0  0  0  0  0  0  0  0  0  0
   53.9730   29.5880   40.7990 H   0  0  0  0  0  0  0  0  0  0  0  0
  1 10  2  0  0  0  0
  1  2  1  0  0  0  0
  2  3  2  0  0  0  0
  3  4  1  0  0  0  0
  3 12  1  0  0  0  0
  4 13  1  0  0  0  0
  5  6  1  0  0  0  0
  5  4  2  0  0  0  0
  6 14  1  0  0  0  0
  7 15  1  0  0  0  0
  7  6  2  0  0  0  0
  8  7  1  0  0  0  0
  9  8  2  0  0  0  0
  9 10  1  0  0  0  0
 10  5  1  0  0  0  0
 11  2  1  0  0  0  0
 16  8  1  0  0  0  0
 17 22  1  0  0  0  0
 17  9  1  0  0  0  0
 18 17  1  0  0  0  0
 19 18  1  0  0  0  0
 20 19  1  0  0  0  0
 20 21  1  0  0  0  0
 21 22  1  0  0  0  0
 23  1  1  0  0  0  0
 24 23  1  0  0  0  0
 25 28  1  6  0  0  0
 25 36  1  0  0  0  0
 25 27  1  0  0  0  0
 26 30  1  0  0  0  0
 26 25  1  0  0  0  0
 26 27  1  0  0  0  0
 27 23  1  0  0  0  0
 27 31  1  1  0  0  0
 29 26  1  0  0  0  0
 32 38  1  0  0  0  0
 33 39  1  0  0  0  0
 33 32  2  0  0  0  0
 34 33  1  0  0  0  0
 35 34  2  0  0  0  0
 35 36  1  0  0  0  0
 36 37  2  0  0  0  0
 37 32  1  0  0  0  0
 40 34  1  0  0  0  0
M  END
>  <minimizedAffinity>
-6.3166666

>  <minimizedRMSD>
2.42179322

$$$$
