
 OpenBabel03242521143D

 25 27  0  0  0  0  0  0  0  0999 V2000
   44.5260   35.7290   44.8830 C   0  0  0  0  0  0  0  0  0  0  0  0
   45.1520   35.6600   43.6190 C   0  0  0  0  0  0  0  0  0  0  0  0
   46.0770   34.6530   43.3810 C   0  0  0  0  0  0  0  0  0  0  0  0
   46.3430   33.7660   44.3930 N   0  0  0  0  0  0  0  0  0  0  0  0
   45.7320   33.8580   45.5840 C   0  0  0  0  0  0  0  0  0  0  0  0
   44.8190   34.8350   45.8460 N   0  0  0  0  0  0  0  0  0  0  0  0
   43.8180   36.5210   45.0260 H   0  0  0  0  0  0  0  0  0  0  0  0
   44.8920   36.3930   42.8740 H   0  0  0  0  0  0  0  0  0  0  0  0
   46.6950   34.6000   42.1060 N   0  0  0  0  0  0  0  0  0  0  0  0
   47.9230   35.1600   41.9790 C   0  0  0  0  0  0  0  0  0  0  0  0
   48.5340   35.1070   40.7210 C   0  0  0  0  0  0  0  0  0  0  0  0
   47.8660   34.4990   39.6970 C   0  0  0  0  0  0  0  0  0  0  0  0
   48.4390   34.4600   38.5570 O   0  0  0  0  0  0  0  0  0  0  0  0
   46.6430   33.9370   39.8120 N   0  0  0  0  0  0  0  0  0  0  0  0
   46.0970   34.0170   41.0510 C   0  0  0  0  0  0  0  0  0  0  0  0
   44.9690   33.5310   41.2760 O   0  0  0  0  0  0  0  0  0  0  0  0
   48.4440   35.6370   42.7840 H   0  0  0  0  0  0  0  0  0  0  0  0
   49.5150   35.5520   40.6080 H   0  0  0  0  0  0  0  0  0  0  0  0
   46.1540   33.4780   39.0120 H   0  0  0  0  0  0  0  0  0  0  0  0
   46.1300   32.8200   46.5710 C   0  0  0  0  0  0  0  0  0  0  0  0
   45.1390   32.9000   47.7310 C   0  0  0  0  0  0  0  0  0  0  0  0
   45.6820   32.0580   48.8560 C   0  0  0  0  0  0  0  0  0  0  0  0
   46.0120   30.6600   48.4550 C   0  0  0  0  0  0  0  0  0  0  0  0
   46.6270   30.5080   47.0990 C   0  0  0  0  0  0  0  0  0  0  0  0
   46.0540   31.4230   46.0510 C   0  0  0  0  0  0  0  0  0  0  0  0
  1  7  1  0  0  0  0
  1  6  1  0  0  0  0
  2  1  2  0  0  0  0
  3  2  1  0  0  0  0
  3  4  2  0  0  0  0
  4  5  1  0  0  0  0
  5  6  2  0  0  0  0
  5 20  1  0  0  0  0
  8  2  1  0  0  0  0
  9  3  1  0  0  0  0
 10  9  1  0  0  0  0
 10 17  1  0  0  0  0
 11 10  2  0  0  0  0
 12 14  1  0  0  0  0
 12 11  1  0  0  0  0
 13 12  2  0  0  0  0
 14 15  1  0  0  0  0
 15 16  2  0  0  0  0
 15  9  1  0  0  0  0
 18 11  1  0  0  0  0
 19 14  1  0  0  0  0
 20 21  1  0  0  0  0
 21 22  1  0  0  0  0
 23 22  1  0  0  0  0
 24 23  1  0  0  0  0
 25 20  1  0  0  0  0
 25 24  1  0  0  0  0
M  END
>  <minimizedAffinity>
-6.57974958

>  <minimizedRMSD>
0.424523294

$$$$
