
 OpenBabel03252508263D

 38 42  0  0  1  0  0  0  0  0999 V2000
   46.2870   32.2390   46.1540 C   0  0  1  0  0  0  0  0  0  0  0  0
   46.4800   32.2460   47.6100 C   0  0  0  0  0  0  0  0  0  0  0  0
   45.2900   31.4890   46.8920 C   0  0  2  0  0  0  0  0  0  0  0  0
   47.2640   31.8120   45.7260 H   0  0  0  0  0  0  0  0  0  0  0  0
   47.1240   31.5410   48.1630 H   0  0  0  0  0  0  0  0  0  0  0  0
   46.2190   33.1330   48.2110 H   0  0  0  0  0  0  0  0  0  0  0  0
   44.3990   31.9530   47.4020 H   0  0  0  0  0  0  0  0  0  0  0  0
   45.2120   30.0280   46.9650 C   0  0  0  0  0  0  0  0  0  0  0  0
   45.1910   29.2540   48.0850 C   0  0  0  0  0  0  0  0  0  0  0  0
   45.2420   27.8680   48.1180 C   0  0  0  0  0  0  0  0  0  0  0  0
   45.3240   27.2190   46.8750 C   0  0  0  0  0  0  0  0  0  0  0  0
   45.3440   27.9810   45.7120 C   0  0  0  0  0  0  0  0  0  0  0  0
   45.3680   27.3020   44.5060 C   0  0  0  0  0  0  0  0  0  0  0  0
   45.3230   28.0250   43.3250 C   0  0  0  0  0  0  0  0  0  0  0  0
   45.2530   29.4000   43.3380 C   0  0  0  0  0  0  0  0  0  0  0  0
   45.2340   30.0320   44.5600 C   0  0  0  0  0  0  0  0  0  0  0  0
   45.2860   29.3620   45.7660 C   0  0  0  0  0  0  0  0  0  0  0  0
   45.1280   29.8000   49.0220 H   0  0  0  0  0  0  0  0  0  0  0  0
   45.2210   27.3180   49.0500 H   0  0  0  0  0  0  0  0  0  0  0  0
   45.3700   26.1400   46.8440 H   0  0  0  0  0  0  0  0  0  0  0  0
   45.4200   26.2130   44.5260 H   0  0  0  0  0  0  0  0  0  0  0  0
   45.3500   27.3770   42.4330 H   0  0  0  0  0  0  0  0  0  0  0  0
   45.2240   29.7740   42.3290 H   0  0  0  0  0  0  0  0  0  0  0  0
   45.0950   31.0450   44.3150 H   0  0  0  0  0  0  0  0  0  0  0  0
   44.6280   35.4380   45.3500 C   0  0  0  0  0  0  0  0  0  0  0  0
   45.0730   35.6960   44.0070 C   0  0  0  0  0  0  0  0  0  0  0  0
   45.9670   34.7260   43.4250 C   0  0  0  0  0  0  0  0  0  0  0  0
   46.3270   33.6750   44.1370 N   0  0  0  0  0  0  0  0  0  0  0  0
   45.8710   33.4710   45.4250 C   0  0  0  0  0  0  0  0  0  0  0  0
   45.0470   34.3330   46.0050 N   0  0  0  0  0  0  0  0  0  0  0  0
   43.9540   36.1700   45.7860 H   0  0  0  0  0  0  0  0  0  0  0  0
   44.7480   36.5630   43.4860 H   0  0  0  0  0  0  0  0  0  0  0  0
   46.4410   34.9680   42.0340 C   0  0  0  0  0  3  0  0  0  0  0  0
   47.9040   35.3060   42.0610 C   0  0  0  0  0  2  0  0  0  0  0  0
   48.5860   35.2610   40.7440 C   0  0  0  0  0  2  0  0  0  0  0  0
   48.3050   34.0070   39.9790 C   0  0  0  0  0  2  0  0  0  0  0  0
   46.8100   33.8700   39.8350 C   0  0  0  0  0  2  0  0  0  0  0  0
   46.1340   33.7780   41.1570 C   0  0  0  0  0  2  0  0  0  0  0  0
  1  4  1  6  0  0  0
  1  3  1  0  0  0  0
  1  2  1  0  0  0  0
  2  5  1  0  0  0  0
  2  6  1  0  0  0  0
  3  8  1  0  0  0  0
  3  7  1  1  0  0  0
  3  2  1  0  0  0  0
  8  9  1  0  0  0  0
  9 10  2  0  0  0  0
  9 18  1  0  0  0  0
 10 19  1  0  0  0  0
 11 10  1  0  0  0  0
 12 17  1  0  0  0  0
 12 11  2  0  0  0  0
 13 21  1  0  0  0  0
 13 12  1  0  0  0  0
 14 15  1  0  0  0  0
 14 13  2  0  0  0  0
 15 16  2  0  0  0  0
 16 17  1  0  0  0  0
 17  8  2  0  0  0  0
 20 11  1  0  0  0  0
 22 14  1  0  0  0  0
 23 15  1  0  0  0  0
 24 16  1  0  0  0  0
 25 31  1  0  0  0  0
 25 30  1  0  0  0  0
 26 25  2  0  0  0  0
 27 26  1  0  0  0  0
 27 28  2  0  0  0  0
 28 29  1  0  0  0  0
 29 30  2  0  0  0  0
 29  1  1  0  0  0  0
 32 26  1  0  0  0  0
 33 34  1  0  0  0  0
 33 27  1  0  0  0  0
 35 34  1  0  0  0  0
 36 35  1  0  0  0  0
 37 36  1  0  0  0  0
 37 38  1  0  0  0  0
 38 33  1  0  0  0  0
M  END
>  <minimizedAffinity>
-5.95231533

>  <minimizedRMSD>
1.12365305

$$$$
