
 OpenBabel03252503133D

 31 34  0  0  0  0  0  0  0  0999 V2000
   45.4230   36.2640   43.3500 C   0  0  0  0  0  0  0  0  0  0  0  0
   46.0850   35.0570   43.0540 C   0  0  0  0  0  0  0  0  0  0  0  0
   45.9180   34.0650   43.9990 C   0  0  0  0  0  0  0  0  0  0  0  0
   45.1790   34.2340   45.1220 N   0  0  0  0  0  0  0  0  0  0  0  0
   44.5620   35.4220   45.3560 C   0  0  0  0  0  0  0  0  0  0  0  0
   44.6870   36.4350   44.4660 N   0  0  0  0  0  0  0  0  0  0  0  0
   45.5020   37.1000   42.6540 H   0  0  0  0  0  0  0  0  0  0  0  0
   43.9840   35.5060   46.2670 H   0  0  0  0  0  0  0  0  0  0  0  0
   46.5440   32.8260   43.7930 C   0  0  0  0  0  0  0  0  0  0  0  0
   47.8140   32.3500   43.9410 C   0  0  0  0  0  0  0  0  0  0  0  0
   48.1630   31.0970   43.6720 C   0  0  0  0  0  0  0  0  0  0  0  0
   47.1660   30.2820   43.2270 C   0  0  0  0  0  0  0  0  0  0  0  0
   45.6840   31.3790   43.2030 S   0  0  0  0  0  0  0  0  0  0  0  0
   48.5400   33.1060   44.3100 H   0  0  0  0  0  0  0  0  0  0  0  0
   49.1510   30.6700   43.7720 H   0  0  0  0  0  0  0  0  0  0  0  0
   47.1850   29.2130   42.9360 H   0  0  0  0  0  0  0  0  0  0  0  0
   46.8420   34.9320   41.8710 C   0  0  0  0  0  0  0  0  0  0  0  0
   47.9830   35.4980   41.8830 O   0  0  0  0  0  0  0  0  0  0  0  0
   46.2940   34.1690   40.7030 C   0  0  0  0  0  0  0  0  0  0  0  0
   44.9860   34.1090   40.3010 C   0  0  0  0  0  0  0  0  0  0  0  0
   44.9560   33.3160   39.2200 N   0  0  0  0  0  0  0  0  0  0  0  0
   46.2190   32.8990   38.9640 C   0  0  0  0  0  0  0  0  0  0  0  0
   47.0550   33.4280   39.8880 N   0  0  0  0  0  0  0  0  0  0  0  0
   44.1430   34.6110   40.7750 H   0  0  0  0  0  0  0  0  0  0  0  0
   44.0690   33.1130   38.7270 H   0  0  0  0  0  0  0  0  0  0  0  0
   46.6100   31.9970   37.8380 C   0  0  0  0  0  3  0  0  0  0  0  0
   45.6860   30.8360   37.6640 C   0  0  0  0  0  2  0  0  0  0  0  0
   45.9970   30.2000   36.3210 C   0  0  0  0  0  2  0  0  0  0  0  0
   45.6090   31.0610   35.1590 C   0  0  0  0  0  2  0  0  0  0  0  0
   45.4810   32.4960   35.6780 C   0  0  0  0  0  2  0  0  0  0  0  0
   46.7120   32.7530   36.5370 C   0  0  0  0  0  2  0  0  0  0  0  0
  1  6  1  0  0  0  0
  2  1  2  0  0  0  0
  2  3  1  0  0  0  0
  3  4  2  0  0  0  0
  4  5  1  0  0  0  0
  5  8  1  0  0  0  0
  6  5  2  0  0  0  0
  7  1  1  0  0  0  0
  9 10  2  0  0  0  0
  9  3  1  0  0  0  0
 10 14  1  0  0  0  0
 11 15  1  0  0  0  0
 11 10  1  0  0  0  0
 12 11  2  0  0  0  0
 13 12  1  0  0  0  0
 13  9  1  0  0  0  0
 16 12  1  0  0  0  0
 17 18  2  0  0  0  0
 17  2  1  0  0  0  0
 19 17  1  0  0  0  0
 20 19  2  0  0  0  0
 20 24  1  0  0  0  0
 21 20  1  0  0  0  0
 22 21  1  0  0  0  0
 22 23  2  0  0  0  0
 23 19  1  0  0  0  0
 25 21  1  0  0  0  0
 26 22  1  0  0  0  0
 27 26  1  0  0  0  0
 28 27  1  0  0  0  0
 29 30  1  0  0  0  0
 29 28  1  0  0  0  0
 30 31  1  0  0  0  0
 31 26  1  0  0  0  0
M  END
>  <minimizedAffinity>
-4.69897223

>  <minimizedRMSD>
0.759737492

$$$$
