
 OpenBabel03252506263D

 42 46  0  0  0  0  0  0  0  0999 V2000
   46.1930   30.1900   48.3220 C   0  0  0  0  0  0  0  0  0  0  0  0
   45.5400   31.0760   48.4510 H   0  0  0  0  0  0  0  0  0  0  0  0
   46.4070   29.8520   49.3790 H   0  0  0  0  0  0  0  0  0  0  0  0
   45.6380   27.7110   47.8260 C   0  0  0  0  0  0  0  0  0  0  0  0
   45.4650   29.0790   47.6980 C   0  0  0  0  0  0  0  0  0  0  0  0
   44.4440   29.5030   46.8480 C   0  0  0  0  0  0  0  0  0  0  0  0
   43.6420   28.6180   46.1650 C   0  0  0  0  0  0  0  0  0  0  0  0
   42.6170   28.7330   45.3140 N   0  0  0  0  0  0  0  0  0  0  0  0
   42.1740   27.5170   44.9310 C   0  0  0  0  0  0  0  0  0  0  0  0
   42.9320   26.5360   45.5510 C   0  0  0  0  0  0  0  0  0  0  0  0
   43.8280   27.2640   46.3050 C   0  0  0  0  0  0  0  0  0  0  0  0
   44.8370   26.8450   47.1450 C   0  0  0  0  0  0  0  0  0  0  0  0
   46.4480   27.4660   48.5010 H   0  0  0  0  0  0  0  0  0  0  0  0
   44.2020   30.5400   46.6570 H   0  0  0  0  0  0  0  0  0  0  0  0
   42.2090   29.6500   44.9830 H   0  0  0  0  0  0  0  0  0  0  0  0
   41.3470   27.3100   44.2410 H   0  0  0  0  0  0  0  0  0  0  0  0
   42.8700   25.4560   45.4870 H   0  0  0  0  0  0  0  0  0  0  0  0
   45.0660   25.4080   47.3170 C   0  0  0  0  0  3  0  0  0  0  0  0
   45.9800   24.7510   46.3550 C   0  0  0  0  0  2  0  0  0  0  0  0
   47.1880   24.0900   46.9530 C   0  0  0  0  0  2  0  0  0  0  0  0
   46.8640   23.0850   48.0090 C   0  0  0  0  0  2  0  0  0  0  0  0
   45.7650   23.5880   48.8860 C   0  0  0  0  0  2  0  0  0  0  0  0
   45.6390   25.1040   48.7080 C   0  0  0  0  0  2  0  0  0  0  0  0
   47.4820   30.5700   47.7110 C   0  0  0  0  0  0  0  0  0  0  0  0
   48.1340   29.7120   47.5600 H   0  0  0  0  0  0  0  0  0  0  0  0
   48.0040   31.2530   48.4310 H   0  0  0  0  0  0  0  0  0  0  0  0
   46.5880   32.8640   45.1270 C   0  0  0  0  0  0  0  0  0  0  0  0
   47.2260   31.8260   44.4010 C   0  0  0  0  0  0  0  0  0  0  0  0
   47.6260   30.8640   45.2680 C   0  0  0  0  0  0  0  0  0  0  0  0
   47.2550   31.2860   46.4800 N   0  0  0  0  0  0  0  0  0  0  0  0
   46.6390   32.4700   46.3970 N   0  0  0  0  0  0  0  0  0  0  0  0
   47.3740   31.7960   43.3290 H   0  0  0  0  0  0  0  0  0  0  0  0
   48.1420   29.9540   44.9830 H   0  0  0  0  0  0  0  0  0  0  0  0
   44.5330   35.8240   44.6330 C   0  0  0  0  0  0  0  0  0  0  0  0
   44.9450   36.3030   43.3910 C   0  0  0  0  0  0  0  0  0  0  0  0
   45.9380   35.5970   42.7230 C   0  0  0  0  0  0  0  0  0  0  0  0
   46.4510   34.4850   43.3140 N   0  0  0  0  0  0  0  0  0  0  0  0
   46.0420   34.0450   44.5040 C   0  0  0  0  0  0  0  0  0  0  0  0
   45.0760   34.7220   45.1630 N   0  0  0  0  0  0  0  0  0  0  0  0
   43.7650   36.3210   45.2080 H   0  0  0  0  0  0  0  0  0  0  0  0
   44.5010   37.1790   42.9880 H   0  0  0  0  0  0  0  0  0  0  0  0
   46.2920   35.9340   41.7490 H   0  0  0  0  0  0  0  0  0  0  0  0
  1  2  1  0  0  0  0
  1  3  1  0  0  0  0
  4 13  1  0  0  0  0
  5  4  1  0  0  0  0
  5  1  1  0  0  0  0
  6  5  2  0  0  0  0
  7 11  2  0  0  0  0
  7  6  1  0  0  0  0
  8  7  1  0  0  0  0
  9  8  1  0  0  0  0
  9 10  2  0  0  0  0
 10 11  1  0  0  0  0
 11 12  1  0  0  0  0
 12 18  1  0  0  0  0
 12  4  2  0  0  0  0
 14  6  1  0  0  0  0
 15  8  1  0  0  0  0
 16  9  1  0  0  0  0
 17 10  1  0  0  0  0
 18 23  1  0  0  0  0
 19 20  1  0  0  0  0
 19 18  1  0  0  0  0
 20 21  1  0  0  0  0
 21 22  1  0  0  0  0
 23 22  1  0  0  0  0
 24  1  1  0  0  0  0
 24 26  1  0  0  0  0
 25 24  1  0  0  0  0
 27 31  2  0  0  0  0
 28 27  1  0  0  0  0
 28 29  2  0  0  0  0
 29 30  1  0  0  0  0
 30 24  1  0  0  0  0
 31 30  1  0  0  0  0
 32 28  1  0  0  0  0
 33 29  1  0  0  0  0
 34 39  1  0  0  0  0
 34 40  1  0  0  0  0
 35 34  2  0  0  0  0
 36 37  2  0  0  0  0
 36 35  1  0  0  0  0
 37 38  1  0  0  0  0
 38 27  1  0  0  0  0
 38 39  2  0  0  0  0
 41 35  1  0  0  0  0
 42 36  1  0  0  0  0
M  END
>  <minimizedAffinity>
-5.43887138

>  <minimizedRMSD>
0.736834824

$$$$
