
 OpenBabel03252506563D

 35 39  0  0  0  0  0  0  0  0999 V2000
   47.2340   31.3410   45.1600 C   0  0  0  0  0  0  0  0  0  0  0  0
   46.8840   32.6790   45.1410 C   0  0  0  0  0  0  0  0  0  0  0  0
   46.2720   33.3200   46.2040 C   0  0  0  0  0  0  0  0  0  0  0  0
   45.9850   32.6050   47.3610 C   0  0  0  0  0  0  0  0  0  0  0  0
   45.4120   32.8870   48.5650 N   0  0  0  0  0  0  0  0  0  0  0  0
   45.4100   31.7520   49.3050 C   0  0  0  0  0  0  0  0  0  0  0  0
   45.9800   30.7840   48.5530 N   0  0  0  0  0  0  0  0  0  0  0  0
   46.3390   31.2800   47.3660 C   0  0  0  0  0  0  0  0  0  0  0  0
   46.9440   30.6250   46.3270 C   0  0  0  0  0  0  0  0  0  0  0  0
   47.7070   30.8730   44.3210 H   0  0  0  0  0  0  0  0  0  0  0  0
   46.0060   34.3590   46.1760 H   0  0  0  0  0  0  0  0  0  0  0  0
   45.0520   33.8520   48.8100 H   0  0  0  0  0  0  0  0  0  0  0  0
   45.0080   31.7030   50.3080 H   0  0  0  0  0  0  0  0  0  0  0  0
   46.5650   35.1390   42.4150 C   0  0  0  0  0  0  0  0  0  0  0  0
   47.7130   34.9220   41.6710 C   0  0  0  0  0  0  0  0  0  0  0  0
   48.6040   33.9310   42.0990 C   0  0  0  0  0  0  0  0  0  0  0  0
   48.2960   33.2250   43.2310 N   0  0  0  0  0  0  0  0  0  0  0  0
   47.1750   33.4580   43.9320 C   0  0  0  0  0  0  0  0  0  0  0  0
   46.3040   34.4110   43.5340 N   0  0  0  0  0  0  0  0  0  0  0  0
   45.8400   35.9060   42.1180 H   0  0  0  0  0  0  0  0  0  0  0  0
   47.9250   35.4910   40.7900 H   0  0  0  0  0  0  0  0  0  0  0  0
   49.5200   33.7190   41.5510 H   0  0  0  0  0  0  0  0  0  0  0  0
   47.2850   29.1960   46.4270 C   0  0  0  0  0  0  0  0  0  0  0  0
   48.5880   28.7080   46.4350 C   0  0  0  0  0  0  0  0  0  0  0  0
   48.4040   27.3160   46.5430 C   0  0  0  0  0  0  0  0  0  0  0  0
   47.0450   27.0600   46.5920 C   0  0  0  0  0  0  0  0  0  0  0  0
   46.4250   28.2260   46.5180 O   0  0  0  0  0  0  0  0  0  0  0  0
   49.5260   29.2500   46.3740 H   0  0  0  0  0  0  0  0  0  0  0  0
   49.1910   26.5780   46.5810 H   0  0  0  0  0  0  0  0  0  0  0  0
   46.3490   25.7380   46.7060 C   0  0  0  0  0  3  0  0  0  0  0  0
   45.1500   25.8160   47.6050 C   0  0  0  0  0  2  0  0  0  0  0  0
   45.4410   25.3430   49.0080 C   0  0  0  0  0  2  0  0  0  0  0  0
   45.8420   23.8890   49.0150 C   0  0  0  0  0  2  0  0  0  0  0  0
   46.6000   23.5290   47.7710 C   0  0  0  0  0  2  0  0  0  0  0  0
   47.3270   24.6850   47.1390 C   0  0  0  0  0  2  0  0  0  0  0  0
  1  9  1  0  0  0  0
  2  1  2  0  0  0  0
  2  3  1  0  0  0  0
  3  4  2  0  0  0  0
  4  8  1  0  0  0  0
  4  5  1  0  0  0  0
  5 12  1  0  0  0  0
  5  6  1  0  0  0  0
  6 13  1  0  0  0  0
  7  6  2  0  0  0  0
  8  7  1  0  0  0  0
  9 23  1  0  0  0  0
  9  8  2  0  0  0  0
 10  1  1  0  0  0  0
 11  3  1  0  0  0  0
 14 19  1  0  0  0  0
 15 16  1  0  0  0  0
 15 14  2  0  0  0  0
 16 17  2  0  0  0  0
 17 18  1  0  0  0  0
 18  2  1  0  0  0  0
 19 18  2  0  0  0  0
 20 14  1  0  0  0  0
 21 15  1  0  0  0  0
 22 16  1  0  0  0  0
 23 24  2  0  0  0  0
 23 27  1  0  0  0  0
 24 25  1  0  0  0  0
 25 29  1  0  0  0  0
 25 26  2  0  0  0  0
 26 30  1  0  0  0  0
 27 26  1  0  0  0  0
 28 24  1  0  0  0  0
 30 35  1  0  0  0  0
 30 31  1  0  0  0  0
 31 32  1  0  0  0  0
 32 33  1  0  0  0  0
 34 33  1  0  0  0  0
 35 34  1  0  0  0  0
M  END
>  <minimizedAffinity>
-5.74069786

>  <minimizedRMSD>
0.326859862

$$$$
