
 OpenBabel03252505403D

 25 27  0  0  1  0  0  0  0  0999 V2000
   44.5330   34.9580   43.4810 C   0  0  1  0  0  0  0  0  0  0  0  0
   45.1350   36.3290   43.1070 C   0  0  0  0  0  0  0  0  0  0  0  0
   44.6340   35.3560   42.0760 C   0  0  2  0  0  0  0  0  0  0  0  0
   43.5670   34.9990   44.0200 H   0  0  0  0  0  0  0  0  0  0  0  0
   46.2100   36.4840   43.2760 H   0  0  0  0  0  0  0  0  0  0  0  0
   44.4640   37.1720   43.2990 H   0  0  0  0  0  0  0  0  0  0  0  0
   45.4860   34.8700   41.5200 H   0  0  0  0  0  0  0  0  0  0  0  0
   45.5130   34.0200   44.0970 C   0  0  0  0  0  0  0  0  0  0  0  0
   46.5440   33.4740   43.2870 C   0  0  0  0  0  0  0  0  0  0  0  0
   47.4530   32.6140   43.8850 C   0  0  0  0  0  0  0  0  0  0  0  0
   47.3080   32.3430   45.2050 N   0  0  0  0  0  0  0  0  0  0  0  0
   46.3100   32.8830   45.9460 C   0  0  0  0  0  0  0  0  0  0  0  0
   45.4110   33.7270   45.3800 N   0  0  0  0  0  0  0  0  0  0  0  0
   46.5880   33.7430   42.2420 H   0  0  0  0  0  0  0  0  0  0  0  0
   48.2370   32.1930   43.2860 H   0  0  0  0  0  0  0  0  0  0  0  0
   46.3370   32.4590   47.3840 C   0  0  0  0  0  0  0  0  0  0  0  0
   45.2980   33.0120   48.0960 F   0  0  0  0  0  0  0  0  0  0  0  0
   47.5360   32.8670   47.9730 F   0  0  0  0  0  0  0  0  0  0  0  0
   46.3380   31.0710   47.4420 F   0  0  0  0  0  0  0  0  0  0  0  0
   43.4260   35.6460   41.2450 C   0  0  0  0  0  3  0  0  0  0  0  0
   42.2030   35.5170   42.1170 C   0  0  0  0  0  2  0  0  0  0  0  0
   41.0200   34.8970   41.4210 C   0  0  0  0  0  2  0  0  0  0  0  0
   40.8950   35.3090   39.9850 C   0  0  0  0  0  2  0  0  0  0  0  0
   42.1810   35.1330   39.2130 C   0  0  0  0  0  2  0  0  0  0  0  0
   43.3120   34.6710   40.1150 C   0  0  0  0  0  2  0  0  0  0  0  0
  1  4  1  1  0  0  0
  1  8  1  0  0  0  0
  2  5  1  0  0  0  0
  2  6  1  0  0  0  0
  2  1  1  0  0  0  0
  3  7  1  6  0  0  0
  3  2  1  0  0  0  0
  3  1  1  0  0  0  0
  8 13  1  0  0  0  0
  9 10  1  0  0  0  0
  9  8  2  0  0  0  0
 10 11  2  0  0  0  0
 11 12  1  0  0  0  0
 12 16  1  0  0  0  0
 13 12  2  0  0  0  0
 14  9  1  0  0  0  0
 15 10  1  0  0  0  0
 16 19  1  0  0  0  0
 16 18  1  0  0  0  0
 16 17  1  0  0  0  0
 20  3  1  0  0  0  0
 20 21  1  0  0  0  0
 22 21  1  0  0  0  0
 23 22  1  0  0  0  0
 24 23  1  0  0  0  0
 24 25  1  0  0  0  0
 25 20  1  0  0  0  0
M  END
>  <minimizedAffinity>
-5.38164949

>  <minimizedRMSD>
0.995375514

$$$$
