
 OpenBabel03252505403D

 25 27  0  0  1  0  0  0  0  0999 V2000
   38.4270   28.0540   42.5030 C   0  0  1  0  0  0  0  0  0  0  0  0
   37.3520   27.9530   43.6050 C   0  0  0  0  0  0  0  0  0  0  0  0
   37.1630   27.3680   42.2340 C   0  0  2  0  0  0  0  0  0  0  0  0
   39.3570   27.4870   42.6980 H   0  0  0  0  0  0  0  0  0  0  0  0
   36.8390   28.8770   43.9110 H   0  0  0  0  0  0  0  0  0  0  0  0
   37.5850   27.2200   44.3830 H   0  0  0  0  0  0  0  0  0  0  0  0
   36.4320   27.9730   41.6250 H   0  0  0  0  0  0  0  0  0  0  0  0
   38.6740   29.4460   42.0300 C   0  0  0  0  0  0  0  0  0  0  0  0
   39.7290   30.1930   42.6170 C   0  0  0  0  0  0  0  0  0  0  0  0
   39.9490   31.4810   42.1520 C   0  0  0  0  0  0  0  0  0  0  0  0
   39.1470   31.9540   41.1660 N   0  0  0  0  0  0  0  0  0  0  0  0
   38.1490   31.2100   40.6310 C   0  0  0  0  0  0  0  0  0  0  0  0
   37.9180   29.9480   41.0720 N   0  0  0  0  0  0  0  0  0  0  0  0
   40.3210   29.7400   43.3980 H   0  0  0  0  0  0  0  0  0  0  0  0
   40.7420   32.0590   42.5860 H   0  0  0  0  0  0  0  0  0  0  0  0
   37.3900   31.9200   39.5500 C   0  0  0  0  0  0  0  0  0  0  0  0
   36.3140   31.1800   39.1160 F   0  0  0  0  0  0  0  0  0  0  0  0
   38.2310   32.1490   38.4570 F   0  0  0  0  0  0  0  0  0  0  0  0
   37.0170   33.1750   40.0140 F   0  0  0  0  0  0  0  0  0  0  0  0
   37.0930   25.8910   42.0130 C   0  0  0  0  0  3  0  0  0  0  0  0
   38.4140   25.2850   42.4140 C   0  0  0  0  0  2  0  0  0  0  0  0
   38.8640   24.1590   41.5190 C   0  0  0  0  0  2  0  0  0  0  0  0
   37.7360   23.2910   41.0470 C   0  0  0  0  0  2  0  0  0  0  0  0
   36.5980   24.0870   40.4520 C   0  0  0  0  0  2  0  0  0  0  0  0
   36.8420   25.5810   40.5710 C   0  0  0  0  0  2  0  0  0  0  0  0
  1  4  1  1  0  0  0
  1  2  1  0  0  0  0
  2  5  1  0  0  0  0
  2  6  1  0  0  0  0
  3  7  1  6  0  0  0
  3  1  1  0  0  0  0
  3  2  1  0  0  0  0
  8  1  1  0  0  0  0
  8  9  1  0  0  0  0
  9 14  1  0  0  0  0
 10 15  1  0  0  0  0
 10  9  2  0  0  0  0
 11 10  1  0  0  0  0
 12 13  1  0  0  0  0
 12 11  2  0  0  0  0
 13  8  2  0  0  0  0
 16 19  1  0  0  0  0
 16 12  1  0  0  0  0
 17 16  1  0  0  0  0
 18 16  1  0  0  0  0
 20  3  1  0  0  0  0
 20 21  1  0  0  0  0
 22 21  1  0  0  0  0
 23 22  1  0  0  0  0
 24 25  1  0  0  0  0
 24 23  1  0  0  0  0
 25 20  1  0  0  0  0
M  END
>  <minimizedAffinity>
-5.40154886

$$$$

 OpenBabel03252505403D

 25 27  0  0  1  0  0  0  0  0999 V2000
   38.1160   28.2380   42.0550 C   0  0  1  0  0  0  0  0  0  0  0  0
   37.7180   28.0460   43.5340 C   0  0  0  0  0  0  0  0  0  0  0  0
   37.0580   27.2930   42.4130 C   0  0  2  0  0  0  0  0  0  0  0  0
   39.1320   27.8870   41.7910 H   0  0  0  0  0  0  0  0  0  0  0  0
   37.2120   28.8780   44.0440 H   0  0  0  0  0  0  0  0  0  0  0  0
   38.4390   27.4590   44.1110 H   0  0  0  0  0  0  0  0  0  0  0  0
   36.0140   27.6760   42.2190 H   0  0  0  0  0  0  0  0  0  0  0  0
   37.8030   29.5930   41.5200 C   0  0  0  0  0  0  0  0  0  0  0  0
   36.4640   29.8960   41.1600 C   0  0  0  0  0  0  0  0  0  0  0  0
   36.1930   31.1690   40.6770 C   0  0  0  0  0  0  0  0  0  0  0  0
   37.2190   32.0490   40.5770 N   0  0  0  0  0  0  0  0  0  0  0  0
   38.4860   31.7220   40.9310 C   0  0  0  0  0  0  0  0  0  0  0  0
   38.7710   30.4830   41.4050 N   0  0  0  0  0  0  0  0  0  0  0  0
   35.7050   29.1360   41.2720 H   0  0  0  0  0  0  0  0  0  0  0  0
   35.1860   31.4120   40.4000 H   0  0  0  0  0  0  0  0  0  0  0  0
   39.4640   32.8440   40.7480 C   0  0  0  0  0  0  0  0  0  0  0  0
   38.9620   34.0370   41.2140 F   0  0  0  0  0  0  0  0  0  0  0  0
   39.7600   32.9940   39.3910 F   0  0  0  0  0  0  0  0  0  0  0  0
   40.6610   32.4980   41.3630 F   0  0  0  0  0  0  0  0  0  0  0  0
   37.2250   25.8160   42.2530 C   0  0  0  0  0  3  0  0  0  0  0  0
   38.6720   25.4710   42.4900 C   0  0  0  0  0  2  0  0  0  0  0  0
   39.1980   24.3900   41.5800 C   0  0  0  0  0  2  0  0  0  0  0  0
   38.1920   23.3160   41.2950 C   0  0  0  0  0  2  0  0  0  0  0  0
   36.8640   23.8680   40.8340 C   0  0  0  0  0  2  0  0  0  0  0  0
   36.8500   25.3860   40.8690 C   0  0  0  0  0  2  0  0  0  0  0  0
  1  4  1  6  0  0  0
  1  3  1  0  0  0  0
  1  2  1  0  0  0  0
  2  5  1  0  0  0  0
  2  6  1  0  0  0  0
  3  7  1  6  0  0  0
  3  2  1  0  0  0  0
  8  1  1  0  0  0  0
  9 14  1  0  0  0  0
  9  8  2  0  0  0  0
 10  9  1  0  0  0  0
 11 10  2  0  0  0  0
 11 12  1  0  0  0  0
 12 13  2  0  0  0  0
 13  8  1  0  0  0  0
 15 10  1  0  0  0  0
 16 12  1  0  0  0  0
 16 17  1  0  0  0  0
 16 19  1  0  0  0  0
 18 16  1  0  0  0  0
 20  3  1  0  0  0  0
 20 21  1  0  0  0  0
 22 21  1  0  0  0  0
 23 22  1  0  0  0  0
 24 25  1  0  0  0  0
 24 23  1  0  0  0  0
 25 20  1  0  0  0  0
M  END
>  <minimizedAffinity>
-5.33843136

$$$$

 OpenBabel03252505403D

 25 27  0  0  1  0  0  0  0  0999 V2000
   38.1900   27.8420   41.7300 C   0  0  1  0  0  0  0  0  0  0  0  0
   36.7420   27.5620   42.1840 C   0  0  0  0  0  0  0  0  0  0  0  0
   37.2510   27.1840   40.8210 C   0  0  2  0  0  0  0  0  0  0  0  0
   38.9710   27.2660   42.2620 H   0  0  0  0  0  0  0  0  0  0  0  0
   36.0710   28.4210   42.3300 H   0  0  0  0  0  0  0  0  0  0  0  0
   36.6540   26.7240   42.8830 H   0  0  0  0  0  0  0  0  0  0  0  0
   36.8310   27.8630   40.0230 H   0  0  0  0  0  0  0  0  0  0  0  0
   38.5090   29.2920   41.6050 C   0  0  0  0  0  0  0  0  0  0  0  0
   39.4390   29.8710   42.5070 C   0  0  0  0  0  0  0  0  0  0  0  0
   39.7320   31.2190   42.3630 C   0  0  0  0  0  0  0  0  0  0  0  0
   39.1150   31.9070   41.3720 N   0  0  0  0  0  0  0  0  0  0  0  0
   38.2320   31.3200   40.5290 C   0  0  0  0  0  0  0  0  0  0  0  0
   37.9320   30.0020   40.6530 N   0  0  0  0  0  0  0  0  0  0  0  0
   39.8860   29.2500   43.2700 H   0  0  0  0  0  0  0  0  0  0  0  0
   40.4320   31.6710   43.0390 H   0  0  0  0  0  0  0  0  0  0  0  0
   37.6730   32.2590   39.5010 C   0  0  0  0  0  0  0  0  0  0  0  0
   37.2050   33.4180   40.0740 F   0  0  0  0  0  0  0  0  0  0  0  0
   36.6120   31.6440   38.8300 F   0  0  0  0  0  0  0  0  0  0  0  0
   38.6440   32.4990   38.5380 F   0  0  0  0  0  0  0  0  0  0  0  0
   37.4120   25.7560   40.4100 C   0  0  0  0  0  3  0  0  0  0  0  0
   36.4090   25.4550   39.3260 C   0  0  0  0  0  2  0  0  0  0  0  0
   35.8030   24.0790   39.4210 C   0  0  0  0  0  2  0  0  0  0  0  0
   36.7780   23.0330   39.8730 C   0  0  0  0  0  2  0  0  0  0  0  0
   37.5180   23.4300   41.1290 C   0  0  0  0  0  2  0  0  0  0  0  0
   37.1580   24.8390   41.5660 C   0  0  0  0  0  2  0  0  0  0  0  0
  1  2  1  0  0  0  0
  1  4  1  1  0  0  0
  2  5  1  0  0  0  0
  2  6  1  0  0  0  0
  3  7  1  6  0  0  0
  3  1  1  0  0  0  0
  3  2  1  0  0  0  0
  8  1  1  0  0  0  0
  8  9  1  0  0  0  0
  9 14  1  0  0  0  0
 10  9  2  0  0  0  0
 10 15  1  0  0  0  0
 11 10  1  0  0  0  0
 12 13  1  0  0  0  0
 12 11  2  0  0  0  0
 13  8  2  0  0  0  0
 16 17  1  0  0  0  0
 16 12  1  0  0  0  0
 18 16  1  0  0  0  0
 19 16  1  0  0  0  0
 20  3  1  0  0  0  0
 20 25  1  0  0  0  0
 21 22  1  0  0  0  0
 21 20  1  0  0  0  0
 22 23  1  0  0  0  0
 23 24  1  0  0  0  0
 24 25  1  0  0  0  0
M  END
>  <minimizedAffinity>
-4.98334694

$$$$

 OpenBabel03252505403D

 25 27  0  0  1  0  0  0  0  0999 V2000
   35.7360   28.6090   38.8410 C   0  0  1  0  0  0  0  0  0  0  0  0
   36.5750   29.8660   39.1560 C   0  0  0  0  0  0  0  0  0  0  0  0
   35.6250   29.2560   40.1480 C   0  0  2  0  0  0  0  0  0  0  0  0
   36.3160   27.6760   38.7100 H   0  0  0  0  0  0  0  0  0  0  0  0
   36.3310   30.7960   38.6240 H   0  0  0  0  0  0  0  0  0  0  0  0
   37.6310   29.6530   39.3500 H   0  0  0  0  0  0  0  0  0  0  0  0
   34.6980   29.8870   40.2720 H   0  0  0  0  0  0  0  0  0  0  0  0
   34.7140   28.8210   37.7770 C   0  0  0  0  0  0  0  0  0  0  0  0
   35.0850   28.6260   36.4210 C   0  0  0  0  0  0  0  0  0  0  0  0
   34.1130   28.8170   35.4480 C   0  0  0  0  0  0  0  0  0  0  0  0
   32.8690   29.1760   35.8460 N   0  0  0  0  0  0  0  0  0  0  0  0
   32.5530   29.3540   37.1510 C   0  0  0  0  0  0  0  0  0  0  0  0
   33.4880   29.1730   38.1180 N   0  0  0  0  0  0  0  0  0  0  0  0
   36.1000   28.3390   36.1900 H   0  0  0  0  0  0  0  0  0  0  0  0
   34.3790   28.6730   34.4190 H   0  0  0  0  0  0  0  0  0  0  0  0
   31.1210   29.7430   37.3720 C   0  0  0  0  0  0  0  0  0  0  0  0
   30.2560   28.8320   36.8110 F   0  0  0  0  0  0  0  0  0  0  0  0
   30.8780   30.9900   36.7910 F   0  0  0  0  0  0  0  0  0  0  0  0
   30.9060   29.9070   38.7340 F   0  0  0  0  0  0  0  0  0  0  0  0
   36.1100   28.6010   41.4010 C   0  0  0  0  0  3  0  0  0  0  0  0
   37.0560   29.5450   42.0980 C   0  0  0  0  0  2  0  0  0  0  0  0
   38.2340   28.8610   42.7440 C   0  0  0  0  0  2  0  0  0  0  0  0
   37.8860   27.5370   43.3560 C   0  0  0  0  0  2  0  0  0  0  0  0
   37.1400   26.6330   42.4030 C   0  0  0  0  0  2  0  0  0  0  0  0
   36.8410   27.3330   41.0890 C   0  0  0  0  0  2  0  0  0  0  0  0
  1  4  1  6  0  0  0
  1  2  1  0  0  0  0
  1  3  1  0  0  0  0
  2  6  1  0  0  0  0
  2  3  1  0  0  0  0
  3  7  1  1  0  0  0
  3 20  1  0  0  0  0
  5  2  1  0  0  0  0
  8 13  1  0  0  0  0
  8  1  1  0  0  0  0
  9  8  2  0  0  0  0
 10 11  2  0  0  0  0
 10  9  1  0  0  0  0
 11 12  1  0  0  0  0
 12 16  1  0  0  0  0
 12 13  2  0  0  0  0
 14  9  1  0  0  0  0
 15 10  1  0  0  0  0
 16 19  1  0  0  0  0
 17 16  1  0  0  0  0
 18 16  1  0  0  0  0
 20 21  1  0  0  0  0
 21 22  1  0  0  0  0
 22 23  1  0  0  0  0
 24 23  1  0  0  0  0
 25 20  1  0  0  0  0
 25 24  1  0  0  0  0
M  END
>  <minimizedAffinity>
-4.96901846

$$$$

 OpenBabel03252505403D

 25 27  0  0  1  0  0  0  0  0999 V2000
   37.7390   29.7040   38.7310 C   0  0  1  0  0  0  0  0  0  0  0  0
   36.5650   30.3930   38.0030 C   0  0  0  0  0  0  0  0  0  0  0  0
   37.1860   30.9540   39.2520 C   0  0  2  0  0  0  0  0  0  0  0  0
   38.6950   29.6890   38.1730 H   0  0  0  0  0  0  0  0  0  0  0  0
   35.5840   29.8970   38.0210 H   0  0  0  0  0  0  0  0  0  0  0  0
   36.8580   30.9060   37.0820 H   0  0  0  0  0  0  0  0  0  0  0  0
   36.5080   30.8210   40.1440 H   0  0  0  0  0  0  0  0  0  0  0  0
   37.3830   28.3860   39.3280 C   0  0  0  0  0  0  0  0  0  0  0  0
   37.0850   27.2990   38.4650 C   0  0  0  0  0  0  0  0  0  0  0  0
   36.7700   26.0780   39.0430 C   0  0  0  0  0  0  0  0  0  0  0  0
   36.7650   25.9900   40.3950 N   0  0  0  0  0  0  0  0  0  0  0  0
   37.0560   27.0510   41.1870 C   0  0  0  0  0  0  0  0  0  0  0  0
   37.3660   28.2540   40.6410 N   0  0  0  0  0  0  0  0  0  0  0  0
   37.1120   27.4550   37.3970 H   0  0  0  0  0  0  0  0  0  0  0  0
   36.5410   25.2480   38.4030 H   0  0  0  0  0  0  0  0  0  0  0  0
   37.0010   26.7350   42.6520 C   0  0  0  0  0  0  0  0  0  0  0  0
   38.2280   26.8980   43.2530 F   0  0  0  0  0  0  0  0  0  0  0  0
   36.5990   25.4090   42.8330 F   0  0  0  0  0  0  0  0  0  0  0  0
   36.0150   27.5160   43.2420 F   0  0  0  0  0  0  0  0  0  0  0  0
   37.9610   32.2320   39.2380 C   0  0  0  0  0  3  0  0  0  0  0  0
   39.2990   31.9720   38.5950 C   0  0  0  0  0  2  0  0  0  0  0  0
   40.4400   32.7180   39.2380 C   0  0  0  0  0  2  0  0  0  0  0  0
   40.0650   34.0960   39.6910 C   0  0  0  0  0  2  0  0  0  0  0  0
   38.8110   34.1120   40.5350 C   0  0  0  0  0  2  0  0  0  0  0  0
   38.1880   32.7300   40.6310 C   0  0  0  0  0  2  0  0  0  0  0  0
  1  4  1  6  0  0  0
  1  3  1  0  0  0  0
  1  8  1  0  0  0  0
  2  5  1  0  0  0  0
  2  1  1  0  0  0  0
  2  3  1  0  0  0  0
  3  7  1  1  0  0  0
  6  2  1  0  0  0  0
  8 13  1  0  0  0  0
  9 10  1  0  0  0  0
  9  8  2  0  0  0  0
 10 11  2  0  0  0  0
 11 12  1  0  0  0  0
 12 16  1  0  0  0  0
 13 12  2  0  0  0  0
 14  9  1  0  0  0  0
 15 10  1  0  0  0  0
 16 18  1  0  0  0  0
 16 19  1  0  0  0  0
 16 17  1  0  0  0  0
 20  3  1  0  0  0  0
 20 25  1  0  0  0  0
 21 22  1  0  0  0  0
 21 20  1  0  0  0  0
 22 23  1  0  0  0  0
 23 24  1  0  0  0  0
 24 25  1  0  0  0  0
M  END
>  <minimizedAffinity>
-4.94176579

$$$$

 OpenBabel03252505403D

 25 27  0  0  1  0  0  0  0  0999 V2000
   36.2090   28.0930   40.1130 C   0  0  1  0  0  0  0  0  0  0  0  0
   35.0940   29.0570   40.5680 C   0  0  0  0  0  0  0  0  0  0  0  0
   36.1450   29.4490   39.5670 C   0  0  2  0  0  0  0  0  0  0  0  0
   35.8660   27.2210   39.5230 H   0  0  0  0  0  0  0  0  0  0  0  0
   35.1210   29.4260   41.6030 H   0  0  0  0  0  0  0  0  0  0  0  0
   34.1150   28.8350   40.1330 H   0  0  0  0  0  0  0  0  0  0  0  0
   36.8950   30.1610   40.0160 H   0  0  0  0  0  0  0  0  0  0  0  0
   37.1690   27.7330   41.1930 C   0  0  0  0  0  0  0  0  0  0  0  0
   37.5980   28.7410   42.0950 C   0  0  0  0  0  0  0  0  0  0  0  0
   38.4820   28.3800   43.1020 C   0  0  0  0  0  0  0  0  0  0  0  0
   38.8850   27.0880   43.1690 N   0  0  0  0  0  0  0  0  0  0  0  0
   38.4540   26.1520   42.2890 C   0  0  0  0  0  0  0  0  0  0  0  0
   37.5900   26.4850   41.2970 N   0  0  0  0  0  0  0  0  0  0  0  0
   37.2270   29.7480   41.9720 H   0  0  0  0  0  0  0  0  0  0  0  0
   38.8150   29.1320   43.7910 H   0  0  0  0  0  0  0  0  0  0  0  0
   39.0160   24.7860   42.5460 C   0  0  0  0  0  0  0  0  0  0  0  0
   38.0210   23.8600   42.7600 F   0  0  0  0  0  0  0  0  0  0  0  0
   39.8330   24.8190   43.6800 F   0  0  0  0  0  0  0  0  0  0  0  0
   39.8460   24.4360   41.4890 F   0  0  0  0  0  0  0  0  0  0  0  0
   35.8060   29.7130   38.1350 C   0  0  0  0  0  3  0  0  0  0  0  0
   34.5780   28.9150   37.7790 C   0  0  0  0  0  2  0  0  0  0  0  0
   34.6090   28.3370   36.3880 C   0  0  0  0  0  2  0  0  0  0  0  0
   35.2460   29.2480   35.3830 C   0  0  0  0  0  2  0  0  0  0  0  0
   36.5960   29.7570   35.8300 C   0  0  0  0  0  2  0  0  0  0  0  0
   36.9280   29.2920   37.2380 C   0  0  0  0  0  2  0  0  0  0  0  0
  1  4  1  6  0  0  0
  1  2  1  0  0  0  0
  1  8  1  0  0  0  0
  2  5  1  0  0  0  0
  3  7  1  1  0  0  0
  3  1  1  0  0  0  0
  3  2  1  0  0  0  0
  6  2  1  0  0  0  0
  8 13  2  0  0  0  0
  8  9  1  0  0  0  0
  9 10  2  0  0  0  0
 10 11  1  0  0  0  0
 10 15  1  0  0  0  0
 12 16  1  0  0  0  0
 12 11  2  0  0  0  0
 13 12  1  0  0  0  0
 14  9  1  0  0  0  0
 16 17  1  0  0  0  0
 16 18  1  0  0  0  0
 19 16  1  0  0  0  0
 20  3  1  0  0  0  0
 21 20  1  0  0  0  0
 22 21  1  0  0  0  0
 23 24  1  0  0  0  0
 23 22  1  0  0  0  0
 24 25  1  0  0  0  0
 25 20  1  0  0  0  0
M  END
>  <minimizedAffinity>
-4.92556

$$$$

 OpenBabel03252505403D

 25 27  0  0  1  0  0  0  0  0999 V2000
   36.9640   28.6330   40.4350 C   0  0  1  0  0  0  0  0  0  0  0  0
   35.4870   29.0080   40.6800 C   0  0  0  0  0  0  0  0  0  0  0  0
   36.6280   29.7660   41.2980 C   0  0  2  0  0  0  0  0  0  0  0  0
   37.3230   28.7880   39.4000 H   0  0  0  0  0  0  0  0  0  0  0  0
   34.8700   28.3150   41.2710 H   0  0  0  0  0  0  0  0  0  0  0  0
   35.0130   29.5120   39.8320 H   0  0  0  0  0  0  0  0  0  0  0  0
   36.7180   29.5470   42.4010 H   0  0  0  0  0  0  0  0  0  0  0  0
   37.3500   27.3100   41.0020 C   0  0  0  0  0  0  0  0  0  0  0  0
   38.1760   27.2720   42.1550 C   0  0  0  0  0  0  0  0  0  0  0  0
   38.5110   26.0290   42.6730 C   0  0  0  0  0  0  0  0  0  0  0  0
   38.0320   24.9240   42.0510 N   0  0  0  0  0  0  0  0  0  0  0  0
   37.2460   25.0010   40.9500 C   0  0  0  0  0  0  0  0  0  0  0  0
   36.9060   26.2070   40.4280 N   0  0  0  0  0  0  0  0  0  0  0  0
   38.5140   28.2010   42.5900 H   0  0  0  0  0  0  0  0  0  0  0  0
   39.1350   25.9840   43.5440 H   0  0  0  0  0  0  0  0  0  0  0  0
   36.8200   23.6620   40.4260 C   0  0  0  0  0  0  0  0  0  0  0  0
   37.5520   22.6410   40.9870 F   0  0  0  0  0  0  0  0  0  0  0  0
   37.0030   23.6190   39.0410 F   0  0  0  0  0  0  0  0  0  0  0  0
   35.4550   23.5110   40.6350 F   0  0  0  0  0  0  0  0  0  0  0  0
   36.9340   31.1770   40.9100 C   0  0  0  0  0  3  0  0  0  0  0  0
   36.5530   31.3690   39.4650 C   0  0  0  0  0  2  0  0  0  0  0  0
   37.5050   32.2470   38.6950 C   0  0  0  0  0  2  0  0  0  0  0  0
   38.0400   33.3910   39.5030 C   0  0  0  0  0  2  0  0  0  0  0  0
   38.6030   32.9510   40.8340 C   0  0  0  0  0  2  0  0  0  0  0  0
   38.3950   31.4640   41.0630 C   0  0  0  0  0  2  0  0  0  0  0  0
  1  4  1  6  0  0  0
  1  2  1  0  0  0  0
  1  8  1  0  0  0  0
  1  3  1  0  0  0  0
  2  5  1  0  0  0  0
  2  3  1  0  0  0  0
  3  7  1  1  0  0  0
  6  2  1  0  0  0  0
  8  9  1  0  0  0  0
  9 14  1  0  0  0  0
  9 10  2  0  0  0  0
 10 15  1  0  0  0  0
 11 10  1  0  0  0  0
 12 11  2  0  0  0  0
 13 12  1  0  0  0  0
 13  8  2  0  0  0  0
 16 19  1  0  0  0  0
 16 12  1  0  0  0  0
 16 17  1  0  0  0  0
 18 16  1  0  0  0  0
 20 25  1  0  0  0  0
 20  3  1  0  0  0  0
 21 20  1  0  0  0  0
 22 21  1  0  0  0  0
 22 23  1  0  0  0  0
 23 24  1  0  0  0  0
 24 25  1  0  0  0  0
M  END
>  <minimizedAffinity>
-4.91474962

$$$$

 OpenBabel03252505403D

 25 27  0  0  1  0  0  0  0  0999 V2000
   37.8240   25.4690   41.5710 C   0  0  1  0  0  0  0  0  0  0  0  0
   36.7900   24.5540   42.2600 C   0  0  0  0  0  0  0  0  0  0  0  0
   36.8470   24.7320   40.7680 C   0  0  2  0  0  0  0  0  0  0  0  0
   38.8760   25.1310   41.6460 H   0  0  0  0  0  0  0  0  0  0  0  0
   36.0040   25.0280   42.8650 H   0  0  0  0  0  0  0  0  0  0  0  0
   37.2080   23.6090   42.6200 H   0  0  0  0  0  0  0  0  0  0  0  0
   35.9890   25.3620   40.3960 H   0  0  0  0  0  0  0  0  0  0  0  0
   37.6460   26.9150   41.8800 C   0  0  0  0  0  0  0  0  0  0  0  0
   38.3200   27.4660   43.0010 C   0  0  0  0  0  0  0  0  0  0  0  0
   38.1500   28.8180   43.2610 C   0  0  0  0  0  0  0  0  0  0  0  0
   37.3530   29.5360   42.4330 N   0  0  0  0  0  0  0  0  0  0  0  0
   36.7260   28.9750   41.3720 C   0  0  0  0  0  0  0  0  0  0  0  0
   36.8780   27.6540   41.1000 N   0  0  0  0  0  0  0  0  0  0  0  0
   38.9370   26.8230   43.6100 H   0  0  0  0  0  0  0  0  0  0  0  0
   38.6530   29.2480   44.1060 H   0  0  0  0  0  0  0  0  0  0  0  0
   35.9000   29.9480   40.5830 C   0  0  0  0  0  0  0  0  0  0  0  0
   34.6320   29.4670   40.3520 F   0  0  0  0  0  0  0  0  0  0  0  0
   36.5080   30.1880   39.3480 F   0  0  0  0  0  0  0  0  0  0  0  0
   35.8900   31.1680   41.2470 F   0  0  0  0  0  0  0  0  0  0  0  0
   37.2480   23.6150   39.8590 C   0  0  0  0  0  3  0  0  0  0  0  0
   38.7160   23.3400   40.0570 C   0  0  0  0  0  2  0  0  0  0  0  0
   39.4500   23.0020   38.7850 C   0  0  0  0  0  2  0  0  0  0  0  0
   38.6380   22.1710   37.8370 C   0  0  0  0  0  2  0  0  0  0  0  0
   37.2680   22.7530   37.5800 C   0  0  0  0  0  2  0  0  0  0  0  0
   37.0190   23.9880   38.4280 C   0  0  0  0  0  2  0  0  0  0  0  0
  1  4  1  6  0  0  0
  1  8  1  0  0  0  0
  1  2  1  0  0  0  0
  2  6  1  0  0  0  0
  2  5  1  0  0  0  0
  3  7  1  6  0  0  0
  3  1  1  0  0  0  0
  3  2  1  0  0  0  0
  8  9  1  0  0  0  0
  9 10  2  0  0  0  0
  9 14  1  0  0  0  0
 10 15  1  0  0  0  0
 11 10  1  0  0  0  0
 12 11  2  0  0  0  0
 13 12  1  0  0  0  0
 13  8  2  0  0  0  0
 16 19  1  0  0  0  0
 16 12  1  0  0  0  0
 17 16  1  0  0  0  0
 18 16  1  0  0  0  0
 20 21  1  0  0  0  0
 20  3  1  0  0  0  0
 22 21  1  0  0  0  0
 23 22  1  0  0  0  0
 24 23  1  0  0  0  0
 24 25  1  0  0  0  0
 25 20  1  0  0  0  0
M  END
>  <minimizedAffinity>
-4.84953403

$$$$

 OpenBabel03252505403D

 25 27  0  0  1  0  0  0  0  0999 V2000
   36.5900   29.4730   39.3890 C   0  0  1  0  0  0  0  0  0  0  0  0
   36.5480   30.9230   39.9160 C   0  0  0  0  0  0  0  0  0  0  0  0
   36.0620   29.7530   40.7250 C   0  0  2  0  0  0  0  0  0  0  0  0
   37.6040   29.0510   39.2510 H   0  0  0  0  0  0  0  0  0  0  0  0
   35.8470   31.6240   39.4410 H   0  0  0  0  0  0  0  0  0  0  0  0
   37.5260   31.3100   40.2200 H   0  0  0  0  0  0  0  0  0  0  0  0
   34.9360   29.7360   40.7870 H   0  0  0  0  0  0  0  0  0  0  0  0
   35.6870   29.2290   38.2300 C   0  0  0  0  0  0  0  0  0  0  0  0
   34.3230   28.9240   38.4740 C   0  0  0  0  0  0  0  0  0  0  0  0
   33.4980   28.7140   37.3790 C   0  0  0  0  0  0  0  0  0  0  0  0
   34.0380   28.8120   36.1400 N   0  0  0  0  0  0  0  0  0  0  0  0
   35.3470   29.1040   35.9460 C   0  0  0  0  0  0  0  0  0  0  0  0
   36.1710   29.3130   37.0040 N   0  0  0  0  0  0  0  0  0  0  0  0
   33.9730   28.8660   39.4940 H   0  0  0  0  0  0  0  0  0  0  0  0
   32.4640   28.4820   37.5480 H   0  0  0  0  0  0  0  0  0  0  0  0
   35.7360   29.1710   34.4990 C   0  0  0  0  0  0  0  0  0  0  0  0
   37.0980   29.0670   34.3340 F   0  0  0  0  0  0  0  0  0  0  0  0
   35.3220   30.3910   33.9560 F   0  0  0  0  0  0  0  0  0  0  0  0
   35.0420   28.1900   33.8030 F   0  0  0  0  0  0  0  0  0  0  0  0
   36.7670   29.3100   41.9660 C   0  0  0  0  0  3  0  0  0  0  0  0
   38.2500   29.4820   41.7610 C   0  0  0  0  0  2  0  0  0  0  0  0
   39.0810   28.3820   42.3700 C   0  0  0  0  0  2  0  0  0  0  0  0
   38.5420   27.8880   43.6790 C   0  0  0  0  0  2  0  0  0  0  0  0
   37.0750   27.5370   43.6100 C   0  0  0  0  0  2  0  0  0  0  0  0
   36.4860   27.8670   42.2490 C   0  0  0  0  0  2  0  0  0  0  0  0
  1  4  1  6  0  0  0
  1  2  1  0  0  0  0
  1  3  1  0  0  0  0
  2  6  1  0  0  0  0
  2  3  1  0  0  0  0
  3  7  1  1  0  0  0
  3 20  1  0  0  0  0
  5  2  1  0  0  0  0
  8  9  1  0  0  0  0
  8  1  1  0  0  0  0
  9 14  1  0  0  0  0
 10 15  1  0  0  0  0
 10  9  2  0  0  0  0
 11 10  1  0  0  0  0
 12 11  2  0  0  0  0
 12 13  1  0  0  0  0
 13  8  2  0  0  0  0
 16 12  1  0  0  0  0
 17 16  1  0  0  0  0
 18 16  1  0  0  0  0
 19 16  1  0  0  0  0
 20 25  1  0  0  0  0
 21 20  1  0  0  0  0
 21 22  1  0  0  0  0
 22 23  1  0  0  0  0
 24 23  1  0  0  0  0
 25 24  1  0  0  0  0
M  END
>  <minimizedAffinity>
-4.84678459

$$$$
