
 OpenBabel03252500473D

 23 25  0  0  0  0  0  0  0  0999 V2000
   38.8700   27.9310   40.4530 C   0  0  0  0  0  0  0  0  0  0  0  0
   38.2750   27.4260   41.6280 C   0  0  0  0  0  0  0  0  0  0  0  0
   37.6310   28.3190   42.4750 C   0  0  0  0  0  0  0  0  0  0  0  0
   37.6050   29.6460   42.1340 N   0  0  0  0  0  0  0  0  0  0  0  0
   38.1890   30.0820   40.9980 C   0  0  0  0  0  0  0  0  0  0  0  0
   38.8200   29.2560   40.1520 N   0  0  0  0  0  0  0  0  0  0  0  0
   39.3810   27.2750   39.7640 H   0  0  0  0  0  0  0  0  0  0  0  0
   37.1660   27.9920   43.3750 H   0  0  0  0  0  0  0  0  0  0  0  0
   38.1450   31.5020   40.6590 C   0  0  0  0  0  0  0  0  0  0  0  0
   37.1850   32.0210   39.8340 C   0  0  0  0  0  0  0  0  0  0  0  0
   37.1010   33.3480   39.4860 C   0  0  0  0  0  0  0  0  0  0  0  0
   38.0480   34.1610   40.0140 N   0  0  0  0  0  0  0  0  0  0  0  0
   39.0000   33.6590   40.8280 C   0  0  0  0  0  0  0  0  0  0  0  0
   39.0910   32.3460   41.1800 N   0  0  0  0  0  0  0  0  0  0  0  0
   36.4660   31.3000   39.4570 H   0  0  0  0  0  0  0  0  0  0  0  0
   36.3210   33.7030   38.8290 H   0  0  0  0  0  0  0  0  0  0  0  0
   39.7330   34.3580   41.2220 H   0  0  0  0  0  0  0  0  0  0  0  0
   38.3410   25.9610   41.9420 C   0  0  0  0  0  3  0  0  0  0  0  0
   36.9950   25.3820   42.1430 C   0  0  0  0  0  2  0  0  0  0  0  0
   36.6380   24.4790   41.0090 C   0  0  0  0  0  2  0  0  0  0  0  0
   37.6530   23.3300   41.1090 C   0  0  0  0  0  2  0  0  0  0  0  0
   39.0220   23.8340   40.7460 C   0  0  0  0  0  2  0  0  0  0  0  0
   39.2280   25.2920   40.9470 C   0  0  0  0  0  2  0  0  0  0  0  0
  1  2  1  0  0  0  0
  2 18  1  0  0  0  0
  2  3  2  0  0  0  0
  3  8  1  0  0  0  0
  4  3  1  0  0  0  0
  5  4  2  0  0  0  0
  6  1  2  0  0  0  0
  6  5  1  0  0  0  0
  7  1  1  0  0  0  0
  9  5  1  0  0  0  0
  9 14  1  0  0  0  0
 10  9  2  0  0  0  0
 11 10  1  0  0  0  0
 11 12  2  0  0  0  0
 12 13  1  0  0  0  0
 13 14  2  0  0  0  0
 13 17  1  0  0  0  0
 15 10  1  0  0  0  0
 16 11  1  0  0  0  0
 18 19  1  0  0  0  0
 20 21  1  0  0  0  0
 20 19  1  0  0  0  0
 22 23  1  0  0  0  0
 22 21  1  0  0  0  0
 23 18  1  0  0  0  0
M  END
>  <minimizedAffinity>
-4.97641182

$$$$

 OpenBabel03252500473D

 23 25  0  0  0  0  0  0  0  0999 V2000
   38.4500   27.8790   40.2630 C   0  0  0  0  0  0  0  0  0  0  0  0
   38.3090   27.4310   41.5930 C   0  0  0  0  0  0  0  0  0  0  0  0
   38.1080   28.3790   42.5880 C   0  0  0  0  0  0  0  0  0  0  0  0
   38.0570   29.7030   42.2350 N   0  0  0  0  0  0  0  0  0  0  0  0
   38.1980   30.0820   40.9480 C   0  0  0  0  0  0  0  0  0  0  0  0
   38.3930   29.2020   39.9560 N   0  0  0  0  0  0  0  0  0  0  0  0
   38.6070   27.1800   39.4560 H   0  0  0  0  0  0  0  0  0  0  0  0
   37.9950   28.0970   43.6090 H   0  0  0  0  0  0  0  0  0  0  0  0
   38.1390   31.5000   40.6000 C   0  0  0  0  0  0  0  0  0  0  0  0
   39.0440   32.4030   41.0860 C   0  0  0  0  0  0  0  0  0  0  0  0
   39.0310   33.7460   40.7880 C   0  0  0  0  0  0  0  0  0  0  0  0
   38.0440   34.1590   39.9570 N   0  0  0  0  0  0  0  0  0  0  0  0
   37.1460   33.2760   39.4730 C   0  0  0  0  0  0  0  0  0  0  0  0
   37.1510   31.9440   39.7620 N   0  0  0  0  0  0  0  0  0  0  0  0
   39.8010   31.9870   41.7430 H   0  0  0  0  0  0  0  0  0  0  0  0
   39.7710   34.4150   41.2010 H   0  0  0  0  0  0  0  0  0  0  0  0
   36.3760   33.6650   38.8110 H   0  0  0  0  0  0  0  0  0  0  0  0
   38.3740   25.9670   41.9110 C   0  0  0  0  0  3  0  0  0  0  0  0
   37.0300   25.3940   42.1380 C   0  0  0  0  0  2  0  0  0  0  0  0
   36.6490   24.4880   41.0130 C   0  0  0  0  0  2  0  0  0  0  0  0
   37.6620   23.3360   41.0990 C   0  0  0  0  0  2  0  0  0  0  0  0
   39.0270   23.8330   40.7110 C   0  0  0  0  0  2  0  0  0  0  0  0
   39.2420   25.2910   40.9040 C   0  0  0  0  0  2  0  0  0  0  0  0
  1  2  1  0  0  0  0
  2 18  1  0  0  0  0
  2  3  2  0  0  0  0
  3  8  1  0  0  0  0
  4  3  1  0  0  0  0
  5  4  2  0  0  0  0
  6  1  2  0  0  0  0
  6  5  1  0  0  0  0
  7  1  1  0  0  0  0
  9  5  1  0  0  0  0
  9 10  1  0  0  0  0
 10 15  1  0  0  0  0
 11 10  2  0  0  0  0
 11 16  1  0  0  0  0
 12 11  1  0  0  0  0
 13 14  1  0  0  0  0
 13 12  2  0  0  0  0
 14  9  2  0  0  0  0
 17 13  1  0  0  0  0
 18 19  1  0  0  0  0
 20 21  1  0  0  0  0
 20 19  1  0  0  0  0
 22 23  1  0  0  0  0
 22 21  1  0  0  0  0
 23 18  1  0  0  0  0
M  END
>  <minimizedAffinity>
-4.87140846

$$$$

 OpenBabel03252500473D

 23 25  0  0  0  0  0  0  0  0999 V2000
   36.4960   27.1040   39.8440 C   0  0  0  0  0  0  0  0  0  0  0  0
   36.3430   27.9170   40.9860 C   0  0  0  0  0  0  0  0  0  0  0  0
   35.5310   29.0390   40.8910 C   0  0  0  0  0  0  0  0  0  0  0  0
   34.9170   29.3070   39.6950 N   0  0  0  0  0  0  0  0  0  0  0  0
   35.0930   28.4980   38.6290 C   0  0  0  0  0  0  0  0  0  0  0  0
   35.8670   27.4050   38.6770 N   0  0  0  0  0  0  0  0  0  0  0  0
   37.1170   26.2210   39.8700 H   0  0  0  0  0  0  0  0  0  0  0  0
   35.3810   29.6880   41.7220 H   0  0  0  0  0  0  0  0  0  0  0  0
   34.4260   28.8070   37.3670 C   0  0  0  0  0  0  0  0  0  0  0  0
   33.0790   29.0340   37.2960 C   0  0  0  0  0  0  0  0  0  0  0  0
   32.4050   29.3280   36.1340 C   0  0  0  0  0  0  0  0  0  0  0  0
   33.1600   29.3870   35.0100 N   0  0  0  0  0  0  0  0  0  0  0  0
   34.4900   29.1640   35.0690 C   0  0  0  0  0  0  0  0  0  0  0  0
   35.1660   28.8730   36.2160 N   0  0  0  0  0  0  0  0  0  0  0  0
   32.5520   28.9680   38.2420 H   0  0  0  0  0  0  0  0  0  0  0  0
   31.3390   29.4980   36.1360 H   0  0  0  0  0  0  0  0  0  0  0  0
   35.0440   29.2240   34.1350 H   0  0  0  0  0  0  0  0  0  0  0  0
   37.0450   27.5670   42.2650 C   0  0  0  0  0  3  0  0  0  0  0  0
   37.2130   26.1050   42.4160 C   0  0  0  0  0  2  0  0  0  0  0  0
   38.6490   25.7240   42.2610 C   0  0  0  0  0  2  0  0  0  0  0  0
   39.3460   26.3940   43.4560 C   0  0  0  0  0  2  0  0  0  0  0  0
   39.3500   27.8850   43.2670 C   0  0  0  0  0  2  0  0  0  0  0  0
   38.2680   28.4100   42.3930 C   0  0  0  0  0  2  0  0  0  0  0  0
  1  7  1  0  0  0  0
  1  2  1  0  0  0  0
  2 18  1  0  0  0  0
  3  2  2  0  0  0  0
  3  8  1  0  0  0  0
  4  3  1  0  0  0  0
  5  6  1  0  0  0  0
  5  4  2  0  0  0  0
  6  1  2  0  0  0  0
  9  5  1  0  0  0  0
 10  9  1  0  0  0  0
 10 15  1  0  0  0  0
 11 16  1  0  0  0  0
 11 10  2  0  0  0  0
 12 13  2  0  0  0  0
 12 11  1  0  0  0  0
 13 14  1  0  0  0  0
 14  9  2  0  0  0  0
 17 13  1  0  0  0  0
 18 23  1  0  0  0  0
 18 19  1  0  0  0  0
 20 19  1  0  0  0  0
 20 21  1  0  0  0  0
 22 21  1  0  0  0  0
 23 22  1  0  0  0  0
M  END
>  <minimizedAffinity>
-4.77558851

$$$$

 OpenBabel03252500473D

 23 25  0  0  0  0  0  0  0  0999 V2000
   39.3960   28.1810   40.9580 C   0  0  0  0  0  0  0  0  0  0  0  0
   38.8180   28.1120   42.2430 C   0  0  0  0  0  0  0  0  0  0  0  0
   38.6160   29.2980   42.9380 C   0  0  0  0  0  0  0  0  0  0  0  0
   38.9870   30.4770   42.3470 N   0  0  0  0  0  0  0  0  0  0  0  0
   39.5370   30.4930   41.1150 C   0  0  0  0  0  0  0  0  0  0  0  0
   39.7490   29.3740   40.4090 N   0  0  0  0  0  0  0  0  0  0  0  0
   39.5720   27.2870   40.3800 H   0  0  0  0  0  0  0  0  0  0  0  0
   38.1840   29.3030   43.9110 H   0  0  0  0  0  0  0  0  0  0  0  0
   39.9230   31.7650   40.5090 C   0  0  0  0  0  0  0  0  0  0  0  0
   39.2280   32.9190   40.7440 C   0  0  0  0  0  0  0  0  0  0  0  0
   39.5510   34.1390   40.1980 C   0  0  0  0  0  0  0  0  0  0  0  0
   40.6340   34.1570   39.3830 N   0  0  0  0  0  0  0  0  0  0  0  0
   41.3260   33.0230   39.1450 C   0  0  0  0  0  0  0  0  0  0  0  0
   41.0140   31.8100   39.6810 N   0  0  0  0  0  0  0  0  0  0  0  0
   38.3770   32.8160   41.4080 H   0  0  0  0  0  0  0  0  0  0  0  0
   38.9660   35.0200   40.4180 H   0  0  0  0  0  0  0  0  0  0  0  0
   42.1850   33.0970   38.4820 H   0  0  0  0  0  0  0  0  0  0  0  0
   38.4340   26.7870   42.8310 C   0  0  0  0  0  3  0  0  0  0  0  0
   37.0780   26.3710   42.4100 C   0  0  0  0  0  2  0  0  0  0  0  0
   37.1530   25.2180   41.4640 C   0  0  0  0  0  2  0  0  0  0  0  0
   37.7430   24.0780   42.3080 C   0  0  0  0  0  2  0  0  0  0  0  0
   39.1830   24.3750   42.6220 C   0  0  0  0  0  2  0  0  0  0  0  0
   39.5440   25.8170   42.6050 C   0  0  0  0  0  2  0  0  0  0  0  0
  1  2  1  0  0  0  0
  2 18  1  0  0  0  0
  2  3  2  0  0  0  0
  3  8  1  0  0  0  0
  4  3  1  0  0  0  0
  5  4  2  0  0  0  0
  6  1  2  0  0  0  0
  6  5  1  0  0  0  0
  7  1  1  0  0  0  0
  9 10  1  0  0  0  0
  9  5  1  0  0  0  0
 10 15  1  0  0  0  0
 11 16  1  0  0  0  0
 11 10  2  0  0  0  0
 12 11  1  0  0  0  0
 13 12  2  0  0  0  0
 13 14  1  0  0  0  0
 14  9  2  0  0  0  0
 17 13  1  0  0  0  0
 19 18  1  0  0  0  0
 20 21  1  0  0  0  0
 20 19  1  0  0  0  0
 21 22  1  0  0  0  0
 23 22  1  0  0  0  0
 23 18  1  0  0  0  0
M  END
>  <minimizedAffinity>
-4.74053001

$$$$

 OpenBabel03252500473D

 23 25  0  0  0  0  0  0  0  0999 V2000
   38.3260   30.5840   39.7230 C   0  0  0  0  0  0  0  0  0  0  0  0
   38.4010   30.2130   41.0820 C   0  0  0  0  0  0  0  0  0  0  0  0
   39.4830   30.6620   41.8280 C   0  0  0  0  0  0  0  0  0  0  0  0
   40.4280   31.4420   41.2120 N   0  0  0  0  0  0  0  0  0  0  0  0
   40.3130   31.7710   39.9090 C   0  0  0  0  0  0  0  0  0  0  0  0
   39.2860   31.3600   39.1520 N   0  0  0  0  0  0  0  0  0  0  0  0
   37.5040   30.2590   39.1040 H   0  0  0  0  0  0  0  0  0  0  0  0
   39.5890   30.4120   42.8570 H   0  0  0  0  0  0  0  0  0  0  0  0
   41.3340   32.6040   39.2790 C   0  0  0  0  0  0  0  0  0  0  0  0
   41.4440   32.7110   37.9200 C   0  0  0  0  0  0  0  0  0  0  0  0
   42.3870   33.4810   37.2800 C   0  0  0  0  0  0  0  0  0  0  0  0
   43.2410   34.1610   38.0820 N   0  0  0  0  0  0  0  0  0  0  0  0
   43.1400   34.0620   39.4240 C   0  0  0  0  0  0  0  0  0  0  0  0
   42.2100   33.3020   40.0670 N   0  0  0  0  0  0  0  0  0  0  0  0
   40.7210   32.1340   37.3530 H   0  0  0  0  0  0  0  0  0  0  0  0
   42.4290   33.5280   36.2020 H   0  0  0  0  0  0  0  0  0  0  0  0
   43.8530   34.6300   40.0180 H   0  0  0  0  0  0  0  0  0  0  0  0
   37.3320   29.3560   41.6930 C   0  0  0  0  0  3  0  0  0  0  0  0
   36.9560   28.2330   40.8080 C   0  0  0  0  0  2  0  0  0  0  0  0
   37.4360   26.9360   41.3730 C   0  0  0  0  0  2  0  0  0  0  0  0
   36.6420   26.7800   42.6790 C   0  0  0  0  0  2  0  0  0  0  0  0
   37.1090   27.7990   43.6800 C   0  0  0  0  0  2  0  0  0  0  0  0
   37.7230   29.0200   43.0920 C   0  0  0  0  0  2  0  0  0  0  0  0
  1  2  1  0  0  0  0
  2 18  1  0  0  0  0
  2  3  2  0  0  0  0
  3  8  1  0  0  0  0
  4  3  1  0  0  0  0
  5  4  2  0  0  0  0
  6  1  2  0  0  0  0
  6  5  1  0  0  0  0
  7  1  1  0  0  0  0
  9  5  1  0  0  0  0
  9 14  1  0  0  0  0
 10  9  2  0  0  0  0
 11 10  1  0  0  0  0
 11 12  2  0  0  0  0
 12 13  1  0  0  0  0
 13 17  1  0  0  0  0
 13 14  2  0  0  0  0
 15 10  1  0  0  0  0
 16 11  1  0  0  0  0
 18 23  1  0  0  0  0
 19 20  1  0  0  0  0
 19 18  1  0  0  0  0
 20 21  1  0  0  0  0
 21 22  1  0  0  0  0
 23 22  1  0  0  0  0
M  END
>  <minimizedAffinity>
-4.65508795

$$$$

 OpenBabel03252500473D

 23 25  0  0  0  0  0  0  0  0999 V2000
   38.6560   28.5810   41.8780 C   0  0  0  0  0  0  0  0  0  0  0  0
   37.5690   28.3650   41.0060 C   0  0  0  0  0  0  0  0  0  0  0  0
   37.2890   29.3340   40.0500 C   0  0  0  0  0  0  0  0  0  0  0  0
   38.0790   30.4530   39.9980 N   0  0  0  0  0  0  0  0  0  0  0  0
   39.1090   30.6150   40.8550 C   0  0  0  0  0  0  0  0  0  0  0  0
   39.4150   29.7060   41.7910 N   0  0  0  0  0  0  0  0  0  0  0  0
   38.9120   27.8570   42.6360 H   0  0  0  0  0  0  0  0  0  0  0  0
   36.4800   29.2220   39.3670 H   0  0  0  0  0  0  0  0  0  0  0  0
   39.9350   31.8170   40.7760 C   0  0  0  0  0  0  0  0  0  0  0  0
   39.4450   33.0030   40.3030 C   0  0  0  0  0  0  0  0  0  0  0  0
   40.1810   34.1610   40.2090 C   0  0  0  0  0  0  0  0  0  0  0  0
   41.4690   34.0800   40.6230 N   0  0  0  0  0  0  0  0  0  0  0  0
   41.9620   32.9140   41.0910 C   0  0  0  0  0  0  0  0  0  0  0  0
   41.2400   31.7620   41.1880 N   0  0  0  0  0  0  0  0  0  0  0  0
   38.4050   32.9800   39.9940 H   0  0  0  0  0  0  0  0  0  0  0  0
   39.7420   35.0710   39.8270 H   0  0  0  0  0  0  0  0  0  0  0  0
   43.0020   32.9090   41.4080 H   0  0  0  0  0  0  0  0  0  0  0  0
   36.7440   27.1170   41.1170 C   0  0  0  0  0  3  0  0  0  0  0  0
   36.5810   26.4490   39.8080 C   0  0  0  0  0  2  0  0  0  0  0  0
   37.3590   25.1750   39.7690 C   0  0  0  0  0  2  0  0  0  0  0  0
   36.6830   24.2890   40.8260 C   0  0  0  0  0  2  0  0  0  0  0  0
   36.9630   24.8360   42.1980 C   0  0  0  0  0  2  0  0  0  0  0  0
   37.2660   26.2910   42.2430 C   0  0  0  0  0  2  0  0  0  0  0  0
  1  7  1  0  0  0  0
  2 18  1  0  0  0  0
  2  1  2  0  0  0  0
  3  2  1  0  0  0  0
  4  3  2  0  0  0  0
  4  5  1  0  0  0  0
  5  6  2  0  0  0  0
  6  1  1  0  0  0  0
  8  3  1  0  0  0  0
  9  5  1  0  0  0  0
  9 14  1  0  0  0  0
 10  9  2  0  0  0  0
 11 10  1  0  0  0  0
 11 12  2  0  0  0  0
 12 13  1  0  0  0  0
 13 14  2  0  0  0  0
 13 17  1  0  0  0  0
 15 10  1  0  0  0  0
 16 11  1  0  0  0  0
 18 23  1  0  0  0  0
 19 18  1  0  0  0  0
 20 19  1  0  0  0  0
 20 21  1  0  0  0  0
 21 22  1  0  0  0  0
 22 23  1  0  0  0  0
M  END
>  <minimizedAffinity>
-4.53134966

$$$$

 OpenBabel03252500473D

 23 25  0  0  0  0  0  0  0  0999 V2000
   36.1270   27.5040   38.7460 C   0  0  0  0  0  0  0  0  0  0  0  0
   36.0470   28.1590   39.9930 C   0  0  0  0  0  0  0  0  0  0  0  0
   34.9840   29.0250   40.2150 C   0  0  0  0  0  0  0  0  0  0  0  0
   34.0640   29.2060   39.2140 N   0  0  0  0  0  0  0  0  0  0  0  0
   34.1830   28.5570   38.0370 C   0  0  0  0  0  0  0  0  0  0  0  0
   35.1920   27.7130   37.7810 N   0  0  0  0  0  0  0  0  0  0  0  0
   36.9340   26.8220   38.5280 H   0  0  0  0  0  0  0  0  0  0  0  0
   34.8760   29.5450   41.1370 H   0  0  0  0  0  0  0  0  0  0  0  0
   33.1880   28.7690   36.9890 C   0  0  0  0  0  0  0  0  0  0  0  0
   32.0420   29.4820   37.2110 C   0  0  0  0  0  0  0  0  0  0  0  0
   31.0760   29.7080   36.2590 C   0  0  0  0  0  0  0  0  0  0  0  0
   31.3130   29.1740   35.0360 N   0  0  0  0  0  0  0  0  0  0  0  0
   32.4400   28.4680   34.8070 C   0  0  0  0  0  0  0  0  0  0  0  0
   33.4020   28.2390   35.7440 N   0  0  0  0  0  0  0  0  0  0  0  0
   31.9330   29.8740   38.2170 H   0  0  0  0  0  0  0  0  0  0  0  0
   30.1900   30.2790   36.4900 H   0  0  0  0  0  0  0  0  0  0  0  0
   32.5760   28.0640   33.8070 H   0  0  0  0  0  0  0  0  0  0  0  0
   37.0890   27.9150   41.0440 C   0  0  0  0  0  3  0  0  0  0  0  0
   38.2050   28.8810   40.9450 C   0  0  0  0  0  2  0  0  0  0  0  0
   38.1750   29.8360   42.0930 C   0  0  0  0  0  2  0  0  0  0  0  0
   38.4380   28.9530   43.3220 C   0  0  0  0  0  2  0  0  0  0  0  0
   37.2520   28.0640   43.5680 C   0  0  0  0  0  2  0  0  0  0  0  0
   36.4180   27.7830   42.3690 C   0  0  0  0  0  2  0  0  0  0  0  0
  1  2  1  0  0  0  0
  2  3  2  0  0  0  0
  2 18  1  0  0  0  0
  3  8  1  0  0  0  0
  4  3  1  0  0  0  0
  5  4  2  0  0  0  0
  6  5  1  0  0  0  0
  6  1  2  0  0  0  0
  7  1  1  0  0  0  0
  9 10  1  0  0  0  0
  9  5  1  0  0  0  0
 10 15  1  0  0  0  0
 11 16  1  0  0  0  0
 11 10  2  0  0  0  0
 12 11  1  0  0  0  0
 13 12  2  0  0  0  0
 13 14  1  0  0  0  0
 14  9  2  0  0  0  0
 17 13  1  0  0  0  0
 18 23  1  0  0  0  0
 19 18  1  0  0  0  0
 19 20  1  0  0  0  0
 20 21  1  0  0  0  0
 21 22  1  0  0  0  0
 23 22  1  0  0  0  0
M  END
>  <minimizedAffinity>
-4.42714262

$$$$

 OpenBabel03252500473D

 23 25  0  0  0  0  0  0  0  0999 V2000
   38.8590   29.1530   41.1010 C   0  0  0  0  0  0  0  0  0  0  0  0
   37.6740   29.9160   41.0320 C   0  0  0  0  0  0  0  0  0  0  0  0
   36.4660   29.2450   40.8920 C   0  0  0  0  0  0  0  0  0  0  0  0
   36.4790   27.8750   40.8270 N   0  0  0  0  0  0  0  0  0  0  0  0
   37.6380   27.1890   40.8970 C   0  0  0  0  0  0  0  0  0  0  0  0
   38.8260   27.7950   41.0320 N   0  0  0  0  0  0  0  0  0  0  0  0
   39.8210   29.6300   41.2090 H   0  0  0  0  0  0  0  0  0  0  0  0
   35.5430   29.7710   40.8350 H   0  0  0  0  0  0  0  0  0  0  0  0
   37.6220   25.7300   40.8250 C   0  0  0  0  0  0  0  0  0  0  0  0
   36.6240   25.0470   40.1860 C   0  0  0  0  0  0  0  0  0  0  0  0
   36.5640   23.6760   40.0910 C   0  0  0  0  0  0  0  0  0  0  0  0
   37.5770   22.9960   40.6810 N   0  0  0  0  0  0  0  0  0  0  0  0
   38.5660   23.6610   41.3160 C   0  0  0  0  0  0  0  0  0  0  0  0
   38.6340   25.0180   41.4140 N   0  0  0  0  0  0  0  0  0  0  0  0
   35.8550   25.6690   39.7400 H   0  0  0  0  0  0  0  0  0  0  0  0
   35.7520   23.1890   39.5730 H   0  0  0  0  0  0  0  0  0  0  0  0
   39.3510   23.0620   41.7710 H   0  0  0  0  0  0  0  0  0  0  0  0
   37.7320   31.4130   41.1090 C   0  0  0  0  0  3  0  0  0  0  0  0
   39.1150   31.8990   41.3120 C   0  0  0  0  0  2  0  0  0  0  0  0
   39.6180   32.5740   40.0780 C   0  0  0  0  0  2  0  0  0  0  0  0
   38.7140   33.8060   39.9290 C   0  0  0  0  0  2  0  0  0  0  0  0
   37.3240   33.3710   39.5540 C   0  0  0  0  0  2  0  0  0  0  0  0
   36.9690   31.9870   39.9650 C   0  0  0  0  0  2  0  0  0  0  0  0
  1  7  1  0  0  0  0
  2  1  1  0  0  0  0
  2 18  1  0  0  0  0
  3  2  2  0  0  0  0
  4  3  1  0  0  0  0
  4  5  2  0  0  0  0
  5  6  1  0  0  0  0
  6  1  2  0  0  0  0
  8  3  1  0  0  0  0
  9  5  1  0  0  0  0
  9 14  1  0  0  0  0
 10  9  2  0  0  0  0
 11 10  1  0  0  0  0
 11 12  2  0  0  0  0
 12 13  1  0  0  0  0
 13 14  2  0  0  0  0
 13 17  1  0  0  0  0
 15 10  1  0  0  0  0
 16 11  1  0  0  0  0
 18 19  1  0  0  0  0
 20 19  1  0  0  0  0
 21 20  1  0  0  0  0
 22 21  1  0  0  0  0
 22 23  1  0  0  0  0
 23 18  1  0  0  0  0
M  END
>  <minimizedAffinity>
-4.37515306

$$$$

 OpenBabel03252500473D

 23 25  0  0  0  0  0  0  0  0999 V2000
   36.7130   27.5080   38.7330 C   0  0  0  0  0  0  0  0  0  0  0  0
   35.8510   28.5470   39.1400 C   0  0  0  0  0  0  0  0  0  0  0  0
   35.8350   28.9010   40.4830 C   0  0  0  0  0  0  0  0  0  0  0  0
   36.6540   28.2260   41.3510 N   0  0  0  0  0  0  0  0  0  0  0  0
   37.4630   27.2380   40.9130 C   0  0  0  0  0  0  0  0  0  0  0  0
   37.5110   26.8650   39.6270 N   0  0  0  0  0  0  0  0  0  0  0  0
   36.7610   27.1980   37.7000 H   0  0  0  0  0  0  0  0  0  0  0  0
   35.2030   29.6770   40.8450 H   0  0  0  0  0  0  0  0  0  0  0  0
   38.3260   26.5360   41.8600 C   0  0  0  0  0  0  0  0  0  0  0  0
   38.5000   25.1800   41.8140 C   0  0  0  0  0  0  0  0  0  0  0  0
   39.3010   24.4740   42.6810 C   0  0  0  0  0  0  0  0  0  0  0  0
   39.9410   25.2050   43.6250 N   0  0  0  0  0  0  0  0  0  0  0  0
   39.7750   26.5440   43.6800 C   0  0  0  0  0  0  0  0  0  0  0  0
   38.9840   27.2510   42.8250 N   0  0  0  0  0  0  0  0  0  0  0  0
   37.9520   24.6730   41.0260 H   0  0  0  0  0  0  0  0  0  0  0  0
   39.4020   23.4020   42.5980 H   0  0  0  0  0  0  0  0  0  0  0  0
   40.3130   27.0780   44.4590 H   0  0  0  0  0  0  0  0  0  0  0  0
   34.9790   29.2440   38.1380 C   0  0  0  0  0  3  0  0  0  0  0  0
   35.3770   28.9260   36.7490 C   0  0  0  0  0  2  0  0  0  0  0  0
   34.3520   28.0590   36.0960 C   0  0  0  0  0  2  0  0  0  0  0  0
   33.1000   28.9470   36.0250 C   0  0  0  0  0  2  0  0  0  0  0  0
   32.5540   29.1630   37.4090 C   0  0  0  0  0  2  0  0  0  0  0  0
   33.5510   29.0270   38.5040 C   0  0  0  0  0  2  0  0  0  0  0  0
  1  2  2  0  0  0  0
  1  6  1  0  0  0  0
  2  3  1  0  0  0  0
  3  8  1  0  0  0  0
  3  4  2  0  0  0  0
  5  4  1  0  0  0  0
  5  9  1  0  0  0  0
  6  5  2  0  0  0  0
  7  1  1  0  0  0  0
  9 14  1  0  0  0  0
 10  9  2  0  0  0  0
 10 11  1  0  0  0  0
 11 12  2  0  0  0  0
 12 13  1  0  0  0  0
 13 17  1  0  0  0  0
 14 13  2  0  0  0  0
 15 10  1  0  0  0  0
 16 11  1  0  0  0  0
 18 23  1  0  0  0  0
 18  2  1  0  0  0  0
 19 18  1  0  0  0  0
 20 19  1  0  0  0  0
 21 20  1  0  0  0  0
 21 22  1  0  0  0  0
 22 23  1  0  0  0  0
M  END
>  <minimizedAffinity>
-4.35733938

$$$$
