
 OpenBabel03242512393D

 31 34  0  0  0  0  0  0  0  0999 V2000
   36.6520   30.0510   40.8500 C   0  0  0  0  0  0  0  0  0  0  0  0
   36.1850   31.1400   41.3030 O   0  0  0  0  0  0  0  0  0  0  0  0
   34.8530   29.1080   39.3570 C   0  0  0  0  0  0  0  0  0  0  0  0
   36.1110   29.7010   39.5340 C   0  0  0  0  0  0  0  0  0  0  0  0
   36.8600   29.9740   38.4200 C   0  0  0  0  0  0  0  0  0  0  0  0
   36.4620   29.7050   37.1180 C   0  0  0  0  0  0  0  0  0  0  0  0
   37.0170   29.8870   35.9060 N   0  0  0  0  0  0  0  0  0  0  0  0
   36.1850   29.4430   34.9660 C   0  0  0  0  0  0  0  0  0  0  0  0
   35.0510   28.9580   35.5960 C   0  0  0  0  0  0  0  0  0  0  0  0
   35.2110   29.1180   36.9600 C   0  0  0  0  0  0  0  0  0  0  0  0
   34.4360   28.8300   38.0550 C   0  0  0  0  0  0  0  0  0  0  0  0
   34.2630   28.8920   40.2270 H   0  0  0  0  0  0  0  0  0  0  0  0
   37.8620   30.4380   38.4520 H   0  0  0  0  0  0  0  0  0  0  0  0
   37.9460   30.3030   35.7090 H   0  0  0  0  0  0  0  0  0  0  0  0
   36.2420   29.4030   33.8940 H   0  0  0  0  0  0  0  0  0  0  0  0
   34.1670   28.5250   35.1900 H   0  0  0  0  0  0  0  0  0  0  0  0
   33.4790   28.3810   37.9480 H   0  0  0  0  0  0  0  0  0  0  0  0
   37.6070   29.2040   41.4990 C   0  0  0  0  0  0  0  0  0  0  0  0
   38.5870   29.8560   42.2610 C   0  0  0  0  0  0  0  0  0  0  0  0
   39.5230   29.0200   42.8970 C   0  0  0  0  0  0  0  0  0  0  0  0
   39.4210   27.6640   42.7380 N   0  0  0  0  0  0  0  0  0  0  0  0
   38.4510   27.1110   41.9900 C   0  0  0  0  0  0  0  0  0  0  0  0
   37.5440   27.8900   41.3710 N   0  0  0  0  0  0  0  0  0  0  0  0
   38.6350   30.9410   42.3640 H   0  0  0  0  0  0  0  0  0  0  0  0
   40.2940   29.4940   43.4940 H   0  0  0  0  0  0  0  0  0  0  0  0
   38.3510   25.6340   41.8240 C   0  0  0  0  0  3  0  0  0  0  0  0
   36.9910   25.0830   42.1020 C   0  0  0  0  0  2  0  0  0  0  0  0
   36.5480   24.0620   41.0840 C   0  0  0  0  0  2  0  0  0  0  0  0
   37.6430   23.0960   40.6950 C   0  0  0  0  0  2  0  0  0  0  0  0
   38.9300   23.8060   40.3370 C   0  0  0  0  0  2  0  0  0  0  0  0
   38.7490   25.3080   40.3820 C   0  0  0  0  0  2  0  0  0  0  0  0
  1  2  2  0  0  0  0
  1 18  1  0  0  0  0
  3  4  1  0  0  0  0
  3 12  1  0  0  0  0
  4  1  1  0  0  0  0
  5 13  1  0  0  0  0
  5  4  2  0  0  0  0
  6  5  1  0  0  0  0
  7  6  1  0  0  0  0
  8  9  2  0  0  0  0
  8  7  1  0  0  0  0
  9 10  1  0  0  0  0
 10  6  2  0  0  0  0
 10 11  1  0  0  0  0
 11  3  2  0  0  0  0
 14  7  1  0  0  0  0
 15  8  1  0  0  0  0
 16  9  1  0  0  0  0
 17 11  1  0  0  0  0
 18 19  1  0  0  0  0
 19 24  1  0  0  0  0
 19 20  2  0  0  0  0
 20 25  1  0  0  0  0
 21 20  1  0  0  0  0
 22 21  2  0  0  0  0
 23 18  2  0  0  0  0
 23 22  1  0  0  0  0
 26 22  1  0  0  0  0
 26 27  1  0  0  0  0
 28 27  1  0  0  0  0
 29 28  1  0  0  0  0
 30 31  1  0  0  0  0
 30 29  1  0  0  0  0
 31 26  1  0  0  0  0
M  END
>  <minimizedAffinity>
-6.10148716

$$$$

 OpenBabel03242512393D

 31 34  0  0  0  0  0  0  0  0999 V2000
   35.9410   29.2770   40.4110 C   0  0  0  0  0  0  0  0  0  0  0  0
   34.6830   29.3250   40.2660 O   0  0  0  0  0  0  0  0  0  0  0  0
   36.5650   27.8530   42.3960 C   0  0  0  0  0  0  0  0  0  0  0  0
   36.3990   28.0220   41.0140 C   0  0  0  0  0  0  0  0  0  0  0  0
   36.6670   26.9570   40.1950 C   0  0  0  0  0  0  0  0  0  0  0  0
   37.0960   25.7130   40.6370 C   0  0  0  0  0  0  0  0  0  0  0  0
   37.4060   24.5530   40.0290 N   0  0  0  0  0  0  0  0  0  0  0  0
   37.7610   23.6550   40.9450 C   0  0  0  0  0  0  0  0  0  0  0  0
   37.6760   24.2570   42.1890 C   0  0  0  0  0  0  0  0  0  0  0  0
   37.2550   25.5620   42.0100 C   0  0  0  0  0  0  0  0  0  0  0  0
   36.9960   26.6090   42.8590 C   0  0  0  0  0  0  0  0  0  0  0  0
   36.3570   28.6860   43.0410 H   0  0  0  0  0  0  0  0  0  0  0  0
   36.5690   26.9870   39.0960 H   0  0  0  0  0  0  0  0  0  0  0  0
   37.3820   24.3640   39.0100 H   0  0  0  0  0  0  0  0  0  0  0  0
   38.0760   22.6290   40.8850 H   0  0  0  0  0  0  0  0  0  0  0  0
   37.8760   23.8690   43.1600 H   0  0  0  0  0  0  0  0  0  0  0  0
   37.1130   26.5070   43.9090 H   0  0  0  0  0  0  0  0  0  0  0  0
   36.8760   30.3000   40.0500 C   0  0  0  0  0  0  0  0  0  0  0  0
   36.6410   30.9380   38.8230 C   0  0  0  0  0  0  0  0  0  0  0  0
   37.5620   31.9430   38.4710 C   0  0  0  0  0  0  0  0  0  0  0  0
   38.5960   32.2250   39.3220 N   0  0  0  0  0  0  0  0  0  0  0  0
   38.7560   31.5690   40.4840 C   0  0  0  0  0  0  0  0  0  0  0  0
   37.8890   30.6030   40.8420 N   0  0  0  0  0  0  0  0  0  0  0  0
   35.8050   30.6840   38.1710 H   0  0  0  0  0  0  0  0  0  0  0  0
   37.4080   32.4550   37.5280 H   0  0  0  0  0  0  0  0  0  0  0  0
   39.8860   31.8860   41.4010 C   0  0  0  0  0  3  0  0  0  0  0  0
   40.0350   30.9250   42.5350 C   0  0  0  0  0  2  0  0  0  0  0  0
   41.4670   30.5240   42.7870 C   0  0  0  0  0  2  0  0  0  0  0  0
   42.4330   31.6840   42.7030 C   0  0  0  0  0  2  0  0  0  0  0  0
   42.2320   32.5040   41.4480 C   0  0  0  0  0  2  0  0  0  0  0  0
   41.1680   31.8900   40.5650 C   0  0  0  0  0  2  0  0  0  0  0  0
  1  4  1  0  0  0  0
  2  1  2  0  0  0  0
  3 11  1  0  0  0  0
  3 12  1  0  0  0  0
  4  3  2  0  0  0  0
  5  6  2  0  0  0  0
  5  4  1  0  0  0  0
  6 10  1  0  0  0  0
  7  6  1  0  0  0  0
  7  8  1  0  0  0  0
  8  9  2  0  0  0  0
  9 16  1  0  0  0  0
 10  9  1  0  0  0  0
 10 11  2  0  0  0  0
 11 17  1  0  0  0  0
 13  5  1  0  0  0  0
 14  7  1  0  0  0  0
 15  8  1  0  0  0  0
 18  1  1  0  0  0  0
 18 23  1  0  0  0  0
 19 18  2  0  0  0  0
 20 19  1  0  0  0  0
 20 21  2  0  0  0  0
 21 22  1  0  0  0  0
 22 23  2  0  0  0  0
 22 26  1  0  0  0  0
 24 19  1  0  0  0  0
 25 20  1  0  0  0  0
 26 27  1  0  0  0  0
 27 28  1  0  0  0  0
 29 28  1  0  0  0  0
 30 29  1  0  0  0  0
 31 26  1  0  0  0  0
 31 30  1  0  0  0  0
M  END
>  <minimizedAffinity>
-5.98633575

$$$$

 OpenBabel03242512393D

 31 34  0  0  0  0  0  0  0  0999 V2000
   38.0620   28.2720   42.6930 C   0  0  0  0  0  0  0  0  0  0  0  0
   38.0590   29.1270   43.6300 O   0  0  0  0  0  0  0  0  0  0  0  0
   36.1530   28.8050   41.1350 C   0  0  0  0  0  0  0  0  0  0  0  0
   37.5220   28.8000   41.4370 C   0  0  0  0  0  0  0  0  0  0  0  0
   38.3890   29.3260   40.5160 C   0  0  0  0  0  0  0  0  0  0  0  0
   38.0100   29.8670   39.2960 C   0  0  0  0  0  0  0  0  0  0  0  0
   38.6710   30.4270   38.2670 N   0  0  0  0  0  0  0  0  0  0  0  0
   37.8020   30.7890   37.3260 C   0  0  0  0  0  0  0  0  0  0  0  0
   36.5330   30.4500   37.7650 C   0  0  0  0  0  0  0  0  0  0  0  0
   36.6480   29.8640   39.0130 C   0  0  0  0  0  0  0  0  0  0  0  0
   35.7520   29.3450   39.9130 C   0  0  0  0  0  0  0  0  0  0  0  0
   35.4700   28.3940   41.8540 H   0  0  0  0  0  0  0  0  0  0  0  0
   39.4830   29.3680   40.6580 H   0  0  0  0  0  0  0  0  0  0  0  0
   39.6960   30.5660   38.1940 H   0  0  0  0  0  0  0  0  0  0  0  0
   37.9110   31.2600   36.3670 H   0  0  0  0  0  0  0  0  0  0  0  0
   35.5840   30.5770   37.3000 H   0  0  0  0  0  0  0  0  0  0  0  0
   34.7100   29.3370   39.7080 H   0  0  0  0  0  0  0  0  0  0  0  0
   38.5250   26.9200   42.7800 C   0  0  0  0  0  0  0  0  0  0  0  0
   39.6480   26.7090   43.5940 C   0  0  0  0  0  0  0  0  0  0  0  0
   40.1010   25.3790   43.6770 C   0  0  0  0  0  0  0  0  0  0  0  0
   39.4370   24.4050   42.9810 N   0  0  0  0  0  0  0  0  0  0  0  0
   38.3650   24.6850   42.2200 C   0  0  0  0  0  0  0  0  0  0  0  0
   37.9140   25.9500   42.1240 N   0  0  0  0  0  0  0  0  0  0  0  0
   40.1500   27.5130   44.1340 H   0  0  0  0  0  0  0  0  0  0  0  0
   40.9680   25.1830   44.2990 H   0  0  0  0  0  0  0  0  0  0  0  0
   37.6520   23.6170   41.4670 C   0  0  0  0  0  3  0  0  0  0  0  0
   36.3670   24.0630   40.8490 C   0  0  0  0  0  2  0  0  0  0  0  0
   36.1870   23.5690   39.4360 C   0  0  0  0  0  2  0  0  0  0  0  0
   36.6030   22.1280   39.2520 C   0  0  0  0  0  2  0  0  0  0  0  0
   37.9720   21.8510   39.8340 C   0  0  0  0  0  2  0  0  0  0  0  0
   38.5980   23.1190   40.3710 C   0  0  0  0  0  2  0  0  0  0  0  0
  1 18  1  0  0  0  0
  1  2  2  0  0  0  0
  3  4  1  0  0  0  0
  3 12  1  0  0  0  0
  4  1  1  0  0  0  0
  5 13  1  0  0  0  0
  5  4  2  0  0  0  0
  6  5  1  0  0  0  0
  7  6  1  0  0  0  0
  8  9  2  0  0  0  0
  8  7  1  0  0  0  0
  9 10  1  0  0  0  0
 10  6  2  0  0  0  0
 10 11  1  0  0  0  0
 11  3  2  0  0  0  0
 14  7  1  0  0  0  0
 15  8  1  0  0  0  0
 16  9  1  0  0  0  0
 17 11  1  0  0  0  0
 18 19  1  0  0  0  0
 19 20  2  0  0  0  0
 19 24  1  0  0  0  0
 20 25  1  0  0  0  0
 21 20  1  0  0  0  0
 22 21  2  0  0  0  0
 23 22  1  0  0  0  0
 23 18  2  0  0  0  0
 26 22  1  0  0  0  0
 27 26  1  0  0  0  0
 28 27  1  0  0  0  0
 29 28  1  0  0  0  0
 29 30  1  0  0  0  0
 30 31  1  0  0  0  0
 31 26  1  0  0  0  0
M  END
>  <minimizedAffinity>
-5.90895844

$$$$

 OpenBabel03242512393D

 31 34  0  0  0  0  0  0  0  0999 V2000
   35.9380   29.2900   40.1690 C   0  0  0  0  0  0  0  0  0  0  0  0
   34.6940   29.2960   39.9280 O   0  0  0  0  0  0  0  0  0  0  0  0
   36.6210   27.9610   42.2010 C   0  0  0  0  0  0  0  0  0  0  0  0
   36.3880   28.0560   40.8210 C   0  0  0  0  0  0  0  0  0  0  0  0
   36.5790   26.9370   40.0540 C   0  0  0  0  0  0  0  0  0  0  0  0
   36.9910   25.7060   40.5460 C   0  0  0  0  0  0  0  0  0  0  0  0
   37.2320   24.5040   39.9930 N   0  0  0  0  0  0  0  0  0  0  0  0
   37.6070   23.6480   40.9410 C   0  0  0  0  0  0  0  0  0  0  0  0
   37.6060   24.3230   42.1500 C   0  0  0  0  0  0  0  0  0  0  0  0
   37.2170   25.6300   41.9160 C   0  0  0  0  0  0  0  0  0  0  0  0
   37.0360   26.7320   42.7130 C   0  0  0  0  0  0  0  0  0  0  0  0
   36.4730   28.8360   42.8050 H   0  0  0  0  0  0  0  0  0  0  0  0
   36.4240   26.9080   38.9620 H   0  0  0  0  0  0  0  0  0  0  0  0
   37.1490   24.2580   38.9900 H   0  0  0  0  0  0  0  0  0  0  0  0
   37.8850   22.6100   40.9260 H   0  0  0  0  0  0  0  0  0  0  0  0
   37.8440   23.9850   43.1310 H   0  0  0  0  0  0  0  0  0  0  0  0
   37.2050   26.6860   43.7610 H   0  0  0  0  0  0  0  0  0  0  0  0
   36.8660   30.3380   39.8680 C   0  0  0  0  0  0  0  0  0  0  0  0
   36.6810   31.5390   40.5680 C   0  0  0  0  0  0  0  0  0  0  0  0
   37.5940   32.5670   40.2690 C   0  0  0  0  0  0  0  0  0  0  0  0
   38.5750   32.3380   39.3420 N   0  0  0  0  0  0  0  0  0  0  0  0
   38.6900   31.1570   38.7110 C   0  0  0  0  0  0  0  0  0  0  0  0
   37.8270   30.1580   38.9800 N   0  0  0  0  0  0  0  0  0  0  0  0
   35.8850   31.6840   41.2990 H   0  0  0  0  0  0  0  0  0  0  0  0
   37.4780   33.5100   40.7930 H   0  0  0  0  0  0  0  0  0  0  0  0
   39.7620   30.9190   37.7050 C   0  0  0  0  0  3  0  0  0  0  0  0
   40.5800   32.1280   37.3920 C   0  0  0  0  0  2  0  0  0  0  0  0
   42.0590   31.8410   37.3240 C   0  0  0  0  0  2  0  0  0  0  0  0
   42.3820   30.5540   36.6000 C   0  0  0  0  0  2  0  0  0  0  0  0
   41.5490   29.3940   37.0980 C   0  0  0  0  0  2  0  0  0  0  0  0
   40.6700   29.8170   38.2550 C   0  0  0  0  0  2  0  0  0  0  0  0
  1  4  1  0  0  0  0
  2  1  2  0  0  0  0
  3 11  1  0  0  0  0
  3 12  1  0  0  0  0
  4  3  2  0  0  0  0
  5  6  2  0  0  0  0
  5  4  1  0  0  0  0
  6 10  1  0  0  0  0
  7  6  1  0  0  0  0
  7  8  1  0  0  0  0
  8  9  2  0  0  0  0
  9 16  1  0  0  0  0
 10  9  1  0  0  0  0
 10 11  2  0  0  0  0
 11 17  1  0  0  0  0
 13  5  1  0  0  0  0
 14  7  1  0  0  0  0
 15  8  1  0  0  0  0
 18  1  1  0  0  0  0
 18 19  1  0  0  0  0
 19 24  1  0  0  0  0
 20 19  2  0  0  0  0
 20 25  1  0  0  0  0
 21 20  1  0  0  0  0
 22 23  1  0  0  0  0
 22 21  2  0  0  0  0
 23 18  2  0  0  0  0
 26 31  1  0  0  0  0
 26 22  1  0  0  0  0
 27 26  1  0  0  0  0
 28 27  1  0  0  0  0
 29 30  1  0  0  0  0
 29 28  1  0  0  0  0
 30 31  1  0  0  0  0
M  END
>  <minimizedAffinity>
-5.89441061

$$$$

 OpenBabel03242512393D

 31 34  0  0  0  0  0  0  0  0999 V2000
   38.9990   29.9010   42.0300 C   0  0  0  0  0  0  0  0  0  0  0  0
   39.9330   30.1110   42.8610 O   0  0  0  0  0  0  0  0  0  0  0  0
   37.2300   28.3830   42.9910 C   0  0  0  0  0  0  0  0  0  0  0  0
   38.3680   28.5890   42.1980 C   0  0  0  0  0  0  0  0  0  0  0  0
   38.9030   27.5110   41.5430 C   0  0  0  0  0  0  0  0  0  0  0  0
   38.3980   26.2200   41.6080 C   0  0  0  0  0  0  0  0  0  0  0  0
   38.7500   25.0430   41.0600 N   0  0  0  0  0  0  0  0  0  0  0  0
   37.9010   24.0980   41.4590 C   0  0  0  0  0  0  0  0  0  0  0  0
   36.9670   24.6880   42.2940 C   0  0  0  0  0  0  0  0  0  0  0  0
   37.2700   26.0340   42.3980 C   0  0  0  0  0  0  0  0  0  0  0  0
   36.7080   27.0920   43.0690 C   0  0  0  0  0  0  0  0  0  0  0  0
   36.8080   29.2250   43.5070 H   0  0  0  0  0  0  0  0  0  0  0  0
   39.7970   27.5670   40.8970 H   0  0  0  0  0  0  0  0  0  0  0  0
   39.5510   24.8720   40.4260 H   0  0  0  0  0  0  0  0  0  0  0  0
   37.8260   23.0450   41.2580 H   0  0  0  0  0  0  0  0  0  0  0  0
   36.1350   24.2670   42.8070 H   0  0  0  0  0  0  0  0  0  0  0  0
   35.8460   26.9630   43.6760 H   0  0  0  0  0  0  0  0  0  0  0  0
   38.5540   30.8020   41.0090 C   0  0  0  0  0  0  0  0  0  0  0  0
   38.9810   32.1310   41.1380 C   0  0  0  0  0  0  0  0  0  0  0  0
   38.5420   33.0140   40.1330 C   0  0  0  0  0  0  0  0  0  0  0  0
   37.7500   32.5340   39.1250 N   0  0  0  0  0  0  0  0  0  0  0  0
   37.3800   31.2430   39.0690 C   0  0  0  0  0  0  0  0  0  0  0  0
   37.7870   30.3800   40.0190 N   0  0  0  0  0  0  0  0  0  0  0  0
   39.6130   32.4760   41.9570 H   0  0  0  0  0  0  0  0  0  0  0  0
   38.8560   34.0500   40.2030 H   0  0  0  0  0  0  0  0  0  0  0  0
   36.5180   30.7330   37.9680 C   0  0  0  0  0  3  0  0  0  0  0  0
   37.2570   30.4400   36.7030 C   0  0  0  0  0  2  0  0  0  0  0  0
   36.8460   29.1360   36.0660 C   0  0  0  0  0  2  0  0  0  0  0  0
   35.3520   28.9080   36.0880 C   0  0  0  0  0  2  0  0  0  0  0  0
   34.7590   29.1390   37.4610 C   0  0  0  0  0  2  0  0  0  0  0  0
   35.8410   29.4550   38.4710 C   0  0  0  0  0  2  0  0  0  0  0  0
  1  4  1  0  0  0  0
  1  2  2  0  0  0  0
  3 11  1  0  0  0  0
  3 12  1  0  0  0  0
  4  3  2  0  0  0  0
  5  6  2  0  0  0  0
  5  4  1  0  0  0  0
  6 10  1  0  0  0  0
  7  8  1  0  0  0  0
  7  6  1  0  0  0  0
  8  9  2  0  0  0  0
  9 10  1  0  0  0  0
  9 16  1  0  0  0  0
 10 11  2  0  0  0  0
 11 17  1  0  0  0  0
 13  5  1  0  0  0  0
 14  7  1  0  0  0  0
 15  8  1  0  0  0  0
 18 19  1  0  0  0  0
 18  1  1  0  0  0  0
 19 24  1  0  0  0  0
 20 25  1  0  0  0  0
 20 19  2  0  0  0  0
 21 20  1  0  0  0  0
 22 21  2  0  0  0  0
 22 23  1  0  0  0  0
 23 18  2  0  0  0  0
 26 31  1  0  0  0  0
 26 22  1  0  0  0  0
 27 26  1  0  0  0  0
 28 29  1  0  0  0  0
 28 27  1  0  0  0  0
 29 30  1  0  0  0  0
 30 31  1  0  0  0  0
M  END
>  <minimizedAffinity>
-5.85867977

$$$$

 OpenBabel03242512393D

 31 34  0  0  0  0  0  0  0  0999 V2000
   37.2640   30.4780   41.1530 C   0  0  0  0  0  0  0  0  0  0  0  0
   36.1470   31.0770   41.1510 O   0  0  0  0  0  0  0  0  0  0  0  0
   39.0110   32.2950   41.2030 C   0  0  0  0  0  0  0  0  0  0  0  0
   38.3350   31.2640   40.5340 C   0  0  0  0  0  0  0  0  0  0  0  0
   38.7060   30.9760   39.2480 C   0  0  0  0  0  0  0  0  0  0  0  0
   39.7100   31.6340   38.5510 C   0  0  0  0  0  0  0  0  0  0  0  0
   40.2320   31.5190   37.3170 N   0  0  0  0  0  0  0  0  0  0  0  0
   41.2010   32.4170   37.1600 C   0  0  0  0  0  0  0  0  0  0  0  0
   41.3090   33.1380   38.3370 C   0  0  0  0  0  0  0  0  0  0  0  0
   40.3700   32.6530   39.2290 C   0  0  0  0  0  0  0  0  0  0  0  0
   40.0230   32.9690   40.5190 C   0  0  0  0  0  0  0  0  0  0  0  0
   38.7220   32.5250   42.2110 H   0  0  0  0  0  0  0  0  0  0  0  0
   38.2370   30.1860   38.6360 H   0  0  0  0  0  0  0  0  0  0  0  0
   39.9410   30.8460   36.5840 H   0  0  0  0  0  0  0  0  0  0  0  0
   41.8570   32.6550   36.3430 H   0  0  0  0  0  0  0  0  0  0  0  0
   41.9630   33.9360   38.6020 H   0  0  0  0  0  0  0  0  0  0  0  0
   40.5190   33.7450   41.0480 H   0  0  0  0  0  0  0  0  0  0  0  0
   37.5250   29.1730   41.6820 C   0  0  0  0  0  0  0  0  0  0  0  0
   37.9270   29.1270   43.0250 C   0  0  0  0  0  0  0  0  0  0  0  0
   38.1820   27.8430   43.5420 C   0  0  0  0  0  0  0  0  0  0  0  0
   38.0280   26.7540   42.7270 N   0  0  0  0  0  0  0  0  0  0  0  0
   37.6380   26.8780   41.4460 C   0  0  0  0  0  0  0  0  0  0  0  0
   37.3890   28.0960   40.9290 N   0  0  0  0  0  0  0  0  0  0  0  0
   38.0390   30.0180   43.6430 H   0  0  0  0  0  0  0  0  0  0  0  0
   38.4940   27.7720   44.5780 H   0  0  0  0  0  0  0  0  0  0  0  0
   37.4740   25.6860   40.5690 C   0  0  0  0  0  3  0  0  0  0  0  0
   36.9500   24.4790   41.2760 C   0  0  0  0  0  2  0  0  0  0  0  0
   35.8800   23.7550   40.4970 C   0  0  0  0  0  2  0  0  0  0  0  0
   36.1940   23.6380   39.0240 C   0  0  0  0  0  2  0  0  0  0  0  0
   36.6070   24.9630   38.4210 C   0  0  0  0  0  2  0  0  0  0  0  0
   36.5130   26.0750   39.4430 C   0  0  0  0  0  2  0  0  0  0  0  0
  1 18  1  0  0  0  0
  2  1  2  0  0  0  0
  3 12  1  0  0  0  0
  4  1  1  0  0  0  0
  4  3  1  0  0  0  0
  5  4  2  0  0  0  0
  6 10  2  0  0  0  0
  6  5  1  0  0  0  0
  7  6  1  0  0  0  0
  8  7  1  0  0  0  0
  8  9  2  0  0  0  0
  9 16  1  0  0  0  0
  9 10  1  0  0  0  0
 10 11  1  0  0  0  0
 11 17  1  0  0  0  0
 11  3  2  0  0  0  0
 13  5  1  0  0  0  0
 14  7  1  0  0  0  0
 15  8  1  0  0  0  0
 18 19  1  0  0  0  0
 19 20  2  0  0  0  0
 19 24  1  0  0  0  0
 20 25  1  0  0  0  0
 21 20  1  0  0  0  0
 22 21  2  0  0  0  0
 23 22  1  0  0  0  0
 23 18  2  0  0  0  0
 26 27  1  0  0  0  0
 26 22  1  0  0  0  0
 28 27  1  0  0  0  0
 29 28  1  0  0  0  0
 30 29  1  0  0  0  0
 30 31  1  0  0  0  0
 31 26  1  0  0  0  0
M  END
>  <minimizedAffinity>
-5.81628036

$$$$

 OpenBabel03242512393D

 31 34  0  0  0  0  0  0  0  0999 V2000
   36.2280   28.6840   37.9000 C   0  0  0  0  0  0  0  0  0  0  0  0
   35.4410   28.9750   36.9480 O   0  0  0  0  0  0  0  0  0  0  0  0
   38.4570   29.8630   37.9010 C   0  0  0  0  0  0  0  0  0  0  0  0
   37.1060   29.7960   38.2740 C   0  0  0  0  0  0  0  0  0  0  0  0
   36.5870   30.8270   39.0110 C   0  0  0  0  0  0  0  0  0  0  0  0
   37.3050   31.9420   39.4210 C   0  0  0  0  0  0  0  0  0  0  0  0
   37.0080   33.0470   40.1280 N   0  0  0  0  0  0  0  0  0  0  0  0
   38.0910   33.8140   40.2280 C   0  0  0  0  0  0  0  0  0  0  0  0
   39.1250   33.1810   39.5600 C   0  0  0  0  0  0  0  0  0  0  0  0
   38.6430   31.9920   39.0420 C   0  0  0  0  0  0  0  0  0  0  0  0
   39.1950   30.9760   38.3040 C   0  0  0  0  0  0  0  0  0  0  0  0
   38.8670   29.0560   37.3240 H   0  0  0  0  0  0  0  0  0  0  0  0
   35.5390   30.8690   39.3550 H   0  0  0  0  0  0  0  0  0  0  0  0
   36.0880   33.2860   40.5420 H   0  0  0  0  0  0  0  0  0  0  0  0
   38.2800   34.7610   40.6990 H   0  0  0  0  0  0  0  0  0  0  0  0
   40.1380   33.4750   39.4160 H   0  0  0  0  0  0  0  0  0  0  0  0
   40.2150   31.0020   38.0090 H   0  0  0  0  0  0  0  0  0  0  0  0
   36.3060   27.4280   38.5820 C   0  0  0  0  0  0  0  0  0  0  0  0
   35.7250   26.3360   37.9210 C   0  0  0  0  0  0  0  0  0  0  0  0
   35.8040   25.1020   38.5940 C   0  0  0  0  0  0  0  0  0  0  0  0
   36.4230   25.0470   39.8140 N   0  0  0  0  0  0  0  0  0  0  0  0
   36.9580   26.1400   40.3850 C   0  0  0  0  0  0  0  0  0  0  0  0
   36.8940   27.3320   39.7610 N   0  0  0  0  0  0  0  0  0  0  0  0
   35.2400   26.4190   36.9480 H   0  0  0  0  0  0  0  0  0  0  0  0
   35.3640   24.2370   38.1090 H   0  0  0  0  0  0  0  0  0  0  0  0
   37.6290   26.0690   41.7130 C   0  0  0  0  0  3  0  0  0  0  0  0
   38.4500   24.8370   41.9130 C   0  0  0  0  0  2  0  0  0  0  0  0
   39.7890   25.1160   42.5480 C   0  0  0  0  0  2  0  0  0  0  0  0
   39.7140   26.1150   43.6800 C   0  0  0  0  0  2  0  0  0  0  0  0
   38.9430   27.3570   43.2940 C   0  0  0  0  0  2  0  0  0  0  0  0
   38.5230   27.3050   41.8410 C   0  0  0  0  0  2  0  0  0  0  0  0
  1  4  1  0  0  0  0
  1 18  1  0  0  0  0
  2  1  2  0  0  0  0
  3  4  2  0  0  0  0
  3 11  1  0  0  0  0
  4  5  1  0  0  0  0
  5 13  1  0  0  0  0
  5  6  2  0  0  0  0
  6  7  1  0  0  0  0
  7  8  1  0  0  0  0
  7 14  1  0  0  0  0
  8 15  1  0  0  0  0
  9  8  2  0  0  0  0
 10  6  1  0  0  0  0
 10  9  1  0  0  0  0
 11 10  2  0  0  0  0
 12  3  1  0  0  0  0
 16  9  1  0  0  0  0
 17 11  1  0  0  0  0
 18 23  1  0  0  0  0
 19 18  2  0  0  0  0
 19 20  1  0  0  0  0
 20 21  2  0  0  0  0
 21 22  1  0  0  0  0
 22 26  1  0  0  0  0
 23 22  2  0  0  0  0
 24 19  1  0  0  0  0
 25 20  1  0  0  0  0
 26 31  1  0  0  0  0
 26 27  1  0  0  0  0
 27 28  1  0  0  0  0
 28 29  1  0  0  0  0
 30 29  1  0  0  0  0
 31 30  1  0  0  0  0
M  END
>  <minimizedAffinity>
-5.74289417

$$$$

 OpenBabel03242512393D

 31 34  0  0  0  0  0  0  0  0999 V2000
   36.3990   27.2550   39.4430 C   0  0  0  0  0  0  0  0  0  0  0  0
   36.3360   25.9890   39.4070 O   0  0  0  0  0  0  0  0  0  0  0  0
   34.6710   28.4080   38.0150 C   0  0  0  0  0  0  0  0  0  0  0  0
   35.9590   27.8840   38.1950 C   0  0  0  0  0  0  0  0  0  0  0  0
   36.8470   27.9800   37.1560 C   0  0  0  0  0  0  0  0  0  0  0  0
   36.5630   28.5610   35.9280 C   0  0  0  0  0  0  0  0  0  0  0  0
   37.2630   28.7630   34.7980 N   0  0  0  0  0  0  0  0  0  0  0  0
   36.4950   29.3860   33.9060 C   0  0  0  0  0  0  0  0  0  0  0  0
   35.2540   29.5930   34.4840 C   0  0  0  0  0  0  0  0  0  0  0  0
   35.2820   29.0760   35.7670 C   0  0  0  0  0  0  0  0  0  0  0  0
   34.3670   28.9960   36.7860 C   0  0  0  0  0  0  0  0  0  0  0  0
   33.9720   28.3350   38.8260 H   0  0  0  0  0  0  0  0  0  0  0  0
   37.8820   27.5990   37.1970 H   0  0  0  0  0  0  0  0  0  0  0  0
   38.2470   28.4860   34.6220 H   0  0  0  0  0  0  0  0  0  0  0  0
   36.6630   29.7250   32.9010 H   0  0  0  0  0  0  0  0  0  0  0  0
   34.3790   30.0550   34.0940 H   0  0  0  0  0  0  0  0  0  0  0  0
   33.3850   29.3850   36.6760 H   0  0  0  0  0  0  0  0  0  0  0  0
   36.8410   28.0500   40.5490 C   0  0  0  0  0  0  0  0  0  0  0  0
   36.8950   27.3990   41.7890 C   0  0  0  0  0  0  0  0  0  0  0  0
   37.3310   28.1830   42.8730 C   0  0  0  0  0  0  0  0  0  0  0  0
   37.6640   29.4930   42.6550 N   0  0  0  0  0  0  0  0  0  0  0  0
   37.5860   30.0490   41.4340 C   0  0  0  0  0  0  0  0  0  0  0  0
   37.1720   29.3190   40.3820 N   0  0  0  0  0  0  0  0  0  0  0  0
   36.6210   26.3520   41.9230 H   0  0  0  0  0  0  0  0  0  0  0  0
   37.3840   27.7090   43.8470 H   0  0  0  0  0  0  0  0  0  0  0  0
   37.9510   31.4750   41.2100 C   0  0  0  0  0  3  0  0  0  0  0  0
   39.4200   31.7410   41.2540 C   0  0  0  0  0  2  0  0  0  0  0  0
   39.8900   32.6540   40.1490 C   0  0  0  0  0  2  0  0  0  0  0  0
   38.9620   33.8220   39.9070 C   0  0  0  0  0  2  0  0  0  0  0  0
   37.5190   33.3860   39.7770 C   0  0  0  0  0  2  0  0  0  0  0  0
   37.4010   31.8790   39.8390 C   0  0  0  0  0  2  0  0  0  0  0  0
  1 18  1  0  0  0  0
  2  1  2  0  0  0  0
  3  4  1  0  0  0  0
  3 12  1  0  0  0  0
  4  1  1  0  0  0  0
  5 13  1  0  0  0  0
  5  4  2  0  0  0  0
  6  5  1  0  0  0  0
  7  6  1  0  0  0  0
  8  9  2  0  0  0  0
  8  7  1  0  0  0  0
  9 10  1  0  0  0  0
 10  6  2  0  0  0  0
 10 11  1  0  0  0  0
 11  3  2  0  0  0  0
 14  7  1  0  0  0  0
 15  8  1  0  0  0  0
 16  9  1  0  0  0  0
 17 11  1  0  0  0  0
 18 19  1  0  0  0  0
 19 24  1  0  0  0  0
 19 20  2  0  0  0  0
 20 25  1  0  0  0  0
 21 20  1  0  0  0  0
 22 21  2  0  0  0  0
 23 18  2  0  0  0  0
 23 22  1  0  0  0  0
 26 27  1  0  0  0  0
 26 22  1  0  0  0  0
 28 27  1  0  0  0  0
 29 28  1  0  0  0  0
 30 31  1  0  0  0  0
 30 29  1  0  0  0  0
 31 26  1  0  0  0  0
M  END
>  <minimizedAffinity>
-5.73112059

$$$$

 OpenBabel03242512393D

 31 34  0  0  0  0  0  0  0  0999 V2000
   37.9810   32.0000   39.3240 C   0  0  0  0  0  0  0  0  0  0  0  0
   36.9340   32.5910   38.9220 O   0  0  0  0  0  0  0  0  0  0  0  0
   37.5780   29.5140   39.2090 C   0  0  0  0  0  0  0  0  0  0  0  0
   37.7020   30.7020   39.9440 C   0  0  0  0  0  0  0  0  0  0  0  0
   37.5670   30.6370   41.3060 C   0  0  0  0  0  0  0  0  0  0  0  0
   37.3130   29.4730   42.0170 C   0  0  0  0  0  0  0  0  0  0  0  0
   37.1510   29.1820   43.3200 N   0  0  0  0  0  0  0  0  0  0  0  0
   36.9310   27.8770   43.4590 C   0  0  0  0  0  0  0  0  0  0  0  0
   36.9520   27.3050   42.1980 C   0  0  0  0  0  0  0  0  0  0  0  0
   37.1940   28.3040   41.2730 C   0  0  0  0  0  0  0  0  0  0  0  0
   37.3230   28.3330   39.9070 C   0  0  0  0  0  0  0  0  0  0  0  0
   37.6830   29.5610   38.1420 H   0  0  0  0  0  0  0  0  0  0  0  0
   37.6450   31.5130   41.9720 H   0  0  0  0  0  0  0  0  0  0  0  0
   37.1860   29.8510   44.1120 H   0  0  0  0  0  0  0  0  0  0  0  0
   36.7550   27.2470   44.3120 H   0  0  0  0  0  0  0  0  0  0  0  0
   36.8180   26.2930   41.8960 H   0  0  0  0  0  0  0  0  0  0  0  0
   37.2340   27.4480   39.3270 H   0  0  0  0  0  0  0  0  0  0  0  0
   39.3240   32.4880   39.2170 C   0  0  0  0  0  0  0  0  0  0  0  0
   39.7030   33.4470   40.1670 C   0  0  0  0  0  0  0  0  0  0  0  0
   41.0230   33.9230   40.0600 C   0  0  0  0  0  0  0  0  0  0  0  0
   41.8290   33.4360   39.0660 N   0  0  0  0  0  0  0  0  0  0  0  0
   41.3930   32.5130   38.1910 C   0  0  0  0  0  0  0  0  0  0  0  0
   40.1330   32.0430   38.2730 N   0  0  0  0  0  0  0  0  0  0  0  0
   39.0320   33.8120   40.9450 H   0  0  0  0  0  0  0  0  0  0  0  0
   41.3480   34.6670   40.7800 H   0  0  0  0  0  0  0  0  0  0  0  0
   42.2780   31.9900   37.1140 C   0  0  0  0  0  3  0  0  0  0  0  0
   43.7080   32.3970   37.2530 C   0  0  0  0  0  2  0  0  0  0  0  0
   44.6730   31.2660   36.9970 C   0  0  0  0  0  2  0  0  0  0  0  0
   44.2860   30.4120   35.8110 C   0  0  0  0  0  2  0  0  0  0  0  0
   42.8350   29.9870   35.8630 C   0  0  0  0  0  2  0  0  0  0  0  0
   42.1770   30.4630   37.1400 C   0  0  0  0  0  2  0  0  0  0  0  0
  1  4  1  0  0  0  0
  2  1  2  0  0  0  0
  3 11  2  0  0  0  0
  3  4  1  0  0  0  0
  4  5  2  0  0  0  0
  5 13  1  0  0  0  0
  5  6  1  0  0  0  0
  6  7  1  0  0  0  0
  7  8  1  0  0  0  0
  7 14  1  0  0  0  0
  8 15  1  0  0  0  0
  9  8  2  0  0  0  0
 10  6  2  0  0  0  0
 10  9  1  0  0  0  0
 11 10  1  0  0  0  0
 12  3  1  0  0  0  0
 16  9  1  0  0  0  0
 17 11  1  0  0  0  0
 18  1  1  0  0  0  0
 18 19  1  0  0  0  0
 19 24  1  0  0  0  0
 20 19  2  0  0  0  0
 20 25  1  0  0  0  0
 21 20  1  0  0  0  0
 22 23  1  0  0  0  0
 22 21  2  0  0  0  0
 23 18  2  0  0  0  0
 26 31  1  0  0  0  0
 26 27  1  0  0  0  0
 26 22  1  0  0  0  0
 28 27  1  0  0  0  0
 29 30  1  0  0  0  0
 29 28  1  0  0  0  0
 30 31  1  0  0  0  0
M  END
>  <minimizedAffinity>
-5.70604706

$$$$
