
 OpenBabel03252503133D

 31 34  0  0  0  0  0  0  0  0999 V2000
   45.1150   36.0590   43.3290 C   0  0  0  0  0  0  0  0  0  0  0  0
   45.7370   34.8400   43.0000 C   0  0  0  0  0  0  0  0  0  0  0  0
   45.7750   33.9200   44.0270 C   0  0  0  0  0  0  0  0  0  0  0  0
   45.2580   34.1650   45.2560 N   0  0  0  0  0  0  0  0  0  0  0  0
   44.6680   35.3620   45.5170 C   0  0  0  0  0  0  0  0  0  0  0  0
   44.5990   36.3060   44.5490 N   0  0  0  0  0  0  0  0  0  0  0  0
   45.0420   36.8420   42.5720 H   0  0  0  0  0  0  0  0  0  0  0  0
   44.2710   35.5080   46.5130 H   0  0  0  0  0  0  0  0  0  0  0  0
   46.3790   32.6750   43.7950 C   0  0  0  0  0  0  0  0  0  0  0  0
   47.6550   32.1960   43.8500 C   0  0  0  0  0  0  0  0  0  0  0  0
   47.9780   30.9370   43.5780 C   0  0  0  0  0  0  0  0  0  0  0  0
   46.9460   30.1170   43.2300 C   0  0  0  0  0  0  0  0  0  0  0  0
   45.4700   31.2200   43.3050 S   0  0  0  0  0  0  0  0  0  0  0  0
   48.4100   32.9550   44.1440 H   0  0  0  0  0  0  0  0  0  0  0  0
   48.9700   30.5070   43.6060 H   0  0  0  0  0  0  0  0  0  0  0  0
   46.9390   29.0430   42.9590 H   0  0  0  0  0  0  0  0  0  0  0  0
   46.2600   34.6330   41.7060 C   0  0  0  0  0  0  0  0  0  0  0  0
   47.4480   35.0500   41.5180 O   0  0  0  0  0  0  0  0  0  0  0  0
   45.4280   33.9590   40.6560 C   0  0  0  0  0  0  0  0  0  0  0  0
   44.1060   34.1900   40.3810 C   0  0  0  0  0  0  0  0  0  0  0  0
   43.7790   33.3680   39.3730 N   0  0  0  0  0  0  0  0  0  0  0  0
   44.8770   32.6500   39.0370 C   0  0  0  0  0  0  0  0  0  0  0  0
   45.9060   33.0160   39.8360 N   0  0  0  0  0  0  0  0  0  0  0  0
   43.4580   34.9020   40.8890 H   0  0  0  0  0  0  0  0  0  0  0  0
   42.8210   33.3550   38.9810 H   0  0  0  0  0  0  0  0  0  0  0  0
   44.9260   31.6210   37.9540 C   0  0  0  0  0  3  0  0  0  0  0  0
   43.6500   31.5130   37.1830 C   0  0  0  0  0  2  0  0  0  0  0  0
   43.9340   30.6920   35.9390 C   0  0  0  0  0  2  0  0  0  0  0  0
   44.8150   31.3990   34.9540 C   0  0  0  0  0  2  0  0  0  0  0  0
   45.5460   32.5090   35.7140 C   0  0  0  0  0  2  0  0  0  0  0  0
   46.0650   31.8790   37.0000 C   0  0  0  0  0  2  0  0  0  0  0  0
  1  6  1  0  0  0  0
  2  1  2  0  0  0  0
  2  3  1  0  0  0  0
  3  4  2  0  0  0  0
  4  5  1  0  0  0  0
  5  8  1  0  0  0  0
  6  5  2  0  0  0  0
  7  1  1  0  0  0  0
  9 10  2  0  0  0  0
  9  3  1  0  0  0  0
 10 14  1  0  0  0  0
 11 15  1  0  0  0  0
 11 10  1  0  0  0  0
 12 13  1  0  0  0  0
 12 11  2  0  0  0  0
 13  9  1  0  0  0  0
 16 12  1  0  0  0  0
 17  2  1  0  0  0  0
 18 17  2  0  0  0  0
 19 17  1  0  0  0  0
 20 19  2  0  0  0  0
 20 24  1  0  0  0  0
 21 20  1  0  0  0  0
 22 21  1  0  0  0  0
 22 23  2  0  0  0  0
 23 19  1  0  0  0  0
 25 21  1  0  0  0  0
 26 22  1  0  0  0  0
 27 26  1  0  0  0  0
 28 27  1  0  0  0  0
 29 30  1  0  0  0  0
 29 28  1  0  0  0  0
 30 31  1  0  0  0  0
 31 26  1  0  0  0  0
M  END
>  <minimizedAffinity>
-4.77919102

>  <minimizedRMSD>
0.599034309

$$$$
