
 OpenBabel03242510403D

 28 30  0  0  0  0  0  0  0  0999 V2000
   47.3690   31.7440   44.7890 Cl  0  0  0  0  0  0  0  0  0  0  0  0
   46.6190   31.8930   46.3640 C   0  0  0  0  0  0  0  0  0  0  0  0
   45.8100   32.9760   46.5890 C   0  0  0  0  0  0  0  0  0  0  0  0
   45.2270   33.1050   47.8030 C   0  0  0  0  0  0  0  0  0  0  0  0
   45.4580   32.1460   48.7840 C   0  0  0  0  0  0  0  0  0  0  0  0
   46.2700   31.0690   48.5420 C   0  0  0  0  0  0  0  0  0  0  0  0
   46.8950   30.9010   47.2910 C   0  0  0  0  0  0  0  0  0  0  0  0
   44.5890   33.9610   47.9730 H   0  0  0  0  0  0  0  0  0  0  0  0
   44.9790   32.2720   49.7460 H   0  0  0  0  0  0  0  0  0  0  0  0
   46.4330   30.3460   49.3100 H   0  0  0  0  0  0  0  0  0  0  0  0
   44.5360   35.8450   44.7040 C   0  0  0  0  0  0  0  0  0  0  0  0
   45.2340   35.7880   43.4780 C   0  0  0  0  0  0  0  0  0  0  0  0
   46.1550   34.7210   43.3400 C   0  0  0  0  0  0  0  0  0  0  0  0
   46.2940   33.8530   44.3730 N   0  0  0  0  0  0  0  0  0  0  0  0
   45.5980   33.9580   45.5220 C   0  0  0  0  0  0  0  0  0  0  0  0
   44.7190   34.9610   45.6780 N   0  0  0  0  0  0  0  0  0  0  0  0
   43.8210   36.6420   44.8570 H   0  0  0  0  0  0  0  0  0  0  0  0
   45.0610   36.5220   42.7070 H   0  0  0  0  0  0  0  0  0  0  0  0
   46.8610   34.6900   42.0600 C   0  0  0  0  0  0  0  0  0  0  0  0
   47.6580   33.5600   42.0280 F   0  0  0  0  0  0  0  0  0  0  0  0
   47.7260   35.7610   42.0540 F   0  0  0  0  0  0  0  0  0  0  0  0
   46.0140   34.6500   40.9770 F   0  0  0  0  0  0  0  0  0  0  0  0
   47.7510   29.7270   47.0600 C   0  0  0  0  0  0  0  0  0  0  0  0
   46.9370   28.4670   47.2010 C   0  0  0  0  0  0  0  0  0  0  0  0
   47.7130   27.2010   47.1560 C   0  0  0  0  0  0  0  0  0  0  0  0
   49.1600   27.3010   47.4790 C   0  0  0  0  0  0  0  0  0  0  0  0
   49.4620   28.4690   48.3880 C   0  0  0  0  0  0  0  0  0  0  0  0
   49.0330   29.7840   47.7850 C   0  0  0  0  0  0  0  0  0  0  0  0
  1  2  1  0  0  0  0
  2  3  2  0  0  0  0
  2  7  1  0  0  0  0
  3  4  1  0  0  0  0
  4  8  1  0  0  0  0
  4  5  2  0  0  0  0
  5  9  1  0  0  0  0
  6  5  1  0  0  0  0
  6 10  1  0  0  0  0
  7  6  2  0  0  0  0
 11 17  1  0  0  0  0
 11 16  1  0  0  0  0
 12 11  2  0  0  0  0
 13 12  1  0  0  0  0
 13 14  2  0  0  0  0
 14 15  1  0  0  0  0
 15 16  2  0  0  0  0
 15  3  1  0  0  0  0
 18 12  1  0  0  0  0
 19 13  1  0  0  0  0
 20 19  1  0  0  0  0
 21 19  1  0  0  0  0
 22 19  1  0  0  0  0
 23 24  1  0  0  0  0
 23  7  1  0  0  0  0
 23 28  1  0  0  0  0
 25 24  1  0  0  0  0
 25 26  1  0  0  0  0
 26 27  1  0  0  0  0
 28 27  1  0  0  0  0
M  END
>  <minimizedAffinity>
-6.15389872

>  <minimizedRMSD>
1.22169638

$$$$
