
 OpenBabel03242521353D

 28 31  0  0  0  0  0  0  0  0999 V2000
   35.8220   27.2230   38.7920 C   0  0  0  0  0  0  0  0  0  0  0  0
   35.2380   28.4590   38.7310 C   0  0  0  0  0  0  0  0  0  0  0  0
   35.4390   29.3570   39.7710 C   0  0  0  0  0  0  0  0  0  0  0  0
   36.2160   29.0350   40.8710 C   0  0  0  0  0  0  0  0  0  0  0  0
   36.5480   29.7400   41.9900 N   0  0  0  0  0  0  0  0  0  0  0  0
   37.3430   28.9360   42.7520 C   0  0  0  0  0  0  0  0  0  0  0  0
   37.4900   27.7570   42.0980 N   0  0  0  0  0  0  0  0  0  0  0  0
   36.8110   27.7810   40.9390 C   0  0  0  0  0  0  0  0  0  0  0  0
   36.6090   26.9010   39.9090 C   0  0  0  0  0  0  0  0  0  0  0  0
   35.7410   26.4330   38.0420 H   0  0  0  0  0  0  0  0  0  0  0  0
   34.9590   30.3320   39.6870 H   0  0  0  0  0  0  0  0  0  0  0  0
   36.2150   30.7310   42.1740 H   0  0  0  0  0  0  0  0  0  0  0  0
   37.7180   29.3020   43.6840 H   0  0  0  0  0  0  0  0  0  0  0  0
   37.0920   25.9300   40.0010 H   0  0  0  0  0  0  0  0  0  0  0  0
   34.0040   28.9690   35.1930 C   0  0  0  0  0  0  0  0  0  0  0  0
   34.8950   28.6320   36.2500 C   0  0  0  0  0  0  0  0  0  0  0  0
   34.4260   28.7720   37.5600 C   0  0  0  0  0  0  0  0  0  0  0  0
   33.1690   29.2130   37.7690 N   0  0  0  0  0  0  0  0  0  0  0  0
   32.3480   29.5250   36.7290 C   0  0  0  0  0  0  0  0  0  0  0  0
   32.7670   29.4030   35.4700 N   0  0  0  0  0  0  0  0  0  0  0  0
   34.4110   28.8460   34.1990 H   0  0  0  0  0  0  0  0  0  0  0  0
   35.8940   28.2810   36.1210 H   0  0  0  0  0  0  0  0  0  0  0  0
   30.9810   30.0030   37.0470 C   0  0  0  0  0  3  0  0  0  0  0  0
   30.6530   30.0370   38.5030 C   0  0  0  0  0  2  0  0  0  0  0  0
   29.1550   30.2330   38.6280 C   0  0  0  0  0  2  0  0  0  0  0  0
   28.6990   31.4840   37.9100 C   0  0  0  0  0  2  0  0  0  0  0  0
   29.2060   31.5440   36.4850 C   0  0  0  0  0  2  0  0  0  0  0  0
   30.7320   31.3940   36.4930 C   0  0  0  0  0  2  0  0  0  0  0  0
  1  9  1  0  0  0  0
  2  1  2  0  0  0  0
  2  3  1  0  0  0  0
  3  4  2  0  0  0  0
  4  8  1  0  0  0  0
  4  5  1  0  0  0  0
  5 12  1  0  0  0  0
  5  6  1  0  0  0  0
  6 13  1  0  0  0  0
  7  6  2  0  0  0  0
  8  7  1  0  0  0  0
  9 14  1  0  0  0  0
  9  8  2  0  0  0  0
 10  1  1  0  0  0  0
 11  3  1  0  0  0  0
 15 20  2  0  0  0  0
 15 16  1  0  0  0  0
 16 17  2  0  0  0  0
 17 18  1  0  0  0  0
 17  2  1  0  0  0  0
 19 23  1  0  0  0  0
 19 18  2  0  0  0  0
 20 19  1  0  0  0  0
 21 15  1  0  0  0  0
 22 16  1  0  0  0  0
 23 24  1  0  0  0  0
 24 25  1  0  0  0  0
 26 25  1  0  0  0  0
 27 28  1  0  0  0  0
 27 26  1  0  0  0  0
 28 23  1  0  0  0  0
M  END
>  <minimizedAffinity>
-5.88868856

$$$$

 OpenBabel03242521353D

 28 31  0  0  0  0  0  0  0  0999 V2000
   40.7150   32.2560   41.1360 C   0  0  0  0  0  0  0  0  0  0  0  0
   39.7730   31.9140   40.2050 C   0  0  0  0  0  0  0  0  0  0  0  0
   39.9540   32.2980   38.8820 C   0  0  0  0  0  0  0  0  0  0  0  0
   41.0660   33.0190   38.4800 C   0  0  0  0  0  0  0  0  0  0  0  0
   41.4500   33.4970   37.2620 N   0  0  0  0  0  0  0  0  0  0  0  0
   42.6390   34.1410   37.4380 C   0  0  0  0  0  0  0  0  0  0  0  0
   42.9700   34.0510   38.7500 N   0  0  0  0  0  0  0  0  0  0  0  0
   42.0250   33.3690   39.4210 C   0  0  0  0  0  0  0  0  0  0  0  0
   41.8400   32.9860   40.7230 C   0  0  0  0  0  0  0  0  0  0  0  0
   40.6870   32.0140   42.2010 H   0  0  0  0  0  0  0  0  0  0  0  0
   39.1830   32.0080   38.1690 H   0  0  0  0  0  0  0  0  0  0  0  0
   40.8810   33.3590   36.3760 H   0  0  0  0  0  0  0  0  0  0  0  0
   43.1190   34.5930   36.5970 H   0  0  0  0  0  0  0  0  0  0  0  0
   42.6140   33.2800   41.4290 H   0  0  0  0  0  0  0  0  0  0  0  0
   36.2550   30.7830   41.0080 C   0  0  0  0  0  0  0  0  0  0  0  0
   37.3000   31.6200   40.5280 C   0  0  0  0  0  0  0  0  0  0  0  0
   38.6120   31.1530   40.6570 C   0  0  0  0  0  0  0  0  0  0  0  0
   38.8340   29.9490   41.2210 N   0  0  0  0  0  0  0  0  0  0  0  0
   37.8040   29.1780   41.6670 C   0  0  0  0  0  0  0  0  0  0  0  0
   36.5440   29.5970   41.5590 N   0  0  0  0  0  0  0  0  0  0  0  0
   35.2590   31.1860   40.8870 H   0  0  0  0  0  0  0  0  0  0  0  0
   37.1620   32.5770   40.0770 H   0  0  0  0  0  0  0  0  0  0  0  0
   38.1350   27.8670   42.2750 C   0  0  0  0  0  3  0  0  0  0  0  0
   37.8550   26.6860   41.4060 C   0  0  0  0  0  2  0  0  0  0  0  0
   37.9430   25.4480   42.2780 C   0  0  0  0  0  2  0  0  0  0  0  0
   39.2880   25.3500   42.9630 C   0  0  0  0  0  2  0  0  0  0  0  0
   39.6630   26.6290   43.6800 C   0  0  0  0  0  2  0  0  0  0  0  0
   39.5940   27.7940   42.6850 C   0  0  0  0  0  2  0  0  0  0  0  0
  1 10  1  0  0  0  0
  2 17  1  0  0  0  0
  2  1  2  0  0  0  0
  3  2  1  0  0  0  0
  4  3  2  0  0  0  0
  4  8  1  0  0  0  0
  5  6  1  0  0  0  0
  5  4  1  0  0  0  0
  6  7  2  0  0  0  0
  7  8  1  0  0  0  0
  8  9  2  0  0  0  0
  9  1  1  0  0  0  0
  9 14  1  0  0  0  0
 11  3  1  0  0  0  0
 12  5  1  0  0  0  0
 13  6  1  0  0  0  0
 15 20  1  0  0  0  0
 16 17  1  0  0  0  0
 16 15  2  0  0  0  0
 17 18  2  0  0  0  0
 18 19  1  0  0  0  0
 19 23  1  0  0  0  0
 20 19  2  0  0  0  0
 21 15  1  0  0  0  0
 22 16  1  0  0  0  0
 23 28  1  0  0  0  0
 24 23  1  0  0  0  0
 24 25  1  0  0  0  0
 25 26  1  0  0  0  0
 26 27  1  0  0  0  0
 28 27  1  0  0  0  0
M  END
>  <minimizedAffinity>
-5.87699509

$$$$

 OpenBabel03242521353D

 28 31  0  0  0  0  0  0  0  0999 V2000
   36.8360   30.8810   40.6390 C   0  0  0  0  0  0  0  0  0  0  0  0
   37.8110   30.2760   41.3840 C   0  0  0  0  0  0  0  0  0  0  0  0
   39.0120   30.9400   41.5990 C   0  0  0  0  0  0  0  0  0  0  0  0
   39.2490   32.2020   41.0800 C   0  0  0  0  0  0  0  0  0  0  0  0
   40.3280   33.0310   41.1580 N   0  0  0  0  0  0  0  0  0  0  0  0
   40.0220   34.1600   40.4570 C   0  0  0  0  0  0  0  0  0  0  0  0
   38.7680   34.0130   39.9620 N   0  0  0  0  0  0  0  0  0  0  0  0
   38.2620   32.8210   40.3230 C   0  0  0  0  0  0  0  0  0  0  0  0
   37.0810   32.1610   40.1160 C   0  0  0  0  0  0  0  0  0  0  0  0
   35.8540   30.4650   40.4010 H   0  0  0  0  0  0  0  0  0  0  0  0
   39.7650   30.4270   42.1960 H   0  0  0  0  0  0  0  0  0  0  0  0
   41.2160   32.7830   41.6850 H   0  0  0  0  0  0  0  0  0  0  0  0
   40.7410   34.9480   40.3930 H   0  0  0  0  0  0  0  0  0  0  0  0
   36.3340   32.6800   39.5180 H   0  0  0  0  0  0  0  0  0  0  0  0
   37.0920   27.3570   43.6780 C   0  0  0  0  0  0  0  0  0  0  0  0
   37.3580   28.6980   43.2830 C   0  0  0  0  0  0  0  0  0  0  0  0
   37.5340   28.9470   41.9190 C   0  0  0  0  0  0  0  0  0  0  0  0
   37.4460   27.9250   41.0430 N   0  0  0  0  0  0  0  0  0  0  0  0
   37.1900   26.6550   41.4630 C   0  0  0  0  0  0  0  0  0  0  0  0
   37.0180   26.3880   42.7570 N   0  0  0  0  0  0  0  0  0  0  0  0
   36.9640   27.2140   44.7420 H   0  0  0  0  0  0  0  0  0  0  0  0
   37.4350   29.5290   43.9470 H   0  0  0  0  0  0  0  0  0  0  0  0
   37.1090   25.5910   40.4350 C   0  0  0  0  0  3  0  0  0  0  0  0
   36.4910   24.3150   40.9010 C   0  0  0  0  0  2  0  0  0  0  0  0
   36.7760   23.2590   39.8510 C   0  0  0  0  0  2  0  0  0  0  0  0
   36.2640   23.6800   38.4910 C   0  0  0  0  0  2  0  0  0  0  0  0
   36.7320   25.0670   38.1060 C   0  0  0  0  0  2  0  0  0  0  0  0
   36.3360   26.0510   39.2130 C   0  0  0  0  0  2  0  0  0  0  0  0
  1  2  1  0  0  0  0
  2  3  2  0  0  0  0
  2 17  1  0  0  0  0
  3 11  1  0  0  0  0
  4  5  1  0  0  0  0
  4  3  1  0  0  0  0
  5 12  1  0  0  0  0
  6  5  1  0  0  0  0
  7  8  1  0  0  0  0
  7  6  2  0  0  0  0
  8  4  2  0  0  0  0
  9  8  1  0  0  0  0
  9  1  2  0  0  0  0
 10  1  1  0  0  0  0
 13  6  1  0  0  0  0
 14  9  1  0  0  0  0
 15 21  1  0  0  0  0
 16 15  1  0  0  0  0
 16 22  1  0  0  0  0
 17 16  2  0  0  0  0
 18 19  2  0  0  0  0
 18 17  1  0  0  0  0
 19 20  1  0  0  0  0
 20 15  2  0  0  0  0
 23 24  1  0  0  0  0
 23 19  1  0  0  0  0
 25 24  1  0  0  0  0
 26 25  1  0  0  0  0
 27 26  1  0  0  0  0
 27 28  1  0  0  0  0
 28 23  1  0  0  0  0
M  END
>  <minimizedAffinity>
-5.84464884

$$$$

 OpenBabel03242521353D

 28 31  0  0  0  0  0  0  0  0999 V2000
   37.0120   29.9610   40.9130 C   0  0  0  0  0  0  0  0  0  0  0  0
   38.2110   29.7760   41.5450 C   0  0  0  0  0  0  0  0  0  0  0  0
   39.1040   30.8360   41.6320 C   0  0  0  0  0  0  0  0  0  0  0  0
   38.8130   32.0790   41.0950 C   0  0  0  0  0  0  0  0  0  0  0  0
   39.5200   33.2440   41.0590 N   0  0  0  0  0  0  0  0  0  0  0  0
   38.7550   34.1600   40.4000 C   0  0  0  0  0  0  0  0  0  0  0  0
   37.5960   33.5530   40.0420 N   0  0  0  0  0  0  0  0  0  0  0  0
   37.5970   32.2730   40.4520 C   0  0  0  0  0  0  0  0  0  0  0  0
   36.7210   31.2230   40.3710 C   0  0  0  0  0  0  0  0  0  0  0  0
   36.2290   29.2110   40.7800 H   0  0  0  0  0  0  0  0  0  0  0  0
   40.0480   30.6510   42.1430 H   0  0  0  0  0  0  0  0  0  0  0  0
   40.4860   33.3520   41.4870 H   0  0  0  0  0  0  0  0  0  0  0  0
   39.1290   35.1520   40.2620 H   0  0  0  0  0  0  0  0  0  0  0  0
   35.7800   31.4160   39.8590 H   0  0  0  0  0  0  0  0  0  0  0  0
   39.4840   26.9250   43.6790 C   0  0  0  0  0  0  0  0  0  0  0  0
   39.2880   28.2620   43.2340 C   0  0  0  0  0  0  0  0  0  0  0  0
   38.4900   28.4560   42.1020 C   0  0  0  0  0  0  0  0  0  0  0  0
   37.9470   27.3880   41.4840 N   0  0  0  0  0  0  0  0  0  0  0  0
   38.1600   26.1230   41.9430 C   0  0  0  0  0  0  0  0  0  0  0  0
   38.9160   25.9080   43.0190 N   0  0  0  0  0  0  0  0  0  0  0  0
   40.1070   26.8250   44.5560 H   0  0  0  0  0  0  0  0  0  0  0  0
   39.7020   29.1290   43.6970 H   0  0  0  0  0  0  0  0  0  0  0  0
   37.5250   25.0050   41.2050 C   0  0  0  0  0  3  0  0  0  0  0  0
   36.6940   25.4180   40.0360 C   0  0  0  0  0  2  0  0  0  0  0  0
   35.8810   24.2130   39.6060 C   0  0  0  0  0  2  0  0  0  0  0  0
   36.7700   23.0320   39.2870 C   0  0  0  0  0  2  0  0  0  0  0  0
   37.7560   22.7380   40.3980 C   0  0  0  0  0  2  0  0  0  0  0  0
   38.5560   24.0110   40.7020 C   0  0  0  0  0  2  0  0  0  0  0  0
  1  2  1  0  0  0  0
  2  3  2  0  0  0  0
  2 17  1  0  0  0  0
  3 11  1  0  0  0  0
  4  3  1  0  0  0  0
  5  4  1  0  0  0  0
  5 12  1  0  0  0  0
  6  5  1  0  0  0  0
  7  6  2  0  0  0  0
  7  8  1  0  0  0  0
  8  4  2  0  0  0  0
  9  8  1  0  0  0  0
  9  1  2  0  0  0  0
 10  1  1  0  0  0  0
 13  6  1  0  0  0  0
 14  9  1  0  0  0  0
 15 21  1  0  0  0  0
 16 15  1  0  0  0  0
 16 22  1  0  0  0  0
 17 16  2  0  0  0  0
 18 19  2  0  0  0  0
 18 17  1  0  0  0  0
 19 20  1  0  0  0  0
 20 15  2  0  0  0  0
 23 19  1  0  0  0  0
 24 23  1  0  0  0  0
 25 24  1  0  0  0  0
 26 25  1  0  0  0  0
 26 27  1  0  0  0  0
 27 28  1  0  0  0  0
 28 23  1  0  0  0  0
M  END
>  <minimizedAffinity>
-5.79484224

$$$$

 OpenBabel03242521353D

 28 31  0  0  0  0  0  0  0  0999 V2000
   35.8020   27.1930   38.4980 C   0  0  0  0  0  0  0  0  0  0  0  0
   34.8280   28.1530   38.4510 C   0  0  0  0  0  0  0  0  0  0  0  0
   34.8130   29.1520   39.4150 C   0  0  0  0  0  0  0  0  0  0  0  0
   35.7590   29.2030   40.4250 C   0  0  0  0  0  0  0  0  0  0  0  0
   35.9410   30.0720   41.4600 N   0  0  0  0  0  0  0  0  0  0  0  0
   37.0350   29.6480   42.1560 C   0  0  0  0  0  0  0  0  0  0  0  0
   37.5090   28.5340   41.5440 N   0  0  0  0  0  0  0  0  0  0  0  0
   36.7500   28.2310   40.4770 C   0  0  0  0  0  0  0  0  0  0  0  0
   36.7590   27.2490   39.5230 C   0  0  0  0  0  0  0  0  0  0  0  0
   35.9210   26.3590   37.8010 H   0  0  0  0  0  0  0  0  0  0  0  0
   34.0230   29.8990   39.3460 H   0  0  0  0  0  0  0  0  0  0  0  0
   35.3090   30.9070   41.6370 H   0  0  0  0  0  0  0  0  0  0  0  0
   37.3530   30.1970   43.0150 H   0  0  0  0  0  0  0  0  0  0  0  0
   37.5510   26.5070   39.5990 H   0  0  0  0  0  0  0  0  0  0  0  0
   32.5710   26.9410   35.6690 C   0  0  0  0  0  0  0  0  0  0  0  0
   33.5510   26.8860   36.6990 C   0  0  0  0  0  0  0  0  0  0  0  0
   33.8450   28.0740   37.3760 C   0  0  0  0  0  0  0  0  0  0  0  0
   33.2000   29.2080   37.0330 N   0  0  0  0  0  0  0  0  0  0  0  0
   32.2670   29.2170   36.0400 C   0  0  0  0  0  0  0  0  0  0  0  0
   31.9670   28.1010   35.3780 N   0  0  0  0  0  0  0  0  0  0  0  0
   32.3780   25.9990   35.1750 H   0  0  0  0  0  0  0  0  0  0  0  0
   34.0800   26.0090   36.9960 H   0  0  0  0  0  0  0  0  0  0  0  0
   31.6060   30.5060   35.7270 C   0  0  0  0  0  3  0  0  0  0  0  0
   31.2220   30.6810   34.2950 C   0  0  0  0  0  2  0  0  0  0  0  0
   30.8640   32.1410   34.0940 C   0  0  0  0  0  2  0  0  0  0  0  0
   29.7650   32.5750   35.0380 C   0  0  0  0  0  2  0  0  0  0  0  0
   30.0670   32.2130   36.4760 C   0  0  0  0  0  2  0  0  0  0  0  0
   30.3540   30.7090   36.5600 C   0  0  0  0  0  2  0  0  0  0  0  0
  1  9  1  0  0  0  0
  2  1  2  0  0  0  0
  2  3  1  0  0  0  0
  3  4  2  0  0  0  0
  4  8  1  0  0  0  0
  4  5  1  0  0  0  0
  5 12  1  0  0  0  0
  5  6  1  0  0  0  0
  6 13  1  0  0  0  0
  7  6  2  0  0  0  0
  8  7  1  0  0  0  0
  9 14  1  0  0  0  0
  9  8  2  0  0  0  0
 10  1  1  0  0  0  0
 11  3  1  0  0  0  0
 15 16  1  0  0  0  0
 16 22  1  0  0  0  0
 16 17  2  0  0  0  0
 17  2  1  0  0  0  0
 18 17  1  0  0  0  0
 19 18  2  0  0  0  0
 20 15  2  0  0  0  0
 20 19  1  0  0  0  0
 21 15  1  0  0  0  0
 23 19  1  0  0  0  0
 23 28  1  0  0  0  0
 24 23  1  0  0  0  0
 25 24  1  0  0  0  0
 25 26  1  0  0  0  0
 26 27  1  0  0  0  0
 27 28  1  0  0  0  0
M  END
>  <minimizedAffinity>
-5.63654232

$$$$

 OpenBabel03242521353D

 28 31  0  0  0  0  0  0  0  0999 V2000
   34.9050   28.9540   38.1970 C   0  0  0  0  0  0  0  0  0  0  0  0
   36.2560   29.0230   38.4000 C   0  0  0  0  0  0  0  0  0  0  0  0
   37.1080   29.0340   37.3030 C   0  0  0  0  0  0  0  0  0  0  0  0
   36.6250   28.9770   36.0060 C   0  0  0  0  0  0  0  0  0  0  0  0
   37.2570   28.9750   34.7980 N   0  0  0  0  0  0  0  0  0  0  0  0
   36.2920   28.9040   33.8380 C   0  0  0  0  0  0  0  0  0  0  0  0
   35.0880   28.8650   34.4610 N   0  0  0  0  0  0  0  0  0  0  0  0
   35.2550   28.9070   35.7950 C   0  0  0  0  0  0  0  0  0  0  0  0
   34.4210   28.8970   36.8810 C   0  0  0  0  0  0  0  0  0  0  0  0
   34.1360   28.9390   38.9730 H   0  0  0  0  0  0  0  0  0  0  0  0
   38.1780   29.0890   37.5040 H   0  0  0  0  0  0  0  0  0  0  0  0
   38.3130   29.0220   34.6930 H   0  0  0  0  0  0  0  0  0  0  0  0
   36.5780   28.8910   32.8080 H   0  0  0  0  0  0  0  0  0  0  0  0
   33.3540   28.8420   36.6720 H   0  0  0  0  0  0  0  0  0  0  0  0
   37.0260   30.1110   41.9390 C   0  0  0  0  0  0  0  0  0  0  0  0
   36.5050   30.1760   40.6160 C   0  0  0  0  0  0  0  0  0  0  0  0
   36.7370   29.0820   39.7770 C   0  0  0  0  0  0  0  0  0  0  0  0
   37.4330   28.0250   40.2430 N   0  0  0  0  0  0  0  0  0  0  0  0
   37.9140   28.0040   41.5170 C   0  0  0  0  0  0  0  0  0  0  0  0
   37.7100   29.0310   42.3390 N   0  0  0  0  0  0  0  0  0  0  0  0
   36.8220   30.9790   42.5500 H   0  0  0  0  0  0  0  0  0  0  0  0
   35.9510   30.9940   40.2150 H   0  0  0  0  0  0  0  0  0  0  0  0
   38.6690   26.8040   41.9490 C   0  0  0  0  0  3  0  0  0  0  0  0
   39.0880   26.8100   43.3820 C   0  0  0  0  0  2  0  0  0  0  0  0
   40.0990   25.6950   43.5660 C   0  0  0  0  0  2  0  0  0  0  0  0
   39.5310   24.3590   43.1420 C   0  0  0  0  0  2  0  0  0  0  0  0
   38.9220   24.4080   41.7570 C   0  0  0  0  0  2  0  0  0  0  0  0
   37.8780   25.5310   41.7130 C   0  0  0  0  0  2  0  0  0  0  0  0
  1  2  1  0  0  0  0
  1 10  1  0  0  0  0
  2 17  1  0  0  0  0
  3 11  1  0  0  0  0
  3  2  2  0  0  0  0
  4  3  1  0  0  0  0
  5  4  1  0  0  0  0
  6  7  2  0  0  0  0
  6  5  1  0  0  0  0
  7  8  1  0  0  0  0
  8  4  2  0  0  0  0
  8  9  1  0  0  0  0
  9  1  2  0  0  0  0
 12  5  1  0  0  0  0
 13  6  1  0  0  0  0
 14  9  1  0  0  0  0
 15 20  1  0  0  0  0
 15 21  1  0  0  0  0
 16 15  2  0  0  0  0
 17 18  2  0  0  0  0
 17 16  1  0  0  0  0
 18 19  1  0  0  0  0
 19 23  1  0  0  0  0
 19 20  2  0  0  0  0
 22 16  1  0  0  0  0
 23 24  1  0  0  0  0
 24 25  1  0  0  0  0
 26 25  1  0  0  0  0
 27 26  1  0  0  0  0
 28 27  1  0  0  0  0
 28 23  1  0  0  0  0
M  END
>  <minimizedAffinity>
-5.60156584

$$$$

 OpenBabel03242521353D

 28 31  0  0  0  0  0  0  0  0999 V2000
   35.8730   29.2140   37.2590 C   0  0  0  0  0  0  0  0  0  0  0  0
   35.1450   29.0780   38.4100 C   0  0  0  0  0  0  0  0  0  0  0  0
   33.7850   28.8100   38.3250 C   0  0  0  0  0  0  0  0  0  0  0  0
   33.1440   28.6770   37.1040 C   0  0  0  0  0  0  0  0  0  0  0  0
   31.8450   28.4210   36.7800 N   0  0  0  0  0  0  0  0  0  0  0  0
   31.7650   28.3980   35.4190 C   0  0  0  0  0  0  0  0  0  0  0  0
   33.0060   28.6380   34.9270 N   0  0  0  0  0  0  0  0  0  0  0  0
   33.8790   28.8150   35.9330 C   0  0  0  0  0  0  0  0  0  0  0  0
   35.2190   29.0780   36.0250 C   0  0  0  0  0  0  0  0  0  0  0  0
   36.9440   29.4240   37.1940 H   0  0  0  0  0  0  0  0  0  0  0  0
   33.2380   28.7080   39.2610 H   0  0  0  0  0  0  0  0  0  0  0  0
   31.0820   28.2750   37.5050 H   0  0  0  0  0  0  0  0  0  0  0  0
   30.8220   28.2090   34.9540 H   0  0  0  0  0  0  0  0  0  0  0  0
   35.7590   29.1790   35.0850 H   0  0  0  0  0  0  0  0  0  0  0  0
   36.7360   30.4640   41.5480 C   0  0  0  0  0  0  0  0  0  0  0  0
   36.0350   30.4570   40.3090 C   0  0  0  0  0  0  0  0  0  0  0  0
   35.8470   29.2220   39.6810 C   0  0  0  0  0  0  0  0  0  0  0  0
   36.3270   28.1030   40.2620 N   0  0  0  0  0  0  0  0  0  0  0  0
   36.9920   28.1550   41.4490 C   0  0  0  0  0  0  0  0  0  0  0  0
   37.1870   29.3160   42.0710 N   0  0  0  0  0  0  0  0  0  0  0  0
   36.8570   31.4410   41.9950 H   0  0  0  0  0  0  0  0  0  0  0  0
   35.6420   31.3200   39.8220 H   0  0  0  0  0  0  0  0  0  0  0  0
   37.4870   26.8790   42.0190 C   0  0  0  0  0  3  0  0  0  0  0  0
   37.0680   25.6550   41.2720 C   0  0  0  0  0  2  0  0  0  0  0  0
   37.3790   24.4580   42.1480 C   0  0  0  0  0  2  0  0  0  0  0  0
   38.8410   24.4200   42.5340 C   0  0  0  0  0  2  0  0  0  0  0  0
   39.3170   25.7370   43.1090 C   0  0  0  0  0  2  0  0  0  0  0  0
   39.0010   26.8580   42.1120 C   0  0  0  0  0  2  0  0  0  0  0  0
  1  2  1  0  0  0  0
  2 17  1  0  0  0  0
  3  2  2  0  0  0  0
  3 11  1  0  0  0  0
  4  3  1  0  0  0  0
  5  4  1  0  0  0  0
  5 12  1  0  0  0  0
  6  5  1  0  0  0  0
  7  6  2  0  0  0  0
  7  8  1  0  0  0  0
  8  9  1  0  0  0  0
  8  4  2  0  0  0  0
  9  1  2  0  0  0  0
 10  1  1  0  0  0  0
 13  6  1  0  0  0  0
 14  9  1  0  0  0  0
 15 21  1  0  0  0  0
 15 20  1  0  0  0  0
 16 15  2  0  0  0  0
 17 18  2  0  0  0  0
 17 16  1  0  0  0  0
 18 19  1  0  0  0  0
 19 23  1  0  0  0  0
 19 20  2  0  0  0  0
 22 16  1  0  0  0  0
 23 28  1  0  0  0  0
 24 23  1  0  0  0  0
 24 25  1  0  0  0  0
 25 26  1  0  0  0  0
 26 27  1  0  0  0  0
 28 27  1  0  0  0  0
M  END
>  <minimizedAffinity>
-5.59804058

$$$$

 OpenBabel03242521353D

 28 31  0  0  0  0  0  0  0  0999 V2000
   39.2890   31.4580   38.8480 C   0  0  0  0  0  0  0  0  0  0  0  0
   39.0980   31.2200   40.1820 C   0  0  0  0  0  0  0  0  0  0  0  0
   39.9100   31.8610   41.1090 C   0  0  0  0  0  0  0  0  0  0  0  0
   40.9110   32.7360   40.7180 C   0  0  0  0  0  0  0  0  0  0  0  0
   41.8140   33.4650   41.4340 N   0  0  0  0  0  0  0  0  0  0  0  0
   42.5710   34.1610   40.5390 C   0  0  0  0  0  0  0  0  0  0  0  0
   42.1280   33.8540   39.2940 N   0  0  0  0  0  0  0  0  0  0  0  0
   41.1090   32.9810   39.3660 C   0  0  0  0  0  0  0  0  0  0  0  0
   40.3040   32.3460   38.4580 C   0  0  0  0  0  0  0  0  0  0  0  0
   38.7190   31.0190   38.0260 H   0  0  0  0  0  0  0  0  0  0  0  0
   39.7290   31.6470   42.1610 H   0  0  0  0  0  0  0  0  0  0  0  0
   41.8650   33.4490   42.4950 H   0  0  0  0  0  0  0  0  0  0  0  0
   43.3470   34.8030   40.8970 H   0  0  0  0  0  0  0  0  0  0  0  0
   40.4910   32.5650   37.4080 H   0  0  0  0  0  0  0  0  0  0  0  0
   35.7430   29.5760   40.7650 C   0  0  0  0  0  0  0  0  0  0  0  0
   36.6820   30.5610   40.3470 C   0  0  0  0  0  0  0  0  0  0  0  0
   38.0370   30.2950   40.5640 C   0  0  0  0  0  0  0  0  0  0  0  0
   38.3980   29.1360   41.1510 N   0  0  0  0  0  0  0  0  0  0  0  0
   37.4680   28.2200   41.5360 C   0  0  0  0  0  0  0  0  0  0  0  0
   36.1690   28.4450   41.3430 N   0  0  0  0  0  0  0  0  0  0  0  0
   34.7090   29.8260   40.5760 H   0  0  0  0  0  0  0  0  0  0  0  0
   36.4320   31.4870   39.8800 H   0  0  0  0  0  0  0  0  0  0  0  0
   37.9500   26.9720   42.1750 C   0  0  0  0  0  3  0  0  0  0  0  0
   37.7920   25.7410   41.3440 C   0  0  0  0  0  2  0  0  0  0  0  0
   38.0280   24.5480   42.2480 C   0  0  0  0  0  2  0  0  0  0  0  0
   39.3850   24.6180   42.9140 C   0  0  0  0  0  2  0  0  0  0  0  0
   39.6240   25.9510   43.5890 C   0  0  0  0  0  2  0  0  0  0  0  0
   39.4140   27.0720   42.5630 C   0  0  0  0  0  2  0  0  0  0  0  0
  1  2  1  0  0  0  0
  2 17  1  0  0  0  0
  2  3  2  0  0  0  0
  3 11  1  0  0  0  0
  4  3  1  0  0  0  0
  4  5  1  0  0  0  0
  5 12  1  0  0  0  0
  6 13  1  0  0  0  0
  6  5  1  0  0  0  0
  7  8  1  0  0  0  0
  7  6  2  0  0  0  0
  8  4  2  0  0  0  0
  9  1  2  0  0  0  0
  9  8  1  0  0  0  0
 10  1  1  0  0  0  0
 14  9  1  0  0  0  0
 15 20  1  0  0  0  0
 16 17  1  0  0  0  0
 16 15  2  0  0  0  0
 17 18  2  0  0  0  0
 18 19  1  0  0  0  0
 19 23  1  0  0  0  0
 20 19  2  0  0  0  0
 21 15  1  0  0  0  0
 22 16  1  0  0  0  0
 23 28  1  0  0  0  0
 24 23  1  0  0  0  0
 24 25  1  0  0  0  0
 25 26  1  0  0  0  0
 26 27  1  0  0  0  0
 28 27  1  0  0  0  0
M  END
>  <minimizedAffinity>
-5.49446821

$$$$

 OpenBabel03242521353D

 28 31  0  0  0  0  0  0  0  0999 V2000
   36.3480   29.7630   36.2760 C   0  0  0  0  0  0  0  0  0  0  0  0
   35.9520   29.6660   37.5830 C   0  0  0  0  0  0  0  0  0  0  0  0
   34.7910   28.9680   37.8900 C   0  0  0  0  0  0  0  0  0  0  0  0
   34.0220   28.3670   36.9080 C   0  0  0  0  0  0  0  0  0  0  0  0
   32.8670   27.6440   36.9700 N   0  0  0  0  0  0  0  0  0  0  0  0
   32.5430   27.2900   35.6940 C   0  0  0  0  0  0  0  0  0  0  0  0
   33.4950   27.7950   34.8690 N   0  0  0  0  0  0  0  0  0  0  0  0
   34.4190   28.4630   35.5810 C   0  0  0  0  0  0  0  0  0  0  0  0
   35.5650   29.1520   35.2850 C   0  0  0  0  0  0  0  0  0  0  0  0
   37.2360   30.2820   35.9080 H   0  0  0  0  0  0  0  0  0  0  0  0
   34.5080   28.9110   38.9410 H   0  0  0  0  0  0  0  0  0  0  0  0
   32.3620   27.4310   37.8800 H   0  0  0  0  0  0  0  0  0  0  0  0
   31.6620   26.7120   35.5190 H   0  0  0  0  0  0  0  0  0  0  0  0
   35.8410   29.2040   34.2340 H   0  0  0  0  0  0  0  0  0  0  0  0
   38.0690   32.1260   39.5240 C   0  0  0  0  0  0  0  0  0  0  0  0
   37.2690   31.6130   38.4640 C   0  0  0  0  0  0  0  0  0  0  0  0
   36.7820   30.3090   38.5960 C   0  0  0  0  0  0  0  0  0  0  0  0
   37.0820   29.5980   39.7030 N   0  0  0  0  0  0  0  0  0  0  0  0
   37.8510   30.1280   40.6940 C   0  0  0  0  0  0  0  0  0  0  0  0
   38.3300   31.3670   40.5960 N   0  0  0  0  0  0  0  0  0  0  0  0
   38.4220   33.1370   39.3770 H   0  0  0  0  0  0  0  0  0  0  0  0
   37.0130   32.1450   37.5770 H   0  0  0  0  0  0  0  0  0  0  0  0
   38.1330   29.2790   41.8760 C   0  0  0  0  0  3  0  0  0  0  0  0
   37.0040   28.3980   42.2990 C   0  0  0  0  0  2  0  0  0  0  0  0
   37.3390   27.8560   43.6740 C   0  0  0  0  0  2  0  0  0  0  0  0
   38.6640   27.1280   43.6740 C   0  0  0  0  0  2  0  0  0  0  0  0
   39.7730   27.9530   43.0570 C   0  0  0  0  0  2  0  0  0  0  0  0
   39.3430   28.3910   41.6520 C   0  0  0  0  0  2  0  0  0  0  0  0
  1  2  1  0  0  0  0
  2  3  2  0  0  0  0
  2 17  1  0  0  0  0
  3 11  1  0  0  0  0
  4  5  1  0  0  0  0
  4  3  1  0  0  0  0
  5 12  1  0  0  0  0
  6  5  1  0  0  0  0
  7  8  1  0  0  0  0
  7  6  2  0  0  0  0
  8  4  2  0  0  0  0
  9  8  1  0  0  0  0
  9  1  2  0  0  0  0
 10  1  1  0  0  0  0
 13  6  1  0  0  0  0
 14  9  1  0  0  0  0
 15 20  1  0  0  0  0
 16 17  1  0  0  0  0
 16 15  2  0  0  0  0
 17 18  2  0  0  0  0
 18 19  1  0  0  0  0
 19 23  1  0  0  0  0
 20 19  2  0  0  0  0
 21 15  1  0  0  0  0
 22 16  1  0  0  0  0
 23 24  1  0  0  0  0
 24 25  1  0  0  0  0
 25 26  1  0  0  0  0
 27 26  1  0  0  0  0
 28 23  1  0  0  0  0
 28 27  1  0  0  0  0
M  END
>  <minimizedAffinity>
-5.45332193

$$$$
