
 OpenBabel03252501283D

 39 43  0  0  0  0  0  0  0  0999 V2000
   37.5280   30.5380   41.1610 C   0  0  0  0  0  0  0  0  0  0  0  0
   36.5130   31.1940   40.4770 C   0  0  0  0  0  0  0  0  0  0  0  0
   36.9970   32.3660   39.9830 C   0  0  0  0  0  0  0  0  0  0  0  0
   38.2860   32.4250   40.3570 N   0  0  0  0  0  0  0  0  0  0  0  0
   38.5840   31.3380   41.0530 N   0  0  0  0  0  0  0  0  0  0  0  0
   35.5060   30.7960   40.3780 H   0  0  0  0  0  0  0  0  0  0  0  0
   36.4460   33.0920   39.4070 H   0  0  0  0  0  0  0  0  0  0  0  0
   40.7670   32.0270   39.0740 F   0  0  0  0  0  0  0  0  0  0  0  0
   40.4280   33.2500   39.4810 C   0  0  0  0  0  0  0  0  0  0  0  0
   39.2310   33.4360   40.0980 C   0  0  0  0  0  0  0  0  0  0  0  0
   38.8560   34.7200   40.5350 C   0  0  0  0  0  0  0  0  0  0  0  0
   39.6670   35.8040   40.3570 C   0  0  0  0  0  0  0  0  0  0  0  0
   40.8730   35.5870   39.7290 C   0  0  0  0  0  0  0  0  0  0  0  0
   41.2600   34.3180   39.2890 C   0  0  0  0  0  0  0  0  0  0  0  0
   37.9060   34.9120   41.0340 H   0  0  0  0  0  0  0  0  0  0  0  0
   39.3660   36.7960   40.6990 H   0  0  0  0  0  0  0  0  0  0  0  0
   41.5360   36.4300   39.5740 H   0  0  0  0  0  0  0  0  0  0  0  0
   42.5540   34.2080   38.6400 C   0  0  0  0  0  0  0  0  0  0  0  0
   42.9070   34.1710   37.3050 C   0  0  0  0  0  0  0  0  0  0  0  0
   44.2470   34.0600   37.1910 N   0  0  0  0  0  0  0  0  0  0  0  0
   44.7500   34.0270   38.4460 C   0  0  0  0  0  0  0  0  0  0  0  0
   43.7290   34.1160   39.3090 N   0  0  0  0  0  0  0  0  0  0  0  0
   42.1830   34.2250   36.4920 H   0  0  0  0  0  0  0  0  0  0  0  0
   44.7970   34.0100   36.3030 H   0  0  0  0  0  0  0  0  0  0  0  0
   45.8230   33.9400   38.6230 H   0  0  0  0  0  0  0  0  0  0  0  0
   37.3700   28.0140   43.7970 C   0  0  0  0  0  0  0  0  0  0  0  0
   37.1560   26.8160   43.0650 C   0  0  0  0  0  0  0  0  0  0  0  0
   37.0720   26.9040   41.6640 C   0  0  0  0  0  0  0  0  0  0  0  0
   37.2020   28.1390   41.1350 N   0  0  0  0  0  0  0  0  0  0  0  0
   37.4010   29.2670   41.8230 C   0  0  0  0  0  0  0  0  0  0  0  0
   37.4860   29.2010   43.1710 N   0  0  0  0  0  0  0  0  0  0  0  0
   37.4270   27.8920   44.8710 H   0  0  0  0  0  0  0  0  0  0  0  0
   37.0670   25.8820   43.5890 H   0  0  0  0  0  0  0  0  0  0  0  0
   36.8520   25.6770   40.8940 C   0  0  0  0  0  3  0  0  0  0  0  0
   36.9880   24.4340   41.6930 C   0  0  0  0  0  2  0  0  0  0  0  0
   38.3180   23.7650   41.6470 C   0  0  0  0  0  2  0  0  0  0  0  0
   39.4690   24.5780   41.1770 C   0  0  0  0  0  2  0  0  0  0  0  0
   39.1490   25.5490   40.0810 C   0  0  0  0  0  2  0  0  0  0  0  0
   37.7190   25.5620   39.6700 C   0  0  0  0  0  2  0  0  0  0  0  0
  1 30  1  0  0  0  0
  2  1  1  0  0  0  0
  3  4  1  0  0  0  0
  3  2  2  0  0  0  0
  4  5  1  0  0  0  0
  5  1  2  0  0  0  0
  6  2  1  0  0  0  0
  7  3  1  0  0  0  0
  8  9  1  0  0  0  0
  9 10  1  0  0  0  0
 10  4  1  0  0  0  0
 10 11  2  0  0  0  0
 11 15  1  0  0  0  0
 12 11  1  0  0  0  0
 12 16  1  0  0  0  0
 13 12  2  0  0  0  0
 14  9  2  0  0  0  0
 14 13  1  0  0  0  0
 17 13  1  0  0  0  0
 18 14  1  0  0  0  0
 18 22  1  0  0  0  0
 19 18  2  0  0  0  0
 20 19  1  0  0  0  0
 20 21  1  0  0  0  0
 21 25  1  0  0  0  0
 21 22  2  0  0  0  0
 23 19  1  0  0  0  0
 24 20  1  0  0  0  0
 26 32  1  0  0  0  0
 27 33  1  0  0  0  0
 27 26  2  0  0  0  0
 28 27  1  0  0  0  0
 29 28  2  0  0  0  0
 29 30  1  0  0  0  0
 30 31  2  0  0  0  0
 31 26  1  0  0  0  0
 34 28  1  0  0  0  0
 34 35  1  0  0  0  0
 36 35  1  0  0  0  0
 37 36  1  0  0  0  0
 38 37  1  0  0  0  0
 39 38  1  0  0  0  0
 39 34  1  0  0  0  0
M  END
>  <minimizedAffinity>
-7.81775951

$$$$

 OpenBabel03252501283D

 39 43  0  0  0  0  0  0  0  0999 V2000
   37.6840   30.4490   41.3280 C   0  0  0  0  0  0  0  0  0  0  0  0
   36.6260   31.0620   40.6720 C   0  0  0  0  0  0  0  0  0  0  0  0
   37.0560   32.2380   40.1380 C   0  0  0  0  0  0  0  0  0  0  0  0
   38.3550   32.3410   40.4610 N   0  0  0  0  0  0  0  0  0  0  0  0
   38.7120   31.2770   41.1650 N   0  0  0  0  0  0  0  0  0  0  0  0
   35.6280   30.6340   40.6190 H   0  0  0  0  0  0  0  0  0  0  0  0
   36.4620   32.9360   39.5700 H   0  0  0  0  0  0  0  0  0  0  0  0
   40.8450   31.9750   39.1850 F   0  0  0  0  0  0  0  0  0  0  0  0
   40.4610   33.2030   39.5330 C   0  0  0  0  0  0  0  0  0  0  0  0
   39.2600   33.3730   40.1470 C   0  0  0  0  0  0  0  0  0  0  0  0
   38.8370   34.6620   40.5230 C   0  0  0  0  0  0  0  0  0  0  0  0
   39.6060   35.7660   40.2860 C   0  0  0  0  0  0  0  0  0  0  0  0
   40.8170   35.5650   39.6630 C   0  0  0  0  0  0  0  0  0  0  0  0
   41.2500   34.2920   39.2840 C   0  0  0  0  0  0  0  0  0  0  0  0
   37.8820   34.8420   41.0170 H   0  0  0  0  0  0  0  0  0  0  0  0
   39.2680   36.7620   40.5820 H   0  0  0  0  0  0  0  0  0  0  0  0
   41.4460   36.4240   39.4630 H   0  0  0  0  0  0  0  0  0  0  0  0
   42.5450   34.1990   38.6340 C   0  0  0  0  0  0  0  0  0  0  0  0
   42.8970   34.1610   37.2990 C   0  0  0  0  0  0  0  0  0  0  0  0
   44.2380   34.0710   37.1830 N   0  0  0  0  0  0  0  0  0  0  0  0
   44.7430   34.0530   38.4380 C   0  0  0  0  0  0  0  0  0  0  0  0
   43.7220   34.1300   39.3020 N   0  0  0  0  0  0  0  0  0  0  0  0
   42.1710   34.1990   36.4860 H   0  0  0  0  0  0  0  0  0  0  0  0
   44.7870   34.0250   36.2950 H   0  0  0  0  0  0  0  0  0  0  0  0
   45.8180   33.9850   38.6140 H   0  0  0  0  0  0  0  0  0  0  0  0
   36.3710   27.3590   42.7660 C   0  0  0  0  0  0  0  0  0  0  0  0
   37.5270   26.7720   43.3460 C   0  0  0  0  0  0  0  0  0  0  0  0
   38.7470   27.4610   43.2280 C   0  0  0  0  0  0  0  0  0  0  0  0
   38.7080   28.6360   42.5640 N   0  0  0  0  0  0  0  0  0  0  0  0
   37.6210   29.1880   42.0170 C   0  0  0  0  0  0  0  0  0  0  0  0
   36.4380   28.5390   42.1220 N   0  0  0  0  0  0  0  0  0  0  0  0
   35.4580   26.7890   42.8850 H   0  0  0  0  0  0  0  0  0  0  0  0
   37.4460   25.8280   43.8550 H   0  0  0  0  0  0  0  0  0  0  0  0
   39.9490   26.8690   43.8210 C   0  0  0  0  0  3  0  0  0  0  0  0
   41.1940   27.6250   43.5360 C   0  0  0  0  0  2  0  0  0  0  0  0
   42.0010   27.1500   42.3770 C   0  0  0  0  0  2  0  0  0  0  0  0
   41.3180   26.2750   41.3900 C   0  0  0  0  0  2  0  0  0  0  0  0
   40.3260   25.3170   41.9770 C   0  0  0  0  0  2  0  0  0  0  0  0
   40.1640   25.4260   43.4520 C   0  0  0  0  0  2  0  0  0  0  0  0
  1 30  1  0  0  0  0
  2  1  1  0  0  0  0
  3  4  1  0  0  0  0
  3  2  2  0  0  0  0
  4  5  1  0  0  0  0
  5  1  2  0  0  0  0
  6  2  1  0  0  0  0
  7  3  1  0  0  0  0
  8  9  1  0  0  0  0
  9 10  1  0  0  0  0
 10  4  1  0  0  0  0
 10 11  2  0  0  0  0
 11 15  1  0  0  0  0
 12 11  1  0  0  0  0
 12 16  1  0  0  0  0
 13 12  2  0  0  0  0
 14  9  2  0  0  0  0
 14 13  1  0  0  0  0
 17 13  1  0  0  0  0
 18 14  1  0  0  0  0
 18 22  1  0  0  0  0
 19 18  2  0  0  0  0
 20 19  1  0  0  0  0
 20 21  1  0  0  0  0
 21 25  1  0  0  0  0
 21 22  2  0  0  0  0
 23 19  1  0  0  0  0
 24 20  1  0  0  0  0
 26 32  1  0  0  0  0
 26 27  1  0  0  0  0
 27 33  1  0  0  0  0
 28 27  2  0  0  0  0
 28 34  1  0  0  0  0
 29 28  1  0  0  0  0
 30 31  1  0  0  0  0
 30 29  2  0  0  0  0
 31 26  2  0  0  0  0
 35 34  1  0  0  0  0
 36 35  1  0  0  0  0
 37 38  1  0  0  0  0
 37 36  1  0  0  0  0
 38 39  1  0  0  0  0
 39 34  1  0  0  0  0
M  END
>  <minimizedAffinity>
-7.52321911

$$$$

 OpenBabel03252501283D

 39 43  0  0  0  0  0  0  0  0999 V2000
   38.8790   32.2990   40.7480 C   0  0  0  0  0  0  0  0  0  0  0  0
   37.5410   32.0300   40.4890 C   0  0  0  0  0  0  0  0  0  0  0  0
   37.2040   30.8500   41.0780 C   0  0  0  0  0  0  0  0  0  0  0  0
   38.3150   30.4070   41.6890 N   0  0  0  0  0  0  0  0  0  0  0  0
   39.2960   31.2730   41.4840 N   0  0  0  0  0  0  0  0  0  0  0  0
   36.9040   32.6860   39.9010 H   0  0  0  0  0  0  0  0  0  0  0  0
   36.2340   30.3790   41.0530 H   0  0  0  0  0  0  0  0  0  0  0  0
   40.6470   28.8190   41.6680 F   0  0  0  0  0  0  0  0  0  0  0  0
   39.6160   28.4600   42.4330 C   0  0  0  0  0  0  0  0  0  0  0  0
   38.4950   29.2290   42.4390 C   0  0  0  0  0  0  0  0  0  0  0  0
   37.3960   28.8670   43.2410 C   0  0  0  0  0  0  0  0  0  0  0  0
   37.4190   27.7500   44.0260 C   0  0  0  0  0  0  0  0  0  0  0  0
   38.5660   26.9890   44.0000 C   0  0  0  0  0  0  0  0  0  0  0  0
   39.6650   27.3360   43.2100 C   0  0  0  0  0  0  0  0  0  0  0  0
   36.4790   29.4560   43.2740 H   0  0  0  0  0  0  0  0  0  0  0  0
   36.5610   27.4780   44.6440 H   0  0  0  0  0  0  0  0  0  0  0  0
   38.6110   26.0980   44.6140 H   0  0  0  0  0  0  0  0  0  0  0  0
   40.8220   26.4600   43.2630 C   0  0  0  0  0  0  0  0  0  0  0  0
   41.0280   25.1860   42.7690 C   0  0  0  0  0  0  0  0  0  0  0  0
   42.2790   24.7780   43.0680 N   0  0  0  0  0  0  0  0  0  0  0  0
   42.8720   25.7850   43.7490 C   0  0  0  0  0  0  0  0  0  0  0  0
   41.9920   26.7900   43.8620 N   0  0  0  0  0  0  0  0  0  0  0  0
   40.2690   24.6250   42.2240 H   0  0  0  0  0  0  0  0  0  0  0  0
   42.7120   23.8590   42.8220 H   0  0  0  0  0  0  0  0  0  0  0  0
   43.8990   25.6980   44.1060 H   0  0  0  0  0  0  0  0  0  0  0  0
   39.9610   35.7660   40.3590 C   0  0  0  0  0  0  0  0  0  0  0  0
   41.0000   35.6590   39.3970 C   0  0  0  0  0  0  0  0  0  0  0  0
   41.3080   34.3810   38.8970 C   0  0  0  0  0  0  0  0  0  0  0  0
   40.5770   33.3570   39.3850 N   0  0  0  0  0  0  0  0  0  0  0  0
   39.6000   33.4560   40.2910 C   0  0  0  0  0  0  0  0  0  0  0  0
   39.2900   34.6780   40.7830 N   0  0  0  0  0  0  0  0  0  0  0  0
   39.7630   36.7700   40.7110 H   0  0  0  0  0  0  0  0  0  0  0  0
   41.5200   36.5430   39.0750 H   0  0  0  0  0  0  0  0  0  0  0  0
   42.3770   34.2540   37.9030 C   0  0  0  0  0  3  0  0  0  0  0  0
   42.3480   32.9750   37.1500 C   0  0  0  0  0  2  0  0  0  0  0  0
   43.2260   31.8880   37.6650 C   0  0  0  0  0  2  0  0  0  0  0  0
   43.7100   32.0150   39.0650 C   0  0  0  0  0  2  0  0  0  0  0  0
   44.0210   33.4160   39.4990 C   0  0  0  0  0  2  0  0  0  0  0  0
   43.7590   34.4530   38.4650 C   0  0  0  0  0  2  0  0  0  0  0  0
  1  5  2  0  0  0  0
  2  1  1  0  0  0  0
  2  3  2  0  0  0  0
  3  4  1  0  0  0  0
  4 10  1  0  0  0  0
  5  4  1  0  0  0  0
  6  2  1  0  0  0  0
  7  3  1  0  0  0  0
  8  9  1  0  0  0  0
  9 10  2  0  0  0  0
  9 14  1  0  0  0  0
 10 11  1  0  0  0  0
 11 15  1  0  0  0  0
 11 12  2  0  0  0  0
 12 16  1  0  0  0  0
 13 12  1  0  0  0  0
 13 17  1  0  0  0  0
 14 18  1  0  0  0  0
 14 13  2  0  0  0  0
 18 22  1  0  0  0  0
 19 20  1  0  0  0  0
 19 18  2  0  0  0  0
 20 21  1  0  0  0  0
 21 22  2  0  0  0  0
 21 25  1  0  0  0  0
 23 19  1  0  0  0  0
 24 20  1  0  0  0  0
 26 32  1  0  0  0  0
 26 31  1  0  0  0  0
 27 26  2  0  0  0  0
 28 29  2  0  0  0  0
 28 27  1  0  0  0  0
 29 30  1  0  0  0  0
 30  1  1  0  0  0  0
 30 31  2  0  0  0  0
 33 27  1  0  0  0  0
 34 39  1  0  0  0  0
 34 28  1  0  0  0  0
 35 36  1  0  0  0  0
 35 34  1  0  0  0  0
 36 37  1  0  0  0  0
 37 38  1  0  0  0  0
 39 38  1  0  0  0  0
M  END
>  <minimizedAffinity>
-7.2139492

$$$$

 OpenBabel03252501283D

 39 43  0  0  0  0  0  0  0  0999 V2000
   38.3870   32.0590   40.3920 C   0  0  0  0  0  0  0  0  0  0  0  0
   37.0760   31.9440   39.9520 C   0  0  0  0  0  0  0  0  0  0  0  0
   36.5470   30.7850   40.4320 C   0  0  0  0  0  0  0  0  0  0  0  0
   37.5180   30.2030   41.1550 N   0  0  0  0  0  0  0  0  0  0  0  0
   38.5990   30.9680   41.1210 N   0  0  0  0  0  0  0  0  0  0  0  0
   36.5900   32.6860   39.3230 H   0  0  0  0  0  0  0  0  0  0  0  0
   35.5470   30.4210   40.2600 H   0  0  0  0  0  0  0  0  0  0  0  0
   37.5850   27.6450   39.9670 F   0  0  0  0  0  0  0  0  0  0  0  0
   37.5110   27.7500   41.2940 C   0  0  0  0  0  0  0  0  0  0  0  0
   37.4790   28.9860   41.8610 C   0  0  0  0  0  0  0  0  0  0  0  0
   37.4010   29.1180   43.2600 C   0  0  0  0  0  0  0  0  0  0  0  0
   37.3540   28.0280   44.0810 C   0  0  0  0  0  0  0  0  0  0  0  0
   37.3880   26.7890   43.4810 C   0  0  0  0  0  0  0  0  0  0  0  0
   37.4660   26.6420   42.0940 C   0  0  0  0  0  0  0  0  0  0  0  0
   37.3720   30.0890   43.7530 H   0  0  0  0  0  0  0  0  0  0  0  0
   37.2940   28.1410   45.1660 H   0  0  0  0  0  0  0  0  0  0  0  0
   37.3530   25.9070   44.1100 H   0  0  0  0  0  0  0  0  0  0  0  0
   37.4950   25.2870   41.5710 C   0  0  0  0  0  0  0  0  0  0  0  0
   38.3000   24.2070   41.8760 C   0  0  0  0  0  0  0  0  0  0  0  0
   37.9460   23.1470   41.1200 N   0  0  0  0  0  0  0  0  0  0  0  0
   36.9190   23.5450   40.3360 C   0  0  0  0  0  0  0  0  0  0  0  0
   36.6540   24.8300   40.6120 N   0  0  0  0  0  0  0  0  0  0  0  0
   39.0940   24.2430   42.6220 H   0  0  0  0  0  0  0  0  0  0  0  0
   38.3800   22.1960   41.1350 H   0  0  0  0  0  0  0  0  0  0  0  0
   36.4500   22.8610   39.6270 H   0  0  0  0  0  0  0  0  0  0  0  0
   39.9580   35.3570   40.4560 C   0  0  0  0  0  0  0  0  0  0  0  0
   40.9920   35.2250   39.4910 C   0  0  0  0  0  0  0  0  0  0  0  0
   41.1270   33.9910   38.8320 C   0  0  0  0  0  0  0  0  0  0  0  0
   40.2480   33.0280   39.1820 N   0  0  0  0  0  0  0  0  0  0  0  0
   39.2760   33.1500   40.0900 C   0  0  0  0  0  0  0  0  0  0  0  0
   39.1300   34.3310   40.7330 N   0  0  0  0  0  0  0  0  0  0  0  0
   39.8960   36.3260   40.9340 H   0  0  0  0  0  0  0  0  0  0  0  0
   41.6390   36.0600   39.2880 H   0  0  0  0  0  0  0  0  0  0  0  0
   42.1890   33.8390   37.8340 C   0  0  0  0  0  3  0  0  0  0  0  0
   42.1820   32.5240   37.1440 C   0  0  0  0  0  2  0  0  0  0  0  0
   43.0890   31.4840   37.7030 C   0  0  0  0  0  2  0  0  0  0  0  0
   43.5840   31.6900   39.0890 C   0  0  0  0  0  2  0  0  0  0  0  0
   43.8670   33.1170   39.4510 C   0  0  0  0  0  2  0  0  0  0  0  0
   43.5710   34.0950   38.3710 C   0  0  0  0  0  2  0  0  0  0  0  0
  1  5  2  0  0  0  0
  2  1  1  0  0  0  0
  2  3  2  0  0  0  0
  3  4  1  0  0  0  0
  4 10  1  0  0  0  0
  5  4  1  0  0  0  0
  6  2  1  0  0  0  0
  7  3  1  0  0  0  0
  8  9  1  0  0  0  0
  9 10  2  0  0  0  0
  9 14  1  0  0  0  0
 10 11  1  0  0  0  0
 11 15  1  0  0  0  0
 11 12  2  0  0  0  0
 12 16  1  0  0  0  0
 13 12  1  0  0  0  0
 13 17  1  0  0  0  0
 14 13  2  0  0  0  0
 18 19  2  0  0  0  0
 18 14  1  0  0  0  0
 19 23  1  0  0  0  0
 20 24  1  0  0  0  0
 20 19  1  0  0  0  0
 21 22  2  0  0  0  0
 21 20  1  0  0  0  0
 22 18  1  0  0  0  0
 25 21  1  0  0  0  0
 26 31  1  0  0  0  0
 26 32  1  0  0  0  0
 27 26  2  0  0  0  0
 28 29  2  0  0  0  0
 28 27  1  0  0  0  0
 29 30  1  0  0  0  0
 30  1  1  0  0  0  0
 30 31  2  0  0  0  0
 33 27  1  0  0  0  0
 34 39  1  0  0  0  0
 34 28  1  0  0  0  0
 35 36  1  0  0  0  0
 35 34  1  0  0  0  0
 36 37  1  0  0  0  0
 37 38  1  0  0  0  0
 39 38  1  0  0  0  0
M  END
>  <minimizedAffinity>
-7.00097561

$$$$

 OpenBabel03252501283D

 39 43  0  0  0  0  0  0  0  0999 V2000
   37.4130   29.6480   38.9400 C   0  0  0  0  0  0  0  0  0  0  0  0
   36.7750   30.3920   37.9570 C   0  0  0  0  0  0  0  0  0  0  0  0
   37.2980   31.6490   37.9410 C   0  0  0  0  0  0  0  0  0  0  0  0
   38.2410   31.6720   38.8980 N   0  0  0  0  0  0  0  0  0  0  0  0
   38.2960   30.4830   39.4800 N   0  0  0  0  0  0  0  0  0  0  0  0
   35.9870   29.9920   37.3230 H   0  0  0  0  0  0  0  0  0  0  0  0
   37.0060   32.4540   37.2860 H   0  0  0  0  0  0  0  0  0  0  0  0
   40.9830   31.8890   38.2720 F   0  0  0  0  0  0  0  0  0  0  0  0
   40.3960   32.8490   38.9870 C   0  0  0  0  0  0  0  0  0  0  0  0
   39.0740   32.7390   39.2860 C   0  0  0  0  0  0  0  0  0  0  0  0
   38.4360   33.7420   40.0400 C   0  0  0  0  0  0  0  0  0  0  0  0
   39.1120   34.8400   40.4890 C   0  0  0  0  0  0  0  0  0  0  0  0
   40.4500   34.9260   40.1730 C   0  0  0  0  0  0  0  0  0  0  0  0
   41.0970   33.9380   39.4250 C   0  0  0  0  0  0  0  0  0  0  0  0
   37.3790   33.6920   40.3010 H   0  0  0  0  0  0  0  0  0  0  0  0
   38.6080   35.6120   41.0730 H   0  0  0  0  0  0  0  0  0  0  0  0
   41.0090   35.7870   40.5160 H   0  0  0  0  0  0  0  0  0  0  0  0
   42.5090   34.1340   39.1510 C   0  0  0  0  0  0  0  0  0  0  0  0
   43.1730   34.5230   38.0040 C   0  0  0  0  0  0  0  0  0  0  0  0
   44.5010   34.5630   38.2380 N   0  0  0  0  0  0  0  0  0  0  0  0
   44.6880   34.2040   39.5280 C   0  0  0  0  0  0  0  0  0  0  0  0
   43.4890   33.9470   40.0690 N   0  0  0  0  0  0  0  0  0  0  0  0
   42.6660   34.7540   37.0670 H   0  0  0  0  0  0  0  0  0  0  0  0
   45.2480   34.8240   37.5540 H   0  0  0  0  0  0  0  0  0  0  0  0
   45.6870   34.1590   39.9640 H   0  0  0  0  0  0  0  0  0  0  0  0
   36.4540   26.1420   38.5780 C   0  0  0  0  0  0  0  0  0  0  0  0
   36.6060   25.6430   39.8990 C   0  0  0  0  0  0  0  0  0  0  0  0
   37.0380   26.5340   40.8960 C   0  0  0  0  0  0  0  0  0  0  0  0
   37.2750   27.8030   40.5010 N   0  0  0  0  0  0  0  0  0  0  0  0
   37.1340   28.2730   39.2590 C   0  0  0  0  0  0  0  0  0  0  0  0
   36.7170   27.4300   38.2860 N   0  0  0  0  0  0  0  0  0  0  0  0
   36.1180   25.4170   37.8480 H   0  0  0  0  0  0  0  0  0  0  0  0
   36.3880   24.6100   40.1040 H   0  0  0  0  0  0  0  0  0  0  0  0
   37.2000   26.0340   42.2640 C   0  0  0  0  0  3  0  0  0  0  0  0
   37.6000   27.0760   43.2420 C   0  0  0  0  0  2  0  0  0  0  0  0
   39.0590   27.1880   43.5230 C   0  0  0  0  0  2  0  0  0  0  0  0
   39.9870   26.5730   42.5390 C   0  0  0  0  0  2  0  0  0  0  0  0
   39.5000   25.2940   41.9260 C   0  0  0  0  0  2  0  0  0  0  0  0
   38.1480   24.8710   42.3810 C   0  0  0  0  0  2  0  0  0  0  0  0
  1 30  1  0  0  0  0
  1  5  2  0  0  0  0
  2  1  1  0  0  0  0
  3  2  2  0  0  0  0
  3  4  1  0  0  0  0
  4 10  1  0  0  0  0
  4  5  1  0  0  0  0
  6  2  1  0  0  0  0
  7  3  1  0  0  0  0
  8  9  1  0  0  0  0
  9 10  2  0  0  0  0
  9 14  1  0  0  0  0
 10 11  1  0  0  0  0
 11 15  1  0  0  0  0
 11 12  2  0  0  0  0
 12 16  1  0  0  0  0
 13 12  1  0  0  0  0
 13 17  1  0  0  0  0
 14 13  2  0  0  0  0
 18 14  1  0  0  0  0
 18 22  1  0  0  0  0
 19 20  1  0  0  0  0
 19 18  2  0  0  0  0
 20 21  1  0  0  0  0
 21 25  1  0  0  0  0
 21 22  2  0  0  0  0
 23 19  1  0  0  0  0
 24 20  1  0  0  0  0
 26 27  1  0  0  0  0
 27 33  1  0  0  0  0
 27 28  2  0  0  0  0
 28 34  1  0  0  0  0
 29 28  1  0  0  0  0
 30 29  2  0  0  0  0
 31 26  2  0  0  0  0
 31 30  1  0  0  0  0
 32 26  1  0  0  0  0
 34 39  1  0  0  0  0
 34 35  1  0  0  0  0
 35 36  1  0  0  0  0
 37 36  1  0  0  0  0
 38 39  1  0  0  0  0
 38 37  1  0  0  0  0
M  END
>  <minimizedAffinity>
-6.88400841

$$$$

 OpenBabel03252501283D

 39 43  0  0  0  0  0  0  0  0999 V2000
   38.4160   32.3050   40.6050 C   0  0  0  0  0  0  0  0  0  0  0  0
   37.1100   32.2400   40.1380 C   0  0  0  0  0  0  0  0  0  0  0  0
   36.5730   31.0390   40.4880 C   0  0  0  0  0  0  0  0  0  0  0  0
   37.5330   30.3820   41.1590 N   0  0  0  0  0  0  0  0  0  0  0  0
   38.6160   31.1430   41.2190 N   0  0  0  0  0  0  0  0  0  0  0  0
   36.6340   33.0450   39.5830 H   0  0  0  0  0  0  0  0  0  0  0  0
   35.5740   30.6980   40.2660 H   0  0  0  0  0  0  0  0  0  0  0  0
   37.6300   27.9610   39.7150 F   0  0  0  0  0  0  0  0  0  0  0  0
   37.5280   27.9280   41.0430 C   0  0  0  0  0  0  0  0  0  0  0  0
   37.4820   29.0980   41.7340 C   0  0  0  0  0  0  0  0  0  0  0  0
   37.3750   29.0850   43.1370 C   0  0  0  0  0  0  0  0  0  0  0  0
   37.3150   27.9150   43.8400 C   0  0  0  0  0  0  0  0  0  0  0  0
   37.3630   26.7450   43.1160 C   0  0  0  0  0  0  0  0  0  0  0  0
   37.4700   26.7430   41.7230 C   0  0  0  0  0  0  0  0  0  0  0  0
   37.3350   29.9990   43.7290 H   0  0  0  0  0  0  0  0  0  0  0  0
   37.2320   27.9160   44.9290 H   0  0  0  0  0  0  0  0  0  0  0  0
   37.3180   25.8030   43.6490 H   0  0  0  0  0  0  0  0  0  0  0  0
   37.5130   25.4490   41.0640 C   0  0  0  0  0  0  0  0  0  0  0  0
   36.6000   24.4140   41.0230 C   0  0  0  0  0  0  0  0  0  0  0  0
   37.0900   23.4040   40.2730 N   0  0  0  0  0  0  0  0  0  0  0  0
   38.3100   23.7920   39.8350 C   0  0  0  0  0  0  0  0  0  0  0  0
   38.5560   25.0190   40.3140 N   0  0  0  0  0  0  0  0  0  0  0  0
   35.6370   24.4420   41.5330 H   0  0  0  0  0  0  0  0  0  0  0  0
   36.6200   22.4940   40.0660 H   0  0  0  0  0  0  0  0  0  0  0  0
   38.9160   23.1420   39.2030 H   0  0  0  0  0  0  0  0  0  0  0  0
   39.6470   35.7260   40.2490 C   0  0  0  0  0  0  0  0  0  0  0  0
   41.0460   35.5350   40.0930 C   0  0  0  0  0  0  0  0  0  0  0  0
   41.5400   34.2190   40.1140 C   0  0  0  0  0  0  0  0  0  0  0  0
   40.6250   33.2410   40.2830 N   0  0  0  0  0  0  0  0  0  0  0  0
   39.3090   33.4190   40.4300 C   0  0  0  0  0  0  0  0  0  0  0  0
   38.8170   34.6780   40.4120 N   0  0  0  0  0  0  0  0  0  0  0  0
   39.3190   36.7560   40.2250 H   0  0  0  0  0  0  0  0  0  0  0  0
   41.6870   36.3890   39.9640 H   0  0  0  0  0  0  0  0  0  0  0  0
   42.9810   34.0060   39.9540 C   0  0  0  0  0  3  0  0  0  0  0  0
   43.3680   32.5770   39.8440 C   0  0  0  0  0  2  0  0  0  0  0  0
   43.8020   31.9150   41.1050 C   0  0  0  0  0  2  0  0  0  0  0  0
   43.4240   32.5760   42.3820 C   0  0  0  0  0  2  0  0  0  0  0  0
   43.4490   34.0740   42.3470 C   0  0  0  0  0  2  0  0  0  0  0  0
   43.8160   34.6520   41.0270 C   0  0  0  0  0  2  0  0  0  0  0  0
  1  5  2  0  0  0  0
  2  3  2  0  0  0  0
  2  1  1  0  0  0  0
  3  4  1  0  0  0  0
  4  5  1  0  0  0  0
  4 10  1  0  0  0  0
  6  2  1  0  0  0  0
  7  3  1  0  0  0  0
  8  9  1  0  0  0  0
  9 14  2  0  0  0  0
  9 10  1  0  0  0  0
 10 11  2  0  0  0  0
 11 15  1  0  0  0  0
 11 12  1  0  0  0  0
 12 16  1  0  0  0  0
 13 17  1  0  0  0  0
 13 12  2  0  0  0  0
 14 13  1  0  0  0  0
 18 14  1  0  0  0  0
 19 18  2  0  0  0  0
 19 23  1  0  0  0  0
 20 19  1  0  0  0  0
 21 20  1  0  0  0  0
 21 22  2  0  0  0  0
 22 18  1  0  0  0  0
 24 20  1  0  0  0  0
 25 21  1  0  0  0  0
 26 31  1  0  0  0  0
 27 28  1  0  0  0  0
 27 26  2  0  0  0  0
 28 29  2  0  0  0  0
 29 30  1  0  0  0  0
 30  1  1  0  0  0  0
 31 30  2  0  0  0  0
 32 26  1  0  0  0  0
 33 27  1  0  0  0  0
 34 28  1  0  0  0  0
 34 39  1  0  0  0  0
 35 34  1  0  0  0  0
 35 36  1  0  0  0  0
 36 37  1  0  0  0  0
 38 37  1  0  0  0  0
 39 38  1  0  0  0  0
M  END
>  <minimizedAffinity>
-6.84947014

$$$$

 OpenBabel03252501283D

 39 43  0  0  0  0  0  0  0  0999 V2000
   37.1540   29.6320   39.6770 C   0  0  0  0  0  0  0  0  0  0  0  0
   36.3380   30.2850   40.5920 C   0  0  0  0  0  0  0  0  0  0  0  0
   36.8210   31.5400   40.8010 C   0  0  0  0  0  0  0  0  0  0  0  0
   37.9130   31.6530   40.0260 N   0  0  0  0  0  0  0  0  0  0  0  0
   38.0960   30.5180   39.3690 N   0  0  0  0  0  0  0  0  0  0  0  0
   35.4630   29.8250   41.0440 H   0  0  0  0  0  0  0  0  0  0  0  0
   36.4010   32.2840   41.4590 H   0  0  0  0  0  0  0  0  0  0  0  0
   40.4620   31.5610   38.8210 F   0  0  0  0  0  0  0  0  0  0  0  0
   40.0050   32.7180   39.2990 C   0  0  0  0  0  0  0  0  0  0  0  0
   38.7750   32.7560   39.8790 C   0  0  0  0  0  0  0  0  0  0  0  0
   38.2750   33.9690   40.3900 C   0  0  0  0  0  0  0  0  0  0  0  0
   38.9950   35.1270   40.3220 C   0  0  0  0  0  0  0  0  0  0  0  0
   40.2360   35.0590   39.7300 C   0  0  0  0  0  0  0  0  0  0  0  0
   40.7470   33.8630   39.2180 C   0  0  0  0  0  0  0  0  0  0  0  0
   37.2950   34.0430   40.8620 H   0  0  0  0  0  0  0  0  0  0  0  0
   38.5970   36.0620   40.7210 H   0  0  0  0  0  0  0  0  0  0  0  0
   40.8280   35.9640   39.6630 H   0  0  0  0  0  0  0  0  0  0  0  0
   42.0670   33.9100   38.6160 C   0  0  0  0  0  0  0  0  0  0  0  0
   42.4690   33.9500   37.2950 C   0  0  0  0  0  0  0  0  0  0  0  0
   43.8160   33.9860   37.2300 N   0  0  0  0  0  0  0  0  0  0  0  0
   44.2750   33.9710   38.5010 C   0  0  0  0  0  0  0  0  0  0  0  0
   43.2210   33.9260   39.3270 N   0  0  0  0  0  0  0  0  0  0  0  0
   41.7720   33.9490   36.4570 H   0  0  0  0  0  0  0  0  0  0  0  0
   44.3990   34.0200   36.3630 H   0  0  0  0  0  0  0  0  0  0  0  0
   45.3440   33.9940   38.7170 H   0  0  0  0  0  0  0  0  0  0  0  0
   36.5940   26.8050   37.4330 C   0  0  0  0  0  0  0  0  0  0  0  0
   36.6090   25.6970   38.3230 C   0  0  0  0  0  0  0  0  0  0  0  0
   36.8120   25.9520   39.6900 C   0  0  0  0  0  0  0  0  0  0  0  0
   36.9790   27.2450   40.0390 N   0  0  0  0  0  0  0  0  0  0  0  0
   36.9660   28.2870   39.2030 C   0  0  0  0  0  0  0  0  0  0  0  0
   36.7710   28.0610   37.8840 N   0  0  0  0  0  0  0  0  0  0  0  0
   36.4340   26.5560   36.3920 H   0  0  0  0  0  0  0  0  0  0  0  0
   36.4650   24.7040   37.9370 H   0  0  0  0  0  0  0  0  0  0  0  0
   36.8290   24.8200   40.6210 C   0  0  0  0  0  3  0  0  0  0  0  0
   37.1150   25.2020   42.0270 C   0  0  0  0  0  2  0  0  0  0  0  0
   38.5330   25.0850   42.4650 C   0  0  0  0  0  2  0  0  0  0  0  0
   39.5670   25.0110   41.4000 C   0  0  0  0  0  2  0  0  0  0  0  0
   39.1580   24.2450   40.1770 C   0  0  0  0  0  2  0  0  0  0  0  0
   37.7690   23.7150   40.2200 C   0  0  0  0  0  2  0  0  0  0  0  0
  1  2  1  0  0  0  0
  2  3  2  0  0  0  0
  2  6  1  0  0  0  0
  3  7  1  0  0  0  0
  4  3  1  0  0  0  0
  5  1  2  0  0  0  0
  5  4  1  0  0  0  0
  8  9  1  0  0  0  0
  9 10  1  0  0  0  0
 10  4  1  0  0  0  0
 10 11  2  0  0  0  0
 11 15  1  0  0  0  0
 12 11  1  0  0  0  0
 12 16  1  0  0  0  0
 13 12  2  0  0  0  0
 14  9  2  0  0  0  0
 14 13  1  0  0  0  0
 17 13  1  0  0  0  0
 18 14  1  0  0  0  0
 18 22  1  0  0  0  0
 19 18  2  0  0  0  0
 20 19  1  0  0  0  0
 20 21  1  0  0  0  0
 21 25  1  0  0  0  0
 21 22  2  0  0  0  0
 23 19  1  0  0  0  0
 24 20  1  0  0  0  0
 26 31  2  0  0  0  0
 26 27  1  0  0  0  0
 27 28  2  0  0  0  0
 28 29  1  0  0  0  0
 28 34  1  0  0  0  0
 30  1  1  0  0  0  0
 30 29  2  0  0  0  0
 31 30  1  0  0  0  0
 32 26  1  0  0  0  0
 33 27  1  0  0  0  0
 34 35  1  0  0  0  0
 35 36  1  0  0  0  0
 37 36  1  0  0  0  0
 38 39  1  0  0  0  0
 38 37  1  0  0  0  0
 39 34  1  0  0  0  0
M  END
>  <minimizedAffinity>
-6.71471071

$$$$

 OpenBabel03252501283D

 39 43  0  0  0  0  0  0  0  0999 V2000
   38.2180   30.3480   39.8230 C   0  0  0  0  0  0  0  0  0  0  0  0
   37.0430   31.0140   40.1470 C   0  0  0  0  0  0  0  0  0  0  0  0
   37.3280   32.3230   40.3890 C   0  0  0  0  0  0  0  0  0  0  0  0
   38.6530   32.4550   40.2150 N   0  0  0  0  0  0  0  0  0  0  0  0
   39.1650   31.2790   39.8810 N   0  0  0  0  0  0  0  0  0  0  0  0
   36.0730   30.5260   40.1890 H   0  0  0  0  0  0  0  0  0  0  0  0
   36.6210   33.0890   40.6640 H   0  0  0  0  0  0  0  0  0  0  0  0
   41.3580   32.4750   41.0190 F   0  0  0  0  0  0  0  0  0  0  0  0
   40.7500   33.6270   40.7330 C   0  0  0  0  0  0  0  0  0  0  0  0
   39.4470   33.6100   40.3460 C   0  0  0  0  0  0  0  0  0  0  0  0
   38.7870   34.8160   40.0400 C   0  0  0  0  0  0  0  0  0  0  0  0
   39.4240   36.0210   40.1210 C   0  0  0  0  0  0  0  0  0  0  0  0
   40.7430   36.0090   40.5160 C   0  0  0  0  0  0  0  0  0  0  0  0
   41.4110   34.8200   40.8220 C   0  0  0  0  0  0  0  0  0  0  0  0
   37.7440   34.8470   39.7270 H   0  0  0  0  0  0  0  0  0  0  0  0
   38.9030   36.9510   39.8820 H   0  0  0  0  0  0  0  0  0  0  0  0
   41.2720   36.9510   40.5870 H   0  0  0  0  0  0  0  0  0  0  0  0
   42.8020   34.9270   41.2270 C   0  0  0  0  0  0  0  0  0  0  0  0
   43.3960   35.5710   42.2940 C   0  0  0  0  0  0  0  0  0  0  0  0
   44.7320   35.3850   42.2510 N   0  0  0  0  0  0  0  0  0  0  0  0
   44.9920   34.6250   41.1640 C   0  0  0  0  0  0  0  0  0  0  0  0
   43.8290   34.3550   40.5540 N   0  0  0  0  0  0  0  0  0  0  0  0
   42.8370   36.1370   43.0390 H   0  0  0  0  0  0  0  0  0  0  0  0
   45.4360   35.7560   42.9290 H   0  0  0  0  0  0  0  0  0  0  0  0
   46.0110   34.3330   40.9080 H   0  0  0  0  0  0  0  0  0  0  0  0
   38.1090   27.2140   37.9490 C   0  0  0  0  0  0  0  0  0  0  0  0
   38.5300   26.2620   38.9150 C   0  0  0  0  0  0  0  0  0  0  0  0
   38.8450   26.7250   40.2050 C   0  0  0  0  0  0  0  0  0  0  0  0
   38.7170   28.0530   40.4110 N   0  0  0  0  0  0  0  0  0  0  0  0
   38.3220   28.9490   39.5020 C   0  0  0  0  0  0  0  0  0  0  0  0
   38.0140   28.5220   38.2560 N   0  0  0  0  0  0  0  0  0  0  0  0
   37.8780   26.8070   36.9730 H   0  0  0  0  0  0  0  0  0  0  0  0
   38.5970   25.2240   38.6440 H   0  0  0  0  0  0  0  0  0  0  0  0
   39.2820   25.7550   41.2130 C   0  0  0  0  0  3  0  0  0  0  0  0
   39.1620   24.3410   40.7780 C   0  0  0  0  0  2  0  0  0  0  0  0
   37.9210   23.6290   41.1900 C   0  0  0  0  0  2  0  0  0  0  0  0
   36.7690   24.4660   41.6130 C   0  0  0  0  0  2  0  0  0  0  0  0
   37.1350   25.7060   42.3710 C   0  0  0  0  0  2  0  0  0  0  0  0
   38.5980   25.9100   42.5450 C   0  0  0  0  0  2  0  0  0  0  0  0
  1  5  2  0  0  0  0
  1  2  1  0  0  0  0
  2  6  1  0  0  0  0
  2  3  2  0  0  0  0
  3  7  1  0  0  0  0
  4 10  1  0  0  0  0
  4  3  1  0  0  0  0
  5  4  1  0  0  0  0
  9 14  1  0  0  0  0
  9  8  1  0  0  0  0
 10  9  2  0  0  0  0
 11 12  2  0  0  0  0
 11 10  1  0  0  0  0
 12 13  1  0  0  0  0
 13 17  1  0  0  0  0
 13 14  2  0  0  0  0
 14 18  1  0  0  0  0
 15 11  1  0  0  0  0
 16 12  1  0  0  0  0
 18 19  2  0  0  0  0
 19 23  1  0  0  0  0
 20 19  1  0  0  0  0
 20 24  1  0  0  0  0
 21 20  1  0  0  0  0
 22 21  2  0  0  0  0
 22 18  1  0  0  0  0
 25 21  1  0  0  0  0
 26 31  2  0  0  0  0
 26 27  1  0  0  0  0
 27 28  2  0  0  0  0
 28 29  1  0  0  0  0
 28 34  1  0  0  0  0
 30  1  1  0  0  0  0
 30 29  2  0  0  0  0
 31 30  1  0  0  0  0
 32 26  1  0  0  0  0
 33 27  1  0  0  0  0
 34 39  1  0  0  0  0
 35 36  1  0  0  0  0
 35 34  1  0  0  0  0
 36 37  1  0  0  0  0
 37 38  1  0  0  0  0
 38 39  1  0  0  0  0
M  END
>  <minimizedAffinity>
-6.66280222

$$$$

 OpenBabel03252501283D

 39 43  0  0  0  0  0  0  0  0999 V2000
   38.2240   31.0890   39.7000 C   0  0  0  0  0  0  0  0  0  0  0  0
   37.6230   32.3330   39.8380 C   0  0  0  0  0  0  0  0  0  0  0  0
   38.5690   33.3020   39.6920 C   0  0  0  0  0  0  0  0  0  0  0  0
   39.7280   32.6600   39.4670 N   0  0  0  0  0  0  0  0  0  0  0  0
   39.5080   31.3540   39.4760 N   0  0  0  0  0  0  0  0  0  0  0  0
   36.5620   32.4650   40.0320 H   0  0  0  0  0  0  0  0  0  0  0  0
   38.4060   34.3660   39.7460 H   0  0  0  0  0  0  0  0  0  0  0  0
   41.5640   33.3300   41.5030 F   0  0  0  0  0  0  0  0  0  0  0  0
   41.8960   33.5320   40.2280 C   0  0  0  0  0  0  0  0  0  0  0  0
   41.0070   33.2070   39.2510 C   0  0  0  0  0  0  0  0  0  0  0  0
   41.3400   33.4120   37.8990 C   0  0  0  0  0  0  0  0  0  0  0  0
   42.5450   33.9360   37.5290 C   0  0  0  0  0  0  0  0  0  0  0  0
   43.4260   34.2560   38.5380 C   0  0  0  0  0  0  0  0  0  0  0  0
   43.1110   34.0580   39.8840 C   0  0  0  0  0  0  0  0  0  0  0  0
   40.6560   33.1660   37.0860 H   0  0  0  0  0  0  0  0  0  0  0  0
   42.7930   34.0910   36.4760 H   0  0  0  0  0  0  0  0  0  0  0  0
   44.3900   34.6720   38.2720 H   0  0  0  0  0  0  0  0  0  0  0  0
   44.1170   34.4310   40.8630 C   0  0  0  0  0  0  0  0  0  0  0  0
   45.3900   33.9490   41.0950 C   0  0  0  0  0  0  0  0  0  0  0  0
   45.9490   34.6180   42.1250 N   0  0  0  0  0  0  0  0  0  0  0  0
   45.0410   35.5250   42.5480 C   0  0  0  0  0  0  0  0  0  0  0  0
   43.9440   35.4080   41.7870 N   0  0  0  0  0  0  0  0  0  0  0  0
   45.8410   33.1450   40.5140 H   0  0  0  0  0  0  0  0  0  0  0  0
   46.9050   34.4680   42.5220 H   0  0  0  0  0  0  0  0  0  0  0  0
   45.2580   36.1970   43.3800 H   0  0  0  0  0  0  0  0  0  0  0  0
   36.3640   28.0890   38.7610 C   0  0  0  0  0  0  0  0  0  0  0  0
   36.2600   27.3920   39.9940 C   0  0  0  0  0  0  0  0  0  0  0  0
   36.8370   27.9770   41.1340 C   0  0  0  0  0  0  0  0  0  0  0  0
   37.4490   29.1660   40.9500 N   0  0  0  0  0  0  0  0  0  0  0  0
   37.5490   29.8220   39.7910 C   0  0  0  0  0  0  0  0  0  0  0  0
   36.9980   29.2750   38.6830 N   0  0  0  0  0  0  0  0  0  0  0  0
   35.9030   27.5970   37.9140 H   0  0  0  0  0  0  0  0  0  0  0  0
   35.7480   26.4470   40.0280 H   0  0  0  0  0  0  0  0  0  0  0  0
   36.7380   27.2700   42.4140 C   0  0  0  0  0  3  0  0  0  0  0  0
   37.4950   27.9140   43.5160 C   0  0  0  0  0  2  0  0  0  0  0  0
   38.8630   27.3840   43.7710 C   0  0  0  0  0  2  0  0  0  0  0  0
   39.4940   26.5880   42.6860 C   0  0  0  0  0  2  0  0  0  0  0  0
   38.5500   25.7160   41.9140 C   0  0  0  0  0  2  0  0  0  0  0  0
   37.1290   25.8190   42.3420 C   0  0  0  0  0  2  0  0  0  0  0  0
  1 30  1  0  0  0  0
  1  2  1  0  0  0  0
  2  6  1  0  0  0  0
  3  7  1  0  0  0  0
  3  2  2  0  0  0  0
  4  5  1  0  0  0  0
  4  3  1  0  0  0  0
  5  1  2  0  0  0  0
  9  8  1  0  0  0  0
 10  4  1  0  0  0  0
 10  9  2  0  0  0  0
 11 10  1  0  0  0  0
 12 11  2  0  0  0  0
 12 13  1  0  0  0  0
 13 14  2  0  0  0  0
 14  9  1  0  0  0  0
 14 18  1  0  0  0  0
 15 11  1  0  0  0  0
 16 12  1  0  0  0  0
 17 13  1  0  0  0  0
 18 19  2  0  0  0  0
 18 22  1  0  0  0  0
 19 20  1  0  0  0  0
 20 24  1  0  0  0  0
 20 21  1  0  0  0  0
 21 25  1  0  0  0  0
 22 21  2  0  0  0  0
 23 19  1  0  0  0  0
 26 27  1  0  0  0  0
 27 33  1  0  0  0  0
 27 28  2  0  0  0  0
 28 34  1  0  0  0  0
 29 28  1  0  0  0  0
 30 29  2  0  0  0  0
 31 26  2  0  0  0  0
 31 30  1  0  0  0  0
 32 26  1  0  0  0  0
 34 35  1  0  0  0  0
 35 36  1  0  0  0  0
 37 36  1  0  0  0  0
 38 39  1  0  0  0  0
 38 37  1  0  0  0  0
 39 34  1  0  0  0  0
M  END
>  <minimizedAffinity>
-6.55433607

$$$$
