
 OpenBabel03252503073D

 17 18  0  0  0  0  0  0  0  0999 V2000
   37.6640   31.5490   37.8660 C   0  0  0  0  0  0  0  0  0  0  0  0
   37.3750   31.4110   39.2320 C   0  0  0  0  0  0  0  0  0  0  0  0
   37.2490   30.1280   39.7560 C   0  0  0  0  0  0  0  0  0  0  0  0
   37.4140   29.0720   38.9070 N   0  0  0  0  0  0  0  0  0  0  0  0
   37.6930   29.2300   37.5890 C   0  0  0  0  0  0  0  0  0  0  0  0
   37.8150   30.4710   37.0810 N   0  0  0  0  0  0  0  0  0  0  0  0
   37.7580   32.5550   37.4760 H   0  0  0  0  0  0  0  0  0  0  0  0
   37.8190   28.3700   36.9380 H   0  0  0  0  0  0  0  0  0  0  0  0
   36.9430   29.9300   41.1980 C   0  0  0  0  0  3  0  0  0  0  0  0
   38.1980   29.6940   41.9870 C   0  0  0  0  0  2  0  0  0  0  0  0
   37.9820   28.9840   43.2880 C   0  0  0  0  0  2  0  0  0  0  0  0
   37.0540   27.8140   43.2020 C   0  0  0  0  0  2  0  0  0  0  0  0
   36.7300   27.5390   41.7280 C   0  0  0  0  0  2  0  0  0  0  0  0
   35.9620   28.7910   41.2830 C   0  0  0  0  0  2  0  0  0  0  0  0
   37.2160   32.5710   40.0560 C   0  0  0  0  0  0  0  0  0  0  0  0
   37.2200   33.6940   39.5140 O   0  0  0  0  0  0  0  0  0  0  0  0
   37.1140   32.2030   41.0830 H   0  0  0  0  0  0  0  0  0  0  0  0
  1  2  1  0  0  0  0
  2  3  2  0  0  0  0
  2 15  1  0  0  0  0
  3  9  1  0  0  0  0
  4  3  1  0  0  0  0
  5  4  2  0  0  0  0
  6  5  1  0  0  0  0
  6  1  2  0  0  0  0
  7  1  1  0  0  0  0
  8  5  1  0  0  0  0
  9 14  1  0  0  0  0
  9 10  1  0  0  0  0
 10 11  1  0  0  0  0
 12 11  1  0  0  0  0
 13 12  1  0  0  0  0
 14 13  1  0  0  0  0
 15 17  1  0  0  0  0
 16 15  2  0  0  0  0
M  END
>  <minimizedAffinity>
-4.20731211

$$$$

 OpenBabel03252503073D

 17 18  0  0  0  0  0  0  0  0999 V2000
   39.8950   24.4080   42.9880 C   0  0  0  0  0  0  0  0  0  0  0  0
   38.6770   24.8080   42.4160 C   0  0  0  0  0  0  0  0  0  0  0  0
   38.3160   26.1500   42.4980 C   0  0  0  0  0  0  0  0  0  0  0  0
   39.1700   27.0040   43.1340 N   0  0  0  0  0  0  0  0  0  0  0  0
   40.3430   26.5940   43.6800 C   0  0  0  0  0  0  0  0  0  0  0  0
   40.6930   25.2960   43.6010 N   0  0  0  0  0  0  0  0  0  0  0  0
   40.1590   23.3600   42.9140 H   0  0  0  0  0  0  0  0  0  0  0  0
   41.0020   27.2970   44.1800 H   0  0  0  0  0  0  0  0  0  0  0  0
   37.0360   26.6220   41.9070 C   0  0  0  0  0  3  0  0  0  0  0  0
   37.2170   27.0050   40.4670 C   0  0  0  0  0  2  0  0  0  0  0  0
   36.1800   27.9520   39.9470 C   0  0  0  0  0  2  0  0  0  0  0  0
   35.8650   29.0850   40.8730 C   0  0  0  0  0  2  0  0  0  0  0  0
   36.8620   29.0700   42.0390 C   0  0  0  0  0  2  0  0  0  0  0  0
   36.5510   27.7570   42.7680 C   0  0  0  0  0  2  0  0  0  0  0  0
   37.8370   23.8490   41.7660 C   0  0  0  0  0  0  0  0  0  0  0  0
   38.3040   23.1920   40.8150 O   0  0  0  0  0  0  0  0  0  0  0  0
   36.8720   23.8910   42.2830 H   0  0  0  0  0  0  0  0  0  0  0  0
  1  6  1  0  0  0  0
  2  3  1  0  0  0  0
  2  1  2  0  0  0  0
  3  4  2  0  0  0  0
  4  5  1  0  0  0  0
  5  8  1  0  0  0  0
  6  5  2  0  0  0  0
  7  1  1  0  0  0  0
  9  3  1  0  0  0  0
  9 14  1  0  0  0  0
 10  9  1  0  0  0  0
 11 10  1  0  0  0  0
 11 12  1  0  0  0  0
 12 13  1  0  0  0  0
 13 14  1  0  0  0  0
 15 17  1  0  0  0  0
 15  2  1  0  0  0  0
 16 15  2  0  0  0  0
M  END
>  <minimizedAffinity>
-4.19267368

$$$$

 OpenBabel03252503073D

 17 18  0  0  0  0  0  0  0  0999 V2000
   39.3300   32.2090   40.8510 C   0  0  0  0  0  0  0  0  0  0  0  0
   38.2470   31.3410   41.0640 C   0  0  0  0  0  0  0  0  0  0  0  0
   38.4570   30.1940   41.8240 C   0  0  0  0  0  0  0  0  0  0  0  0
   39.7100   29.9780   42.3200 N   0  0  0  0  0  0  0  0  0  0  0  0
   40.7420   30.8310   42.1020 C   0  0  0  0  0  0  0  0  0  0  0  0
   40.5400   31.9410   41.3660 N   0  0  0  0  0  0  0  0  0  0  0  0
   39.1470   33.0960   40.2580 H   0  0  0  0  0  0  0  0  0  0  0  0
   41.7280   30.6310   42.5090 H   0  0  0  0  0  0  0  0  0  0  0  0
   37.3420   29.2450   42.0770 C   0  0  0  0  0  3  0  0  0  0  0  0
   37.4100   28.6940   43.4720 C   0  0  0  0  0  2  0  0  0  0  0  0
   36.6940   27.3910   43.6540 C   0  0  0  0  0  2  0  0  0  0  0  0
   36.9430   26.3970   42.5630 C   0  0  0  0  0  2  0  0  0  0  0  0
   38.0470   26.9300   41.6420 C   0  0  0  0  0  2  0  0  0  0  0  0
   37.4230   28.1830   41.0130 C   0  0  0  0  0  2  0  0  0  0  0  0
   36.9630   31.6420   40.5080 C   0  0  0  0  0  0  0  0  0  0  0  0
   36.8630   31.7740   39.2720 O   0  0  0  0  0  0  0  0  0  0  0  0
   36.2700   31.6990   41.3550 H   0  0  0  0  0  0  0  0  0  0  0  0
  1  2  2  0  0  0  0
  1  6  1  0  0  0  0
  2  3  1  0  0  0  0
  3  9  1  0  0  0  0
  3  4  2  0  0  0  0
  5  4  1  0  0  0  0
  5  8  1  0  0  0  0
  6  5  2  0  0  0  0
  7  1  1  0  0  0  0
  9 10  1  0  0  0  0
 10 11  1  0  0  0  0
 12 11  1  0  0  0  0
 13 12  1  0  0  0  0
 14 13  1  0  0  0  0
 14  9  1  0  0  0  0
 15  2  1  0  0  0  0
 15 17  1  0  0  0  0
 16 15  2  0  0  0  0
M  END
>  <minimizedAffinity>
-4.08471584

$$$$

 OpenBabel03252503073D

 17 18  0  0  0  0  0  0  0  0999 V2000
   37.2990   31.2030   38.2240 C   0  0  0  0  0  0  0  0  0  0  0  0
   37.4030   29.9530   38.8540 C   0  0  0  0  0  0  0  0  0  0  0  0
   37.4660   29.9150   40.2440 C   0  0  0  0  0  0  0  0  0  0  0  0
   37.4220   31.1020   40.9170 N   0  0  0  0  0  0  0  0  0  0  0  0
   37.3220   32.2980   40.2860 C   0  0  0  0  0  0  0  0  0  0  0  0
   37.2620   32.3360   38.9420 N   0  0  0  0  0  0  0  0  0  0  0  0
   37.2520   31.2120   37.1420 H   0  0  0  0  0  0  0  0  0  0  0  0
   37.2910   33.2260   40.8500 H   0  0  0  0  0  0  0  0  0  0  0  0
   37.5760   28.6160   40.9570 C   0  0  0  0  0  3  0  0  0  0  0  0
   36.3750   28.3730   41.8240 C   0  0  0  0  0  2  0  0  0  0  0  0
   36.6080   27.4060   42.9430 C   0  0  0  0  0  2  0  0  0  0  0  0
   37.8940   27.6190   43.6790 C   0  0  0  0  0  2  0  0  0  0  0  0
   38.5350   28.9260   43.1990 C   0  0  0  0  0  2  0  0  0  0  0  0
   38.8690   28.6490   41.7270 C   0  0  0  0  0  2  0  0  0  0  0  0
   37.4420   28.7540   38.0730 C   0  0  0  0  0  0  0  0  0  0  0  0
   37.8550   28.8180   36.8980 O   0  0  0  0  0  0  0  0  0  0  0  0
   37.0690   27.9550   38.7240 H   0  0  0  0  0  0  0  0  0  0  0  0
  1  2  2  0  0  0  0
  1  6  1  0  0  0  0
  2  3  1  0  0  0  0
  3  4  2  0  0  0  0
  3  9  1  0  0  0  0
  5  8  1  0  0  0  0
  5  4  1  0  0  0  0
  6  5  2  0  0  0  0
  7  1  1  0  0  0  0
  9 14  1  0  0  0  0
  9 10  1  0  0  0  0
 10 11  1  0  0  0  0
 11 12  1  0  0  0  0
 13 12  1  0  0  0  0
 14 13  1  0  0  0  0
 15 17  1  0  0  0  0
 15  2  1  0  0  0  0
 16 15  2  0  0  0  0
M  END
>  <minimizedAffinity>
-4.05141878

$$$$

 OpenBabel03252503073D

 17 18  0  0  0  0  0  0  0  0999 V2000
   36.7280   30.3920   41.4090 C   0  0  0  0  0  0  0  0  0  0  0  0
   37.4870   29.3410   41.9460 C   0  0  0  0  0  0  0  0  0  0  0  0
   37.2220   28.0450   41.5130 C   0  0  0  0  0  0  0  0  0  0  0  0
   36.2350   27.8700   40.5860 N   0  0  0  0  0  0  0  0  0  0  0  0
   35.5150   28.9030   40.0800 C   0  0  0  0  0  0  0  0  0  0  0  0
   35.7700   30.1570   40.4990 N   0  0  0  0  0  0  0  0  0  0  0  0
   36.9490   31.3940   41.7580 H   0  0  0  0  0  0  0  0  0  0  0  0
   34.7350   28.7320   39.3440 H   0  0  0  0  0  0  0  0  0  0  0  0
   37.9980   26.8980   42.0520 C   0  0  0  0  0  3  0  0  0  0  0  0
   38.9280   26.3400   41.0140 C   0  0  0  0  0  2  0  0  0  0  0  0
   39.3440   24.9230   41.2580 C   0  0  0  0  0  2  0  0  0  0  0  0
   38.2250   24.0160   41.6640 C   0  0  0  0  0  2  0  0  0  0  0  0
   36.8950   24.7660   41.5200 C   0  0  0  0  0  2  0  0  0  0  0  0
   36.9970   25.8920   42.5570 C   0  0  0  0  0  2  0  0  0  0  0  0
   38.5050   29.6090   42.9160 C   0  0  0  0  0  0  0  0  0  0  0  0
   39.4580   30.3450   42.5940 O   0  0  0  0  0  0  0  0  0  0  0  0
   38.2120   29.0660   43.8210 H   0  0  0  0  0  0  0  0  0  0  0  0
  1  7  1  0  0  0  0
  1  2  1  0  0  0  0
  2 15  1  0  0  0  0
  3  2  2  0  0  0  0
  3  9  1  0  0  0  0
  4  3  1  0  0  0  0
  5  6  1  0  0  0  0
  5  4  2  0  0  0  0
  6  1  2  0  0  0  0
  8  5  1  0  0  0  0
  9 14  1  0  0  0  0
 10 11  1  0  0  0  0
 10  9  1  0  0  0  0
 11 12  1  0  0  0  0
 13 12  1  0  0  0  0
 13 14  1  0  0  0  0
 15 17  1  0  0  0  0
 16 15  2  0  0  0  0
M  END
>  <minimizedAffinity>
-4.04239607

$$$$

 OpenBabel03252503073D

 17 18  0  0  0  0  0  0  0  0999 V2000
   37.3830   26.7310   42.5380 C   0  0  0  0  0  0  0  0  0  0  0  0
   37.1640   27.3310   41.2880 C   0  0  0  0  0  0  0  0  0  0  0  0
   37.2630   28.7160   41.1920 C   0  0  0  0  0  0  0  0  0  0  0  0
   37.5670   29.4150   42.3240 N   0  0  0  0  0  0  0  0  0  0  0  0
   37.7740   28.8130   43.5220 C   0  0  0  0  0  0  0  0  0  0  0  0
   37.6790   27.4740   43.6160 N   0  0  0  0  0  0  0  0  0  0  0  0
   37.3020   25.6530   42.5940 H   0  0  0  0  0  0  0  0  0  0  0  0
   38.0140   29.3970   44.4060 H   0  0  0  0  0  0  0  0  0  0  0  0
   37.0400   29.3970   39.8890 C   0  0  0  0  0  3  0  0  0  0  0  0
   38.3380   29.8590   39.2940 C   0  0  0  0  0  2  0  0  0  0  0  0
   38.1990   30.9720   38.3020 C   0  0  0  0  0  2  0  0  0  0  0  0
   37.2710   32.0650   38.7320 C   0  0  0  0  0  2  0  0  0  0  0  0
   36.8660   31.8300   40.1930 C   0  0  0  0  0  2  0  0  0  0  0  0
   36.0700   30.5200   40.1450 C   0  0  0  0  0  2  0  0  0  0  0  0
   36.8490   26.5250   40.1480 C   0  0  0  0  0  0  0  0  0  0  0  0
   36.5240   25.3350   40.3280 O   0  0  0  0  0  0  0  0  0  0  0  0
   36.9680   27.1750   39.2740 H   0  0  0  0  0  0  0  0  0  0  0  0
  1  7  1  0  0  0  0
  1  6  1  0  0  0  0
  2  1  2  0  0  0  0
  3  2  1  0  0  0  0
  3  4  2  0  0  0  0
  4  5  1  0  0  0  0
  5  6  2  0  0  0  0
  5  8  1  0  0  0  0
  9 14  1  0  0  0  0
  9  3  1  0  0  0  0
 10  9  1  0  0  0  0
 11 12  1  0  0  0  0
 11 10  1  0  0  0  0
 12 13  1  0  0  0  0
 14 13  1  0  0  0  0
 15 16  2  0  0  0  0
 15  2  1  0  0  0  0
 17 15  1  0  0  0  0
M  END
>  <minimizedAffinity>
-3.93515539

$$$$

 OpenBabel03252503073D

 17 18  0  0  0  0  0  0  0  0999 V2000
   39.0250   32.4560   41.1980 C   0  0  0  0  0  0  0  0  0  0  0  0
   39.3110   31.2060   41.7670 C   0  0  0  0  0  0  0  0  0  0  0  0
   38.3950   30.1730   41.5910 C   0  0  0  0  0  0  0  0  0  0  0  0
   37.2660   30.4370   40.8710 N   0  0  0  0  0  0  0  0  0  0  0  0
   37.0110   31.6540   40.3290 C   0  0  0  0  0  0  0  0  0  0  0  0
   37.8960   32.6540   40.5000 N   0  0  0  0  0  0  0  0  0  0  0  0
   39.7500   33.2480   41.3450 H   0  0  0  0  0  0  0  0  0  0  0  0
   36.1030   31.8340   39.7620 H   0  0  0  0  0  0  0  0  0  0  0  0
   38.6520   28.8300   42.1750 C   0  0  0  0  0  3  0  0  0  0  0  0
   38.5450   27.7580   41.1300 C   0  0  0  0  0  2  0  0  0  0  0  0
   38.2660   26.3920   41.6760 C   0  0  0  0  0  2  0  0  0  0  0  0
   37.2080   26.3590   42.7350 C   0  0  0  0  0  2  0  0  0  0  0  0
   36.5480   27.7400   42.8260 C   0  0  0  0  0  2  0  0  0  0  0  0
   37.6790   28.6550   43.3110 C   0  0  0  0  0  2  0  0  0  0  0  0
   40.5190   31.0110   42.5090 C   0  0  0  0  0  0  0  0  0  0  0  0
   41.5930   30.8970   41.8860 O   0  0  0  0  0  0  0  0  0  0  0  0
   40.2290   31.0020   43.5660 H   0  0  0  0  0  0  0  0  0  0  0  0
  1  7  1  0  0  0  0
  1  2  1  0  0  0  0
  2 15  1  0  0  0  0
  3  2  2  0  0  0  0
  3  9  1  0  0  0  0
  4  3  1  0  0  0  0
  5  6  1  0  0  0  0
  5  4  2  0  0  0  0
  6  1  2  0  0  0  0
  8  5  1  0  0  0  0
  9 14  1  0  0  0  0
 10 11  1  0  0  0  0
 10  9  1  0  0  0  0
 11 12  1  0  0  0  0
 12 13  1  0  0  0  0
 13 14  1  0  0  0  0
 15 17  1  0  0  0  0
 16 15  2  0  0  0  0
M  END
>  <minimizedAffinity>
-3.93021894

$$$$

 OpenBabel03252503073D

 17 18  0  0  0  0  0  0  0  0999 V2000
   35.7160   29.4580   38.0450 C   0  0  0  0  0  0  0  0  0  0  0  0
   36.3120   29.7090   39.2910 C   0  0  0  0  0  0  0  0  0  0  0  0
   36.6460   28.6240   40.0960 C   0  0  0  0  0  0  0  0  0  0  0  0
   36.3740   27.3720   39.6250 N   0  0  0  0  0  0  0  0  0  0  0  0
   35.7980   27.1540   38.4170 C   0  0  0  0  0  0  0  0  0  0  0  0
   35.4740   28.2030   37.6380 N   0  0  0  0  0  0  0  0  0  0  0  0
   35.4630   30.3150   37.4330 H   0  0  0  0  0  0  0  0  0  0  0  0
   35.5930   26.1460   38.0700 H   0  0  0  0  0  0  0  0  0  0  0  0
   37.2790   28.8390   41.4240 C   0  0  0  0  0  3  0  0  0  0  0  0
   38.7540   28.5690   41.3680 C   0  0  0  0  0  2  0  0  0  0  0  0
   39.3720   28.2460   42.6930 C   0  0  0  0  0  2  0  0  0  0  0  0
   38.5790   27.2830   43.5210 C   0  0  0  0  0  2  0  0  0  0  0  0
   37.4260   26.7280   42.6750 C   0  0  0  0  0  2  0  0  0  0  0  0
   36.5490   27.9570   42.4020 C   0  0  0  0  0  2  0  0  0  0  0  0
   36.5630   31.0540   39.7110 C   0  0  0  0  0  0  0  0  0  0  0  0
   36.9760   31.8770   38.8700 O   0  0  0  0  0  0  0  0  0  0  0  0
   36.3210   31.0900   40.7790 H   0  0  0  0  0  0  0  0  0  0  0  0
  1  2  1  0  0  0  0
  2 15  1  0  0  0  0
  2  3  2  0  0  0  0
  3  9  1  0  0  0  0
  4  3  1  0  0  0  0
  5  4  2  0  0  0  0
  6  1  2  0  0  0  0
  6  5  1  0  0  0  0
  7  1  1  0  0  0  0
  8  5  1  0  0  0  0
  9 14  1  0  0  0  0
 10  9  1  0  0  0  0
 10 11  1  0  0  0  0
 11 12  1  0  0  0  0
 13 12  1  0  0  0  0
 14 13  1  0  0  0  0
 15 17  1  0  0  0  0
 16 15  2  0  0  0  0
M  END
>  <minimizedAffinity>
-3.7427845

$$$$

 OpenBabel03252503073D

 17 18  0  0  0  0  0  0  0  0999 V2000
   35.5940   28.9280   38.7140 C   0  0  0  0  0  0  0  0  0  0  0  0
   36.4260   29.9560   38.2420 C   0  0  0  0  0  0  0  0  0  0  0  0
   36.9130   30.8850   39.1560 C   0  0  0  0  0  0  0  0  0  0  0  0
   36.5530   30.7430   40.4650 N   0  0  0  0  0  0  0  0  0  0  0  0
   35.7480   29.7410   40.8980 C   0  0  0  0  0  0  0  0  0  0  0  0
   35.2750   28.8420   40.0150 N   0  0  0  0  0  0  0  0  0  0  0  0
   35.2250   28.2140   37.9880 H   0  0  0  0  0  0  0  0  0  0  0  0
   35.4780   29.6550   41.9460 H   0  0  0  0  0  0  0  0  0  0  0  0
   37.7970   31.9920   38.7050 C   0  0  0  0  0  3  0  0  0  0  0  0
   39.2430   31.6390   38.8980 C   0  0  0  0  0  2  0  0  0  0  0  0
   40.1590   32.8210   38.9790 C   0  0  0  0  0  2  0  0  0  0  0  0
   39.6530   33.9320   39.8450 C   0  0  0  0  0  2  0  0  0  0  0  0
   38.3970   33.4550   40.5870 C   0  0  0  0  0  2  0  0  0  0  0  0
   37.3770   33.2220   39.4640 C   0  0  0  0  0  2  0  0  0  0  0  0
   36.7560   30.0340   36.8520 C   0  0  0  0  0  0  0  0  0  0  0  0
   36.0030   29.4800   36.0260 O   0  0  0  0  0  0  0  0  0  0  0  0
   37.6830   30.6150   36.7920 H   0  0  0  0  0  0  0  0  0  0  0  0
  1  6  1  0  0  0  0
  2  1  2  0  0  0  0
  2  3  1  0  0  0  0
  3  4  2  0  0  0  0
  4  5  1  0  0  0  0
  5  8  1  0  0  0  0
  6  5  2  0  0  0  0
  7  1  1  0  0  0  0
  9 10  1  0  0  0  0
  9  3  1  0  0  0  0
  9 14  1  0  0  0  0
 10 11  1  0  0  0  0
 11 12  1  0  0  0  0
 12 13  1  0  0  0  0
 14 13  1  0  0  0  0
 15  2  1  0  0  0  0
 16 15  2  0  0  0  0
 17 15  1  0  0  0  0
M  END
>  <minimizedAffinity>
-3.73774004

$$$$
