
 OpenBabel03252508163D

 34 37  0  0  1  0  0  0  0  0999 V2000
   33.1930   28.4570   37.2920 C   0  0  0  0  0  0  0  0  0  0  0  0
   32.3980   28.5570   38.0650 H   0  0  0  0  0  0  0  0  0  0  0  0
   33.2580   27.4200   36.9550 H   0  0  0  0  0  0  0  0  0  0  0  0
   32.8570   29.4330   36.1870 C   0  0  1  0  0  0  0  0  0  0  0  0
   31.7740   29.0250   35.2520 C   0  0  0  0  0  0  0  0  0  0  0  0
   31.5350   30.1000   36.1940 C   0  0  1  0  0  0  0  0  0  0  0  0
   33.6970   29.9990   35.7350 H   0  0  0  0  0  0  0  0  0  0  0  0
   31.3630   27.9970   35.3800 H   0  0  0  0  0  0  0  0  0  0  0  0
   31.8860   29.2640   34.1590 H   0  0  0  0  0  0  0  0  0  0  0  0
   31.5180   31.1400   35.7440 H   0  0  0  0  0  0  0  0  0  0  0  0
   30.7130   30.0040   37.4240 C   0  0  0  0  0  0  0  0  0  0  0  0
   29.2180   30.3660   37.2210 C   0  0  0  0  0  0  0  0  0  0  0  0
   30.0990   31.3300   37.9230 C   0  0  0  0  0  0  0  0  0  0  0  0
   30.9620   29.2700   38.1940 H   0  0  0  0  0  0  0  0  0  0  0  0
   28.5300   29.6900   37.8010 H   0  0  0  0  0  0  0  0  0  0  0  0
   28.8780   30.5100   36.1890 H   0  0  0  0  0  0  0  0  0  0  0  0
   29.9690   31.4090   39.0340 H   0  0  0  0  0  0  0  0  0  0  0  0
   30.3200   32.2510   37.3630 H   0  0  0  0  0  0  0  0  0  0  0  0
   34.3410   29.1400   39.2470 C   0  0  0  0  0  3  0  0  0  0  0  0
   34.4620   28.9000   38.0020 C   0  0  0  0  0  3  0  0  0  0  0  0
   37.4070   30.9370   40.2120 C   0  0  0  0  0  0  0  0  0  0  0  0
   37.7830   30.3120   41.3930 C   0  0  0  0  0  0  0  0  0  0  0  0
   36.9810   29.3070   41.8400 C   0  0  0  0  0  0  0  0  0  0  0  0
   35.8800   28.9840   41.1130 N   0  0  0  0  0  0  0  0  0  0  0  0
   35.5190   29.5810   39.9830 C   0  0  0  0  0  0  0  0  0  0  0  0
   36.3130   30.5620   39.5590 N   0  0  0  0  0  0  0  0  0  0  0  0
   37.9600   31.7560   39.7440 H   0  0  0  0  0  0  0  0  0  0  0  0
   38.6680   30.6800   41.8420 H   0  0  0  0  0  0  0  0  0  0  0  0
   37.3630   28.6080   43.1130 C   0  0  0  0  0  3  0  0  0  0  0  0
   38.8270   28.4190   43.2870 C   0  0  0  0  0  2  0  0  0  0  0  0
   39.1930   26.9710   43.6010 C   0  0  0  0  0  2  0  0  0  0  0  0
   38.5960   26.0250   42.5970 C   0  0  0  0  0  2  0  0  0  0  0  0
   37.1190   26.1890   42.4340 C   0  0  0  0  0  2  0  0  0  0  0  0
   36.5950   27.3170   43.2730 C   0  0  0  0  0  2  0  0  0  0  0  0
  1 20  1  0  0  0  0
  1  2  1  0  0  0  0
  3  1  1  0  0  0  0
  4  7  1  6  0  0  0
  4  6  1  0  0  0  0
  4  1  1  0  0  0  0
  5  8  1  0  0  0  0
  5  4  1  0  0  0  0
  5  6  1  0  0  0  0
  6 10  1  6  0  0  0
  6 11  1  0  0  0  0
  9  5  1  0  0  0  0
 11 13  1  0  0  0  0
 11 14  1  0  0  0  0
 12 11  1  0  0  0  0
 12 15  1  0  0  0  0
 12 13  1  0  0  0  0
 13 17  1  0  0  0  0
 16 12  1  0  0  0  0
 18 13  1  0  0  0  0
 19 25  1  0  0  0  0
 20 19  2  0  0  0  0
 21 22  1  0  0  0  0
 22 23  2  0  0  0  0
 22 28  1  0  0  0  0
 23 29  1  0  0  0  0
 24 23  1  0  0  0  0
 25 24  2  0  0  0  0
 26 25  1  0  0  0  0
 26 21  2  0  0  0  0
 27 21  1  0  0  0  0
 29 34  1  0  0  0  0
 29 30  1  0  0  0  0
 30 31  1  0  0  0  0
 32 31  1  0  0  0  0
 33 32  1  0  0  0  0
 33 34  1  0  0  0  0
M  END
>  <minimizedAffinity>
-5.65275478

$$$$

 OpenBabel03252508163D

 34 37  0  0  1  0  0  0  0  0999 V2000
   39.1590   26.8340   43.5830 C   0  0  0  0  0  0  0  0  0  0  0  0
   38.0850   26.5640   43.7020 H   0  0  0  0  0  0  0  0  0  0  0  0
   39.6210   26.9670   44.5640 H   0  0  0  0  0  0  0  0  0  0  0  0
   39.7970   25.7400   42.7570 C   0  0  1  0  0  0  0  0  0  0  0  0
   39.7170   24.3610   43.3100 C   0  0  0  0  0  0  0  0  0  0  0  0
   38.9330   24.7070   42.1410 C   0  0  1  0  0  0  0  0  0  0  0  0
   40.7350   25.9900   42.2190 H   0  0  0  0  0  0  0  0  0  0  0  0
   39.2790   24.2550   44.3290 H   0  0  0  0  0  0  0  0  0  0  0  0
   40.6050   23.6810   43.1970 H   0  0  0  0  0  0  0  0  0  0  0  0
   39.3140   24.2820   41.1620 H   0  0  0  0  0  0  0  0  0  0  0  0
   37.4700   24.9450   42.1200 C   0  0  0  0  0  0  0  0  0  0  0  0
   36.7020   24.0980   41.0710 C   0  0  0  0  0  0  0  0  0  0  0  0
   36.9080   25.5430   40.8120 C   0  0  0  0  0  0  0  0  0  0  0  0
   36.9460   25.2210   43.0380 H   0  0  0  0  0  0  0  0  0  0  0  0
   35.7170   23.7210   41.4620 H   0  0  0  0  0  0  0  0  0  0  0  0
   37.2680   23.3120   40.5570 H   0  0  0  0  0  0  0  0  0  0  0  0
   36.0120   26.2060   40.9360 H   0  0  0  0  0  0  0  0  0  0  0  0
   37.6130   25.7740   39.9990 H   0  0  0  0  0  0  0  0  0  0  0  0
   38.0010   28.7090   42.7180 C   0  0  0  0  0  3  0  0  0  0  0  0
   39.1330   28.1300   42.7910 C   0  0  0  0  0  3  0  0  0  0  0  0
   36.7110   31.4720   40.6540 C   0  0  0  0  0  0  0  0  0  0  0  0
   37.8240   32.2810   40.4740 C   0  0  0  0  0  0  0  0  0  0  0  0
   38.9810   31.8780   41.0700 C   0  0  0  0  0  0  0  0  0  0  0  0
   38.9720   30.7270   41.7890 N   0  0  0  0  0  0  0  0  0  0  0  0
   37.9080   29.9510   41.9620 C   0  0  0  0  0  0  0  0  0  0  0  0
   36.7840   30.3580   41.3750 N   0  0  0  0  0  0  0  0  0  0  0  0
   35.7230   31.6790   40.2330 H   0  0  0  0  0  0  0  0  0  0  0  0
   37.6680   33.1480   39.8870 H   0  0  0  0  0  0  0  0  0  0  0  0
   40.2050   32.7300   40.8910 C   0  0  0  0  0  3  0  0  0  0  0  0
   39.9920   33.9270   40.0360 C   0  0  0  0  0  2  0  0  0  0  0  0
   41.0240   34.0330   38.9160 C   0  0  0  0  0  2  0  0  0  0  0  0
   41.1060   32.7560   38.1260 C   0  0  0  0  0  2  0  0  0  0  0  0
   41.3460   31.5490   38.9730 C   0  0  0  0  0  2  0  0  0  0  0  0
   41.3800   31.8990   40.4330 C   0  0  0  0  0  2  0  0  0  0  0  0
  1  2  1  0  0  0  0
  1  3  1  0  0  0  0
  4  7  1  6  0  0  0
  4  5  1  0  0  0  0
  4  1  1  0  0  0  0
  5  8  1  0  0  0  0
  6 10  1  6  0  0  0
  6  4  1  0  0  0  0
  6  5  1  0  0  0  0
  9  5  1  0  0  0  0
 11  6  1  0  0  0  0
 11 14  1  0  0  0  0
 12 15  1  0  0  0  0
 12 11  1  0  0  0  0
 13 17  1  0  0  0  0
 13 12  1  0  0  0  0
 13 11  1  0  0  0  0
 16 12  1  0  0  0  0
 18 13  1  0  0  0  0
 19 20  2  0  0  0  0
 20  1  1  0  0  0  0
 21 26  1  0  0  0  0
 22 21  2  0  0  0  0
 22 23  1  0  0  0  0
 23 24  2  0  0  0  0
 24 25  1  0  0  0  0
 25 19  1  0  0  0  0
 26 25  2  0  0  0  0
 27 21  1  0  0  0  0
 28 22  1  0  0  0  0
 29 23  1  0  0  0  0
 30 29  1  0  0  0  0
 31 30  1  0  0  0  0
 32 31  1  0  0  0  0
 32 33  1  0  0  0  0
 33 34  1  0  0  0  0
 34 29  1  0  0  0  0
M  END
>  <minimizedAffinity>
-5.31458378

$$$$

 OpenBabel03252508163D

 34 37  0  0  1  0  0  0  0  0999 V2000
   39.1970   26.7600   43.4160 C   0  0  0  0  0  0  0  0  0  0  0  0
   38.1740   26.4460   43.7260 H   0  0  0  0  0  0  0  0  0  0  0  0
   39.7810   27.0410   44.2950 H   0  0  0  0  0  0  0  0  0  0  0  0
   39.7920   25.6100   42.6360 C   0  0  1  0  0  0  0  0  0  0  0  0
   39.6660   24.2590   43.2490 C   0  0  0  0  0  0  0  0  0  0  0  0
   38.8890   24.5820   42.0680 C   0  0  1  0  0  0  0  0  0  0  0  0
   40.7350   25.8030   42.0840 H   0  0  0  0  0  0  0  0  0  0  0  0
   39.2300   24.2140   44.2730 H   0  0  0  0  0  0  0  0  0  0  0  0
   40.5290   23.5450   43.1620 H   0  0  0  0  0  0  0  0  0  0  0  0
   39.2500   24.1020   41.1080 H   0  0  0  0  0  0  0  0  0  0  0  0
   37.4350   24.8700   42.0430 C   0  0  0  0  0  0  0  0  0  0  0  0
   36.6370   24.0280   41.0130 C   0  0  0  0  0  0  0  0  0  0  0  0
   36.8930   25.4590   40.7220 C   0  0  0  0  0  0  0  0  0  0  0  0
   36.9220   25.1840   42.9550 H   0  0  0  0  0  0  0  0  0  0  0  0
   35.6400   23.6940   41.4120 H   0  0  0  0  0  0  0  0  0  0  0  0
   37.1750   23.2120   40.5150 H   0  0  0  0  0  0  0  0  0  0  0  0
   36.0210   26.1560   40.8310 H   0  0  0  0  0  0  0  0  0  0  0  0
   37.6040   25.6470   39.9040 H   0  0  0  0  0  0  0  0  0  0  0  0
   39.4580   29.0510   42.8770 C   0  0  0  0  0  3  0  0  0  0  0  0
   38.9610   27.9430   42.4920 C   0  0  0  0  0  3  0  0  0  0  0  0
   39.8150   32.3960   41.3810 C   0  0  0  0  0  0  0  0  0  0  0  0
   38.7650   32.4530   40.4760 C   0  0  0  0  0  0  0  0  0  0  0  0
   37.9700   31.3510   40.3850 C   0  0  0  0  0  0  0  0  0  0  0  0
   38.2510   30.2830   41.1740 N   0  0  0  0  0  0  0  0  0  0  0  0
   39.2560   30.2260   42.0410 C   0  0  0  0  0  0  0  0  0  0  0  0
   40.0240   31.3110   42.1190 N   0  0  0  0  0  0  0  0  0  0  0  0
   40.5270   33.2090   41.5530 H   0  0  0  0  0  0  0  0  0  0  0  0
   38.6790   33.3580   39.9330 H   0  0  0  0  0  0  0  0  0  0  0  0
   36.8220   31.3830   39.4180 C   0  0  0  0  0  3  0  0  0  0  0  0
   35.8780   30.2440   39.5570 C   0  0  0  0  0  2  0  0  0  0  0  0
   35.6240   29.5330   38.2290 C   0  0  0  0  0  2  0  0  0  0  0  0
   36.9140   29.1470   37.5600 C   0  0  0  0  0  2  0  0  0  0  0  0
   37.8600   30.2920   37.3920 C   0  0  0  0  0  2  0  0  0  0  0  0
   37.3140   31.5510   38.0000 C   0  0  0  0  0  2  0  0  0  0  0  0
  1  2  1  0  0  0  0
  1  3  1  0  0  0  0
  4  7  1  6  0  0  0
  4  5  1  0  0  0  0
  4  1  1  0  0  0  0
  5  8  1  0  0  0  0
  6 10  1  6  0  0  0
  6  4  1  0  0  0  0
  6  5  1  0  0  0  0
  9  5  1  0  0  0  0
 11  6  1  0  0  0  0
 11 14  1  0  0  0  0
 12 15  1  0  0  0  0
 12 11  1  0  0  0  0
 13 17  1  0  0  0  0
 13 12  1  0  0  0  0
 13 11  1  0  0  0  0
 16 12  1  0  0  0  0
 18 13  1  0  0  0  0
 20 19  2  0  0  0  0
 20  1  1  0  0  0  0
 21 27  1  0  0  0  0
 21 26  1  0  0  0  0
 22 21  2  0  0  0  0
 23 22  1  0  0  0  0
 23 24  2  0  0  0  0
 24 25  1  0  0  0  0
 25 26  2  0  0  0  0
 25 19  1  0  0  0  0
 28 22  1  0  0  0  0
 29 30  1  0  0  0  0
 29 23  1  0  0  0  0
 31 30  1  0  0  0  0
 32 31  1  0  0  0  0
 33 32  1  0  0  0  0
 33 34  1  0  0  0  0
 34 29  1  0  0  0  0
M  END
>  <minimizedAffinity>
-5.15449286

$$$$

 OpenBabel03252508163D

 34 37  0  0  1  0  0  0  0  0999 V2000
   34.0020   29.0550   38.8360 C   0  0  0  0  0  0  0  0  0  0  0  0
   33.8530   30.1370   39.0500 H   0  0  0  0  0  0  0  0  0  0  0  0
   33.1830   28.4740   39.2640 H   0  0  0  0  0  0  0  0  0  0  0  0
   34.1240   28.9170   37.3350 C   0  0  1  0  0  0  0  0  0  0  0  0
   33.4610   27.7320   36.7250 C   0  0  0  0  0  0  0  0  0  0  0  0
   32.9080   29.0530   36.5000 C   0  0  1  0  0  0  0  0  0  0  0  0
   35.0830   29.2250   36.8720 H   0  0  0  0  0  0  0  0  0  0  0  0
   33.0120   26.9930   37.4270 H   0  0  0  0  0  0  0  0  0  0  0  0
   33.9790   27.2000   35.8810 H   0  0  0  0  0  0  0  0  0  0  0  0
   33.0810   29.4770   35.4640 H   0  0  0  0  0  0  0  0  0  0  0  0
   31.6840   29.5970   37.1350 C   0  0  0  0  0  0  0  0  0  0  0  0
   30.4040   29.4610   36.2690 C   0  0  0  0  0  0  0  0  0  0  0  0
   31.0330   30.7960   36.4130 C   0  0  0  0  0  0  0  0  0  0  0  0
   31.5720   29.5720   38.2220 H   0  0  0  0  0  0  0  0  0  0  0  0
   29.5000   29.1850   36.8800 H   0  0  0  0  0  0  0  0  0  0  0  0
   30.4830   28.8590   35.3570 H   0  0  0  0  0  0  0  0  0  0  0  0
   30.5070   31.5280   37.0800 H   0  0  0  0  0  0  0  0  0  0  0  0
   31.5160   31.1830   35.5030 H   0  0  0  0  0  0  0  0  0  0  0  0
   35.4080   28.9740   40.7400 C   0  0  0  0  0  3  0  0  0  0  0  0
   35.3320   28.7240   39.4930 C   0  0  0  0  0  3  0  0  0  0  0  0
   38.3630   29.2740   42.9160 C   0  0  0  0  0  0  0  0  0  0  0  0
   39.0860   28.1240   42.6320 C   0  0  0  0  0  0  0  0  0  0  0  0
   38.5460   27.2680   41.7200 C   0  0  0  0  0  0  0  0  0  0  0  0
   37.3540   27.5900   41.1550 N   0  0  0  0  0  0  0  0  0  0  0  0
   36.6620   28.6910   41.4260 C   0  0  0  0  0  0  0  0  0  0  0  0
   37.2010   29.5170   42.3190 N   0  0  0  0  0  0  0  0  0  0  0  0
   38.6810   30.0420   43.6270 H   0  0  0  0  0  0  0  0  0  0  0  0
   39.9980   28.0160   43.1570 H   0  0  0  0  0  0  0  0  0  0  0  0
   39.3050   26.0160   41.3870 C   0  0  0  0  0  3  0  0  0  0  0  0
   39.0960   25.5280   39.9990 C   0  0  0  0  0  2  0  0  0  0  0  0
   38.6930   24.0560   39.9540 C   0  0  0  0  0  2  0  0  0  0  0  0
   37.5210   23.7810   40.8550 C   0  0  0  0  0  2  0  0  0  0  0  0
   37.7330   24.2440   42.2600 C   0  0  0  0  0  2  0  0  0  0  0  0
   39.0530   24.9400   42.4180 C   0  0  0  0  0  2  0  0  0  0  0  0
  1  2  1  0  0  0  0
  1  3  1  0  0  0  0
  1 20  1  0  0  0  0
  4  7  1  6  0  0  0
  4  1  1  0  0  0  0
  5  4  1  0  0  0  0
  5  8  1  0  0  0  0
  6 10  1  6  0  0  0
  6  5  1  0  0  0  0
  6 11  1  0  0  0  0
  6  4  1  0  0  0  0
  9  5  1  0  0  0  0
 11 14  1  0  0  0  0
 12 13  1  0  0  0  0
 12 15  1  0  0  0  0
 12 11  1  0  0  0  0
 13 17  1  0  0  0  0
 13 11  1  0  0  0  0
 16 12  1  0  0  0  0
 18 13  1  0  0  0  0
 19 25  1  0  0  0  0
 20 19  2  0  0  0  0
 21 27  1  0  0  0  0
 22 21  1  0  0  0  0
 22 28  1  0  0  0  0
 23 22  2  0  0  0  0
 24 25  2  0  0  0  0
 24 23  1  0  0  0  0
 25 26  1  0  0  0  0
 26 21  2  0  0  0  0
 29 23  1  0  0  0  0
 29 34  1  0  0  0  0
 30 29  1  0  0  0  0
 31 30  1  0  0  0  0
 31 32  1  0  0  0  0
 32 33  1  0  0  0  0
 33 34  1  0  0  0  0
M  END
>  <minimizedAffinity>
-5.09452772

$$$$

 OpenBabel03252508163D

 34 37  0  0  1  0  0  0  0  0999 V2000
   35.9910   29.2910   37.1060 C   0  0  0  0  0  0  0  0  0  0  0  0
   37.0260   29.5110   36.7590 H   0  0  0  0  0  0  0  0  0  0  0  0
   35.4900   30.2180   37.3940 H   0  0  0  0  0  0  0  0  0  0  0  0
   35.2990   28.5510   35.9840 C   0  0  1  0  0  0  0  0  0  0  0  0
   34.0800   29.1940   35.4220 C   0  0  0  0  0  0  0  0  0  0  0  0
   35.2910   29.1460   34.6270 C   0  0  1  0  0  0  0  0  0  0  0  0
   35.2770   27.4440   36.0420 H   0  0  0  0  0  0  0  0  0  0  0  0
   33.7200   30.1170   35.9320 H   0  0  0  0  0  0  0  0  0  0  0  0
   33.2080   28.5430   35.1380 H   0  0  0  0  0  0  0  0  0  0  0  0
   35.2790   28.4000   33.7750 H   0  0  0  0  0  0  0  0  0  0  0  0
   36.1970   30.2890   34.3630 C   0  0  0  0  0  0  0  0  0  0  0  0
   35.6220   31.3430   33.3810 C   0  0  0  0  0  0  0  0  0  0  0  0
   36.6900   30.4290   32.9070 C   0  0  0  0  0  0  0  0  0  0  0  0
   36.8860   30.6340   35.1380 H   0  0  0  0  0  0  0  0  0  0  0  0
   35.8660   32.3970   33.6900 H   0  0  0  0  0  0  0  0  0  0  0  0
   34.5710   31.2320   33.0930 H   0  0  0  0  0  0  0  0  0  0  0  0
   37.7130   30.8740   32.7880 H   0  0  0  0  0  0  0  0  0  0  0  0
   36.3660   29.6780   32.1710 H   0  0  0  0  0  0  0  0  0  0  0  0
   36.3320   27.1290   38.0100 C   0  0  0  0  0  3  0  0  0  0  0  0
   36.1840   28.3620   38.2930 C   0  0  0  0  0  3  0  0  0  0  0  0
   36.4570   24.0180   39.9760 C   0  0  0  0  0  0  0  0  0  0  0  0
   36.7870   24.4600   41.2490 C   0  0  0  0  0  0  0  0  0  0  0  0
   36.9740   25.8000   41.4070 C   0  0  0  0  0  0  0  0  0  0  0  0
   36.8270   26.6060   40.3250 N   0  0  0  0  0  0  0  0  0  0  0  0
   36.5100   26.1850   39.1050 C   0  0  0  0  0  0  0  0  0  0  0  0
   36.3310   24.8730   38.9670 N   0  0  0  0  0  0  0  0  0  0  0  0
   36.2800   22.9710   39.7120 H   0  0  0  0  0  0  0  0  0  0  0  0
   36.8670   23.7060   41.9880 H   0  0  0  0  0  0  0  0  0  0  0  0
   37.3290   26.3100   42.7740 C   0  0  0  0  0  3  0  0  0  0  0  0
   36.6280   27.5640   43.1560 C   0  0  0  0  0  2  0  0  0  0  0  0
   37.5930   28.6450   43.6380 C   0  0  0  0  0  2  0  0  0  0  0  0
   38.7010   28.8720   42.6470 C   0  0  0  0  0  2  0  0  0  0  0  0
   39.4290   27.6200   42.2760 C   0  0  0  0  0  2  0  0  0  0  0  0
   38.8270   26.4160   42.9390 C   0  0  0  0  0  2  0  0  0  0  0  0
  1  3  1  0  0  0  0
  1 20  1  0  0  0  0
  2  1  1  0  0  0  0
  4  7  1  1  0  0  0
  4  1  1  0  0  0  0
  5  8  1  0  0  0  0
  5  4  1  0  0  0  0
  6 10  1  6  0  0  0
  6  5  1  0  0  0  0
  6  4  1  0  0  0  0
  9  5  1  0  0  0  0
 11  6  1  0  0  0  0
 11 14  1  0  0  0  0
 12 15  1  0  0  0  0
 12 11  1  0  0  0  0
 13 12  1  0  0  0  0
 13 11  1  0  0  0  0
 16 12  1  0  0  0  0
 17 13  1  0  0  0  0
 18 13  1  0  0  0  0
 19 20  2  0  0  0  0
 19 25  1  0  0  0  0
 21 22  1  0  0  0  0
 22 23  2  0  0  0  0
 22 28  1  0  0  0  0
 23 29  1  0  0  0  0
 24 23  1  0  0  0  0
 25 24  2  0  0  0  0
 26 25  1  0  0  0  0
 26 21  2  0  0  0  0
 27 21  1  0  0  0  0
 29 34  1  0  0  0  0
 29 30  1  0  0  0  0
 30 31  1  0  0  0  0
 32 31  1  0  0  0  0
 33 32  1  0  0  0  0
 33 34  1  0  0  0  0
M  END
>  <minimizedAffinity>
-5.07458973

$$$$

 OpenBabel03252508163D

 34 37  0  0  1  0  0  0  0  0999 V2000
   36.6340   31.4230   40.7790 C   0  0  0  0  0  0  0  0  0  0  0  0
   37.1210   32.0020   41.5960 H   0  0  0  0  0  0  0  0  0  0  0  0
   35.5490   31.5190   40.8500 H   0  0  0  0  0  0  0  0  0  0  0  0
   37.2050   31.9380   39.4760 C   0  0  1  0  0  0  0  0  0  0  0  0
   37.1060   33.4050   39.2460 C   0  0  0  0  0  0  0  0  0  0  0  0
   38.4010   32.8100   39.5100 C   0  0  1  0  0  0  0  0  0  0  0  0
   37.0800   31.2980   38.5790 H   0  0  0  0  0  0  0  0  0  0  0  0
   36.5380   33.9930   40.0020 H   0  0  0  0  0  0  0  0  0  0  0  0
   36.8690   33.7730   38.2100 H   0  0  0  0  0  0  0  0  0  0  0  0
   39.0840   32.7240   38.6100 H   0  0  0  0  0  0  0  0  0  0  0  0
   39.1540   32.9100   40.7830 C   0  0  0  0  0  0  0  0  0  0  0  0
   40.6290   33.3610   40.6150 C   0  0  0  0  0  0  0  0  0  0  0  0
   40.3460   31.9400   40.9320 C   0  0  0  0  0  0  0  0  0  0  0  0
   38.6380   33.1810   41.7060 H   0  0  0  0  0  0  0  0  0  0  0  0
   40.9540   34.0740   41.4230 H   0  0  0  0  0  0  0  0  0  0  0  0
   40.9350   33.7010   39.6190 H   0  0  0  0  0  0  0  0  0  0  0  0
   40.5650   31.6080   41.9810 H   0  0  0  0  0  0  0  0  0  0  0  0
   40.5490   31.2320   40.1140 H   0  0  0  0  0  0  0  0  0  0  0  0
   37.5500   29.7420   42.1730 C   0  0  0  0  0  3  0  0  0  0  0  0
   37.0910   29.9920   41.0120 C   0  0  0  0  0  3  0  0  0  0  0  0
   39.5260   26.9040   43.4370 C   0  0  0  0  0  0  0  0  0  0  0  0
   38.8890   25.8020   42.8840 C   0  0  0  0  0  0  0  0  0  0  0  0
   37.7970   26.0470   42.1080 C   0  0  0  0  0  0  0  0  0  0  0  0
   37.4070   27.3350   41.9270 N   0  0  0  0  0  0  0  0  0  0  0  0
   38.0160   28.3910   42.4550 C   0  0  0  0  0  0  0  0  0  0  0  0
   39.0810   28.1350   43.2120 N   0  0  0  0  0  0  0  0  0  0  0  0
   40.4110   26.8480   44.0790 H   0  0  0  0  0  0  0  0  0  0  0  0
   39.3150   24.8620   43.1220 H   0  0  0  0  0  0  0  0  0  0  0  0
   37.0890   24.8760   41.4920 C   0  0  0  0  0  3  0  0  0  0  0  0
   37.8430   23.5970   41.5730 C   0  0  0  0  0  2  0  0  0  0  0  0
   37.9690   22.9100   40.2160 C   0  0  0  0  0  2  0  0  0  0  0  0
   38.5160   23.8480   39.1750 C   0  0  0  0  0  2  0  0  0  0  0  0
   37.7490   25.1260   39.0680 C   0  0  0  0  0  2  0  0  0  0  0  0
   36.6450   25.1920   40.0830 C   0  0  0  0  0  2  0  0  0  0  0  0
  1  3  1  0  0  0  0
  1 20  1  0  0  0  0
  1  2  1  0  0  0  0
  4  7  1  6  0  0  0
  4  6  1  0  0  0  0
  4  1  1  0  0  0  0
  5  4  1  0  0  0  0
  5  6  1  0  0  0  0
  5  8  1  0  0  0  0
  6 10  1  6  0  0  0
  6 11  1  0  0  0  0
  9  5  1  0  0  0  0
 11 13  1  0  0  0  0
 11 14  1  0  0  0  0
 12 11  1  0  0  0  0
 12 13  1  0  0  0  0
 12 15  1  0  0  0  0
 13 17  1  0  0  0  0
 16 12  1  0  0  0  0
 18 13  1  0  0  0  0
 19 25  1  0  0  0  0
 20 19  2  0  0  0  0
 21 27  1  0  0  0  0
 22 28  1  0  0  0  0
 22 21  2  0  0  0  0
 23 22  1  0  0  0  0
 24 23  2  0  0  0  0
 24 25  1  0  0  0  0
 25 26  2  0  0  0  0
 26 21  1  0  0  0  0
 29 30  1  0  0  0  0
 29 23  1  0  0  0  0
 31 30  1  0  0  0  0
 32 31  1  0  0  0  0
 33 32  1  0  0  0  0
 33 34  1  0  0  0  0
 34 29  1  0  0  0  0
M  END
>  <minimizedAffinity>
-5.05640316

$$$$

 OpenBabel03252508163D

 34 37  0  0  1  0  0  0  0  0999 V2000
   34.4110   28.9100   36.0440 C   0  0  0  0  0  0  0  0  0  0  0  0
   34.2330   29.9100   35.5870 H   0  0  0  0  0  0  0  0  0  0  0  0
   33.5250   28.2840   35.9270 H   0  0  0  0  0  0  0  0  0  0  0  0
   35.6480   28.3400   35.3850 C   0  0  1  0  0  0  0  0  0  0  0  0
   35.4660   27.7670   34.0240 C   0  0  0  0  0  0  0  0  0  0  0  0
   36.1950   29.0100   34.1830 C   0  0  1  0  0  0  0  0  0  0  0  0
   36.3750   27.8150   36.0370 H   0  0  0  0  0  0  0  0  0  0  0  0
   34.4230   27.7160   33.6370 H   0  0  0  0  0  0  0  0  0  0  0  0
   36.0260   26.8300   33.7540 H   0  0  0  0  0  0  0  0  0  0  0  0
   37.3180   28.9290   34.0570 H   0  0  0  0  0  0  0  0  0  0  0  0
   35.6860   30.3600   33.8450 C   0  0  0  0  0  0  0  0  0  0  0  0
   36.5610   31.1330   32.8230 C   0  0  0  0  0  0  0  0  0  0  0  0
   36.5970   31.5390   34.2490 C   0  0  0  0  0  0  0  0  0  0  0  0
   34.6120   30.5590   33.8520 H   0  0  0  0  0  0  0  0  0  0  0  0
   35.9440   31.7090   32.0790 H   0  0  0  0  0  0  0  0  0  0  0  0
   37.3720   30.5750   32.3410 H   0  0  0  0  0  0  0  0  0  0  0  0
   36.0620   32.4890   34.5120 H   0  0  0  0  0  0  0  0  0  0  0  0
   37.5390   31.3160   34.7720 H   0  0  0  0  0  0  0  0  0  0  0  0
   35.9300   29.3320   37.8110 C   0  0  0  0  0  3  0  0  0  0  0  0
   34.6990   29.2140   37.5050 C   0  0  0  0  0  3  0  0  0  0  0  0
   36.8460   31.0880   40.9150 C   0  0  0  0  0  0  0  0  0  0  0  0
   36.9960   30.0560   41.8310 C   0  0  0  0  0  0  0  0  0  0  0  0
   36.7700   28.7920   41.3780 C   0  0  0  0  0  0  0  0  0  0  0  0
   36.4170   28.6240   40.0780 N   0  0  0  0  0  0  0  0  0  0  0  0
   36.2730   29.6100   39.1990 C   0  0  0  0  0  0  0  0  0  0  0  0
   36.4970   30.8400   39.6570 N   0  0  0  0  0  0  0  0  0  0  0  0
   36.9960   32.1460   41.1470 H   0  0  0  0  0  0  0  0  0  0  0  0
   37.2740   30.3520   42.8090 H   0  0  0  0  0  0  0  0  0  0  0  0
   36.9280   27.6540   42.3440 C   0  0  0  0  0  3  0  0  0  0  0  0
   37.8190   27.9530   43.4960 C   0  0  0  0  0  2  0  0  0  0  0  0
   38.9060   26.8970   43.6800 C   0  0  0  0  0  2  0  0  0  0  0  0
   39.6610   26.6600   42.4010 C   0  0  0  0  0  2  0  0  0  0  0  0
   38.7760   26.3320   41.2420 C   0  0  0  0  0  2  0  0  0  0  0  0
   37.3250   26.3860   41.6250 C   0  0  0  0  0  2  0  0  0  0  0  0
  1 20  1  0  0  0  0
  2  1  1  0  0  0  0
  3  1  1  0  0  0  0
  4  7  1  1  0  0  0
  4  1  1  0  0  0  0
  5  6  1  0  0  0  0
  5  4  1  0  0  0  0
  6 10  1  6  0  0  0
  6  4  1  0  0  0  0
  8  5  1  0  0  0  0
  9  5  1  0  0  0  0
 11 14  1  0  0  0  0
 11  6  1  0  0  0  0
 11 13  1  0  0  0  0
 12 11  1  0  0  0  0
 12 13  1  0  0  0  0
 13 17  1  0  0  0  0
 13 18  1  0  0  0  0
 15 12  1  0  0  0  0
 16 12  1  0  0  0  0
 19 25  1  0  0  0  0
 20 19  2  0  0  0  0
 21 27  1  0  0  0  0
 21 22  1  0  0  0  0
 22 28  1  0  0  0  0
 23 22  2  0  0  0  0
 23 29  1  0  0  0  0
 24 23  1  0  0  0  0
 25 26  1  0  0  0  0
 25 24  2  0  0  0  0
 26 21  2  0  0  0  0
 29 30  1  0  0  0  0
 30 31  1  0  0  0  0
 32 31  1  0  0  0  0
 33 34  1  0  0  0  0
 33 32  1  0  0  0  0
 34 29  1  0  0  0  0
M  END
>  <minimizedAffinity>
-5.01969194

$$$$

 OpenBabel03252508163D

 34 37  0  0  1  0  0  0  0  0999 V2000
   35.2020   27.8560   36.8020 C   0  0  0  0  0  0  0  0  0  0  0  0
   34.8360   28.8960   36.9590 H   0  0  0  0  0  0  0  0  0  0  0  0
   34.4600   27.2800   36.2460 H   0  0  0  0  0  0  0  0  0  0  0  0
   36.5370   27.9630   36.1000 C   0  0  1  0  0  0  0  0  0  0  0  0
   36.5780   28.8210   34.8850 C   0  0  0  0  0  0  0  0  0  0  0  0
   37.2450   29.2640   36.0940 C   0  0  1  0  0  0  0  0  0  0  0  0
   37.1690   27.0520   36.0690 H   0  0  0  0  0  0  0  0  0  0  0  0
   35.6070   29.2390   34.5350 H   0  0  0  0  0  0  0  0  0  0  0  0
   37.1940   28.4840   34.0070 H   0  0  0  0  0  0  0  0  0  0  0  0
   38.3750   29.1960   36.0720 H   0  0  0  0  0  0  0  0  0  0  0  0
   36.7600   30.3240   37.0090 C   0  0  0  0  0  0  0  0  0  0  0  0
   37.7960   31.4450   37.2880 C   0  0  0  0  0  0  0  0  0  0  0  0
   37.5180   30.4480   38.3490 C   0  0  0  0  0  0  0  0  0  0  0  0
   35.7010   30.5890   37.0300 H   0  0  0  0  0  0  0  0  0  0  0  0
   37.3240   32.4660   37.3230 H   0  0  0  0  0  0  0  0  0  0  0  0
   38.7110   31.4370   36.6850 H   0  0  0  0  0  0  0  0  0  0  0  0
   36.9000   30.7990   39.2170 H   0  0  0  0  0  0  0  0  0  0  0  0
   38.3390   29.7440   38.5520 H   0  0  0  0  0  0  0  0  0  0  0  0
   36.3960   26.5340   38.3620 C   0  0  0  0  0  3  0  0  0  0  0  0
   35.4010   27.3140   38.2070 C   0  0  0  0  0  3  0  0  0  0  0  0
   36.6900   24.1660   41.1660 C   0  0  0  0  0  0  0  0  0  0  0  0
   37.0230   24.9820   42.2380 C   0  0  0  0  0  0  0  0  0  0  0  0
   37.1550   26.3130   41.9810 C   0  0  0  0  0  0  0  0  0  0  0  0
   36.9530   26.7510   40.7110 N   0  0  0  0  0  0  0  0  0  0  0  0
   36.6330   25.9710   39.6840 C   0  0  0  0  0  0  0  0  0  0  0  0
   36.5090   24.6730   39.9510 N   0  0  0  0  0  0  0  0  0  0  0  0
   36.5550   23.0820   41.2340 H   0  0  0  0  0  0  0  0  0  0  0  0
   37.1480   24.4880   43.1660 H   0  0  0  0  0  0  0  0  0  0  0  0
   37.5110   27.2240   43.1200 C   0  0  0  0  0  3  0  0  0  0  0  0
   37.3070   28.6680   42.8320 C   0  0  0  0  0  2  0  0  0  0  0  0
   38.5480   29.5020   43.1390 C   0  0  0  0  0  2  0  0  0  0  0  0
   39.7690   28.9360   42.4680 C   0  0  0  0  0  2  0  0  0  0  0  0
   39.9970   27.4910   42.7730 C   0  0  0  0  0  2  0  0  0  0  0  0
   38.9010   26.9300   43.6330 C   0  0  0  0  0  2  0  0  0  0  0  0
  1  2  1  0  0  0  0
  1 20  1  0  0  0  0
  3  1  1  0  0  0  0
  4  7  1  6  0  0  0
  4  1  1  0  0  0  0
  5  6  1  0  0  0  0
  5  4  1  0  0  0  0
  6 10  1  6  0  0  0
  6  4  1  0  0  0  0
  6 11  1  0  0  0  0
  8  5  1  0  0  0  0
  9  5  1  0  0  0  0
 11 14  1  0  0  0  0
 11 12  1  0  0  0  0
 11 13  1  0  0  0  0
 12 15  1  0  0  0  0
 12 13  1  0  0  0  0
 13 18  1  0  0  0  0
 13 17  1  0  0  0  0
 16 12  1  0  0  0  0
 19 25  1  0  0  0  0
 20 19  2  0  0  0  0
 21 27  1  0  0  0  0
 21 22  1  0  0  0  0
 22 28  1  0  0  0  0
 23 22  2  0  0  0  0
 23 29  1  0  0  0  0
 24 23  1  0  0  0  0
 25 26  1  0  0  0  0
 25 24  2  0  0  0  0
 26 21  2  0  0  0  0
 29 34  1  0  0  0  0
 30 29  1  0  0  0  0
 30 31  1  0  0  0  0
 32 33  1  0  0  0  0
 32 31  1  0  0  0  0
 33 34  1  0  0  0  0
M  END
>  <minimizedAffinity>
-5.01128674

$$$$

 OpenBabel03252508163D

 34 37  0  0  1  0  0  0  0  0999 V2000
   34.6400   29.2570   38.6140 C   0  0  0  0  0  0  0  0  0  0  0  0
   35.2680   30.0060   38.0810 H   0  0  0  0  0  0  0  0  0  0  0  0
   33.8400   29.7610   39.1600 H   0  0  0  0  0  0  0  0  0  0  0  0
   34.1410   28.2810   37.5720 C   0  0  1  0  0  0  0  0  0  0  0  0
   33.2460   28.8380   36.5210 C   0  0  0  0  0  0  0  0  0  0  0  0
   34.5930   28.4340   36.1700 C   0  0  1  0  0  0  0  0  0  0  0  0
   33.9060   27.2520   37.9100 H   0  0  0  0  0  0  0  0  0  0  0  0
   32.9380   29.9020   36.6390 H   0  0  0  0  0  0  0  0  0  0  0  0
   32.3750   28.2190   36.1710 H   0  0  0  0  0  0  0  0  0  0  0  0
   34.6680   27.4690   35.5800 H   0  0  0  0  0  0  0  0  0  0  0  0
   35.7270   29.3500   35.8990 C   0  0  0  0  0  0  0  0  0  0  0  0
   36.4470   29.0890   34.5500 C   0  0  0  0  0  0  0  0  0  0  0  0
   37.1170   28.6840   35.8090 C   0  0  0  0  0  0  0  0  0  0  0  0
   35.7080   30.3730   36.2800 H   0  0  0  0  0  0  0  0  0  0  0  0
   36.7380   30.0430   34.0280 H   0  0  0  0  0  0  0  0  0  0  0  0
   35.9770   28.3730   33.8660 H   0  0  0  0  0  0  0  0  0  0  0  0
   37.9760   29.3210   36.1470 H   0  0  0  0  0  0  0  0  0  0  0  0
   37.1870   27.5980   35.9690 H   0  0  0  0  0  0  0  0  0  0  0  0
   35.8500   29.1610   40.6480 C   0  0  0  0  0  3  0  0  0  0  0  0
   35.6090   28.5570   39.5520 C   0  0  0  0  0  3  0  0  0  0  0  0
   38.0990   28.6190   43.5130 C   0  0  0  0  0  0  0  0  0  0  0  0
   38.6110   27.3500   43.2790 C   0  0  0  0  0  0  0  0  0  0  0  0
   38.1700   26.7040   42.1640 C   0  0  0  0  0  0  0  0  0  0  0  0
   37.2720   27.3330   41.3630 N   0  0  0  0  0  0  0  0  0  0  0  0
   36.7810   28.5480   41.5850 C   0  0  0  0  0  0  0  0  0  0  0  0
   37.2210   29.1660   42.6790 N   0  0  0  0  0  0  0  0  0  0  0  0
   38.3670   29.2450   44.3690 H   0  0  0  0  0  0  0  0  0  0  0  0
   39.3020   26.9980   43.9990 H   0  0  0  0  0  0  0  0  0  0  0  0
   38.7080   25.3310   41.8810 C   0  0  0  0  0  3  0  0  0  0  0  0
   39.2650   25.1660   40.5130 C   0  0  0  0  0  2  0  0  0  0  0  0
   38.6800   23.9550   39.7900 C   0  0  0  0  0  2  0  0  0  0  0  0
   37.1770   23.9770   39.8120 C   0  0  0  0  0  2  0  0  0  0  0  0
   36.6070   24.1160   41.1870 C   0  0  0  0  0  2  0  0  0  0  0  0
   37.6870   24.2700   42.2180 C   0  0  0  0  0  2  0  0  0  0  0  0
  1  3  1  0  0  0  0
  1 20  1  0  0  0  0
  2  1  1  0  0  0  0
  4  7  1  1  0  0  0
  4  1  1  0  0  0  0
  5  8  1  0  0  0  0
  5  4  1  0  0  0  0
  6 10  1  6  0  0  0
  6  5  1  0  0  0  0
  6  4  1  0  0  0  0
  9  5  1  0  0  0  0
 11  6  1  0  0  0  0
 11 14  1  0  0  0  0
 12 13  1  0  0  0  0
 12 11  1  0  0  0  0
 13 11  1  0  0  0  0
 13 18  1  0  0  0  0
 13 17  1  0  0  0  0
 15 12  1  0  0  0  0
 16 12  1  0  0  0  0
 19 25  1  0  0  0  0
 20 19  2  0  0  0  0
 21 27  1  0  0  0  0
 22 21  1  0  0  0  0
 22 28  1  0  0  0  0
 23 22  2  0  0  0  0
 24 25  2  0  0  0  0
 24 23  1  0  0  0  0
 25 26  1  0  0  0  0
 26 21  2  0  0  0  0
 29 23  1  0  0  0  0
 29 34  1  0  0  0  0
 30 29  1  0  0  0  0
 31 32  1  0  0  0  0
 31 30  1  0  0  0  0
 32 33  1  0  0  0  0
 33 34  1  0  0  0  0
M  END
>  <minimizedAffinity>
-4.9954195

$$$$
