
 OpenBabel03242513393D

 31 34  0  0  0  0  0  0  0  0999 V2000
   33.2710   29.2080   38.1470 C   0  0  0  0  0  0  0  0  0  0  0  0
   34.4640   28.5350   38.1680 C   0  0  0  0  0  0  0  0  0  0  0  0
   34.7520   27.7230   37.0990 C   0  0  0  0  0  0  0  0  0  0  0  0
   33.9110   27.5520   36.0170 C   0  0  0  0  0  0  0  0  0  0  0  0
   33.8850   26.8680   34.8600 N   0  0  0  0  0  0  0  0  0  0  0  0
   32.7440   27.1180   34.1870 C   0  0  0  0  0  0  0  0  0  0  0  0
   32.0430   27.9790   34.9440 N   0  0  0  0  0  0  0  0  0  0  0  0
   32.7360   28.2610   36.0690 C   0  0  0  0  0  0  0  0  0  0  0  0
   32.3580   29.1000   37.0990 C   0  0  0  0  0  0  0  0  0  0  0  0
   33.0590   29.8440   38.9910 H   0  0  0  0  0  0  0  0  0  0  0  0
   35.6860   27.1790   37.0880 H   0  0  0  0  0  0  0  0  0  0  0  0
   34.6730   26.2360   34.5640 H   0  0  0  0  0  0  0  0  0  0  0  0
   32.4300   26.7210   33.2320 H   0  0  0  0  0  0  0  0  0  0  0  0
   37.0420   27.8170   40.6590 C   0  0  0  0  0  0  0  0  0  0  0  0
   37.0910   29.0010   41.4070 C   0  0  0  0  0  0  0  0  0  0  0  0
   36.2270   30.0160   41.0260 C   0  0  0  0  0  0  0  0  0  0  0  0
   35.3790   29.8520   39.9730 N   0  0  0  0  0  0  0  0  0  0  0  0
   35.3770   28.6870   39.2880 C   0  0  0  0  0  0  0  0  0  0  0  0
   36.1940   27.6790   39.6200 N   0  0  0  0  0  0  0  0  0  0  0  0
   37.6680   26.9770   40.8720 H   0  0  0  0  0  0  0  0  0  0  0  0
   36.2860   30.9060   41.6140 H   0  0  0  0  0  0  0  0  0  0  0  0
   38.0560   29.0600   42.5310 C   0  0  0  0  0  0  0  0  0  0  0  0
   37.3160   28.8610   43.6780 F   0  0  0  0  0  0  0  0  0  0  0  0
   38.6300   30.2990   42.5430 F   0  0  0  0  0  0  0  0  0  0  0  0
   39.0090   28.0750   42.3190 F   0  0  0  0  0  0  0  0  0  0  0  0
   31.0650   29.8190   37.0490 C   0  0  0  0  0  3  0  0  0  0  0  0
   31.1070   31.0470   36.1800 C   0  0  0  0  0  2  0  0  0  0  0  0
   30.2170   32.1490   36.7690 C   0  0  0  0  0  2  0  0  0  0  0  0
   28.9280   31.4680   37.1730 C   0  0  0  0  0  2  0  0  0  0  0  0
   29.2130   30.7240   38.4680 C   0  0  0  0  0  2  0  0  0  0  0  0
   30.5810   30.0720   38.4300 C   0  0  0  0  0  2  0  0  0  0  0  0
  1  2  1  0  0  0  0
  1 10  1  0  0  0  0
  2 18  1  0  0  0  0
  3  2  2  0  0  0  0
  4  8  2  0  0  0  0
  4  3  1  0  0  0  0
  5  4  1  0  0  0  0
  6  5  1  0  0  0  0
  6  7  2  0  0  0  0
  7  8  1  0  0  0  0
  8  9  1  0  0  0  0
  9  1  2  0  0  0  0
 11  3  1  0  0  0  0
 12  5  1  0  0  0  0
 13  6  1  0  0  0  0
 14 20  1  0  0  0  0
 14 15  1  0  0  0  0
 15 22  1  0  0  0  0
 16 15  2  0  0  0  0
 16 21  1  0  0  0  0
 17 16  1  0  0  0  0
 18 19  1  0  0  0  0
 18 17  2  0  0  0  0
 19 14  2  0  0  0  0
 22 24  1  0  0  0  0
 22 23  1  0  0  0  0
 25 22  1  0  0  0  0
 26  9  1  0  0  0  0
 26 31  1  0  0  0  0
 27 28  1  0  0  0  0
 27 26  1  0  0  0  0
 28 29  1  0  0  0  0
 29 30  1  0  0  0  0
 31 30  1  0  0  0  0
M  END
>  <minimizedAffinity>
-5.92728186

$$$$

 OpenBabel03242513393D

 31 34  0  0  0  0  0  0  0  0999 V2000
   39.6580   30.2400   41.1280 C   0  0  0  0  0  0  0  0  0  0  0  0
   38.3980   29.7430   40.9180 C   0  0  0  0  0  0  0  0  0  0  0  0
   37.4240   30.6310   40.5310 C   0  0  0  0  0  0  0  0  0  0  0  0
   37.6470   31.9810   40.3450 C   0  0  0  0  0  0  0  0  0  0  0  0
   36.9540   33.0760   39.9860 N   0  0  0  0  0  0  0  0  0  0  0  0
   37.7520   34.1610   39.9820 C   0  0  0  0  0  0  0  0  0  0  0  0
   38.9720   33.7320   40.3460 N   0  0  0  0  0  0  0  0  0  0  0  0
   38.9340   32.4000   40.5730 C   0  0  0  0  0  0  0  0  0  0  0  0
   39.9790   31.5860   40.9650 C   0  0  0  0  0  0  0  0  0  0  0  0
   40.4130   29.5320   41.4300 H   0  0  0  0  0  0  0  0  0  0  0  0
   36.4200   30.2680   40.3590 H   0  0  0  0  0  0  0  0  0  0  0  0
   35.9290   33.0390   39.7510 H   0  0  0  0  0  0  0  0  0  0  0  0
   37.4920   35.1820   39.7390 H   0  0  0  0  0  0  0  0  0  0  0  0
   38.0550   26.1640   40.2570 C   0  0  0  0  0  0  0  0  0  0  0  0
   37.5910   25.6640   41.4820 C   0  0  0  0  0  0  0  0  0  0  0  0
   37.4100   26.5830   42.5030 C   0  0  0  0  0  0  0  0  0  0  0  0
   37.6750   27.9050   42.3070 N   0  0  0  0  0  0  0  0  0  0  0  0
   38.1210   28.3290   41.1040 C   0  0  0  0  0  0  0  0  0  0  0  0
   38.3110   27.4770   40.0880 N   0  0  0  0  0  0  0  0  0  0  0  0
   38.2270   25.5370   39.4090 H   0  0  0  0  0  0  0  0  0  0  0  0
   37.0570   26.1740   43.4240 H   0  0  0  0  0  0  0  0  0  0  0  0
   37.3380   24.2060   41.5720 C   0  0  0  0  0  0  0  0  0  0  0  0
   37.7600   23.8240   42.8290 F   0  0  0  0  0  0  0  0  0  0  0  0
   38.0780   23.5790   40.6110 F   0  0  0  0  0  0  0  0  0  0  0  0
   35.9820   24.0010   41.3660 F   0  0  0  0  0  0  0  0  0  0  0  0
   41.3310   32.1470   41.1810 C   0  0  0  0  0  3  0  0  0  0  0  0
   42.1990   32.0820   39.9520 C   0  0  0  0  0  2  0  0  0  0  0  0
   43.6590   31.8220   40.3430 C   0  0  0  0  0  2  0  0  0  0  0  0
   43.9470   32.7420   41.5080 C   0  0  0  0  0  2  0  0  0  0  0  0
   43.2960   32.1170   42.7310 C   0  0  0  0  0  2  0  0  0  0  0  0
   41.9420   31.5290   42.3850 C   0  0  0  0  0  2  0  0  0  0  0  0
  1 10  1  0  0  0  0
  2 18  1  0  0  0  0
  2  1  2  0  0  0  0
  3  2  1  0  0  0  0
  4  3  2  0  0  0  0
  4  8  1  0  0  0  0
  5  4  1  0  0  0  0
  6  5  1  0  0  0  0
  6  7  2  0  0  0  0
  7  8  1  0  0  0  0
  8  9  2  0  0  0  0
  9  1  1  0  0  0  0
  9 26  1  0  0  0  0
 11  3  1  0  0  0  0
 12  5  1  0  0  0  0
 13  6  1  0  0  0  0
 14 15  1  0  0  0  0
 15 22  1  0  0  0  0
 15 16  2  0  0  0  0
 16 21  1  0  0  0  0
 17 16  1  0  0  0  0
 18 17  2  0  0  0  0
 19 14  2  0  0  0  0
 19 18  1  0  0  0  0
 20 14  1  0  0  0  0
 22 23  1  0  0  0  0
 24 22  1  0  0  0  0
 25 22  1  0  0  0  0
 26 31  1  0  0  0  0
 27 28  1  0  0  0  0
 27 26  1  0  0  0  0
 28 29  1  0  0  0  0
 29 30  1  0  0  0  0
 31 30  1  0  0  0  0
M  END
>  <minimizedAffinity>
-5.79801702

$$$$

 OpenBabel03242513393D

 31 34  0  0  0  0  0  0  0  0999 V2000
   36.8630   26.7920   39.0270 C   0  0  0  0  0  0  0  0  0  0  0  0
   36.6640   28.1460   38.9450 C   0  0  0  0  0  0  0  0  0  0  0  0
   36.5790   28.8450   40.1240 C   0  0  0  0  0  0  0  0  0  0  0  0
   36.6830   28.2620   41.3710 C   0  0  0  0  0  0  0  0  0  0  0  0
   36.6480   28.6350   42.6630 N   0  0  0  0  0  0  0  0  0  0  0  0
   36.8160   27.5670   43.4680 C   0  0  0  0  0  0  0  0  0  0  0  0
   36.9590   26.5040   42.6580 N   0  0  0  0  0  0  0  0  0  0  0  0
   36.8820   26.9040   41.3700 C   0  0  0  0  0  0  0  0  0  0  0  0
   36.9800   26.1160   40.2400 C   0  0  0  0  0  0  0  0  0  0  0  0
   36.9290   26.2560   38.0940 H   0  0  0  0  0  0  0  0  0  0  0  0
   36.4230   29.9150   40.0900 H   0  0  0  0  0  0  0  0  0  0  0  0
   36.5060   29.6350   42.9540 H   0  0  0  0  0  0  0  0  0  0  0  0
   36.8360   27.5400   44.5490 H   0  0  0  0  0  0  0  0  0  0  0  0
   36.9990   30.6110   36.2660 C   0  0  0  0  0  0  0  0  0  0  0  0
   36.3180   30.0070   35.2010 C   0  0  0  0  0  0  0  0  0  0  0  0
   35.7620   28.7610   35.4410 C   0  0  0  0  0  0  0  0  0  0  0  0
   35.8810   28.1670   36.6620 N   0  0  0  0  0  0  0  0  0  0  0  0
   36.5500   28.7980   37.6520 C   0  0  0  0  0  0  0  0  0  0  0  0
   37.1040   30.0030   37.4660 N   0  0  0  0  0  0  0  0  0  0  0  0
   37.4630   31.5700   36.1820 H   0  0  0  0  0  0  0  0  0  0  0  0
   35.2500   28.3250   34.6110 H   0  0  0  0  0  0  0  0  0  0  0  0
   36.2570   30.7520   33.9200 C   0  0  0  0  0  0  0  0  0  0  0  0
   36.8170   29.9230   32.9710 F   0  0  0  0  0  0  0  0  0  0  0  0
   36.9930   31.8940   34.0500 F   0  0  0  0  0  0  0  0  0  0  0  0
   34.9250   31.0470   33.6690 F   0  0  0  0  0  0  0  0  0  0  0  0
   37.1980   24.6560   40.3560 C   0  0  0  0  0  3  0  0  0  0  0  0
   38.6530   24.2720   40.3000 C   0  0  0  0  0  2  0  0  0  0  0  0
   38.8230   22.9290   39.5790 C   0  0  0  0  0  2  0  0  0  0  0  0
   37.7510   22.0200   40.1380 C   0  0  0  0  0  2  0  0  0  0  0  0
   36.4420   22.4350   39.4860 C   0  0  0  0  0  2  0  0  0  0  0  0
   36.3470   23.9440   39.3700 C   0  0  0  0  0  2  0  0  0  0  0  0
  1  9  1  0  0  0  0
  2  1  2  0  0  0  0
  2  3  1  0  0  0  0
  3  4  2  0  0  0  0
  4  5  1  0  0  0  0
  5 12  1  0  0  0  0
  5  6  1  0  0  0  0
  6 13  1  0  0  0  0
  7  6  2  0  0  0  0
  8  4  1  0  0  0  0
  8  7  1  0  0  0  0
  9 26  1  0  0  0  0
  9  8  2  0  0  0  0
 10  1  1  0  0  0  0
 11  3  1  0  0  0  0
 14 19  1  0  0  0  0
 15 16  1  0  0  0  0
 15 14  2  0  0  0  0
 16 17  2  0  0  0  0
 17 18  1  0  0  0  0
 18  2  1  0  0  0  0
 19 18  2  0  0  0  0
 20 14  1  0  0  0  0
 21 16  1  0  0  0  0
 22 24  1  0  0  0  0
 22 15  1  0  0  0  0
 23 22  1  0  0  0  0
 25 22  1  0  0  0  0
 27 26  1  0  0  0  0
 28 29  1  0  0  0  0
 28 27  1  0  0  0  0
 30 29  1  0  0  0  0
 31 30  1  0  0  0  0
 31 26  1  0  0  0  0
M  END
>  <minimizedAffinity>
-5.69107103

$$$$

 OpenBabel03242513393D

 31 34  0  0  0  0  0  0  0  0999 V2000
   36.7510   27.3570   38.9350 C   0  0  0  0  0  0  0  0  0  0  0  0
   36.3090   27.0810   37.6670 C   0  0  0  0  0  0  0  0  0  0  0  0
   35.8650   25.8060   37.4150 C   0  0  0  0  0  0  0  0  0  0  0  0
   35.8410   24.8010   38.3620 C   0  0  0  0  0  0  0  0  0  0  0  0
   35.4870   23.5060   38.4470 N   0  0  0  0  0  0  0  0  0  0  0  0
   35.7040   23.0370   39.6920 C   0  0  0  0  0  0  0  0  0  0  0  0
   36.2050   24.0640   40.3980 N   0  0  0  0  0  0  0  0  0  0  0  0
   36.2980   25.1560   39.6060 C   0  0  0  0  0  0  0  0  0  0  0  0
   36.7640   26.4080   39.9560 C   0  0  0  0  0  0  0  0  0  0  0  0
   37.0940   28.3620   39.1190 H   0  0  0  0  0  0  0  0  0  0  0  0
   35.5110   25.5590   36.4240 H   0  0  0  0  0  0  0  0  0  0  0  0
   35.0990   22.9760   37.6260 H   0  0  0  0  0  0  0  0  0  0  0  0
   35.5220   22.0420   40.0730 H   0  0  0  0  0  0  0  0  0  0  0  0
   36.7020   30.3140   36.0070 C   0  0  0  0  0  0  0  0  0  0  0  0
   36.3240   30.0340   34.6860 C   0  0  0  0  0  0  0  0  0  0  0  0
   35.9430   28.7310   34.4090 C   0  0  0  0  0  0  0  0  0  0  0  0
   35.9420   27.7810   35.3860 N   0  0  0  0  0  0  0  0  0  0  0  0
   36.3180   28.1100   36.6420 C   0  0  0  0  0  0  0  0  0  0  0  0
   36.6930   29.3570   36.9560 N   0  0  0  0  0  0  0  0  0  0  0  0
   37.0130   31.2870   36.3210 H   0  0  0  0  0  0  0  0  0  0  0  0
   35.6600   28.5470   33.3960 H   0  0  0  0  0  0  0  0  0  0  0  0
   36.3660   31.1510   33.7130 C   0  0  0  0  0  0  0  0  0  0  0  0
   37.0670   32.1670   34.3300 F   0  0  0  0  0  0  0  0  0  0  0  0
   35.0850   31.5460   33.4530 F   0  0  0  0  0  0  0  0  0  0  0  0
   36.9830   30.6840   32.5620 F   0  0  0  0  0  0  0  0  0  0  0  0
   37.2310   26.6810   41.3330 C   0  0  0  0  0  3  0  0  0  0  0  0
   36.4990   27.8210   41.9890 C   0  0  0  0  0  2  0  0  0  0  0  0
   37.4460   28.6110   42.9000 C   0  0  0  0  0  2  0  0  0  0  0  0
   38.2310   27.5790   43.6790 C   0  0  0  0  0  2  0  0  0  0  0  0
   39.2800   27.0210   42.7300 C   0  0  0  0  0  2  0  0  0  0  0  0
   38.7090   26.8300   41.3390 C   0  0  0  0  0  2  0  0  0  0  0  0
  1 10  1  0  0  0  0
  1  9  1  0  0  0  0
  2  1  2  0  0  0  0
  3  2  1  0  0  0  0
  3  4  2  0  0  0  0
  4  5  1  0  0  0  0
  4  8  1  0  0  0  0
  5  6  1  0  0  0  0
  6 13  1  0  0  0  0
  6  7  2  0  0  0  0
  8  9  2  0  0  0  0
  8  7  1  0  0  0  0
  9 26  1  0  0  0  0
 11  3  1  0  0  0  0
 12  5  1  0  0  0  0
 14 20  1  0  0  0  0
 14 19  1  0  0  0  0
 15 14  2  0  0  0  0
 16 15  1  0  0  0  0
 16 17  2  0  0  0  0
 17 18  1  0  0  0  0
 18 19  2  0  0  0  0
 18  2  1  0  0  0  0
 21 16  1  0  0  0  0
 22 23  1  0  0  0  0
 22 15  1  0  0  0  0
 24 22  1  0  0  0  0
 25 22  1  0  0  0  0
 26 31  1  0  0  0  0
 26 27  1  0  0  0  0
 27 28  1  0  0  0  0
 28 29  1  0  0  0  0
 30 29  1  0  0  0  0
 31 30  1  0  0  0  0
M  END
>  <minimizedAffinity>
-5.6847229

$$$$

 OpenBabel03242513393D

 31 34  0  0  0  0  0  0  0  0999 V2000
   39.6380   29.9490   39.7520 C   0  0  0  0  0  0  0  0  0  0  0  0
   38.4400   29.5670   40.2970 C   0  0  0  0  0  0  0  0  0  0  0  0
   37.5170   30.5510   40.5500 C   0  0  0  0  0  0  0  0  0  0  0  0
   37.7310   31.8890   40.2850 C   0  0  0  0  0  0  0  0  0  0  0  0
   37.0730   33.0570   40.4030 N   0  0  0  0  0  0  0  0  0  0  0  0
   37.8330   34.0750   39.9540 C   0  0  0  0  0  0  0  0  0  0  0  0
   38.9910   33.5290   39.5460 N   0  0  0  0  0  0  0  0  0  0  0  0
   38.9530   32.1920   39.7390 C   0  0  0  0  0  0  0  0  0  0  0  0
   39.9440   31.2750   39.4500 C   0  0  0  0  0  0  0  0  0  0  0  0
   40.3530   29.1660   39.5570 H   0  0  0  0  0  0  0  0  0  0  0  0
   36.5630   30.2800   40.9810 H   0  0  0  0  0  0  0  0  0  0  0  0
   36.1000   33.1150   40.7980 H   0  0  0  0  0  0  0  0  0  0  0  0
   37.5870   35.1280   39.9160 H   0  0  0  0  0  0  0  0  0  0  0  0
   37.3420   26.5360   42.0220 C   0  0  0  0  0  0  0  0  0  0  0  0
   37.6890   25.5220   41.1190 C   0  0  0  0  0  0  0  0  0  0  0  0
   38.2940   25.9170   39.9370 C   0  0  0  0  0  0  0  0  0  0  0  0
   38.5330   27.2340   39.6820 N   0  0  0  0  0  0  0  0  0  0  0  0
   38.1760   28.1690   40.5910 C   0  0  0  0  0  0  0  0  0  0  0  0
   37.5890   27.8330   41.7470 N   0  0  0  0  0  0  0  0  0  0  0  0
   36.8710   26.3340   42.9600 H   0  0  0  0  0  0  0  0  0  0  0  0
   38.5460   25.1230   39.2690 H   0  0  0  0  0  0  0  0  0  0  0  0
   37.3780   24.1250   41.5100 C   0  0  0  0  0  0  0  0  0  0  0  0
   36.0010   24.0330   41.5250 F   0  0  0  0  0  0  0  0  0  0  0  0
   37.8840   23.9030   42.7590 F   0  0  0  0  0  0  0  0  0  0  0  0
   37.9710   23.2860   40.5790 F   0  0  0  0  0  0  0  0  0  0  0  0
   41.2270   31.7140   38.8570 C   0  0  0  0  0  3  0  0  0  0  0  0
   41.2100   31.7170   37.3520 C   0  0  0  0  0  2  0  0  0  0  0  0
   42.5840   31.3160   36.8000 C   0  0  0  0  0  2  0  0  0  0  0  0
   43.5990   32.0860   37.6150 C   0  0  0  0  0  2  0  0  0  0  0  0
   43.7060   31.3830   38.9580 C   0  0  0  0  0  2  0  0  0  0  0  0
   42.3440   30.9310   39.4450 C   0  0  0  0  0  2  0  0  0  0  0  0
  1  2  1  0  0  0  0
  2  3  2  0  0  0  0
  2 18  1  0  0  0  0
  3 11  1  0  0  0  0
  4  5  1  0  0  0  0
  4  3  1  0  0  0  0
  5 12  1  0  0  0  0
  6  5  1  0  0  0  0
  7  8  1  0  0  0  0
  7  6  2  0  0  0  0
  8  4  2  0  0  0  0
  9  8  1  0  0  0  0
  9  1  2  0  0  0  0
 10  1  1  0  0  0  0
 13  6  1  0  0  0  0
 14 20  1  0  0  0  0
 15 22  1  0  0  0  0
 15 14  2  0  0  0  0
 16 15  1  0  0  0  0
 17 16  2  0  0  0  0
 17 18  1  0  0  0  0
 18 19  2  0  0  0  0
 19 14  1  0  0  0  0
 21 16  1  0  0  0  0
 22 23  1  0  0  0  0
 22 24  1  0  0  0  0
 25 22  1  0  0  0  0
 26 31  1  0  0  0  0
 26  9  1  0  0  0  0
 27 26  1  0  0  0  0
 28 27  1  0  0  0  0
 28 29  1  0  0  0  0
 29 30  1  0  0  0  0
 30 31  1  0  0  0  0
M  END
>  <minimizedAffinity>
-5.67863417

$$$$

 OpenBabel03242513393D

 31 34  0  0  0  0  0  0  0  0999 V2000
   36.0590   27.1990   39.3360 C   0  0  0  0  0  0  0  0  0  0  0  0
   35.4190   28.4090   39.2600 C   0  0  0  0  0  0  0  0  0  0  0  0
   35.6090   29.2910   40.2950 C   0  0  0  0  0  0  0  0  0  0  0  0
   36.4020   29.0260   41.3940 C   0  0  0  0  0  0  0  0  0  0  0  0
   36.7870   29.6350   42.5290 N   0  0  0  0  0  0  0  0  0  0  0  0
   37.6080   28.8380   43.2400 C   0  0  0  0  0  0  0  0  0  0  0  0
   37.7370   27.7040   42.5310 N   0  0  0  0  0  0  0  0  0  0  0  0
   37.0090   27.7950   41.3960 C   0  0  0  0  0  0  0  0  0  0  0  0
   36.8790   26.8420   40.4040 C   0  0  0  0  0  0  0  0  0  0  0  0
   35.9020   26.5170   38.5160 H   0  0  0  0  0  0  0  0  0  0  0  0
   35.1170   30.2530   40.2630 H   0  0  0  0  0  0  0  0  0  0  0  0
   36.4640   30.6040   42.7830 H   0  0  0  0  0  0  0  0  0  0  0  0
   38.0810   29.0410   44.1910 H   0  0  0  0  0  0  0  0  0  0  0  0
   32.4990   29.3190   37.2580 C   0  0  0  0  0  0  0  0  0  0  0  0
   33.0070   29.3260   35.9520 C   0  0  0  0  0  0  0  0  0  0  0  0
   34.3490   29.0140   35.8020 C   0  0  0  0  0  0  0  0  0  0  0  0
   35.1210   28.7180   36.8850 N   0  0  0  0  0  0  0  0  0  0  0  0
   34.5760   28.7280   38.1210 C   0  0  0  0  0  0  0  0  0  0  0  0
   33.2830   29.0230   38.3140 N   0  0  0  0  0  0  0  0  0  0  0  0
   31.4780   29.5460   37.4780 H   0  0  0  0  0  0  0  0  0  0  0  0
   34.7080   29.0280   34.7960 H   0  0  0  0  0  0  0  0  0  0  0  0
   32.0670   29.6640   34.8550 C   0  0  0  0  0  0  0  0  0  0  0  0
   32.6160   30.7500   34.2060 F   0  0  0  0  0  0  0  0  0  0  0  0
   30.8630   29.9970   35.4070 F   0  0  0  0  0  0  0  0  0  0  0  0
   31.9480   28.5460   34.0440 F   0  0  0  0  0  0  0  0  0  0  0  0
   37.5840   25.5450   40.5090 C   0  0  0  0  0  3  0  0  0  0  0  0
   38.8000   25.4630   39.6260 C   0  0  0  0  0  2  0  0  0  0  0  0
   38.9730   24.0380   39.0850 C   0  0  0  0  0  2  0  0  0  0  0  0
   38.7460   23.1170   40.2630 C   0  0  0  0  0  2  0  0  0  0  0  0
   37.2440   23.0650   40.4940 C   0  0  0  0  0  2  0  0  0  0  0  0
   36.6190   24.4340   40.3110 C   0  0  0  0  0  2  0  0  0  0  0  0
  1  9  1  0  0  0  0
  2  1  2  0  0  0  0
  2  3  1  0  0  0  0
  3  4  2  0  0  0  0
  4  8  1  0  0  0  0
  4  5  1  0  0  0  0
  5 12  1  0  0  0  0
  5  6  1  0  0  0  0
  6 13  1  0  0  0  0
  7  6  2  0  0  0  0
  8  7  1  0  0  0  0
  9 26  1  0  0  0  0
  9  8  2  0  0  0  0
 10  1  1  0  0  0  0
 11  3  1  0  0  0  0
 14 20  1  0  0  0  0
 14 19  1  0  0  0  0
 15 14  2  0  0  0  0
 16 15  1  0  0  0  0
 16 17  2  0  0  0  0
 17 18  1  0  0  0  0
 18 19  2  0  0  0  0
 18  2  1  0  0  0  0
 21 16  1  0  0  0  0
 22 24  1  0  0  0  0
 22 15  1  0  0  0  0
 23 22  1  0  0  0  0
 25 22  1  0  0  0  0
 27 26  1  0  0  0  0
 28 27  1  0  0  0  0
 28 29  1  0  0  0  0
 29 30  1  0  0  0  0
 31 30  1  0  0  0  0
 31 26  1  0  0  0  0
M  END
>  <minimizedAffinity>
-5.65445614

$$$$

 OpenBabel03242513393D

 31 34  0  0  0  0  0  0  0  0999 V2000
   36.9660   30.2560   39.5370 C   0  0  0  0  0  0  0  0  0  0  0  0
   35.9410   29.3460   39.5090 C   0  0  0  0  0  0  0  0  0  0  0  0
   35.7540   28.5700   40.6260 C   0  0  0  0  0  0  0  0  0  0  0  0
   36.5350   28.6570   41.7610 C   0  0  0  0  0  0  0  0  0  0  0  0
   36.6220   28.0770   42.9720 N   0  0  0  0  0  0  0  0  0  0  0  0
   37.6380   28.6090   43.6800 C   0  0  0  0  0  0  0  0  0  0  0  0
   38.1970   29.5430   42.8920 N   0  0  0  0  0  0  0  0  0  0  0  0
   37.5400   29.5920   41.7120 C   0  0  0  0  0  0  0  0  0  0  0  0
   37.8060   30.4170   40.6370 C   0  0  0  0  0  0  0  0  0  0  0  0
   37.1000   30.8600   38.6550 H   0  0  0  0  0  0  0  0  0  0  0  0
   34.9530   27.8430   40.6330 H   0  0  0  0  0  0  0  0  0  0  0  0
   35.9630   27.3160   43.2770 H   0  0  0  0  0  0  0  0  0  0  0  0
   37.9600   28.3560   44.6800 H   0  0  0  0  0  0  0  0  0  0  0  0
   32.9920   28.9100   37.3930 C   0  0  0  0  0  0  0  0  0  0  0  0
   33.5230   28.9920   36.0990 C   0  0  0  0  0  0  0  0  0  0  0  0
   34.8890   29.1970   35.9960 C   0  0  0  0  0  0  0  0  0  0  0  0
   35.6640   29.3100   37.1120 N   0  0  0  0  0  0  0  0  0  0  0  0
   35.0950   29.2230   38.3350 C   0  0  0  0  0  0  0  0  0  0  0  0
   33.7790   29.0250   38.4820 N   0  0  0  0  0  0  0  0  0  0  0  0
   31.9510   28.7540   37.5780 H   0  0  0  0  0  0  0  0  0  0  0  0
   35.2660   29.2570   34.9980 H   0  0  0  0  0  0  0  0  0  0  0  0
   32.5790   28.8540   34.9640 C   0  0  0  0  0  0  0  0  0  0  0  0
   31.3750   28.4680   35.5160 F   0  0  0  0  0  0  0  0  0  0  0  0
   33.0510   27.8850   34.1260 F   0  0  0  0  0  0  0  0  0  0  0  0
   32.5150   30.0790   34.3180 F   0  0  0  0  0  0  0  0  0  0  0  0
   38.9170   31.3940   40.6940 C   0  0  0  0  0  3  0  0  0  0  0  0
   38.4450   32.8230   40.6900 C   0  0  0  0  0  2  0  0  0  0  0  0
   39.4290   33.7080   39.9160 C   0  0  0  0  0  2  0  0  0  0  0  0
   40.8090   33.2970   40.3780 C   0  0  0  0  0  2  0  0  0  0  0  0
   41.1290   31.9830   39.6850 C   0  0  0  0  0  2  0  0  0  0  0  0
   39.9110   31.0830   39.6360 C   0  0  0  0  0  2  0  0  0  0  0  0
  1  9  1  0  0  0  0
  2  1  2  0  0  0  0
  2  3  1  0  0  0  0
  3 11  1  0  0  0  0
  3  4  2  0  0  0  0
  4  5  1  0  0  0  0
  5 12  1  0  0  0  0
  5  6  1  0  0  0  0
  6 13  1  0  0  0  0
  7  6  2  0  0  0  0
  8  4  1  0  0  0  0
  8  7  1  0  0  0  0
  9 26  1  0  0  0  0
  9  8  2  0  0  0  0
 10  1  1  0  0  0  0
 14 20  1  0  0  0  0
 14 19  1  0  0  0  0
 15 14  2  0  0  0  0
 16 15  1  0  0  0  0
 16 17  2  0  0  0  0
 17 18  1  0  0  0  0
 18 19  2  0  0  0  0
 18  2  1  0  0  0  0
 21 16  1  0  0  0  0
 22 23  1  0  0  0  0
 22 15  1  0  0  0  0
 24 22  1  0  0  0  0
 25 22  1  0  0  0  0
 27 26  1  0  0  0  0
 28 29  1  0  0  0  0
 28 27  1  0  0  0  0
 30 29  1  0  0  0  0
 31 30  1  0  0  0  0
 31 26  1  0  0  0  0
M  END
>  <minimizedAffinity>
-5.64071703

$$$$

 OpenBabel03242513393D

 31 34  0  0  0  0  0  0  0  0999 V2000
   35.2870   28.8870   38.9140 C   0  0  0  0  0  0  0  0  0  0  0  0
   35.2680   29.2020   37.5800 C   0  0  0  0  0  0  0  0  0  0  0  0
   36.4670   29.5070   36.9850 C   0  0  0  0  0  0  0  0  0  0  0  0
   37.6760   29.5110   37.6520 C   0  0  0  0  0  0  0  0  0  0  0  0
   38.9720   29.7500   37.3850 N   0  0  0  0  0  0  0  0  0  0  0  0
   39.7210   29.5870   38.4940 C   0  0  0  0  0  0  0  0  0  0  0  0
   38.8710   29.2380   39.4740 N   0  0  0  0  0  0  0  0  0  0  0  0
   37.6120   29.1840   38.9830 C   0  0  0  0  0  0  0  0  0  0  0  0
   36.4580   28.8650   39.6700 C   0  0  0  0  0  0  0  0  0  0  0  0
   34.3390   28.6480   39.3680 H   0  0  0  0  0  0  0  0  0  0  0  0
   36.4820   29.7590   35.9330 H   0  0  0  0  0  0  0  0  0  0  0  0
   39.3060   30.0240   36.4260 H   0  0  0  0  0  0  0  0  0  0  0  0
   40.7900   29.7050   38.6030 H   0  0  0  0  0  0  0  0  0  0  0  0
   32.8770   29.1940   34.8150 C   0  0  0  0  0  0  0  0  0  0  0  0
   31.6400   29.2220   35.4730 C   0  0  0  0  0  0  0  0  0  0  0  0
   31.6700   29.2430   36.8580 C   0  0  0  0  0  0  0  0  0  0  0  0
   32.8540   29.2370   37.5310 N   0  0  0  0  0  0  0  0  0  0  0  0
   34.0170   29.2090   36.8420 C   0  0  0  0  0  0  0  0  0  0  0  0
   34.0370   29.1880   35.5030 N   0  0  0  0  0  0  0  0  0  0  0  0
   32.9610   29.1760   33.7490 H   0  0  0  0  0  0  0  0  0  0  0  0
   30.7130   29.2640   37.3320 H   0  0  0  0  0  0  0  0  0  0  0  0
   30.4190   29.2270   34.6310 C   0  0  0  0  0  0  0  0  0  0  0  0
   29.5390   30.0950   35.2430 F   0  0  0  0  0  0  0  0  0  0  0  0
   29.9030   27.9620   34.6120 F   0  0  0  0  0  0  0  0  0  0  0  0
   30.7880   29.6310   33.3570 F   0  0  0  0  0  0  0  0  0  0  0  0
   36.5070   28.5240   41.1100 C   0  0  0  0  0  3  0  0  0  0  0  0
   37.1820   29.5810   41.9420 C   0  0  0  0  0  2  0  0  0  0  0  0
   37.9660   28.9350   43.0920 C   0  0  0  0  0  2  0  0  0  0  0  0
   37.0500   27.8840   43.6790 C   0  0  0  0  0  2  0  0  0  0  0  0
   37.0770   26.7000   42.7260 C   0  0  0  0  0  2  0  0  0  0  0  0
   37.0770   27.1640   41.2820 C   0  0  0  0  0  2  0  0  0  0  0  0
  1 10  1  0  0  0  0
  1  9  1  0  0  0  0
  2  1  2  0  0  0  0
  3  2  1  0  0  0  0
  3  4  2  0  0  0  0
  4  8  1  0  0  0  0
  5  4  1  0  0  0  0
  5  6  1  0  0  0  0
  6 13  1  0  0  0  0
  6  7  2  0  0  0  0
  8  7  1  0  0  0  0
  8  9  2  0  0  0  0
  9 26  1  0  0  0  0
 11  3  1  0  0  0  0
 12  5  1  0  0  0  0
 14 15  2  0  0  0  0
 14 19  1  0  0  0  0
 15 16  1  0  0  0  0
 16 21  1  0  0  0  0
 16 17  2  0  0  0  0
 18 17  1  0  0  0  0
 18  2  1  0  0  0  0
 19 18  2  0  0  0  0
 20 14  1  0  0  0  0
 22 23  1  0  0  0  0
 22 15  1  0  0  0  0
 24 22  1  0  0  0  0
 25 22  1  0  0  0  0
 26 31  1  0  0  0  0
 26 27  1  0  0  0  0
 27 28  1  0  0  0  0
 28 29  1  0  0  0  0
 30 29  1  0  0  0  0
 31 30  1  0  0  0  0
M  END
>  <minimizedAffinity>
-5.5512166

$$$$

 OpenBabel03242513393D

 31 34  0  0  0  0  0  0  0  0999 V2000
   35.4380   28.3770   39.0360 C   0  0  0  0  0  0  0  0  0  0  0  0
   34.8820   27.7810   37.9340 C   0  0  0  0  0  0  0  0  0  0  0  0
   35.2260   26.4760   37.6790 C   0  0  0  0  0  0  0  0  0  0  0  0
   36.0920   25.7430   38.4680 C   0  0  0  0  0  0  0  0  0  0  0  0
   36.6180   24.5060   38.5050 N   0  0  0  0  0  0  0  0  0  0  0  0
   37.4370   24.3720   39.5650 C   0  0  0  0  0  0  0  0  0  0  0  0
   37.4220   25.5530   40.2050 N   0  0  0  0  0  0  0  0  0  0  0  0
   36.6050   26.4100   39.5530 C   0  0  0  0  0  0  0  0  0  0  0  0
   36.3200   27.7180   39.8900 C   0  0  0  0  0  0  0  0  0  0  0  0
   35.1580   29.4010   39.2240 H   0  0  0  0  0  0  0  0  0  0  0  0
   34.8040   25.9790   36.8170 H   0  0  0  0  0  0  0  0  0  0  0  0
   36.3890   23.7780   37.7810 H   0  0  0  0  0  0  0  0  0  0  0  0
   38.0060   23.5020   39.8660 H   0  0  0  0  0  0  0  0  0  0  0  0
   33.4240   29.3880   34.9920 C   0  0  0  0  0  0  0  0  0  0  0  0
   32.2210   29.9110   35.4870 C   0  0  0  0  0  0  0  0  0  0  0  0
   31.9500   29.6910   36.8280 C   0  0  0  0  0  0  0  0  0  0  0  0
   32.8220   28.9980   37.6120 N   0  0  0  0  0  0  0  0  0  0  0  0
   33.9670   28.5170   37.0790 C   0  0  0  0  0  0  0  0  0  0  0  0
   34.2720   28.7050   35.7880 N   0  0  0  0  0  0  0  0  0  0  0  0
   33.7240   29.5040   33.9730 H   0  0  0  0  0  0  0  0  0  0  0  0
   31.0270   30.1000   37.1770 H   0  0  0  0  0  0  0  0  0  0  0  0
   31.3540   30.6470   34.5360 C   0  0  0  0  0  0  0  0  0  0  0  0
   31.0850   29.7670   33.5080 F   0  0  0  0  0  0  0  0  0  0  0  0
   32.0460   31.7270   34.0680 F   0  0  0  0  0  0  0  0  0  0  0  0
   30.2190   31.0470   35.2240 F   0  0  0  0  0  0  0  0  0  0  0  0
   36.9300   28.3370   41.0880 C   0  0  0  0  0  3  0  0  0  0  0  0
   38.3990   28.6200   40.9210 C   0  0  0  0  0  2  0  0  0  0  0  0
   39.1370   28.4130   42.2500 C   0  0  0  0  0  2  0  0  0  0  0  0
   38.2840   29.0790   43.3070 C   0  0  0  0  0  2  0  0  0  0  0  0
   37.1140   28.1460   43.5760 C   0  0  0  0  0  2  0  0  0  0  0  0
   36.6030   27.5290   42.2900 C   0  0  0  0  0  2  0  0  0  0  0  0
  1 10  1  0  0  0  0
  1  9  1  0  0  0  0
  2  1  2  0  0  0  0
  3  2  1  0  0  0  0
  3  4  2  0  0  0  0
  4  5  1  0  0  0  0
  4  8  1  0  0  0  0
  5  6  1  0  0  0  0
  6 13  1  0  0  0  0
  6  7  2  0  0  0  0
  8  9  2  0  0  0  0
  8  7  1  0  0  0  0
  9 26  1  0  0  0  0
 11  3  1  0  0  0  0
 12  5  1  0  0  0  0
 14 15  2  0  0  0  0
 14 19  1  0  0  0  0
 15 16  1  0  0  0  0
 16 21  1  0  0  0  0
 16 17  2  0  0  0  0
 18 17  1  0  0  0  0
 18  2  1  0  0  0  0
 19 18  2  0  0  0  0
 20 14  1  0  0  0  0
 22 25  1  0  0  0  0
 22 15  1  0  0  0  0
 23 22  1  0  0  0  0
 24 22  1  0  0  0  0
 26 31  1  0  0  0  0
 27 26  1  0  0  0  0
 27 28  1  0  0  0  0
 28 29  1  0  0  0  0
 29 30  1  0  0  0  0
 31 30  1  0  0  0  0
M  END
>  <minimizedAffinity>
-5.48938894

$$$$
