
 OpenBabel03252506203D

 30 32  0  0  0  0  0  0  0  0999 V2000
   45.0770   36.3680   42.8970 C   0  0  0  0  0  0  0  0  0  0  0  0
   43.7700   36.5250   42.4090 C   0  0  0  0  0  0  0  0  0  0  0  0
   43.3090   35.5650   41.4790 C   0  0  0  0  0  0  0  0  0  0  0  0
   44.1360   34.5620   41.1140 N   0  0  0  0  0  0  0  0  0  0  0  0
   45.3860   34.4520   41.6120 C   0  0  0  0  0  0  0  0  0  0  0  0
   45.8500   35.3490   42.4950 N   0  0  0  0  0  0  0  0  0  0  0  0
   43.1200   37.3210   42.7010 H   0  0  0  0  0  0  0  0  0  0  0  0
   42.3320   35.5970   41.0500 H   0  0  0  0  0  0  0  0  0  0  0  0
   48.1900   35.1870   40.7260 Cl  0  0  0  0  0  0  0  0  0  0  0  0
   47.5110   33.5900   40.7320 C   0  0  0  0  0  0  0  0  0  0  0  0
   46.2110   33.3270   41.1550 C   0  0  0  0  0  0  0  0  0  0  0  0
   45.6470   32.0710   41.1700 C   0  0  0  0  0  0  0  0  0  0  0  0
   46.4510   31.0340   40.7340 C   0  0  0  0  0  0  0  0  0  0  0  0
   47.7520   31.1860   40.2950 C   0  0  0  0  0  0  0  0  0  0  0  0
   48.2330   32.4970   40.3160 C   0  0  0  0  0  0  0  0  0  0  0  0
   44.6510   31.9160   41.5000 H   0  0  0  0  0  0  0  0  0  0  0  0
   46.0840   30.0120   40.7130 H   0  0  0  0  0  0  0  0  0  0  0  0
   48.3560   30.3660   39.9600 H   0  0  0  0  0  0  0  0  0  0  0  0
   49.2550   32.6540   39.9770 H   0  0  0  0  0  0  0  0  0  0  0  0
   45.5730   37.3600   43.8660 C   0  0  0  0  0  3  0  0  0  0  0  0
   45.6470   38.6140   43.4880 C   0  0  0  0  0  3  0  0  0  0  0  0
   46.1370   39.6690   44.4070 C   0  0  0  0  0  0  0  0  0  0  0  0
   46.7720   40.4010   43.8790 H   0  0  0  0  0  0  0  0  0  0  0  0
   46.6620   39.2350   45.2910 H   0  0  0  0  0  0  0  0  0  0  0  0
   44.8990   40.3930   44.9310 C   0  0  0  0  0  3  0  0  0  0  0  0
   44.8500   40.2870   46.3980 C   0  0  0  0  0  2  0  0  0  0  0  0
   44.4140   41.5280   47.1360 C   0  0  0  0  0  2  0  0  0  0  0  0
   43.2990   42.1430   46.3160 C   0  0  0  0  0  2  0  0  0  0  0  0
   43.9860   42.7340   45.1090 C   0  0  0  0  0  2  0  0  0  0  0  0
   44.8230   41.7690   44.3600 C   0  0  0  0  0  2  0  0  0  0  0  0
  1 20  1  0  0  0  0
  2  7  1  0  0  0  0
  2  1  2  0  0  0  0
  3  2  1  0  0  0  0
  4  3  2  0  0  0  0
  4  5  1  0  0  0  0
  5  6  2  0  0  0  0
  6  1  1  0  0  0  0
  8  3  1  0  0  0  0
  9 10  1  0  0  0  0
 10 11  1  0  0  0  0
 11 12  2  0  0  0  0
 11  5  1  0  0  0  0
 12 16  1  0  0  0  0
 13 12  1  0  0  0  0
 14 15  1  0  0  0  0
 14 13  2  0  0  0  0
 15 10  2  0  0  0  0
 17 13  1  0  0  0  0
 18 14  1  0  0  0  0
 19 15  1  0  0  0  0
 21 20  2  0  0  0  0
 21 22  1  0  0  0  0
 22 25  1  0  0  0  0
 22 24  1  0  0  0  0
 23 22  1  0  0  0  0
 25 26  1  0  0  0  0
 26 27  1  0  0  0  0
 28 27  1  0  0  0  0
 29 28  1  0  0  0  0
 30 25  1  0  0  0  0
 30 29  1  0  0  0  0
M  END
>  <minimizedAffinity>
-1.7972213

>  <minimizedRMSD>
2.3651247

$$$$
