
 OpenBabel03252505403D

 25 27  0  0  1  0  0  0  0  0999 V2000
   45.2650   33.5670   44.3430 C   0  0  1  0  0  0  0  0  0  0  0  0
   46.1690   34.4760   43.4840 C   0  0  0  0  0  0  0  0  0  0  0  0
   45.2510   33.4480   42.8850 C   0  0  2  0  0  0  0  0  0  0  0  0
   44.4510   34.0880   44.8840 H   0  0  0  0  0  0  0  0  0  0  0  0
   47.2560   34.3180   43.5320 H   0  0  0  0  0  0  0  0  0  0  0  0
   45.8090   35.5070   43.4040 H   0  0  0  0  0  0  0  0  0  0  0  0
   45.8270   32.5620   42.4910 H   0  0  0  0  0  0  0  0  0  0  0  0
   46.0190   32.6060   45.1960 C   0  0  0  0  0  0  0  0  0  0  0  0
   46.8750   31.6600   44.5740 C   0  0  0  0  0  0  0  0  0  0  0  0
   47.5770   30.7840   45.3890 C   0  0  0  0  0  0  0  0  0  0  0  0
   47.4070   30.8790   46.7300 N   0  0  0  0  0  0  0  0  0  0  0  0
   46.5800   31.7960   47.2880 C   0  0  0  0  0  0  0  0  0  0  0  0
   45.8850   32.6620   46.5090 N   0  0  0  0  0  0  0  0  0  0  0  0
   46.9530   31.6520   43.4970 H   0  0  0  0  0  0  0  0  0  0  0  0
   48.2270   30.0630   44.9320 H   0  0  0  0  0  0  0  0  0  0  0  0
   46.5460   31.7350   48.7860 C   0  0  0  0  0  0  0  0  0  0  0  0
   45.8820   32.8140   49.3230 F   0  0  0  0  0  0  0  0  0  0  0  0
   47.8500   31.7320   49.2870 F   0  0  0  0  0  0  0  0  0  0  0  0
   45.9860   30.5240   49.1730 F   0  0  0  0  0  0  0  0  0  0  0  0
   44.0610   33.8380   42.0690 C   0  0  0  0  0  3  0  0  0  0  0  0
   44.1330   33.1200   40.7460 C   0  0  0  0  0  2  0  0  0  0  0  0
   43.6710   33.9480   39.5760 C   0  0  0  0  0  2  0  0  0  0  0  0
   42.5070   34.8340   39.9010 C   0  0  0  0  0  2  0  0  0  0  0  0
   42.7330   35.6610   41.1460 C   0  0  0  0  0  2  0  0  0  0  0  0
   44.0520   35.3120   41.8130 C   0  0  0  0  0  2  0  0  0  0  0  0
  1  4  1  1  0  0  0
  1  8  1  0  0  0  0
  2  5  1  0  0  0  0
  2  1  1  0  0  0  0
  3  7  1  6  0  0  0
  3  2  1  0  0  0  0
  3  1  1  0  0  0  0
  6  2  1  0  0  0  0
  8 13  1  0  0  0  0
  9  8  2  0  0  0  0
  9 10  1  0  0  0  0
 10 11  2  0  0  0  0
 11 12  1  0  0  0  0
 12 16  1  0  0  0  0
 13 12  2  0  0  0  0
 14  9  1  0  0  0  0
 15 10  1  0  0  0  0
 16 19  1  0  0  0  0
 16 18  1  0  0  0  0
 16 17  1  0  0  0  0
 20  3  1  0  0  0  0
 21 20  1  0  0  0  0
 22 23  1  0  0  0  0
 22 21  1  0  0  0  0
 23 24  1  0  0  0  0
 24 25  1  0  0  0  0
 25 20  1  0  0  0  0
M  END
>  <minimizedAffinity>
-4.70628071

>  <minimizedRMSD>
2.36841917

$$$$
