
 OpenBabel03242511263D

 25 27  0  0  0  0  0  0  0  0999 V2000
   38.4140   28.1520   39.4570 Cl  0  0  0  0  0  0  0  0  0  0  0  0
   37.8810   27.9590   41.0940 C   0  0  0  0  0  0  0  0  0  0  0  0
   37.7580   29.0430   41.9290 C   0  0  0  0  0  0  0  0  0  0  0  0
   37.3330   28.9160   43.2480 C   0  0  0  0  0  0  0  0  0  0  0  0
   37.0410   27.6450   43.6790 C   0  0  0  0  0  0  0  0  0  0  0  0
   37.1590   26.5600   42.8560 C   0  0  0  0  0  0  0  0  0  0  0  0
   37.5790   26.6960   41.5530 C   0  0  0  0  0  0  0  0  0  0  0  0
   37.2500   29.7960   43.8740 H   0  0  0  0  0  0  0  0  0  0  0  0
   36.7130   27.5700   44.7080 H   0  0  0  0  0  0  0  0  0  0  0  0
   36.9170   25.5860   43.2440 H   0  0  0  0  0  0  0  0  0  0  0  0
   37.4380   32.3390   40.3110 C   0  0  0  0  0  0  0  0  0  0  0  0
   38.7240   32.8810   40.4610 C   0  0  0  0  0  0  0  0  0  0  0  0
   39.6860   32.1100   41.1150 C   0  0  0  0  0  0  0  0  0  0  0  0
   39.3240   30.8850   41.5670 N   0  0  0  0  0  0  0  0  0  0  0  0
   38.0860   30.3850   41.4130 C   0  0  0  0  0  0  0  0  0  0  0  0
   37.1320   31.1150   40.7800 N   0  0  0  0  0  0  0  0  0  0  0  0
   36.6910   32.9390   39.8030 H   0  0  0  0  0  0  0  0  0  0  0  0
   38.9970   33.8540   40.0960 H   0  0  0  0  0  0  0  0  0  0  0  0
   40.7020   32.4690   41.2650 H   0  0  0  0  0  0  0  0  0  0  0  0
   37.7200   25.5370   40.6300 C   0  0  0  0  0  3  0  0  0  0  0  0
   36.4710   25.2060   39.8820 C   0  0  0  0  0  2  0  0  0  0  0  0
   36.1850   23.7180   40.0320 C   0  0  0  0  0  2  0  0  0  0  0  0
   37.3750   22.8760   39.6660 C   0  0  0  0  0  2  0  0  0  0  0  0
   38.6540   23.3300   40.3060 C   0  0  0  0  0  2  0  0  0  0  0  0
   38.2760   24.3400   41.3910 C   0  0  0  0  0  2  0  0  0  0  0  0
  1  2  1  0  0  0  0
  2  7  2  0  0  0  0
  2  3  1  0  0  0  0
  3  4  2  0  0  0  0
  4  5  1  0  0  0  0
  4  8  1  0  0  0  0
  5  9  1  0  0  0  0
  6 10  1  0  0  0  0
  6  5  2  0  0  0  0
  7  6  1  0  0  0  0
 11 12  2  0  0  0  0
 11 16  1  0  0  0  0
 12 13  1  0  0  0  0
 13 19  1  0  0  0  0
 13 14  2  0  0  0  0
 15 14  1  0  0  0  0
 15  3  1  0  0  0  0
 16 15  2  0  0  0  0
 17 11  1  0  0  0  0
 18 12  1  0  0  0  0
 20 25  1  0  0  0  0
 20  7  1  0  0  0  0
 21 22  1  0  0  0  0
 21 20  1  0  0  0  0
 23 22  1  0  0  0  0
 23 24  1  0  0  0  0
 24 25  1  0  0  0  0
M  END
>  <minimizedAffinity>
-5.31687593

$$$$

 OpenBabel03242511263D

 25 27  0  0  0  0  0  0  0  0999 V2000
   40.8390   30.2120   40.2880 Cl  0  0  0  0  0  0  0  0  0  0  0  0
   39.3790   31.1370   40.1690 C   0  0  0  0  0  0  0  0  0  0  0  0
   39.3750   32.3740   39.5730 C   0  0  0  0  0  0  0  0  0  0  0  0
   38.2170   33.1390   39.4650 C   0  0  0  0  0  0  0  0  0  0  0  0
   37.0700   32.5920   39.9870 C   0  0  0  0  0  0  0  0  0  0  0  0
   37.0640   31.3620   40.5820 C   0  0  0  0  0  0  0  0  0  0  0  0
   38.2140   30.6130   40.6830 C   0  0  0  0  0  0  0  0  0  0  0  0
   38.2560   34.1100   38.9880 H   0  0  0  0  0  0  0  0  0  0  0  0
   36.1820   33.2040   39.8920 H   0  0  0  0  0  0  0  0  0  0  0  0
   36.1370   30.9810   40.9750 H   0  0  0  0  0  0  0  0  0  0  0  0
   42.5880   34.1600   39.3170 C   0  0  0  0  0  0  0  0  0  0  0  0
   42.9790   33.9010   37.9930 C   0  0  0  0  0  0  0  0  0  0  0  0
   42.1360   33.1170   37.2040 C   0  0  0  0  0  0  0  0  0  0  0  0
   40.9910   32.6520   37.7590 N   0  0  0  0  0  0  0  0  0  0  0  0
   40.6360   32.9120   39.0290 C   0  0  0  0  0  0  0  0  0  0  0  0
   41.4390   33.6720   39.8180 N   0  0  0  0  0  0  0  0  0  0  0  0
   43.2450   34.7690   39.9280 H   0  0  0  0  0  0  0  0  0  0  0  0
   43.8900   34.2780   37.5660 H   0  0  0  0  0  0  0  0  0  0  0  0
   42.3770   32.8790   36.1710 H   0  0  0  0  0  0  0  0  0  0  0  0
   38.2430   29.2700   41.3240 C   0  0  0  0  0  3  0  0  0  0  0  0
   37.0840   28.4020   40.9630 C   0  0  0  0  0  2  0  0  0  0  0  0
   36.4660   27.8470   42.2400 C   0  0  0  0  0  2  0  0  0  0  0  0
   37.4910   27.1870   43.1190 C   0  0  0  0  0  2  0  0  0  0  0  0
   38.7230   28.0150   43.3350 C   0  0  0  0  0  2  0  0  0  0  0  0
   38.4070   29.4250   42.8310 C   0  0  0  0  0  2  0  0  0  0  0  0
  2  1  1  0  0  0  0
  2  7  1  0  0  0  0
  3  2  2  0  0  0  0
  4  3  1  0  0  0  0
  4  5  2  0  0  0  0
  5  6  1  0  0  0  0
  6  7  2  0  0  0  0
  6 10  1  0  0  0  0
  7 20  1  0  0  0  0
  8  4  1  0  0  0  0
  9  5  1  0  0  0  0
 11 16  1  0  0  0  0
 11 17  1  0  0  0  0
 12 11  2  0  0  0  0
 13 14  2  0  0  0  0
 13 12  1  0  0  0  0
 14 15  1  0  0  0  0
 15  3  1  0  0  0  0
 15 16  2  0  0  0  0
 18 12  1  0  0  0  0
 19 13  1  0  0  0  0
 20 25  1  0  0  0  0
 21 20  1  0  0  0  0
 21 22  1  0  0  0  0
 22 23  1  0  0  0  0
 23 24  1  0  0  0  0
 25 24  1  0  0  0  0
M  END
>  <minimizedAffinity>
-5.21888828

$$$$

 OpenBabel03242511263D

 25 27  0  0  0  0  0  0  0  0999 V2000
   39.3470   27.7370   39.9240 Cl  0  0  0  0  0  0  0  0  0  0  0  0
   38.4080   27.7540   41.3800 C   0  0  0  0  0  0  0  0  0  0  0  0
   38.3670   28.8690   42.1800 C   0  0  0  0  0  0  0  0  0  0  0  0
   37.6220   28.9100   43.3550 C   0  0  0  0  0  0  0  0  0  0  0  0
   36.9240   27.7710   43.6780 C   0  0  0  0  0  0  0  0  0  0  0  0
   36.9570   26.6560   42.8890 C   0  0  0  0  0  0  0  0  0  0  0  0
   37.6970   26.6270   41.7290 C   0  0  0  0  0  0  0  0  0  0  0  0
   37.6160   29.8090   43.9590 H   0  0  0  0  0  0  0  0  0  0  0  0
   36.3510   27.8250   44.5960 H   0  0  0  0  0  0  0  0  0  0  0  0
   36.3920   25.7920   43.1890 H   0  0  0  0  0  0  0  0  0  0  0  0
   39.2480   32.1190   40.6830 C   0  0  0  0  0  0  0  0  0  0  0  0
   40.5910   32.2760   41.0590 C   0  0  0  0  0  0  0  0  0  0  0  0
   41.1800   31.2660   41.8220 C   0  0  0  0  0  0  0  0  0  0  0  0
   40.4210   30.1940   42.1550 N   0  0  0  0  0  0  0  0  0  0  0  0
   39.1360   30.0630   41.7840 C   0  0  0  0  0  0  0  0  0  0  0  0
   38.5410   31.0320   41.0420 N   0  0  0  0  0  0  0  0  0  0  0  0
   38.7920   32.9050   40.0910 H   0  0  0  0  0  0  0  0  0  0  0  0
   41.1810   33.1330   40.7870 H   0  0  0  0  0  0  0  0  0  0  0  0
   42.2160   31.3240   42.1460 H   0  0  0  0  0  0  0  0  0  0  0  0
   37.7560   25.4300   40.8460 C   0  0  0  0  0  3  0  0  0  0  0  0
   36.5830   25.2930   39.9330 C   0  0  0  0  0  2  0  0  0  0  0  0
   36.0230   23.8830   40.0560 C   0  0  0  0  0  2  0  0  0  0  0  0
   37.0860   22.8370   39.8680 C   0  0  0  0  0  2  0  0  0  0  0  0
   38.3260   23.0860   40.6760 C   0  0  0  0  0  2  0  0  0  0  0  0
   37.9860   24.1820   41.6890 C   0  0  0  0  0  2  0  0  0  0  0  0
  1  2  1  0  0  0  0
  2  7  2  0  0  0  0
  2  3  1  0  0  0  0
  3  4  2  0  0  0  0
  4  5  1  0  0  0  0
  4  8  1  0  0  0  0
  5  9  1  0  0  0  0
  6 10  1  0  0  0  0
  6  5  2  0  0  0  0
  7  6  1  0  0  0  0
 11 16  2  0  0  0  0
 11 12  1  0  0  0  0
 12 13  2  0  0  0  0
 13 19  1  0  0  0  0
 13 14  1  0  0  0  0
 15 14  2  0  0  0  0
 15  3  1  0  0  0  0
 16 15  1  0  0  0  0
 17 11  1  0  0  0  0
 18 12  1  0  0  0  0
 20 25  1  0  0  0  0
 20  7  1  0  0  0  0
 21 22  1  0  0  0  0
 21 20  1  0  0  0  0
 23 22  1  0  0  0  0
 23 24  1  0  0  0  0
 24 25  1  0  0  0  0
M  END
>  <minimizedAffinity>
-5.18261099

$$$$

 OpenBabel03242511263D

 25 27  0  0  0  0  0  0  0  0999 V2000
   38.0860   27.7390   39.2570 Cl  0  0  0  0  0  0  0  0  0  0  0  0
   37.8400   27.9520   40.9580 C   0  0  0  0  0  0  0  0  0  0  0  0
   37.6510   26.8710   41.7850 C   0  0  0  0  0  0  0  0  0  0  0  0
   37.4500   27.0130   43.1550 C   0  0  0  0  0  0  0  0  0  0  0  0
   37.4500   28.2970   43.6440 C   0  0  0  0  0  0  0  0  0  0  0  0
   37.6380   29.3790   42.8310 C   0  0  0  0  0  0  0  0  0  0  0  0
   37.8360   29.2280   41.4780 C   0  0  0  0  0  0  0  0  0  0  0  0
   37.3040   26.1360   43.7710 H   0  0  0  0  0  0  0  0  0  0  0  0
   37.2920   28.3840   44.7120 H   0  0  0  0  0  0  0  0  0  0  0  0
   37.6290   30.3630   43.2670 H   0  0  0  0  0  0  0  0  0  0  0  0
   38.8320   23.5980   40.5730 C   0  0  0  0  0  0  0  0  0  0  0  0
   37.6490   22.9940   40.1180 C   0  0  0  0  0  0  0  0  0  0  0  0
   36.4600   23.7160   40.2310 C   0  0  0  0  0  0  0  0  0  0  0  0
   36.5160   24.9560   40.7740 N   0  0  0  0  0  0  0  0  0  0  0  0
   37.6600   25.5160   41.2040 C   0  0  0  0  0  0  0  0  0  0  0  0
   38.8300   24.8340   41.1040 N   0  0  0  0  0  0  0  0  0  0  0  0
   39.7550   23.0350   40.4840 H   0  0  0  0  0  0  0  0  0  0  0  0
   37.6210   22.0090   39.6890 H   0  0  0  0  0  0  0  0  0  0  0  0
   35.5090   23.3080   39.8980 H   0  0  0  0  0  0  0  0  0  0  0  0
   38.0440   30.3840   40.5630 C   0  0  0  0  0  3  0  0  0  0  0  0
   39.2360   31.2160   40.9020 C   0  0  0  0  0  2  0  0  0  0  0  0
   38.8160   32.6780   40.9640 C   0  0  0  0  0  2  0  0  0  0  0  0
   38.0870   33.1070   39.7220 C   0  0  0  0  0  2  0  0  0  0  0  0
   36.9950   32.1650   39.3080 C   0  0  0  0  0  2  0  0  0  0  0  0
   36.7650   31.2070   40.4790 C   0  0  0  0  0  2  0  0  0  0  0  0
  1  2  1  0  0  0  0
  2  7  2  0  0  0  0
  2  3  1  0  0  0  0
  3  4  2  0  0  0  0
  4  5  1  0  0  0  0
  4  8  1  0  0  0  0
  5  9  1  0  0  0  0
  6 10  1  0  0  0  0
  6  5  2  0  0  0  0
  7  6  1  0  0  0  0
 11 16  1  0  0  0  0
 12 13  1  0  0  0  0
 12 11  2  0  0  0  0
 13 14  2  0  0  0  0
 14 15  1  0  0  0  0
 15  3  1  0  0  0  0
 16 15  2  0  0  0  0
 17 11  1  0  0  0  0
 18 12  1  0  0  0  0
 19 13  1  0  0  0  0
 20 21  1  0  0  0  0
 20  7  1  0  0  0  0
 21 22  1  0  0  0  0
 23 22  1  0  0  0  0
 24 23  1  0  0  0  0
 24 25  1  0  0  0  0
 25 20  1  0  0  0  0
M  END
>  <minimizedAffinity>
-5.16362429

$$$$

 OpenBabel03242511263D

 25 27  0  0  0  0  0  0  0  0999 V2000
   39.8870   28.8270   40.4530 Cl  0  0  0  0  0  0  0  0  0  0  0  0
   38.1880   29.1610   40.4930 C   0  0  0  0  0  0  0  0  0  0  0  0
   37.7110   30.4240   40.2400 C   0  0  0  0  0  0  0  0  0  0  0  0
   36.3520   30.7210   40.2660 C   0  0  0  0  0  0  0  0  0  0  0  0
   35.5030   29.6810   40.5600 C   0  0  0  0  0  0  0  0  0  0  0  0
   35.9670   28.4210   40.8120 C   0  0  0  0  0  0  0  0  0  0  0  0
   37.3130   28.1380   40.7830 C   0  0  0  0  0  0  0  0  0  0  0  0
   36.0160   31.7290   40.0620 H   0  0  0  0  0  0  0  0  0  0  0  0
   34.4500   29.9340   40.5750 H   0  0  0  0  0  0  0  0  0  0  0  0
   35.2580   27.6430   41.0370 H   0  0  0  0  0  0  0  0  0  0  0  0
   39.8490   33.4050   40.5920 C   0  0  0  0  0  0  0  0  0  0  0  0
   40.4540   33.5000   39.3290 C   0  0  0  0  0  0  0  0  0  0  0  0
   40.1220   32.5410   38.3710 C   0  0  0  0  0  0  0  0  0  0  0  0
   39.2360   31.5750   38.7140 N   0  0  0  0  0  0  0  0  0  0  0  0
   38.6680   31.5020   39.9300 C   0  0  0  0  0  0  0  0  0  0  0  0
   38.9750   32.4230   40.8800 N   0  0  0  0  0  0  0  0  0  0  0  0
   40.1090   34.1510   41.3350 H   0  0  0  0  0  0  0  0  0  0  0  0
   41.1550   34.2730   39.0700 H   0  0  0  0  0  0  0  0  0  0  0  0
   40.5530   32.5560   37.3730 H   0  0  0  0  0  0  0  0  0  0  0  0
   37.8530   26.7770   41.0540 C   0  0  0  0  0  3  0  0  0  0  0  0
   37.0430   25.6750   40.4550 C   0  0  0  0  0  2  0  0  0  0  0  0
   36.7520   24.6370   41.5290 C   0  0  0  0  0  2  0  0  0  0  0  0
   38.0030   24.1840   42.2290 C   0  0  0  0  0  2  0  0  0  0  0  0
   38.8840   25.3120   42.6790 C   0  0  0  0  0  2  0  0  0  0  0  0
   38.0630   26.5980   42.5520 C   0  0  0  0  0  2  0  0  0  0  0  0
  1  2  1  0  0  0  0
  2  7  1  0  0  0  0
  3  4  1  0  0  0  0
  3  2  2  0  0  0  0
  4  5  2  0  0  0  0
  5  9  1  0  0  0  0
  5  6  1  0  0  0  0
  6 10  1  0  0  0  0
  7  6  2  0  0  0  0
  7 20  1  0  0  0  0
  8  4  1  0  0  0  0
 11 16  1  0  0  0  0
 11 17  1  0  0  0  0
 12 11  2  0  0  0  0
 13 14  2  0  0  0  0
 13 12  1  0  0  0  0
 14 15  1  0  0  0  0
 15  3  1  0  0  0  0
 15 16  2  0  0  0  0
 18 12  1  0  0  0  0
 19 13  1  0  0  0  0
 20 25  1  0  0  0  0
 21 20  1  0  0  0  0
 21 22  1  0  0  0  0
 22 23  1  0  0  0  0
 23 24  1  0  0  0  0
 25 24  1  0  0  0  0
M  END
>  <minimizedAffinity>
-5.1039443

$$$$

 OpenBabel03242511263D

 25 27  0  0  0  0  0  0  0  0999 V2000
   37.9860   26.8770   39.4790 Cl  0  0  0  0  0  0  0  0  0  0  0  0
   37.6370   27.4520   41.0750 C   0  0  0  0  0  0  0  0  0  0  0  0
   37.6690   28.7950   41.3640 C   0  0  0  0  0  0  0  0  0  0  0  0
   37.3940   29.2840   42.6370 C   0  0  0  0  0  0  0  0  0  0  0  0
   37.0860   28.3530   43.5990 C   0  0  0  0  0  0  0  0  0  0  0  0
   37.0500   27.0150   43.3220 C   0  0  0  0  0  0  0  0  0  0  0  0
   37.3240   26.5410   42.0590 C   0  0  0  0  0  0  0  0  0  0  0  0
   37.4310   30.3500   42.8240 H   0  0  0  0  0  0  0  0  0  0  0  0
   36.8750   28.7550   44.5810 H   0  0  0  0  0  0  0  0  0  0  0  0
   36.8030   26.3280   44.1120 H   0  0  0  0  0  0  0  0  0  0  0  0
   39.6070   30.9540   39.0910 C   0  0  0  0  0  0  0  0  0  0  0  0
   38.6090   31.5300   38.2900 C   0  0  0  0  0  0  0  0  0  0  0  0
   37.2830   31.1720   38.5380 C   0  0  0  0  0  0  0  0  0  0  0  0
   37.0360   30.2900   39.5360 N   0  0  0  0  0  0  0  0  0  0  0  0
   38.0070   29.7500   40.2920 C   0  0  0  0  0  0  0  0  0  0  0  0
   39.3050   30.0820   40.0710 N   0  0  0  0  0  0  0  0  0  0  0  0
   40.6370   31.2330   38.8960 H   0  0  0  0  0  0  0  0  0  0  0  0
   38.8200   32.2300   37.5020 H   0  0  0  0  0  0  0  0  0  0  0  0
   36.4610   31.5820   37.9560 H   0  0  0  0  0  0  0  0  0  0  0  0
   37.2940   25.0920   41.7220 C   0  0  0  0  0  3  0  0  0  0  0  0
   38.6360   24.4370   41.7490 C   0  0  0  0  0  2  0  0  0  0  0  0
   38.8370   23.6690   40.4500 C   0  0  0  0  0  2  0  0  0  0  0  0
   37.6930   22.7370   40.1650 C   0  0  0  0  0  2  0  0  0  0  0  0
   36.3430   23.3790   40.3040 C   0  0  0  0  0  2  0  0  0  0  0  0
   36.5750   24.8890   40.3950 C   0  0  0  0  0  2  0  0  0  0  0  0
  1  2  1  0  0  0  0
  2  3  2  0  0  0  0
  2  7  1  0  0  0  0
  3  4  1  0  0  0  0
  4  8  1  0  0  0  0
  4  5  2  0  0  0  0
  5  9  1  0  0  0  0
  6  5  1  0  0  0  0
  6 10  1  0  0  0  0
  7  6  2  0  0  0  0
 11 16  1  0  0  0  0
 12 13  1  0  0  0  0
 12 11  2  0  0  0  0
 13 14  2  0  0  0  0
 14 15  1  0  0  0  0
 15  3  1  0  0  0  0
 16 15  2  0  0  0  0
 17 11  1  0  0  0  0
 18 12  1  0  0  0  0
 19 13  1  0  0  0  0
 20 21  1  0  0  0  0
 20  7  1  0  0  0  0
 22 21  1  0  0  0  0
 23 24  1  0  0  0  0
 23 22  1  0  0  0  0
 24 25  1  0  0  0  0
 25 20  1  0  0  0  0
M  END
>  <minimizedAffinity>
-5.08742476

$$$$

 OpenBabel03242511263D

 25 27  0  0  0  0  0  0  0  0999 V2000
   40.3320   29.6040   40.4780 Cl  0  0  0  0  0  0  0  0  0  0  0  0
   39.0600   30.7600   40.2680 C   0  0  0  0  0  0  0  0  0  0  0  0
   37.8110   30.5410   40.7980 C   0  0  0  0  0  0  0  0  0  0  0  0
   36.7710   31.4520   40.6430 C   0  0  0  0  0  0  0  0  0  0  0  0
   37.0550   32.5910   39.9300 C   0  0  0  0  0  0  0  0  0  0  0  0
   38.2930   32.8200   39.3990 C   0  0  0  0  0  0  0  0  0  0  0  0
   39.3150   31.9120   39.5580 C   0  0  0  0  0  0  0  0  0  0  0  0
   35.8020   31.2410   41.0760 H   0  0  0  0  0  0  0  0  0  0  0  0
   36.2320   33.2860   39.8220 H   0  0  0  0  0  0  0  0  0  0  0  0
   38.4620   33.7290   38.8490 H   0  0  0  0  0  0  0  0  0  0  0  0
   37.4860   28.1570   43.5900 C   0  0  0  0  0  0  0  0  0  0  0  0
   37.0950   26.9750   42.9410 C   0  0  0  0  0  0  0  0  0  0  0  0
   36.9490   27.0090   41.5530 C   0  0  0  0  0  0  0  0  0  0  0  0
   37.1900   28.1790   40.9140 N   0  0  0  0  0  0  0  0  0  0  0  0
   37.5630   29.3000   41.5550 C   0  0  0  0  0  0  0  0  0  0  0  0
   37.7130   29.2930   42.9040 N   0  0  0  0  0  0  0  0  0  0  0  0
   37.5990   28.1290   44.6680 H   0  0  0  0  0  0  0  0  0  0  0  0
   36.9080   26.0540   43.4610 H   0  0  0  0  0  0  0  0  0  0  0  0
   36.6490   26.1300   40.9880 H   0  0  0  0  0  0  0  0  0  0  0  0
   40.6760   32.1290   38.9930 C   0  0  0  0  0  3  0  0  0  0  0  0
   41.3140   33.4070   39.4270 C   0  0  0  0  0  2  0  0  0  0  0  0
   41.8220   34.1470   38.1980 C   0  0  0  0  0  2  0  0  0  0  0  0
   42.6920   33.2750   37.3360 C   0  0  0  0  0  2  0  0  0  0  0  0
   42.0980   31.9280   37.0470 C   0  0  0  0  0  2  0  0  0  0  0  0
   40.6300   31.9860   37.4770 C   0  0  0  0  0  2  0  0  0  0  0  0
  2  1  1  0  0  0  0
  2  3  1  0  0  0  0
  3 15  1  0  0  0  0
  4  3  2  0  0  0  0
  4  8  1  0  0  0  0
  5  4  1  0  0  0  0
  6  7  1  0  0  0  0
  6  5  2  0  0  0  0
  7  2  2  0  0  0  0
  9  5  1  0  0  0  0
 10  6  1  0  0  0  0
 11 17  1  0  0  0  0
 12 18  1  0  0  0  0
 12 11  1  0  0  0  0
 13 12  2  0  0  0  0
 14 13  1  0  0  0  0
 14 15  2  0  0  0  0
 15 16  1  0  0  0  0
 16 11  2  0  0  0  0
 19 13  1  0  0  0  0
 20 21  1  0  0  0  0
 20  7  1  0  0  0  0
 22 21  1  0  0  0  0
 23 22  1  0  0  0  0
 24 23  1  0  0  0  0
 24 25  1  0  0  0  0
 25 20  1  0  0  0  0
M  END
>  <minimizedAffinity>
-5.06774426

$$$$

 OpenBabel03242511263D

 25 27  0  0  0  0  0  0  0  0999 V2000
   37.5160   31.2410   37.2110 Cl  0  0  0  0  0  0  0  0  0  0  0  0
   36.6370   30.5350   38.5260 C   0  0  0  0  0  0  0  0  0  0  0  0
   36.8900   30.9060   39.8240 C   0  0  0  0  0  0  0  0  0  0  0  0
   36.2000   30.3550   40.8990 C   0  0  0  0  0  0  0  0  0  0  0  0
   35.2450   29.4150   40.5980 C   0  0  0  0  0  0  0  0  0  0  0  0
   34.9840   29.0390   39.3100 C   0  0  0  0  0  0  0  0  0  0  0  0
   35.6720   29.5900   38.2530 C   0  0  0  0  0  0  0  0  0  0  0  0
   36.4310   30.6740   41.9080 H   0  0  0  0  0  0  0  0  0  0  0  0
   34.7200   28.9990   41.4490 H   0  0  0  0  0  0  0  0  0  0  0  0
   34.2260   28.2980   39.1290 H   0  0  0  0  0  0  0  0  0  0  0  0
   38.5610   34.1610   40.2700 C   0  0  0  0  0  0  0  0  0  0  0  0
   39.8770   33.7890   40.5860 C   0  0  0  0  0  0  0  0  0  0  0  0
   40.1770   32.4280   40.6430 C   0  0  0  0  0  0  0  0  0  0  0  0
   39.1820   31.5440   40.3900 N   0  0  0  0  0  0  0  0  0  0  0  0
   37.9270   31.9200   40.0890 C   0  0  0  0  0  0  0  0  0  0  0  0
   37.6100   33.2390   40.0270 N   0  0  0  0  0  0  0  0  0  0  0  0
   38.3300   35.2200   40.2270 H   0  0  0  0  0  0  0  0  0  0  0  0
   40.6570   34.5020   40.7840 H   0  0  0  0  0  0  0  0  0  0  0  0
   41.1760   32.0710   40.8810 H   0  0  0  0  0  0  0  0  0  0  0  0
   35.4150   29.2050   36.8390 C   0  0  0  0  0  3  0  0  0  0  0  0
   33.9700   29.0100   36.5190 C   0  0  0  0  0  2  0  0  0  0  0  0
   33.7950   27.6660   35.8250 C   0  0  0  0  0  2  0  0  0  0  0  0
   34.7200   27.5150   34.6500 C   0  0  0  0  0  2  0  0  0  0  0  0
   36.1450   27.8750   34.9550 C   0  0  0  0  0  2  0  0  0  0  0  0
   36.2600   27.9900   36.4770 C   0  0  0  0  0  2  0  0  0  0  0  0
  1  2  1  0  0  0  0
  2  3  1  0  0  0  0
  3 15  1  0  0  0  0
  3  4  2  0  0  0  0
  4  8  1  0  0  0  0
  5  4  1  0  0  0  0
  5  9  1  0  0  0  0
  6  5  2  0  0  0  0
  7  2  2  0  0  0  0
  7  6  1  0  0  0  0
 10  6  1  0  0  0  0
 11 12  1  0  0  0  0
 12 13  2  0  0  0  0
 12 18  1  0  0  0  0
 13 19  1  0  0  0  0
 14 13  1  0  0  0  0
 15 14  2  0  0  0  0
 16 15  1  0  0  0  0
 16 11  2  0  0  0  0
 17 11  1  0  0  0  0
 20  7  1  0  0  0  0
 21 20  1  0  0  0  0
 22 21  1  0  0  0  0
 23 24  1  0  0  0  0
 23 22  1  0  0  0  0
 24 25  1  0  0  0  0
 25 20  1  0  0  0  0
M  END
>  <minimizedAffinity>
-4.91888285

$$$$

 OpenBabel03242511263D

 25 27  0  0  0  0  0  0  0  0999 V2000
   37.6180   30.5090   39.1240 Cl  0  0  0  0  0  0  0  0  0  0  0  0
   37.7570   29.8820   40.7330 C   0  0  0  0  0  0  0  0  0  0  0  0
   38.7060   30.3680   41.6000 C   0  0  0  0  0  0  0  0  0  0  0  0
   38.8410   29.8820   42.8970 C   0  0  0  0  0  0  0  0  0  0  0  0
   37.9730   28.8860   43.2720 C   0  0  0  0  0  0  0  0  0  0  0  0
   37.0250   28.3960   42.4180 C   0  0  0  0  0  0  0  0  0  0  0  0
   36.9000   28.8830   41.1370 C   0  0  0  0  0  0  0  0  0  0  0  0
   39.6020   30.2910   43.5490 H   0  0  0  0  0  0  0  0  0  0  0  0
   38.0950   28.5230   44.2850 H   0  0  0  0  0  0  0  0  0  0  0  0
   36.3700   27.6150   42.7630 H   0  0  0  0  0  0  0  0  0  0  0  0
   39.9830   33.6830   40.6200 C   0  0  0  0  0  0  0  0  0  0  0  0
   41.3200   33.4120   40.2890 C   0  0  0  0  0  0  0  0  0  0  0  0
   41.7680   32.0950   40.4050 C   0  0  0  0  0  0  0  0  0  0  0  0
   40.8890   31.1560   40.8310 N   0  0  0  0  0  0  0  0  0  0  0  0
   39.6120   31.4380   41.1430 C   0  0  0  0  0  0  0  0  0  0  0  0
   39.1510   32.7110   41.0380 N   0  0  0  0  0  0  0  0  0  0  0  0
   39.6360   34.7070   40.5290 H   0  0  0  0  0  0  0  0  0  0  0  0
   42.0060   34.1670   39.9520 H   0  0  0  0  0  0  0  0  0  0  0  0
   42.7910   31.8160   40.1650 H   0  0  0  0  0  0  0  0  0  0  0  0
   35.8790   28.3730   40.1810 C   0  0  0  0  0  3  0  0  0  0  0  0
   36.4240   27.4260   39.1640 C   0  0  0  0  0  2  0  0  0  0  0  0
   35.9810   27.8780   37.7790 C   0  0  0  0  0  2  0  0  0  0  0  0
   34.4940   28.0880   37.7050 C   0  0  0  0  0  2  0  0  0  0  0  0
   33.9440   28.9110   38.8330 C   0  0  0  0  0  2  0  0  0  0  0  0
   35.1400   29.5450   39.5470 C   0  0  0  0  0  2  0  0  0  0  0  0
  1  2  1  0  0  0  0
  2  7  2  0  0  0  0
  2  3  1  0  0  0  0
  3  4  2  0  0  0  0
  4  5  1  0  0  0  0
  4  8  1  0  0  0  0
  5  9  1  0  0  0  0
  6 10  1  0  0  0  0
  6  5  2  0  0  0  0
  7  6  1  0  0  0  0
 11 16  1  0  0  0  0
 12 13  1  0  0  0  0
 12 11  2  0  0  0  0
 13 14  2  0  0  0  0
 14 15  1  0  0  0  0
 15  3  1  0  0  0  0
 16 15  2  0  0  0  0
 17 11  1  0  0  0  0
 18 12  1  0  0  0  0
 19 13  1  0  0  0  0
 20  7  1  0  0  0  0
 21 20  1  0  0  0  0
 22 21  1  0  0  0  0
 23 22  1  0  0  0  0
 23 24  1  0  0  0  0
 24 25  1  0  0  0  0
 25 20  1  0  0  0  0
M  END
>  <minimizedAffinity>
-4.90207148

$$$$
