
 OpenBabel03252506573D

 35 39  0  0  0  0  0  0  0  0999 V2000
   46.1750   31.3240   45.0560 C   0  0  0  0  0  0  0  0  0  0  0  0
   46.3690   32.6750   45.2780 C   0  0  0  0  0  0  0  0  0  0  0  0
   46.2140   33.2730   46.5160 C   0  0  0  0  0  0  0  0  0  0  0  0
   45.8450   32.4960   47.6090 C   0  0  0  0  0  0  0  0  0  0  0  0
   45.6080   32.7240   48.9320 N   0  0  0  0  0  0  0  0  0  0  0  0
   45.2760   31.5440   49.5080 C   0  0  0  0  0  0  0  0  0  0  0  0
   45.3130   30.6020   48.5390 N   0  0  0  0  0  0  0  0  0  0  0  0
   45.6570   31.1590   47.3750 C   0  0  0  0  0  0  0  0  0  0  0  0
   45.8040   30.5460   46.1590 C   0  0  0  0  0  0  0  0  0  0  0  0
   46.3020   30.8910   44.0850 H   0  0  0  0  0  0  0  0  0  0  0  0
   46.3690   34.3220   46.6750 H   0  0  0  0  0  0  0  0  0  0  0  0
   45.6880   33.6870   49.3650 H   0  0  0  0  0  0  0  0  0  0  0  0
   45.0370   31.4480   50.5590 H   0  0  0  0  0  0  0  0  0  0  0  0
   46.2480   35.2390   42.6330 C   0  0  0  0  0  0  0  0  0  0  0  0
   47.4810   35.1020   42.0170 C   0  0  0  0  0  0  0  0  0  0  0  0
   48.3620   34.1300   42.5040 C   0  0  0  0  0  0  0  0  0  0  0  0
   47.9610   33.3630   43.5650 N   0  0  0  0  0  0  0  0  0  0  0  0
   46.7590   33.5190   44.1420 C   0  0  0  0  0  0  0  0  0  0  0  0
   45.8960   34.4510   43.6850 N   0  0  0  0  0  0  0  0  0  0  0  0
   45.5260   35.9880   42.2860 H   0  0  0  0  0  0  0  0  0  0  0  0
   47.7640   35.7180   41.1890 H   0  0  0  0  0  0  0  0  0  0  0  0
   49.3420   33.9810   42.0570 H   0  0  0  0  0  0  0  0  0  0  0  0
   45.5780   29.0990   46.0070 C   0  0  0  0  0  0  0  0  0  0  0  0
   46.6010   28.1600   45.9130 C   0  0  0  0  0  0  0  0  0  0  0  0
   45.9020   26.9440   45.7820 C   0  0  0  0  0  0  0  0  0  0  0  0
   44.5450   27.2180   45.8030 C   0  0  0  0  0  0  0  0  0  0  0  0
   44.4140   28.5260   45.9400 O   0  0  0  0  0  0  0  0  0  0  0  0
   47.6750   28.3080   45.9350 H   0  0  0  0  0  0  0  0  0  0  0  0
   46.3510   25.9670   45.6820 H   0  0  0  0  0  0  0  0  0  0  0  0
   43.3990   26.2580   45.6960 C   0  0  0  0  0  0  0  0  0  0  0  0
   42.3520   26.7500   44.7400 C   0  0  0  0  0  0  0  0  0  0  0  0
   41.2020   27.4370   45.4370 C   0  0  0  0  0  0  0  0  0  0  0  0
   40.4790   26.4830   46.3550 C   0  0  0  0  0  0  0  0  0  0  0  0
   41.4260   25.4850   46.9550 C   0  0  0  0  0  0  0  0  0  0  0  0
   42.8450   25.9730   47.0630 C   0  0  0  0  0  0  0  0  0  0  0  0
  1  2  2  0  0  0  0
  1  9  1  0  0  0  0
  2  3  1  0  0  0  0
  3 11  1  0  0  0  0
  3  4  2  0  0  0  0
  4  5  1  0  0  0  0
  5 12  1  0  0  0  0
  5  6  1  0  0  0  0
  6 13  1  0  0  0  0
  7  6  2  0  0  0  0
  8  4  1  0  0  0  0
  8  7  1  0  0  0  0
  9  8  2  0  0  0  0
 10  1  1  0  0  0  0
 14 19  1  0  0  0  0
 15 16  1  0  0  0  0
 15 14  2  0  0  0  0
 16 17  2  0  0  0  0
 17 18  1  0  0  0  0
 18  2  1  0  0  0  0
 19 18  2  0  0  0  0
 20 14  1  0  0  0  0
 21 15  1  0  0  0  0
 22 16  1  0  0  0  0
 23  9  1  0  0  0  0
 24 28  1  0  0  0  0
 24 23  2  0  0  0  0
 25 26  2  0  0  0  0
 25 24  1  0  0  0  0
 26 27  1  0  0  0  0
 27 23  1  0  0  0  0
 29 25  1  0  0  0  0
 30 26  1  0  0  0  0
 30 35  1  0  0  0  0
 31 32  1  0  0  0  0
 31 30  1  0  0  0  0
 32 33  1  0  0  0  0
 33 34  1  0  0  0  0
 34 35  1  0  0  0  0
M  END
>  <minimizedAffinity>
-6.43839645

>  <minimizedRMSD>
2.43844795

$$$$
