
 OpenBabel03242518133D

 28 30  0  0  0  0  0  0  0  0999 V2000
   48.1990   33.4420   42.5040 C   0  0  0  0  0  0  0  0  0  0  0  0
   48.6170   33.4880   43.5330 H   0  0  0  0  0  0  0  0  0  0  0  0
   47.2480   32.8660   42.5800 H   0  0  0  0  0  0  0  0  0  0  0  0
   49.1220   32.7870   41.6360 C   0  0  0  0  0  0  0  0  0  0  0  0
   49.0970   32.0990   40.3810 C   0  0  0  0  0  0  0  0  0  0  0  0
   50.2340   31.6110   39.8700 C   0  0  0  0  0  0  0  0  0  0  0  0
   51.4720   31.7970   40.6130 C   0  0  0  0  0  0  0  0  0  0  0  0
   50.9470   32.7020   42.0830 S   0  0  0  0  0  0  0  0  0  0  0  0
   48.1360   32.0110   39.9050 H   0  0  0  0  0  0  0  0  0  0  0  0
   50.3330   31.0880   38.9550 H   0  0  0  0  0  0  0  0  0  0  0  0
   52.7970   31.4070   40.3380 C   0  0  0  0  0  0  0  0  0  0  0  0
   53.0080   30.0740   41.0340 C   0  0  0  0  0  0  0  0  0  0  0  0
   54.4390   29.6750   40.7360 C   0  0  0  0  0  0  0  0  0  0  0  0
   54.4130   29.2640   39.2810 C   0  0  0  0  0  0  0  0  0  0  0  0
   54.0760   30.4200   38.3870 C   0  0  0  0  0  0  0  0  0  0  0  0
   53.0680   31.3630   38.8730 C   0  0  0  0  0  0  0  0  0  0  0  0
   47.8050   34.8440   42.0930 C   0  0  0  0  0  0  0  0  0  0  0  0
   48.2330   35.1280   41.1390 H   0  0  0  0  0  0  0  0  0  0  0  0
   48.2430   35.5500   42.8520 H   0  0  0  0  0  0  0  0  0  0  0  0
   46.3600   34.9500   42.1340 C   0  0  0  0  0  0  0  0  0  0  0  0
   45.6770   35.5090   43.1980 C   0  0  0  0  0  0  0  0  0  0  0  0
   44.2870   35.5710   43.1560 C   0  0  0  0  0  0  0  0  0  0  0  0
   43.6630   35.0690   42.0530 N   0  0  0  0  0  0  0  0  0  0  0  0
   44.3460   34.5280   41.0260 C   0  0  0  0  0  0  0  0  0  0  0  0
   45.6590   34.4810   41.0880 N   0  0  0  0  0  0  0  0  0  0  0  0
   46.2370   35.8860   44.0410 H   0  0  0  0  0  0  0  0  0  0  0  0
   43.7290   35.9940   43.9580 H   0  0  0  0  0  0  0  0  0  0  0  0
   43.8280   34.1360   40.1610 H   0  0  0  0  0  0  0  0  0  0  0  0
  1  3  1  0  0  0  0
  1  2  1  0  0  0  0
  4  8  1  0  0  0  0
  4  1  1  0  0  0  0
  5  4  2  0  0  0  0
  6  5  1  0  0  0  0
  6  7  2  0  0  0  0
  7  8  1  0  0  0  0
  9  5  1  0  0  0  0
 10  6  1  0  0  0  0
 11  7  1  0  0  0  0
 11 12  1  0  0  0  0
 13 12  1  0  0  0  0
 14 13  1  0  0  0  0
 15 16  1  0  0  0  0
 15 14  1  0  0  0  0
 16 11  1  0  0  0  0
 17 20  1  0  0  0  0
 17  1  1  0  0  0  0
 17 19  1  0  0  0  0
 18 17  1  0  0  0  0
 20 21  1  0  0  0  0
 21 26  1  0  0  0  0
 22 21  2  0  0  0  0
 22 27  1  0  0  0  0
 23 22  1  0  0  0  0
 24 25  1  0  0  0  0
 24 23  2  0  0  0  0
 25 20  2  0  0  0  0
 28 24  1  0  0  0  0
M  END
>  <minimizedAffinity>
-4.08924007

>  <minimizedRMSD>
1.48022795

$$$$
