
 OpenBabel03252505463D

 25 27  0  0  1  0  0  0  0  0999 V2000
   45.9440   32.8170   43.6020 C   0  0  0  0  0  0  0  0  0  0  0  0
   46.7160   31.7700   43.0260 C   0  0  0  0  0  0  0  0  0  0  0  0
   47.3100   30.7930   43.8260 C   0  0  0  0  0  0  0  0  0  0  0  0
   47.1020   30.9120   45.1720 N   0  0  0  0  0  0  0  0  0  0  0  0
   46.3540   31.9330   45.6880 C   0  0  0  0  0  0  0  0  0  0  0  0
   45.7960   32.8520   44.9170 N   0  0  0  0  0  0  0  0  0  0  0  0
   46.8320   31.7480   41.9720 H   0  0  0  0  0  0  0  0  0  0  0  0
   47.8880   30.0090   43.4010 H   0  0  0  0  0  0  0  0  0  0  0  0
   45.3460   33.8270   42.7140 C   0  0  1  0  0  0  0  0  0  0  0  0
   45.8740   35.2610   43.0400 C   0  0  1  0  0  0  0  0  0  0  0  0
   46.0660   34.5630   41.7250 C   0  0  0  0  0  0  0  0  0  0  0  0
   44.2230   33.7670   42.6900 H   0  0  0  0  0  0  0  0  0  0  0  0
   46.6890   35.3660   43.7490 H   0  0  0  0  0  0  0  0  0  0  0  0
   45.5660   34.9580   40.8190 H   0  0  0  0  0  0  0  0  0  0  0  0
   47.1360   34.3190   41.5210 H   0  0  0  0  0  0  0  0  0  0  0  0
   44.7960   36.3180   43.0430 C   0  0  0  0  0  0  0  0  0  0  0  0
   45.3090   37.5920   43.1590 F   0  0  0  0  0  0  0  0  0  0  0  0
   44.1200   36.2550   41.8150 F   0  0  0  0  0  0  0  0  0  0  0  0
   43.8530   36.0580   44.0130 F   0  0  0  0  0  0  0  0  0  0  0  0
   46.1470   32.0330   47.1590 C   0  0  0  0  0  3  0  0  0  0  0  0
   47.2860   32.6640   47.8880 C   0  0  0  0  0  2  0  0  0  0  0  0
   48.2940   31.6520   48.4030 C   0  0  0  0  0  2  0  0  0  0  0  0
   47.6820   30.6760   49.3870 C   0  0  0  0  0  2  0  0  0  0  0  0
   46.1730   30.6390   49.2340 C   0  0  0  0  0  2  0  0  0  0  0  0
   45.8950   30.6460   47.7550 C   0  0  0  0  0  2  0  0  0  0  0  0
  1  6  1  0  0  0  0
  2  1  2  0  0  0  0
  2  3  1  0  0  0  0
  3  4  2  0  0  0  0
  4  5  1  0  0  0  0
  5 20  1  0  0  0  0
  6  5  2  0  0  0  0
  7  2  1  0  0  0  0
  8  3  1  0  0  0  0
  9 12  1  6  0  0  0
  9 10  1  0  0  0  0
  9  1  1  0  0  0  0
 10 16  1  0  0  0  0
 10 13  1  1  0  0  0
 11  9  1  0  0  0  0
 11 10  1  0  0  0  0
 14 11  1  0  0  0  0
 15 11  1  0  0  0  0
 16 17  1  0  0  0  0
 16 19  1  0  0  0  0
 18 16  1  0  0  0  0
 20 25  1  0  0  0  0
 20 21  1  0  0  0  0
 21 22  1  0  0  0  0
 22 23  1  0  0  0  0
 24 23  1  0  0  0  0
 25 24  1  0  0  0  0
M  END
>  <minimizedAffinity>
-4.74007654

>  <minimizedRMSD>
1.49830067

$$$$
