
 OpenBabel03242511553D

 31 33  0  0  1  0  0  0  0  0999 V2000
   37.8030   29.5670   38.8970 C   0  0  2  0  0  0  0  0  0  0  0  0
   36.9080   29.6900   37.6930 C   0  0  0  0  0  0  0  0  0  0  0  0
   35.4920   29.3120   37.9970 C   0  0  0  0  0  0  0  0  0  0  0  0
   35.3630   27.9430   38.5970 C   0  0  0  0  0  0  0  0  0  0  0  0
   36.4770   27.5980   39.5420 C   0  0  0  0  0  0  0  0  0  0  0  0
   37.1850   28.8490   40.0440 C   0  0  1  0  0  0  0  0  0  0  0  0
   38.7490   28.9920   38.6310 H   0  0  0  0  0  0  0  0  0  0  0  0
   37.2980   29.0580   36.8790 H   0  0  0  0  0  0  0  0  0  0  0  0
   36.9130   30.7330   37.3490 H   0  0  0  0  0  0  0  0  0  0  0  0
   34.8800   30.0520   38.5050 H   0  0  0  0  0  0  0  0  0  0  0  0
   35.0010   29.2110   36.9760 H   0  0  0  0  0  0  0  0  0  0  0  0
   35.3100   27.1410   37.8120 H   0  0  0  0  0  0  0  0  0  0  0  0
   34.3620   27.9110   39.0850 H   0  0  0  0  0  0  0  0  0  0  0  0
   35.9830   27.0320   40.3580 H   0  0  0  0  0  0  0  0  0  0  0  0
   37.2310   26.9900   38.9980 H   0  0  0  0  0  0  0  0  0  0  0  0
   36.3190   29.5060   40.3690 H   0  0  0  0  0  0  0  0  0  0  0  0
   38.2700   30.8970   39.3240 C   0  0  0  0  0  0  0  0  0  0  0  0
   37.2770   31.8390   39.6540 C   0  0  0  0  0  0  0  0  0  0  0  0
   37.6960   33.0980   40.0940 C   0  0  0  0  0  0  0  0  0  0  0  0
   39.0430   33.3350   40.1760 N   0  0  0  0  0  0  0  0  0  0  0  0
   39.9720   32.4030   39.8480 C   0  0  0  0  0  0  0  0  0  0  0  0
   39.5730   31.2020   39.4280 N   0  0  0  0  0  0  0  0  0  0  0  0
   36.2070   31.7240   39.6140 H   0  0  0  0  0  0  0  0  0  0  0  0
   36.9930   33.8660   40.3650 H   0  0  0  0  0  0  0  0  0  0  0  0
   41.0030   32.7160   39.9550 H   0  0  0  0  0  0  0  0  0  0  0  0
   38.0250   28.5900   41.2270 C   0  0  0  0  0  3  0  0  0  0  0  0
   37.6980   29.4030   42.4400 C   0  0  0  0  0  2  0  0  0  0  0  0
   37.4970   28.4950   43.6780 C   0  0  0  0  0  2  0  0  0  0  0  0
   36.5010   27.4450   43.2160 C   0  0  0  0  0  2  0  0  0  0  0  0
   37.2470   26.4650   42.3160 C   0  0  0  0  0  2  0  0  0  0  0  0
   38.3290   27.1560   41.5520 C   0  0  0  0  0  2  0  0  0  0  0  0
  1  7  1  6  0  0  0
  1 17  1  0  0  0  0
  1  6  1  0  0  0  0
  2  3  1  0  0  0  0
  2  1  1  0  0  0  0
  3 10  1  0  0  0  0
  3  4  1  0  0  0  0
  4 13  1  0  0  0  0
  4  5  1  0  0  0  0
  5  6  1  0  0  0  0
  5 14  1  0  0  0  0
  6 16  1  1  0  0  0
  6 26  1  0  0  0  0
  8  2  1  0  0  0  0
  9  2  1  0  0  0  0
 11  3  1  0  0  0  0
 12  4  1  0  0  0  0
 15  5  1  0  0  0  0
 17 22  2  0  0  0  0
 17 18  1  0  0  0  0
 18 19  2  0  0  0  0
 19 20  1  0  0  0  0
 19 24  1  0  0  0  0
 21 25  1  0  0  0  0
 21 20  2  0  0  0  0
 22 21  1  0  0  0  0
 23 18  1  0  0  0  0
 26 31  1  0  0  0  0
 26 27  1  0  0  0  0
 27 28  1  0  0  0  0
 29 28  1  0  0  0  0
 30 29  1  0  0  0  0
 31 30  1  0  0  0  0
M  END
>  <minimizedAffinity>
-5.21684742

$$$$

 OpenBabel03242511553D

 31 33  0  0  1  0  0  0  0  0999 V2000
   37.3300   28.3020   42.1180 C   0  0  2  0  0  0  0  0  0  0  0  0
   38.2500   29.2950   42.7740 C   0  0  0  0  0  0  0  0  0  0  0  0
   39.6680   28.8190   42.8070 C   0  0  0  0  0  0  0  0  0  0  0  0
   39.8240   27.4710   43.4490 C   0  0  0  0  0  0  0  0  0  0  0  0
   38.6960   26.5300   43.1390 C   0  0  0  0  0  0  0  0  0  0  0  0
   37.9400   26.9640   41.8910 C   0  0  1  0  0  0  0  0  0  0  0  0
   36.4080   28.1280   42.7640 H   0  0  0  0  0  0  0  0  0  0  0  0
   37.8990   29.5010   43.7980 H   0  0  0  0  0  0  0  0  0  0  0  0
   38.2220   30.2360   42.2080 H   0  0  0  0  0  0  0  0  0  0  0  0
   40.2450   28.9170   41.8920 H   0  0  0  0  0  0  0  0  0  0  0  0
   40.1870   29.5270   43.5300 H   0  0  0  0  0  0  0  0  0  0  0  0
   39.9190   27.5440   44.5670 H   0  0  0  0  0  0  0  0  0  0  0  0
   40.8130   27.0810   43.1170 H   0  0  0  0  0  0  0  0  0  0  0  0
   39.1870   25.5420   43.0170 H   0  0  0  0  0  0  0  0  0  0  0  0
   37.9750   26.5460   43.9830 H   0  0  0  0  0  0  0  0  0  0  0  0
   38.7770   27.1460   41.1480 H   0  0  0  0  0  0  0  0  0  0  0  0
   36.8120   28.8440   40.8500 C   0  0  0  0  0  0  0  0  0  0  0  0
   35.4110   28.9020   40.7140 C   0  0  0  0  0  0  0  0  0  0  0  0
   34.8960   29.4440   39.5330 C   0  0  0  0  0  0  0  0  0  0  0  0
   35.7820   29.8830   38.5860 N   0  0  0  0  0  0  0  0  0  0  0  0
   37.1270   29.8100   38.7510 C   0  0  0  0  0  0  0  0  0  0  0  0
   37.6200   29.2930   39.8770 N   0  0  0  0  0  0  0  0  0  0  0  0
   34.6580   28.5770   41.4120 H   0  0  0  0  0  0  0  0  0  0  0  0
   33.8360   29.5210   39.3610 H   0  0  0  0  0  0  0  0  0  0  0  0
   37.7180   30.1900   37.9280 H   0  0  0  0  0  0  0  0  0  0  0  0
   37.0790   25.8970   41.3510 C   0  0  0  0  0  3  0  0  0  0  0  0
   37.1450   25.7050   39.8680 C   0  0  0  0  0  2  0  0  0  0  0  0
   37.4250   24.2240   39.5130 C   0  0  0  0  0  2  0  0  0  0  0  0
   38.6400   23.8600   40.3490 C   0  0  0  0  0  2  0  0  0  0  0  0
   38.1710   23.6800   41.7900 C   0  0  0  0  0  2  0  0  0  0  0  0
   37.0370   24.5990   42.1040 C   0  0  0  0  0  2  0  0  0  0  0  0
  1  7  1  1  0  0  0
  1  2  1  0  0  0  0
  2  3  1  0  0  0  0
  2  8  1  0  0  0  0
  3  4  1  0  0  0  0
  3 11  1  0  0  0  0
  4 12  1  0  0  0  0
  5  4  1  0  0  0  0
  5 15  1  0  0  0  0
  6 16  1  6  0  0  0
  6  1  1  0  0  0  0
  6  5  1  0  0  0  0
  9  2  1  0  0  0  0
 10  3  1  0  0  0  0
 13  4  1  0  0  0  0
 14  5  1  0  0  0  0
 17  1  1  0  0  0  0
 18 17  1  0  0  0  0
 18 23  1  0  0  0  0
 19 18  2  0  0  0  0
 20 21  2  0  0  0  0
 20 19  1  0  0  0  0
 21 22  1  0  0  0  0
 22 17  2  0  0  0  0
 24 19  1  0  0  0  0
 25 21  1  0  0  0  0
 26  6  1  0  0  0  0
 26 31  1  0  0  0  0
 27 26  1  0  0  0  0
 28 27  1  0  0  0  0
 28 29  1  0  0  0  0
 29 30  1  0  0  0  0
 30 31  1  0  0  0  0
M  END
>  <minimizedAffinity>
-5.06769323

$$$$

 OpenBabel03242511553D

 31 33  0  0  1  0  0  0  0  0999 V2000
   36.6380   30.3240   40.6080 C   0  0  2  0  0  0  0  0  0  0  0  0
   36.9470   31.7890   40.4640 C   0  0  0  0  0  0  0  0  0  0  0  0
   38.4150   32.0510   40.3430 C   0  0  0  0  0  0  0  0  0  0  0  0
   39.2130   31.4660   41.4710 C   0  0  0  0  0  0  0  0  0  0  0  0
   38.6980   30.1360   41.9390 C   0  0  0  0  0  0  0  0  0  0  0  0
   37.8290   29.4740   40.8780 C   0  0  1  0  0  0  0  0  0  0  0  0
   35.9200   30.1520   41.4760 H   0  0  0  0  0  0  0  0  0  0  0  0
   36.5370   32.3380   41.3270 H   0  0  0  0  0  0  0  0  0  0  0  0
   36.4590   32.1690   39.5550 H   0  0  0  0  0  0  0  0  0  0  0  0
   38.8710   31.8780   39.3730 H   0  0  0  0  0  0  0  0  0  0  0  0
   38.5150   33.1740   40.4910 H   0  0  0  0  0  0  0  0  0  0  0  0
   39.2570   32.1540   42.3590 H   0  0  0  0  0  0  0  0  0  0  0  0
   40.2670   31.4170   41.1130 H   0  0  0  0  0  0  0  0  0  0  0  0
   39.6120   29.5500   42.1660 H   0  0  0  0  0  0  0  0  0  0  0  0
   38.0610   30.2940   42.8340 H   0  0  0  0  0  0  0  0  0  0  0  0
   38.4700   29.5640   39.9460 H   0  0  0  0  0  0  0  0  0  0  0  0
   35.9230   29.8310   39.4180 C   0  0  0  0  0  0  0  0  0  0  0  0
   36.6060   29.9250   38.1900 C   0  0  0  0  0  0  0  0  0  0  0  0
   35.9620   29.4340   37.0500 C   0  0  0  0  0  0  0  0  0  0  0  0
   34.7120   28.8950   37.2000 N   0  0  0  0  0  0  0  0  0  0  0  0
   34.0840   28.8220   38.4000 C   0  0  0  0  0  0  0  0  0  0  0  0
   34.6970   29.2910   39.4880 N   0  0  0  0  0  0  0  0  0  0  0  0
   37.5830   30.3340   37.9970 H   0  0  0  0  0  0  0  0  0  0  0  0
   36.4230   29.4700   36.0780 H   0  0  0  0  0  0  0  0  0  0  0  0
   33.0990   28.3750   38.3840 H   0  0  0  0  0  0  0  0  0  0  0  0
   37.6080   28.0410   41.1390 C   0  0  0  0  0  3  0  0  0  0  0  0
   38.8470   27.2150   41.2900 C   0  0  0  0  0  2  0  0  0  0  0  0
   38.8080   26.3910   42.6010 C   0  0  0  0  0  2  0  0  0  0  0  0
   38.4790   27.4130   43.6760 C   0  0  0  0  0  2  0  0  0  0  0  0
   36.9950   27.7480   43.5560 C   0  0  0  0  0  2  0  0  0  0  0  0
   36.5430   27.6800   42.1340 C   0  0  0  0  0  2  0  0  0  0  0  0
  1  6  1  0  0  0  0
  1  7  1  1  0  0  0
  2  1  1  0  0  0  0
  2  8  1  0  0  0  0
  3  2  1  0  0  0  0
  3 11  1  0  0  0  0
  3  4  1  0  0  0  0
  4  5  1  0  0  0  0
  4 12  1  0  0  0  0
  5 14  1  0  0  0  0
  5 15  1  0  0  0  0
  6 16  1  6  0  0  0
  6 26  1  0  0  0  0
  6  5  1  0  0  0  0
  9  2  1  0  0  0  0
 10  3  1  0  0  0  0
 13  4  1  0  0  0  0
 17 22  1  0  0  0  0
 17  1  1  0  0  0  0
 18 17  2  0  0  0  0
 19 20  2  0  0  0  0
 19 18  1  0  0  0  0
 20 21  1  0  0  0  0
 21 22  2  0  0  0  0
 23 18  1  0  0  0  0
 24 19  1  0  0  0  0
 25 21  1  0  0  0  0
 26 27  1  0  0  0  0
 26 31  1  0  0  0  0
 27 28  1  0  0  0  0
 28 29  1  0  0  0  0
 30 29  1  0  0  0  0
 31 30  1  0  0  0  0
M  END
>  <minimizedAffinity>
-5.05436325

$$$$

 OpenBabel03242511553D

 31 33  0  0  1  0  0  0  0  0999 V2000
   39.1590   29.9190   39.8200 C   0  0  2  0  0  0  0  0  0  0  0  0
   39.7700   29.6290   38.4760 C   0  0  0  0  0  0  0  0  0  0  0  0
   38.9360   28.6910   37.6620 C   0  0  0  0  0  0  0  0  0  0  0  0
   38.6290   27.4060   38.3750 C   0  0  0  0  0  0  0  0  0  0  0  0
   38.3880   27.5830   39.8460 C   0  0  0  0  0  0  0  0  0  0  0  0
   38.0260   29.0250   40.1780 C   0  0  1  0  0  0  0  0  0  0  0  0
   39.9360   29.7970   40.6440 H   0  0  0  0  0  0  0  0  0  0  0  0
   40.7810   29.2110   38.6130 H   0  0  0  0  0  0  0  0  0  0  0  0
   39.8640   30.5710   37.9160 H   0  0  0  0  0  0  0  0  0  0  0  0
   38.0700   29.1080   37.1580 H   0  0  0  0  0  0  0  0  0  0  0  0
   39.6180   28.3730   36.8090 H   0  0  0  0  0  0  0  0  0  0  0  0
   39.4460   26.6450   38.2450 H   0  0  0  0  0  0  0  0  0  0  0  0
   37.7560   26.9590   37.8480 H   0  0  0  0  0  0  0  0  0  0  0  0
   37.5670   26.8740   40.0790 H   0  0  0  0  0  0  0  0  0  0  0  0
   39.3240   27.3450   40.3930 H   0  0  0  0  0  0  0  0  0  0  0  0
   37.2180   29.2560   39.4160 H   0  0  0  0  0  0  0  0  0  0  0  0
   38.7380   31.3280   39.8970 C   0  0  0  0  0  0  0  0  0  0  0  0
   37.6290   31.6980   39.1120 C   0  0  0  0  0  0  0  0  0  0  0  0
   37.1890   33.0230   39.1940 C   0  0  0  0  0  0  0  0  0  0  0  0
   37.8620   33.8740   40.0300 N   0  0  0  0  0  0  0  0  0  0  0  0
   38.9280   33.4820   40.7710 C   0  0  0  0  0  0  0  0  0  0  0  0
   39.3490   32.2190   40.6940 N   0  0  0  0  0  0  0  0  0  0  0  0
   37.0540   31.0880   38.4370 H   0  0  0  0  0  0  0  0  0  0  0  0
   36.3470   33.3760   38.6250 H   0  0  0  0  0  0  0  0  0  0  0  0
   39.3720   34.2500   41.3910 H   0  0  0  0  0  0  0  0  0  0  0  0
   37.4350   29.1660   41.5210 C   0  0  0  0  0  3  0  0  0  0  0  0
   36.3640   28.1770   41.8610 C   0  0  0  0  0  2  0  0  0  0  0  0
   36.6650   27.4750   43.2080 C   0  0  0  0  0  2  0  0  0  0  0  0
   38.0940   26.9790   43.0610 C   0  0  0  0  0  2  0  0  0  0  0  0
   39.0180   28.1840   43.2040 C   0  0  0  0  0  2  0  0  0  0  0  0
   38.3760   29.4190   42.6630 C   0  0  0  0  0  2  0  0  0  0  0  0
  1 17  1  0  0  0  0
  1  6  1  0  0  0  0
  1  7  1  1  0  0  0
  2  8  1  0  0  0  0
  2  1  1  0  0  0  0
  3  4  1  0  0  0  0
  3  2  1  0  0  0  0
  4  5  1  0  0  0  0
  5 14  1  0  0  0  0
  5  6  1  0  0  0  0
  5 15  1  0  0  0  0
  6 16  1  6  0  0  0
  6 26  1  0  0  0  0
  9  2  1  0  0  0  0
 10  3  1  0  0  0  0
 11  3  1  0  0  0  0
 12  4  1  0  0  0  0
 13  4  1  0  0  0  0
 17 22  1  0  0  0  0
 18 19  1  0  0  0  0
 18 17  2  0  0  0  0
 19 20  2  0  0  0  0
 20 21  1  0  0  0  0
 21 25  1  0  0  0  0
 22 21  2  0  0  0  0
 23 18  1  0  0  0  0
 24 19  1  0  0  0  0
 26 27  1  0  0  0  0
 26 31  1  0  0  0  0
 27 28  1  0  0  0  0
 29 30  1  0  0  0  0
 29 28  1  0  0  0  0
 31 30  1  0  0  0  0
M  END
>  <minimizedAffinity>
-4.91891718

$$$$

 OpenBabel03242511553D

 31 33  0  0  1  0  0  0  0  0999 V2000
   37.3810   26.4170   42.3370 C   0  0  2  0  0  0  0  0  0  0  0  0
   36.5160   27.6310   42.5420 C   0  0  0  0  0  0  0  0  0  0  0  0
   37.2740   28.9070   42.3590 C   0  0  0  0  0  0  0  0  0  0  0  0
   38.4970   28.9960   43.2240 C   0  0  0  0  0  0  0  0  0  0  0  0
   39.2120   27.6850   43.3820 C   0  0  0  0  0  0  0  0  0  0  0  0
   38.8380   26.7130   42.2720 C   0  0  1  0  0  0  0  0  0  0  0  0
   37.2420   25.6800   43.1940 H   0  0  0  0  0  0  0  0  0  0  0  0
   36.0710   27.5990   43.5500 H   0  0  0  0  0  0  0  0  0  0  0  0
   35.6980   27.6150   41.8080 H   0  0  0  0  0  0  0  0  0  0  0  0
   37.4570   29.2330   41.3390 H   0  0  0  0  0  0  0  0  0  0  0  0
   36.5840   29.7090   42.7790 H   0  0  0  0  0  0  0  0  0  0  0  0
   38.2620   29.3910   44.2490 H   0  0  0  0  0  0  0  0  0  0  0  0
   39.1420   29.7830   42.7700 H   0  0  0  0  0  0  0  0  0  0  0  0
   40.2880   27.9530   43.3690 H   0  0  0  0  0  0  0  0  0  0  0  0
   38.9000   27.2230   44.3430 H   0  0  0  0  0  0  0  0  0  0  0  0
   38.9670   27.3450   41.3390 H   0  0  0  0  0  0  0  0  0  0  0  0
   36.9580   25.6850   41.1310 C   0  0  0  0  0  0  0  0  0  0  0  0
   36.5950   24.3360   41.3070 C   0  0  0  0  0  0  0  0  0  0  0  0
   36.1580   23.6300   40.1830 C   0  0  0  0  0  0  0  0  0  0  0  0
   36.1110   24.2920   38.9850 N   0  0  0  0  0  0  0  0  0  0  0  0
   36.4700   25.5930   38.8520 C   0  0  0  0  0  0  0  0  0  0  0  0
   36.8870   26.2680   39.9240 N   0  0  0  0  0  0  0  0  0  0  0  0
   36.6060   23.7540   42.2120 H   0  0  0  0  0  0  0  0  0  0  0  0
   35.8620   22.5960   40.2420 H   0  0  0  0  0  0  0  0  0  0  0  0
   36.3880   25.9990   37.8520 H   0  0  0  0  0  0  0  0  0  0  0  0
   39.7680   25.5740   42.1790 C   0  0  0  0  0  3  0  0  0  0  0  0
   40.6050   25.5250   40.9380 C   0  0  0  0  0  2  0  0  0  0  0  0
   42.1060   25.3780   41.2880 C   0  0  0  0  0  2  0  0  0  0  0  0
   42.3660   26.4830   42.2980 C   0  0  0  0  0  2  0  0  0  0  0  0
   41.7630   26.0430   43.6290 C   0  0  0  0  0  2  0  0  0  0  0  0
   40.5400   25.2130   43.4150 C   0  0  0  0  0  2  0  0  0  0  0  0
  1  2  1  0  0  0  0
  1  7  1  1  0  0  0
  2  8  1  0  0  0  0
  3  2  1  0  0  0  0
  3 11  1  0  0  0  0
  3  4  1  0  0  0  0
  4  5  1  0  0  0  0
  4 12  1  0  0  0  0
  5 15  1  0  0  0  0
  6 16  1  6  0  0  0
  6  1  1  0  0  0  0
  6  5  1  0  0  0  0
  9  2  1  0  0  0  0
 10  3  1  0  0  0  0
 13  4  1  0  0  0  0
 14  5  1  0  0  0  0
 17 18  1  0  0  0  0
 17  1  1  0  0  0  0
 18 23  1  0  0  0  0
 19 24  1  0  0  0  0
 19 18  2  0  0  0  0
 20 19  1  0  0  0  0
 21 20  2  0  0  0  0
 21 22  1  0  0  0  0
 22 17  2  0  0  0  0
 25 21  1  0  0  0  0
 26  6  1  0  0  0  0
 26 31  1  0  0  0  0
 27 28  1  0  0  0  0
 27 26  1  0  0  0  0
 28 29  1  0  0  0  0
 29 30  1  0  0  0  0
 31 30  1  0  0  0  0
M  END
>  <minimizedAffinity>
-4.82718754

$$$$

 OpenBabel03242511553D

 31 33  0  0  1  0  0  0  0  0999 V2000
   38.6690   28.9410   42.6270 C   0  0  2  0  0  0  0  0  0  0  0  0
   39.0020   27.7450   43.4780 C   0  0  0  0  0  0  0  0  0  0  0  0
   38.5400   26.4630   42.8610 C   0  0  0  0  0  0  0  0  0  0  0  0
   37.0780   26.4640   42.5240 C   0  0  0  0  0  0  0  0  0  0  0  0
   36.5820   27.7890   42.0220 C   0  0  0  0  0  0  0  0  0  0  0  0
   37.7280   28.6520   41.5110 C   0  0  1  0  0  0  0  0  0  0  0  0
   38.1780   29.7530   43.2570 H   0  0  0  0  0  0  0  0  0  0  0  0
   38.5490   27.8660   44.4750 H   0  0  0  0  0  0  0  0  0  0  0  0
   40.0920   27.6880   43.6020 H   0  0  0  0  0  0  0  0  0  0  0  0
   39.1530   26.0460   42.0670 H   0  0  0  0  0  0  0  0  0  0  0  0
   38.6270   25.6990   43.6980 H   0  0  0  0  0  0  0  0  0  0  0  0
   36.4420   26.1630   43.4000 H   0  0  0  0  0  0  0  0  0  0  0  0
   36.9290   25.6420   41.7860 H   0  0  0  0  0  0  0  0  0  0  0  0
   35.8570   27.5280   41.2230 H   0  0  0  0  0  0  0  0  0  0  0  0
   36.1090   28.3350   42.8640 H   0  0  0  0  0  0  0  0  0  0  0  0
   38.2890   27.9370   40.8330 H   0  0  0  0  0  0  0  0  0  0  0  0
   39.9010   29.5560   42.1040 C   0  0  0  0  0  0  0  0  0  0  0  0
   40.2050   30.8510   42.5660 C   0  0  0  0  0  0  0  0  0  0  0  0
   41.3870   31.4420   42.1100 C   0  0  0  0  0  0  0  0  0  0  0  0
   42.1720   30.7270   41.2440 N   0  0  0  0  0  0  0  0  0  0  0  0
   41.8460   29.4800   40.8190 C   0  0  0  0  0  0  0  0  0  0  0  0
   40.7190   28.9160   41.2530 N   0  0  0  0  0  0  0  0  0  0  0  0
   39.6400   31.4690   43.2420 H   0  0  0  0  0  0  0  0  0  0  0  0
   41.6850   32.4280   42.4230 H   0  0  0  0  0  0  0  0  0  0  0  0
   42.5490   29.0240   40.1350 H   0  0  0  0  0  0  0  0  0  0  0  0
   37.2630   29.7840   40.6910 C   0  0  0  0  0  3  0  0  0  0  0  0
   37.7880   29.8220   39.2900 C   0  0  0  0  0  2  0  0  0  0  0  0
   36.6330   29.9600   38.2680 C   0  0  0  0  0  2  0  0  0  0  0  0
   35.6600   28.8580   38.6510 C   0  0  0  0  0  2  0  0  0  0  0  0
   34.9250   29.3070   39.9100 C   0  0  0  0  0  2  0  0  0  0  0  0
   35.8080   30.1440   40.7770 C   0  0  0  0  0  2  0  0  0  0  0  0
  1  7  1  1  0  0  0
  1  2  1  0  0  0  0
  2  9  1  0  0  0  0
  2  8  1  0  0  0  0
  3  2  1  0  0  0  0
  3 11  1  0  0  0  0
  4  3  1  0  0  0  0
  4 12  1  0  0  0  0
  5  4  1  0  0  0  0
  5 15  1  0  0  0  0
  6 16  1  6  0  0  0
  6  5  1  0  0  0  0
  6  1  1  0  0  0  0
 10  3  1  0  0  0  0
 13  4  1  0  0  0  0
 14  5  1  0  0  0  0
 17 18  1  0  0  0  0
 17  1  1  0  0  0  0
 18 23  1  0  0  0  0
 19 24  1  0  0  0  0
 19 18  2  0  0  0  0
 20 19  1  0  0  0  0
 21 20  2  0  0  0  0
 21 22  1  0  0  0  0
 22 17  2  0  0  0  0
 25 21  1  0  0  0  0
 26 31  1  0  0  0  0
 26  6  1  0  0  0  0
 27 26  1  0  0  0  0
 28 29  1  0  0  0  0
 28 27  1  0  0  0  0
 29 30  1  0  0  0  0
 30 31  1  0  0  0  0
M  END
>  <minimizedAffinity>
-4.82620049

$$$$

 OpenBabel03242511553D

 31 33  0  0  1  0  0  0  0  0999 V2000
   37.2920   28.4270   40.5130 C   0  0  2  0  0  0  0  0  0  0  0  0
   37.0520   27.4950   41.6690 C   0  0  0  0  0  0  0  0  0  0  0  0
   36.9630   28.2200   42.9750 C   0  0  0  0  0  0  0  0  0  0  0  0
   38.1570   29.0860   43.2510 C   0  0  0  0  0  0  0  0  0  0  0  0
   38.7030   29.7590   42.0250 C   0  0  0  0  0  0  0  0  0  0  0  0
   37.6640   29.8100   40.9130 C   0  0  1  0  0  0  0  0  0  0  0  0
   38.1440   28.0420   39.8630 H   0  0  0  0  0  0  0  0  0  0  0  0
   37.8580   26.7440   41.7110 H   0  0  0  0  0  0  0  0  0  0  0  0
   36.1010   26.9660   41.5100 H   0  0  0  0  0  0  0  0  0  0  0  0
   36.0240   28.7160   43.2030 H   0  0  0  0  0  0  0  0  0  0  0  0
   37.0320   27.4000   43.7590 H   0  0  0  0  0  0  0  0  0  0  0  0
   38.9930   28.5100   43.7340 H   0  0  0  0  0  0  0  0  0  0  0  0
   37.8400   29.8120   44.0340 H   0  0  0  0  0  0  0  0  0  0  0  0
   39.0030   30.7670   42.3740 H   0  0  0  0  0  0  0  0  0  0  0  0
   39.5610   29.1660   41.6450 H   0  0  0  0  0  0  0  0  0  0  0  0
   36.7500   30.2150   41.4500 H   0  0  0  0  0  0  0  0  0  0  0  0
   36.1170   28.4540   39.6250 C   0  0  0  0  0  0  0  0  0  0  0  0
   34.9600   29.0780   40.1300 C   0  0  0  0  0  0  0  0  0  0  0  0
   33.8420   29.1470   39.2940 C   0  0  0  0  0  0  0  0  0  0  0  0
   33.9420   28.6040   38.0400 N   0  0  0  0  0  0  0  0  0  0  0  0
   35.0730   28.0080   37.5870 C   0  0  0  0  0  0  0  0  0  0  0  0
   36.1410   27.9420   38.3840 N   0  0  0  0  0  0  0  0  0  0  0  0
   34.8090   29.5240   41.0980 H   0  0  0  0  0  0  0  0  0  0  0  0
   32.9240   29.6110   39.6120 H   0  0  0  0  0  0  0  0  0  0  0  0
   35.0230   27.6180   36.5790 H   0  0  0  0  0  0  0  0  0  0  0  0
   38.0210   30.7630   39.8470 C   0  0  0  0  0  3  0  0  0  0  0  0
   37.1010   31.9350   39.6960 C   0  0  0  0  0  2  0  0  0  0  0  0
   37.8920   33.2660   39.7140 C   0  0  0  0  0  2  0  0  0  0  0  0
   38.7530   33.1740   40.9630 C   0  0  0  0  0  2  0  0  0  0  0  0
   39.9010   32.2150   40.6610 C   0  0  0  0  0  2  0  0  0  0  0  0
   39.4690   31.1400   39.7190 C   0  0  0  0  0  2  0  0  0  0  0  0
  1  7  1  6  0  0  0
  1  6  1  0  0  0  0
  1  2  1  0  0  0  0
  2  8  1  0  0  0  0
  2  3  1  0  0  0  0
  3 10  1  0  0  0  0
  3  4  1  0  0  0  0
  3 11  1  0  0  0  0
  4 12  1  0  0  0  0
  4 13  1  0  0  0  0
  5 14  1  0  0  0  0
  5  4  1  0  0  0  0
  6 16  1  1  0  0  0
  6  5  1  0  0  0  0
  9  2  1  0  0  0  0
 15  5  1  0  0  0  0
 17 18  1  0  0  0  0
 17  1  1  0  0  0  0
 18 23  1  0  0  0  0
 19 24  1  0  0  0  0
 19 18  2  0  0  0  0
 20 19  1  0  0  0  0
 21 20  2  0  0  0  0
 21 22  1  0  0  0  0
 22 17  2  0  0  0  0
 25 21  1  0  0  0  0
 26  6  1  0  0  0  0
 27 28  1  0  0  0  0
 27 26  1  0  0  0  0
 28 29  1  0  0  0  0
 30 29  1  0  0  0  0
 31 26  1  0  0  0  0
 31 30  1  0  0  0  0
M  END
>  <minimizedAffinity>
-4.81129599

$$$$

 OpenBabel03242511553D

 31 33  0  0  1  0  0  0  0  0999 V2000
   38.1590   29.6710   40.1840 C   0  0  2  0  0  0  0  0  0  0  0  0
   39.0370   30.8860   40.3260 C   0  0  0  0  0  0  0  0  0  0  0  0
   38.2440   32.1480   40.4510 C   0  0  0  0  0  0  0  0  0  0  0  0
   37.2690   32.3460   39.3270 C   0  0  0  0  0  0  0  0  0  0  0  0
   36.6290   31.0710   38.8610 C   0  0  0  0  0  0  0  0  0  0  0  0
   36.7280   29.9820   39.9210 C   0  0  1  0  0  0  0  0  0  0  0  0
   38.5120   29.0260   39.3150 H   0  0  0  0  0  0  0  0  0  0  0  0
   39.7150   30.9530   39.4600 H   0  0  0  0  0  0  0  0  0  0  0  0
   39.6490   30.7800   41.2320 H   0  0  0  0  0  0  0  0  0  0  0  0
   37.8130   32.3680   41.4240 H   0  0  0  0  0  0  0  0  0  0  0  0
   39.0070   32.9780   40.3000 H   0  0  0  0  0  0  0  0  0  0  0  0
   37.7440   32.8430   38.4380 H   0  0  0  0  0  0  0  0  0  0  0  0
   36.5250   33.0920   39.6890 H   0  0  0  0  0  0  0  0  0  0  0  0
   35.5800   31.3530   38.6390 H   0  0  0  0  0  0  0  0  0  0  0  0
   37.1710   30.7070   37.9640 H   0  0  0  0  0  0  0  0  0  0  0  0
   36.3680   30.5150   40.8550 H   0  0  0  0  0  0  0  0  0  0  0  0
   38.2810   28.8110   41.3730 C   0  0  0  0  0  0  0  0  0  0  0  0
   37.6460   29.2630   42.5460 C   0  0  0  0  0  0  0  0  0  0  0  0
   37.7190   28.4470   43.6790 C   0  0  0  0  0  0  0  0  0  0  0  0
   38.4010   27.2640   43.5770 N   0  0  0  0  0  0  0  0  0  0  0  0
   39.0020   26.8600   42.4300 C   0  0  0  0  0  0  0  0  0  0  0  0
   38.9330   27.6380   41.3480 N   0  0  0  0  0  0  0  0  0  0  0  0
   37.0960   30.1750   42.6990 H   0  0  0  0  0  0  0  0  0  0  0  0
   37.2560   28.7280   44.6100 H   0  0  0  0  0  0  0  0  0  0  0  0
   39.5090   25.9060   42.4810 H   0  0  0  0  0  0  0  0  0  0  0  0
   35.8150   28.8540   39.6630 C   0  0  0  0  0  3  0  0  0  0  0  0
   34.4040   29.2300   39.3360 C   0  0  0  0  0  2  0  0  0  0  0  0
   33.9370   28.5500   38.0260 C   0  0  0  0  0  2  0  0  0  0  0  0
   35.0290   28.8810   37.0220 C   0  0  0  0  0  2  0  0  0  0  0  0
   36.2310   27.9970   37.3400 C   0  0  0  0  0  2  0  0  0  0  0  0
   36.3310   27.7340   38.8060 C   0  0  0  0  0  2  0  0  0  0  0  0
  1  7  1  6  0  0  0
  1  2  1  0  0  0  0
  1 17  1  0  0  0  0
  2  3  1  0  0  0  0
  2  9  1  0  0  0  0
  3 10  1  0  0  0  0
  4 13  1  0  0  0  0
  4  3  1  0  0  0  0
  5  4  1  0  0  0  0
  5  6  1  0  0  0  0
  6  1  1  0  0  0  0
  6 16  1  1  0  0  0
  8  2  1  0  0  0  0
 11  3  1  0  0  0  0
 12  4  1  0  0  0  0
 14  5  1  0  0  0  0
 15  5  1  0  0  0  0
 17 18  1  0  0  0  0
 18 23  1  0  0  0  0
 18 19  2  0  0  0  0
 19 24  1  0  0  0  0
 20 19  1  0  0  0  0
 21 25  1  0  0  0  0
 21 20  2  0  0  0  0
 22 17  2  0  0  0  0
 22 21  1  0  0  0  0
 26  6  1  0  0  0  0
 27 26  1  0  0  0  0
 28 27  1  0  0  0  0
 29 30  1  0  0  0  0
 29 28  1  0  0  0  0
 30 31  1  0  0  0  0
 31 26  1  0  0  0  0
M  END
>  <minimizedAffinity>
-4.79501247

$$$$

 OpenBabel03242511553D

 31 33  0  0  1  0  0  0  0  0999 V2000
   37.3640   30.2470   41.4200 C   0  0  2  0  0  0  0  0  0  0  0  0
   38.1240   29.6150   42.5560 C   0  0  0  0  0  0  0  0  0  0  0  0
   38.4720   28.1860   42.2810 C   0  0  0  0  0  0  0  0  0  0  0  0
   37.2790   27.3460   41.9290 C   0  0  0  0  0  0  0  0  0  0  0  0
   36.2630   28.0720   41.0950 C   0  0  0  0  0  0  0  0  0  0  0  0
   36.8780   29.2790   40.4000 C   0  0  1  0  0  0  0  0  0  0  0  0
   36.4430   30.7890   41.8120 H   0  0  0  0  0  0  0  0  0  0  0  0
   37.5290   29.6860   43.4800 H   0  0  0  0  0  0  0  0  0  0  0  0
   39.0610   30.1680   42.7100 H   0  0  0  0  0  0  0  0  0  0  0  0
   39.3220   28.0000   41.6320 H   0  0  0  0  0  0  0  0  0  0  0  0
   38.8060   27.7780   43.2880 H   0  0  0  0  0  0  0  0  0  0  0  0
   36.7590   26.9470   42.8420 H   0  0  0  0  0  0  0  0  0  0  0  0
   37.6780   26.4360   41.4250 H   0  0  0  0  0  0  0  0  0  0  0  0
   35.8990   27.3080   40.3770 H   0  0  0  0  0  0  0  0  0  0  0  0
   35.4590   28.4490   41.7600 H   0  0  0  0  0  0  0  0  0  0  0  0
   37.8180   28.8440   39.9380 H   0  0  0  0  0  0  0  0  0  0  0  0
   38.1800   31.2930   40.7790 C   0  0  0  0  0  0  0  0  0  0  0  0
   39.4580   30.9080   40.3300 C   0  0  0  0  0  0  0  0  0  0  0  0
   40.2380   31.8750   39.6870 C   0  0  0  0  0  0  0  0  0  0  0  0
   39.7110   33.1300   39.5370 N   0  0  0  0  0  0  0  0  0  0  0  0
   38.4750   33.4650   39.9840 C   0  0  0  0  0  0  0  0  0  0  0  0
   37.7310   32.5440   40.5970 N   0  0  0  0  0  0  0  0  0  0  0  0
   39.9350   29.9470   40.4130 H   0  0  0  0  0  0  0  0  0  0  0  0
   41.2230   31.6520   39.3160 H   0  0  0  0  0  0  0  0  0  0  0  0
   38.1770   34.4890   39.8030 H   0  0  0  0  0  0  0  0  0  0  0  0
   36.0340   29.7960   39.3080 C   0  0  0  0  0  3  0  0  0  0  0  0
   36.7620   30.1770   38.0570 C   0  0  0  0  0  2  0  0  0  0  0  0
   36.1320   29.4940   36.8190 C   0  0  0  0  0  2  0  0  0  0  0  0
   36.0580   28.0250   37.1980 C   0  0  0  0  0  2  0  0  0  0  0  0
   34.9020   27.8590   38.1800 C   0  0  0  0  0  2  0  0  0  0  0  0
   34.7460   29.0740   39.0350 C   0  0  0  0  0  2  0  0  0  0  0  0
  1  7  1  1  0  0  0
  1  2  1  0  0  0  0
  2  9  1  0  0  0  0
  2  8  1  0  0  0  0
  3  2  1  0  0  0  0
  3 11  1  0  0  0  0
  4  3  1  0  0  0  0
  4 12  1  0  0  0  0
  5 15  1  0  0  0  0
  5  4  1  0  0  0  0
  6 16  1  6  0  0  0
  6  5  1  0  0  0  0
  6  1  1  0  0  0  0
 10  3  1  0  0  0  0
 13  4  1  0  0  0  0
 14  5  1  0  0  0  0
 17  1  1  0  0  0  0
 18 23  1  0  0  0  0
 18 17  2  0  0  0  0
 19 18  1  0  0  0  0
 20 19  2  0  0  0  0
 20 21  1  0  0  0  0
 21 22  2  0  0  0  0
 22 17  1  0  0  0  0
 24 19  1  0  0  0  0
 25 21  1  0  0  0  0
 26  6  1  0  0  0  0
 27 26  1  0  0  0  0
 28 29  1  0  0  0  0
 28 27  1  0  0  0  0
 29 30  1  0  0  0  0
 30 31  1  0  0  0  0
 31 26  1  0  0  0  0
M  END
>  <minimizedAffinity>
-4.77530336

$$$$
