
 OpenBabel03242510063D

 15 16  0  0  1  0  0  0  0  0999 V2000
   44.9920   34.9670   44.7850 C   0  0  0  0  0  0  0  0  0  0  0  0
   45.8830   34.6340   43.7490 C   0  0  0  0  0  0  0  0  0  0  0  0
   46.8070   33.6120   43.9870 C   0  0  0  0  0  0  0  0  0  0  0  0
   46.7920   32.9980   45.2010 N   0  0  0  0  0  0  0  0  0  0  0  0
   45.9220   33.3380   46.1790 C   0  0  0  0  0  0  0  0  0  0  0  0
   45.0180   34.3260   45.9740 N   0  0  0  0  0  0  0  0  0  0  0  0
   44.2630   35.7660   44.6160 H   0  0  0  0  0  0  0  0  0  0  0  0
   45.8730   35.1320   42.8090 H   0  0  0  0  0  0  0  0  0  0  0  0
   47.5300   33.2860   43.2520 H   0  0  0  0  0  0  0  0  0  0  0  0
   45.9710   32.6150   47.4820 C   0  0  2  0  0  3  0  0  0  0  0  0
   47.4020   32.4880   47.8490 C   0  0  0  0  0  2  0  0  0  0  0  0
   47.9760   31.1130   47.6570 C   0  0  0  0  0  2  0  0  0  0  0  0
   47.1210   30.1800   48.4740 C   0  0  0  0  0  2  0  0  0  0  0  0
   45.7090   30.1450   48.0230 C   0  0  0  0  0  3  0  0  0  0  0  0
   45.1850   31.3650   47.3650 C   0  0  0  0  0  3  0  0  0  0  0  0
  1  6  1  0  0  0  0
  2  3  1  0  0  0  0
  2  1  2  0  0  0  0
  3  4  2  0  0  0  0
  4  5  1  0  0  0  0
  6  5  2  0  0  0  0
  7  1  1  0  0  0  0
  8  2  1  0  0  0  0
  9  3  1  0  0  0  0
 10  5  1  6  0  0  0
 10 11  1  0  0  0  0
 12 11  1  0  0  0  0
 12 13  1  0  0  0  0
 14 13  1  0  0  0  0
 15 10  1  0  0  0  0
 15 14  2  0  0  0  0
M  END
>  <minimizedAffinity>
-3.63603163

>  <minimizedRMSD>
1.16782069

$$$$
