
 OpenBabel03252509213D

 22 24  0  0  0  0  0  0  0  0999 V2000
   46.5250   31.6040   43.7790 C   0  0  0  0  0  0  0  0  0  0  0  0
   47.0180   32.9190   43.6870 C   0  0  0  0  0  0  0  0  0  0  0  0
   48.2740   33.0290   43.1190 C   0  0  0  0  0  0  0  0  0  0  0  0
   48.9430   31.8990   42.6920 N   0  0  0  0  0  0  0  0  0  0  0  0
   48.4310   30.6620   42.7990 C   0  0  0  0  0  0  0  0  0  0  0  0
   47.2010   30.5290   43.3540 N   0  0  0  0  0  0  0  0  0  0  0  0
   45.5740   31.3560   44.1920 H   0  0  0  0  0  0  0  0  0  0  0  0
   49.1230   29.9390   42.4030 H   0  0  0  0  0  0  0  0  0  0  0  0
   48.8580   34.4040   42.8960 C   0  0  0  0  0  0  0  0  0  0  0  0
   50.2730   34.2930   42.3080 C   0  0  0  0  0  0  0  0  0  0  0  0
   49.0400   34.8580   41.5390 C   0  0  0  0  0  0  0  0  0  0  0  0
   48.9790   35.0370   43.8140 H   0  0  0  0  0  0  0  0  0  0  0  0
   50.6100   33.3340   41.8950 H   0  0  0  0  0  0  0  0  0  0  0  0
   51.0250   35.0510   42.5050 H   0  0  0  0  0  0  0  0  0  0  0  0
   48.6100   34.2430   40.7360 H   0  0  0  0  0  0  0  0  0  0  0  0
   49.0630   35.9340   41.2720 H   0  0  0  0  0  0  0  0  0  0  0  0
   46.2370   34.0370   44.1700 C   0  0  0  0  0  3  0  0  0  0  0  0
   44.9670   34.1820   43.3530 C   0  0  0  0  0  2  0  0  0  0  0  0
   44.6070   35.6520   43.4030 C   0  0  0  0  0  2  0  0  0  0  0  0
   44.5670   36.0660   44.8500 C   0  0  0  0  0  2  0  0  0  0  0  0
   44.5860   34.9060   45.8130 C   0  0  0  0  0  2  0  0  0  0  0  0
   45.8090   34.0180   45.5990 C   0  0  0  0  0  2  0  0  0  0  0  0
  1  7  1  0  0  0  0
  2  1  1  0  0  0  0
  2 17  1  0  0  0  0
  3  2  2  0  0  0  0
  4  5  2  0  0  0  0
  4  3  1  0  0  0  0
  5  6  1  0  0  0  0
  6  1  2  0  0  0  0
  8  5  1  0  0  0  0
  9  3  1  0  0  0  0
  9 12  1  0  0  0  0
 10 14  1  0  0  0  0
 10  9  1  0  0  0  0
 11 10  1  0  0  0  0
 11  9  1  0  0  0  0
 13 10  1  0  0  0  0
 15 11  1  0  0  0  0
 16 11  1  0  0  0  0
 17 22  1  0  0  0  0
 18 19  1  0  0  0  0
 18 17  1  0  0  0  0
 19 20  1  0  0  0  0
 20 21  1  0  0  0  0
 22 21  1  0  0  0  0
M  END
>  <minimizedAffinity>
-4.25020218

>  <minimizedRMSD>
4.16858149

$$$$
