
 OpenBabel03252505583D

 33 35  0  0  0  0  0  0  0  0999 V2000
   44.6260   35.1580   45.2500 C   0  0  0  0  0  0  0  0  0  0  0  0
   45.3380   34.9570   44.0500 C   0  0  0  0  0  0  0  0  0  0  0  0
   46.3380   33.9640   44.0250 C   0  0  0  0  0  0  0  0  0  0  0  0
   46.5350   33.2760   45.1700 N   0  0  0  0  0  0  0  0  0  0  0  0
   45.8440   33.4930   46.2860 C   0  0  0  0  0  0  0  0  0  0  0  0
   44.8930   34.4240   46.3400 N   0  0  0  0  0  0  0  0  0  0  0  0
   43.8580   35.9280   45.2560 H   0  0  0  0  0  0  0  0  0  0  0  0
   47.1240   33.6930   42.8260 C   0  0  0  0  0  0  0  0  0  0  0  0
   47.7070   32.3020   42.7680 C   0  0  0  0  0  0  0  0  0  0  0  0
   48.8440   32.2610   41.7670 C   0  0  0  0  0  0  0  0  0  0  0  0
   48.8240   33.4550   40.8330 C   0  0  0  0  0  0  0  0  0  0  0  0
   49.1530   34.6640   41.6830 C   0  0  0  0  0  0  0  0  0  0  0  0
   48.4250   34.5370   42.9760 C   0  0  0  0  0  0  0  0  0  0  0  0
   45.0070   35.7890   42.8670 C   0  0  0  0  0  0  0  0  0  0  0  0
   43.6150   35.7720   42.8120 F   0  0  0  0  0  0  0  0  0  0  0  0
   45.4440   35.0890   41.7370 F   0  0  0  0  0  0  0  0  0  0  0  0
   45.4660   37.0240   42.9950 F   0  0  0  0  0  0  0  0  0  0  0  0
   46.0620   32.7710   47.4570 O   0  0  0  0  0  0  0  0  0  0  0  0
   45.6370   31.4280   47.5740 C   0  0  0  0  0  0  0  0  0  0  0  0
   44.9110   31.3100   48.4150 H   0  0  0  0  0  0  0  0  0  0  0  0
   45.1850   31.1200   46.6130 H   0  0  0  0  0  0  0  0  0  0  0  0
   46.8390   30.5980   47.7720 C   0  0  0  0  0  0  0  0  0  0  0  0
   47.1180   29.3180   47.3400 C   0  0  0  0  0  0  0  0  0  0  0  0
   48.3250   28.7760   47.6670 C   0  0  0  0  0  0  0  0  0  0  0  0
   49.2310   29.4360   48.3810 N   0  0  0  0  0  0  0  0  0  0  0  0
   48.9520   30.6810   48.7970 C   0  0  0  0  0  0  0  0  0  0  0  0
   47.7600   31.2910   48.5070 N   0  0  0  0  0  0  0  0  0  0  0  0
   46.3130   28.9020   46.7810 H   0  0  0  0  0  0  0  0  0  0  0  0
   48.4920   27.7690   47.3020 H   0  0  0  0  0  0  0  0  0  0  0  0
   50.0240   31.3430   49.5890 C   0  0  0  0  0  0  0  0  0  0  0  0
   49.9570   32.7100   49.4800 F   0  0  0  0  0  0  0  0  0  0  0  0
   51.2750   30.9160   49.1410 F   0  0  0  0  0  0  0  0  0  0  0  0
   49.9500   31.0290   50.9330 F   0  0  0  0  0  0  0  0  0  0  0  0
  1  7  1  0  0  0  0
  1  6  1  0  0  0  0
  2  1  2  0  0  0  0
  3  2  1  0  0  0  0
  3  4  2  0  0  0  0
  4  5  1  0  0  0  0
  5  6  2  0  0  0  0
  5 18  1  0  0  0  0
  8 13  1  0  0  0  0
  8  3  1  0  0  0  0
  9  8  1  0  0  0  0
 10  9  1  0  0  0  0
 11 12  1  0  0  0  0
 11 10  1  0  0  0  0
 12 13  1  0  0  0  0
 14 17  1  0  0  0  0
 14  2  1  0  0  0  0
 15 14  1  0  0  0  0
 16 14  1  0  0  0  0
 18 19  1  0  0  0  0
 19 22  1  0  0  0  0
 19 20  1  0  0  0  0
 21 19  1  0  0  0  0
 22 27  1  0  0  0  0
 23 24  1  0  0  0  0
 23 22  2  0  0  0  0
 24 25  2  0  0  0  0
 25 26  1  0  0  0  0
 26 30  1  0  0  0  0
 27 26  2  0  0  0  0
 28 23  1  0  0  0  0
 29 24  1  0  0  0  0
 30 33  1  0  0  0  0
 31 30  1  0  0  0  0
 32 30  1  0  0  0  0
M  END
>  <minimizedAffinity>
-6.2494483

>  <minimizedRMSD>
0.897125423

$$$$
