
 OpenBabel03242513313D

 34 37  0  0  0  0  0  0  0  0999 V2000
   46.6340   33.7380   41.1370 C   0  0  0  0  0  0  0  0  0  0  0  0
   46.9660   34.7190   42.0490 C   0  0  0  0  0  0  0  0  0  0  0  0
   48.0080   35.5260   41.7330 C   0  0  0  0  0  0  0  0  0  0  0  0
   48.7160   35.3870   40.5530 C   0  0  0  0  0  0  0  0  0  0  0  0
   48.3760   34.4080   39.6550 C   0  0  0  0  0  0  0  0  0  0  0  0
   47.3070   33.5500   39.9390 C   0  0  0  0  0  0  0  0  0  0  0  0
   48.2860   36.3010   42.4300 H   0  0  0  0  0  0  0  0  0  0  0  0
   49.5390   36.0600   40.3520 H   0  0  0  0  0  0  0  0  0  0  0  0
   48.8950   34.2560   38.7210 H   0  0  0  0  0  0  0  0  0  0  0  0
   44.5250   35.8820   44.6860 C   0  0  0  0  0  0  0  0  0  0  0  0
   45.2660   35.8070   43.5050 C   0  0  0  0  0  0  0  0  0  0  0  0
   46.1890   34.8140   43.2640 C   0  0  0  0  0  0  0  0  0  0  0  0
   46.3200   33.9080   44.2710 N   0  0  0  0  0  0  0  0  0  0  0  0
   45.6170   33.9550   45.4220 C   0  0  0  0  0  0  0  0  0  0  0  0
   44.7170   34.9470   45.6270 N   0  0  0  0  0  0  0  0  0  0  0  0
   43.8140   36.6740   44.8330 H   0  0  0  0  0  0  0  0  0  0  0  0
   45.1170   36.5510   42.7500 H   0  0  0  0  0  0  0  0  0  0  0  0
   45.8590   33.1470   46.1040 H   0  0  0  0  0  0  0  0  0  0  0  0
   45.5670   32.8750   41.4120 O   0  0  0  0  0  0  0  0  0  0  0  0
   45.8220   32.0310   41.9300 H   0  0  0  0  0  0  0  0  0  0  0  0
   46.9110   32.5500   39.0910 O   0  0  0  0  0  0  0  0  0  0  0  0
   47.1220   32.5160   37.7660 C   0  0  0  0  0  0  0  0  0  0  0  0
   46.2190   32.4340   36.7280 C   0  0  0  0  0  0  0  0  0  0  0  0
   46.6570   32.4140   35.4500 C   0  0  0  0  0  0  0  0  0  0  0  0
   48.0620   32.4820   35.2490 C   0  0  0  0  0  0  0  0  0  0  0  0
   48.7260   32.5730   36.9350 S   0  0  0  0  0  0  0  0  0  0  0  0
   45.1580   32.3850   36.9290 H   0  0  0  0  0  0  0  0  0  0  0  0
   46.1240   32.3560   34.5380 H   0  0  0  0  0  0  0  0  0  0  0  0
   48.9980   32.4920   34.1080 C   0  0  0  0  0  0  0  0  0  0  0  0
   48.2460   32.7750   32.8250 C   0  0  0  0  0  0  0  0  0  0  0  0
   49.2730   32.8830   31.6970 C   0  0  0  0  0  0  0  0  0  0  0  0
   49.9890   31.5410   31.5850 C   0  0  0  0  0  0  0  0  0  0  0  0
   50.7600   31.3520   32.8500 C   0  0  0  0  0  0  0  0  0  0  0  0
   49.8070   31.2040   33.9950 C   0  0  0  0  0  0  0  0  0  0  0  0
  1 19  1  0  0  0  0
  1  2  1  0  0  0  0
  2 12  1  0  0  0  0
  3  2  2  0  0  0  0
  3  7  1  0  0  0  0
  4  3  1  0  0  0  0
  5  6  1  0  0  0  0
  5  4  2  0  0  0  0
  6  1  2  0  0  0  0
  8  4  1  0  0  0  0
  9  5  1  0  0  0  0
 10 16  1  0  0  0  0
 10 15  1  0  0  0  0
 11 10  2  0  0  0  0
 12 11  1  0  0  0  0
 12 13  2  0  0  0  0
 13 14  1  0  0  0  0
 14 15  2  0  0  0  0
 14 18  1  0  0  0  0
 17 11  1  0  0  0  0
 19 20  1  0  0  0  0
 21  6  1  0  0  0  0
 22 21  1  0  0  0  0
 23 27  1  0  0  0  0
 23 22  2  0  0  0  0
 24 23  1  0  0  0  0
 25 24  2  0  0  0  0
 25 26  1  0  0  0  0
 26 22  1  0  0  0  0
 28 24  1  0  0  0  0
 29 25  1  0  0  0  0
 30 29  1  0  0  0  0
 31 30  1  0  0  0  0
 32 31  1  0  0  0  0
 32 33  1  0  0  0  0
 33 34  1  0  0  0  0
 34 29  1  0  0  0  0
M  END
>  <minimizedAffinity>
-6.53181648

>  <minimizedRMSD>
1.28279603

$$$$
