
 OpenBabel03242516253D

 40 44  0  0  0  0  0  0  0  0999 V2000
   48.9440   30.0430   48.1900 S   0  0  0  0  0  0  0  0  0  0  0  0
   49.8560   30.3530   49.6260 C   0  0  0  0  0  0  0  0  0  0  0  0
   50.0520   31.5940   50.1270 N   0  0  0  0  0  0  0  0  0  0  0  0
   50.7530   31.8630   51.2330 C   0  0  0  0  0  0  0  0  0  0  0  0
   51.2950   30.8120   51.8810 N   0  0  0  0  0  0  0  0  0  0  0  0
   51.1550   29.5510   51.4590 C   0  0  0  0  0  0  0  0  0  0  0  0
   51.7290   28.4880   52.1310 C   0  0  0  0  0  0  0  0  0  0  0  0
   51.5770   27.1980   51.6580 C   0  0  0  0  0  0  0  0  0  0  0  0
   50.8500   26.9470   50.5090 C   0  0  0  0  0  0  0  0  0  0  0  0
   50.2720   28.0150   49.8320 C   0  0  0  0  0  0  0  0  0  0  0  0
   50.4220   29.3080   50.3060 C   0  0  0  0  0  0  0  0  0  0  0  0
   50.8310   32.9000   51.5220 H   0  0  0  0  0  0  0  0  0  0  0  0
   52.2730   28.7930   53.0140 H   0  0  0  0  0  0  0  0  0  0  0  0
   52.0970   26.5130   52.3220 H   0  0  0  0  0  0  0  0  0  0  0  0
   50.8920   25.8970   50.3840 H   0  0  0  0  0  0  0  0  0  0  0  0
   49.6140   27.5710   48.5880 C   0  0  0  0  0  0  0  0  0  0  0  0
   50.7270   27.0870   47.5770 C   0  0  0  0  0  0  0  0  0  0  0  0
   50.0260   26.8150   46.2370 C   0  0  0  0  0  0  0  0  0  0  0  0
   49.3960   25.4560   46.3820 C   0  0  0  0  0  0  0  0  0  0  0  0
   49.1670   25.1770   47.8220 C   0  0  0  0  0  0  0  0  0  0  0  0
   48.7750   26.3700   48.6640 C   0  0  0  0  0  0  0  0  0  0  0  0
   46.1190   32.6200   46.9750 C   0  0  0  0  0  0  0  0  0  0  0  0
   47.2540   31.8300   47.0490 C   0  0  0  0  0  0  0  0  0  0  0  0
   47.4600   30.9950   48.1260 C   0  0  0  0  0  0  0  0  0  0  0  0
   46.5290   30.9350   49.1500 C   0  0  0  0  0  0  0  0  0  0  0  0
   45.4120   31.6990   49.0990 C   0  0  0  0  0  0  0  0  0  0  0  0
   45.2280   32.5270   48.0120 C   0  0  0  0  0  0  0  0  0  0  0  0
   47.9750   31.8840   46.2420 H   0  0  0  0  0  0  0  0  0  0  0  0
   46.7240   30.2640   49.9830 H   0  0  0  0  0  0  0  0  0  0  0  0
   44.6890   31.6460   49.9030 H   0  0  0  0  0  0  0  0  0  0  0  0
   44.3270   33.1380   47.9780 H   0  0  0  0  0  0  0  0  0  0  0  0
   44.7240   35.3200   44.9500 C   0  0  0  0  0  0  0  0  0  0  0  0
   45.4620   35.2530   43.7450 C   0  0  0  0  0  0  0  0  0  0  0  0
   46.4340   34.2770   43.6360 C   0  0  0  0  0  0  0  0  0  0  0  0
   46.6640   33.4100   44.6680 N   0  0  0  0  0  0  0  0  0  0  0  0
   45.9270   33.5110   45.8150 C   0  0  0  0  0  0  0  0  0  0  0  0
   44.9620   34.4650   45.9490 N   0  0  0  0  0  0  0  0  0  0  0  0
   43.9650   36.1030   45.0010 H   0  0  0  0  0  0  0  0  0  0  0  0
   45.3270   35.8990   42.9090 H   0  0  0  0  0  0  0  0  0  0  0  0
   47.0730   34.1030   42.7840 H   0  0  0  0  0  0  0  0  0  0  0  0
  1  2  1  0  0  0  0
  2  3  2  0  0  0  0
  2 11  1  0  0  0  0
  3  4  1  0  0  0  0
  4 12  1  0  0  0  0
  4  5  2  0  0  0  0
  6  5  1  0  0  0  0
  6  7  1  0  0  0  0
  7 13  1  0  0  0  0
  8  7  2  0  0  0  0
  8 14  1  0  0  0  0
  9  8  1  0  0  0  0
 10 11  1  0  0  0  0
 10  9  2  0  0  0  0
 11  6  2  0  0  0  0
 15  9  1  0  0  0  0
 16 21  1  0  0  0  0
 16 10  1  0  0  0  0
 17 16  1  0  0  0  0
 18 19  1  0  0  0  0
 18 17  1  0  0  0  0
 19 20  1  0  0  0  0
 20 21  1  0  0  0  0
 22 23  2  0  0  0  0
 22 27  1  0  0  0  0
 23 24  1  0  0  0  0
 24  1  1  0  0  0  0
 24 25  2  0  0  0  0
 25 29  1  0  0  0  0
 26 25  1  0  0  0  0
 26 30  1  0  0  0  0
 27 26  2  0  0  0  0
 28 23  1  0  0  0  0
 31 27  1  0  0  0  0
 32 38  1  0  0  0  0
 32 37  1  0  0  0  0
 33 32  2  0  0  0  0
 34 33  1  0  0  0  0
 34 35  2  0  0  0  0
 35 36  1  0  0  0  0
 36 37  2  0  0  0  0
 36 22  1  0  0  0  0
 39 33  1  0  0  0  0
 40 34  1  0  0  0  0
M  END
>  <minimizedAffinity>
-6.64479208

>  <minimizedRMSD>
0.336241841

$$$$
