
 OpenBabel03242510093D

 25 27  0  0  1  0  0  0  0  0999 V2000
   44.7010   33.0700   41.1550 Br  0  0  0  0  0  0  0  0  0  0  0  0
   46.3820   33.9770   40.9220 C   0  0  0  0  0  0  0  0  0  0  0  0
   46.8850   34.7620   41.9280 C   0  0  0  0  0  0  0  0  0  0  0  0
   48.0980   35.4160   41.7570 C   0  0  0  0  0  0  0  0  0  0  0  0
   48.7790   35.2690   40.5860 C   0  0  0  0  0  0  0  0  0  0  0  0
   48.2260   34.4640   39.6000 C   0  0  0  0  0  0  0  0  0  0  0  0
   47.0490   33.8110   39.7260 C   0  0  0  0  0  0  0  0  0  0  0  0
   48.4900   36.0360   42.5610 H   0  0  0  0  0  0  0  0  0  0  0  0
   49.7180   35.7720   40.4480 H   0  0  0  0  0  0  0  0  0  0  0  0
   48.8230   34.3950   38.6950 H   0  0  0  0  0  0  0  0  0  0  0  0
   45.6220   34.0600   45.2830 C   0  0  0  0  0  0  0  0  0  0  0  0
   44.6990   35.1050   45.5190 C   0  0  0  0  0  0  0  0  0  0  0  0
   44.5360   36.0380   44.4980 C   0  0  0  0  0  0  0  0  0  0  0  0
   45.2530   35.9050   43.3470 N   0  0  0  0  0  0  0  0  0  0  0  0
   46.1280   34.8910   43.1600 C   0  0  0  0  0  0  0  0  0  0  0  0
   46.3040   33.9700   44.1390 N   0  0  0  0  0  0  0  0  0  0  0  0
   45.8080   33.2910   46.0280 H   0  0  0  0  0  0  0  0  0  0  0  0
   44.1630   35.1500   46.4560 H   0  0  0  0  0  0  0  0  0  0  0  0
   43.8370   36.8580   44.6350 H   0  0  0  0  0  0  0  0  0  0  0  0
   46.5030   32.9500   38.6130 C   0  0  2  0  0  0  0  0  0  0  0  0
   46.9660   31.5340   38.7590 C   0  0  0  0  0  0  0  0  0  0  0  0
   47.3800   30.8060   37.5500 C   0  0  0  0  0  0  0  0  0  0  0  0
   47.1690   31.5050   36.2360 C   0  0  0  0  0  0  0  0  0  0  0  0
   47.7470   32.9110   36.4330 C   0  0  0  0  0  0  0  0  0  0  0  0
   46.7140   33.5960   37.2970 C   0  0  0  0  0  0  0  0  0  0  0  0
  2  1  1  0  0  0  0
  2  3  1  0  0  0  0
  3 15  1  0  0  0  0
  4  3  2  0  0  0  0
  4  8  1  0  0  0  0
  5  4  1  0  0  0  0
  6  7  1  0  0  0  0
  6  5  2  0  0  0  0
  7  2  2  0  0  0  0
  9  5  1  0  0  0  0
 10  6  1  0  0  0  0
 11 12  1  0  0  0  0
 11 17  1  0  0  0  0
 12 18  1  0  0  0  0
 13 19  1  0  0  0  0
 13 12  2  0  0  0  0
 14 13  1  0  0  0  0
 15 14  2  0  0  0  0
 15 16  1  0  0  0  0
 16 11  2  0  0  0  0
 20 21  1  0  0  0  0
 20  7  1  1  0  0  0
 22 21  2  0  0  0  0
 23 24  1  0  0  0  0
 23 22  1  0  0  0  0
 24 25  1  0  0  0  0
 25 20  1  0  0  0  0
M  END
>  <minimizedAffinity>
-5.58372498

>  <minimizedRMSD>
0.312588274

$$$$
