
 OpenBabel03252506573D

 35 39  0  0  0  0  0  0  0  0999 V2000
   47.0960   31.1670   45.1890 C   0  0  0  0  0  0  0  0  0  0  0  0
   46.8850   32.5330   45.1700 C   0  0  0  0  0  0  0  0  0  0  0  0
   46.3730   33.2380   46.2460 C   0  0  0  0  0  0  0  0  0  0  0  0
   46.0480   32.5610   47.4160 C   0  0  0  0  0  0  0  0  0  0  0  0
   45.5430   32.9040   48.6340 N   0  0  0  0  0  0  0  0  0  0  0  0
   45.4460   31.7790   49.3820 C   0  0  0  0  0  0  0  0  0  0  0  0
   45.8920   30.7540   48.6210 N   0  0  0  0  0  0  0  0  0  0  0  0
   46.2640   31.2070   47.4200 C   0  0  0  0  0  0  0  0  0  0  0  0
   46.7680   30.4890   46.3690 C   0  0  0  0  0  0  0  0  0  0  0  0
   47.4930   30.6490   44.3400 H   0  0  0  0  0  0  0  0  0  0  0  0
   46.2140   34.2980   46.2190 H   0  0  0  0  0  0  0  0  0  0  0  0
   45.2910   33.9020   48.8830 H   0  0  0  0  0  0  0  0  0  0  0  0
   45.0710   31.7760   50.3970 H   0  0  0  0  0  0  0  0  0  0  0  0
   46.7550   35.0190   42.4530 C   0  0  0  0  0  0  0  0  0  0  0  0
   47.8370   34.6650   41.6630 C   0  0  0  0  0  0  0  0  0  0  0  0
   48.6170   33.5720   42.0570 C   0  0  0  0  0  0  0  0  0  0  0  0
   48.2730   32.9070   43.2030 N   0  0  0  0  0  0  0  0  0  0  0  0
   47.2180   33.2740   43.9480 C   0  0  0  0  0  0  0  0  0  0  0  0
   46.4540   34.3260   43.5840 N   0  0  0  0  0  0  0  0  0  0  0  0
   46.1170   35.8690   42.1830 H   0  0  0  0  0  0  0  0  0  0  0  0
   48.0800   35.2060   40.7720 H   0  0  0  0  0  0  0  0  0  0  0  0
   49.4770   33.2520   41.4720 H   0  0  0  0  0  0  0  0  0  0  0  0
   46.9640   29.0320   46.4690 C   0  0  0  0  0  0  0  0  0  0  0  0
   48.1870   28.3990   46.2710 C   0  0  0  0  0  0  0  0  0  0  0  0
   47.8730   27.0400   46.4680 C   0  0  0  0  0  0  0  0  0  0  0  0
   46.5250   26.9430   46.7640 C   0  0  0  0  0  0  0  0  0  0  0  0
   46.0330   28.1700   46.7490 O   0  0  0  0  0  0  0  0  0  0  0  0
   49.1520   28.8270   46.0250 H   0  0  0  0  0  0  0  0  0  0  0  0
   48.5700   26.2170   46.4010 H   0  0  0  0  0  0  0  0  0  0  0  0
   45.7200   25.7120   47.0530 C   0  0  0  0  0  3  0  0  0  0  0  0
   45.0270   25.8020   48.3810 C   0  0  0  0  0  2  0  0  0  0  0  0
   45.7820   25.0930   49.4820 C   0  0  0  0  0  2  0  0  0  0  0  0
   45.8930   23.6160   49.1950 C   0  0  0  0  0  2  0  0  0  0  0  0
   46.0010   23.3550   47.7220 C   0  0  0  0  0  2  0  0  0  0  0  0
   46.5940   24.4960   46.9380 C   0  0  0  0  0  2  0  0  0  0  0  0
  1  9  1  0  0  0  0
  2  1  2  0  0  0  0
  2  3  1  0  0  0  0
  3  4  2  0  0  0  0
  4  8  1  0  0  0  0
  4  5  1  0  0  0  0
  5 12  1  0  0  0  0
  5  6  1  0  0  0  0
  6 13  1  0  0  0  0
  7  6  2  0  0  0  0
  8  7  1  0  0  0  0
  9 23  1  0  0  0  0
  9  8  2  0  0  0  0
 10  1  1  0  0  0  0
 11  3  1  0  0  0  0
 14 19  1  0  0  0  0
 15 16  1  0  0  0  0
 15 14  2  0  0  0  0
 16 17  2  0  0  0  0
 17 18  1  0  0  0  0
 18  2  1  0  0  0  0
 19 18  2  0  0  0  0
 20 14  1  0  0  0  0
 21 15  1  0  0  0  0
 22 16  1  0  0  0  0
 23 27  1  0  0  0  0
 24 25  1  0  0  0  0
 24 23  2  0  0  0  0
 25 26  2  0  0  0  0
 26 30  1  0  0  0  0
 27 26  1  0  0  0  0
 28 24  1  0  0  0  0
 29 25  1  0  0  0  0
 30 31  1  0  0  0  0
 31 32  1  0  0  0  0
 33 32  1  0  0  0  0
 34 33  1  0  0  0  0
 35 30  1  0  0  0  0
 35 34  1  0  0  0  0
M  END
>  <minimizedAffinity>
-5.78011894

>  <minimizedRMSD>
0.759862721

$$$$
