
 OpenBabel03242523153D

 22 24  0  0  0  0  0  0  0  0999 V2000
   37.1190   29.6240   40.3670 C   0  0  0  0  0  0  0  0  0  0  0  0
   37.0070   30.8200   39.6580 C   0  0  0  0  0  0  0  0  0  0  0  0
   36.9850   30.7160   38.2760 C   0  0  0  0  0  0  0  0  0  0  0  0
   37.0730   29.4660   37.6810 N   0  0  0  0  0  0  0  0  0  0  0  0
   37.1830   28.3360   38.4260 C   0  0  0  0  0  0  0  0  0  0  0  0
   37.2050   28.4320   39.7910 N   0  0  0  0  0  0  0  0  0  0  0  0
   36.8980   31.6150   37.6810 H   0  0  0  0  0  0  0  0  0  0  0  0
   37.2390   27.4780   37.7740 H   0  0  0  0  0  0  0  0  0  0  0  0
   37.0190   32.1530   40.2930 C   0  0  0  0  0  0  0  0  0  0  0  0
   38.2280   32.8720   40.5350 C   0  0  0  0  0  0  0  0  0  0  0  0
   37.3830   33.3790   39.4080 C   0  0  0  0  0  0  0  0  0  0  0  0
   35.9900   32.3700   40.7200 H   0  0  0  0  0  0  0  0  0  0  0  0
   38.3080   33.5710   41.4220 H   0  0  0  0  0  0  0  0  0  0  0  0
   39.2540   32.6240   40.1400 H   0  0  0  0  0  0  0  0  0  0  0  0
   37.6230   33.1130   38.3690 H   0  0  0  0  0  0  0  0  0  0  0  0
   36.7340   34.2360   39.5370 H   0  0  0  0  0  0  0  0  0  0  0  0
   37.0340   29.4140   41.8320 C   0  0  0  0  0  3  0  0  0  0  0  0
   36.5380   27.9690   42.1090 C   0  0  0  0  0  2  0  0  0  0  0  0
   36.9110   27.5530   43.4970 C   0  0  0  0  0  2  0  0  0  0  0  0
   38.4030   27.3980   43.6790 C   0  0  0  0  0  2  0  0  0  0  0  0
   39.1070   28.3420   42.7310 C   0  0  0  0  0  2  0  0  0  0  0  0
   38.3290   29.6290   42.5490 C   0  0  0  0  0  2  0  0  0  0  0  0
  1 17  1  0  0  0  0
  2  9  1  0  0  0  0
  2  1  2  0  0  0  0
  3  2  1  0  0  0  0
  4  3  2  0  0  0  0
  4  5  1  0  0  0  0
  5  6  2  0  0  0  0
  6  1  1  0  0  0  0
  7  3  1  0  0  0  0
  8  5  1  0  0  0  0
  9 10  1  0  0  0  0
  9 12  1  0  0  0  0
 10 13  1  0  0  0  0
 11 16  1  0  0  0  0
 11  9  1  0  0  0  0
 11 10  1  0  0  0  0
 14 10  1  0  0  0  0
 15 11  1  0  0  0  0
 17 18  1  0  0  0  0
 17 22  1  0  0  0  0
 18 19  1  0  0  0  0
 19 20  1  0  0  0  0
 21 20  1  0  0  0  0
 22 21  1  0  0  0  0
M  END
>  <minimizedAffinity>
-4.8091135

$$$$

 OpenBabel03242523153D

 22 24  0  0  0  0  0  0  0  0999 V2000
   38.5700   30.4340   41.9130 C   0  0  0  0  0  0  0  0  0  0  0  0
   38.5100   31.5120   41.0300 C   0  0  0  0  0  0  0  0  0  0  0  0
   39.6810   32.2330   40.8570 C   0  0  0  0  0  0  0  0  0  0  0  0
   40.8240   31.8600   41.5500 N   0  0  0  0  0  0  0  0  0  0  0  0
   40.8210   30.8000   42.3990 C   0  0  0  0  0  0  0  0  0  0  0  0
   39.6670   30.0850   42.5740 N   0  0  0  0  0  0  0  0  0  0  0  0
   39.6850   33.0770   40.1820 H   0  0  0  0  0  0  0  0  0  0  0  0
   41.8010   30.6820   42.8340 H   0  0  0  0  0  0  0  0  0  0  0  0
   37.2660   31.9670   40.3770 C   0  0  0  0  0  0  0  0  0  0  0  0
   37.2710   32.8580   39.2630 C   0  0  0  0  0  0  0  0  0  0  0  0
   36.9510   31.4300   38.9530 C   0  0  0  0  0  0  0  0  0  0  0  0
   36.3790   31.6770   41.0240 H   0  0  0  0  0  0  0  0  0  0  0  0
   36.4150   33.5830   39.1080 H   0  0  0  0  0  0  0  0  0  0  0  0
   38.1650   33.1740   38.6530 H   0  0  0  0  0  0  0  0  0  0  0  0
   37.7270   30.7590   38.5580 H   0  0  0  0  0  0  0  0  0  0  0  0
   35.9280   31.1030   38.8100 H   0  0  0  0  0  0  0  0  0  0  0  0
   37.5300   29.4150   42.1910 C   0  0  0  0  0  3  0  0  0  0  0  0
   37.5550   28.3450   41.0660 C   0  0  0  0  0  2  0  0  0  0  0  0
   36.9140   27.0800   41.5420 C   0  0  0  0  0  2  0  0  0  0  0  0
   37.7110   26.3930   42.6260 C   0  0  0  0  0  2  0  0  0  0  0  0
   38.4750   27.4420   43.4030 C   0  0  0  0  0  2  0  0  0  0  0  0
   37.6910   28.7340   43.5120 C   0  0  0  0  0  2  0  0  0  0  0  0
  1 17  1  0  0  0  0
  1  6  1  0  0  0  0
  2  1  2  0  0  0  0
  3  2  1  0  0  0  0
  3  4  2  0  0  0  0
  4  5  1  0  0  0  0
  5  6  2  0  0  0  0
  5  8  1  0  0  0  0
  7  3  1  0  0  0  0
  9 12  1  0  0  0  0
  9  2  1  0  0  0  0
 10  9  1  0  0  0  0
 11 10  1  0  0  0  0
 11  9  1  0  0  0  0
 13 10  1  0  0  0  0
 14 10  1  0  0  0  0
 15 11  1  0  0  0  0
 16 11  1  0  0  0  0
 17 22  1  0  0  0  0
 18 19  1  0  0  0  0
 18 17  1  0  0  0  0
 19 20  1  0  0  0  0
 20 21  1  0  0  0  0
 21 22  1  0  0  0  0
M  END
>  <minimizedAffinity>
-4.6416378

$$$$

 OpenBabel03242523153D

 22 24  0  0  0  0  0  0  0  0999 V2000
   36.7710   29.3670   41.1690 C   0  0  0  0  0  0  0  0  0  0  0  0
   36.1020   29.6720   39.9840 C   0  0  0  0  0  0  0  0  0  0  0  0
   36.4990   30.8300   39.3330 C   0  0  0  0  0  0  0  0  0  0  0  0
   37.5110   31.6080   39.8760 N   0  0  0  0  0  0  0  0  0  0  0  0
   38.1250   31.2600   41.0360 C   0  0  0  0  0  0  0  0  0  0  0  0
   37.7380   30.1170   41.6820 N   0  0  0  0  0  0  0  0  0  0  0  0
   36.0100   31.1090   38.4100 H   0  0  0  0  0  0  0  0  0  0  0  0
   38.8760   31.9940   41.2820 H   0  0  0  0  0  0  0  0  0  0  0  0
   34.9560   28.8970   39.4680 C   0  0  0  0  0  0  0  0  0  0  0  0
   34.4560   29.0660   38.1420 C   0  0  0  0  0  0  0  0  0  0  0  0
   35.2350   27.8120   38.3900 C   0  0  0  0  0  0  0  0  0  0  0  0
   34.4520   28.3590   40.3310 H   0  0  0  0  0  0  0  0  0  0  0  0
   33.3560   28.9080   37.9220 H   0  0  0  0  0  0  0  0  0  0  0  0
   34.9430   29.6390   37.3020 H   0  0  0  0  0  0  0  0  0  0  0  0
   36.2930   27.7470   38.0990 H   0  0  0  0  0  0  0  0  0  0  0  0
   34.7340   26.8670   38.5620 H   0  0  0  0  0  0  0  0  0  0  0  0
   36.6590   28.1430   41.9970 C   0  0  0  0  0  3  0  0  0  0  0  0
   37.3220   26.9580   41.2440 C   0  0  0  0  0  2  0  0  0  0  0  0
   37.6820   25.8710   42.2070 C   0  0  0  0  0  2  0  0  0  0  0  0
   38.7830   26.2740   43.1590 C   0  0  0  0  0  2  0  0  0  0  0  0
   38.7160   27.7700   43.3710 C   0  0  0  0  0  2  0  0  0  0  0  0
   37.2860   28.2710   43.3490 C   0  0  0  0  0  2  0  0  0  0  0  0
  1  6  1  0  0  0  0
  1 17  1  0  0  0  0
  2  1  2  0  0  0  0
  3  4  2  0  0  0  0
  3  2  1  0  0  0  0
  4  5  1  0  0  0  0
  5  8  1  0  0  0  0
  5  6  2  0  0  0  0
  7  3  1  0  0  0  0
  9  2  1  0  0  0  0
  9 12  1  0  0  0  0
 10 11  1  0  0  0  0
 10  9  1  0  0  0  0
 11 16  1  0  0  0  0
 11  9  1  0  0  0  0
 13 10  1  0  0  0  0
 14 10  1  0  0  0  0
 15 11  1  0  0  0  0
 17 22  1  0  0  0  0
 18 17  1  0  0  0  0
 18 19  1  0  0  0  0
 19 20  1  0  0  0  0
 20 21  1  0  0  0  0
 22 21  1  0  0  0  0
M  END
>  <minimizedAffinity>
-4.55314589

$$$$

 OpenBabel03242523153D

 22 24  0  0  0  0  0  0  0  0999 V2000
   38.1070   30.5740   41.5040 C   0  0  0  0  0  0  0  0  0  0  0  0
   36.9660   30.4390   40.7140 C   0  0  0  0  0  0  0  0  0  0  0  0
   36.7150   31.4620   39.8140 C   0  0  0  0  0  0  0  0  0  0  0  0
   37.5850   32.5410   39.7450 N   0  0  0  0  0  0  0  0  0  0  0  0
   38.6810   32.6180   40.5430 C   0  0  0  0  0  0  0  0  0  0  0  0
   38.9330   31.6100   41.4330 N   0  0  0  0  0  0  0  0  0  0  0  0
   35.8430   31.4030   39.1780 H   0  0  0  0  0  0  0  0  0  0  0  0
   39.2180   33.5300   40.3330 H   0  0  0  0  0  0  0  0  0  0  0  0
   35.9900   29.3410   40.8660 C   0  0  0  0  0  0  0  0  0  0  0  0
   34.8390   29.2220   40.0310 C   0  0  0  0  0  0  0  0  0  0  0  0
   35.9430   28.2480   39.7620 C   0  0  0  0  0  0  0  0  0  0  0  0
   36.1950   28.7930   41.8400 H   0  0  0  0  0  0  0  0  0  0  0  0
   33.8850   28.7630   40.4350 H   0  0  0  0  0  0  0  0  0  0  0  0
   34.6240   29.8020   39.0890 H   0  0  0  0  0  0  0  0  0  0  0  0
   36.6530   28.4250   38.9420 H   0  0  0  0  0  0  0  0  0  0  0  0
   35.8960   27.2320   40.1340 H   0  0  0  0  0  0  0  0  0  0  0  0
   38.6950   29.5890   42.4440 C   0  0  0  0  0  3  0  0  0  0  0  0
   37.5500   28.7980   43.1320 C   0  0  0  0  0  2  0  0  0  0  0  0
   38.0700   27.5040   43.6730 C   0  0  0  0  0  2  0  0  0  0  0  0
   38.4880   26.5410   42.5870 C   0  0  0  0  0  2  0  0  0  0  0  0
   38.9410   27.3370   41.3830 C   0  0  0  0  0  2  0  0  0  0  0  0
   39.6320   28.6210   41.7940 C   0  0  0  0  0  2  0  0  0  0  0  0
  1 17  1  0  0  0  0
  2  9  1  0  0  0  0
  2  1  2  0  0  0  0
  3  2  1  0  0  0  0
  4  3  2  0  0  0  0
  4  5  1  0  0  0  0
  5  6  2  0  0  0  0
  6  1  1  0  0  0  0
  7  3  1  0  0  0  0
  8  5  1  0  0  0  0
  9 12  1  0  0  0  0
 10 13  1  0  0  0  0
 10  9  1  0  0  0  0
 11 10  1  0  0  0  0
 11 16  1  0  0  0  0
 11  9  1  0  0  0  0
 14 10  1  0  0  0  0
 15 11  1  0  0  0  0
 17 18  1  0  0  0  0
 18 19  1  0  0  0  0
 20 19  1  0  0  0  0
 21 22  1  0  0  0  0
 21 20  1  0  0  0  0
 22 17  1  0  0  0  0
M  END
>  <minimizedAffinity>
-4.50554085

$$$$

 OpenBabel03242523153D

 22 24  0  0  0  0  0  0  0  0999 V2000
   38.4970   29.8460   41.6040 C   0  0  0  0  0  0  0  0  0  0  0  0
   38.3370   28.6270   42.2620 C   0  0  0  0  0  0  0  0  0  0  0  0
   39.4660   28.1010   42.8690 C   0  0  0  0  0  0  0  0  0  0  0  0
   40.6670   28.7920   42.7960 N   0  0  0  0  0  0  0  0  0  0  0  0
   40.7630   29.9760   42.1380 C   0  0  0  0  0  0  0  0  0  0  0  0
   39.6500   30.4990   41.5370 N   0  0  0  0  0  0  0  0  0  0  0  0
   39.3920   27.1580   43.3930 H   0  0  0  0  0  0  0  0  0  0  0  0
   41.7750   30.3420   42.1990 H   0  0  0  0  0  0  0  0  0  0  0  0
   37.0830   27.8470   42.2470 C   0  0  0  0  0  0  0  0  0  0  0  0
   37.0230   26.4890   42.6790 C   0  0  0  0  0  0  0  0  0  0  0  0
   36.4250   27.4960   43.6110 C   0  0  0  0  0  0  0  0  0  0  0  0
   36.2970   28.4190   41.6590 H   0  0  0  0  0  0  0  0  0  0  0  0
   36.2810   25.7730   42.2120 H   0  0  0  0  0  0  0  0  0  0  0  0
   37.8260   25.9170   43.2250 H   0  0  0  0  0  0  0  0  0  0  0  0
   36.9960   27.8600   44.4770 H   0  0  0  0  0  0  0  0  0  0  0  0
   35.3550   27.6560   43.6510 H   0  0  0  0  0  0  0  0  0  0  0  0
   37.4550   30.7020   40.9900 C   0  0  0  0  0  3  0  0  0  0  0  0
   38.0470   32.1130   40.7280 C   0  0  0  0  0  2  0  0  0  0  0  0
   37.2420   32.8260   39.6870 C   0  0  0  0  0  2  0  0  0  0  0  0
   37.3620   32.1930   38.3210 C   0  0  0  0  0  2  0  0  0  0  0  0
   37.6250   30.7130   38.4940 C   0  0  0  0  0  2  0  0  0  0  0  0
   36.9070   30.1600   39.7080 C   0  0  0  0  0  2  0  0  0  0  0  0
  1  2  1  0  0  0  0
  2  3  2  0  0  0  0
  3  7  1  0  0  0  0
  4  3  1  0  0  0  0
  5  8  1  0  0  0  0
  5  4  2  0  0  0  0
  6  1  2  0  0  0  0
  6  5  1  0  0  0  0
  9  2  1  0  0  0  0
  9 10  1  0  0  0  0
  9 11  1  0  0  0  0
 10 14  1  0  0  0  0
 10 11  1  0  0  0  0
 11 16  1  0  0  0  0
 11 15  1  0  0  0  0
 12  9  1  0  0  0  0
 13 10  1  0  0  0  0
 17  1  1  0  0  0  0
 18 17  1  0  0  0  0
 19 18  1  0  0  0  0
 20 21  1  0  0  0  0
 20 19  1  0  0  0  0
 21 22  1  0  0  0  0
 22 17  1  0  0  0  0
M  END
>  <minimizedAffinity>
-4.44527245

$$$$

 OpenBabel03242523153D

 22 24  0  0  0  0  0  0  0  0999 V2000
   38.3080   29.4680   40.6510 C   0  0  0  0  0  0  0  0  0  0  0  0
   37.8750   28.2430   41.1570 C   0  0  0  0  0  0  0  0  0  0  0  0
   38.4100   27.1090   40.5670 C   0  0  0  0  0  0  0  0  0  0  0  0
   39.3240   27.2420   39.5320 N   0  0  0  0  0  0  0  0  0  0  0  0
   39.7070   28.4640   39.0800 C   0  0  0  0  0  0  0  0  0  0  0  0
   39.1820   29.5870   39.6590 N   0  0  0  0  0  0  0  0  0  0  0  0
   38.1060   26.1350   40.9260 H   0  0  0  0  0  0  0  0  0  0  0  0
   40.4170   28.3460   38.2760 H   0  0  0  0  0  0  0  0  0  0  0  0
   36.8250   28.1080   42.1870 C   0  0  0  0  0  0  0  0  0  0  0  0
   36.7300   26.9630   43.0330 C   0  0  0  0  0  0  0  0  0  0  0  0
   37.2490   28.2090   43.6790 C   0  0  0  0  0  0  0  0  0  0  0  0
   36.0430   28.9150   42.0280 H   0  0  0  0  0  0  0  0  0  0  0  0
   35.7210   26.6150   43.4120 H   0  0  0  0  0  0  0  0  0  0  0  0
   37.4940   26.1430   43.1520 H   0  0  0  0  0  0  0  0  0  0  0  0
   38.3300   28.3560   43.8170 H   0  0  0  0  0  0  0  0  0  0  0  0
   36.6080   28.8330   44.2890 H   0  0  0  0  0  0  0  0  0  0  0  0
   38.0180   30.8280   41.1650 C   0  0  0  0  0  3  0  0  0  0  0  0
   39.2130   31.7620   40.8310 C   0  0  0  0  0  2  0  0  0  0  0  0
   38.7750   33.1920   40.8620 C   0  0  0  0  0  2  0  0  0  0  0  0
   37.8100   33.5320   39.7510 C   0  0  0  0  0  2  0  0  0  0  0  0
   37.0270   32.2890   39.3920 C   0  0  0  0  0  2  0  0  0  0  0  0
   36.7650   31.4270   40.6100 C   0  0  0  0  0  2  0  0  0  0  0  0
  1  2  1  0  0  0  0
  1 17  1  0  0  0  0
  2  9  1  0  0  0  0
  3  7  1  0  0  0  0
  3  2  2  0  0  0  0
  4  3  1  0  0  0  0
  5  4  2  0  0  0  0
  5  6  1  0  0  0  0
  6  1  2  0  0  0  0
  8  5  1  0  0  0  0
  9 10  1  0  0  0  0
  9 11  1  0  0  0  0
 10 14  1  0  0  0  0
 10 13  1  0  0  0  0
 10 11  1  0  0  0  0
 11 15  1  0  0  0  0
 11 16  1  0  0  0  0
 12  9  1  0  0  0  0
 18 19  1  0  0  0  0
 18 17  1  0  0  0  0
 20 19  1  0  0  0  0
 21 20  1  0  0  0  0
 21 22  1  0  0  0  0
 22 17  1  0  0  0  0
M  END
>  <minimizedAffinity>
-4.42216587

$$$$

 OpenBabel03242523153D

 22 24  0  0  0  0  0  0  0  0999 V2000
   36.7590   27.3440   40.0050 C   0  0  0  0  0  0  0  0  0  0  0  0
   36.6240   28.0440   41.2030 C   0  0  0  0  0  0  0  0  0  0  0  0
   35.8430   29.1890   41.1630 C   0  0  0  0  0  0  0  0  0  0  0  0
   35.2510   29.5720   39.9690 N   0  0  0  0  0  0  0  0  0  0  0  0
   35.4210   28.8500   38.8320 C   0  0  0  0  0  0  0  0  0  0  0  0
   36.1910   27.7190   38.8660 N   0  0  0  0  0  0  0  0  0  0  0  0
   35.7080   29.7660   42.0680 H   0  0  0  0  0  0  0  0  0  0  0  0
   34.8820   29.3170   38.0230 H   0  0  0  0  0  0  0  0  0  0  0  0
   37.3410   27.6890   42.4440 C   0  0  0  0  0  0  0  0  0  0  0  0
   37.2960   28.5070   43.6120 C   0  0  0  0  0  0  0  0  0  0  0  0
   36.4980   27.2420   43.6710 C   0  0  0  0  0  0  0  0  0  0  0  0
   38.0570   26.8350   42.2280 H   0  0  0  0  0  0  0  0  0  0  0  0
   38.1810   28.5460   44.3180 H   0  0  0  0  0  0  0  0  0  0  0  0
   36.6090   29.3810   43.8010 H   0  0  0  0  0  0  0  0  0  0  0  0
   35.4150   27.2580   43.4870 H   0  0  0  0  0  0  0  0  0  0  0  0
   36.8760   26.3650   44.1830 H   0  0  0  0  0  0  0  0  0  0  0  0
   37.4100   26.0320   39.7760 C   0  0  0  0  0  3  0  0  0  0  0  0
   38.7180   25.9620   40.6100 C   0  0  0  0  0  2  0  0  0  0  0  0
   39.1250   24.5370   40.8140 C   0  0  0  0  0  2  0  0  0  0  0  0
   38.1660   23.7760   41.6980 C   0  0  0  0  0  2  0  0  0  0  0  0
   36.7850   24.3740   41.5420 C   0  0  0  0  0  2  0  0  0  0  0  0
   36.5480   24.8620   40.1280 C   0  0  0  0  0  2  0  0  0  0  0  0
  1  2  1  0  0  0  0
  2  9  1  0  0  0  0
  3  2  2  0  0  0  0
  3  7  1  0  0  0  0
  4  3  1  0  0  0  0
  5  6  1  0  0  0  0
  5  4  2  0  0  0  0
  6  1  2  0  0  0  0
  8  5  1  0  0  0  0
  9 10  1  0  0  0  0
  9 11  1  0  0  0  0
 10 11  1  0  0  0  0
 10 14  1  0  0  0  0
 10 13  1  0  0  0  0
 11 16  1  0  0  0  0
 12  9  1  0  0  0  0
 15 11  1  0  0  0  0
 17  1  1  0  0  0  0
 17 22  1  0  0  0  0
 17 18  1  0  0  0  0
 18 19  1  0  0  0  0
 19 20  1  0  0  0  0
 21 20  1  0  0  0  0
 22 21  1  0  0  0  0
M  END
>  <minimizedAffinity>
-4.41835213

$$$$

 OpenBabel03242523153D

 22 24  0  0  0  0  0  0  0  0999 V2000
   37.2460   27.8830   41.2520 C   0  0  0  0  0  0  0  0  0  0  0  0
   37.9970   26.8940   41.8860 C   0  0  0  0  0  0  0  0  0  0  0  0
   38.8380   27.3170   42.9040 C   0  0  0  0  0  0  0  0  0  0  0  0
   38.8920   28.6640   43.2320 N   0  0  0  0  0  0  0  0  0  0  0  0
   38.1370   29.5820   42.5760 C   0  0  0  0  0  0  0  0  0  0  0  0
   37.3040   29.1700   41.5710 N   0  0  0  0  0  0  0  0  0  0  0  0
   39.4410   26.5870   43.4270 H   0  0  0  0  0  0  0  0  0  0  0  0
   38.3270   30.5630   42.9820 H   0  0  0  0  0  0  0  0  0  0  0  0
   38.0130   25.4800   41.4620 C   0  0  0  0  0  0  0  0  0  0  0  0
   38.3870   24.4230   42.3450 C   0  0  0  0  0  0  0  0  0  0  0  0
   36.9260   24.5320   42.0420 C   0  0  0  0  0  0  0  0  0  0  0  0
   37.9030   25.4290   40.3330 H   0  0  0  0  0  0  0  0  0  0  0  0
   38.8900   23.4920   41.9400 H   0  0  0  0  0  0  0  0  0  0  0  0
   38.5360   24.4920   43.4600 H   0  0  0  0  0  0  0  0  0  0  0  0
   36.2460   25.0270   42.7490 H   0  0  0  0  0  0  0  0  0  0  0  0
   36.4560   23.8850   41.3110 H   0  0  0  0  0  0  0  0  0  0  0  0
   36.1780   27.7160   40.2380 C   0  0  0  0  0  3  0  0  0  0  0  0
   35.2430   28.9550   40.2760 C   0  0  0  0  0  2  0  0  0  0  0  0
   34.4930   29.0760   38.9880 C   0  0  0  0  0  2  0  0  0  0  0  0
   35.3890   29.4130   37.8190 C   0  0  0  0  0  2  0  0  0  0  0  0
   36.7660   28.8480   38.0860 C   0  0  0  0  0  2  0  0  0  0  0  0
   36.6920   27.5380   38.8450 C   0  0  0  0  0  2  0  0  0  0  0  0
  1  6  2  0  0  0  0
  1  2  1  0  0  0  0
  2  3  2  0  0  0  0
  3  4  1  0  0  0  0
  3  7  1  0  0  0  0
  5  8  1  0  0  0  0
  5  4  2  0  0  0  0
  6  5  1  0  0  0  0
  9  2  1  0  0  0  0
  9 11  1  0  0  0  0
  9 10  1  0  0  0  0
 10 14  1  0  0  0  0
 11 10  1  0  0  0  0
 11 15  1  0  0  0  0
 12  9  1  0  0  0  0
 13 10  1  0  0  0  0
 16 11  1  0  0  0  0
 17 18  1  0  0  0  0
 17  1  1  0  0  0  0
 19 18  1  0  0  0  0
 20 21  1  0  0  0  0
 20 19  1  0  0  0  0
 21 22  1  0  0  0  0
 22 17  1  0  0  0  0
M  END
>  <minimizedAffinity>
-4.4152236

$$$$

 OpenBabel03242523153D

 22 24  0  0  0  0  0  0  0  0999 V2000
   36.7390   28.1450   39.7380 C   0  0  0  0  0  0  0  0  0  0  0  0
   36.9180   27.4910   40.9570 C   0  0  0  0  0  0  0  0  0  0  0  0
   37.5340   26.2510   40.9060 C   0  0  0  0  0  0  0  0  0  0  0  0
   37.9310   25.7330   39.6820 N   0  0  0  0  0  0  0  0  0  0  0  0
   37.7280   26.4160   38.5260 C   0  0  0  0  0  0  0  0  0  0  0  0
   37.1200   27.6410   38.5710 N   0  0  0  0  0  0  0  0  0  0  0  0
   37.6960   25.7050   41.8260 H   0  0  0  0  0  0  0  0  0  0  0  0
   38.1060   25.8410   37.6950 H   0  0  0  0  0  0  0  0  0  0  0  0
   36.3990   28.0000   42.2420 C   0  0  0  0  0  0  0  0  0  0  0  0
   36.6240   27.3230   43.4780 C   0  0  0  0  0  0  0  0  0  0  0  0
   37.4200   28.5720   43.2660 C   0  0  0  0  0  0  0  0  0  0  0  0
   35.6580   28.8360   42.0390 H   0  0  0  0  0  0  0  0  0  0  0  0
   35.8570   27.3820   44.3090 H   0  0  0  0  0  0  0  0  0  0  0  0
   37.3320   26.4650   43.6600 H   0  0  0  0  0  0  0  0  0  0  0  0
   38.4630   28.5160   42.9210 H   0  0  0  0  0  0  0  0  0  0  0  0
   37.1250   29.5090   43.7220 H   0  0  0  0  0  0  0  0  0  0  0  0
   36.2420   29.5200   39.4970 C   0  0  0  0  0  3  0  0  0  0  0  0
   37.2500   30.5370   40.0980 C   0  0  0  0  0  2  0  0  0  0  0  0
   37.0720   31.8790   39.4620 C   0  0  0  0  0  2  0  0  0  0  0  0
   37.4660   31.8920   38.0040 C   0  0  0  0  0  2  0  0  0  0  0  0
   37.2400   30.5110   37.4290 C   0  0  0  0  0  2  0  0  0  0  0  0
   36.0320   29.8410   38.0520 C   0  0  0  0  0  2  0  0  0  0  0  0
  1  2  1  0  0  0  0
  2  9  1  0  0  0  0
  3  2  2  0  0  0  0
  3  7  1  0  0  0  0
  4  3  1  0  0  0  0
  5  6  1  0  0  0  0
  5  4  2  0  0  0  0
  6  1  2  0  0  0  0
  8  5  1  0  0  0  0
  9 11  1  0  0  0  0
  9 10  1  0  0  0  0
 10 14  1  0  0  0  0
 10 13  1  0  0  0  0
 11 10  1  0  0  0  0
 11 16  1  0  0  0  0
 12  9  1  0  0  0  0
 15 11  1  0  0  0  0
 17  1  1  0  0  0  0
 17 18  1  0  0  0  0
 19 18  1  0  0  0  0
 20 19  1  0  0  0  0
 21 20  1  0  0  0  0
 21 22  1  0  0  0  0
 22 17  1  0  0  0  0
M  END
>  <minimizedAffinity>
-4.38252354

$$$$
