
 OpenBabel03252506563D

 35 39  0  0  0  0  0  0  0  0999 V2000
   47.3410   31.4360   45.1830 C   0  0  0  0  0  0  0  0  0  0  0  0
   46.8970   32.7450   45.1370 C   0  0  0  0  0  0  0  0  0  0  0  0
   46.2170   33.3550   46.1770 C   0  0  0  0  0  0  0  0  0  0  0  0
   45.9570   32.6370   47.3380 C   0  0  0  0  0  0  0  0  0  0  0  0
   45.3390   32.8930   48.5260 N   0  0  0  0  0  0  0  0  0  0  0  0
   45.4010   31.7710   49.2830 C   0  0  0  0  0  0  0  0  0  0  0  0
   46.0560   30.8360   48.5580 N   0  0  0  0  0  0  0  0  0  0  0  0
   46.4040   31.3410   47.3710 C   0  0  0  0  0  0  0  0  0  0  0  0
   47.0770   30.7170   46.3550 C   0  0  0  0  0  0  0  0  0  0  0  0
   47.8640   30.9920   44.3610 H   0  0  0  0  0  0  0  0  0  0  0  0
   45.8790   34.3720   46.1280 H   0  0  0  0  0  0  0  0  0  0  0  0
   44.9060   33.8330   48.7490 H   0  0  0  0  0  0  0  0  0  0  0  0
   44.9820   31.7070   50.2780 H   0  0  0  0  0  0  0  0  0  0  0  0
   46.4870   35.1770   42.3980 C   0  0  0  0  0  0  0  0  0  0  0  0
   47.6400   34.9950   41.6520 C   0  0  0  0  0  0  0  0  0  0  0  0
   48.5650   34.0370   42.0830 C   0  0  0  0  0  0  0  0  0  0  0  0
   48.2840   33.3280   43.2200 N   0  0  0  0  0  0  0  0  0  0  0  0
   47.1580   33.5270   43.9230 C   0  0  0  0  0  0  0  0  0  0  0  0
   46.2540   34.4470   43.5220 N   0  0  0  0  0  0  0  0  0  0  0  0
   45.7360   35.9170   42.0990 H   0  0  0  0  0  0  0  0  0  0  0  0
   47.8300   35.5660   40.7670 H   0  0  0  0  0  0  0  0  0  0  0  0
   49.4860   33.8540   41.5330 H   0  0  0  0  0  0  0  0  0  0  0  0
   47.5170   29.3170   46.4830 C   0  0  0  0  0  0  0  0  0  0  0  0
   48.8500   28.9210   46.4920 C   0  0  0  0  0  0  0  0  0  0  0  0
   48.7630   27.5220   46.6310 C   0  0  0  0  0  0  0  0  0  0  0  0
   47.4250   27.1740   46.6960 C   0  0  0  0  0  0  0  0  0  0  0  0
   46.7260   28.2920   46.6010 O   0  0  0  0  0  0  0  0  0  0  0  0
   49.7480   29.5250   46.4130 H   0  0  0  0  0  0  0  0  0  0  0  0
   49.6000   26.8410   46.6800 H   0  0  0  0  0  0  0  0  0  0  0  0
   46.8230   25.8100   46.8440 C   0  0  0  0  0  3  0  0  0  0  0  0
   45.8690   25.5000   45.7260 C   0  0  0  0  0  2  0  0  0  0  0  0
   44.4290   25.7480   46.1050 C   0  0  0  0  0  2  0  0  0  0  0  0
   44.0070   24.8510   47.2430 C   0  0  0  0  0  2  0  0  0  0  0  0
   45.1490   24.5900   48.1810 C   0  0  0  0  0  2  0  0  0  0  0  0
   46.1900   25.6770   48.1980 C   0  0  0  0  0  2  0  0  0  0  0  0
  1  9  1  0  0  0  0
  2  1  2  0  0  0  0
  2  3  1  0  0  0  0
  3  4  2  0  0  0  0
  4  8  1  0  0  0  0
  4  5  1  0  0  0  0
  5 12  1  0  0  0  0
  5  6  1  0  0  0  0
  6 13  1  0  0  0  0
  7  6  2  0  0  0  0
  8  7  1  0  0  0  0
  9 23  1  0  0  0  0
  9  8  2  0  0  0  0
 10  1  1  0  0  0  0
 11  3  1  0  0  0  0
 14 19  1  0  0  0  0
 15 16  1  0  0  0  0
 15 14  2  0  0  0  0
 16 17  2  0  0  0  0
 17 18  1  0  0  0  0
 18  2  1  0  0  0  0
 19 18  2  0  0  0  0
 20 14  1  0  0  0  0
 21 15  1  0  0  0  0
 22 16  1  0  0  0  0
 23 24  2  0  0  0  0
 23 27  1  0  0  0  0
 24 25  1  0  0  0  0
 25 29  1  0  0  0  0
 25 26  2  0  0  0  0
 26 30  1  0  0  0  0
 27 26  1  0  0  0  0
 28 24  1  0  0  0  0
 30 35  1  0  0  0  0
 31 32  1  0  0  0  0
 31 30  1  0  0  0  0
 32 33  1  0  0  0  0
 33 34  1  0  0  0  0
 34 35  1  0  0  0  0
M  END
>  <minimizedAffinity>
-5.70832443

>  <minimizedRMSD>
0.510862947

$$$$
