
 OpenBabel03242516383D

 17 18  0  0  0  0  0  0  0  0999 V2000
   44.9130   35.0320   44.5280 C   0  0  0  0  0  0  0  0  0  0  0  0
   45.8140   34.9480   43.4540 C   0  0  0  0  0  0  0  0  0  0  0  0
   46.9270   34.0770   43.5660 C   0  0  0  0  0  0  0  0  0  0  0  0
   47.0410   33.3790   44.7220 N   0  0  0  0  0  0  0  0  0  0  0  0
   46.1710   33.4740   45.7340 C   0  0  0  0  0  0  0  0  0  0  0  0
   45.1200   34.2950   45.6290 N   0  0  0  0  0  0  0  0  0  0  0  0
   43.7890   35.9000   44.4350 N   0  0  0  0  0  0  0  0  0  0  0  0
   45.6870   35.5260   42.5420 H   0  0  0  0  0  0  0  0  0  0  0  0
   46.3680   32.8640   46.6120 H   0  0  0  0  0  0  0  0  0  0  0  0
   43.7040   36.5430   43.6130 H   0  0  0  0  0  0  0  0  0  0  0  0
   43.0760   35.8900   45.1710 H   0  0  0  0  0  0  0  0  0  0  0  0
   47.8580   34.0000   42.4400 C   0  0  0  0  0  0  0  0  0  0  0  0
   48.3320   32.5840   42.2040 C   0  0  0  0  0  0  0  0  0  0  0  0
   49.4410   32.6970   41.1770 C   0  0  0  0  0  0  0  0  0  0  0  0
   48.7350   33.0760   39.8850 C   0  0  0  0  0  0  0  0  0  0  0  0
   48.0290   34.3940   39.9590 C   0  0  0  0  0  0  0  0  0  0  0  0
   47.2440   34.6100   41.2150 C   0  0  0  0  0  0  0  0  0  0  0  0
  1  6  1  0  0  0  0
  2  3  1  0  0  0  0
  2  1  2  0  0  0  0
  3  4  2  0  0  0  0
  4  5  1  0  0  0  0
  5  9  1  0  0  0  0
  6  5  2  0  0  0  0
  7  1  1  0  0  0  0
  7 11  1  0  0  0  0
  8  2  1  0  0  0  0
 10  7  1  0  0  0  0
 12  3  1  0  0  0  0
 13 12  1  0  0  0  0
 14 13  1  0  0  0  0
 15 16  1  0  0  0  0
 15 14  1  0  0  0  0
 16 17  1  0  0  0  0
 17 12  1  0  0  0  0
M  END
>  <minimizedAffinity>
-4.76424551

>  <minimizedRMSD>
1.30756819

$$$$
