
 OpenBabel03242510063D

 15 16  0  0  1  0  0  0  0  0999 V2000
   45.2740   34.1140   45.9620 C   0  0  0  0  0  0  0  0  0  0  0  0
   44.5330   35.2940   45.7680 C   0  0  0  0  0  0  0  0  0  0  0  0
   44.6190   35.9200   44.5200 C   0  0  0  0  0  0  0  0  0  0  0  0
   45.4100   35.3550   43.5680 N   0  0  0  0  0  0  0  0  0  0  0  0
   46.1110   34.2190   43.7830 C   0  0  0  0  0  0  0  0  0  0  0  0
   46.0450   33.5940   44.9830 N   0  0  0  0  0  0  0  0  0  0  0  0
   45.2180   33.6120   46.9330 H   0  0  0  0  0  0  0  0  0  0  0  0
   43.9230   35.7140   46.5310 H   0  0  0  0  0  0  0  0  0  0  0  0
   44.0870   36.8300   44.2770 H   0  0  0  0  0  0  0  0  0  0  0  0
   46.9540   33.6640   42.6850 C   0  0  2  0  0  3  0  0  0  0  0  0
   48.3490   33.6380   43.1830 C   0  0  0  0  0  2  0  0  0  0  0  0
   49.2350   34.7120   42.6160 C   0  0  0  0  0  2  0  0  0  0  0  0
   49.1900   34.5500   41.1200 C   0  0  0  0  0  2  0  0  0  0  0  0
   47.8320   34.7440   40.5570 C   0  0  0  0  0  3  0  0  0  0  0  0
   46.6880   34.4320   41.4450 C   0  0  0  0  0  3  0  0  0  0  0  0
  1  7  1  0  0  0  0
  2  1  1  0  0  0  0
  2  8  1  0  0  0  0
  3  2  2  0  0  0  0
  4  5  2  0  0  0  0
  4  3  1  0  0  0  0
  5  6  1  0  0  0  0
  6  1  2  0  0  0  0
  9  3  1  0  0  0  0
 10 11  1  0  0  0  0
 10  5  1  1  0  0  0
 12 11  1  0  0  0  0
 13 12  1  0  0  0  0
 14 13  1  0  0  0  0
 14 15  2  0  0  0  0
 15 10  1  0  0  0  0
M  END
>  <minimizedAffinity>
-4.17224073

>  <minimizedRMSD>
5.30356789

$$$$
