
 OpenBabel03242523593D

 18 19  0  0  0  0  0  0  0  0999 V2000
   44.6050   35.5990   44.8110 C   0  0  0  0  0  0  0  0  0  0  0  0
   45.4010   35.4180   43.6620 C   0  0  0  0  0  0  0  0  0  0  0  0
   46.3090   34.3700   43.6810 C   0  0  0  0  0  0  0  0  0  0  0  0
   46.3960   33.5780   44.7790 N   0  0  0  0  0  0  0  0  0  0  0  0
   45.6150   33.7810   45.8630 C   0  0  0  0  0  0  0  0  0  0  0  0
   44.7230   34.7960   45.8660 N   0  0  0  0  0  0  0  0  0  0  0  0
   43.8830   36.4200   44.8140 H   0  0  0  0  0  0  0  0  0  0  0  0
   45.3370   36.0390   42.7950 H   0  0  0  0  0  0  0  0  0  0  0  0
   47.2030   34.1010   42.5010 C   0  0  0  0  0  0  0  0  0  0  0  0
   47.6970   35.3830   41.8960 C   0  0  0  0  0  0  0  0  0  0  0  0
   48.5300   35.0250   40.6880 C   0  0  0  0  0  0  0  0  0  0  0  0
   47.8360   34.0770   39.7420 C   0  0  0  0  0  0  0  0  0  0  0  0
   46.3750   33.9440   40.1650 C   0  0  0  0  0  0  0  0  0  0  0  0
   46.3810   33.2900   41.5240 C   0  0  0  0  0  0  0  0  0  0  0  0
   45.8530   32.8130   46.9630 C   0  0  0  0  0  0  0  0  0  0  0  0
   45.0130   33.0410   48.0270 F   0  0  0  0  0  0  0  0  0  0  0  0
   47.1730   32.8850   47.3830 F   0  0  0  0  0  0  0  0  0  0  0  0
   45.6780   31.5150   46.4820 F   0  0  0  0  0  0  0  0  0  0  0  0
  1  7  1  0  0  0  0
  1  6  1  0  0  0  0
  2  3  1  0  0  0  0
  2  1  2  0  0  0  0
  3  4  2  0  0  0  0
  4  5  1  0  0  0  0
  5  6  2  0  0  0  0
  5 15  1  0  0  0  0
  8  2  1  0  0  0  0
  9  3  1  0  0  0  0
 10  9  1  0  0  0  0
 11 10  1  0  0  0  0
 12 13  1  0  0  0  0
 12 11  1  0  0  0  0
 13 14  1  0  0  0  0
 14  9  1  0  0  0  0
 15 17  1  0  0  0  0
 15 16  1  0  0  0  0
 18 15  1  0  0  0  0
M  END
>  <minimizedAffinity>
-5.51666355

>  <minimizedRMSD>
0.64680618

$$$$
