
 OpenBabel03252508423D

 25 27  0  0  1  0  0  0  0  0999 V2000
   36.5500   28.5470   41.2040 C   0  0  0  0  0  0  0  0  0  0  0  0
   37.4670   29.5870   41.2280 C   0  0  0  0  0  0  0  0  0  0  0  0
   38.2600   29.8410   42.3160 C   0  0  0  0  0  0  0  0  0  0  0  0
   38.1030   28.9980   43.4160 C   0  0  0  0  0  0  0  0  0  0  0  0
   37.2140   27.9520   43.4580 C   0  0  0  0  0  0  0  0  0  0  0  0
   36.4440   27.7640   42.3020 C   0  0  0  0  0  0  0  0  0  0  0  0
   38.9850   30.6440   42.3660 H   0  0  0  0  0  0  0  0  0  0  0  0
   38.7000   29.1460   44.3090 H   0  0  0  0  0  0  0  0  0  0  0  0
   37.1110   27.3120   44.3250 H   0  0  0  0  0  0  0  0  0  0  0  0
   35.7230   26.9640   42.2560 H   0  0  0  0  0  0  0  0  0  0  0  0
   33.9520   28.8490   38.4870 C   0  0  0  0  0  0  0  0  0  0  0  0
   34.6250   29.1040   39.7080 C   0  0  0  0  0  0  0  0  0  0  0  0
   35.7690   28.3830   39.9900 C   0  0  0  0  0  0  0  0  0  0  0  0
   36.1890   27.4600   39.0750 N   0  0  0  0  0  0  0  0  0  0  0  0
   35.5290   27.2350   37.9190 C   0  0  0  0  0  0  0  0  0  0  0  0
   34.4020   27.9320   37.6180 N   0  0  0  0  0  0  0  0  0  0  0  0
   33.0800   29.4510   38.3530 H   0  0  0  0  0  0  0  0  0  0  0  0
   34.3150   29.8180   40.4340 H   0  0  0  0  0  0  0  0  0  0  0  0
   35.9490   26.4800   37.2660 H   0  0  0  0  0  0  0  0  0  0  0  0
   37.6660   30.5190   40.0580 C   0  0  1  0  0  3  0  0  0  0  0  0
   37.0400   31.8330   40.3910 C   0  0  0  0  0  2  0  0  0  0  0  0
   37.8890   33.0390   40.1590 C   0  0  0  0  0  2  0  0  0  0  0  0
   39.2490   32.7910   40.7220 C   0  0  0  0  0  2  0  0  0  0  0  0
   39.9260   31.6750   39.9740 C   0  0  0  0  0  3  0  0  0  0  0  0
   39.0500   30.5610   39.5540 C   0  0  0  0  0  3  0  0  0  0  0  0
  1  2  2  0  0  0  0
  1  6  1  0  0  0  0
  2  3  1  0  0  0  0
  3  7  1  0  0  0  0
  3  4  2  0  0  0  0
  4  5  1  0  0  0  0
  4  8  1  0  0  0  0
  5  9  1  0  0  0  0
  6  5  2  0  0  0  0
 10  6  1  0  0  0  0
 11 12  1  0  0  0  0
 12 13  2  0  0  0  0
 12 18  1  0  0  0  0
 13  1  1  0  0  0  0
 14 13  1  0  0  0  0
 15 14  2  0  0  0  0
 16 15  1  0  0  0  0
 16 11  2  0  0  0  0
 17 11  1  0  0  0  0
 19 15  1  0  0  0  0
 20 21  1  0  0  0  0
 20  2  1  1  0  0  0
 22 21  1  0  0  0  0
 22 23  1  0  0  0  0
 24 23  1  0  0  0  0
 25 24  2  0  0  0  0
 25 20  1  0  0  0  0
M  END
>  <minimizedAffinity>
-5.24294519

$$$$

 OpenBabel03252508423D

 25 27  0  0  1  0  0  0  0  0999 V2000
   36.5110   26.1380   39.3160 C   0  0  0  0  0  0  0  0  0  0  0  0
   36.9030   26.2940   40.6370 C   0  0  0  0  0  0  0  0  0  0  0  0
   36.9870   25.2390   41.5070 C   0  0  0  0  0  0  0  0  0  0  0  0
   36.6550   23.9820   41.0010 C   0  0  0  0  0  0  0  0  0  0  0  0
   36.2590   23.7600   39.7040 C   0  0  0  0  0  0  0  0  0  0  0  0
   36.2020   24.8940   38.8850 C   0  0  0  0  0  0  0  0  0  0  0  0
   37.2900   25.3270   42.5420 H   0  0  0  0  0  0  0  0  0  0  0  0
   36.7000   23.1050   41.6370 H   0  0  0  0  0  0  0  0  0  0  0  0
   36.0060   22.7740   39.3360 H   0  0  0  0  0  0  0  0  0  0  0  0
   35.9000   24.8030   37.8530 H   0  0  0  0  0  0  0  0  0  0  0  0
   35.4340   29.2980   37.5610 C   0  0  0  0  0  0  0  0  0  0  0  0
   35.3540   28.1570   38.3980 C   0  0  0  0  0  0  0  0  0  0  0  0
   36.4620   27.3370   38.4960 C   0  0  0  0  0  0  0  0  0  0  0  0
   37.5760   27.6710   37.7790 N   0  0  0  0  0  0  0  0  0  0  0  0
   37.6260   28.7640   36.9880 C   0  0  0  0  0  0  0  0  0  0  0  0
   36.5500   29.5870   36.8750 N   0  0  0  0  0  0  0  0  0  0  0  0
   34.5340   29.8730   37.5460 H   0  0  0  0  0  0  0  0  0  0  0  0
   34.4980   27.8790   38.9650 H   0  0  0  0  0  0  0  0  0  0  0  0
   38.5580   28.9350   36.4630 H   0  0  0  0  0  0  0  0  0  0  0  0
   37.2710   27.6370   41.2210 C   0  0  1  0  0  3  0  0  0  0  0  0
   36.5780   27.7830   42.5350 C   0  0  0  0  0  2  0  0  0  0  0  0
   37.4320   28.2180   43.6800 C   0  0  0  0  0  2  0  0  0  0  0  0
   38.6890   27.4120   43.6790 C   0  0  0  0  0  2  0  0  0  0  0  0
   39.4950   27.7060   42.4430 C   0  0  0  0  0  3  0  0  0  0  0  0
   38.7160   27.9210   41.2060 C   0  0  0  0  0  3  0  0  0  0  0  0
  1  2  1  0  0  0  0
  2  3  2  0  0  0  0
  3  7  1  0  0  0  0
  4  3  1  0  0  0  0
  4  8  1  0  0  0  0
  5  4  2  0  0  0  0
  6  1  2  0  0  0  0
  6  5  1  0  0  0  0
  9  5  1  0  0  0  0
 10  6  1  0  0  0  0
 11 12  1  0  0  0  0
 12 13  2  0  0  0  0
 12 18  1  0  0  0  0
 13  1  1  0  0  0  0
 14 13  1  0  0  0  0
 15 14  2  0  0  0  0
 16 15  1  0  0  0  0
 16 11  2  0  0  0  0
 17 11  1  0  0  0  0
 19 15  1  0  0  0  0
 20  2  1  1  0  0  0
 20 21  1  0  0  0  0
 21 22  1  0  0  0  0
 23 22  1  0  0  0  0
 24 23  1  0  0  0  0
 25 20  1  0  0  0  0
 25 24  2  0  0  0  0
M  END
>  <minimizedAffinity>
-5.05895376

$$$$

 OpenBabel03252508423D

 25 27  0  0  1  0  0  0  0  0999 V2000
   38.0780   30.6950   41.0320 C   0  0  0  0  0  0  0  0  0  0  0  0
   37.2270   30.5040   39.9530 C   0  0  0  0  0  0  0  0  0  0  0  0
   36.9370   31.5030   39.0620 C   0  0  0  0  0  0  0  0  0  0  0  0
   37.5420   32.7390   39.2870 C   0  0  0  0  0  0  0  0  0  0  0  0
   38.3930   32.9940   40.3350 C   0  0  0  0  0  0  0  0  0  0  0  0
   38.6340   31.9170   41.1970 C   0  0  0  0  0  0  0  0  0  0  0  0
   36.2780   31.3860   38.2110 H   0  0  0  0  0  0  0  0  0  0  0  0
   37.3540   33.5720   38.6190 H   0  0  0  0  0  0  0  0  0  0  0  0
   38.8500   33.9640   40.4890 H   0  0  0  0  0  0  0  0  0  0  0  0
   39.2910   32.0370   42.0440 H   0  0  0  0  0  0  0  0  0  0  0  0
   39.5330   27.6780   42.7660 C   0  0  0  0  0  0  0  0  0  0  0  0
   39.4330   28.7630   41.8590 C   0  0  0  0  0  0  0  0  0  0  0  0
   38.3030   29.5560   41.9060 C   0  0  0  0  0  0  0  0  0  0  0  0
   37.3410   29.2510   42.8260 N   0  0  0  0  0  0  0  0  0  0  0  0
   37.4590   28.2120   43.6790 C   0  0  0  0  0  0  0  0  0  0  0  0
   38.5620   27.4160   43.6530 N   0  0  0  0  0  0  0  0  0  0  0  0
   40.4370   27.1210   42.6590 H   0  0  0  0  0  0  0  0  0  0  0  0
   40.1710   29.0180   41.1350 H   0  0  0  0  0  0  0  0  0  0  0  0
   36.6370   28.0590   44.3670 H   0  0  0  0  0  0  0  0  0  0  0  0
   36.5540   29.1820   39.6760 C   0  0  1  0  0  3  0  0  0  0  0  0
   35.0770   29.3760   39.7740 C   0  0  0  0  0  2  0  0  0  0  0  0
   34.2700   28.8410   38.6380 C   0  0  0  0  0  2  0  0  0  0  0  0
   34.9090   29.2550   37.3540 C   0  0  0  0  0  2  0  0  0  0  0  0
   36.2640   28.6170   37.2170 C   0  0  0  0  0  3  0  0  0  0  0  0
   37.0470   28.5020   38.4660 C   0  0  0  0  0  3  0  0  0  0  0  0
  1  6  1  0  0  0  0
  1 13  1  0  0  0  0
  2  1  2  0  0  0  0
  3  4  2  0  0  0  0
  3  2  1  0  0  0  0
  4  5  1  0  0  0  0
  5  9  1  0  0  0  0
  5  6  2  0  0  0  0
  6 10  1  0  0  0  0
  7  3  1  0  0  0  0
  8  4  1  0  0  0  0
 11 16  1  0  0  0  0
 12 13  1  0  0  0  0
 12 11  2  0  0  0  0
 13 14  2  0  0  0  0
 14 15  1  0  0  0  0
 15 19  1  0  0  0  0
 16 15  2  0  0  0  0
 17 11  1  0  0  0  0
 18 12  1  0  0  0  0
 20 21  1  0  0  0  0
 20  2  1  6  0  0  0
 22 21  1  0  0  0  0
 23 22  1  0  0  0  0
 24 23  1  0  0  0  0
 24 25  2  0  0  0  0
 25 20  1  0  0  0  0
M  END
>  <minimizedAffinity>
-5.03420401

$$$$

 OpenBabel03252508423D

 25 27  0  0  1  0  0  0  0  0999 V2000
   37.1600   30.4000   39.2210 C   0  0  0  0  0  0  0  0  0  0  0  0
   37.2440   29.4130   40.1920 C   0  0  0  0  0  0  0  0  0  0  0  0
   36.5300   28.2460   40.1150 C   0  0  0  0  0  0  0  0  0  0  0  0
   35.7020   28.0900   39.0030 C   0  0  0  0  0  0  0  0  0  0  0  0
   35.5730   29.0280   38.0080 C   0  0  0  0  0  0  0  0  0  0  0  0
   36.3400   30.1900   38.1660 C   0  0  0  0  0  0  0  0  0  0  0  0
   36.5730   27.4570   40.8550 H   0  0  0  0  0  0  0  0  0  0  0  0
   35.1100   27.1900   38.8830 H   0  0  0  0  0  0  0  0  0  0  0  0
   34.9230   28.8830   37.1550 H   0  0  0  0  0  0  0  0  0  0  0  0
   36.2950   30.9740   37.4270 H   0  0  0  0  0  0  0  0  0  0  0  0
   38.4190   33.8110   40.2250 C   0  0  0  0  0  0  0  0  0  0  0  0
   37.5340   32.7110   40.1020 C   0  0  0  0  0  0  0  0  0  0  0  0
   37.9690   31.5910   39.4190 C   0  0  0  0  0  0  0  0  0  0  0  0
   39.2320   31.6050   38.8980 N   0  0  0  0  0  0  0  0  0  0  0  0
   40.0560   32.6670   39.0290 C   0  0  0  0  0  0  0  0  0  0  0  0
   39.6520   33.7800   39.6960 N   0  0  0  0  0  0  0  0  0  0  0  0
   38.0000   34.6300   40.7660 H   0  0  0  0  0  0  0  0  0  0  0  0
   36.5470   32.6790   40.4990 H   0  0  0  0  0  0  0  0  0  0  0  0
   41.0360   32.5720   38.5770 H   0  0  0  0  0  0  0  0  0  0  0  0
   38.1290   29.5450   41.4070 C   0  0  1  0  0  3  0  0  0  0  0  0
   37.3020   29.2800   42.6220 C   0  0  0  0  0  2  0  0  0  0  0  0
   37.8700   28.3070   43.6010 C   0  0  0  0  0  2  0  0  0  0  0  0
   38.3640   27.1080   42.8610 C   0  0  0  0  0  2  0  0  0  0  0  0
   39.5090   27.4870   41.9620 C   0  0  0  0  0  3  0  0  0  0  0  0
   39.4000   28.8070   41.3060 C   0  0  0  0  0  3  0  0  0  0  0  0
  1 13  1  0  0  0  0
  1  2  1  0  0  0  0
  3  2  2  0  0  0  0
  3  7  1  0  0  0  0
  4  3  1  0  0  0  0
  5  6  1  0  0  0  0
  5  4  2  0  0  0  0
  6  1  2  0  0  0  0
  8  4  1  0  0  0  0
  9  5  1  0  0  0  0
 10  6  1  0  0  0  0
 11 17  1  0  0  0  0
 12 11  1  0  0  0  0
 12 18  1  0  0  0  0
 13 12  2  0  0  0  0
 14 15  2  0  0  0  0
 14 13  1  0  0  0  0
 15 16  1  0  0  0  0
 16 11  2  0  0  0  0
 19 15  1  0  0  0  0
 20  2  1  6  0  0  0
 20 21  1  0  0  0  0
 21 22  1  0  0  0  0
 23 22  1  0  0  0  0
 24 23  1  0  0  0  0
 25 20  1  0  0  0  0
 25 24  2  0  0  0  0
M  END
>  <minimizedAffinity>
-4.937644

$$$$

 OpenBabel03252508423D

 25 27  0  0  1  0  0  0  0  0999 V2000
   36.9490   26.1580   40.6800 C   0  0  0  0  0  0  0  0  0  0  0  0
   36.4120   26.6300   39.4920 C   0  0  0  0  0  0  0  0  0  0  0  0
   35.8940   25.7940   38.5380 C   0  0  0  0  0  0  0  0  0  0  0  0
   35.9290   24.4280   38.8160 C   0  0  0  0  0  0  0  0  0  0  0  0
   36.4470   23.8960   39.9720 C   0  0  0  0  0  0  0  0  0  0  0  0
   36.9550   24.8220   40.8920 C   0  0  0  0  0  0  0  0  0  0  0  0
   35.4680   26.1310   37.6010 H   0  0  0  0  0  0  0  0  0  0  0  0
   35.5360   23.7130   38.1020 H   0  0  0  0  0  0  0  0  0  0  0  0
   36.4640   22.8300   40.1640 H   0  0  0  0  0  0  0  0  0  0  0  0
   37.3780   24.4840   41.8240 H   0  0  0  0  0  0  0  0  0  0  0  0
   37.3960   28.5630   43.5510 C   0  0  0  0  0  0  0  0  0  0  0  0
   36.7790   27.5920   42.7230 C   0  0  0  0  0  0  0  0  0  0  0  0
   37.4670   27.1470   41.6100 C   0  0  0  0  0  0  0  0  0  0  0  0
   38.7070   27.6680   41.3690 N   0  0  0  0  0  0  0  0  0  0  0  0
   39.2720   28.5930   42.1740 C   0  0  0  0  0  0  0  0  0  0  0  0
   38.6160   29.0470   43.2750 N   0  0  0  0  0  0  0  0  0  0  0  0
   36.7930   28.8470   44.3860 H   0  0  0  0  0  0  0  0  0  0  0  0
   35.8160   27.1730   42.8920 H   0  0  0  0  0  0  0  0  0  0  0  0
   40.2580   28.9390   41.8900 H   0  0  0  0  0  0  0  0  0  0  0  0
   36.3550   28.1000   39.1560 C   0  0  1  0  0  3  0  0  0  0  0  0
   36.7870   28.2760   37.7370 C   0  0  0  0  0  2  0  0  0  0  0  0
   35.8940   29.1100   36.8800 C   0  0  0  0  0  2  0  0  0  0  0  0
   34.4790   28.6810   37.0940 C   0  0  0  0  0  2  0  0  0  0  0  0
   34.0570   28.9680   38.5090 C   0  0  0  0  0  3  0  0  0  0  0  0
   35.0930   28.7540   39.5420 C   0  0  0  0  0  3  0  0  0  0  0  0
  1  6  1  0  0  0  0
  1 13  1  0  0  0  0
  2  1  2  0  0  0  0
  3  4  2  0  0  0  0
  3  2  1  0  0  0  0
  4  5  1  0  0  0  0
  5  9  1  0  0  0  0
  5  6  2  0  0  0  0
  6 10  1  0  0  0  0
  7  3  1  0  0  0  0
  8  4  1  0  0  0  0
 11 17  1  0  0  0  0
 12 18  1  0  0  0  0
 12 11  2  0  0  0  0
 13 12  1  0  0  0  0
 14 13  2  0  0  0  0
 14 15  1  0  0  0  0
 15 16  2  0  0  0  0
 16 11  1  0  0  0  0
 19 15  1  0  0  0  0
 20  2  1  6  0  0  0
 20 25  1  0  0  0  0
 21 20  1  0  0  0  0
 22 23  1  0  0  0  0
 22 21  1  0  0  0  0
 23 24  1  0  0  0  0
 24 25  2  0  0  0  0
M  END
>  <minimizedAffinity>
-4.89259291

$$$$

 OpenBabel03252508423D

 25 27  0  0  1  0  0  0  0  0999 V2000
   37.3120   28.4320   41.2170 C   0  0  0  0  0  0  0  0  0  0  0  0
   37.7100   27.1110   41.3600 C   0  0  0  0  0  0  0  0  0  0  0  0
   38.1030   26.5900   42.5650 C   0  0  0  0  0  0  0  0  0  0  0  0
   38.0850   27.4560   43.6580 C   0  0  0  0  0  0  0  0  0  0  0  0
   37.7030   28.7730   43.5840 C   0  0  0  0  0  0  0  0  0  0  0  0
   37.3160   29.2220   42.3150 C   0  0  0  0  0  0  0  0  0  0  0  0
   38.4190   25.5650   42.7100 H   0  0  0  0  0  0  0  0  0  0  0  0
   38.3850   27.1060   44.6390 H   0  0  0  0  0  0  0  0  0  0  0  0
   37.6980   29.4260   44.4480 H   0  0  0  0  0  0  0  0  0  0  0  0
   37.0020   30.2440   42.1740 H   0  0  0  0  0  0  0  0  0  0  0  0
   35.3660   29.2880   38.1020 C   0  0  0  0  0  0  0  0  0  0  0  0
   35.6180   28.8410   39.4230 C   0  0  0  0  0  0  0  0  0  0  0  0
   36.9190   28.8630   39.8860 C   0  0  0  0  0  0  0  0  0  0  0  0
   37.8940   29.3160   39.0440 N   0  0  0  0  0  0  0  0  0  0  0  0
   37.6280   29.7370   37.7880 C   0  0  0  0  0  0  0  0  0  0  0  0
   36.3550   29.7240   37.3090 N   0  0  0  0  0  0  0  0  0  0  0  0
   34.3350   29.2350   37.8290 H   0  0  0  0  0  0  0  0  0  0  0  0
   34.8730   28.4840   40.0950 H   0  0  0  0  0  0  0  0  0  0  0  0
   38.4760   30.0740   37.2050 H   0  0  0  0  0  0  0  0  0  0  0  0
   37.7420   26.1440   40.2020 C   0  0  1  0  0  3  0  0  0  0  0  0
   39.0680   25.4580   40.1980 C   0  0  0  0  0  2  0  0  0  0  0  0
   39.0340   23.9700   40.0880 C   0  0  0  0  0  2  0  0  0  0  0  0
   38.0150   23.4370   41.0410 C   0  0  0  0  0  2  0  0  0  0  0  0
   36.6400   23.8990   40.6440 C   0  0  0  0  0  3  0  0  0  0  0  0
   36.5540   25.2770   40.1140 C   0  0  0  0  0  3  0  0  0  0  0  0
  1  2  2  0  0  0  0
  1  6  1  0  0  0  0
  2  3  1  0  0  0  0
  3  7  1  0  0  0  0
  3  4  2  0  0  0  0
  4  8  1  0  0  0  0
  5  4  1  0  0  0  0
  5  9  1  0  0  0  0
  6  5  2  0  0  0  0
 10  6  1  0  0  0  0
 11 12  1  0  0  0  0
 12 13  2  0  0  0  0
 12 18  1  0  0  0  0
 13  1  1  0  0  0  0
 14 13  1  0  0  0  0
 15 14  2  0  0  0  0
 16 15  1  0  0  0  0
 16 11  2  0  0  0  0
 17 11  1  0  0  0  0
 19 15  1  0  0  0  0
 20  2  1  1  0  0  0
 21 20  1  0  0  0  0
 22 21  1  0  0  0  0
 22 23  1  0  0  0  0
 24 23  1  0  0  0  0
 25 20  1  0  0  0  0
 25 24  2  0  0  0  0
M  END
>  <minimizedAffinity>
-4.86727715

$$$$

 OpenBabel03252508423D

 25 27  0  0  1  0  0  0  0  0999 V2000
   40.6410   29.6750   42.0620 C   0  0  0  0  0  0  0  0  0  0  0  0
   39.7480   28.6680   42.4000 C   0  0  0  0  0  0  0  0  0  0  0  0
   40.0980   27.6170   43.2050 C   0  0  0  0  0  0  0  0  0  0  0  0
   41.4100   27.6010   43.6800 C   0  0  0  0  0  0  0  0  0  0  0  0
   42.3420   28.5650   43.3830 C   0  0  0  0  0  0  0  0  0  0  0  0
   41.8990   29.6030   42.5530 C   0  0  0  0  0  0  0  0  0  0  0  0
   39.4260   26.8160   43.4870 H   0  0  0  0  0  0  0  0  0  0  0  0
   41.7510   26.7960   44.3210 H   0  0  0  0  0  0  0  0  0  0  0  0
   43.3550   28.5300   43.7640 H   0  0  0  0  0  0  0  0  0  0  0  0
   42.5710   30.3990   42.2750 H   0  0  0  0  0  0  0  0  0  0  0  0
   39.0930   32.8400   40.7170 C   0  0  0  0  0  0  0  0  0  0  0  0
   39.5320   31.8810   41.6640 C   0  0  0  0  0  0  0  0  0  0  0  0
   40.1460   30.7340   41.1990 C   0  0  0  0  0  0  0  0  0  0  0  0
   40.2960   30.5860   39.8490 N   0  0  0  0  0  0  0  0  0  0  0  0
   39.8670   31.5140   38.9680 C   0  0  0  0  0  0  0  0  0  0  0  0
   39.2610   32.6520   39.4000 N   0  0  0  0  0  0  0  0  0  0  0  0
   38.6310   33.6920   41.1650 H   0  0  0  0  0  0  0  0  0  0  0  0
   39.4260   31.9770   42.7190 H   0  0  0  0  0  0  0  0  0  0  0  0
   40.0360   31.2960   37.9200 H   0  0  0  0  0  0  0  0  0  0  0  0
   38.3210   28.6510   41.9070 C   0  0  1  0  0  3  0  0  0  0  0  0
   38.1850   27.5570   40.8990 C   0  0  0  0  0  2  0  0  0  0  0  0
   37.0320   26.6290   41.0940 C   0  0  0  0  0  2  0  0  0  0  0  0
   36.9760   26.2190   42.5280 C   0  0  0  0  0  2  0  0  0  0  0  0
   36.6830   27.4100   43.3990 C   0  0  0  0  0  3  0  0  0  0  0  0
   37.3160   28.6800   42.9840 C   0  0  0  0  0  3  0  0  0  0  0  0
  1  2  2  0  0  0  0
  1  6  1  0  0  0  0
  2  3  1  0  0  0  0
  3  7  1  0  0  0  0
  3  4  2  0  0  0  0
  4  8  1  0  0  0  0
  5  4  1  0  0  0  0
  5  9  1  0  0  0  0
  6  5  2  0  0  0  0
 10  6  1  0  0  0  0
 11 17  1  0  0  0  0
 11 12  1  0  0  0  0
 12 18  1  0  0  0  0
 13 12  2  0  0  0  0
 13  1  1  0  0  0  0
 14 13  1  0  0  0  0
 15 16  1  0  0  0  0
 15 14  2  0  0  0  0
 16 11  2  0  0  0  0
 19 15  1  0  0  0  0
 20  2  1  1  0  0  0
 20 25  1  0  0  0  0
 21 22  1  0  0  0  0
 21 20  1  0  0  0  0
 22 23  1  0  0  0  0
 23 24  1  0  0  0  0
 25 24  2  0  0  0  0
M  END
>  <minimizedAffinity>
-4.85628605

$$$$

 OpenBabel03252508423D

 25 27  0  0  1  0  0  0  0  0999 V2000
   38.0390   29.6320   41.8430 C   0  0  0  0  0  0  0  0  0  0  0  0
   37.2670   28.8580   40.9890 C   0  0  0  0  0  0  0  0  0  0  0  0
   36.5630   27.7660   41.4230 C   0  0  0  0  0  0  0  0  0  0  0  0
   36.6570   27.4600   42.7810 C   0  0  0  0  0  0  0  0  0  0  0  0
   37.4040   28.1840   43.6780 C   0  0  0  0  0  0  0  0  0  0  0  0
   38.0900   29.2840   43.1490 C   0  0  0  0  0  0  0  0  0  0  0  0
   35.9520   27.1430   40.7830 H   0  0  0  0  0  0  0  0  0  0  0  0
   36.1250   26.6070   43.1880 H   0  0  0  0  0  0  0  0  0  0  0  0
   37.4610   27.9250   44.7280 H   0  0  0  0  0  0  0  0  0  0  0  0
   38.6980   29.9030   43.7890 H   0  0  0  0  0  0  0  0  0  0  0  0
   40.6370   31.9150   40.3380 C   0  0  0  0  0  0  0  0  0  0  0  0
   40.0720   30.7430   40.8990 C   0  0  0  0  0  0  0  0  0  0  0  0
   38.7380   30.7640   41.2580 C   0  0  0  0  0  0  0  0  0  0  0  0
   38.0340   31.9170   41.0520 N   0  0  0  0  0  0  0  0  0  0  0  0
   38.5970   33.0220   40.5160 C   0  0  0  0  0  0  0  0  0  0  0  0
   39.9070   33.0260   40.1540 N   0  0  0  0  0  0  0  0  0  0  0  0
   41.6700   31.8080   40.0910 H   0  0  0  0  0  0  0  0  0  0  0  0
   40.6010   29.8350   41.0670 H   0  0  0  0  0  0  0  0  0  0  0  0
   37.9480   33.8810   40.3980 H   0  0  0  0  0  0  0  0  0  0  0  0
   37.1400   29.1580   39.5150 C   0  0  1  0  0  3  0  0  0  0  0  0
   37.6230   27.9710   38.7500 C   0  0  0  0  0  2  0  0  0  0  0  0
   36.7210   27.4800   37.6660 C   0  0  0  0  0  2  0  0  0  0  0  0
   35.3260   27.4070   38.1920 C   0  0  0  0  0  2  0  0  0  0  0  0
   34.8270   28.7840   38.5360 C   0  0  0  0  0  3  0  0  0  0  0  0
   35.8260   29.7000   39.1250 C   0  0  0  0  0  3  0  0  0  0  0  0
  1  6  1  0  0  0  0
  2  3  1  0  0  0  0
  2  1  2  0  0  0  0
  3  4  2  0  0  0  0
  4  8  1  0  0  0  0
  4  5  1  0  0  0  0
  5  9  1  0  0  0  0
  6  5  2  0  0  0  0
  6 10  1  0  0  0  0
  7  3  1  0  0  0  0
 11 12  1  0  0  0  0
 12 18  1  0  0  0  0
 12 13  2  0  0  0  0
 13  1  1  0  0  0  0
 14 13  1  0  0  0  0
 15 14  2  0  0  0  0
 16 11  2  0  0  0  0
 16 15  1  0  0  0  0
 17 11  1  0  0  0  0
 19 15  1  0  0  0  0
 20  2  1  1  0  0  0
 21 20  1  0  0  0  0
 22 23  1  0  0  0  0
 22 21  1  0  0  0  0
 23 24  1  0  0  0  0
 24 25  2  0  0  0  0
 25 20  1  0  0  0  0
M  END
>  <minimizedAffinity>
-4.8336587

$$$$

 OpenBabel03252508423D

 25 27  0  0  1  0  0  0  0  0999 V2000
   37.1860   30.3230   39.1560 C   0  0  0  0  0  0  0  0  0  0  0  0
   37.2470   29.3280   40.1210 C   0  0  0  0  0  0  0  0  0  0  0  0
   36.4710   28.2010   40.0610 C   0  0  0  0  0  0  0  0  0  0  0  0
   35.6040   28.0930   38.9730 C   0  0  0  0  0  0  0  0  0  0  0  0
   35.4960   29.0420   37.9850 C   0  0  0  0  0  0  0  0  0  0  0  0
   36.3260   30.1610   38.1260 C   0  0  0  0  0  0  0  0  0  0  0  0
   36.4940   27.4060   40.7960 H   0  0  0  0  0  0  0  0  0  0  0  0
   34.9630   27.2260   38.8670 H   0  0  0  0  0  0  0  0  0  0  0  0
   34.8150   28.9350   37.1510 H   0  0  0  0  0  0  0  0  0  0  0  0
   36.3010   30.9500   37.3910 H   0  0  0  0  0  0  0  0  0  0  0  0
   40.0950   32.7230   39.0720 C   0  0  0  0  0  0  0  0  0  0  0  0
   39.3430   31.5470   38.8260 C   0  0  0  0  0  0  0  0  0  0  0  0
   38.0610   31.4700   39.3350 C   0  0  0  0  0  0  0  0  0  0  0  0
   37.5870   32.5340   40.0500 N   0  0  0  0  0  0  0  0  0  0  0  0
   38.3250   33.6430   40.2710 C   0  0  0  0  0  0  0  0  0  0  0  0
   39.5890   33.7430   39.7800 N   0  0  0  0  0  0  0  0  0  0  0  0
   41.0720   32.6940   38.6410 H   0  0  0  0  0  0  0  0  0  0  0  0
   39.6910   30.7080   38.2720 H   0  0  0  0  0  0  0  0  0  0  0  0
   37.8530   34.4260   40.8510 H   0  0  0  0  0  0  0  0  0  0  0  0
   38.1710   29.4070   41.3110 C   0  0  1  0  0  3  0  0  0  0  0  0
   37.3440   29.3550   42.5530 C   0  0  0  0  0  2  0  0  0  0  0  0
   37.7850   28.3770   43.5920 C   0  0  0  0  0  2  0  0  0  0  0  0
   38.0740   27.0690   42.9330 C   0  0  0  0  0  2  0  0  0  0  0  0
   39.2400   27.2070   41.9920 C   0  0  0  0  0  3  0  0  0  0  0  0
   39.3140   28.4800   41.2450 C   0  0  0  0  0  3  0  0  0  0  0  0
  1 13  1  0  0  0  0
  1  2  1  0  0  0  0
  3  2  2  0  0  0  0
  3  7  1  0  0  0  0
  4  3  1  0  0  0  0
  5  6  1  0  0  0  0
  5  4  2  0  0  0  0
  6  1  2  0  0  0  0
  8  4  1  0  0  0  0
  9  5  1  0  0  0  0
 10  6  1  0  0  0  0
 11 16  1  0  0  0  0
 12 11  2  0  0  0  0
 12 13  1  0  0  0  0
 13 14  2  0  0  0  0
 14 15  1  0  0  0  0
 15 19  1  0  0  0  0
 16 15  2  0  0  0  0
 17 11  1  0  0  0  0
 18 12  1  0  0  0  0
 20  2  1  6  0  0  0
 20 21  1  0  0  0  0
 21 22  1  0  0  0  0
 23 22  1  0  0  0  0
 24 23  1  0  0  0  0
 25 20  1  0  0  0  0
 25 24  2  0  0  0  0
M  END
>  <minimizedAffinity>
-4.81729603

$$$$
