
 OpenBabel03242516273D

 40 44  0  0  0  0  0  0  0  0999 V2000
   39.3120   30.0540   39.8480 S   0  0  0  0  0  0  0  0  0  0  0  0
   39.7570   29.1810   41.2730 C   0  0  0  0  0  0  0  0  0  0  0  0
   41.0230   29.1290   41.7460 N   0  0  0  0  0  0  0  0  0  0  0  0
   41.3950   28.4610   42.8430 C   0  0  0  0  0  0  0  0  0  0  0  0
   40.4290   27.8000   43.5110 N   0  0  0  0  0  0  0  0  0  0  0  0
   39.1510   27.7940   43.1170 C   0  0  0  0  0  0  0  0  0  0  0  0
   38.1770   27.0990   43.8090 C   0  0  0  0  0  0  0  0  0  0  0  0
   36.8680   27.1020   43.3650 C   0  0  0  0  0  0  0  0  0  0  0  0
   36.5080   27.7960   42.2250 C   0  0  0  0  0  0  0  0  0  0  0  0
   37.4880   28.4970   41.5270 C   0  0  0  0  0  0  0  0  0  0  0  0
   38.7990   28.4960   41.9730 C   0  0  0  0  0  0  0  0  0  0  0  0
   42.4400   28.5040   43.1090 H   0  0  0  0  0  0  0  0  0  0  0  0
   38.5610   26.5920   44.6820 H   0  0  0  0  0  0  0  0  0  0  0  0
   36.2620   26.5040   44.0410 H   0  0  0  0  0  0  0  0  0  0  0  0
   35.4680   27.6340   42.1230 H   0  0  0  0  0  0  0  0  0  0  0  0
   36.9430   29.1000   40.2960 C   0  0  0  0  0  3  0  0  0  0  0  0
   36.5860   27.9420   39.2840 C   0  0  0  0  0  2  0  0  0  0  0  0
   36.2060   28.6120   37.9540 C   0  0  0  0  0  2  0  0  0  0  0  0
   34.7800   29.0640   38.1260 C   0  0  0  0  0  2  0  0  0  0  0  0
   34.4990   29.2460   39.5720 C   0  0  0  0  0  2  0  0  0  0  0  0
   35.6470   29.7810   40.3990 C   0  0  0  0  0  2  0  0  0  0  0  0
   41.2590   33.5260   40.3450 C   0  0  0  0  0  0  0  0  0  0  0  0
   40.9530   32.1840   40.1930 C   0  0  0  0  0  0  0  0  0  0  0  0
   39.6500   31.7790   39.9920 C   0  0  0  0  0  0  0  0  0  0  0  0
   38.6300   32.7130   39.9390 C   0  0  0  0  0  0  0  0  0  0  0  0
   38.9050   34.0320   40.0850 C   0  0  0  0  0  0  0  0  0  0  0  0
   40.2150   34.4130   40.2860 C   0  0  0  0  0  0  0  0  0  0  0  0
   41.7590   31.4620   40.2350 H   0  0  0  0  0  0  0  0  0  0  0  0
   37.6150   32.3580   39.7780 H   0  0  0  0  0  0  0  0  0  0  0  0
   38.1020   34.7560   40.0420 H   0  0  0  0  0  0  0  0  0  0  0  0
   40.4310   35.4740   40.4030 H   0  0  0  0  0  0  0  0  0  0  0  0
   44.1720   34.9080   42.0590 C   0  0  0  0  0  0  0  0  0  0  0  0
   45.2250   34.7290   41.1310 C   0  0  0  0  0  0  0  0  0  0  0  0
   44.9250   34.1360   39.9200 C   0  0  0  0  0  0  0  0  0  0  0  0
   43.6470   33.7400   39.6410 N   0  0  0  0  0  0  0  0  0  0  0  0
   42.6600   33.9320   40.5670 C   0  0  0  0  0  0  0  0  0  0  0  0
   42.9280   34.5140   41.7700 N   0  0  0  0  0  0  0  0  0  0  0  0
   44.4460   35.3800   43.0050 H   0  0  0  0  0  0  0  0  0  0  0  0
   46.2370   35.0180   41.2930 H   0  0  0  0  0  0  0  0  0  0  0  0
   45.6180   33.9350   39.1180 H   0  0  0  0  0  0  0  0  0  0  0  0
  1 24  1  0  0  0  0
  1  2  1  0  0  0  0
  2  3  2  0  0  0  0
  2 11  1  0  0  0  0
  3  4  1  0  0  0  0
  4 12  1  0  0  0  0
  4  5  2  0  0  0  0
  6  5  1  0  0  0  0
  6  7  1  0  0  0  0
  7 13  1  0  0  0  0
  8  7  2  0  0  0  0
  8 14  1  0  0  0  0
  9  8  1  0  0  0  0
 10 11  1  0  0  0  0
 10  9  2  0  0  0  0
 11  6  2  0  0  0  0
 15  9  1  0  0  0  0
 16 21  1  0  0  0  0
 16 10  1  0  0  0  0
 17 16  1  0  0  0  0
 18 19  1  0  0  0  0
 18 17  1  0  0  0  0
 19 20  1  0  0  0  0
 20 21  1  0  0  0  0
 22 36  1  0  0  0  0
 23 28  1  0  0  0  0
 23 22  2  0  0  0  0
 24 23  1  0  0  0  0
 25 24  2  0  0  0  0
 25 26  1  0  0  0  0
 26 27  2  0  0  0  0
 27 22  1  0  0  0  0
 27 31  1  0  0  0  0
 29 25  1  0  0  0  0
 30 26  1  0  0  0  0
 32 38  1  0  0  0  0
 33 39  1  0  0  0  0
 33 32  2  0  0  0  0
 34 33  1  0  0  0  0
 35 34  2  0  0  0  0
 35 36  1  0  0  0  0
 36 37  2  0  0  0  0
 37 32  1  0  0  0  0
 40 34  1  0  0  0  0
M  END
>  <minimizedAffinity>
-6.68132401

$$$$

 OpenBabel03242516273D

 40 44  0  0  0  0  0  0  0  0999 V2000
   35.4060   28.9370   40.4950 S   0  0  0  0  0  0  0  0  0  0  0  0
   36.6880   30.0780   40.7100 C   0  0  0  0  0  0  0  0  0  0  0  0
   36.5900   31.3790   40.3520 N   0  0  0  0  0  0  0  0  0  0  0  0
   37.5650   32.2810   40.5040 C   0  0  0  0  0  0  0  0  0  0  0  0
   38.7150   31.8480   41.0550 N   0  0  0  0  0  0  0  0  0  0  0  0
   38.9030   30.5810   41.4400 C   0  0  0  0  0  0  0  0  0  0  0  0
   40.0950   30.1530   41.9920 C   0  0  0  0  0  0  0  0  0  0  0  0
   40.2590   28.8320   42.3640 C   0  0  0  0  0  0  0  0  0  0  0  0
   39.2380   27.9160   42.1910 C   0  0  0  0  0  0  0  0  0  0  0  0
   38.0370   28.3450   41.6360 C   0  0  0  0  0  0  0  0  0  0  0  0
   37.8710   29.6690   41.2650 C   0  0  0  0  0  0  0  0  0  0  0  0
   37.3540   33.2870   40.1740 H   0  0  0  0  0  0  0  0  0  0  0  0
   40.8250   30.9450   42.0830 H   0  0  0  0  0  0  0  0  0  0  0  0
   41.2570   28.7000   42.7750 H   0  0  0  0  0  0  0  0  0  0  0  0
   39.6260   27.0030   42.5580 H   0  0  0  0  0  0  0  0  0  0  0  0
   37.1010   27.2210   41.4470 C   0  0  0  0  0  3  0  0  0  0  0  0
   37.6420   26.3070   40.2780 C   0  0  0  0  0  2  0  0  0  0  0  0
   36.5530   25.2640   39.9830 C   0  0  0  0  0  2  0  0  0  0  0  0
   36.7110   24.2080   41.0450 C   0  0  0  0  0  2  0  0  0  0  0  0
   37.3730   24.8060   42.2310 C   0  0  0  0  0  2  0  0  0  0  0  0
   37.0000   26.2400   42.5330 C   0  0  0  0  0  2  0  0  0  0  0  0
   32.8920   29.2570   37.3850 C   0  0  0  0  0  0  0  0  0  0  0  0
   33.4410   29.2650   38.6560 C   0  0  0  0  0  0  0  0  0  0  0  0
   34.7700   28.9530   38.8490 C   0  0  0  0  0  0  0  0  0  0  0  0
   35.5750   28.6290   37.7700 C   0  0  0  0  0  0  0  0  0  0  0  0
   35.0600   28.6140   36.5170 C   0  0  0  0  0  0  0  0  0  0  0  0
   33.7280   28.9290   36.3490 C   0  0  0  0  0  0  0  0  0  0  0  0
   32.8030   29.5220   39.4930 H   0  0  0  0  0  0  0  0  0  0  0  0
   36.6180   28.3890   37.9600 H   0  0  0  0  0  0  0  0  0  0  0  0
   35.6950   28.3600   35.6790 H   0  0  0  0  0  0  0  0  0  0  0  0
   33.3190   28.9150   35.3390 H   0  0  0  0  0  0  0  0  0  0  0  0
   29.5060   30.3120   38.2570 C   0  0  0  0  0  0  0  0  0  0  0  0
   28.8070   30.2460   37.0290 C   0  0  0  0  0  0  0  0  0  0  0  0
   29.5050   29.8370   35.9100 C   0  0  0  0  0  0  0  0  0  0  0  0
   30.8280   29.5090   35.9990 N   0  0  0  0  0  0  0  0  0  0  0  0
   31.4660   29.5870   37.2070 C   0  0  0  0  0  0  0  0  0  0  0  0
   30.8010   29.9880   38.3280 N   0  0  0  0  0  0  0  0  0  0  0  0
   28.9240   30.6390   39.1210 H   0  0  0  0  0  0  0  0  0  0  0  0
   27.7780   30.4890   36.8990 H   0  0  0  0  0  0  0  0  0  0  0  0
   29.1080   29.7380   34.9110 H   0  0  0  0  0  0  0  0  0  0  0  0
  1  2  1  0  0  0  0
  2 11  1  0  0  0  0
  3  4  1  0  0  0  0
  3  2  2  0  0  0  0
  4  5  2  0  0  0  0
  5  6  1  0  0  0  0
  6  7  1  0  0  0  0
  7 13  1  0  0  0  0
  7  8  2  0  0  0  0
  8 14  1  0  0  0  0
  9  8  1  0  0  0  0
  9 15  1  0  0  0  0
 10  9  2  0  0  0  0
 11  6  2  0  0  0  0
 11 10  1  0  0  0  0
 12  4  1  0  0  0  0
 16 10  1  0  0  0  0
 16 21  1  0  0  0  0
 17 16  1  0  0  0  0
 18 17  1  0  0  0  0
 18 19  1  0  0  0  0
 19 20  1  0  0  0  0
 20 21  1  0  0  0  0
 22 23  1  0  0  0  0
 23 24  2  0  0  0  0
 23 28  1  0  0  0  0
 24  1  1  0  0  0  0
 25 29  1  0  0  0  0
 25 24  1  0  0  0  0
 26 25  2  0  0  0  0
 27 26  1  0  0  0  0
 27 22  2  0  0  0  0
 30 26  1  0  0  0  0
 31 27  1  0  0  0  0
 32 37  1  0  0  0  0
 32 38  1  0  0  0  0
 33 32  2  0  0  0  0
 34 35  2  0  0  0  0
 34 33  1  0  0  0  0
 35 36  1  0  0  0  0
 36 22  1  0  0  0  0
 36 37  2  0  0  0  0
 39 33  1  0  0  0  0
 40 34  1  0  0  0  0
M  END
>  <minimizedAffinity>
-6.65557623

$$$$

 OpenBabel03242516273D

 40 44  0  0  0  0  0  0  0  0999 V2000
   36.2070   30.2480   40.8310 S   0  0  0  0  0  0  0  0  0  0  0  0
   36.7880   28.8970   41.7420 C   0  0  0  0  0  0  0  0  0  0  0  0
   37.2310   28.9970   43.0160 N   0  0  0  0  0  0  0  0  0  0  0  0
   37.6870   27.9710   43.7420 C   0  0  0  0  0  0  0  0  0  0  0  0
   37.6960   26.7620   43.1490 N   0  0  0  0  0  0  0  0  0  0  0  0
   37.2770   26.5670   41.8940 C   0  0  0  0  0  0  0  0  0  0  0  0
   37.3060   25.3200   41.2990 C   0  0  0  0  0  0  0  0  0  0  0  0
   36.8790   25.1580   39.9940 C   0  0  0  0  0  0  0  0  0  0  0  0
   36.4170   26.2360   39.2620 C   0  0  0  0  0  0  0  0  0  0  0  0
   36.3870   27.4920   39.8600 C   0  0  0  0  0  0  0  0  0  0  0  0
   36.8120   27.6540   41.1680 C   0  0  0  0  0  0  0  0  0  0  0  0
   38.0120   28.1920   44.7480 H   0  0  0  0  0  0  0  0  0  0  0  0
   37.6830   24.5490   41.9560 H   0  0  0  0  0  0  0  0  0  0  0  0
   36.9790   24.1120   39.7150 H   0  0  0  0  0  0  0  0  0  0  0  0
   36.1580   25.8330   38.3180 H   0  0  0  0  0  0  0  0  0  0  0  0
   35.9510   28.5300   38.9060 C   0  0  0  0  0  3  0  0  0  0  0  0
   37.0010   28.6050   37.7290 C   0  0  0  0  0  2  0  0  0  0  0  0
   36.6200   29.8170   36.8650 C   0  0  0  0  0  2  0  0  0  0  0  0
   35.4910   29.3450   35.9890 C   0  0  0  0  0  2  0  0  0  0  0  0
   34.8100   28.2020   36.6460 C   0  0  0  0  0  2  0  0  0  0  0  0
   34.7180   28.2760   38.1540 C   0  0  0  0  0  2  0  0  0  0  0  0
   39.6910   32.2280   41.0300 C   0  0  0  0  0  0  0  0  0  0  0  0
   38.6950   31.2740   41.1580 C   0  0  0  0  0  0  0  0  0  0  0  0
   37.4510   31.4770   40.5990 C   0  0  0  0  0  0  0  0  0  0  0  0
   37.1820   32.6410   39.8990 C   0  0  0  0  0  0  0  0  0  0  0  0
   38.1410   33.5890   39.7610 C   0  0  0  0  0  0  0  0  0  0  0  0
   39.3770   33.3640   40.3290 C   0  0  0  0  0  0  0  0  0  0  0  0
   38.9170   30.3670   41.7070 H   0  0  0  0  0  0  0  0  0  0  0  0
   36.1910   32.7670   39.4710 H   0  0  0  0  0  0  0  0  0  0  0  0
   37.9230   34.4950   39.2120 H   0  0  0  0  0  0  0  0  0  0  0  0
   40.1430   34.1300   40.2140 H   0  0  0  0  0  0  0  0  0  0  0  0
   43.2950   32.4840   41.5610 C   0  0  0  0  0  0  0  0  0  0  0  0
   43.5280   31.6560   42.6850 C   0  0  0  0  0  0  0  0  0  0  0  0
   42.4440   31.0130   43.2500 C   0  0  0  0  0  0  0  0  0  0  0  0
   41.1910   31.1800   42.7310 N   0  0  0  0  0  0  0  0  0  0  0  0
   41.0100   31.9900   41.6440 C   0  0  0  0  0  0  0  0  0  0  0  0
   42.0620   32.6370   41.0660 N   0  0  0  0  0  0  0  0  0  0  0  0
   44.1740   32.9760   41.1400 H   0  0  0  0  0  0  0  0  0  0  0  0
   44.4800   31.4880   43.1310 H   0  0  0  0  0  0  0  0  0  0  0  0
   42.4660   30.3540   44.1040 H   0  0  0  0  0  0  0  0  0  0  0  0
  1  2  1  0  0  0  0
  2  3  1  0  0  0  0
  3  4  2  0  0  0  0
  4 12  1  0  0  0  0
  5  4  1  0  0  0  0
  6  5  2  0  0  0  0
  7  6  1  0  0  0  0
  7 13  1  0  0  0  0
  8  7  2  0  0  0  0
  9 10  2  0  0  0  0
  9  8  1  0  0  0  0
 10 11  1  0  0  0  0
 11  2  2  0  0  0  0
 11  6  1  0  0  0  0
 14  8  1  0  0  0  0
 15  9  1  0  0  0  0
 16 10  1  0  0  0  0
 17 16  1  0  0  0  0
 18 17  1  0  0  0  0
 19 20  1  0  0  0  0
 19 18  1  0  0  0  0
 20 21  1  0  0  0  0
 21 16  1  0  0  0  0
 22 23  1  0  0  0  0
 22 36  1  0  0  0  0
 23 28  1  0  0  0  0
 24  1  1  0  0  0  0
 24 23  2  0  0  0  0
 25 24  1  0  0  0  0
 26 25  2  0  0  0  0
 26 27  1  0  0  0  0
 27 22  2  0  0  0  0
 29 25  1  0  0  0  0
 30 26  1  0  0  0  0
 31 27  1  0  0  0  0
 32 33  1  0  0  0  0
 33 39  1  0  0  0  0
 33 34  2  0  0  0  0
 34 40  1  0  0  0  0
 35 34  1  0  0  0  0
 36 35  2  0  0  0  0
 37 32  2  0  0  0  0
 37 36  1  0  0  0  0
 38 32  1  0  0  0  0
M  END
>  <minimizedAffinity>
-6.65059519

$$$$

 OpenBabel03242516273D

 40 44  0  0  0  0  0  0  0  0999 V2000
   36.3080   30.4580   40.4990 S   0  0  0  0  0  0  0  0  0  0  0  0
   36.8580   29.1540   41.4940 C   0  0  0  0  0  0  0  0  0  0  0  0
   37.3680   29.3320   42.7340 N   0  0  0  0  0  0  0  0  0  0  0  0
   37.8020   28.3430   43.5230 C   0  0  0  0  0  0  0  0  0  0  0  0
   37.7170   27.0910   43.0330 N   0  0  0  0  0  0  0  0  0  0  0  0
   37.2270   26.8200   41.8180 C   0  0  0  0  0  0  0  0  0  0  0  0
   37.1600   25.5290   41.3280 C   0  0  0  0  0  0  0  0  0  0  0  0
   36.6620   25.2870   40.0620 C   0  0  0  0  0  0  0  0  0  0  0  0
   36.2240   26.3270   39.2630 C   0  0  0  0  0  0  0  0  0  0  0  0
   36.2910   27.6270   39.7540 C   0  0  0  0  0  0  0  0  0  0  0  0
   36.7880   27.8700   41.0240 C   0  0  0  0  0  0  0  0  0  0  0  0
   38.1870   28.6250   44.4910 H   0  0  0  0  0  0  0  0  0  0  0  0
   37.5260   24.7930   42.0300 H   0  0  0  0  0  0  0  0  0  0  0  0
   36.6920   24.2180   39.8660 H   0  0  0  0  0  0  0  0  0  0  0  0
   35.8970   25.8650   38.3680 H   0  0  0  0  0  0  0  0  0  0  0  0
   35.8660   28.6080   38.7380 C   0  0  0  0  0  3  0  0  0  0  0  0
   36.7370   28.3940   37.4380 C   0  0  0  0  0  2  0  0  0  0  0  0
   36.4020   29.5480   36.4800 C   0  0  0  0  0  2  0  0  0  0  0  0
   35.1050   29.1580   35.8210 C   0  0  0  0  0  2  0  0  0  0  0  0
   34.3780   28.2100   36.7020 C   0  0  0  0  0  2  0  0  0  0  0  0
   34.5140   28.4620   38.1870 C   0  0  0  0  0  2  0  0  0  0  0  0
   39.6950   31.7270   38.7630 C   0  0  0  0  0  0  0  0  0  0  0  0
   38.6190   30.9570   39.1720 C   0  0  0  0  0  0  0  0  0  0  0  0
   37.6330   31.4960   39.9710 C   0  0  0  0  0  0  0  0  0  0  0  0
   37.7070   32.8190   40.3730 C   0  0  0  0  0  0  0  0  0  0  0  0
   38.7500   33.5920   39.9850 C   0  0  0  0  0  0  0  0  0  0  0  0
   39.7240   33.0300   39.1870 C   0  0  0  0  0  0  0  0  0  0  0  0
   38.5710   29.9240   38.8510 H   0  0  0  0  0  0  0  0  0  0  0  0
   36.9110   33.2120   41.0020 H   0  0  0  0  0  0  0  0  0  0  0  0
   38.8000   34.6250   40.3030 H   0  0  0  0  0  0  0  0  0  0  0  0
   40.5600   33.6560   38.8780 H   0  0  0  0  0  0  0  0  0  0  0  0
   41.5160   29.1580   36.9130 C   0  0  0  0  0  0  0  0  0  0  0  0
   42.6040   29.8610   36.3440 C   0  0  0  0  0  0  0  0  0  0  0  0
   42.7050   31.2140   36.6030 C   0  0  0  0  0  0  0  0  0  0  0  0
   41.7770   31.8410   37.3850 N   0  0  0  0  0  0  0  0  0  0  0  0
   40.7400   31.1240   37.9150 C   0  0  0  0  0  0  0  0  0  0  0  0
   40.6160   29.7870   37.6760 N   0  0  0  0  0  0  0  0  0  0  0  0
   41.4670   28.0910   36.6880 H   0  0  0  0  0  0  0  0  0  0  0  0
   43.3560   29.4270   35.7280 H   0  0  0  0  0  0  0  0  0  0  0  0
   43.4750   31.8780   36.2410 H   0  0  0  0  0  0  0  0  0  0  0  0
  1  2  1  0  0  0  0
  2  3  1  0  0  0  0
  3  4  2  0  0  0  0
  4 12  1  0  0  0  0
  5  4  1  0  0  0  0
  6  5  2  0  0  0  0
  7  6  1  0  0  0  0
  7 13  1  0  0  0  0
  8  7  2  0  0  0  0
  9 10  2  0  0  0  0
  9  8  1  0  0  0  0
 10 11  1  0  0  0  0
 11  2  2  0  0  0  0
 11  6  1  0  0  0  0
 14  8  1  0  0  0  0
 15  9  1  0  0  0  0
 16 10  1  0  0  0  0
 17 16  1  0  0  0  0
 18 17  1  0  0  0  0
 19 18  1  0  0  0  0
 19 20  1  0  0  0  0
 20 21  1  0  0  0  0
 21 16  1  0  0  0  0
 22 23  2  0  0  0  0
 22 27  1  0  0  0  0
 23 24  1  0  0  0  0
 24 25  2  0  0  0  0
 24  1  1  0  0  0  0
 25 29  1  0  0  0  0
 26 30  1  0  0  0  0
 26 25  1  0  0  0  0
 27 26  2  0  0  0  0
 28 23  1  0  0  0  0
 31 27  1  0  0  0  0
 32 37  1  0  0  0  0
 33 34  1  0  0  0  0
 33 32  2  0  0  0  0
 34 35  2  0  0  0  0
 35 36  1  0  0  0  0
 36 22  1  0  0  0  0
 37 36  2  0  0  0  0
 38 32  1  0  0  0  0
 39 33  1  0  0  0  0
 40 34  1  0  0  0  0
M  END
>  <minimizedAffinity>
-6.61823177

$$$$

 OpenBabel03242516273D

 40 44  0  0  0  0  0  0  0  0999 V2000
   37.8130   28.6870   43.0040 S   0  0  0  0  0  0  0  0  0  0  0  0
   36.9950   29.1410   41.5500 C   0  0  0  0  0  0  0  0  0  0  0  0
   35.7440   28.7300   41.2430 N   0  0  0  0  0  0  0  0  0  0  0  0
   35.0890   29.0640   40.1260 C   0  0  0  0  0  0  0  0  0  0  0  0
   35.7360   29.8670   39.2580 N   0  0  0  0  0  0  0  0  0  0  0  0
   36.9740   30.3220   39.4770 C   0  0  0  0  0  0  0  0  0  0  0  0
   37.6250   31.1350   38.5680 C   0  0  0  0  0  0  0  0  0  0  0  0
   38.9110   31.5740   38.8200 C   0  0  0  0  0  0  0  0  0  0  0  0
   39.5690   31.2110   39.9800 C   0  0  0  0  0  0  0  0  0  0  0  0
   38.9150   30.3930   40.8960 C   0  0  0  0  0  0  0  0  0  0  0  0
   37.6250   29.9540   40.6460 C   0  0  0  0  0  0  0  0  0  0  0  0
   34.0940   28.6640   40.0060 H   0  0  0  0  0  0  0  0  0  0  0  0
   37.0250   31.3590   37.6980 H   0  0  0  0  0  0  0  0  0  0  0  0
   39.2420   32.1970   37.9930 H   0  0  0  0  0  0  0  0  0  0  0  0
   40.5150   31.6820   39.9170 H   0  0  0  0  0  0  0  0  0  0  0  0
   39.7960   30.0390   42.0250 C   0  0  0  0  0  3  0  0  0  0  0  0
   41.1080   29.3720   41.4490 C   0  0  0  0  0  2  0  0  0  0  0  0
   41.9070   28.8470   42.6510 C   0  0  0  0  0  2  0  0  0  0  0  0
   42.6200   30.0480   43.2140 C   0  0  0  0  0  2  0  0  0  0  0  0
   41.8770   31.2760   42.8370 C   0  0  0  0  0  2  0  0  0  0  0  0
   40.3710   31.1430   42.8010 C   0  0  0  0  0  2  0  0  0  0  0  0
   38.3110   24.8400   41.9780 C   0  0  0  0  0  0  0  0  0  0  0  0
   37.8660   26.1500   42.0490 C   0  0  0  0  0  0  0  0  0  0  0  0
   38.4480   27.0430   42.9240 C   0  0  0  0  0  0  0  0  0  0  0  0
   39.4890   26.6390   43.7430 C   0  0  0  0  0  0  0  0  0  0  0  0
   39.9410   25.3630   43.6910 C   0  0  0  0  0  0  0  0  0  0  0  0
   39.3440   24.4880   42.8090 C   0  0  0  0  0  0  0  0  0  0  0  0
   37.0530   26.4550   41.4030 H   0  0  0  0  0  0  0  0  0  0  0  0
   39.9250   27.3700   44.4200 H   0  0  0  0  0  0  0  0  0  0  0  0
   40.7550   25.0560   44.3340 H   0  0  0  0  0  0  0  0  0  0  0  0
   39.7110   23.4630   42.7710 H   0  0  0  0  0  0  0  0  0  0  0  0
   35.7640   23.4650   39.7520 C   0  0  0  0  0  0  0  0  0  0  0  0
   36.3440   22.2640   39.2790 C   0  0  0  0  0  0  0  0  0  0  0  0
   37.6060   21.9340   39.7320 C   0  0  0  0  0  0  0  0  0  0  0  0
   38.2640   22.7510   40.6080 N   0  0  0  0  0  0  0  0  0  0  0  0
   37.6660   23.9030   41.0390 C   0  0  0  0  0  0  0  0  0  0  0  0
   36.4210   24.2530   40.6090 N   0  0  0  0  0  0  0  0  0  0  0  0
   34.7660   23.6940   39.3740 H   0  0  0  0  0  0  0  0  0  0  0  0
   35.8800   21.5890   38.5980 H   0  0  0  0  0  0  0  0  0  0  0  0
   38.1730   21.0560   39.4620 H   0  0  0  0  0  0  0  0  0  0  0  0
  2  1  1  0  0  0  0
  3  2  1  0  0  0  0
  4  3  2  0  0  0  0
  5  6  2  0  0  0  0
  5  4  1  0  0  0  0
  6 11  1  0  0  0  0
  7  8  2  0  0  0  0
  7  6  1  0  0  0  0
  8  9  1  0  0  0  0
  9 10  2  0  0  0  0
 10 16  1  0  0  0  0
 11 10  1  0  0  0  0
 11  2  2  0  0  0  0
 12  4  1  0  0  0  0
 13  7  1  0  0  0  0
 14  8  1  0  0  0  0
 15  9  1  0  0  0  0
 16 21  1  0  0  0  0
 17 16  1  0  0  0  0
 17 18  1  0  0  0  0
 18 19  1  0  0  0  0
 20 19  1  0  0  0  0
 21 20  1  0  0  0  0
 22 23  2  0  0  0  0
 22 27  1  0  0  0  0
 23 24  1  0  0  0  0
 24  1  1  0  0  0  0
 24 25  2  0  0  0  0
 25 29  1  0  0  0  0
 26 25  1  0  0  0  0
 26 30  1  0  0  0  0
 27 26  2  0  0  0  0
 28 23  1  0  0  0  0
 31 27  1  0  0  0  0
 32 37  1  0  0  0  0
 33 34  1  0  0  0  0
 33 32  2  0  0  0  0
 34 35  2  0  0  0  0
 35 36  1  0  0  0  0
 36 22  1  0  0  0  0
 37 36  2  0  0  0  0
 38 32  1  0  0  0  0
 39 33  1  0  0  0  0
 40 34  1  0  0  0  0
M  END
>  <minimizedAffinity>
-6.5905261

$$$$

 OpenBabel03242516273D

 40 44  0  0  0  0  0  0  0  0999 V2000
   39.0650   30.2990   39.6070 S   0  0  0  0  0  0  0  0  0  0  0  0
   39.6390   29.5070   41.0330 C   0  0  0  0  0  0  0  0  0  0  0  0
   40.9180   29.5920   41.4650 N   0  0  0  0  0  0  0  0  0  0  0  0
   41.3890   28.9890   42.5610 C   0  0  0  0  0  0  0  0  0  0  0  0
   40.5150   28.2510   43.2740 N   0  0  0  0  0  0  0  0  0  0  0  0
   39.2320   28.1090   42.9240 C   0  0  0  0  0  0  0  0  0  0  0  0
   38.3540   27.3380   43.6610 C   0  0  0  0  0  0  0  0  0  0  0  0
   37.0380   27.2020   43.2620 C   0  0  0  0  0  0  0  0  0  0  0  0
   36.5760   27.8310   42.1200 C   0  0  0  0  0  0  0  0  0  0  0  0
   37.4590   28.6080   41.3770 C   0  0  0  0  0  0  0  0  0  0  0  0
   38.7770   28.7470   41.7780 C   0  0  0  0  0  0  0  0  0  0  0  0
   42.4330   29.1400   42.7910 H   0  0  0  0  0  0  0  0  0  0  0  0
   38.8150   26.8920   44.5310 H   0  0  0  0  0  0  0  0  0  0  0  0
   36.5160   26.5620   43.9690 H   0  0  0  0  0  0  0  0  0  0  0  0
   35.5540   27.5640   42.0560 H   0  0  0  0  0  0  0  0  0  0  0  0
   36.8180   29.1270   40.1530 C   0  0  0  0  0  3  0  0  0  0  0  0
   36.4260   27.9040   39.2340 C   0  0  0  0  0  2  0  0  0  0  0  0
   35.9420   28.4860   37.8970 C   0  0  0  0  0  2  0  0  0  0  0  0
   34.5190   28.9150   38.1390 C   0  0  0  0  0  2  0  0  0  0  0  0
   34.3290   29.1750   39.5880 C   0  0  0  0  0  2  0  0  0  0  0  0
   35.5140   29.7820   40.3040 C   0  0  0  0  0  2  0  0  0  0  0  0
   42.1810   32.0350   37.7710 C   0  0  0  0  0  0  0  0  0  0  0  0
   41.2490   31.1170   38.2250 C   0  0  0  0  0  0  0  0  0  0  0  0
   40.1980   31.5180   39.0220 C   0  0  0  0  0  0  0  0  0  0  0  0
   40.0600   32.8490   39.3770 C   0  0  0  0  0  0  0  0  0  0  0  0
   40.9600   33.7660   38.9450 C   0  0  0  0  0  0  0  0  0  0  0  0
   42.0030   33.3410   38.1500 C   0  0  0  0  0  0  0  0  0  0  0  0
   41.3660   30.0790   37.9400 H   0  0  0  0  0  0  0  0  0  0  0  0
   39.2180   33.1290   40.0050 H   0  0  0  0  0  0  0  0  0  0  0  0
   40.8450   34.8040   39.2270 H   0  0  0  0  0  0  0  0  0  0  0  0
   42.7230   34.0830   37.8060 H   0  0  0  0  0  0  0  0  0  0  0  0
   45.5640   31.8570   36.4080 C   0  0  0  0  0  0  0  0  0  0  0  0
   45.4830   30.8300   35.4380 C   0  0  0  0  0  0  0  0  0  0  0  0
   44.2630   30.2080   35.2580 C   0  0  0  0  0  0  0  0  0  0  0  0
   43.1780   30.5820   36.0000 N   0  0  0  0  0  0  0  0  0  0  0  0
   43.3010   31.5790   36.9270 C   0  0  0  0  0  0  0  0  0  0  0  0
   44.4930   32.2100   37.1260 N   0  0  0  0  0  0  0  0  0  0  0  0
   46.5430   32.3270   36.5240 H   0  0  0  0  0  0  0  0  0  0  0  0
   46.2920   30.4970   34.8320 H   0  0  0  0  0  0  0  0  0  0  0  0
   44.0480   29.4130   34.5610 H   0  0  0  0  0  0  0  0  0  0  0  0
  1  2  1  0  0  0  0
  2  3  2  0  0  0  0
  2 11  1  0  0  0  0
  3  4  1  0  0  0  0
  4 12  1  0  0  0  0
  4  5  2  0  0  0  0
  6  5  1  0  0  0  0
  6  7  1  0  0  0  0
  7 13  1  0  0  0  0
  8  7  2  0  0  0  0
  8 14  1  0  0  0  0
  9  8  1  0  0  0  0
 10 11  1  0  0  0  0
 10  9  2  0  0  0  0
 11  6  2  0  0  0  0
 15  9  1  0  0  0  0
 16 21  1  0  0  0  0
 16 10  1  0  0  0  0
 17 16  1  0  0  0  0
 18 19  1  0  0  0  0
 18 17  1  0  0  0  0
 19 20  1  0  0  0  0
 20 21  1  0  0  0  0
 22 27  2  0  0  0  0
 22 23  1  0  0  0  0
 23 24  2  0  0  0  0
 24 25  1  0  0  0  0
 24  1  1  0  0  0  0
 25 29  1  0  0  0  0
 26 30  1  0  0  0  0
 26 25  2  0  0  0  0
 27 26  1  0  0  0  0
 28 23  1  0  0  0  0
 31 27  1  0  0  0  0
 32 38  1  0  0  0  0
 32 37  1  0  0  0  0
 33 32  2  0  0  0  0
 34 33  1  0  0  0  0
 34 35  2  0  0  0  0
 35 36  1  0  0  0  0
 36 37  2  0  0  0  0
 36 22  1  0  0  0  0
 39 33  1  0  0  0  0
 40 34  1  0  0  0  0
M  END
>  <minimizedAffinity>
-6.52494049

$$$$

 OpenBabel03242516273D

 40 44  0  0  0  0  0  0  0  0999 V2000
   35.9700   27.9040   39.4740 S   0  0  0  0  0  0  0  0  0  0  0  0
   36.1300   26.3690   38.6920 C   0  0  0  0  0  0  0  0  0  0  0  0
   35.5520   26.0790   37.5040 N   0  0  0  0  0  0  0  0  0  0  0  0
   35.6570   24.9010   36.8790 C   0  0  0  0  0  0  0  0  0  0  0  0
   36.3940   23.9520   37.4880 N   0  0  0  0  0  0  0  0  0  0  0  0
   37.0010   24.1490   38.6640 C   0  0  0  0  0  0  0  0  0  0  0  0
   37.7420   23.1570   39.2790 C   0  0  0  0  0  0  0  0  0  0  0  0
   38.3430   23.3910   40.5010 C   0  0  0  0  0  0  0  0  0  0  0  0
   38.2160   24.6150   41.1300 C   0  0  0  0  0  0  0  0  0  0  0  0
   37.4700   25.6150   40.5120 C   0  0  0  0  0  0  0  0  0  0  0  0
   36.8690   25.3820   39.2860 C   0  0  0  0  0  0  0  0  0  0  0  0
   35.1440   24.8030   35.9340 H   0  0  0  0  0  0  0  0  0  0  0  0
   37.7790   22.2420   38.7050 H   0  0  0  0  0  0  0  0  0  0  0  0
   38.8760   22.4960   40.8120 H   0  0  0  0  0  0  0  0  0  0  0  0
   38.7690   24.5200   42.0270 H   0  0  0  0  0  0  0  0  0  0  0  0
   37.3700   26.8150   41.3640 C   0  0  0  0  0  3  0  0  0  0  0  0
   36.8060   26.3840   42.7750 C   0  0  0  0  0  2  0  0  0  0  0  0
   36.5360   27.6760   43.5620 C   0  0  0  0  0  2  0  0  0  0  0  0
   37.8760   28.1070   44.0960 C   0  0  0  0  0  2  0  0  0  0  0  0
   38.9460   27.5440   43.2350 C   0  0  0  0  0  2  0  0  0  0  0  0
   38.6240   27.4640   41.7600 C   0  0  0  0  0  2  0  0  0  0  0  0
   37.8220   31.3010   38.4110 C   0  0  0  0  0  0  0  0  0  0  0  0
   37.3160   30.2320   39.1330 C   0  0  0  0  0  0  0  0  0  0  0  0
   36.6290   29.2180   38.4990 C   0  0  0  0  0  0  0  0  0  0  0  0
   36.4380   29.2560   37.1280 C   0  0  0  0  0  0  0  0  0  0  0  0
   36.9240   30.2910   36.4010 C   0  0  0  0  0  0  0  0  0  0  0  0
   37.6060   31.2940   37.0560 C   0  0  0  0  0  0  0  0  0  0  0  0
   37.4730   30.2130   40.2040 H   0  0  0  0  0  0  0  0  0  0  0  0
   35.8930   28.4390   36.6620 H   0  0  0  0  0  0  0  0  0  0  0  0
   36.7700   30.3120   35.3300 H   0  0  0  0  0  0  0  0  0  0  0  0
   37.9940   32.1230   36.4670 H   0  0  0  0  0  0  0  0  0  0  0  0
   40.5850   33.4950   39.3510 C   0  0  0  0  0  0  0  0  0  0  0  0
   40.0200   34.3480   40.3280 C   0  0  0  0  0  0  0  0  0  0  0  0
   38.6920   34.1610   40.6580 C   0  0  0  0  0  0  0  0  0  0  0  0
   37.9590   33.1790   40.0530 N   0  0  0  0  0  0  0  0  0  0  0  0
   38.5450   32.3760   39.1140 C   0  0  0  0  0  0  0  0  0  0  0  0
   39.8540   32.5390   38.7680 N   0  0  0  0  0  0  0  0  0  0  0  0
   41.6370   33.6710   39.1150 H   0  0  0  0  0  0  0  0  0  0  0  0
   40.5410   35.1280   40.8320 H   0  0  0  0  0  0  0  0  0  0  0  0
   38.1270   34.7300   41.3800 H   0  0  0  0  0  0  0  0  0  0  0  0
  2 11  1  0  0  0  0
  2  1  1  0  0  0  0
  3  2  2  0  0  0  0
  4  5  2  0  0  0  0
  4  3  1  0  0  0  0
  5  6  1  0  0  0  0
  6  7  2  0  0  0  0
  6 11  1  0  0  0  0
  7  8  1  0  0  0  0
  8 14  1  0  0  0  0
  8  9  2  0  0  0  0
  9 15  1  0  0  0  0
 10  9  1  0  0  0  0
 10 16  1  0  0  0  0
 11 10  2  0  0  0  0
 12  4  1  0  0  0  0
 13  7  1  0  0  0  0
 16 21  1  0  0  0  0
 16 17  1  0  0  0  0
 17 18  1  0  0  0  0
 18 19  1  0  0  0  0
 20 19  1  0  0  0  0
 21 20  1  0  0  0  0
 22 36  1  0  0  0  0
 22 23  1  0  0  0  0
 23 28  1  0  0  0  0
 24 23  2  0  0  0  0
 24  1  1  0  0  0  0
 25 24  1  0  0  0  0
 26 27  1  0  0  0  0
 26 25  2  0  0  0  0
 27 22  2  0  0  0  0
 29 25  1  0  0  0  0
 30 26  1  0  0  0  0
 31 27  1  0  0  0  0
 32 33  1  0  0  0  0
 33 34  2  0  0  0  0
 33 39  1  0  0  0  0
 34 40  1  0  0  0  0
 35 34  1  0  0  0  0
 36 35  2  0  0  0  0
 37 36  1  0  0  0  0
 37 32  2  0  0  0  0
 38 32  1  0  0  0  0
M  END
>  <minimizedAffinity>
-6.51643133

$$$$

 OpenBabel03242516273D

 40 44  0  0  0  0  0  0  0  0999 V2000
   35.9550   28.3090   39.9550 S   0  0  0  0  0  0  0  0  0  0  0  0
   36.9290   28.0670   41.3640 C   0  0  0  0  0  0  0  0  0  0  0  0
   37.0830   29.0030   42.3290 N   0  0  0  0  0  0  0  0  0  0  0  0
   37.8310   28.8430   43.4250 C   0  0  0  0  0  0  0  0  0  0  0  0
   38.4650   27.6620   43.5640 N   0  0  0  0  0  0  0  0  0  0  0  0
   38.3710   26.6790   42.6620 C   0  0  0  0  0  0  0  0  0  0  0  0
   39.0400   25.4800   42.8160 C   0  0  0  0  0  0  0  0  0  0  0  0
   38.9320   24.4910   41.8560 C   0  0  0  0  0  0  0  0  0  0  0  0
   38.1570   24.6820   40.7270 C   0  0  0  0  0  0  0  0  0  0  0  0
   37.4830   25.8890   40.5710 C   0  0  0  0  0  0  0  0  0  0  0  0
   37.5890   26.8790   41.5340 C   0  0  0  0  0  0  0  0  0  0  0  0
   37.8680   29.6720   44.1150 H   0  0  0  0  0  0  0  0  0  0  0  0
   39.6160   25.4330   43.7290 H   0  0  0  0  0  0  0  0  0  0  0  0
   39.5270   23.6330   42.1600 H   0  0  0  0  0  0  0  0  0  0  0  0
   38.2490   23.7820   40.1780 H   0  0  0  0  0  0  0  0  0  0  0  0
   36.7820   25.9480   39.2740 C   0  0  0  0  0  3  0  0  0  0  0  0
   37.8440   25.7720   38.1190 C   0  0  0  0  0  2  0  0  0  0  0  0
   37.1110   26.0300   36.7940 C   0  0  0  0  0  2  0  0  0  0  0  0
   36.3830   24.7500   36.4830 C   0  0  0  0  0  2  0  0  0  0  0  0
   36.1490   24.0040   37.7450 C   0  0  0  0  0  2  0  0  0  0  0  0
   35.8550   24.8540   38.9600 C   0  0  0  0  0  2  0  0  0  0  0  0
   37.8670   31.5540   38.5730 C   0  0  0  0  0  0  0  0  0  0  0  0
   37.3300   30.5770   39.3950 C   0  0  0  0  0  0  0  0  0  0  0  0
   36.6560   29.5010   38.8590 C   0  0  0  0  0  0  0  0  0  0  0  0
   36.5090   29.3820   37.4880 C   0  0  0  0  0  0  0  0  0  0  0  0
   37.0250   30.3250   36.6640 C   0  0  0  0  0  0  0  0  0  0  0  0
   37.6950   31.3930   37.2220 C   0  0  0  0  0  0  0  0  0  0  0  0
   37.4520   30.6790   40.4660 H   0  0  0  0  0  0  0  0  0  0  0  0
   35.9720   28.5200   37.1000 H   0  0  0  0  0  0  0  0  0  0  0  0
   36.9060   30.2250   35.5930 H   0  0  0  0  0  0  0  0  0  0  0  0
   38.1080   32.1480   36.5550 H   0  0  0  0  0  0  0  0  0  0  0  0
   40.6410   33.7640   39.4420 C   0  0  0  0  0  0  0  0  0  0  0  0
   40.0310   34.7830   40.2120 C   0  0  0  0  0  0  0  0  0  0  0  0
   38.6700   34.6990   40.4300 C   0  0  0  0  0  0  0  0  0  0  0  0
   37.9470   33.6620   39.9120 N   0  0  0  0  0  0  0  0  0  0  0  0
   38.5760   32.7000   39.1720 C   0  0  0  0  0  0  0  0  0  0  0  0
   39.9190   32.7570   38.9410 N   0  0  0  0  0  0  0  0  0  0  0  0
   41.7180   33.8610   39.2890 H   0  0  0  0  0  0  0  0  0  0  0  0
   40.5430   35.6120   40.6410 H   0  0  0  0  0  0  0  0  0  0  0  0
   38.0700   35.3970   40.9940 H   0  0  0  0  0  0  0  0  0  0  0  0
  1  2  1  0  0  0  0
  2 11  2  0  0  0  0
  2  3  1  0  0  0  0
  3  4  2  0  0  0  0
  4  5  1  0  0  0  0
  4 12  1  0  0  0  0
  6  7  1  0  0  0  0
  6  5  2  0  0  0  0
  7 13  1  0  0  0  0
  8 14  1  0  0  0  0
  8  7  2  0  0  0  0
  9  8  1  0  0  0  0
 10  9  2  0  0  0  0
 10 11  1  0  0  0  0
 11  6  1  0  0  0  0
 15  9  1  0  0  0  0
 16 10  1  0  0  0  0
 17 16  1  0  0  0  0
 18 17  1  0  0  0  0
 19 18  1  0  0  0  0
 19 20  1  0  0  0  0
 20 21  1  0  0  0  0
 21 16  1  0  0  0  0
 22 36  1  0  0  0  0
 22 23  1  0  0  0  0
 23 28  1  0  0  0  0
 24 23  2  0  0  0  0
 24  1  1  0  0  0  0
 25 24  1  0  0  0  0
 26 27  1  0  0  0  0
 26 25  2  0  0  0  0
 27 22  2  0  0  0  0
 29 25  1  0  0  0  0
 30 26  1  0  0  0  0
 31 27  1  0  0  0  0
 32 33  1  0  0  0  0
 33 34  2  0  0  0  0
 33 39  1  0  0  0  0
 34 40  1  0  0  0  0
 35 34  1  0  0  0  0
 36 35  2  0  0  0  0
 37 36  1  0  0  0  0
 37 32  2  0  0  0  0
 38 32  1  0  0  0  0
M  END
>  <minimizedAffinity>
-6.50564051

$$$$

 OpenBabel03242516273D

 40 44  0  0  0  0  0  0  0  0999 V2000
   38.2540   27.5990   38.9280 S   0  0  0  0  0  0  0  0  0  0  0  0
   37.0460   26.5750   38.2310 C   0  0  0  0  0  0  0  0  0  0  0  0
   36.5060   26.7910   37.0100 N   0  0  0  0  0  0  0  0  0  0  0  0
   35.5710   26.0180   36.4480 C   0  0  0  0  0  0  0  0  0  0  0  0
   35.1510   24.9550   37.1620 N   0  0  0  0  0  0  0  0  0  0  0  0
   35.6270   24.6630   38.3770 C   0  0  0  0  0  0  0  0  0  0  0  0
   35.1730   23.5750   39.0980 C   0  0  0  0  0  0  0  0  0  0  0  0
   35.6770   23.3120   40.3580 C   0  0  0  0  0  0  0  0  0  0  0  0
   36.6400   24.1300   40.9200 C   0  0  0  0  0  0  0  0  0  0  0  0
   37.0980   25.2260   40.1950 C   0  0  0  0  0  0  0  0  0  0  0  0
   36.5950   25.4880   38.9310 C   0  0  0  0  0  0  0  0  0  0  0  0
   35.2260   26.3050   35.4670 H   0  0  0  0  0  0  0  0  0  0  0  0
   34.4230   23.0030   38.5700 H   0  0  0  0  0  0  0  0  0  0  0  0
   35.1970   22.4210   40.7540 H   0  0  0  0  0  0  0  0  0  0  0  0
   36.8430   23.7020   41.8660 H   0  0  0  0  0  0  0  0  0  0  0  0
   38.0530   26.0290   40.9820 C   0  0  0  0  0  3  0  0  0  0  0  0
   37.3610   26.4450   42.3400 C   0  0  0  0  0  2  0  0  0  0  0  0
   38.3070   27.4320   43.0400 C   0  0  0  0  0  2  0  0  0  0  0  0
   39.3600   26.5800   43.6980 C   0  0  0  0  0  2  0  0  0  0  0  0
   39.4530   25.2830   42.9820 C   0  0  0  0  0  2  0  0  0  0  0  0
   39.2500   25.3470   41.4850 C   0  0  0  0  0  2  0  0  0  0  0  0
   37.8680   31.3840   40.2010 C   0  0  0  0  0  0  0  0  0  0  0  0
   38.3560   30.2080   39.6550 C   0  0  0  0  0  0  0  0  0  0  0  0
   37.5650   29.0810   39.5930 C   0  0  0  0  0  0  0  0  0  0  0  0
   36.2680   29.1120   40.0750 C   0  0  0  0  0  0  0  0  0  0  0  0
   35.7680   30.2500   40.6130 C   0  0  0  0  0  0  0  0  0  0  0  0
   36.5780   31.3650   40.6650 C   0  0  0  0  0  0  0  0  0  0  0  0
   39.3720   30.1960   39.2800 H   0  0  0  0  0  0  0  0  0  0  0  0
   35.6720   28.2040   40.0090 H   0  0  0  0  0  0  0  0  0  0  0  0
   34.7530   30.2660   40.9870 H   0  0  0  0  0  0  0  0  0  0  0  0
   36.1710   32.2770   41.0990 H   0  0  0  0  0  0  0  0  0  0  0  0
   38.8130   34.9110   40.2500 C   0  0  0  0  0  0  0  0  0  0  0  0
   40.2220   34.8800   40.3790 C   0  0  0  0  0  0  0  0  0  0  0  0
   40.8370   33.6450   40.4450 C   0  0  0  0  0  0  0  0  0  0  0  0
   40.0970   32.4980   40.3880 N   0  0  0  0  0  0  0  0  0  0  0  0
   38.7370   32.5740   40.2630 C   0  0  0  0  0  0  0  0  0  0  0  0
   38.1040   33.7790   40.1950 N   0  0  0  0  0  0  0  0  0  0  0  0
   38.3610   35.9030   40.2000 H   0  0  0  0  0  0  0  0  0  0  0  0
   40.8500   35.7390   40.4290 H   0  0  0  0  0  0  0  0  0  0  0  0
   41.8960   33.4630   40.5440 H   0  0  0  0  0  0  0  0  0  0  0  0
  1 24  1  0  0  0  0
  2  1  1  0  0  0  0
  2 11  1  0  0  0  0
  3  2  2  0  0  0  0
  4  3  1  0  0  0  0
  4  5  2  0  0  0  0
  5  6  1  0  0  0  0
  6 11  2  0  0  0  0
  6  7  1  0  0  0  0
  7  8  2  0  0  0  0
  8 14  1  0  0  0  0
  8  9  1  0  0  0  0
  9 15  1  0  0  0  0
 10  9  2  0  0  0  0
 10 16  1  0  0  0  0
 11 10  1  0  0  0  0
 12  4  1  0  0  0  0
 13  7  1  0  0  0  0
 16 21  1  0  0  0  0
 16 17  1  0  0  0  0
 17 18  1  0  0  0  0
 18 19  1  0  0  0  0
 20 19  1  0  0  0  0
 21 20  1  0  0  0  0
 22 36  1  0  0  0  0
 22 27  1  0  0  0  0
 23 22  2  0  0  0  0
 24 23  1  0  0  0  0
 24 25  2  0  0  0  0
 25 26  1  0  0  0  0
 26 27  2  0  0  0  0
 26 30  1  0  0  0  0
 27 31  1  0  0  0  0
 28 23  1  0  0  0  0
 29 25  1  0  0  0  0
 32 33  1  0  0  0  0
 33 39  1  0  0  0  0
 33 34  2  0  0  0  0
 34 40  1  0  0  0  0
 35 34  1  0  0  0  0
 36 35  2  0  0  0  0
 37 32  2  0  0  0  0
 37 36  1  0  0  0  0
 38 32  1  0  0  0  0
M  END
>  <minimizedAffinity>
-6.50463867

$$$$
