
 OpenBabel03252504563D

 28 30  0  0  1  0  0  0  0  0999 V2000
   36.6780   29.0420   41.6290 N   0  0  0  0  0  0  0  0  0  0  0  0
   37.8890   29.6020   42.1500 C   0  0  0  0  0  0  0  0  0  0  0  0
   38.0280   28.8340   43.4490 C   0  0  0  0  0  0  0  0  0  0  0  0
   36.9190   27.8250   43.5440 C   0  0  0  0  0  0  0  0  0  0  0  0
   36.4050   27.7660   42.0820 C   0  0  2  0  0  0  0  0  0  0  0  0
   38.6240   30.3180   41.9120 H   0  0  0  0  0  0  0  0  0  0  0  0
   38.8290   28.9470   44.1890 H   0  0  0  0  0  0  0  0  0  0  0  0
   37.3900   26.8800   43.8500 H   0  0  0  0  0  0  0  0  0  0  0  0
   36.1390   28.0820   44.2530 H   0  0  0  0  0  0  0  0  0  0  0  0
   35.3670   27.4420   42.1810 H   0  0  0  0  0  0  0  0  0  0  0  0
   37.1700   26.6340   41.4330 C   0  0  0  0  0  3  0  0  0  0  0  0
   37.1410   25.3630   42.2510 C   0  0  0  0  0  2  0  0  0  0  0  0
   38.0700   24.3980   41.5000 C   0  0  0  0  0  2  0  0  0  0  0  0
   37.4670   24.0100   40.1920 C   0  0  0  0  0  2  0  0  0  0  0  0
   36.3750   24.9540   39.7440 C   0  0  0  0  0  2  0  0  0  0  0  0
   36.7190   26.3970   40.0100 C   0  0  0  0  0  2  0  0  0  0  0  0
   35.8950   29.8400   40.8510 C   0  0  0  0  0  0  0  0  0  0  0  0
   34.9010   29.4430   40.5070 H   0  0  0  0  0  0  0  0  0  0  0  0
   35.5490   30.7420   41.4630 H   0  0  0  0  0  0  0  0  0  0  0  0
   37.4100   30.4870   37.4530 C   0  0  0  0  0  0  0  0  0  0  0  0
   36.8380   29.7470   38.5160 C   0  0  0  0  0  0  0  0  0  0  0  0
   36.5320   30.4360   39.6860 C   0  0  0  0  0  0  0  0  0  0  0  0
   36.8010   31.7610   39.7350 N   0  0  0  0  0  0  0  0  0  0  0  0
   37.3550   32.4570   38.6980 C   0  0  0  0  0  0  0  0  0  0  0  0
   37.6570   31.8120   37.5580 N   0  0  0  0  0  0  0  0  0  0  0  0
   37.6260   29.9040   36.5710 H   0  0  0  0  0  0  0  0  0  0  0  0
   36.6290   28.6900   38.4630 H   0  0  0  0  0  0  0  0  0  0  0  0
   37.5190   33.5120   38.8700 H   0  0  0  0  0  0  0  0  0  0  0  0
  1  5  1  0  0  0  0
  1  2  1  0  0  0  0
  2  3  2  0  0  0  0
  3  4  1  0  0  0  0
  3  7  1  0  0  0  0
  4  8  1  0  0  0  0
  4  9  1  0  0  0  0
  5 10  1  6  0  0  0
  5  4  1  0  0  0  0
  6  2  1  0  0  0  0
 11  5  1  0  0  0  0
 11 12  1  0  0  0  0
 13 12  1  0  0  0  0
 14 13  1  0  0  0  0
 15 16  1  0  0  0  0
 15 14  1  0  0  0  0
 16 11  1  0  0  0  0
 17 19  1  0  0  0  0
 17  1  1  0  0  0  0
 18 17  1  0  0  0  0
 20 25  2  0  0  0  0
 20 21  1  0  0  0  0
 21 22  2  0  0  0  0
 22 23  1  0  0  0  0
 22 17  1  0  0  0  0
 24 28  1  0  0  0  0
 24 23  2  0  0  0  0
 25 24  1  0  0  0  0
 26 20  1  0  0  0  0
 27 21  1  0  0  0  0
M  END
>  <minimizedAffinity>
-5.27178621

$$$$

 OpenBabel03252504563D

 28 30  0  0  1  0  0  0  0  0999 V2000
   37.0110   27.7700   41.5400 N   0  0  0  0  0  0  0  0  0  0  0  0
   38.3060   28.0270   40.9860 C   0  0  0  0  0  0  0  0  0  0  0  0
   39.2010   27.6190   42.1400 C   0  0  0  0  0  0  0  0  0  0  0  0
   38.3490   27.0800   43.2540 C   0  0  0  0  0  0  0  0  0  0  0  0
   37.0020   26.8120   42.5360 C   0  0  2  0  0  0  0  0  0  0  0  0
   38.7600   28.3810   40.1040 H   0  0  0  0  0  0  0  0  0  0  0  0
   40.2960   27.6560   42.1580 H   0  0  0  0  0  0  0  0  0  0  0  0
   38.8310   26.1470   43.5830 H   0  0  0  0  0  0  0  0  0  0  0  0
   38.2480   27.7480   44.1030 H   0  0  0  0  0  0  0  0  0  0  0  0
   36.2600   26.8760   43.3360 H   0  0  0  0  0  0  0  0  0  0  0  0
   37.0620   25.3680   42.0920 C   0  0  0  0  0  3  0  0  0  0  0  0
   36.8050   25.1990   40.6120 C   0  0  0  0  0  2  0  0  0  0  0  0
   36.7760   23.6790   40.3940 C   0  0  0  0  0  2  0  0  0  0  0  0
   38.1350   23.1000   40.6030 C   0  0  0  0  0  2  0  0  0  0  0  0
   39.0540   24.0170   41.3760 C   0  0  0  0  0  2  0  0  0  0  0  0
   38.3520   24.7050   42.5180 C   0  0  0  0  0  2  0  0  0  0  0  0
   35.9750   28.5460   41.1160 C   0  0  0  0  0  0  0  0  0  0  0  0
   35.1420   28.0610   40.5400 H   0  0  0  0  0  0  0  0  0  0  0  0
   35.3930   28.9290   42.0240 H   0  0  0  0  0  0  0  0  0  0  0  0
   37.0350   32.0430   40.1590 C   0  0  0  0  0  0  0  0  0  0  0  0
   36.6640   30.9680   41.0030 C   0  0  0  0  0  0  0  0  0  0  0  0
   36.3290   29.7610   40.3960 C   0  0  0  0  0  0  0  0  0  0  0  0
   36.3770   29.6920   39.0460 N   0  0  0  0  0  0  0  0  0  0  0  0
   36.7360   30.7410   38.2490 C   0  0  0  0  0  0  0  0  0  0  0  0
   37.0650   31.9160   38.8140 N   0  0  0  0  0  0  0  0  0  0  0  0
   37.2860   32.9530   40.6820 H   0  0  0  0  0  0  0  0  0  0  0  0
   36.6300   31.0380   42.0800 H   0  0  0  0  0  0  0  0  0  0  0  0
   36.7310   30.5510   37.1840 H   0  0  0  0  0  0  0  0  0  0  0  0
  1  5  1  0  0  0  0
  2  1  1  0  0  0  0
  2  3  2  0  0  0  0
  3  7  1  0  0  0  0
  3  4  1  0  0  0  0
  4  8  1  0  0  0  0
  4  9  1  0  0  0  0
  5  4  1  0  0  0  0
  5 10  1  1  0  0  0
  6  2  1  0  0  0  0
 11 16  1  0  0  0  0
 11  5  1  0  0  0  0
 12 11  1  0  0  0  0
 13 14  1  0  0  0  0
 13 12  1  0  0  0  0
 14 15  1  0  0  0  0
 15 16  1  0  0  0  0
 17  1  1  0  0  0  0
 17 19  1  0  0  0  0
 18 17  1  0  0  0  0
 20 26  1  0  0  0  0
 20 21  1  0  0  0  0
 21 27  1  0  0  0  0
 22 21  2  0  0  0  0
 22 17  1  0  0  0  0
 23 22  1  0  0  0  0
 24 25  1  0  0  0  0
 24 23  2  0  0  0  0
 25 20  2  0  0  0  0
 28 24  1  0  0  0  0
M  END
>  <minimizedAffinity>
-4.94565773

$$$$

 OpenBabel03252504563D

 28 30  0  0  1  0  0  0  0  0999 V2000
   38.2150   29.0590   41.5830 N   0  0  0  0  0  0  0  0  0  0  0  0
   39.1010   28.7310   40.5070 C   0  0  0  0  0  0  0  0  0  0  0  0
   40.3670   28.3910   41.2690 C   0  0  0  0  0  0  0  0  0  0  0  0
   40.0910   28.4750   42.7430 C   0  0  0  0  0  0  0  0  0  0  0  0
   38.5410   28.4640   42.7860 C   0  0  2  0  0  0  0  0  0  0  0  0
   39.1190   28.6680   39.4560 H   0  0  0  0  0  0  0  0  0  0  0  0
   41.3250   28.0820   40.8330 H   0  0  0  0  0  0  0  0  0  0  0  0
   40.5200   27.5650   43.1870 H   0  0  0  0  0  0  0  0  0  0  0  0
   40.5190   29.3460   43.2290 H   0  0  0  0  0  0  0  0  0  0  0  0
   38.3010   28.9750   43.7210 H   0  0  0  0  0  0  0  0  0  0  0  0
   38.1550   27.0120   42.9540 C   0  0  0  0  0  3  0  0  0  0  0  0
   37.3120   26.4940   41.8100 C   0  0  0  0  0  2  0  0  0  0  0  0
   36.9190   25.0710   42.2320 C   0  0  0  0  0  2  0  0  0  0  0  0
   38.1180   24.1830   42.2410 C   0  0  0  0  0  2  0  0  0  0  0  0
   39.4190   24.9500   42.2770 C   0  0  0  0  0  2  0  0  0  0  0  0
   39.3600   26.1360   43.2050 C   0  0  0  0  0  2  0  0  0  0  0  0
   37.2390   29.9770   41.3410 C   0  0  0  0  0  0  0  0  0  0  0  0
   36.3810   29.6850   40.6770 H   0  0  0  0  0  0  0  0  0  0  0  0
   36.6740   30.1940   42.3120 H   0  0  0  0  0  0  0  0  0  0  0  0
   39.1400   33.1940   40.7960 C   0  0  0  0  0  0  0  0  0  0  0  0
   38.8200   31.9400   41.3690 C   0  0  0  0  0  0  0  0  0  0  0  0
   37.6810   31.2920   40.8980 C   0  0  0  0  0  0  0  0  0  0  0  0
   36.9560   31.8980   39.9310 N   0  0  0  0  0  0  0  0  0  0  0  0
   37.2820   33.1110   39.3930 C   0  0  0  0  0  0  0  0  0  0  0  0
   38.3770   33.7540   39.8310 N   0  0  0  0  0  0  0  0  0  0  0  0
   40.0330   33.6510   41.1960 H   0  0  0  0  0  0  0  0  0  0  0  0
   39.4070   31.4670   42.1410 H   0  0  0  0  0  0  0  0  0  0  0  0
   36.6150   33.4830   38.6270 H   0  0  0  0  0  0  0  0  0  0  0  0
  1  5  1  0  0  0  0
  2  3  2  0  0  0  0
  2  1  1  0  0  0  0
  3  4  1  0  0  0  0
  4  5  1  0  0  0  0
  4  8  1  0  0  0  0
  4  9  1  0  0  0  0
  5 11  1  0  0  0  0
  5 10  1  1  0  0  0
  6  2  1  0  0  0  0
  7  3  1  0  0  0  0
 11 16  1  0  0  0  0
 12 13  1  0  0  0  0
 12 11  1  0  0  0  0
 13 14  1  0  0  0  0
 14 15  1  0  0  0  0
 15 16  1  0  0  0  0
 17  1  1  0  0  0  0
 17 19  1  0  0  0  0
 18 17  1  0  0  0  0
 20 26  1  0  0  0  0
 20 21  1  0  0  0  0
 21 27  1  0  0  0  0
 22 17  1  0  0  0  0
 22 21  2  0  0  0  0
 23 22  1  0  0  0  0
 24 25  1  0  0  0  0
 24 23  2  0  0  0  0
 25 20  2  0  0  0  0
 28 24  1  0  0  0  0
M  END
>  <minimizedAffinity>
-4.87625694

$$$$

 OpenBabel03252504563D

 28 30  0  0  1  0  0  0  0  0999 V2000
   36.1830   29.3180   40.6630 N   0  0  0  0  0  0  0  0  0  0  0  0
   34.8730   29.2870   40.0860 C   0  0  0  0  0  0  0  0  0  0  0  0
   35.1350   28.5030   38.8150 C   0  0  0  0  0  0  0  0  0  0  0  0
   36.5730   28.0710   38.7920 C   0  0  0  0  0  0  0  0  0  0  0  0
   36.9990   28.2750   40.2680 C   0  0  2  0  0  0  0  0  0  0  0  0
   33.8920   29.6190   40.2740 H   0  0  0  0  0  0  0  0  0  0  0  0
   34.3960   28.2410   38.0490 H   0  0  0  0  0  0  0  0  0  0  0  0
   36.5690   27.0080   38.5100 H   0  0  0  0  0  0  0  0  0  0  0  0
   37.1950   28.6230   38.0950 H   0  0  0  0  0  0  0  0  0  0  0  0
   38.0790   28.4300   40.2110 H   0  0  0  0  0  0  0  0  0  0  0  0
   36.7710   26.9400   40.9410 C   0  0  0  0  0  3  0  0  0  0  0  0
   37.2420   25.7740   40.1010 C   0  0  0  0  0  2  0  0  0  0  0  0
   36.8040   24.5290   40.8860 C   0  0  0  0  0  2  0  0  0  0  0  0
   37.5840   24.4130   42.1530 C   0  0  0  0  0  2  0  0  0  0  0  0
   38.2490   25.7090   42.5560 C   0  0  0  0  0  2  0  0  0  0  0  0
   37.3590   26.9050   42.3320 C   0  0  0  0  0  2  0  0  0  0  0  0
   36.5120   30.3940   41.4300 C   0  0  0  0  0  0  0  0  0  0  0  0
   35.6870   31.0530   41.8110 H   0  0  0  0  0  0  0  0  0  0  0  0
   36.9520   30.0310   42.4210 H   0  0  0  0  0  0  0  0  0  0  0  0
   38.4170   33.0610   39.5530 C   0  0  0  0  0  0  0  0  0  0  0  0
   37.3200   32.2470   39.9240 C   0  0  0  0  0  0  0  0  0  0  0  0
   37.5400   31.2780   40.8990 C   0  0  0  0  0  0  0  0  0  0  0  0
   38.7810   31.1750   41.4260 N   0  0  0  0  0  0  0  0  0  0  0  0
   39.8280   31.9700   41.0530 C   0  0  0  0  0  0  0  0  0  0  0  0
   39.6370   32.9130   40.1150 N   0  0  0  0  0  0  0  0  0  0  0  0
   38.1900   33.7960   38.7950 H   0  0  0  0  0  0  0  0  0  0  0  0
   36.3340   32.3400   39.4940 H   0  0  0  0  0  0  0  0  0  0  0  0
   40.7680   31.7810   41.5530 H   0  0  0  0  0  0  0  0  0  0  0  0
  1 17  1  0  0  0  0
  2  6  1  0  0  0  0
  2  1  1  0  0  0  0
  3  2  2  0  0  0  0
  4  3  1  0  0  0  0
  4  5  1  0  0  0  0
  5 10  1  1  0  0  0
  5  1  1  0  0  0  0
  5 11  1  0  0  0  0
  7  3  1  0  0  0  0
  8  4  1  0  0  0  0
  9  4  1  0  0  0  0
 11 16  1  0  0  0  0
 12 13  1  0  0  0  0
 12 11  1  0  0  0  0
 13 14  1  0  0  0  0
 14 15  1  0  0  0  0
 16 15  1  0  0  0  0
 17 18  1  0  0  0  0
 17 19  1  0  0  0  0
 20 21  2  0  0  0  0
 20 25  1  0  0  0  0
 21 22  1  0  0  0  0
 22 23  2  0  0  0  0
 22 17  1  0  0  0  0
 24 23  1  0  0  0  0
 24 28  1  0  0  0  0
 25 24  2  0  0  0  0
 26 20  1  0  0  0  0
 27 21  1  0  0  0  0
M  END
>  <minimizedAffinity>
-4.82306147

$$$$

 OpenBabel03252504563D

 28 30  0  0  1  0  0  0  0  0999 V2000
   37.1890   28.8070   41.6270 N   0  0  0  0  0  0  0  0  0  0  0  0
   38.3000   29.0040   42.5090 C   0  0  0  0  0  0  0  0  0  0  0  0
   37.9000   28.1280   43.6800 C   0  0  0  0  0  0  0  0  0  0  0  0
   36.6140   27.4240   43.3490 C   0  0  0  0  0  0  0  0  0  0  0  0
   36.5260   27.6090   41.8130 C   0  0  2  0  0  0  0  0  0  0  0  0
   39.2110   29.5290   42.5670 H   0  0  0  0  0  0  0  0  0  0  0  0
   38.4680   27.9790   44.6050 H   0  0  0  0  0  0  0  0  0  0  0  0
   36.7620   26.3710   43.6280 H   0  0  0  0  0  0  0  0  0  0  0  0
   35.7450   27.8130   43.8690 H   0  0  0  0  0  0  0  0  0  0  0  0
   35.4560   27.5490   41.6020 H   0  0  0  0  0  0  0  0  0  0  0  0
   37.1710   26.3760   41.2220 C   0  0  0  0  0  3  0  0  0  0  0  0
   37.0060   25.1530   42.0970 C   0  0  0  0  0  2  0  0  0  0  0  0
   37.8330   24.0630   41.3990 C   0  0  0  0  0  2  0  0  0  0  0  0
   37.1990   23.6810   40.1040 C   0  0  0  0  0  2  0  0  0  0  0  0
   36.2140   24.7110   39.6030 C   0  0  0  0  0  2  0  0  0  0  0  0
   36.7050   26.1210   39.8080 C   0  0  0  0  0  2  0  0  0  0  0  0
   36.8470   29.8330   40.7990 C   0  0  0  0  0  0  0  0  0  0  0  0
   35.8760   30.3670   40.9800 H   0  0  0  0  0  0  0  0  0  0  0  0
   37.5810   30.6980   40.9460 H   0  0  0  0  0  0  0  0  0  0  0  0
   36.0530   29.2910   37.1470 C   0  0  0  0  0  0  0  0  0  0  0  0
   35.8110   29.5150   38.5240 C   0  0  0  0  0  0  0  0  0  0  0  0
   36.9150   29.5620   39.3700 C   0  0  0  0  0  0  0  0  0  0  0  0
   38.1420   29.3900   38.8280 N   0  0  0  0  0  0  0  0  0  0  0  0
   38.3540   29.1730   37.4960 C   0  0  0  0  0  0  0  0  0  0  0  0
   37.3020   29.1250   36.6600 N   0  0  0  0  0  0  0  0  0  0  0  0
   35.1620   29.2660   36.5370 H   0  0  0  0  0  0  0  0  0  0  0  0
   34.8260   29.6500   38.9440 H   0  0  0  0  0  0  0  0  0  0  0  0
   39.3850   29.0510   37.1940 H   0  0  0  0  0  0  0  0  0  0  0  0
  1  5  1  0  0  0  0
  1  2  1  0  0  0  0
  2  6  1  0  0  0  0
  2  3  2  0  0  0  0
  3  7  1  0  0  0  0
  4  8  1  0  0  0  0
  4  3  1  0  0  0  0
  4  9  1  0  0  0  0
  5 10  1  6  0  0  0
  5  4  1  0  0  0  0
 11  5  1  0  0  0  0
 11 12  1  0  0  0  0
 13 12  1  0  0  0  0
 14 13  1  0  0  0  0
 15 16  1  0  0  0  0
 15 14  1  0  0  0  0
 16 11  1  0  0  0  0
 17 19  1  0  0  0  0
 17 18  1  0  0  0  0
 17  1  1  0  0  0  0
 20 21  1  0  0  0  0
 21 27  1  0  0  0  0
 21 22  2  0  0  0  0
 22 17  1  0  0  0  0
 23 22  1  0  0  0  0
 24 23  2  0  0  0  0
 25 20  2  0  0  0  0
 25 24  1  0  0  0  0
 26 20  1  0  0  0  0
 28 24  1  0  0  0  0
M  END
>  <minimizedAffinity>
-4.81577253

$$$$

 OpenBabel03252504563D

 28 30  0  0  1  0  0  0  0  0999 V2000
   39.1590   28.3220   41.4770 N   0  0  0  0  0  0  0  0  0  0  0  0
   40.0890   27.4450   42.1230 C   0  0  0  0  0  0  0  0  0  0  0  0
   39.4100   27.2370   43.4620 C   0  0  0  0  0  0  0  0  0  0  0  0
   38.0900   27.9540   43.4590 C   0  0  0  0  0  0  0  0  0  0  0  0
   37.8640   28.2180   41.9480 C   0  0  2  0  0  0  0  0  0  0  0  0
   41.0090   26.9620   41.9490 H   0  0  0  0  0  0  0  0  0  0  0  0
   39.7820   26.6260   44.2920 H   0  0  0  0  0  0  0  0  0  0  0  0
   37.3550   27.2430   43.8650 H   0  0  0  0  0  0  0  0  0  0  0  0
   38.0730   28.8630   44.0510 H   0  0  0  0  0  0  0  0  0  0  0  0
   37.2130   29.0950   41.9290 H   0  0  0  0  0  0  0  0  0  0  0  0
   37.0510   27.0430   41.4520 C   0  0  0  0  0  3  0  0  0  0  0  0
   37.6470   26.3990   40.2200 C   0  0  0  0  0  2  0  0  0  0  0  0
   36.6190   25.3350   39.8050 C   0  0  0  0  0  2  0  0  0  0  0  0
   36.5730   24.2370   40.8140 C   0  0  0  0  0  2  0  0  0  0  0  0
   37.1730   24.6320   42.1430 C   0  0  0  0  0  2  0  0  0  0  0  0
   36.7980   26.0340   42.5480 C   0  0  0  0  0  2  0  0  0  0  0  0
   39.6510   29.2120   40.5720 C   0  0  0  0  0  0  0  0  0  0  0  0
   40.6070   29.7500   40.8140 H   0  0  0  0  0  0  0  0  0  0  0  0
   39.9700   28.6530   39.6260 H   0  0  0  0  0  0  0  0  0  0  0  0
   37.0000   31.1040   38.6600 C   0  0  0  0  0  0  0  0  0  0  0  0
   37.8870   30.0470   38.9770 C   0  0  0  0  0  0  0  0  0  0  0  0
   38.7200   30.2170   40.0800 C   0  0  0  0  0  0  0  0  0  0  0  0
   38.6300   31.3750   40.7730 N   0  0  0  0  0  0  0  0  0  0  0  0
   37.7680   32.3840   40.4500 C   0  0  0  0  0  0  0  0  0  0  0  0
   36.9540   32.2410   39.3900 N   0  0  0  0  0  0  0  0  0  0  0  0
   36.3770   30.9190   37.7980 H   0  0  0  0  0  0  0  0  0  0  0  0
   37.9480   29.1290   38.4140 H   0  0  0  0  0  0  0  0  0  0  0  0
   37.8000   33.2570   41.0870 H   0  0  0  0  0  0  0  0  0  0  0  0
  1  5  1  0  0  0  0
  1  2  1  0  0  0  0
  2  3  2  0  0  0  0
  3  7  1  0  0  0  0
  4  3  1  0  0  0  0
  4  8  1  0  0  0  0
  4  9  1  0  0  0  0
  5 10  1  6  0  0  0
  5  4  1  0  0  0  0
  6  2  1  0  0  0  0
 11  5  1  0  0  0  0
 11 16  1  0  0  0  0
 12 11  1  0  0  0  0
 13 12  1  0  0  0  0
 13 14  1  0  0  0  0
 14 15  1  0  0  0  0
 15 16  1  0  0  0  0
 17 18  1  0  0  0  0
 17  1  1  0  0  0  0
 19 17  1  0  0  0  0
 20 21  2  0  0  0  0
 20 25  1  0  0  0  0
 21 22  1  0  0  0  0
 22 17  1  0  0  0  0
 22 23  2  0  0  0  0
 24 23  1  0  0  0  0
 24 28  1  0  0  0  0
 25 24  2  0  0  0  0
 26 20  1  0  0  0  0
 27 21  1  0  0  0  0
M  END
>  <minimizedAffinity>
-4.8131032

$$$$

 OpenBabel03252504563D

 28 30  0  0  1  0  0  0  0  0999 V2000
   37.0720   29.4260   38.4820 N   0  0  0  0  0  0  0  0  0  0  0  0
   35.6800   29.3900   38.1500 C   0  0  0  0  0  0  0  0  0  0  0  0
   35.3720   27.9190   38.3530 C   0  0  0  0  0  0  0  0  0  0  0  0
   36.6020   27.2260   38.8660 C   0  0  0  0  0  0  0  0  0  0  0  0
   37.4760   28.4180   39.3360 C   0  0  2  0  0  0  0  0  0  0  0  0
   34.8990   30.0240   37.8380 H   0  0  0  0  0  0  0  0  0  0  0  0
   34.4020   27.4310   38.2040 H   0  0  0  0  0  0  0  0  0  0  0  0
   36.2720   26.6020   39.7100 H   0  0  0  0  0  0  0  0  0  0  0  0
   37.1020   26.6020   38.1340 H   0  0  0  0  0  0  0  0  0  0  0  0
   38.4970   28.0360   39.2710 H   0  0  0  0  0  0  0  0  0  0  0  0
   37.1550   28.5980   40.8030 C   0  0  0  0  0  3  0  0  0  0  0  0
   36.9830   27.2830   41.5300 C   0  0  0  0  0  2  0  0  0  0  0  0
   36.5360   27.6790   42.9450 C   0  0  0  0  0  2  0  0  0  0  0  0
   37.6490   28.3600   43.6690 C   0  0  0  0  0  2  0  0  0  0  0  0
   38.7260   28.8750   42.7420 C   0  0  0  0  0  2  0  0  0  0  0  0
   38.1600   29.4930   41.4900 C   0  0  0  0  0  2  0  0  0  0  0  0
   37.8480   30.3550   37.8590 C   0  0  0  0  0  0  0  0  0  0  0  0
   38.8160   30.0220   37.3960 H   0  0  0  0  0  0  0  0  0  0  0  0
   37.3040   30.7390   36.9280 H   0  0  0  0  0  0  0  0  0  0  0  0
   37.6250   33.5830   39.8060 C   0  0  0  0  0  0  0  0  0  0  0  0
   37.1800   32.4810   39.0360 C   0  0  0  0  0  0  0  0  0  0  0  0
   38.1400   31.5660   38.6120 C   0  0  0  0  0  0  0  0  0  0  0  0
   39.4290   31.7870   38.9580 N   0  0  0  0  0  0  0  0  0  0  0  0
   39.8370   32.8580   39.7010 C   0  0  0  0  0  0  0  0  0  0  0  0
   38.9280   33.7540   40.1220 N   0  0  0  0  0  0  0  0  0  0  0  0
   36.8400   34.2600   40.1090 H   0  0  0  0  0  0  0  0  0  0  0  0
   36.1490   32.3180   38.7660 H   0  0  0  0  0  0  0  0  0  0  0  0
   40.8980   32.9160   39.9060 H   0  0  0  0  0  0  0  0  0  0  0  0
  1  5  1  0  0  0  0
  2  3  2  0  0  0  0
  2  1  1  0  0  0  0
  3  4  1  0  0  0  0
  4  5  1  0  0  0  0
  4  8  1  0  0  0  0
  5 10  1  6  0  0  0
  5 11  1  0  0  0  0
  6  2  1  0  0  0  0
  7  3  1  0  0  0  0
  9  4  1  0  0  0  0
 11 16  1  0  0  0  0
 11 12  1  0  0  0  0
 12 13  1  0  0  0  0
 13 14  1  0  0  0  0
 15 14  1  0  0  0  0
 16 15  1  0  0  0  0
 17  1  1  0  0  0  0
 17 22  1  0  0  0  0
 18 17  1  0  0  0  0
 19 17  1  0  0  0  0
 20 26  1  0  0  0  0
 20 25  1  0  0  0  0
 21 20  2  0  0  0  0
 22 23  2  0  0  0  0
 22 21  1  0  0  0  0
 23 24  1  0  0  0  0
 24 28  1  0  0  0  0
 24 25  2  0  0  0  0
 27 21  1  0  0  0  0
M  END
>  <minimizedAffinity>
-4.79263544

$$$$

 OpenBabel03252504563D

 28 30  0  0  1  0  0  0  0  0999 V2000
   38.6780   28.8190   41.5670 N   0  0  0  0  0  0  0  0  0  0  0  0
   38.7800   29.1060   42.9660 C   0  0  0  0  0  0  0  0  0  0  0  0
   37.4270   28.6290   43.4580 C   0  0  0  0  0  0  0  0  0  0  0  0
   36.6710   28.0260   42.3090 C   0  0  0  0  0  0  0  0  0  0  0  0
   37.7920   27.8040   41.2610 C   0  0  2  0  0  0  0  0  0  0  0  0
   39.4520   29.5120   43.6680 H   0  0  0  0  0  0  0  0  0  0  0  0
   37.0620   28.6640   44.4910 H   0  0  0  0  0  0  0  0  0  0  0  0
   36.2610   27.0750   42.6780 H   0  0  0  0  0  0  0  0  0  0  0  0
   35.8620   28.6430   41.9330 H   0  0  0  0  0  0  0  0  0  0  0  0
   37.2650   27.8210   40.3050 H   0  0  0  0  0  0  0  0  0  0  0  0
   38.2750   26.3880   41.4830 C   0  0  0  0  0  3  0  0  0  0  0  0
   37.1410   25.4100   41.6970 C   0  0  0  0  0  2  0  0  0  0  0  0
   37.8350   24.0810   42.0340 C   0  0  0  0  0  2  0  0  0  0  0  0
   38.5590   23.5570   40.8390 C   0  0  0  0  0  2  0  0  0  0  0  0
   38.8030   24.6130   39.7870 C   0  0  0  0  0  2  0  0  0  0  0  0
   39.2090   25.9360   40.3850 C   0  0  0  0  0  2  0  0  0  0  0  0
   39.3620   29.6200   40.7040 C   0  0  0  0  0  0  0  0  0  0  0  0
   40.4440   29.8380   40.9170 H   0  0  0  0  0  0  0  0  0  0  0  0
   39.4610   29.0920   39.6940 H   0  0  0  0  0  0  0  0  0  0  0  0
   37.0950   32.3350   39.3800 C   0  0  0  0  0  0  0  0  0  0  0  0
   37.6090   31.0290   39.5660 C   0  0  0  0  0  0  0  0  0  0  0  0
   38.7380   30.8920   40.3690 C   0  0  0  0  0  0  0  0  0  0  0  0
   39.2710   32.0090   40.9150 N   0  0  0  0  0  0  0  0  0  0  0  0
   38.7600   33.2610   40.7210 C   0  0  0  0  0  0  0  0  0  0  0  0
   37.6700   33.4160   39.9510 N   0  0  0  0  0  0  0  0  0  0  0  0
   36.2190   32.3820   38.7510 H   0  0  0  0  0  0  0  0  0  0  0  0
   37.1740   30.1460   39.1240 H   0  0  0  0  0  0  0  0  0  0  0  0
   39.2840   34.0680   41.2150 H   0  0  0  0  0  0  0  0  0  0  0  0
  1  2  1  0  0  0  0
  2  3  2  0  0  0  0
  2  6  1  0  0  0  0
  3  7  1  0  0  0  0
  4  8  1  0  0  0  0
  4  3  1  0  0  0  0
  5 10  1  6  0  0  0
  5 11  1  0  0  0  0
  5  1  1  0  0  0  0
  5  4  1  0  0  0  0
  9  4  1  0  0  0  0
 11 12  1  0  0  0  0
 12 13  1  0  0  0  0
 14 13  1  0  0  0  0
 15 16  1  0  0  0  0
 15 14  1  0  0  0  0
 16 11  1  0  0  0  0
 17 18  1  0  0  0  0
 17  1  1  0  0  0  0
 19 17  1  0  0  0  0
 20 21  2  0  0  0  0
 20 25  1  0  0  0  0
 21 22  1  0  0  0  0
 22 17  1  0  0  0  0
 22 23  2  0  0  0  0
 24 23  1  0  0  0  0
 24 28  1  0  0  0  0
 25 24  2  0  0  0  0
 26 20  1  0  0  0  0
 27 21  1  0  0  0  0
M  END
>  <minimizedAffinity>
-4.7856369

$$$$

 OpenBabel03252504563D

 28 30  0  0  1  0  0  0  0  0999 V2000
   36.6510   30.7380   39.8190 N   0  0  0  0  0  0  0  0  0  0  0  0
   36.9700   32.0590   39.3660 C   0  0  0  0  0  0  0  0  0  0  0  0
   37.9420   31.7540   38.2440 C   0  0  0  0  0  0  0  0  0  0  0  0
   38.0540   30.2640   38.0820 C   0  0  0  0  0  0  0  0  0  0  0  0
   36.8110   29.7580   38.8590 C   0  0  2  0  0  0  0  0  0  0  0  0
   36.7450   33.0670   39.5720 H   0  0  0  0  0  0  0  0  0  0  0  0
   38.4530   32.4870   37.6090 H   0  0  0  0  0  0  0  0  0  0  0  0
   37.9710   30.0670   37.0040 H   0  0  0  0  0  0  0  0  0  0  0  0
   38.9810   29.8420   38.4530 H   0  0  0  0  0  0  0  0  0  0  0  0
   37.0870   28.7460   39.1650 H   0  0  0  0  0  0  0  0  0  0  0  0
   35.7150   29.6320   37.8250 C   0  0  0  0  0  3  0  0  0  0  0  0
   36.2030   29.0330   36.5250 C   0  0  0  0  0  2  0  0  0  0  0  0
   34.9930   29.1170   35.5820 C   0  0  0  0  0  2  0  0  0  0  0  0
   33.9160   28.1900   36.0370 C   0  0  0  0  0  2  0  0  0  0  0  0
   34.0770   27.7600   37.4760 C   0  0  0  0  0  2  0  0  0  0  0  0
   34.5140   28.8940   38.3680 C   0  0  0  0  0  2  0  0  0  0  0  0
   36.3380   30.5770   41.1340 C   0  0  0  0  0  0  0  0  0  0  0  0
   36.3860   31.4740   41.8100 H   0  0  0  0  0  0  0  0  0  0  0  0
   35.2280   30.3160   41.2300 H   0  0  0  0  0  0  0  0  0  0  0  0
   37.2770   27.2600   42.6740 C   0  0  0  0  0  0  0  0  0  0  0  0
   36.4710   28.2210   42.0180 C   0  0  0  0  0  0  0  0  0  0  0  0
   37.0100   29.4910   41.8330 C   0  0  0  0  0  0  0  0  0  0  0  0
   38.2600   29.7260   42.2900 N   0  0  0  0  0  0  0  0  0  0  0  0
   39.0220   28.7840   42.9230 C   0  0  0  0  0  0  0  0  0  0  0  0
   38.5220   27.5510   43.1110 N   0  0  0  0  0  0  0  0  0  0  0  0
   36.8110   26.2930   42.7900 H   0  0  0  0  0  0  0  0  0  0  0  0
   35.4730   28.0200   41.6580 H   0  0  0  0  0  0  0  0  0  0  0  0
   40.0050   29.1040   43.2390 H   0  0  0  0  0  0  0  0  0  0  0  0
  1 17  1  0  0  0  0
  2  6  1  0  0  0  0
  2  1  1  0  0  0  0
  3  2  2  0  0  0  0
  4  3  1  0  0  0  0
  4  9  1  0  0  0  0
  4  5  1  0  0  0  0
  5 10  1  1  0  0  0
  5  1  1  0  0  0  0
  7  3  1  0  0  0  0
  8  4  1  0  0  0  0
 11 16  1  0  0  0  0
 11  5  1  0  0  0  0
 12 11  1  0  0  0  0
 13 14  1  0  0  0  0
 13 12  1  0  0  0  0
 14 15  1  0  0  0  0
 15 16  1  0  0  0  0
 17 19  1  0  0  0  0
 17 18  1  0  0  0  0
 17 22  1  0  0  0  0
 20 26  1  0  0  0  0
 20 25  1  0  0  0  0
 21 20  2  0  0  0  0
 22 21  1  0  0  0  0
 22 23  2  0  0  0  0
 23 24  1  0  0  0  0
 24 25  2  0  0  0  0
 24 28  1  0  0  0  0
 27 21  1  0  0  0  0
M  END
>  <minimizedAffinity>
-4.73237991

$$$$
