
 OpenBabel03252508153D

 34 37  0  0  1  0  0  0  0  0999 V2000
   46.0590   30.9040   46.7860 C   0  0  0  0  0  0  0  0  0  0  0  0
   47.0970   30.5000   46.7770 H   0  0  0  0  0  0  0  0  0  0  0  0
   45.3420   30.0920   46.6460 H   0  0  0  0  0  0  0  0  0  0  0  0
   45.8880   31.6460   48.0920 C   0  0  1  0  0  0  0  0  0  0  0  0
   45.6600   30.8090   49.3020 C   0  0  0  0  0  0  0  0  0  0  0  0
   46.9230   31.5020   49.1420 C   0  0  1  0  0  0  0  0  0  0  0  0
   45.3400   32.6090   48.0620 H   0  0  0  0  0  0  0  0  0  0  0  0
   45.5390   29.7140   49.1370 H   0  0  0  0  0  0  0  0  0  0  0  0
   44.9280   31.1680   50.0760 H   0  0  0  0  0  0  0  0  0  0  0  0
   47.0630   32.4080   49.8070 H   0  0  0  0  0  0  0  0  0  0  0  0
   48.2120   30.8730   48.7670 C   0  0  0  0  0  0  0  0  0  0  0  0
   49.0830   30.4380   49.9750 C   0  0  0  0  0  0  0  0  0  0  0  0
   49.4800   31.6390   49.2010 C   0  0  0  0  0  0  0  0  0  0  0  0
   48.2930   30.2960   47.8430 H   0  0  0  0  0  0  0  0  0  0  0  0
   49.5930   29.4510   49.8020 H   0  0  0  0  0  0  0  0  0  0  0  0
   48.6190   30.4930   50.9670 H   0  0  0  0  0  0  0  0  0  0  0  0
   50.3650   31.5260   48.5210 H   0  0  0  0  0  0  0  0  0  0  0  0
   49.3570   32.5950   49.7320 H   0  0  0  0  0  0  0  0  0  0  0  0
   45.8150   33.1030   45.9420 C   0  0  0  0  0  3  0  0  0  0  0  0
   46.0300   31.8870   45.6280 C   0  0  0  0  0  3  0  0  0  0  0  0
   44.8570   36.0120   43.8980 C   0  0  0  0  0  0  0  0  0  0  0  0
   45.6640   35.8910   42.7750 C   0  0  0  0  0  0  0  0  0  0  0  0
   46.5240   34.8350   42.7450 C   0  0  0  0  0  0  0  0  0  0  0  0
   46.5350   33.9790   43.7990 N   0  0  0  0  0  0  0  0  0  0  0  0
   45.7630   34.0930   44.8750 C   0  0  0  0  0  0  0  0  0  0  0  0
   44.9290   35.1310   44.8890 N   0  0  0  0  0  0  0  0  0  0  0  0
   44.1260   36.8120   44.0490 H   0  0  0  0  0  0  0  0  0  0  0  0
   45.5370   36.6410   42.0390 H   0  0  0  0  0  0  0  0  0  0  0  0
   47.4080   34.6740   41.5420 C   0  0  0  0  0  3  0  0  0  0  0  0
   47.7910   33.2680   41.2530 C   0  0  0  0  0  2  0  0  0  0  0  0
   49.3010   33.0970   41.0950 C   0  0  0  0  0  2  0  0  0  0  0  0
   50.0430   33.6780   42.2650 C   0  0  0  0  0  2  0  0  0  0  0  0
   49.6830   35.1020   42.5480 C   0  0  0  0  0  2  0  0  0  0  0  0
   48.6060   35.5910   41.6240 C   0  0  0  0  0  2  0  0  0  0  0  0
  1  4  1  0  0  0  0
  2  1  1  0  0  0  0
  3  1  1  0  0  0  0
  4  7  1  6  0  0  0
  4  6  1  0  0  0  0
  4  5  1  0  0  0  0
  5  9  1  0  0  0  0
  6  5  1  0  0  0  0
  6 10  1  1  0  0  0
  8  5  1  0  0  0  0
 11  6  1  0  0  0  0
 11 13  1  0  0  0  0
 11 12  1  0  0  0  0
 12 16  1  0  0  0  0
 13 18  1  0  0  0  0
 13 12  1  0  0  0  0
 14 11  1  0  0  0  0
 15 12  1  0  0  0  0
 17 13  1  0  0  0  0
 20 19  2  0  0  0  0
 20  1  1  0  0  0  0
 21 27  1  0  0  0  0
 21 26  1  0  0  0  0
 22 21  2  0  0  0  0
 23 22  1  0  0  0  0
 23 24  2  0  0  0  0
 24 25  1  0  0  0  0
 25 26  2  0  0  0  0
 25 19  1  0  0  0  0
 28 22  1  0  0  0  0
 29 34  1  0  0  0  0
 29 23  1  0  0  0  0
 30 29  1  0  0  0  0
 31 30  1  0  0  0  0
 31 32  1  0  0  0  0
 32 33  1  0  0  0  0
 34 33  1  0  0  0  0
M  END
>  <minimizedAffinity>
-6.30002451

>  <minimizedRMSD>
1.67697728

$$$$
