
 OpenBabel03252504533D

 18 19  0  0  0  0  0  0  0  0999 V2000
   44.4180   35.8720   44.4910 C   0  0  0  0  0  0  0  0  0  0  0  0
   44.5780   35.1720   43.2700 C   0  0  0  0  0  0  0  0  0  0  0  0
   45.1050   33.8850   43.3350 C   0  0  0  0  0  0  0  0  0  0  0  0
   45.4410   33.3580   44.5460 N   0  0  0  0  0  0  0  0  0  0  0  0
   45.2680   34.0730   45.6970 C   0  0  0  0  0  0  0  0  0  0  0  0
   44.7600   35.3180   45.6650 N   0  0  0  0  0  0  0  0  0  0  0  0
   44.0110   36.8700   44.4600 H   0  0  0  0  0  0  0  0  0  0  0  0
   44.2900   35.6570   42.3610 H   0  0  0  0  0  0  0  0  0  0  0  0
   45.5320   33.6590   46.6480 H   0  0  0  0  0  0  0  0  0  0  0  0
   45.2670   33.1690   42.0710 C   0  0  0  0  0  0  0  0  0  0  0  0
   45.1510   32.0870   42.2880 H   0  0  0  0  0  0  0  0  0  0  0  0
   44.5180   33.4310   41.3140 H   0  0  0  0  0  0  0  0  0  0  0  0
   46.6340   33.3220   41.4630 C   0  0  0  0  0  3  0  0  0  0  0  0
   47.4970   32.1000   41.5490 C   0  0  0  0  0  2  0  0  0  0  0  0
   48.9240   32.5840   41.2820 C   0  0  0  0  0  2  0  0  0  0  0  0
   48.9550   33.0900   39.8650 C   0  0  0  0  0  2  0  0  0  0  0  0
   47.9910   34.2410   39.6880 C   0  0  0  0  0  2  0  0  0  0  0  0
   46.5770   33.7400   40.0070 C   0  0  0  0  0  2  0  0  0  0  0  0
  1  6  1  0  0  0  0
  2  3  1  0  0  0  0
  2  1  2  0  0  0  0
  3  4  2  0  0  0  0
  4  5  1  0  0  0  0
  5  9  1  0  0  0  0
  6  5  2  0  0  0  0
  7  1  1  0  0  0  0
  8  2  1  0  0  0  0
 10 11  1  0  0  0  0
 10  3  1  0  0  0  0
 12 10  1  0  0  0  0
 13 14  1  0  0  0  0
 13 10  1  0  0  0  0
 15 14  1  0  0  0  0
 16 15  1  0  0  0  0
 17 16  1  0  0  0  0
 17 18  1  0  0  0  0
 18 13  1  0  0  0  0
M  END
>  <minimizedAffinity>
-3.48207021

>  <minimizedRMSD>
2.55498147

$$$$
