
 OpenBabel03252508323D

 29 31  0  0  1  0  0  0  0  0999 V2000
   44.4480   34.3090   42.0210 N   0  0  0  0  0  0  0  0  0  0  0  0
   44.7010   33.3750   41.0100 C   0  0  1  0  0  0  0  0  0  0  0  0
   43.8120   33.4430   39.7980 C   0  0  0  0  0  0  0  0  0  0  0  0
   42.6370   34.1840   39.8480 N   0  0  0  0  0  0  0  0  0  0  0  0
   42.5620   35.2410   40.7470 C   0  0  0  0  0  0  0  0  0  0  0  0
   43.7930   35.4910   41.5310 C   0  0  0  0  0  0  0  0  0  0  0  0
   44.6320   32.3420   41.4160 H   0  0  0  0  0  0  0  0  0  0  0  0
   43.5610   32.3650   39.5160 H   0  0  0  0  0  0  0  0  0  0  0  0
   44.3980   33.7810   38.9210 H   0  0  0  0  0  0  0  0  0  0  0  0
   42.2950   34.3570   38.8820 H   0  0  0  0  0  0  0  0  0  0  0  0
   41.6890   35.1010   41.4480 H   0  0  0  0  0  0  0  0  0  0  0  0
   42.3220   36.1980   40.2010 H   0  0  0  0  0  0  0  0  0  0  0  0
   44.4950   36.2170   41.0370 H   0  0  0  0  0  0  0  0  0  0  0  0
   43.4530   36.0760   42.4430 H   0  0  0  0  0  0  0  0  0  0  0  0
   44.6270   35.1210   44.2640 C   0  0  0  0  0  0  0  0  0  0  0  0
   44.8270   34.0750   43.3710 C   0  0  0  0  0  0  0  0  0  0  0  0
   45.3820   32.9000   43.8320 C   0  0  0  0  0  0  0  0  0  0  0  0
   45.7310   32.7610   45.1390 N   0  0  0  0  0  0  0  0  0  0  0  0
   45.5240   33.8080   46.0020 C   0  0  0  0  0  0  0  0  0  0  0  0
   44.9790   34.9630   45.5570 N   0  0  0  0  0  0  0  0  0  0  0  0
   44.2200   36.1070   44.1150 H   0  0  0  0  0  0  0  0  0  0  0  0
   45.5470   32.0670   43.1930 H   0  0  0  0  0  0  0  0  0  0  0  0
   45.8080   33.6810   47.0480 H   0  0  0  0  0  0  0  0  0  0  0  0
   46.1350   33.4510   40.4570 C   0  0  0  0  0  3  0  0  0  0  0  0
   46.2350   33.3200   38.9840 C   0  0  0  0  0  2  0  0  0  0  0  0
   47.6700   32.9220   38.6670 C   0  0  0  0  0  2  0  0  0  0  0  0
   48.5930   33.1600   39.8190 C   0  0  0  0  0  2  0  0  0  0  0  0
   48.3670   34.4690   40.5080 C   0  0  0  0  0  2  0  0  0  0  0  0
   46.9190   34.6200   40.9300 C   0  0  0  0  0  2  0  0  0  0  0  0
  1 16  1  0  0  0  0
  2  7  1  1  0  0  0
  2  1  1  0  0  0  0
  3  4  1  0  0  0  0
  3  2  1  0  0  0  0
  4  5  1  0  0  0  0
  5 11  1  0  0  0  0
  5  6  1  0  0  0  0
  6  1  1  0  0  0  0
  6 14  1  0  0  0  0
  8  3  1  0  0  0  0
  9  3  1  0  0  0  0
 10  4  1  0  0  0  0
 12  5  1  0  0  0  0
 13  6  1  0  0  0  0
 15 20  1  0  0  0  0
 16 17  1  0  0  0  0
 16 15  2  0  0  0  0
 17 18  2  0  0  0  0
 18 19  1  0  0  0  0
 19 23  1  0  0  0  0
 20 19  2  0  0  0  0
 21 15  1  0  0  0  0
 22 17  1  0  0  0  0
 24 29  1  0  0  0  0
 24  2  1  0  0  0  0
 25 24  1  0  0  0  0
 26 25  1  0  0  0  0
 26 27  1  0  0  0  0
 27 28  1  0  0  0  0
 28 29  1  0  0  0  0
M  END
>  <minimizedAffinity>
-4.47088146

>  <minimizedRMSD>
0.417351604

$$$$
