
 OpenBabel03242522183D

 41 44  0  0  0  0  0  0  0  0999 V2000
   44.0270   35.5170   41.1480 C   0  0  0  0  0  0  0  0  0  0  0  0
   44.1980   36.5720   40.8130 H   0  0  0  0  0  0  0  0  0  0  0  0
   44.9350   34.9660   40.7660 H   0  0  0  0  0  0  0  0  0  0  0  0
   42.8680   34.9460   40.5140 C   0  0  0  0  0  0  0  0  0  0  0  0
   42.5650   34.8130   39.1910 C   0  0  0  0  0  0  0  0  0  0  0  0
   41.4140   34.2250   38.6750 C   0  0  0  0  0  0  0  0  0  0  0  0
   40.5160   33.7440   39.5950 C   0  0  0  0  0  0  0  0  0  0  0  0
   40.8350   33.8890   40.9110 C   0  0  0  0  0  0  0  0  0  0  0  0
   41.9390   34.4510   41.3880 N   0  0  0  0  0  0  0  0  0  0  0  0
   43.3580   35.2350   38.5510 H   0  0  0  0  0  0  0  0  0  0  0  0
   41.3910   34.2330   37.6170 H   0  0  0  0  0  0  0  0  0  0  0  0
   39.3280   33.1360   38.9340 C   0  0  0  0  0  0  0  0  0  0  0  0
   39.0770   33.7910   37.5540 C   0  0  0  0  0  0  0  0  0  0  0  0
   37.7240   33.2740   37.0750 C   0  0  0  0  0  0  0  0  0  0  0  0
   38.0130   31.8700   36.5640 C   0  0  0  0  0  0  0  0  0  0  0  0
   39.2830   31.3300   37.1580 C   0  0  0  0  0  0  0  0  0  0  0  0
   39.4290   31.6810   38.6470 C   0  0  0  0  0  0  0  0  0  0  0  0
   39.7610   33.3910   41.8370 C   0  0  0  0  0  0  0  0  0  0  0  0
   38.5240   33.4410   41.2340 F   0  0  0  0  0  0  0  0  0  0  0  0
   39.7150   34.0920   43.0260 F   0  0  0  0  0  0  0  0  0  0  0  0
   40.0150   32.0790   42.1730 F   0  0  0  0  0  0  0  0  0  0  0  0
   44.0700   35.4590   42.6330 C   0  0  0  0  0  0  0  0  0  0  0  0
   44.2230   36.4400   43.1130 H   0  0  0  0  0  0  0  0  0  0  0  0
   43.0940   35.0560   42.9920 H   0  0  0  0  0  0  0  0  0  0  0  0
   46.9900   33.2270   43.1150 C   0  0  0  0  0  0  0  0  0  0  0  0
   46.9860   33.1530   44.4500 C   0  0  0  0  0  0  0  0  0  0  0  0
   45.5350   34.2220   44.8900 S   0  0  0  0  0  0  0  0  0  0  0  0
   45.1990   34.5790   43.1000 C   0  0  0  0  0  0  0  0  0  0  0  0
   46.0440   33.9680   42.6450 N   0  0  0  0  0  0  0  0  0  0  0  0
   47.6660   32.6020   45.0930 H   0  0  0  0  0  0  0  0  0  0  0  0
   49.6710   32.4740   40.5820 C   0  0  0  0  0  0  0  0  0  0  0  0
   48.7660   33.2060   41.3620 C   0  0  0  0  0  0  0  0  0  0  0  0
   47.9760   32.5330   42.2500 C   0  0  0  0  0  0  0  0  0  0  0  0
   48.1260   31.1570   42.3200 N   0  0  0  0  0  0  0  0  0  0  0  0
   49.0170   30.5100   41.5400 C   0  0  0  0  0  0  0  0  0  0  0  0
   49.7830   31.1630   40.6790 N   0  0  0  0  0  0  0  0  0  0  0  0
   50.3240   32.9700   39.8570 H   0  0  0  0  0  0  0  0  0  0  0  0
   49.0160   29.4380   41.7100 H   0  0  0  0  0  0  0  0  0  0  0  0
   48.7350   34.6120   41.1690 N   0  0  0  0  0  0  0  0  0  0  0  0
   48.8200   34.9500   40.1700 H   0  0  0  0  0  0  0  0  0  0  0  0
   48.6320   35.2190   42.0190 H   0  0  0  0  0  0  0  0  0  0  0  0
  1 22  1  0  0  0  0
  2  1  1  0  0  0  0
  3  1  1  0  0  0  0
  4  1  1  0  0  0  0
  4  9  1  0  0  0  0
  5  4  2  0  0  0  0
  6  5  1  0  0  0  0
  6  7  2  0  0  0  0
  7  8  1  0  0  0  0
  8  9  2  0  0  0  0
  8 18  1  0  0  0  0
 10  5  1  0  0  0  0
 11  6  1  0  0  0  0
 12  7  1  0  0  0  0
 13 12  1  0  0  0  0
 14 13  1  0  0  0  0
 15 14  1  0  0  0  0
 15 16  1  0  0  0  0
 16 17  1  0  0  0  0
 17 12  1  0  0  0  0
 18 21  1  0  0  0  0
 18 20  1  0  0  0  0
 19 18  1  0  0  0  0
 22 24  1  0  0  0  0
 22 28  1  0  0  0  0
 22 23  1  0  0  0  0
 25 26  2  0  0  0  0
 26 27  1  0  0  0  0
 26 30  1  0  0  0  0
 28 27  1  0  0  0  0
 29 28  2  0  0  0  0
 29 25  1  0  0  0  0
 31 36  2  0  0  0  0
 31 32  1  0  0  0  0
 32 33  2  0  0  0  0
 33 34  1  0  0  0  0
 33 25  1  0  0  0  0
 35 38  1  0  0  0  0
 35 34  2  0  0  0  0
 36 35  1  0  0  0  0
 37 31  1  0  0  0  0
 39 32  1  0  0  0  0
 39 41  1  0  0  0  0
 40 39  1  0  0  0  0
M  END
>  <minimizedAffinity>
-5.85847616

>  <minimizedRMSD>
1.69790757

$$$$
