
 OpenBabel03242519233D

 31 33  0  0  0  0  0  0  0  0999 V2000
   37.3180   27.2870   42.4910 C   0  0  0  0  0  0  0  0  0  0  0  0
   38.1380   27.5920   43.6750 C   0  0  0  0  0  0  0  0  0  0  0  0
   39.5600   27.1260   43.5610 C   0  0  0  0  0  0  0  0  0  0  0  0
   39.6520   25.6390   43.2620 C   0  0  0  0  0  0  0  0  0  0  0  0
   38.6620   25.1740   42.2320 C   0  0  0  0  0  0  0  0  0  0  0  0
   37.9910   26.3220   41.5210 C   0  0  0  0  0  0  0  0  0  0  0  0
   36.3430   26.7820   42.7600 H   0  0  0  0  0  0  0  0  0  0  0  0
   37.7100   27.0180   44.5490 H   0  0  0  0  0  0  0  0  0  0  0  0
   38.1360   28.6320   44.0110 H   0  0  0  0  0  0  0  0  0  0  0  0
   40.0130   27.2580   44.5760 H   0  0  0  0  0  0  0  0  0  0  0  0
   40.1850   27.6430   42.8410 H   0  0  0  0  0  0  0  0  0  0  0  0
   40.6820   25.4430   42.9060 H   0  0  0  0  0  0  0  0  0  0  0  0
   39.4930   25.0920   44.2300 H   0  0  0  0  0  0  0  0  0  0  0  0
   37.8350   24.6360   42.7710 H   0  0  0  0  0  0  0  0  0  0  0  0
   39.0800   24.5110   41.4750 H   0  0  0  0  0  0  0  0  0  0  0  0
   37.2780   25.9340   40.7960 H   0  0  0  0  0  0  0  0  0  0  0  0
   38.7800   26.8710   40.9790 H   0  0  0  0  0  0  0  0  0  0  0  0
   36.9470   28.4810   41.7100 C   0  0  0  0  0  0  0  0  0  0  0  0
   35.6910   28.4250   41.0550 C   0  0  0  0  0  0  0  0  0  0  0  0
   35.2610   29.5210   40.3050 C   0  0  0  0  0  0  0  0  0  0  0  0
   36.1110   30.6080   40.2540 N   0  0  0  0  0  0  0  0  0  0  0  0
   37.3030   30.6290   40.8920 C   0  0  0  0  0  0  0  0  0  0  0  0
   37.7110   29.5790   41.6070 N   0  0  0  0  0  0  0  0  0  0  0  0
   34.9870   27.6350   41.0440 H   0  0  0  0  0  0  0  0  0  0  0  0
   34.3280   29.5650   39.7770 H   0  0  0  0  0  0  0  0  0  0  0  0
   38.1820   31.8250   40.8050 C   0  0  0  0  0  3  0  0  0  0  0  0
   39.5700   31.4870   40.3170 C   0  0  0  0  0  2  0  0  0  0  0  0
   40.4360   32.7080   40.5210 C   0  0  0  0  0  2  0  0  0  0  0  0
   39.8690   33.9700   39.9670 C   0  0  0  0  0  2  0  0  0  0  0  0
   38.4040   34.1600   40.1810 C   0  0  0  0  0  2  0  0  0  0  0  0
   37.6440   32.8750   39.8400 C   0  0  0  0  0  2  0  0  0  0  0  0
  1  7  1  0  0  0  0
  1  2  1  0  0  0  0
  2  9  1  0  0  0  0
  2  8  1  0  0  0  0
  3  2  1  0  0  0  0
  3 10  1  0  0  0  0
  4  3  1  0  0  0  0
  4 13  1  0  0  0  0
  5 14  1  0  0  0  0
  5  4  1  0  0  0  0
  6  5  1  0  0  0  0
  6  1  1  0  0  0  0
 11  3  1  0  0  0  0
 12  4  1  0  0  0  0
 15  5  1  0  0  0  0
 16  6  1  0  0  0  0
 17  6  1  0  0  0  0
 18  1  1  0  0  0  0
 19 18  2  0  0  0  0
 20 19  1  0  0  0  0
 21 20  2  0  0  0  0
 21 22  1  0  0  0  0
 22 23  2  0  0  0  0
 23 18  1  0  0  0  0
 24 19  1  0  0  0  0
 25 20  1  0  0  0  0
 26 22  1  0  0  0  0
 27 28  1  0  0  0  0
 27 26  1  0  0  0  0
 29 30  1  0  0  0  0
 29 28  1  0  0  0  0
 31 30  1  0  0  0  0
 31 26  1  0  0  0  0
M  END
>  <minimizedAffinity>
-5.56240129

$$$$

 OpenBabel03242519233D

 31 33  0  0  0  0  0  0  0  0999 V2000
   36.9100   25.3390   41.5660 C   0  0  0  0  0  0  0  0  0  0  0  0
   37.9010   24.4280   42.1620 C   0  0  0  0  0  0  0  0  0  0  0  0
   38.8330   23.8110   41.1600 C   0  0  0  0  0  0  0  0  0  0  0  0
   38.0830   23.0800   40.0570 C   0  0  0  0  0  0  0  0  0  0  0  0
   36.8840   23.8300   39.5510 C   0  0  0  0  0  0  0  0  0  0  0  0
   36.8470   25.2550   40.0440 C   0  0  0  0  0  0  0  0  0  0  0  0
   35.8560   25.1130   41.9050 H   0  0  0  0  0  0  0  0  0  0  0  0
   37.3410   23.5590   42.6170 H   0  0  0  0  0  0  0  0  0  0  0  0
   38.4920   24.8290   42.9890 H   0  0  0  0  0  0  0  0  0  0  0  0
   39.4040   23.0220   41.7100 H   0  0  0  0  0  0  0  0  0  0  0  0
   39.5450   24.4760   40.6840 H   0  0  0  0  0  0  0  0  0  0  0  0
   38.8010   22.9210   39.2280 H   0  0  0  0  0  0  0  0  0  0  0  0
   37.7750   22.0810   40.4670 H   0  0  0  0  0  0  0  0  0  0  0  0
   35.9680   23.3430   39.9850 H   0  0  0  0  0  0  0  0  0  0  0  0
   36.7920   23.8500   38.4660 H   0  0  0  0  0  0  0  0  0  0  0  0
   35.9560   25.7490   39.6610 H   0  0  0  0  0  0  0  0  0  0  0  0
   37.7350   25.7620   39.6320 H   0  0  0  0  0  0  0  0  0  0  0  0
   37.1410   26.7580   41.9000 C   0  0  0  0  0  0  0  0  0  0  0  0
   37.2270   27.0610   43.2810 C   0  0  0  0  0  0  0  0  0  0  0  0
   37.4570   28.3790   43.6800 C   0  0  0  0  0  0  0  0  0  0  0  0
   37.5860   29.3150   42.6740 N   0  0  0  0  0  0  0  0  0  0  0  0
   37.4990   28.9930   41.3640 C   0  0  0  0  0  0  0  0  0  0  0  0
   37.2790   27.7320   40.9880 N   0  0  0  0  0  0  0  0  0  0  0  0
   37.1390   26.4050   44.1080 H   0  0  0  0  0  0  0  0  0  0  0  0
   37.5360   28.6980   44.7010 H   0  0  0  0  0  0  0  0  0  0  0  0
   37.6460   30.0400   40.3190 C   0  0  0  0  0  3  0  0  0  0  0  0
   37.3370   29.5210   38.9350 C   0  0  0  0  0  2  0  0  0  0  0  0
   37.7710   30.5760   37.9450 C   0  0  0  0  0  2  0  0  0  0  0  0
   37.2530   31.9440   38.2290 C   0  0  0  0  0  2  0  0  0  0  0  0
   37.2670   32.3460   39.6670 C   0  0  0  0  0  2  0  0  0  0  0  0
   36.7080   31.2210   40.5410 C   0  0  0  0  0  2  0  0  0  0  0  0
  1 18  1  0  0  0  0
  1  7  1  0  0  0  0
  1  2  1  0  0  0  0
  2  8  1  0  0  0  0
  2  9  1  0  0  0  0
  3 10  1  0  0  0  0
  3  2  1  0  0  0  0
  4 13  1  0  0  0  0
  4  3  1  0  0  0  0
  5 14  1  0  0  0  0
  5  6  1  0  0  0  0
  5  4  1  0  0  0  0
  6  1  1  0  0  0  0
 11  3  1  0  0  0  0
 12  4  1  0  0  0  0
 15  5  1  0  0  0  0
 16  6  1  0  0  0  0
 17  6  1  0  0  0  0
 18 19  1  0  0  0  0
 19 20  2  0  0  0  0
 19 24  1  0  0  0  0
 20 25  1  0  0  0  0
 21 20  1  0  0  0  0
 22 21  2  0  0  0  0
 23 22  1  0  0  0  0
 23 18  2  0  0  0  0
 26 31  1  0  0  0  0
 26 22  1  0  0  0  0
 27 26  1  0  0  0  0
 28 29  1  0  0  0  0
 28 27  1  0  0  0  0
 29 30  1  0  0  0  0
 30 31  1  0  0  0  0
M  END
>  <minimizedAffinity>
-5.36672688

$$$$

 OpenBabel03242519233D

 31 33  0  0  0  0  0  0  0  0999 V2000
   38.0420   31.4200   39.5720 C   0  0  0  0  0  0  0  0  0  0  0  0
   39.4270   31.7210   39.9670 C   0  0  0  0  0  0  0  0  0  0  0  0
   39.5520   32.9190   40.8630 C   0  0  0  0  0  0  0  0  0  0  0  0
   38.9280   34.1610   40.2470 C   0  0  0  0  0  0  0  0  0  0  0  0
   37.6070   33.9000   39.5830 C   0  0  0  0  0  0  0  0  0  0  0  0
   37.0580   32.5340   39.9130 C   0  0  0  0  0  0  0  0  0  0  0  0
   37.9320   31.2790   38.4560 H   0  0  0  0  0  0  0  0  0  0  0  0
   40.0020   31.9920   39.0330 H   0  0  0  0  0  0  0  0  0  0  0  0
   39.9970   30.8970   40.4030 H   0  0  0  0  0  0  0  0  0  0  0  0
   40.6470   33.1380   40.9400 H   0  0  0  0  0  0  0  0  0  0  0  0
   39.1550   32.8190   41.8680 H   0  0  0  0  0  0  0  0  0  0  0  0
   38.7970   34.8970   41.0650 H   0  0  0  0  0  0  0  0  0  0  0  0
   39.6640   34.5720   39.5040 H   0  0  0  0  0  0  0  0  0  0  0  0
   37.7780   33.8880   38.4720 H   0  0  0  0  0  0  0  0  0  0  0  0
   36.8350   34.6340   39.8130 H   0  0  0  0  0  0  0  0  0  0  0  0
   36.1090   32.3900   39.4000 H   0  0  0  0  0  0  0  0  0  0  0  0
   36.8760   32.5140   41.0010 H   0  0  0  0  0  0  0  0  0  0  0  0
   37.5110   30.1870   40.1830 C   0  0  0  0  0  0  0  0  0  0  0  0
   36.1000   30.0570   40.1870 C   0  0  0  0  0  0  0  0  0  0  0  0
   35.5200   28.9120   40.7370 C   0  0  0  0  0  0  0  0  0  0  0  0
   36.3850   27.9650   41.2480 N   0  0  0  0  0  0  0  0  0  0  0  0
   37.7280   28.1200   41.2280 C   0  0  0  0  0  0  0  0  0  0  0  0
   38.2780   29.2160   40.7030 N   0  0  0  0  0  0  0  0  0  0  0  0
   35.3740   30.7330   39.8190 H   0  0  0  0  0  0  0  0  0  0  0  0
   34.4630   28.7310   40.7820 H   0  0  0  0  0  0  0  0  0  0  0  0
   38.6160   27.0690   41.7920 C   0  0  0  0  0  3  0  0  0  0  0  0
   38.8640   27.2560   43.2690 C   0  0  0  0  0  2  0  0  0  0  0  0
   39.9710   26.3090   43.6690 C   0  0  0  0  0  2  0  0  0  0  0  0
   39.7600   24.8960   43.2470 C   0  0  0  0  0  2  0  0  0  0  0  0
   39.2070   24.7170   41.8710 C   0  0  0  0  0  2  0  0  0  0  0  0
   38.0310   25.6700   41.6410 C   0  0  0  0  0  2  0  0  0  0  0  0
  1  6  1  0  0  0  0
  1  2  1  0  0  0  0
  1 18  1  0  0  0  0
  2  9  1  0  0  0  0
  2  3  1  0  0  0  0
  3 10  1  0  0  0  0
  3 11  1  0  0  0  0
  4  3  1  0  0  0  0
  4 12  1  0  0  0  0
  5 15  1  0  0  0  0
  5  6  1  0  0  0  0
  5  4  1  0  0  0  0
  6 17  1  0  0  0  0
  7  1  1  0  0  0  0
  8  2  1  0  0  0  0
 13  4  1  0  0  0  0
 14  5  1  0  0  0  0
 16  6  1  0  0  0  0
 18 19  2  0  0  0  0
 18 23  1  0  0  0  0
 19 20  1  0  0  0  0
 20 25  1  0  0  0  0
 20 21  2  0  0  0  0
 22 21  1  0  0  0  0
 22 26  1  0  0  0  0
 23 22  2  0  0  0  0
 24 19  1  0  0  0  0
 26 27  1  0  0  0  0
 27 28  1  0  0  0  0
 29 28  1  0  0  0  0
 30 29  1  0  0  0  0
 31 26  1  0  0  0  0
 31 30  1  0  0  0  0
M  END
>  <minimizedAffinity>
-5.31038618

$$$$

 OpenBabel03242519233D

 31 33  0  0  0  0  0  0  0  0999 V2000
   36.4650   30.4100   40.5480 C   0  0  0  0  0  0  0  0  0  0  0  0
   36.2190   30.1470   39.1200 C   0  0  0  0  0  0  0  0  0  0  0  0
   37.2250   30.7850   38.2070 C   0  0  0  0  0  0  0  0  0  0  0  0
   37.3240   32.2860   38.4280 C   0  0  0  0  0  0  0  0  0  0  0  0
   37.3240   32.6790   39.8770 C   0  0  0  0  0  0  0  0  0  0  0  0
   37.5080   31.4950   40.7940 C   0  0  0  0  0  0  0  0  0  0  0  0
   35.5410   30.7800   41.0840 H   0  0  0  0  0  0  0  0  0  0  0  0
   35.2310   30.6210   38.8470 H   0  0  0  0  0  0  0  0  0  0  0  0
   36.1020   29.0990   38.8340 H   0  0  0  0  0  0  0  0  0  0  0  0
   36.8270   30.6590   37.1690 H   0  0  0  0  0  0  0  0  0  0  0  0
   38.2320   30.3850   38.2360 H   0  0  0  0  0  0  0  0  0  0  0  0
   38.2660   32.6220   37.9500 H   0  0  0  0  0  0  0  0  0  0  0  0
   36.4580   32.7610   37.8940 H   0  0  0  0  0  0  0  0  0  0  0  0
   36.3050   33.0870   40.1210 H   0  0  0  0  0  0  0  0  0  0  0  0
   38.0740   33.4250   40.1410 H   0  0  0  0  0  0  0  0  0  0  0  0
   37.4880   31.8310   41.8290 H   0  0  0  0  0  0  0  0  0  0  0  0
   38.5040   31.0730   40.5790 H   0  0  0  0  0  0  0  0  0  0  0  0
   36.9100   29.2200   41.2970 C   0  0  0  0  0  0  0  0  0  0  0  0
   37.5350   29.4720   42.5430 C   0  0  0  0  0  0  0  0  0  0  0  0
   37.9740   28.3980   43.3190 C   0  0  0  0  0  0  0  0  0  0  0  0
   37.7620   27.1350   42.8030 N   0  0  0  0  0  0  0  0  0  0  0  0
   37.1610   26.9290   41.6090 C   0  0  0  0  0  0  0  0  0  0  0  0
   36.7450   27.9590   40.8710 N   0  0  0  0  0  0  0  0  0  0  0  0
   37.7340   30.4040   43.0050 H   0  0  0  0  0  0  0  0  0  0  0  0
   38.4560   28.4960   44.2730 H   0  0  0  0  0  0  0  0  0  0  0  0
   36.9570   25.5470   41.0980 C   0  0  0  0  0  3  0  0  0  0  0  0
   36.5740   25.5240   39.6380 C   0  0  0  0  0  2  0  0  0  0  0  0
   36.1370   24.1160   39.3040 C   0  0  0  0  0  2  0  0  0  0  0  0
   37.0990   23.0550   39.7140 C   0  0  0  0  0  2  0  0  0  0  0  0
   37.7280   23.2480   41.0550 C   0  0  0  0  0  2  0  0  0  0  0  0
   38.2120   24.6910   41.2150 C   0  0  0  0  0  2  0  0  0  0  0  0
  1  6  1  0  0  0  0
  1  7  1  0  0  0  0
  1 18  1  0  0  0  0
  2  1  1  0  0  0  0
  3 11  1  0  0  0  0
  3  4  1  0  0  0  0
  3  2  1  0  0  0  0
  4  5  1  0  0  0  0
  5 14  1  0  0  0  0
  5 15  1  0  0  0  0
  5  6  1  0  0  0  0
  6 16  1  0  0  0  0
  8  2  1  0  0  0  0
  9  2  1  0  0  0  0
 10  3  1  0  0  0  0
 12  4  1  0  0  0  0
 13  4  1  0  0  0  0
 17  6  1  0  0  0  0
 18 19  1  0  0  0  0
 19 24  1  0  0  0  0
 19 20  2  0  0  0  0
 20 25  1  0  0  0  0
 21 20  1  0  0  0  0
 22 21  2  0  0  0  0
 23 18  2  0  0  0  0
 23 22  1  0  0  0  0
 26 31  1  0  0  0  0
 26 22  1  0  0  0  0
 27 26  1  0  0  0  0
 28 27  1  0  0  0  0
 28 29  1  0  0  0  0
 29 30  1  0  0  0  0
 30 31  1  0  0  0  0
M  END
>  <minimizedAffinity>
-5.28587627

$$$$

 OpenBabel03242519233D

 31 33  0  0  0  0  0  0  0  0999 V2000
   37.1340   29.6080   42.1480 C   0  0  0  0  0  0  0  0  0  0  0  0
   38.4900   29.6700   42.7170 C   0  0  0  0  0  0  0  0  0  0  0  0
   39.1610   28.3320   42.8250 C   0  0  0  0  0  0  0  0  0  0  0  0
   38.3300   27.3390   43.6220 C   0  0  0  0  0  0  0  0  0  0  0  0
   36.8660   27.3800   43.2880 C   0  0  0  0  0  0  0  0  0  0  0  0
   36.5820   28.1900   42.0480 C   0  0  0  0  0  0  0  0  0  0  0  0
   36.3750   30.1630   42.7760 H   0  0  0  0  0  0  0  0  0  0  0  0
   38.4010   30.0410   43.7810 H   0  0  0  0  0  0  0  0  0  0  0  0
   39.1830   30.3720   42.2460 H   0  0  0  0  0  0  0  0  0  0  0  0
   40.0910   28.4970   43.4250 H   0  0  0  0  0  0  0  0  0  0  0  0
   39.4390   27.8500   41.8940 H   0  0  0  0  0  0  0  0  0  0  0  0
   38.7340   26.3310   43.4050 H   0  0  0  0  0  0  0  0  0  0  0  0
   38.4880   27.5670   44.7100 H   0  0  0  0  0  0  0  0  0  0  0  0
   36.3400   27.9210   44.1210 H   0  0  0  0  0  0  0  0  0  0  0  0
   36.4070   26.4000   43.1590 H   0  0  0  0  0  0  0  0  0  0  0  0
   35.5110   28.1990   41.8560 H   0  0  0  0  0  0  0  0  0  0  0  0
   37.0860   27.6820   41.2080 H   0  0  0  0  0  0  0  0  0  0  0  0
   37.0370   30.1950   40.7970 C   0  0  0  0  0  0  0  0  0  0  0  0
   37.3220   31.5790   40.7030 C   0  0  0  0  0  0  0  0  0  0  0  0
   37.2640   32.2070   39.4570 C   0  0  0  0  0  0  0  0  0  0  0  0
   36.9250   31.4130   38.3800 N   0  0  0  0  0  0  0  0  0  0  0  0
   36.6590   30.0930   38.5040 C   0  0  0  0  0  0  0  0  0  0  0  0
   36.7150   29.4980   39.6970 N   0  0  0  0  0  0  0  0  0  0  0  0
   37.5870   32.2530   41.4760 H   0  0  0  0  0  0  0  0  0  0  0  0
   37.4650   33.2480   39.2940 H   0  0  0  0  0  0  0  0  0  0  0  0
   36.2980   29.2820   37.3120 C   0  0  0  0  0  3  0  0  0  0  0  0
   34.8100   29.0630   37.1920 C   0  0  0  0  0  2  0  0  0  0  0  0
   34.5860   28.0230   36.1190 C   0  0  0  0  0  2  0  0  0  0  0  0
   35.2810   28.3020   34.8310 C   0  0  0  0  0  2  0  0  0  0  0  0
   36.6730   28.8270   34.9580 C   0  0  0  0  0  2  0  0  0  0  0  0
   36.7300   29.9410   36.0070 C   0  0  0  0  0  2  0  0  0  0  0  0
  1  2  1  0  0  0  0
  1  7  1  0  0  0  0
  2  3  1  0  0  0  0
  2  8  1  0  0  0  0
  3 10  1  0  0  0  0
  3  4  1  0  0  0  0
  4 13  1  0  0  0  0
  5  4  1  0  0  0  0
  5 14  1  0  0  0  0
  6  1  1  0  0  0  0
  6  5  1  0  0  0  0
  9  2  1  0  0  0  0
 11  3  1  0  0  0  0
 12  4  1  0  0  0  0
 15  5  1  0  0  0  0
 16  6  1  0  0  0  0
 17  6  1  0  0  0  0
 18  1  1  0  0  0  0
 19 18  1  0  0  0  0
 19 24  1  0  0  0  0
 20 19  2  0  0  0  0
 21 22  2  0  0  0  0
 21 20  1  0  0  0  0
 22 23  1  0  0  0  0
 23 18  2  0  0  0  0
 25 20  1  0  0  0  0
 26 22  1  0  0  0  0
 27 26  1  0  0  0  0
 28 27  1  0  0  0  0
 29 30  1  0  0  0  0
 29 28  1  0  0  0  0
 30 31  1  0  0  0  0
 31 26  1  0  0  0  0
M  END
>  <minimizedAffinity>
-5.25025225

$$$$

 OpenBabel03242519233D

 31 33  0  0  0  0  0  0  0  0999 V2000
   38.6870   26.6770   43.1730 C   0  0  0  0  0  0  0  0  0  0  0  0
   39.5940   25.5200   43.2440 C   0  0  0  0  0  0  0  0  0  0  0  0
   39.4060   24.5370   42.1250 C   0  0  0  0  0  0  0  0  0  0  0  0
   37.9720   24.0420   42.0350 C   0  0  0  0  0  0  0  0  0  0  0  0
   36.9510   25.1300   42.2090 C   0  0  0  0  0  0  0  0  0  0  0  0
   37.5640   26.5070   42.1550 C   0  0  0  0  0  0  0  0  0  0  0  0
   38.1540   26.8690   44.1520 H   0  0  0  0  0  0  0  0  0  0  0  0
   39.3470   24.9450   44.1850 H   0  0  0  0  0  0  0  0  0  0  0  0
   40.6590   25.7440   43.3380 H   0  0  0  0  0  0  0  0  0  0  0  0
   40.0190   23.6400   42.3930 H   0  0  0  0  0  0  0  0  0  0  0  0
   39.7010   24.8660   41.1350 H   0  0  0  0  0  0  0  0  0  0  0  0
   37.8540   23.5740   41.0370 H   0  0  0  0  0  0  0  0  0  0  0  0
   37.8400   23.2530   42.8230 H   0  0  0  0  0  0  0  0  0  0  0  0
   36.5250   25.0360   43.2450 H   0  0  0  0  0  0  0  0  0  0  0  0
   36.1350   25.1000   41.4880 H   0  0  0  0  0  0  0  0  0  0  0  0
   36.7880   27.2560   42.2980 H   0  0  0  0  0  0  0  0  0  0  0  0
   37.9920   26.6310   41.1460 H   0  0  0  0  0  0  0  0  0  0  0  0
   39.3710   27.9400   42.8390 C   0  0  0  0  0  0  0  0  0  0  0  0
   40.7630   27.9770   43.1010 C   0  0  0  0  0  0  0  0  0  0  0  0
   41.4860   29.1330   42.8010 C   0  0  0  0  0  0  0  0  0  0  0  0
   40.7740   30.1830   42.2560 N   0  0  0  0  0  0  0  0  0  0  0  0
   39.4450   30.1150   42.0170 C   0  0  0  0  0  0  0  0  0  0  0  0
   38.7580   29.0090   42.3070 N   0  0  0  0  0  0  0  0  0  0  0  0
   41.3770   27.2210   43.5150 H   0  0  0  0  0  0  0  0  0  0  0  0
   42.5400   29.2490   42.9660 H   0  0  0  0  0  0  0  0  0  0  0  0
   38.7250   31.2750   41.4280 C   0  0  0  0  0  3  0  0  0  0  0  0
   39.6630   32.3720   40.9870 C   0  0  0  0  0  2  0  0  0  0  0  0
   38.8250   33.5860   40.6600 C   0  0  0  0  0  2  0  0  0  0  0  0
   37.6910   33.3230   39.7290 C   0  0  0  0  0  2  0  0  0  0  0  0
   36.9440   32.0540   39.9760 C   0  0  0  0  0  2  0  0  0  0  0  0
   37.9190   30.8940   40.1920 C   0  0  0  0  0  2  0  0  0  0  0  0
  1  2  1  0  0  0  0
  1  7  1  0  0  0  0
  2  9  1  0  0  0  0
  2  8  1  0  0  0  0
  3 10  1  0  0  0  0
  3  2  1  0  0  0  0
  4  3  1  0  0  0  0
  4  5  1  0  0  0  0
  4 13  1  0  0  0  0
  5 14  1  0  0  0  0
  6  5  1  0  0  0  0
  6 16  1  0  0  0  0
  6  1  1  0  0  0  0
 11  3  1  0  0  0  0
 12  4  1  0  0  0  0
 15  5  1  0  0  0  0
 17  6  1  0  0  0  0
 18 19  1  0  0  0  0
 18  1  1  0  0  0  0
 19 24  1  0  0  0  0
 20 25  1  0  0  0  0
 20 19  2  0  0  0  0
 21 20  1  0  0  0  0
 22 21  2  0  0  0  0
 22 23  1  0  0  0  0
 23 18  2  0  0  0  0
 26 22  1  0  0  0  0
 27 26  1  0  0  0  0
 28 27  1  0  0  0  0
 29 30  1  0  0  0  0
 29 28  1  0  0  0  0
 30 31  1  0  0  0  0
 31 26  1  0  0  0  0
M  END
>  <minimizedAffinity>
-5.24380445

$$$$

 OpenBabel03242519233D

 31 33  0  0  0  0  0  0  0  0999 V2000
   37.3830   29.6520   42.2030 C   0  0  0  0  0  0  0  0  0  0  0  0
   38.6470   29.4590   42.9320 C   0  0  0  0  0  0  0  0  0  0  0  0
   39.1020   28.0290   42.9840 C   0  0  0  0  0  0  0  0  0  0  0  0
   38.0410   27.1130   43.5720 C   0  0  0  0  0  0  0  0  0  0  0  0
   36.6550   27.4050   43.0730 C   0  0  0  0  0  0  0  0  0  0  0  0
   36.6550   28.3480   41.8960 C   0  0  0  0  0  0  0  0  0  0  0  0
   36.6340   30.2620   42.7900 H   0  0  0  0  0  0  0  0  0  0  0  0
   38.4720   29.7500   44.0100 H   0  0  0  0  0  0  0  0  0  0  0  0
   39.4880   30.0830   42.6190 H   0  0  0  0  0  0  0  0  0  0  0  0
   39.9580   28.0010   43.7030 H   0  0  0  0  0  0  0  0  0  0  0  0
   39.4300   27.5890   42.0480 H   0  0  0  0  0  0  0  0  0  0  0  0
   38.3240   26.0760   43.3040 H   0  0  0  0  0  0  0  0  0  0  0  0
   38.0860   27.2240   44.6890 H   0  0  0  0  0  0  0  0  0  0  0  0
   36.1060   27.9500   43.8890 H   0  0  0  0  0  0  0  0  0  0  0  0
   36.0830   26.5210   42.7920 H   0  0  0  0  0  0  0  0  0  0  0  0
   35.6300   28.5360   41.5810 H   0  0  0  0  0  0  0  0  0  0  0  0
   37.1880   27.8390   41.0750 H   0  0  0  0  0  0  0  0  0  0  0  0
   37.5490   30.3550   40.9170 C   0  0  0  0  0  0  0  0  0  0  0  0
   36.5450   30.1140   39.9470 C   0  0  0  0  0  0  0  0  0  0  0  0
   36.6220   30.7520   38.7080 C   0  0  0  0  0  0  0  0  0  0  0  0
   37.6980   31.5940   38.5120 N   0  0  0  0  0  0  0  0  0  0  0  0
   38.6400   31.8030   39.4600 C   0  0  0  0  0  0  0  0  0  0  0  0
   38.5620   31.1900   40.6420 N   0  0  0  0  0  0  0  0  0  0  0  0
   35.6950   29.4870   40.0190 H   0  0  0  0  0  0  0  0  0  0  0  0
   35.9080   30.6280   37.9160 H   0  0  0  0  0  0  0  0  0  0  0  0
   39.7810   32.7210   39.1990 C   0  0  0  0  0  3  0  0  0  0  0  0
   40.5680   33.0320   40.4480 C   0  0  0  0  0  2  0  0  0  0  0  0
   41.5180   34.1610   40.1200 C   0  0  0  0  0  2  0  0  0  0  0  0
   42.3440   33.9400   38.9000 C   0  0  0  0  0  2  0  0  0  0  0  0
   41.6240   33.3290   37.7430 C   0  0  0  0  0  2  0  0  0  0  0  0
   40.7820   32.1380   38.2080 C   0  0  0  0  0  2  0  0  0  0  0  0
  1  7  1  0  0  0  0
  1  2  1  0  0  0  0
  2  3  1  0  0  0  0
  2  8  1  0  0  0  0
  3  4  1  0  0  0  0
  3 10  1  0  0  0  0
  4 13  1  0  0  0  0
  5  4  1  0  0  0  0
  5 14  1  0  0  0  0
  6  1  1  0  0  0  0
  6  5  1  0  0  0  0
  9  2  1  0  0  0  0
 11  3  1  0  0  0  0
 12  4  1  0  0  0  0
 15  5  1  0  0  0  0
 16  6  1  0  0  0  0
 17  6  1  0  0  0  0
 18  1  1  0  0  0  0
 19 24  1  0  0  0  0
 19 18  2  0  0  0  0
 20 19  1  0  0  0  0
 21 20  2  0  0  0  0
 21 22  1  0  0  0  0
 22 23  2  0  0  0  0
 23 18  1  0  0  0  0
 25 20  1  0  0  0  0
 26 22  1  0  0  0  0
 26 27  1  0  0  0  0
 28 27  1  0  0  0  0
 29 28  1  0  0  0  0
 30 31  1  0  0  0  0
 30 29  1  0  0  0  0
 31 26  1  0  0  0  0
M  END
>  <minimizedAffinity>
-5.1359868

$$$$

 OpenBabel03242519233D

 31 33  0  0  0  0  0  0  0  0999 V2000
   37.8650   25.9200   40.7070 C   0  0  0  0  0  0  0  0  0  0  0  0
   37.4990   25.9930   39.2830 C   0  0  0  0  0  0  0  0  0  0  0  0
   36.1700   25.3720   38.9680 C   0  0  0  0  0  0  0  0  0  0  0  0
   36.0920   23.9260   39.4290 C   0  0  0  0  0  0  0  0  0  0  0  0
   36.6810   23.6990   40.7920 C   0  0  0  0  0  0  0  0  0  0  0  0
   36.9660   24.9910   41.5170 C   0  0  0  0  0  0  0  0  0  0  0  0
   38.9070   25.5120   40.8650 H   0  0  0  0  0  0  0  0  0  0  0  0
   38.2530   25.3850   38.7010 H   0  0  0  0  0  0  0  0  0  0  0  0
   37.5410   26.9830   38.8220 H   0  0  0  0  0  0  0  0  0  0  0  0
   36.0990   25.3380   37.8520 H   0  0  0  0  0  0  0  0  0  0  0  0
   35.2920   25.8830   39.3480 H   0  0  0  0  0  0  0  0  0  0  0  0
   35.0200   23.6460   39.4350 H   0  0  0  0  0  0  0  0  0  0  0  0
   36.6260   23.3010   38.6640 H   0  0  0  0  0  0  0  0  0  0  0  0
   37.6850   23.2110   40.6530 H   0  0  0  0  0  0  0  0  0  0  0  0
   36.0740   23.0760   41.4470 H   0  0  0  0  0  0  0  0  0  0  0  0
   37.4020   24.7730   42.4900 H   0  0  0  0  0  0  0  0  0  0  0  0
   35.9970   25.4950   41.6700 H   0  0  0  0  0  0  0  0  0  0  0  0
   37.8420   27.2280   41.3880 C   0  0  0  0  0  0  0  0  0  0  0  0
   37.6100   27.1930   42.7850 C   0  0  0  0  0  0  0  0  0  0  0  0
   37.5850   28.3900   43.5050 C   0  0  0  0  0  0  0  0  0  0  0  0
   37.7950   29.5480   42.7850 N   0  0  0  0  0  0  0  0  0  0  0  0
   38.0150   29.5470   41.4510 C   0  0  0  0  0  0  0  0  0  0  0  0
   38.0360   28.4020   40.7670 N   0  0  0  0  0  0  0  0  0  0  0  0
   37.4410   26.3530   43.4050 H   0  0  0  0  0  0  0  0  0  0  0  0
   37.4170   28.4570   44.5630 H   0  0  0  0  0  0  0  0  0  0  0  0
   38.2350   30.8240   40.7220 C   0  0  0  0  0  3  0  0  0  0  0  0
   36.9660   31.6260   40.5670 C   0  0  0  0  0  2  0  0  0  0  0  0
   37.2520   32.7490   39.5980 C   0  0  0  0  0  2  0  0  0  0  0  0
   38.4620   33.5550   39.9230 C   0  0  0  0  0  2  0  0  0  0  0  0
   39.6450   32.7700   40.3870 C   0  0  0  0  0  2  0  0  0  0  0  0
   39.2220   31.7390   41.4370 C   0  0  0  0  0  2  0  0  0  0  0  0
  1  7  1  0  0  0  0
  1 18  1  0  0  0  0
  1  6  1  0  0  0  0
  2  1  1  0  0  0  0
  3  2  1  0  0  0  0
  3 11  1  0  0  0  0
  3  4  1  0  0  0  0
  4 12  1  0  0  0  0
  4  5  1  0  0  0  0
  5 15  1  0  0  0  0
  5  6  1  0  0  0  0
  6 17  1  0  0  0  0
  6 16  1  0  0  0  0
  8  2  1  0  0  0  0
  9  2  1  0  0  0  0
 10  3  1  0  0  0  0
 13  4  1  0  0  0  0
 14  5  1  0  0  0  0
 18 19  1  0  0  0  0
 19 24  1  0  0  0  0
 19 20  2  0  0  0  0
 20 25  1  0  0  0  0
 21 20  1  0  0  0  0
 22 21  2  0  0  0  0
 23 18  2  0  0  0  0
 23 22  1  0  0  0  0
 26 31  1  0  0  0  0
 26 22  1  0  0  0  0
 27 26  1  0  0  0  0
 28 29  1  0  0  0  0
 28 27  1  0  0  0  0
 29 30  1  0  0  0  0
 30 31  1  0  0  0  0
M  END
>  <minimizedAffinity>
-5.1295805

$$$$

 OpenBabel03242519233D

 31 33  0  0  0  0  0  0  0  0999 V2000
   37.3740   27.0240   42.6300 C   0  0  0  0  0  0  0  0  0  0  0  0
   38.2640   27.5760   43.6640 C   0  0  0  0  0  0  0  0  0  0  0  0
   39.7050   27.1960   43.4850 C   0  0  0  0  0  0  0  0  0  0  0  0
   39.8940   25.6890   43.4180 C   0  0  0  0  0  0  0  0  0  0  0  0
   38.8610   24.9940   42.5770 C   0  0  0  0  0  0  0  0  0  0  0  0
   38.0380   25.9600   41.7620 C   0  0  0  0  0  0  0  0  0  0  0  0
   36.4700   26.5060   43.0690 H   0  0  0  0  0  0  0  0  0  0  0  0
   37.9630   27.1270   44.6560 H   0  0  0  0  0  0  0  0  0  0  0  0
   38.2050   28.6550   43.8290 H   0  0  0  0  0  0  0  0  0  0  0  0
   40.2320   27.5240   44.4160 H   0  0  0  0  0  0  0  0  0  0  0  0
   40.2200   27.6270   42.6340 H   0  0  0  0  0  0  0  0  0  0  0  0
   40.9020   25.5070   42.9960 H   0  0  0  0  0  0  0  0  0  0  0  0
   39.8650   25.3000   44.4710 H   0  0  0  0  0  0  0  0  0  0  0  0
   38.1310   24.4970   43.2730 H   0  0  0  0  0  0  0  0  0  0  0  0
   39.2650   24.2450   41.8960 H   0  0  0  0  0  0  0  0  0  0  0  0
   37.2990   25.4100   41.1820 H   0  0  0  0  0  0  0  0  0  0  0  0
   38.7290   26.4640   41.0650 H   0  0  0  0  0  0  0  0  0  0  0  0
   36.8380   28.0450   41.7100 C   0  0  0  0  0  0  0  0  0  0  0  0
   37.0290   29.3930   42.1030 C   0  0  0  0  0  0  0  0  0  0  0  0
   36.5620   30.4190   41.2790 C   0  0  0  0  0  0  0  0  0  0  0  0
   35.9330   30.0370   40.1120 N   0  0  0  0  0  0  0  0  0  0  0  0
   35.7670   28.7400   39.7650 C   0  0  0  0  0  0  0  0  0  0  0  0
   36.2140   27.7630   40.5560 N   0  0  0  0  0  0  0  0  0  0  0  0
   37.4980   29.7650   42.9760 H   0  0  0  0  0  0  0  0  0  0  0  0
   36.6630   31.4650   41.4980 H   0  0  0  0  0  0  0  0  0  0  0  0
   35.0810   28.3810   38.4960 C   0  0  0  0  0  3  0  0  0  0  0  0
   35.4690   29.2900   37.3550 C   0  0  0  0  0  2  0  0  0  0  0  0
   34.5280   29.0070   36.2070 C   0  0  0  0  0  2  0  0  0  0  0  0
   34.4080   27.5670   35.8440 C   0  0  0  0  0  2  0  0  0  0  0  0
   34.3390   26.6220   36.9990 C   0  0  0  0  0  2  0  0  0  0  0  0
   35.4120   26.9670   38.0350 C   0  0  0  0  0  2  0  0  0  0  0  0
  1  7  1  0  0  0  0
  1  2  1  0  0  0  0
  2  9  1  0  0  0  0
  2  8  1  0  0  0  0
  3  2  1  0  0  0  0
  3 10  1  0  0  0  0
  4  3  1  0  0  0  0
  4 13  1  0  0  0  0
  5 14  1  0  0  0  0
  5  4  1  0  0  0  0
  6  5  1  0  0  0  0
  6  1  1  0  0  0  0
 11  3  1  0  0  0  0
 12  4  1  0  0  0  0
 15  5  1  0  0  0  0
 16  6  1  0  0  0  0
 17  6  1  0  0  0  0
 18 19  1  0  0  0  0
 18  1  1  0  0  0  0
 19 24  1  0  0  0  0
 20 25  1  0  0  0  0
 20 19  2  0  0  0  0
 21 20  1  0  0  0  0
 22 21  2  0  0  0  0
 22 23  1  0  0  0  0
 23 18  2  0  0  0  0
 26 22  1  0  0  0  0
 27 26  1  0  0  0  0
 28 27  1  0  0  0  0
 29 28  1  0  0  0  0
 29 30  1  0  0  0  0
 30 31  1  0  0  0  0
 31 26  1  0  0  0  0
M  END
>  <minimizedAffinity>
-5.12002277

$$$$
