
 OpenBabel03252507273D

 24 26  0  0  0  0  0  0  0  0999 V2000
   37.3870   28.3560   41.7970 C   0  0  0  0  0  0  0  0  0  0  0  0
   36.0650   28.1690   41.3650 C   0  0  0  0  0  0  0  0  0  0  0  0
   35.4530   29.2400   40.6790 C   0  0  0  0  0  0  0  0  0  0  0  0
   36.1770   30.3900   40.4760 N   0  0  0  0  0  0  0  0  0  0  0  0
   37.4410   30.5000   40.9170 C   0  0  0  0  0  0  0  0  0  0  0  0
   38.0480   29.5070   41.5680 N   0  0  0  0  0  0  0  0  0  0  0  0
   35.5690   27.2440   41.5610 H   0  0  0  0  0  0  0  0  0  0  0  0
   34.4490   29.1280   40.3380 H   0  0  0  0  0  0  0  0  0  0  0  0
   38.1580   31.7570   40.6670 C   0  0  0  0  0  0  0  0  0  0  0  0
   37.4980   32.8600   40.1930 C   0  0  0  0  0  0  0  0  0  0  0  0
   38.0820   34.0810   39.9280 C   0  0  0  0  0  0  0  0  0  0  0  0
   39.4480   34.1220   40.1840 C   0  0  0  0  0  0  0  0  0  0  0  0
   40.1410   33.0210   40.6650 C   0  0  0  0  0  0  0  0  0  0  0  0
   39.4900   31.8420   40.9040 N   0  0  0  0  0  0  0  0  0  0  0  0
   36.4150   32.8060   39.9950 H   0  0  0  0  0  0  0  0  0  0  0  0
   37.5310   34.9340   39.5530 H   0  0  0  0  0  0  0  0  0  0  0  0
   40.0070   35.0260   40.0130 H   0  0  0  0  0  0  0  0  0  0  0  0
   41.2110   33.0690   40.8620 H   0  0  0  0  0  0  0  0  0  0  0  0
   38.1190   27.2880   42.5280 C   0  0  0  0  0  3  0  0  0  0  0  0
   39.5430   27.6270   42.8260 C   0  0  0  0  0  2  0  0  0  0  0  0
   40.0880   26.4890   43.6800 C   0  0  0  0  0  2  0  0  0  0  0  0
   39.9180   25.1410   43.0510 C   0  0  0  0  0  2  0  0  0  0  0  0
   38.5180   24.9020   42.5430 C   0  0  0  0  0  2  0  0  0  0  0  0
   38.1600   26.0490   41.6230 C   0  0  0  0  0  2  0  0  0  0  0  0
  1 19  1  0  0  0  0
  2  7  1  0  0  0  0
  2  1  2  0  0  0  0
  3  2  1  0  0  0  0
  4  3  2  0  0  0  0
  4  5  1  0  0  0  0
  5  6  2  0  0  0  0
  6  1  1  0  0  0  0
  8  3  1  0  0  0  0
  9 14  1  0  0  0  0
  9  5  1  0  0  0  0
 10  9  2  0  0  0  0
 11 12  2  0  0  0  0
 11 10  1  0  0  0  0
 12 13  1  0  0  0  0
 13 18  1  0  0  0  0
 13 14  2  0  0  0  0
 15 10  1  0  0  0  0
 16 11  1  0  0  0  0
 17 12  1  0  0  0  0
 19 20  1  0  0  0  0
 20 21  1  0  0  0  0
 22 21  1  0  0  0  0
 23 22  1  0  0  0  0
 24 19  1  0  0  0  0
 24 23  1  0  0  0  0
M  END
>  <minimizedAffinity>
-5.37428188

$$$$

 OpenBabel03252507273D

 24 26  0  0  0  0  0  0  0  0999 V2000
   37.4300   30.5940   40.9990 C   0  0  0  0  0  0  0  0  0  0  0  0
   36.1010   30.4450   40.5720 C   0  0  0  0  0  0  0  0  0  0  0  0
   35.5190   29.1670   40.7100 C   0  0  0  0  0  0  0  0  0  0  0  0
   36.2750   28.1550   41.2490 N   0  0  0  0  0  0  0  0  0  0  0  0
   37.5430   28.3690   41.6380 C   0  0  0  0  0  0  0  0  0  0  0  0
   38.1230   29.5640   41.5210 N   0  0  0  0  0  0  0  0  0  0  0  0
   35.5800   31.2810   40.1630 H   0  0  0  0  0  0  0  0  0  0  0  0
   34.5110   29.0230   40.3940 H   0  0  0  0  0  0  0  0  0  0  0  0
   38.2950   27.2420   42.2060 C   0  0  0  0  0  0  0  0  0  0  0  0
   39.3180   27.4560   43.0930 C   0  0  0  0  0  0  0  0  0  0  0  0
   40.0800   26.4660   43.6780 C   0  0  0  0  0  0  0  0  0  0  0  0
   39.7270   25.1780   43.2910 C   0  0  0  0  0  0  0  0  0  0  0  0
   38.6960   24.9330   42.3960 C   0  0  0  0  0  0  0  0  0  0  0  0
   37.9850   25.9700   41.8570 N   0  0  0  0  0  0  0  0  0  0  0  0
   39.5820   28.4850   43.3860 H   0  0  0  0  0  0  0  0  0  0  0  0
   40.8820   26.6690   44.3760 H   0  0  0  0  0  0  0  0  0  0  0  0
   40.2550   24.3270   43.6870 H   0  0  0  0  0  0  0  0  0  0  0  0
   38.4320   23.9180   42.1030 H   0  0  0  0  0  0  0  0  0  0  0  0
   38.1330   31.9000   40.8960 C   0  0  0  0  0  3  0  0  0  0  0  0
   37.5010   32.8500   39.9310 C   0  0  0  0  0  2  0  0  0  0  0  0
   38.2670   34.1610   40.0520 C   0  0  0  0  0  2  0  0  0  0  0  0
   39.7440   34.0070   39.8540 C   0  0  0  0  0  2  0  0  0  0  0  0
   40.3310   32.8820   40.6690 C   0  0  0  0  0  2  0  0  0  0  0  0
   39.5440   31.6280   40.3580 C   0  0  0  0  0  2  0  0  0  0  0  0
  1  6  1  0  0  0  0
  2  3  1  0  0  0  0
  2  1  2  0  0  0  0
  3  4  2  0  0  0  0
  4  5  1  0  0  0  0
  5  9  1  0  0  0  0
  6  5  2  0  0  0  0
  7  2  1  0  0  0  0
  8  3  1  0  0  0  0
  9 10  1  0  0  0  0
 10 15  1  0  0  0  0
 10 11  2  0  0  0  0
 11 16  1  0  0  0  0
 12 11  1  0  0  0  0
 12 17  1  0  0  0  0
 13 12  2  0  0  0  0
 14  9  2  0  0  0  0
 14 13  1  0  0  0  0
 18 13  1  0  0  0  0
 19  1  1  0  0  0  0
 20 21  1  0  0  0  0
 20 19  1  0  0  0  0
 22 21  1  0  0  0  0
 22 23  1  0  0  0  0
 24 23  1  0  0  0  0
 24 19  1  0  0  0  0
M  END
>  <minimizedAffinity>
-5.32019615

$$$$

 OpenBabel03252507273D

 24 26  0  0  0  0  0  0  0  0999 V2000
   37.5390   27.0420   41.5170 C   0  0  0  0  0  0  0  0  0  0  0  0
   37.4650   26.9070   42.9130 C   0  0  0  0  0  0  0  0  0  0  0  0
   37.5380   28.0890   43.6790 C   0  0  0  0  0  0  0  0  0  0  0  0
   37.6750   29.2900   43.0260 N   0  0  0  0  0  0  0  0  0  0  0  0
   37.7390   29.3450   41.6850 C   0  0  0  0  0  0  0  0  0  0  0  0
   37.6730   28.2470   40.9320 N   0  0  0  0  0  0  0  0  0  0  0  0
   37.3590   25.9380   43.3460 H   0  0  0  0  0  0  0  0  0  0  0  0
   37.4840   28.0190   44.7420 H   0  0  0  0  0  0  0  0  0  0  0  0
   37.8860   30.6610   41.0500 C   0  0  0  0  0  0  0  0  0  0  0  0
   36.9720   31.1040   40.1290 C   0  0  0  0  0  0  0  0  0  0  0  0
   37.0250   32.3200   39.4810 C   0  0  0  0  0  0  0  0  0  0  0  0
   38.1160   33.1050   39.8390 C   0  0  0  0  0  0  0  0  0  0  0  0
   39.0540   32.6830   40.7680 C   0  0  0  0  0  0  0  0  0  0  0  0
   38.9340   31.4600   41.3700 N   0  0  0  0  0  0  0  0  0  0  0  0
   36.1160   30.4660   39.8590 H   0  0  0  0  0  0  0  0  0  0  0  0
   36.2860   32.6390   38.7580 H   0  0  0  0  0  0  0  0  0  0  0  0
   38.2560   34.0760   39.3950 H   0  0  0  0  0  0  0  0  0  0  0  0
   39.9030   33.3090   41.0380 H   0  0  0  0  0  0  0  0  0  0  0  0
   37.4720   25.8570   40.6220 C   0  0  0  0  0  3  0  0  0  0  0  0
   36.5410   26.0260   39.4650 C   0  0  0  0  0  2  0  0  0  0  0  0
   36.6990   24.7830   38.6000 C   0  0  0  0  0  2  0  0  0  0  0  0
   36.4870   23.5050   39.3510 C   0  0  0  0  0  2  0  0  0  0  0  0
   37.2620   23.4470   40.6430 C   0  0  0  0  0  2  0  0  0  0  0  0
   36.9170   24.6850   41.4430 C   0  0  0  0  0  2  0  0  0  0  0  0
  1  2  1  0  0  0  0
  2  7  1  0  0  0  0
  2  3  2  0  0  0  0
  3  8  1  0  0  0  0
  4  3  1  0  0  0  0
  5  4  2  0  0  0  0
  6  1  2  0  0  0  0
  6  5  1  0  0  0  0
  9 14  1  0  0  0  0
  9  5  1  0  0  0  0
 10  9  2  0  0  0  0
 11 12  2  0  0  0  0
 11 10  1  0  0  0  0
 12 13  1  0  0  0  0
 13 18  1  0  0  0  0
 13 14  2  0  0  0  0
 15 10  1  0  0  0  0
 16 11  1  0  0  0  0
 17 12  1  0  0  0  0
 19 24  1  0  0  0  0
 19  1  1  0  0  0  0
 20 19  1  0  0  0  0
 21 22  1  0  0  0  0
 21 20  1  0  0  0  0
 22 23  1  0  0  0  0
 23 24  1  0  0  0  0
M  END
>  <minimizedAffinity>
-5.20033312

$$$$

 OpenBabel03252507273D

 24 26  0  0  0  0  0  0  0  0999 V2000
   37.7670   29.5500   39.8250 C   0  0  0  0  0  0  0  0  0  0  0  0
   36.7620   29.4290   38.8530 C   0  0  0  0  0  0  0  0  0  0  0  0
   36.8390   30.2870   37.7360 C   0  0  0  0  0  0  0  0  0  0  0  0
   37.8790   31.1820   37.6640 N   0  0  0  0  0  0  0  0  0  0  0  0
   38.8080   31.2430   38.6330 C   0  0  0  0  0  0  0  0  0  0  0  0
   38.7640   30.4460   39.7010 N   0  0  0  0  0  0  0  0  0  0  0  0
   35.9860   28.7080   38.9810 H   0  0  0  0  0  0  0  0  0  0  0  0
   36.0900   30.2180   36.9800 H   0  0  0  0  0  0  0  0  0  0  0  0
   39.8930   32.2230   38.4940 C   0  0  0  0  0  0  0  0  0  0  0  0
   40.8180   32.1090   37.4890 C   0  0  0  0  0  0  0  0  0  0  0  0
   41.8700   32.9760   37.2780 C   0  0  0  0  0  0  0  0  0  0  0  0
   41.9340   34.0220   38.1930 C   0  0  0  0  0  0  0  0  0  0  0  0
   41.0110   34.1610   39.2190 C   0  0  0  0  0  0  0  0  0  0  0  0
   39.9930   33.2580   39.3630 N   0  0  0  0  0  0  0  0  0  0  0  0
   40.7500   31.2730   36.7750 H   0  0  0  0  0  0  0  0  0  0  0  0
   42.5840   32.8570   36.4740 H   0  0  0  0  0  0  0  0  0  0  0  0
   42.7150   34.7590   38.1220 H   0  0  0  0  0  0  0  0  0  0  0  0
   41.0740   34.9850   39.9270 H   0  0  0  0  0  0  0  0  0  0  0  0
   37.7750   28.6910   41.0390 C   0  0  0  0  0  3  0  0  0  0  0  0
   36.7780   27.5780   40.9970 C   0  0  0  0  0  2  0  0  0  0  0  0
   37.0170   26.7390   42.2450 C   0  0  0  0  0  2  0  0  0  0  0  0
   36.9680   27.5330   43.5140 C   0  0  0  0  0  2  0  0  0  0  0  0
   37.8050   28.7860   43.4550 C   0  0  0  0  0  2  0  0  0  0  0  0
   37.3770   29.5690   42.2330 C   0  0  0  0  0  2  0  0  0  0  0  0
  1 19  1  0  0  0  0
  2  7  1  0  0  0  0
  2  1  2  0  0  0  0
  3  2  1  0  0  0  0
  4  3  2  0  0  0  0
  4  5  1  0  0  0  0
  5  6  2  0  0  0  0
  6  1  1  0  0  0  0
  8  3  1  0  0  0  0
  9  5  1  0  0  0  0
  9 14  1  0  0  0  0
 10  9  2  0  0  0  0
 11 10  1  0  0  0  0
 11 12  2  0  0  0  0
 12 13  1  0  0  0  0
 13 14  2  0  0  0  0
 13 18  1  0  0  0  0
 15 10  1  0  0  0  0
 16 11  1  0  0  0  0
 17 12  1  0  0  0  0
 19 24  1  0  0  0  0
 20 19  1  0  0  0  0
 20 21  1  0  0  0  0
 21 22  1  0  0  0  0
 23 22  1  0  0  0  0
 24 23  1  0  0  0  0
M  END
>  <minimizedAffinity>
-5.07302809

$$$$

 OpenBabel03252507273D

 24 26  0  0  0  0  0  0  0  0999 V2000
   38.3090   25.7460   42.1180 C   0  0  0  0  0  0  0  0  0  0  0  0
   39.2460   25.6690   43.1610 C   0  0  0  0  0  0  0  0  0  0  0  0
   39.7470   26.8870   43.6680 C   0  0  0  0  0  0  0  0  0  0  0  0
   39.2950   28.0630   43.1200 N   0  0  0  0  0  0  0  0  0  0  0  0
   38.3960   28.0620   42.1220 C   0  0  0  0  0  0  0  0  0  0  0  0
   37.9030   26.9290   41.6210 N   0  0  0  0  0  0  0  0  0  0  0  0
   39.5470   24.7160   43.5330 H   0  0  0  0  0  0  0  0  0  0  0  0
   40.4600   26.8610   44.4600 H   0  0  0  0  0  0  0  0  0  0  0  0
   37.9560   29.3550   41.5820 C   0  0  0  0  0  0  0  0  0  0  0  0
   36.6410   29.5720   41.2610 C   0  0  0  0  0  0  0  0  0  0  0  0
   36.1340   30.7480   40.7490 C   0  0  0  0  0  0  0  0  0  0  0  0
   37.0860   31.7450   40.5720 C   0  0  0  0  0  0  0  0  0  0  0  0
   38.4220   31.5530   40.8890 C   0  0  0  0  0  0  0  0  0  0  0  0
   38.8500   30.3560   41.3930 N   0  0  0  0  0  0  0  0  0  0  0  0
   35.9030   28.7680   41.4080 H   0  0  0  0  0  0  0  0  0  0  0  0
   35.0880   30.8860   40.5060 H   0  0  0  0  0  0  0  0  0  0  0  0
   36.8000   32.7060   40.1790 H   0  0  0  0  0  0  0  0  0  0  0  0
   39.1560   32.3440   40.7450 H   0  0  0  0  0  0  0  0  0  0  0  0
   37.7220   24.5200   41.5160 C   0  0  0  0  0  3  0  0  0  0  0  0
   38.7250   23.6350   40.8490 C   0  0  0  0  0  2  0  0  0  0  0  0
   37.9730   22.3840   40.4120 C   0  0  0  0  0  2  0  0  0  0  0  0
   36.7790   22.6770   39.5590 C   0  0  0  0  0  2  0  0  0  0  0  0
   35.8890   23.7480   40.1400 C   0  0  0  0  0  2  0  0  0  0  0  0
   36.7500   24.9620   40.4150 C   0  0  0  0  0  2  0  0  0  0  0  0
  1  2  1  0  0  0  0
  2  7  1  0  0  0  0
  2  3  2  0  0  0  0
  3  8  1  0  0  0  0
  4  3  1  0  0  0  0
  5  4  2  0  0  0  0
  6  1  2  0  0  0  0
  6  5  1  0  0  0  0
  9  5  1  0  0  0  0
 10 15  1  0  0  0  0
 10  9  2  0  0  0  0
 11 10  1  0  0  0  0
 12 11  2  0  0  0  0
 12 13  1  0  0  0  0
 13 14  2  0  0  0  0
 14  9  1  0  0  0  0
 16 11  1  0  0  0  0
 17 12  1  0  0  0  0
 18 13  1  0  0  0  0
 19  1  1  0  0  0  0
 20 19  1  0  0  0  0
 21 20  1  0  0  0  0
 22 23  1  0  0  0  0
 22 21  1  0  0  0  0
 23 24  1  0  0  0  0
 24 19  1  0  0  0  0
M  END
>  <minimizedAffinity>
-5.02762461

$$$$

 OpenBabel03252507273D

 24 26  0  0  0  0  0  0  0  0999 V2000
   36.6810   28.7390   39.6120 C   0  0  0  0  0  0  0  0  0  0  0  0
   36.0440   28.6020   38.3690 C   0  0  0  0  0  0  0  0  0  0  0  0
   36.2300   29.6390   37.4310 C   0  0  0  0  0  0  0  0  0  0  0  0
   37.0140   30.7110   37.7830 N   0  0  0  0  0  0  0  0  0  0  0  0
   37.5950   30.7770   38.9930 C   0  0  0  0  0  0  0  0  0  0  0  0
   37.4390   29.8140   39.9010 N   0  0  0  0  0  0  0  0  0  0  0  0
   35.4510   27.7370   38.1710 H   0  0  0  0  0  0  0  0  0  0  0  0
   35.7590   29.5630   36.4780 H   0  0  0  0  0  0  0  0  0  0  0  0
   38.4200   31.9520   39.3050 C   0  0  0  0  0  0  0  0  0  0  0  0
   37.9130   32.9910   40.0410 C   0  0  0  0  0  0  0  0  0  0  0  0
   38.6080   34.1320   40.3830 C   0  0  0  0  0  0  0  0  0  0  0  0
   39.9160   34.1610   39.9120 C   0  0  0  0  0  0  0  0  0  0  0  0
   40.4540   33.1230   39.1660 C   0  0  0  0  0  0  0  0  0  0  0  0
   39.7000   32.0220   38.8660 N   0  0  0  0  0  0  0  0  0  0  0  0
   36.8740   32.9480   40.4040 H   0  0  0  0  0  0  0  0  0  0  0  0
   38.1780   34.9360   40.9670 H   0  0  0  0  0  0  0  0  0  0  0  0
   40.5510   35.0050   40.1220 H   0  0  0  0  0  0  0  0  0  0  0  0
   41.4800   33.1600   38.8040 H   0  0  0  0  0  0  0  0  0  0  0  0
   36.5470   27.7000   40.6680 C   0  0  0  0  0  3  0  0  0  0  0  0
   37.0280   28.1400   42.0120 C   0  0  0  0  0  2  0  0  0  0  0  0
   36.6970   27.0110   42.9790 C   0  0  0  0  0  2  0  0  0  0  0  0
   37.2480   25.6850   42.5550 C   0  0  0  0  0  2  0  0  0  0  0  0
   36.9480   25.3570   41.1140 C   0  0  0  0  0  2  0  0  0  0  0  0
   37.4350   26.5140   40.2680 C   0  0  0  0  0  2  0  0  0  0  0  0
  1  6  1  0  0  0  0
  1 19  1  0  0  0  0
  2  1  2  0  0  0  0
  3  4  2  0  0  0  0
  3  2  1  0  0  0  0
  4  5  1  0  0  0  0
  5  9  1  0  0  0  0
  5  6  2  0  0  0  0
  7  2  1  0  0  0  0
  8  3  1  0  0  0  0
  9 10  1  0  0  0  0
 10 11  2  0  0  0  0
 10 15  1  0  0  0  0
 11 16  1  0  0  0  0
 12 17  1  0  0  0  0
 12 11  1  0  0  0  0
 13 12  2  0  0  0  0
 14 13  1  0  0  0  0
 14  9  2  0  0  0  0
 18 13  1  0  0  0  0
 19 20  1  0  0  0  0
 20 21  1  0  0  0  0
 22 21  1  0  0  0  0
 23 22  1  0  0  0  0
 24 19  1  0  0  0  0
 24 23  1  0  0  0  0
M  END
>  <minimizedAffinity>
-4.99573946

$$$$

 OpenBabel03252507273D

 24 26  0  0  0  0  0  0  0  0999 V2000
   36.8650   27.6760   39.6830 C   0  0  0  0  0  0  0  0  0  0  0  0
   35.8420   27.6130   38.7230 C   0  0  0  0  0  0  0  0  0  0  0  0
   35.4140   28.8310   38.1550 C   0  0  0  0  0  0  0  0  0  0  0  0
   36.0150   29.9960   38.5680 N   0  0  0  0  0  0  0  0  0  0  0  0
   36.9900   29.9830   39.4920 C   0  0  0  0  0  0  0  0  0  0  0  0
   37.4170   28.8490   40.0480 N   0  0  0  0  0  0  0  0  0  0  0  0
   35.4260   26.6670   38.4560 H   0  0  0  0  0  0  0  0  0  0  0  0
   34.6390   28.8150   37.4240 H   0  0  0  0  0  0  0  0  0  0  0  0
   37.5900   31.2640   39.8880 C   0  0  0  0  0  0  0  0  0  0  0  0
   37.1190   32.4470   39.3810 C   0  0  0  0  0  0  0  0  0  0  0  0
   37.6150   33.6960   39.6910 C   0  0  0  0  0  0  0  0  0  0  0  0
   38.6720   33.6760   40.5950 C   0  0  0  0  0  0  0  0  0  0  0  0
   39.1670   32.4940   41.1240 C   0  0  0  0  0  0  0  0  0  0  0  0
   38.6210   31.2920   40.7670 N   0  0  0  0  0  0  0  0  0  0  0  0
   36.2810   32.4400   38.6650 H   0  0  0  0  0  0  0  0  0  0  0  0
   37.2200   34.6120   39.2720 H   0  0  0  0  0  0  0  0  0  0  0  0
   39.1360   34.5960   40.9090 H   0  0  0  0  0  0  0  0  0  0  0  0
   39.9950   32.4950   41.8310 H   0  0  0  0  0  0  0  0  0  0  0  0
   37.3850   26.4480   40.3400 C   0  0  0  0  0  3  0  0  0  0  0  0
   36.5930   25.2180   40.0340 C   0  0  0  0  0  2  0  0  0  0  0  0
   37.3370   24.0550   40.6760 C   0  0  0  0  0  2  0  0  0  0  0  0
   37.5940   24.2490   42.1390 C   0  0  0  0  0  2  0  0  0  0  0  0
   38.1860   25.5990   42.4580 C   0  0  0  0  0  2  0  0  0  0  0  0
   37.2810   26.6520   41.8570 C   0  0  0  0  0  2  0  0  0  0  0  0
  1  6  1  0  0  0  0
  1 19  1  0  0  0  0
  2  1  2  0  0  0  0
  3  4  2  0  0  0  0
  3  2  1  0  0  0  0
  4  5  1  0  0  0  0
  5  9  1  0  0  0  0
  5  6  2  0  0  0  0
  7  2  1  0  0  0  0
  8  3  1  0  0  0  0
  9 14  1  0  0  0  0
 10 11  1  0  0  0  0
 10  9  2  0  0  0  0
 11 12  2  0  0  0  0
 12 17  1  0  0  0  0
 12 13  1  0  0  0  0
 13 18  1  0  0  0  0
 14 13  2  0  0  0  0
 15 10  1  0  0  0  0
 16 11  1  0  0  0  0
 19 24  1  0  0  0  0
 20 19  1  0  0  0  0
 20 21  1  0  0  0  0
 21 22  1  0  0  0  0
 22 23  1  0  0  0  0
 24 23  1  0  0  0  0
M  END
>  <minimizedAffinity>
-4.98732996

$$$$

 OpenBabel03252507273D

 24 26  0  0  0  0  0  0  0  0999 V2000
   36.8800   28.1250   41.3360 C   0  0  0  0  0  0  0  0  0  0  0  0
   37.0820   29.3570   41.9780 C   0  0  0  0  0  0  0  0  0  0  0  0
   36.6040   30.5120   41.3240 C   0  0  0  0  0  0  0  0  0  0  0  0
   35.9760   30.3680   40.1110 N   0  0  0  0  0  0  0  0  0  0  0  0
   35.8160   29.1560   39.5530 C   0  0  0  0  0  0  0  0  0  0  0  0
   36.2560   28.0460   40.1450 N   0  0  0  0  0  0  0  0  0  0  0  0
   37.5800   29.3860   42.9220 H   0  0  0  0  0  0  0  0  0  0  0  0
   36.7430   31.4620   41.7880 H   0  0  0  0  0  0  0  0  0  0  0  0
   35.1360   29.0730   38.2540 C   0  0  0  0  0  0  0  0  0  0  0  0
   33.7840   28.8580   38.1810 C   0  0  0  0  0  0  0  0  0  0  0  0
   33.0590   28.7650   37.0110 C   0  0  0  0  0  0  0  0  0  0  0  0
   33.8220   28.9110   35.8580 C   0  0  0  0  0  0  0  0  0  0  0  0
   35.1910   29.1300   35.9040 C   0  0  0  0  0  0  0  0  0  0  0  0
   35.8410   29.2100   37.1050 N   0  0  0  0  0  0  0  0  0  0  0  0
   33.1980   28.7450   39.1060 H   0  0  0  0  0  0  0  0  0  0  0  0
   31.9900   28.5940   36.9890 H   0  0  0  0  0  0  0  0  0  0  0  0
   33.3580   28.8570   34.8890 H   0  0  0  0  0  0  0  0  0  0  0  0
   35.7750   29.2430   34.9920 H   0  0  0  0  0  0  0  0  0  0  0  0
   37.3470   26.8510   41.9440 C   0  0  0  0  0  3  0  0  0  0  0  0
   38.8290   26.7700   42.1120 C   0  0  0  0  0  2  0  0  0  0  0  0
   39.1080   25.4710   42.8570 C   0  0  0  0  0  2  0  0  0  0  0  0
   38.5180   24.2660   42.1920 C   0  0  0  0  0  2  0  0  0  0  0  0
   37.0700   24.4520   41.8170 C   0  0  0  0  0  2  0  0  0  0  0  0
   36.9670   25.7130   40.9870 C   0  0  0  0  0  2  0  0  0  0  0  0
  1 19  1  0  0  0  0
  1  2  1  0  0  0  0
  2  7  1  0  0  0  0
  3  8  1  0  0  0  0
  3  2  2  0  0  0  0
  4  3  1  0  0  0  0
  5  4  2  0  0  0  0
  5  6  1  0  0  0  0
  6  1  2  0  0  0  0
  9  5  1  0  0  0  0
 10  9  1  0  0  0  0
 10 15  1  0  0  0  0
 11 10  2  0  0  0  0
 12 13  2  0  0  0  0
 12 11  1  0  0  0  0
 13 14  1  0  0  0  0
 14  9  2  0  0  0  0
 16 11  1  0  0  0  0
 17 12  1  0  0  0  0
 18 13  1  0  0  0  0
 19 20  1  0  0  0  0
 20 21  1  0  0  0  0
 22 21  1  0  0  0  0
 23 22  1  0  0  0  0
 24 23  1  0  0  0  0
 24 19  1  0  0  0  0
M  END
>  <minimizedAffinity>
-4.95165396

$$$$

 OpenBabel03252507273D

 24 26  0  0  0  0  0  0  0  0999 V2000
   38.0560   30.7860   41.2550 C   0  0  0  0  0  0  0  0  0  0  0  0
   36.9000   31.3020   40.6490 C   0  0  0  0  0  0  0  0  0  0  0  0
   37.0600   32.4120   39.7930 C   0  0  0  0  0  0  0  0  0  0  0  0
   38.3240   32.9190   39.6030 N   0  0  0  0  0  0  0  0  0  0  0  0
   39.3880   32.3740   40.2160 C   0  0  0  0  0  0  0  0  0  0  0  0
   39.2700   31.3250   41.0300 N   0  0  0  0  0  0  0  0  0  0  0  0
   35.9530   30.8520   40.8470 H   0  0  0  0  0  0  0  0  0  0  0  0
   36.2000   32.8260   39.3180 H   0  0  0  0  0  0  0  0  0  0  0  0
   40.7090   32.9650   39.9690 C   0  0  0  0  0  0  0  0  0  0  0  0
   41.0230   33.5020   38.7470 C   0  0  0  0  0  0  0  0  0  0  0  0
   42.2330   34.0770   38.4210 C   0  0  0  0  0  0  0  0  0  0  0  0
   43.1580   34.0770   39.4590 C   0  0  0  0  0  0  0  0  0  0  0  0
   42.8670   33.5410   40.7050 C   0  0  0  0  0  0  0  0  0  0  0  0
   41.6420   32.9860   40.9530 N   0  0  0  0  0  0  0  0  0  0  0  0
   40.2750   33.4910   37.9380 H   0  0  0  0  0  0  0  0  0  0  0  0
   42.4480   34.4930   37.4450 H   0  0  0  0  0  0  0  0  0  0  0  0
   44.1360   34.5020   39.3150 H   0  0  0  0  0  0  0  0  0  0  0  0
   43.6020   33.5490   41.5080 H   0  0  0  0  0  0  0  0  0  0  0  0
   37.9920   29.6180   42.1730 C   0  0  0  0  0  3  0  0  0  0  0  0
   39.2640   28.8370   42.2440 C   0  0  0  0  0  2  0  0  0  0  0  0
   39.0560   27.7730   43.3150 C   0  0  0  0  0  2  0  0  0  0  0  0
   37.8470   26.9220   43.0800 C   0  0  0  0  0  2  0  0  0  0  0  0
   36.6090   27.7290   42.7780 C   0  0  0  0  0  2  0  0  0  0  0  0
   36.9330   28.6530   41.6240 C   0  0  0  0  0  2  0  0  0  0  0  0
  1 19  1  0  0  0  0
  2  7  1  0  0  0  0
  2  1  2  0  0  0  0
  3  2  1  0  0  0  0
  4  3  2  0  0  0  0
  4  5  1  0  0  0  0
  5  6  2  0  0  0  0
  6  1  1  0  0  0  0
  8  3  1  0  0  0  0
  9  5  1  0  0  0  0
  9 14  1  0  0  0  0
 10  9  2  0  0  0  0
 11 10  1  0  0  0  0
 11 12  2  0  0  0  0
 12 13  1  0  0  0  0
 13 14  2  0  0  0  0
 13 18  1  0  0  0  0
 15 10  1  0  0  0  0
 16 11  1  0  0  0  0
 17 12  1  0  0  0  0
 19 20  1  0  0  0  0
 20 21  1  0  0  0  0
 22 21  1  0  0  0  0
 23 22  1  0  0  0  0
 24 19  1  0  0  0  0
 24 23  1  0  0  0  0
M  END
>  <minimizedAffinity>
-4.94574738

$$$$
