
 OpenBabel03252509253D

 24 26  0  0  1  0  0  0  0  0999 V2000
   38.8480   29.2860   42.7090 C   0  0  1  0  0  0  0  0  0  0  0  0
   37.6530   28.9400   43.6340 C   0  0  0  0  0  0  0  0  0  0  0  0
   38.1480   28.0860   42.4230 C   0  0  2  0  0  0  0  0  0  0  0  0
   39.8100   29.3560   43.2440 H   0  0  0  0  0  0  0  0  0  0  0  0
   36.7160   29.4830   43.5320 H   0  0  0  0  0  0  0  0  0  0  0  0
   37.9630   28.5990   44.6200 H   0  0  0  0  0  0  0  0  0  0  0  0
   37.4010   28.1180   41.5750 H   0  0  0  0  0  0  0  0  0  0  0  0
   39.1220   32.6240   41.0110 C   0  0  0  0  0  0  0  0  0  0  0  0
   39.4690   31.5260   41.8580 C   0  0  0  0  0  0  0  0  0  0  0  0
   38.5310   30.5300   41.8960 C   0  0  0  0  0  0  0  0  0  0  0  0
   37.3560   30.6040   41.1710 N   0  0  0  0  0  0  0  0  0  0  0  0
   37.0850   31.6590   40.3940 C   0  0  0  0  0  0  0  0  0  0  0  0
   37.9800   32.6820   40.3140 N   0  0  0  0  0  0  0  0  0  0  0  0
   39.8310   33.4370   40.9470 H   0  0  0  0  0  0  0  0  0  0  0  0
   36.1280   31.5480   39.9030 H   0  0  0  0  0  0  0  0  0  0  0  0
   40.6690   31.4790   42.6210 N   0  0  0  0  0  0  0  0  0  0  0  0
   40.8150   31.6840   43.6380 H   0  0  0  0  0  0  0  0  0  0  0  0
   41.4440   31.1820   41.9570 H   0  0  0  0  0  0  0  0  0  0  0  0
   38.6640   26.7130   42.7290 C   0  0  0  0  0  3  0  0  0  0  0  0
   38.0300   25.6520   41.8540 C   0  0  0  0  0  2  0  0  0  0  0  0
   38.3930   24.2660   42.2740 C   0  0  0  0  0  2  0  0  0  0  0  0
   39.6670   24.2030   43.0710 C   0  0  0  0  0  2  0  0  0  0  0  0
   40.6430   25.2060   42.5040 C   0  0  0  0  0  2  0  0  0  0  0  0
   40.1480   26.6290   42.5660 C   0  0  0  0  0  2  0  0  0  0  0  0
  1  4  1  1  0  0  0
  1  2  1  0  0  0  0
  2  6  1  0  0  0  0
  3  7  1  6  0  0  0
  3  1  1  0  0  0  0
  3 19  1  0  0  0  0
  3  2  1  0  0  0  0
  5  2  1  0  0  0  0
  8  9  1  0  0  0  0
  9 10  2  0  0  0  0
  9 16  1  0  0  0  0
 10  1  1  0  0  0  0
 11 10  1  0  0  0  0
 12 11  2  0  0  0  0
 13 12  1  0  0  0  0
 13  8  2  0  0  0  0
 14  8  1  0  0  0  0
 15 12  1  0  0  0  0
 16 17  1  0  0  0  0
 18 16  1  0  0  0  0
 20 21  1  0  0  0  0
 20 19  1  0  0  0  0
 21 22  1  0  0  0  0
 23 24  1  0  0  0  0
 23 22  1  0  0  0  0
 24 19  1  0  0  0  0
M  END
>  <minimizedAffinity>
-4.87648535

$$$$

 OpenBabel03252509253D

 24 26  0  0  1  0  0  0  0  0999 V2000
   35.9920   28.7250   39.6170 C   0  0  1  0  0  0  0  0  0  0  0  0
   35.4260   27.9630   38.3910 C   0  0  0  0  0  0  0  0  0  0  0  0
   36.6970   27.5650   39.2100 C   0  0  2  0  0  0  0  0  0  0  0  0
   35.2850   28.7850   40.4610 H   0  0  0  0  0  0  0  0  0  0  0  0
   35.5650   28.3690   37.3920 H   0  0  0  0  0  0  0  0  0  0  0  0
   34.5180   27.4100   38.6170 H   0  0  0  0  0  0  0  0  0  0  0  0
   37.6350   27.7230   38.5990 H   0  0  0  0  0  0  0  0  0  0  0  0
   37.0160   32.3390   39.6250 C   0  0  0  0  0  0  0  0  0  0  0  0
   36.4370   31.1150   40.0850 C   0  0  0  0  0  0  0  0  0  0  0  0
   36.5120   30.0870   39.1850 C   0  0  0  0  0  0  0  0  0  0  0  0
   37.1000   30.2430   37.9440 N   0  0  0  0  0  0  0  0  0  0  0  0
   37.6260   31.4140   37.5670 C   0  0  0  0  0  0  0  0  0  0  0  0
   37.5830   32.4750   38.4190 N   0  0  0  0  0  0  0  0  0  0  0  0
   36.9830   33.1820   40.3000 H   0  0  0  0  0  0  0  0  0  0  0  0
   38.0410   31.3550   36.5700 H   0  0  0  0  0  0  0  0  0  0  0  0
   35.8090   30.9790   41.3550 N   0  0  0  0  0  0  0  0  0  0  0  0
   34.7890   30.9910   41.5930 H   0  0  0  0  0  0  0  0  0  0  0  0
   36.5860   30.8550   42.0700 H   0  0  0  0  0  0  0  0  0  0  0  0
   36.6520   26.2520   39.9310 C   0  0  0  0  0  3  0  0  0  0  0  0
   37.5970   25.2330   39.3290 C   0  0  0  0  0  2  0  0  0  0  0  0
   37.4250   23.8710   39.9160 C   0  0  0  0  0  2  0  0  0  0  0  0
   36.7930   23.8900   41.2810 C   0  0  0  0  0  2  0  0  0  0  0  0
   37.3120   25.0870   42.0390 C   0  0  0  0  0  2  0  0  0  0  0  0
   36.9900   26.4040   41.3800 C   0  0  0  0  0  2  0  0  0  0  0  0
  1  4  1  1  0  0  0
  2  6  1  0  0  0  0
  2  3  1  0  0  0  0
  2  1  1  0  0  0  0
  3  7  1  6  0  0  0
  3  1  1  0  0  0  0
  3 19  1  0  0  0  0
  5  2  1  0  0  0  0
  8  9  1  0  0  0  0
  8 14  1  0  0  0  0
  9 16  1  0  0  0  0
 10  1  1  0  0  0  0
 10  9  2  0  0  0  0
 11 10  1  0  0  0  0
 12 11  2  0  0  0  0
 12 13  1  0  0  0  0
 13  8  2  0  0  0  0
 15 12  1  0  0  0  0
 16 17  1  0  0  0  0
 16 18  1  0  0  0  0
 19 24  1  0  0  0  0
 20 21  1  0  0  0  0
 20 19  1  0  0  0  0
 21 22  1  0  0  0  0
 22 23  1  0  0  0  0
 24 23  1  0  0  0  0
M  END
>  <minimizedAffinity>
-4.86530495

$$$$

 OpenBabel03252509253D

 24 26  0  0  1  0  0  0  0  0999 V2000
   38.0780   30.6030   40.5740 C   0  0  1  0  0  0  0  0  0  0  0  0
   38.1840   29.7780   39.2660 C   0  0  0  0  0  0  0  0  0  0  0  0
   38.6960   29.3310   40.6740 C   0  0  2  0  0  0  0  0  0  0  0  0
   37.0390   30.8380   40.8620 H   0  0  0  0  0  0  0  0  0  0  0  0
   38.9210   30.0500   38.5140 H   0  0  0  0  0  0  0  0  0  0  0  0
   37.2310   29.3610   38.9480 H   0  0  0  0  0  0  0  0  0  0  0  0
   39.8260   29.3110   40.7040 H   0  0  0  0  0  0  0  0  0  0  0  0
   39.2400   34.1600   40.2580 C   0  0  0  0  0  0  0  0  0  0  0  0
   38.3480   33.0430   40.2570 C   0  0  0  0  0  0  0  0  0  0  0  0
   38.9580   31.8390   40.4800 C   0  0  0  0  0  0  0  0  0  0  0  0
   40.3210   31.7370   40.6840 N   0  0  0  0  0  0  0  0  0  0  0  0
   41.1080   32.8190   40.6740 C   0  0  0  0  0  0  0  0  0  0  0  0
   40.5600   34.0460   40.4580 N   0  0  0  0  0  0  0  0  0  0  0  0
   38.8060   35.1350   40.0870 H   0  0  0  0  0  0  0  0  0  0  0  0
   42.1410   32.5530   40.8490 H   0  0  0  0  0  0  0  0  0  0  0  0
   36.9510   33.1630   40.0160 N   0  0  0  0  0  0  0  0  0  0  0  0
   36.4130   32.9790   39.1360 H   0  0  0  0  0  0  0  0  0  0  0  0
   36.5080   33.4870   40.9270 H   0  0  0  0  0  0  0  0  0  0  0  0
   38.0480   28.1210   41.2760 C   0  0  0  0  0  3  0  0  0  0  0  0
   39.0450   27.2260   41.9830 C   0  0  0  0  0  2  0  0  0  0  0  0
   38.4470   25.9310   42.4210 C   0  0  0  0  0  2  0  0  0  0  0  0
   36.9510   25.9900   42.5710 C   0  0  0  0  0  2  0  0  0  0  0  0
   36.5730   27.3390   43.1330 C   0  0  0  0  0  2  0  0  0  0  0  0
   36.9780   28.4940   42.2530 C   0  0  0  0  0  2  0  0  0  0  0  0
  1  3  1  0  0  0  0
  1  4  1  1  0  0  0
  2  1  1  0  0  0  0
  2  3  1  0  0  0  0
  3  7  1  1  0  0  0
  3 19  1  0  0  0  0
  5  2  1  0  0  0  0
  6  2  1  0  0  0  0
  8 13  1  0  0  0  0
  9  8  2  0  0  0  0
  9 10  1  0  0  0  0
 10  1  1  0  0  0  0
 10 11  2  0  0  0  0
 12 11  1  0  0  0  0
 12 15  1  0  0  0  0
 13 12  2  0  0  0  0
 14  8  1  0  0  0  0
 16  9  1  0  0  0  0
 16 18  1  0  0  0  0
 17 16  1  0  0  0  0
 19 20  1  0  0  0  0
 19 24  1  0  0  0  0
 20 21  1  0  0  0  0
 21 22  1  0  0  0  0
 22 23  1  0  0  0  0
 24 23  1  0  0  0  0
M  END
>  <minimizedAffinity>
-4.8127799

$$$$

 OpenBabel03252509253D

 24 26  0  0  1  0  0  0  0  0999 V2000
   36.7940   29.5980   41.3990 C   0  0  1  0  0  0  0  0  0  0  0  0
   35.4890   29.3040   40.6160 C   0  0  0  0  0  0  0  0  0  0  0  0
   36.8100   28.4720   40.5370 C   0  0  2  0  0  0  0  0  0  0  0  0
   36.6650   29.5670   42.4940 H   0  0  0  0  0  0  0  0  0  0  0  0
   35.2200   29.9220   39.7630 H   0  0  0  0  0  0  0  0  0  0  0  0
   34.7000   28.8930   41.2430 H   0  0  0  0  0  0  0  0  0  0  0  0
   37.3090   28.6040   39.5320 H   0  0  0  0  0  0  0  0  0  0  0  0
   39.1810   32.4380   40.8140 C   0  0  0  0  0  0  0  0  0  0  0  0
   38.6490   31.2370   41.3800 C   0  0  0  0  0  0  0  0  0  0  0  0
   37.4070   30.9010   40.9130 C   0  0  0  0  0  0  0  0  0  0  0  0
   36.7440   31.6730   39.9770 N   0  0  0  0  0  0  0  0  0  0  0  0
   37.2920   32.7890   39.4830 C   0  0  0  0  0  0  0  0  0  0  0  0
   38.5260   33.1760   39.9080 N   0  0  0  0  0  0  0  0  0  0  0  0
   40.1600   32.7460   41.1500 H   0  0  0  0  0  0  0  0  0  0  0  0
   36.6360   33.2640   38.7670 H   0  0  0  0  0  0  0  0  0  0  0  0
   39.3320   30.4700   42.3630 N   0  0  0  0  0  0  0  0  0  0  0  0
   39.1920   30.4490   43.4020 H   0  0  0  0  0  0  0  0  0  0  0  0
   40.0530   29.8820   41.8490 H   0  0  0  0  0  0  0  0  0  0  0  0
   36.7420   27.0490   41.0030 C   0  0  0  0  0  3  0  0  0  0  0  0
   36.9190   26.0630   39.8680 C   0  0  0  0  0  2  0  0  0  0  0  0
   36.6680   24.6530   40.2850 C   0  0  0  0  0  2  0  0  0  0  0  0
   36.8270   24.4360   41.7650 C   0  0  0  0  0  2  0  0  0  0  0  0
   37.9790   25.2790   42.2580 C   0  0  0  0  0  2  0  0  0  0  0  0
   37.7770   26.7570   42.0430 C   0  0  0  0  0  2  0  0  0  0  0  0
  1  4  1  1  0  0  0
  2  6  1  0  0  0  0
  2  1  1  0  0  0  0
  3  7  1  6  0  0  0
  3  2  1  0  0  0  0
  3 19  1  0  0  0  0
  3  1  1  0  0  0  0
  5  2  1  0  0  0  0
  8 14  1  0  0  0  0
  8  9  1  0  0  0  0
  9 16  1  0  0  0  0
 10  9  2  0  0  0  0
 10  1  1  0  0  0  0
 11 10  1  0  0  0  0
 12 13  1  0  0  0  0
 12 11  2  0  0  0  0
 13  8  2  0  0  0  0
 15 12  1  0  0  0  0
 16 17  1  0  0  0  0
 18 16  1  0  0  0  0
 19 24  1  0  0  0  0
 20 21  1  0  0  0  0
 20 19  1  0  0  0  0
 21 22  1  0  0  0  0
 22 23  1  0  0  0  0
 24 23  1  0  0  0  0
M  END
>  <minimizedAffinity>
-4.7428093

$$$$

 OpenBabel03252509253D

 24 26  0  0  1  0  0  0  0  0999 V2000
   37.4230   28.7430   40.9620 C   0  0  1  0  0  0  0  0  0  0  0  0
   36.5980   27.6220   40.2790 C   0  0  0  0  0  0  0  0  0  0  0  0
   38.1220   27.5570   40.6220 C   0  0  2  0  0  0  0  0  0  0  0  0
   37.0560   29.0060   41.9680 H   0  0  0  0  0  0  0  0  0  0  0  0
   36.3110   27.7230   39.2350 H   0  0  0  0  0  0  0  0  0  0  0  0
   35.9300   27.1070   40.9650 H   0  0  0  0  0  0  0  0  0  0  0  0
   38.7480   27.5830   39.6810 H   0  0  0  0  0  0  0  0  0  0  0  0
   36.9390   32.1350   39.4240 C   0  0  0  0  0  0  0  0  0  0  0  0
   36.7220   31.0210   40.2940 C   0  0  0  0  0  0  0  0  0  0  0  0
   37.5280   29.9460   40.0380 C   0  0  0  0  0  0  0  0  0  0  0  0
   38.4630   29.9580   39.0200 N   0  0  0  0  0  0  0  0  0  0  0  0
   38.6220   31.0310   38.2360 C   0  0  0  0  0  0  0  0  0  0  0  0
   37.8500   32.1330   38.4410 N   0  0  0  0  0  0  0  0  0  0  0  0
   36.3270   33.0100   39.5850 H   0  0  0  0  0  0  0  0  0  0  0  0
   39.3930   30.8650   37.4960 H   0  0  0  0  0  0  0  0  0  0  0  0
   35.7350   31.0140   41.3180 N   0  0  0  0  0  0  0  0  0  0  0  0
   34.7800   30.5810   41.3150 H   0  0  0  0  0  0  0  0  0  0  0  0
   36.1420   31.5490   42.1410 H   0  0  0  0  0  0  0  0  0  0  0  0
   38.5490   26.5140   41.6100 C   0  0  0  0  0  3  0  0  0  0  0  0
   39.5680   25.5560   41.0300 C   0  0  0  0  0  2  0  0  0  0  0  0
   39.8590   24.4070   41.9370 C   0  0  0  0  0  2  0  0  0  0  0  0
   39.5360   24.6930   43.3780 C   0  0  0  0  0  2  0  0  0  0  0  0
   39.8930   26.1290   43.6790 C   0  0  0  0  0  2  0  0  0  0  0  0
   39.1300   27.1260   42.8450 C   0  0  0  0  0  2  0  0  0  0  0  0
  1  4  1  1  0  0  0
  2  3  1  0  0  0  0
  2  1  1  0  0  0  0
  2  6  1  0  0  0  0
  3  7  1  6  0  0  0
  3  1  1  0  0  0  0
  3 19  1  0  0  0  0
  5  2  1  0  0  0  0
  8 14  1  0  0  0  0
  8  9  1  0  0  0  0
  9 16  1  0  0  0  0
 10  9  2  0  0  0  0
 10  1  1  0  0  0  0
 11 10  1  0  0  0  0
 12 13  1  0  0  0  0
 12 11  2  0  0  0  0
 13  8  2  0  0  0  0
 15 12  1  0  0  0  0
 16 18  1  0  0  0  0
 17 16  1  0  0  0  0
 19 24  1  0  0  0  0
 20 19  1  0  0  0  0
 20 21  1  0  0  0  0
 21 22  1  0  0  0  0
 22 23  1  0  0  0  0
 24 23  1  0  0  0  0
M  END
>  <minimizedAffinity>
-4.65016031

$$$$

 OpenBabel03252509253D

 24 26  0  0  1  0  0  0  0  0999 V2000
   37.1250   26.4550   41.8570 C   0  0  1  0  0  0  0  0  0  0  0  0
   36.5330   27.7510   42.4680 C   0  0  0  0  0  0  0  0  0  0  0  0
   37.0810   27.5930   41.0120 C   0  0  2  0  0  0  0  0  0  0  0  0
   36.4120   25.6130   41.8400 H   0  0  0  0  0  0  0  0  0  0  0  0
   37.1200   28.3310   43.1770 H   0  0  0  0  0  0  0  0  0  0  0  0
   35.4520   27.7130   42.5800 H   0  0  0  0  0  0  0  0  0  0  0  0
   38.0430   28.1700   40.8790 H   0  0  0  0  0  0  0  0  0  0  0  0
   40.1190   24.5770   43.1260 C   0  0  0  0  0  0  0  0  0  0  0  0
   38.8450   24.8020   42.5190 C   0  0  0  0  0  0  0  0  0  0  0  0
   38.4330   26.1070   42.5490 C   0  0  0  0  0  0  0  0  0  0  0  0
   39.2000   27.1030   43.1240 N   0  0  0  0  0  0  0  0  0  0  0  0
   40.3870   26.8320   43.6790 C   0  0  0  0  0  0  0  0  0  0  0  0
   40.8520   25.5530   43.6800 N   0  0  0  0  0  0  0  0  0  0  0  0
   40.4900   23.5620   43.1270 H   0  0  0  0  0  0  0  0  0  0  0  0
   40.8450   27.7260   44.0790 H   0  0  0  0  0  0  0  0  0  0  0  0
   38.0550   23.7610   41.9570 N   0  0  0  0  0  0  0  0  0  0  0  0
   37.2320   23.2590   42.3680 H   0  0  0  0  0  0  0  0  0  0  0  0
   38.4540   23.5590   40.9920 H   0  0  0  0  0  0  0  0  0  0  0  0
   36.0980   27.7800   39.8960 C   0  0  0  0  0  3  0  0  0  0  0  0
   36.3560   29.0480   39.1090 C   0  0  0  0  0  2  0  0  0  0  0  0
   35.2780   29.3410   38.1200 C   0  0  0  0  0  2  0  0  0  0  0  0
   34.4880   28.1230   37.7260 C   0  0  0  0  0  2  0  0  0  0  0  0
   35.4270   26.9430   37.6410 C   0  0  0  0  0  2  0  0  0  0  0  0
   36.1140   26.6260   38.9450 C   0  0  0  0  0  2  0  0  0  0  0  0
  1  4  1  6  0  0  0
  1  2  1  0  0  0  0
  1 10  1  0  0  0  0
  2  6  1  0  0  0  0
  2  5  1  0  0  0  0
  3  7  1  6  0  0  0
  3  1  1  0  0  0  0
  3  2  1  0  0  0  0
  8 14  1  0  0  0  0
  8 13  1  0  0  0  0
  9 10  1  0  0  0  0
  9  8  2  0  0  0  0
 10 11  2  0  0  0  0
 11 12  1  0  0  0  0
 12 13  2  0  0  0  0
 12 15  1  0  0  0  0
 16 17  1  0  0  0  0
 16  9  1  0  0  0  0
 18 16  1  0  0  0  0
 19  3  1  0  0  0  0
 20 19  1  0  0  0  0
 21 20  1  0  0  0  0
 22 21  1  0  0  0  0
 23 22  1  0  0  0  0
 23 24  1  0  0  0  0
 24 19  1  0  0  0  0
M  END
>  <minimizedAffinity>
-4.62343693

$$$$

 OpenBabel03252509253D

 24 26  0  0  1  0  0  0  0  0999 V2000
   36.5590   30.8260   39.9900 C   0  0  1  0  0  0  0  0  0  0  0  0
   37.0380   31.7720   38.8590 C   0  0  0  0  0  0  0  0  0  0  0  0
   36.7800   30.2360   38.7200 C   0  0  2  0  0  0  0  0  0  0  0  0
   35.5770   31.1040   40.4080 H   0  0  0  0  0  0  0  0  0  0  0  0
   38.0670   32.1230   38.8480 H   0  0  0  0  0  0  0  0  0  0  0  0
   36.2510   32.4250   38.4900 H   0  0  0  0  0  0  0  0  0  0  0  0
   37.7510   29.6760   38.5770 H   0  0  0  0  0  0  0  0  0  0  0  0
   38.5970   29.6240   42.9070 C   0  0  0  0  0  0  0  0  0  0  0  0
   37.5020   29.7170   41.9930 C   0  0  0  0  0  0  0  0  0  0  0  0
   37.6390   30.7020   41.0530 C   0  0  0  0  0  0  0  0  0  0  0  0
   38.7510   31.5240   41.0120 N   0  0  0  0  0  0  0  0  0  0  0  0
   39.7470   31.3890   41.8950 C   0  0  0  0  0  0  0  0  0  0  0  0
   39.6680   30.4270   42.8540 N   0  0  0  0  0  0  0  0  0  0  0  0
   38.5360   28.8600   43.6690 H   0  0  0  0  0  0  0  0  0  0  0  0
   40.5300   32.1120   41.7140 H   0  0  0  0  0  0  0  0  0  0  0  0
   36.3520   28.8830   42.0670 N   0  0  0  0  0  0  0  0  0  0  0  0
   35.4070   29.0920   42.4700 H   0  0  0  0  0  0  0  0  0  0  0  0
   36.6160   27.9550   41.6210 H   0  0  0  0  0  0  0  0  0  0  0  0
   35.6900   29.8160   37.7820 C   0  0  0  0  0  3  0  0  0  0  0  0
   36.2280   29.1190   36.5500 C   0  0  0  0  0  2  0  0  0  0  0  0
   35.1730   28.8650   35.5250 C   0  0  0  0  0  2  0  0  0  0  0  0
   33.7830   28.8390   36.0990 C   0  0  0  0  0  2  0  0  0  0  0  0
   33.8310   28.1790   37.4560 C   0  0  0  0  0  2  0  0  0  0  0  0
   34.7090   28.9020   38.4460 C   0  0  0  0  0  2  0  0  0  0  0  0
  1  4  1  1  0  0  0
  1 10  1  0  0  0  0
  2  1  1  0  0  0  0
  3  7  1  6  0  0  0
  3  2  1  0  0  0  0
  3  1  1  0  0  0  0
  5  2  1  0  0  0  0
  6  2  1  0  0  0  0
  8 14  1  0  0  0  0
  9 16  1  0  0  0  0
  9  8  2  0  0  0  0
 10  9  1  0  0  0  0
 11 10  2  0  0  0  0
 11 12  1  0  0  0  0
 12 13  2  0  0  0  0
 13  8  1  0  0  0  0
 15 12  1  0  0  0  0
 16 17  1  0  0  0  0
 18 16  1  0  0  0  0
 19 24  1  0  0  0  0
 19  3  1  0  0  0  0
 20 19  1  0  0  0  0
 21 22  1  0  0  0  0
 21 20  1  0  0  0  0
 22 23  1  0  0  0  0
 23 24  1  0  0  0  0
M  END
>  <minimizedAffinity>
-4.58372021

$$$$

 OpenBabel03252509253D

 24 26  0  0  1  0  0  0  0  0999 V2000
   38.1390   29.6450   42.4690 C   0  0  1  0  0  0  0  0  0  0  0  0
   39.5490   30.1000   42.9270 C   0  0  0  0  0  0  0  0  0  0  0  0
   38.9500   30.2800   41.4940 C   0  0  2  0  0  0  0  0  0  0  0  0
   37.3200   30.1220   43.0320 H   0  0  0  0  0  0  0  0  0  0  0  0
   40.3350   29.3620   43.0660 H   0  0  0  0  0  0  0  0  0  0  0  0
   39.5240   30.9760   43.5700 H   0  0  0  0  0  0  0  0  0  0  0  0
   39.4770   29.6120   40.7510 H   0  0  0  0  0  0  0  0  0  0  0  0
   36.9730   26.1160   41.9320 C   0  0  0  0  0  0  0  0  0  0  0  0
   36.9340   27.5450   41.9540 C   0  0  0  0  0  0  0  0  0  0  0  0
   38.0570   28.1270   42.4760 C   0  0  0  0  0  0  0  0  0  0  0  0
   39.1220   27.3770   42.9380 N   0  0  0  0  0  0  0  0  0  0  0  0
   39.1020   26.0400   42.8930 C   0  0  0  0  0  0  0  0  0  0  0  0
   38.0130   25.4030   42.3830 N   0  0  0  0  0  0  0  0  0  0  0  0
   36.1090   25.6080   41.5270 H   0  0  0  0  0  0  0  0  0  0  0  0
   40.0140   25.6210   43.2940 H   0  0  0  0  0  0  0  0  0  0  0  0
   35.8180   28.3020   41.5010 N   0  0  0  0  0  0  0  0  0  0  0  0
   35.0540   28.7530   42.0590 H   0  0  0  0  0  0  0  0  0  0  0  0
   35.8830   28.3420   40.4410 H   0  0  0  0  0  0  0  0  0  0  0  0
   38.7530   31.6870   41.0160 C   0  0  0  0  0  3  0  0  0  0  0  0
   39.7770   32.0900   39.9770 C   0  0  0  0  0  2  0  0  0  0  0  0
   39.7080   33.5410   39.6320 C   0  0  0  0  0  2  0  0  0  0  0  0
   38.3720   34.1590   39.9380 C   0  0  0  0  0  2  0  0  0  0  0  0
   37.2890   33.1550   39.6230 C   0  0  0  0  0  2  0  0  0  0  0  0
   37.3900   31.8880   40.4330 C   0  0  0  0  0  2  0  0  0  0  0  0
  1 10  1  0  0  0  0
  1  2  1  0  0  0  0
  1  4  1  1  0  0  0
  2  5  1  0  0  0  0
  2  6  1  0  0  0  0
  3  7  1  6  0  0  0
  3  1  1  0  0  0  0
  3  2  1  0  0  0  0
  8  9  2  0  0  0  0
  8 13  1  0  0  0  0
  9 10  1  0  0  0  0
 10 11  2  0  0  0  0
 12 11  1  0  0  0  0
 12 15  1  0  0  0  0
 13 12  2  0  0  0  0
 14  8  1  0  0  0  0
 16  9  1  0  0  0  0
 16 17  1  0  0  0  0
 18 16  1  0  0  0  0
 19  3  1  0  0  0  0
 20 19  1  0  0  0  0
 21 22  1  0  0  0  0
 21 20  1  0  0  0  0
 23 22  1  0  0  0  0
 23 24  1  0  0  0  0
 24 19  1  0  0  0  0
M  END
>  <minimizedAffinity>
-4.54416656

$$$$

 OpenBabel03252509253D

 24 26  0  0  1  0  0  0  0  0999 V2000
   36.3300   28.3930   39.8160 C   0  0  1  0  0  0  0  0  0  0  0  0
   34.9830   28.9280   40.3660 C   0  0  0  0  0  0  0  0  0  0  0  0
   36.3960   29.5290   40.6620 C   0  0  2  0  0  0  0  0  0  0  0  0
   36.3910   28.4060   38.7150 H   0  0  0  0  0  0  0  0  0  0  0  0
   34.4750   28.3930   41.1650 H   0  0  0  0  0  0  0  0  0  0  0  0
   34.3910   29.4440   39.6130 H   0  0  0  0  0  0  0  0  0  0  0  0
   36.6910   29.3510   41.7380 H   0  0  0  0  0  0  0  0  0  0  0  0
   36.8630   24.6950   40.2030 C   0  0  0  0  0  0  0  0  0  0  0  0
   36.4960   25.9330   39.5890 C   0  0  0  0  0  0  0  0  0  0  0  0
   36.6220   27.0230   40.4070 C   0  0  0  0  0  0  0  0  0  0  0  0
   37.0650   26.9100   41.7120 N   0  0  0  0  0  0  0  0  0  0  0  0
   37.3940   25.7230   42.2330 C   0  0  0  0  0  0  0  0  0  0  0  0
   37.2910   24.6020   41.4680 N   0  0  0  0  0  0  0  0  0  0  0  0
   36.7810   23.8040   39.5970 H   0  0  0  0  0  0  0  0  0  0  0  0
   37.7180   25.8220   43.2600 H   0  0  0  0  0  0  0  0  0  0  0  0
   36.0140   26.0280   38.2540 N   0  0  0  0  0  0  0  0  0  0  0  0
   35.0280   26.1210   37.9110 H   0  0  0  0  0  0  0  0  0  0  0  0
   36.8640   25.9890   37.6160 H   0  0  0  0  0  0  0  0  0  0  0  0
   36.6500   30.9260   40.1830 C   0  0  0  0  0  3  0  0  0  0  0  0
   37.8690   31.5450   40.8350 C   0  0  0  0  0  2  0  0  0  0  0  0
   38.0230   32.9930   40.5100 C   0  0  0  0  0  2  0  0  0  0  0  0
   37.3170   33.3940   39.2440 C   0  0  0  0  0  2  0  0  0  0  0  0
   37.4490   32.2750   38.2390 C   0  0  0  0  0  2  0  0  0  0  0  0
   36.8360   30.9770   38.7000 C   0  0  0  0  0  2  0  0  0  0  0  0
  1  4  1  6  0  0  0
  1  2  1  0  0  0  0
  1 10  1  0  0  0  0
  1  3  1  0  0  0  0
  2  3  1  0  0  0  0
  2  5  1  0  0  0  0
  3  7  1  1  0  0  0
  6  2  1  0  0  0  0
  8 13  1  0  0  0  0
  9  8  2  0  0  0  0
  9 10  1  0  0  0  0
 10 11  2  0  0  0  0
 11 12  1  0  0  0  0
 12 15  1  0  0  0  0
 13 12  2  0  0  0  0
 14  8  1  0  0  0  0
 16  9  1  0  0  0  0
 17 16  1  0  0  0  0
 18 16  1  0  0  0  0
 19  3  1  0  0  0  0
 19 20  1  0  0  0  0
 21 20  1  0  0  0  0
 22 21  1  0  0  0  0
 23 24  1  0  0  0  0
 23 22  1  0  0  0  0
 24 19  1  0  0  0  0
M  END
>  <minimizedAffinity>
-4.49158669

$$$$
