
 OpenBabel03252502543D

 28 30  0  0  0  0  0  0  0  0999 V2000
   39.7450   27.5770   40.0290 Br  0  0  0  0  0  0  0  0  0  0  0  0
   38.5320   27.6320   41.5330 C   0  0  0  0  0  0  0  0  0  0  0  0
   38.5780   28.7910   42.2910 C   0  0  0  0  0  0  0  0  0  0  0  0
   37.6910   28.8030   43.3720 C   0  0  0  0  0  0  0  0  0  0  0  0
   36.8390   27.7640   43.6760 C   0  0  0  0  0  0  0  0  0  0  0  0
   36.8580   26.6600   42.8770 C   0  0  0  0  0  0  0  0  0  0  0  0
   37.6970   26.5610   41.7930 C   0  0  0  0  0  0  0  0  0  0  0  0
   37.6460   29.6710   44.0370 H   0  0  0  0  0  0  0  0  0  0  0  0
   36.1660   27.8110   44.5230 H   0  0  0  0  0  0  0  0  0  0  0  0
   36.2030   25.8250   43.0820 H   0  0  0  0  0  0  0  0  0  0  0  0
   37.7920   25.4130   40.8710 C   0  0  0  0  0  3  0  0  0  0  0  0
   36.6070   25.3530   39.9230 C   0  0  0  0  0  2  0  0  0  0  0  0
   36.9810   24.2980   38.8780 C   0  0  0  0  0  2  0  0  0  0  0  0
   37.0310   22.9730   39.5970 C   0  0  0  0  0  2  0  0  0  0  0  0
   38.0850   22.9580   40.6890 C   0  0  0  0  0  2  0  0  0  0  0  0
   37.9040   24.1240   41.6390 C   0  0  0  0  0  2  0  0  0  0  0  0
   39.4380   29.9590   42.0710 C   0  0  0  0  0  0  0  0  0  0  0  0
   39.8010   30.3270   43.0630 H   0  0  0  0  0  0  0  0  0  0  0  0
   40.3500   29.6190   41.5340 H   0  0  0  0  0  0  0  0  0  0  0  0
   37.0720   31.8900   39.9240 C   0  0  0  0  0  0  0  0  0  0  0  0
   37.6310   33.1750   39.9480 C   0  0  0  0  0  0  0  0  0  0  0  0
   38.7970   33.3440   40.6970 C   0  0  0  0  0  0  0  0  0  0  0  0
   39.3440   32.2830   41.3640 N   0  0  0  0  0  0  0  0  0  0  0  0
   38.7580   31.0440   41.3070 C   0  0  0  0  0  0  0  0  0  0  0  0
   37.6300   30.8890   40.5800 N   0  0  0  0  0  0  0  0  0  0  0  0
   36.1700   31.7120   39.3570 H   0  0  0  0  0  0  0  0  0  0  0  0
   37.1540   33.9780   39.4010 H   0  0  0  0  0  0  0  0  0  0  0  0
   39.2480   34.3290   40.7320 H   0  0  0  0  0  0  0  0  0  0  0  0
  1  2  1  0  0  0  0
  2  7  2  0  0  0  0
  2  3  1  0  0  0  0
  3  4  2  0  0  0  0
  4  5  1  0  0  0  0
  4  8  1  0  0  0  0
  5  9  1  0  0  0  0
  6 10  1  0  0  0  0
  6  5  2  0  0  0  0
  7  6  1  0  0  0  0
 11 16  1  0  0  0  0
 11  7  1  0  0  0  0
 12 11  1  0  0  0  0
 13 14  1  0  0  0  0
 13 12  1  0  0  0  0
 14 15  1  0  0  0  0
 15 16  1  0  0  0  0
 17  3  1  0  0  0  0
 17 18  1  0  0  0  0
 19 17  1  0  0  0  0
 20 21  2  0  0  0  0
 20 25  1  0  0  0  0
 21 22  1  0  0  0  0
 22 28  1  0  0  0  0
 22 23  2  0  0  0  0
 24 23  1  0  0  0  0
 24 17  1  0  0  0  0
 25 24  2  0  0  0  0
 26 20  1  0  0  0  0
 27 21  1  0  0  0  0
M  END
>  <minimizedAffinity>
-5.62829018

$$$$

 OpenBabel03252502543D

 28 30  0  0  0  0  0  0  0  0999 V2000
   39.1770   29.8670   42.9280 Br  0  0  0  0  0  0  0  0  0  0  0  0
   37.6710   29.7440   41.7230 C   0  0  0  0  0  0  0  0  0  0  0  0
   36.8350   28.6570   41.9260 C   0  0  0  0  0  0  0  0  0  0  0  0
   35.7550   28.5930   41.0400 C   0  0  0  0  0  0  0  0  0  0  0  0
   35.5240   29.5180   40.0450 C   0  0  0  0  0  0  0  0  0  0  0  0
   36.3960   30.5570   39.9150 C   0  0  0  0  0  0  0  0  0  0  0  0
   37.4850   30.7000   40.7420 C   0  0  0  0  0  0  0  0  0  0  0  0
   35.0330   27.7740   41.1120 H   0  0  0  0  0  0  0  0  0  0  0  0
   34.6750   29.4340   39.3780 H   0  0  0  0  0  0  0  0  0  0  0  0
   36.2490   31.3040   39.1480 H   0  0  0  0  0  0  0  0  0  0  0  0
   38.4840   31.7850   40.6820 C   0  0  0  0  0  3  0  0  0  0  0  0
   37.8510   33.1110   40.3020 C   0  0  0  0  0  2  0  0  0  0  0  0
   38.9370   34.1610   40.5460 C   0  0  0  0  0  2  0  0  0  0  0  0
   40.0300   33.8960   39.5400 C   0  0  0  0  0  2  0  0  0  0  0  0
   40.6460   32.5210   39.7180 C   0  0  0  0  0  2  0  0  0  0  0  0
   39.5830   31.4410   39.7130 C   0  0  0  0  0  2  0  0  0  0  0  0
   36.9750   27.6110   42.9450 C   0  0  0  0  0  0  0  0  0  0  0  0
   37.5270   28.0360   43.8190 H   0  0  0  0  0  0  0  0  0  0  0  0
   35.9600   27.3690   43.3310 H   0  0  0  0  0  0  0  0  0  0  0  0
   39.4960   25.1570   41.6970 C   0  0  0  0  0  0  0  0  0  0  0  0
   38.7130   24.0170   41.4690 C   0  0  0  0  0  0  0  0  0  0  0  0
   37.3490   24.1200   41.7490 C   0  0  0  0  0  0  0  0  0  0  0  0
   36.8320   25.2940   42.2220 N   0  0  0  0  0  0  0  0  0  0  0  0
   37.6420   26.3820   42.4270 C   0  0  0  0  0  0  0  0  0  0  0  0
   38.9610   26.2750   42.1550 N   0  0  0  0  0  0  0  0  0  0  0  0
   40.5570   25.1240   41.4950 H   0  0  0  0  0  0  0  0  0  0  0  0
   39.1770   23.1140   41.0940 H   0  0  0  0  0  0  0  0  0  0  0  0
   36.7220   23.2520   41.5810 H   0  0  0  0  0  0  0  0  0  0  0  0
  2  3  1  0  0  0  0
  2  1  1  0  0  0  0
  3 17  1  0  0  0  0
  4  8  1  0  0  0  0
  4  3  2  0  0  0  0
  5  4  1  0  0  0  0
  6  5  2  0  0  0  0
  6  7  1  0  0  0  0
  7  2  2  0  0  0  0
  9  5  1  0  0  0  0
 10  6  1  0  0  0  0
 11  7  1  0  0  0  0
 12 13  1  0  0  0  0
 12 11  1  0  0  0  0
 14 15  1  0  0  0  0
 14 13  1  0  0  0  0
 16 15  1  0  0  0  0
 16 11  1  0  0  0  0
 17 19  1  0  0  0  0
 17 18  1  0  0  0  0
 20 25  1  0  0  0  0
 21 20  2  0  0  0  0
 21 22  1  0  0  0  0
 22 23  2  0  0  0  0
 23 24  1  0  0  0  0
 24 17  1  0  0  0  0
 25 24  2  0  0  0  0
 26 20  1  0  0  0  0
 27 21  1  0  0  0  0
 28 22  1  0  0  0  0
M  END
>  <minimizedAffinity>
-5.54967833

$$$$

 OpenBabel03252502543D

 28 30  0  0  0  0  0  0  0  0999 V2000
   36.5360   27.7380   39.1250 Br  0  0  0  0  0  0  0  0  0  0  0  0
   37.0540   27.8290   40.9840 C   0  0  0  0  0  0  0  0  0  0  0  0
   36.9450   29.0790   41.5710 C   0  0  0  0  0  0  0  0  0  0  0  0
   37.3280   29.1150   42.9160 C   0  0  0  0  0  0  0  0  0  0  0  0
   37.7780   28.0170   43.6150 C   0  0  0  0  0  0  0  0  0  0  0  0
   37.8540   26.8240   42.9600 C   0  0  0  0  0  0  0  0  0  0  0  0
   37.4990   26.6950   41.6390 C   0  0  0  0  0  0  0  0  0  0  0  0
   37.2810   30.0550   43.4760 H   0  0  0  0  0  0  0  0  0  0  0  0
   38.0650   28.0850   44.6560 H   0  0  0  0  0  0  0  0  0  0  0  0
   38.2010   25.9380   43.4740 H   0  0  0  0  0  0  0  0  0  0  0  0
   37.5460   25.4520   40.8450 C   0  0  0  0  0  3  0  0  0  0  0  0
   36.5740   24.4110   41.3710 C   0  0  0  0  0  2  0  0  0  0  0  0
   36.5430   23.3130   40.3050 C   0  0  0  0  0  2  0  0  0  0  0  0
   37.9080   22.6720   40.3020 C   0  0  0  0  0  2  0  0  0  0  0  0
   39.0000   23.6610   39.9370 C   0  0  0  0  0  2  0  0  0  0  0  0
   38.9410   24.8900   40.8210 C   0  0  0  0  0  2  0  0  0  0  0  0
   36.4830   30.3190   40.9360 C   0  0  0  0  0  0  0  0  0  0  0  0
   35.8030   30.0530   40.0890 H   0  0  0  0  0  0  0  0  0  0  0  0
   35.8430   30.8610   41.6650 H   0  0  0  0  0  0  0  0  0  0  0  0
   39.8060   31.5780   39.7900 C   0  0  0  0  0  0  0  0  0  0  0  0
   39.5660   32.9500   39.6380 C   0  0  0  0  0  0  0  0  0  0  0  0
   38.2780   33.4040   39.9300 C   0  0  0  0  0  0  0  0  0  0  0  0
   37.3180   32.5230   40.3440 N   0  0  0  0  0  0  0  0  0  0  0  0
   37.6040   31.1890   40.4780 C   0  0  0  0  0  0  0  0  0  0  0  0
   38.8520   30.7570   40.1930 N   0  0  0  0  0  0  0  0  0  0  0  0
   40.7870   31.1810   39.5760 H   0  0  0  0  0  0  0  0  0  0  0  0
   40.3660   33.6010   39.3070 H   0  0  0  0  0  0  0  0  0  0  0  0
   38.0680   34.4620   39.8200 H   0  0  0  0  0  0  0  0  0  0  0  0
  1  2  1  0  0  0  0
  2  3  2  0  0  0  0
  2  7  1  0  0  0  0
  3  4  1  0  0  0  0
  4  8  1  0  0  0  0
  4  5  2  0  0  0  0
  5  9  1  0  0  0  0
  6 10  1  0  0  0  0
  6  5  1  0  0  0  0
  7  6  2  0  0  0  0
 11 12  1  0  0  0  0
 11  7  1  0  0  0  0
 13 12  1  0  0  0  0
 14 13  1  0  0  0  0
 15 14  1  0  0  0  0
 15 16  1  0  0  0  0
 16 11  1  0  0  0  0
 17  3  1  0  0  0  0
 17 19  1  0  0  0  0
 18 17  1  0  0  0  0
 20 25  1  0  0  0  0
 21 20  2  0  0  0  0
 21 22  1  0  0  0  0
 22 23  2  0  0  0  0
 23 24  1  0  0  0  0
 24 17  1  0  0  0  0
 25 24  2  0  0  0  0
 26 20  1  0  0  0  0
 27 21  1  0  0  0  0
 28 22  1  0  0  0  0
M  END
>  <minimizedAffinity>
-5.37866497

$$$$

 OpenBabel03252502543D

 28 30  0  0  0  0  0  0  0  0999 V2000
   40.1800   28.8080   39.4520 Br  0  0  0  0  0  0  0  0  0  0  0  0
   38.8960   30.2440   39.6060 C   0  0  0  0  0  0  0  0  0  0  0  0
   39.0890   31.3100   38.7430 C   0  0  0  0  0  0  0  0  0  0  0  0
   38.1460   32.3340   38.8770 C   0  0  0  0  0  0  0  0  0  0  0  0
   37.1080   32.3060   39.7820 C   0  0  0  0  0  0  0  0  0  0  0  0
   36.9900   31.2180   40.5940 C   0  0  0  0  0  0  0  0  0  0  0  0
   37.8710   30.1650   40.5320 C   0  0  0  0  0  0  0  0  0  0  0  0
   38.2070   33.2230   38.2430 H   0  0  0  0  0  0  0  0  0  0  0  0
   36.3970   33.1190   39.8560 H   0  0  0  0  0  0  0  0  0  0  0  0
   36.1880   31.1580   41.3170 H   0  0  0  0  0  0  0  0  0  0  0  0
   37.8290   28.9470   41.3650 C   0  0  0  0  0  3  0  0  0  0  0  0
   36.6750   28.0410   40.9780 C   0  0  0  0  0  2  0  0  0  0  0  0
   36.9240   26.7290   41.7260 C   0  0  0  0  0  2  0  0  0  0  0  0
   36.7670   27.0310   43.1960 C   0  0  0  0  0  2  0  0  0  0  0  0
   37.7790   28.0550   43.6770 C   0  0  0  0  0  2  0  0  0  0  0  0
   37.7380   29.3060   42.8230 C   0  0  0  0  0  2  0  0  0  0  0  0
   40.1510   31.4560   37.7410 C   0  0  0  0  0  0  0  0  0  0  0  0
   40.5270   30.4380   37.4690 H   0  0  0  0  0  0  0  0  0  0  0  0
   39.6930   31.8560   36.8100 H   0  0  0  0  0  0  0  0  0  0  0  0
   42.8140   33.1090   39.7680 C   0  0  0  0  0  0  0  0  0  0  0  0
   43.3200   34.0610   38.8730 C   0  0  0  0  0  0  0  0  0  0  0  0
   42.7380   34.1100   37.6050 C   0  0  0  0  0  0  0  0  0  0  0  0
   41.7220   33.2540   37.2830 N   0  0  0  0  0  0  0  0  0  0  0  0
   41.2620   32.3400   38.1970 C   0  0  0  0  0  0  0  0  0  0  0  0
   41.8300   32.2980   39.4210 N   0  0  0  0  0  0  0  0  0  0  0  0
   43.2340   33.0350   40.7610 H   0  0  0  0  0  0  0  0  0  0  0  0
   44.1260   34.7140   39.1830 H   0  0  0  0  0  0  0  0  0  0  0  0
   43.1120   34.8380   36.8950 H   0  0  0  0  0  0  0  0  0  0  0  0
  1  2  1  0  0  0  0
  2  7  1  0  0  0  0
  3  4  1  0  0  0  0
  3  2  2  0  0  0  0
  4  5  2  0  0  0  0
  5  9  1  0  0  0  0
  5  6  1  0  0  0  0
  6 10  1  0  0  0  0
  7  6  2  0  0  0  0
  7 11  1  0  0  0  0
  8  4  1  0  0  0  0
 11 16  1  0  0  0  0
 12 11  1  0  0  0  0
 12 13  1  0  0  0  0
 13 14  1  0  0  0  0
 14 15  1  0  0  0  0
 16 15  1  0  0  0  0
 17 24  1  0  0  0  0
 17  3  1  0  0  0  0
 18 17  1  0  0  0  0
 19 17  1  0  0  0  0
 20 26  1  0  0  0  0
 21 27  1  0  0  0  0
 21 20  2  0  0  0  0
 22 21  1  0  0  0  0
 23 22  2  0  0  0  0
 23 24  1  0  0  0  0
 24 25  2  0  0  0  0
 25 20  1  0  0  0  0
 28 22  1  0  0  0  0
M  END
>  <minimizedAffinity>
-5.19021845

$$$$

 OpenBabel03252502543D

 28 30  0  0  0  0  0  0  0  0999 V2000
   39.8970   28.4370   39.4810 Br  0  0  0  0  0  0  0  0  0  0  0  0
   38.0890   28.6140   40.1400 C   0  0  0  0  0  0  0  0  0  0  0  0
   37.3350   29.6120   39.5450 C   0  0  0  0  0  0  0  0  0  0  0  0
   36.0310   29.7170   40.0410 C   0  0  0  0  0  0  0  0  0  0  0  0
   35.5220   28.9110   41.0360 C   0  0  0  0  0  0  0  0  0  0  0  0
   36.3330   27.9530   41.5660 C   0  0  0  0  0  0  0  0  0  0  0  0
   37.6280   27.7770   41.1390 C   0  0  0  0  0  0  0  0  0  0  0  0
   35.3500   30.4740   39.6410 H   0  0  0  0  0  0  0  0  0  0  0  0
   34.5070   29.0240   41.3940 H   0  0  0  0  0  0  0  0  0  0  0  0
   35.9700   27.2990   42.3470 H   0  0  0  0  0  0  0  0  0  0  0  0
   38.5810   26.7720   41.6500 C   0  0  0  0  0  3  0  0  0  0  0  0
   38.0290   25.3630   41.5310 C   0  0  0  0  0  2  0  0  0  0  0  0
   39.2120   24.4400   41.8370 C   0  0  0  0  0  2  0  0  0  0  0  0
   39.5620   24.6500   43.2890 C   0  0  0  0  0  2  0  0  0  0  0  0
   39.9870   26.0800   43.5710 C   0  0  0  0  0  2  0  0  0  0  0  0
   38.9450   27.0650   43.0790 C   0  0  0  0  0  2  0  0  0  0  0  0
   37.7620   30.5310   38.4830 C   0  0  0  0  0  0  0  0  0  0  0  0
   38.5200   30.0120   37.8460 H   0  0  0  0  0  0  0  0  0  0  0  0
   36.8920   30.7110   37.8140 H   0  0  0  0  0  0  0  0  0  0  0  0
   38.0640   33.9150   40.0300 C   0  0  0  0  0  0  0  0  0  0  0  0
   39.4410   34.1610   39.9380 C   0  0  0  0  0  0  0  0  0  0  0  0
   40.2240   33.1640   39.3520 C   0  0  0  0  0  0  0  0  0  0  0  0
   39.6430   32.0130   38.8980 N   0  0  0  0  0  0  0  0  0  0  0  0
   38.2900   31.8210   39.0110 C   0  0  0  0  0  0  0  0  0  0  0  0
   37.5390   32.7900   39.5790 N   0  0  0  0  0  0  0  0  0  0  0  0
   37.4190   34.6570   40.4750 H   0  0  0  0  0  0  0  0  0  0  0  0
   39.8460   35.0910   40.3150 H   0  0  0  0  0  0  0  0  0  0  0  0
   41.2920   33.3310   39.2690 H   0  0  0  0  0  0  0  0  0  0  0  0
  1  2  1  0  0  0  0
  2  7  1  0  0  0  0
  3  4  1  0  0  0  0
  3  2  2  0  0  0  0
  4  5  2  0  0  0  0
  5  9  1  0  0  0  0
  5  6  1  0  0  0  0
  6 10  1  0  0  0  0
  7  6  2  0  0  0  0
  7 11  1  0  0  0  0
  8  4  1  0  0  0  0
 11 16  1  0  0  0  0
 12 11  1  0  0  0  0
 12 13  1  0  0  0  0
 13 14  1  0  0  0  0
 14 15  1  0  0  0  0
 16 15  1  0  0  0  0
 17 24  1  0  0  0  0
 17  3  1  0  0  0  0
 18 17  1  0  0  0  0
 19 17  1  0  0  0  0
 20 26  1  0  0  0  0
 21 20  1  0  0  0  0
 21 27  1  0  0  0  0
 22 21  2  0  0  0  0
 23 24  2  0  0  0  0
 23 22  1  0  0  0  0
 24 25  1  0  0  0  0
 25 20  2  0  0  0  0
 28 22  1  0  0  0  0
M  END
>  <minimizedAffinity>
-5.13456821

$$$$

 OpenBabel03252502543D

 28 30  0  0  0  0  0  0  0  0999 V2000
   37.2730   28.5750   42.5500 Br  0  0  0  0  0  0  0  0  0  0  0  0
   36.8420   28.5550   40.6660 C   0  0  0  0  0  0  0  0  0  0  0  0
   36.4240   29.7660   40.1390 C   0  0  0  0  0  0  0  0  0  0  0  0
   36.1190   29.7230   38.7760 C   0  0  0  0  0  0  0  0  0  0  0  0
   36.2160   28.5850   38.0040 C   0  0  0  0  0  0  0  0  0  0  0  0
   36.6360   27.4350   38.6030 C   0  0  0  0  0  0  0  0  0  0  0  0
   36.9580   27.3860   39.9380 C   0  0  0  0  0  0  0  0  0  0  0  0
   35.7780   30.6260   38.2590 H   0  0  0  0  0  0  0  0  0  0  0  0
   35.9700   28.5910   36.9500 H   0  0  0  0  0  0  0  0  0  0  0  0
   36.7270   26.5220   38.0310 H   0  0  0  0  0  0  0  0  0  0  0  0
   37.4200   26.1940   40.6750 C   0  0  0  0  0  3  0  0  0  0  0  0
   38.9010   25.9390   40.4610 C   0  0  0  0  0  2  0  0  0  0  0  0
   39.2770   24.8620   41.4830 C   0  0  0  0  0  2  0  0  0  0  0  0
   38.5550   23.6040   41.0720 C   0  0  0  0  0  2  0  0  0  0  0  0
   37.0470   23.7790   41.0960 C   0  0  0  0  0  2  0  0  0  0  0  0
   36.6250   24.9810   40.2750 C   0  0  0  0  0  2  0  0  0  0  0  0
   36.2800   31.0400   40.8540 C   0  0  0  0  0  0  0  0  0  0  0  0
   35.3100   31.5090   40.5540 H   0  0  0  0  0  0  0  0  0  0  0  0
   36.1720   30.8160   41.9380 H   0  0  0  0  0  0  0  0  0  0  0  0
   38.3850   33.9540   39.8480 C   0  0  0  0  0  0  0  0  0  0  0  0
   39.6590   33.5630   40.2820 C   0  0  0  0  0  0  0  0  0  0  0  0
   39.7600   32.3180   40.9050 C   0  0  0  0  0  0  0  0  0  0  0  0
   38.6490   31.5390   41.0690 N   0  0  0  0  0  0  0  0  0  0  0  0
   37.4240   31.9680   40.6250 C   0  0  0  0  0  0  0  0  0  0  0  0
   37.3330   33.1740   40.0230 N   0  0  0  0  0  0  0  0  0  0  0  0
   38.2580   34.9090   39.3600 H   0  0  0  0  0  0  0  0  0  0  0  0
   40.5040   34.2210   40.1250 H   0  0  0  0  0  0  0  0  0  0  0  0
   40.7360   31.9930   41.2490 H   0  0  0  0  0  0  0  0  0  0  0  0
  2  1  1  0  0  0  0
  3  2  1  0  0  0  0
  3 17  1  0  0  0  0
  4  3  2  0  0  0  0
  5  6  2  0  0  0  0
  5  4  1  0  0  0  0
  6  7  1  0  0  0  0
  7  2  2  0  0  0  0
  7 11  1  0  0  0  0
  8  4  1  0  0  0  0
  9  5  1  0  0  0  0
 10  6  1  0  0  0  0
 12 11  1  0  0  0  0
 12 13  1  0  0  0  0
 14 15  1  0  0  0  0
 14 13  1  0  0  0  0
 16 11  1  0  0  0  0
 16 15  1  0  0  0  0
 17 19  1  0  0  0  0
 18 17  1  0  0  0  0
 20 25  2  0  0  0  0
 20 21  1  0  0  0  0
 21 22  2  0  0  0  0
 22 23  1  0  0  0  0
 22 28  1  0  0  0  0
 24 17  1  0  0  0  0
 24 23  2  0  0  0  0
 25 24  1  0  0  0  0
 26 20  1  0  0  0  0
 27 21  1  0  0  0  0
M  END
>  <minimizedAffinity>
-5.08190632

$$$$

 OpenBabel03252502543D

 28 30  0  0  0  0  0  0  0  0999 V2000
   36.4920   26.1240   39.5320 Br  0  0  0  0  0  0  0  0  0  0  0  0
   36.5890   27.9040   40.2780 C   0  0  0  0  0  0  0  0  0  0  0  0
   36.8070   27.9650   41.6440 C   0  0  0  0  0  0  0  0  0  0  0  0
   36.8720   29.2650   42.1560 C   0  0  0  0  0  0  0  0  0  0  0  0
   36.7320   30.3990   41.3870 C   0  0  0  0  0  0  0  0  0  0  0  0
   36.5200   30.2490   40.0500 C   0  0  0  0  0  0  0  0  0  0  0  0
   36.4430   29.0090   39.4600 C   0  0  0  0  0  0  0  0  0  0  0  0
   37.0410   29.4270   43.2260 H   0  0  0  0  0  0  0  0  0  0  0  0
   36.7880   31.3900   41.8210 H   0  0  0  0  0  0  0  0  0  0  0  0
   36.4070   31.1150   39.4120 H   0  0  0  0  0  0  0  0  0  0  0  0
   36.2160   28.7430   38.0270 C   0  0  0  0  0  3  0  0  0  0  0  0
   37.1860   29.5150   37.1510 C   0  0  0  0  0  2  0  0  0  0  0  0
   37.0100   28.9360   35.7450 C   0  0  0  0  0  2  0  0  0  0  0  0
   35.6210   29.3120   35.2920 C   0  0  0  0  0  2  0  0  0  0  0  0
   34.5500   28.7200   36.1910 C   0  0  0  0  0  2  0  0  0  0  0  0
   34.8000   29.0740   37.6430 C   0  0  0  0  0  2  0  0  0  0  0  0
   36.9700   26.8350   42.5660 C   0  0  0  0  0  0  0  0  0  0  0  0
   36.4010   27.0540   43.5030 H   0  0  0  0  0  0  0  0  0  0  0  0
   36.4660   25.9500   42.1190 H   0  0  0  0  0  0  0  0  0  0  0  0
   40.5270   27.0500   43.6790 C   0  0  0  0  0  0  0  0  0  0  0  0
   41.0230   25.7860   43.3320 C   0  0  0  0  0  0  0  0  0  0  0  0
   40.1290   24.8990   42.7300 C   0  0  0  0  0  0  0  0  0  0  0  0
   38.8350   25.2770   42.5020 N   0  0  0  0  0  0  0  0  0  0  0  0
   38.3990   26.5270   42.8600 C   0  0  0  0  0  0  0  0  0  0  0  0
   39.2700   27.3800   43.4430 N   0  0  0  0  0  0  0  0  0  0  0  0
   41.1820   27.7700   44.1470 H   0  0  0  0  0  0  0  0  0  0  0  0
   42.0580   25.5420   43.5360 H   0  0  0  0  0  0  0  0  0  0  0  0
   40.4890   23.9150   42.4520 H   0  0  0  0  0  0  0  0  0  0  0  0
  1  2  1  0  0  0  0
  2  3  1  0  0  0  0
  3  4  2  0  0  0  0
  3 17  1  0  0  0  0
  4  8  1  0  0  0  0
  5  9  1  0  0  0  0
  5  4  1  0  0  0  0
  6  5  2  0  0  0  0
  7  6  1  0  0  0  0
  7  2  2  0  0  0  0
 10  6  1  0  0  0  0
 11  7  1  0  0  0  0
 12 11  1  0  0  0  0
 13 12  1  0  0  0  0
 14 13  1  0  0  0  0
 14 15  1  0  0  0  0
 15 16  1  0  0  0  0
 16 11  1  0  0  0  0
 17 24  1  0  0  0  0
 17 18  1  0  0  0  0
 19 17  1  0  0  0  0
 20 26  1  0  0  0  0
 21 27  1  0  0  0  0
 21 20  2  0  0  0  0
 22 21  1  0  0  0  0
 23 22  2  0  0  0  0
 23 24  1  0  0  0  0
 24 25  2  0  0  0  0
 25 20  1  0  0  0  0
 28 22  1  0  0  0  0
M  END
>  <minimizedAffinity>
-5.05240345

$$$$

 OpenBabel03252502543D

 28 30  0  0  0  0  0  0  0  0999 V2000
   37.4240   29.2460   38.3080 Br  0  0  0  0  0  0  0  0  0  0  0  0
   37.3800   28.9110   40.2110 C   0  0  0  0  0  0  0  0  0  0  0  0
   36.9290   27.6550   40.5830 C   0  0  0  0  0  0  0  0  0  0  0  0
   36.9070   27.4410   41.9650 C   0  0  0  0  0  0  0  0  0  0  0  0
   37.2930   28.3830   42.8930 C   0  0  0  0  0  0  0  0  0  0  0  0
   37.7240   29.5940   42.4410 C   0  0  0  0  0  0  0  0  0  0  0  0
   37.7790   29.8920   41.1000 C   0  0  0  0  0  0  0  0  0  0  0  0
   36.5670   26.4810   42.3670 H   0  0  0  0  0  0  0  0  0  0  0  0
   37.2610   28.1790   43.9560 H   0  0  0  0  0  0  0  0  0  0  0  0
   38.0370   30.3590   43.1370 H   0  0  0  0  0  0  0  0  0  0  0  0
   38.2290   31.1690   40.5130 C   0  0  0  0  0  3  0  0  0  0  0  0
   39.3220   31.8160   41.3440 C   0  0  0  0  0  2  0  0  0  0  0  0
   39.8600   32.9610   40.4820 C   0  0  0  0  0  2  0  0  0  0  0  0
   38.7480   33.9730   40.3610 C   0  0  0  0  0  2  0  0  0  0  0  0
   37.5230   33.3940   39.6760 C   0  0  0  0  0  2  0  0  0  0  0  0
   37.0710   32.1170   40.3550 C   0  0  0  0  0  2  0  0  0  0  0  0
   36.4920   26.5720   39.6940 C   0  0  0  0  0  0  0  0  0  0  0  0
   35.4000   26.3950   39.8590 H   0  0  0  0  0  0  0  0  0  0  0  0
   36.5730   26.9340   38.6450 H   0  0  0  0  0  0  0  0  0  0  0  0
   39.2480   24.0590   39.8360 C   0  0  0  0  0  0  0  0  0  0  0  0
   38.5760   22.9070   40.2660 C   0  0  0  0  0  0  0  0  0  0  0  0
   37.2040   23.0220   40.4950 C   0  0  0  0  0  0  0  0  0  0  0  0
   36.5740   24.2200   40.2980 N   0  0  0  0  0  0  0  0  0  0  0  0
   37.2770   25.3180   39.8760 C   0  0  0  0  0  0  0  0  0  0  0  0
   38.6050   25.1990   39.6570 N   0  0  0  0  0  0  0  0  0  0  0  0
   40.3100   24.0170   39.6470 H   0  0  0  0  0  0  0  0  0  0  0  0
   39.1280   21.9850   40.4050 H   0  0  0  0  0  0  0  0  0  0  0  0
   36.6620   22.1450   40.8280 H   0  0  0  0  0  0  0  0  0  0  0  0
  1  2  1  0  0  0  0
  2  3  2  0  0  0  0
  2  7  1  0  0  0  0
  3  4  1  0  0  0  0
  4  8  1  0  0  0  0
  4  5  2  0  0  0  0
  5  9  1  0  0  0  0
  6  5  1  0  0  0  0
  6 10  1  0  0  0  0
  7  6  2  0  0  0  0
 11  7  1  0  0  0  0
 11 12  1  0  0  0  0
 13 12  1  0  0  0  0
 14 13  1  0  0  0  0
 15 16  1  0  0  0  0
 15 14  1  0  0  0  0
 16 11  1  0  0  0  0
 17 18  1  0  0  0  0
 17 24  1  0  0  0  0
 17  3  1  0  0  0  0
 19 17  1  0  0  0  0
 20 21  1  0  0  0  0
 21 27  1  0  0  0  0
 21 22  2  0  0  0  0
 22 28  1  0  0  0  0
 23 22  1  0  0  0  0
 24 23  2  0  0  0  0
 25 20  2  0  0  0  0
 25 24  1  0  0  0  0
 26 20  1  0  0  0  0
M  END
>  <minimizedAffinity>
-5.03817892

$$$$

 OpenBabel03252502543D

 28 30  0  0  0  0  0  0  0  0999 V2000
   40.0440   27.0720   40.2250 Br  0  0  0  0  0  0  0  0  0  0  0  0
   38.7900   27.4500   41.6460 C   0  0  0  0  0  0  0  0  0  0  0  0
   39.1800   28.4370   42.5370 C   0  0  0  0  0  0  0  0  0  0  0  0
   38.2550   28.6890   43.5540 C   0  0  0  0  0  0  0  0  0  0  0  0
   37.0540   28.0260   43.6800 C   0  0  0  0  0  0  0  0  0  0  0  0
   36.7470   27.0690   42.7590 C   0  0  0  0  0  0  0  0  0  0  0  0
   37.5970   26.7550   41.7250 C   0  0  0  0  0  0  0  0  0  0  0  0
   38.4650   29.4500   44.3130 H   0  0  0  0  0  0  0  0  0  0  0  0
   36.3630   28.2490   44.4820 H   0  0  0  0  0  0  0  0  0  0  0  0
   35.8140   26.5270   42.8220 H   0  0  0  0  0  0  0  0  0  0  0  0
   37.3570   25.7390   40.6830 C   0  0  0  0  0  3  0  0  0  0  0  0
   36.4300   26.2550   39.5970 C   0  0  0  0  0  2  0  0  0  0  0  0
   36.4980   25.2120   38.4790 C   0  0  0  0  0  2  0  0  0  0  0  0
   35.8720   23.9520   39.0230 C   0  0  0  0  0  2  0  0  0  0  0  0
   36.6280   23.4140   40.2240 C   0  0  0  0  0  2  0  0  0  0  0  0
   36.7940   24.4810   41.2870 C   0  0  0  0  0  2  0  0  0  0  0  0
   40.4270   29.2100   42.5100 C   0  0  0  0  0  0  0  0  0  0  0  0
   40.6810   29.5130   43.5570 H   0  0  0  0  0  0  0  0  0  0  0  0
   41.2480   28.5290   42.1970 H   0  0  0  0  0  0  0  0  0  0  0  0
   41.1140   31.7230   39.8360 C   0  0  0  0  0  0  0  0  0  0  0  0
   40.0740   32.6440   40.0210 C   0  0  0  0  0  0  0  0  0  0  0  0
   39.1700   32.3790   41.0500 C   0  0  0  0  0  0  0  0  0  0  0  0
   39.3210   31.2630   41.8270 N   0  0  0  0  0  0  0  0  0  0  0  0
   40.3570   30.3930   41.6060 C   0  0  0  0  0  0  0  0  0  0  0  0
   41.2280   30.6560   40.6070 N   0  0  0  0  0  0  0  0  0  0  0  0
   41.8380   31.8860   39.0520 H   0  0  0  0  0  0  0  0  0  0  0  0
   40.0040   33.5100   39.3750 H   0  0  0  0  0  0  0  0  0  0  0  0
   38.3560   33.0760   41.2130 H   0  0  0  0  0  0  0  0  0  0  0  0
  1  2  1  0  0  0  0
  2  7  2  0  0  0  0
  2  3  1  0  0  0  0
  3  4  2  0  0  0  0
  4  5  1  0  0  0  0
  4  8  1  0  0  0  0
  5  9  1  0  0  0  0
  6 10  1  0  0  0  0
  6  5  2  0  0  0  0
  7  6  1  0  0  0  0
 11 16  1  0  0  0  0
 11  7  1  0  0  0  0
 12 11  1  0  0  0  0
 13 14  1  0  0  0  0
 13 12  1  0  0  0  0
 14 15  1  0  0  0  0
 15 16  1  0  0  0  0
 17  3  1  0  0  0  0
 17 18  1  0  0  0  0
 19 17  1  0  0  0  0
 20 21  2  0  0  0  0
 20 25  1  0  0  0  0
 21 22  1  0  0  0  0
 22 28  1  0  0  0  0
 22 23  2  0  0  0  0
 24 23  1  0  0  0  0
 24 17  1  0  0  0  0
 25 24  2  0  0  0  0
 26 20  1  0  0  0  0
 27 21  1  0  0  0  0
M  END
>  <minimizedAffinity>
-5.03070641

$$$$
