
 OpenBabel03252505343D

 27 29  0  0  0  0  0  0  0  0999 V2000
   46.5720   34.7550   42.0970 C   0  0  0  0  0  0  0  0  0  0  0  0
   47.8760   35.1980   42.0180 C   0  0  0  0  0  0  0  0  0  0  0  0
   48.6420   35.0310   40.8600 C   0  0  0  0  0  0  0  0  0  0  0  0
   48.0810   34.4050   39.7620 C   0  0  0  0  0  0  0  0  0  0  0  0
   46.7860   33.9770   39.8720 C   0  0  0  0  0  0  0  0  0  0  0  0
   46.0010   34.1260   41.0010 C   0  0  0  0  0  0  0  0  0  0  0  0
   48.3340   35.6940   42.8740 H   0  0  0  0  0  0  0  0  0  0  0  0
   49.6480   35.4070   40.8860 H   0  0  0  0  0  0  0  0  0  0  0  0
   48.6690   34.2730   38.8630 H   0  0  0  0  0  0  0  0  0  0  0  0
   46.4010   33.4900   38.9880 H   0  0  0  0  0  0  0  0  0  0  0  0
   44.4190   36.2150   44.8250 C   0  0  0  0  0  0  0  0  0  0  0  0
   45.0550   36.0980   43.5730 C   0  0  0  0  0  0  0  0  0  0  0  0
   45.8680   34.9820   43.3410 C   0  0  0  0  0  0  0  0  0  0  0  0
   46.0070   34.0700   44.3230 N   0  0  0  0  0  0  0  0  0  0  0  0
   45.3690   34.2240   45.5240 C   0  0  0  0  0  0  0  0  0  0  0  0
   44.5810   35.2970   45.7620 N   0  0  0  0  0  0  0  0  0  0  0  0
   45.5160   33.2630   46.5610 N   0  0  0  0  0  0  0  0  0  0  0  0
   43.7950   37.0980   44.9660 H   0  0  0  0  0  0  0  0  0  0  0  0
   44.9790   36.7900   42.7650 H   0  0  0  0  0  0  0  0  0  0  0  0
   46.4870   32.9590   46.6950 H   0  0  0  0  0  0  0  0  0  0  0  0
   44.6680   32.9530   47.0820 H   0  0  0  0  0  0  0  0  0  0  0  0
   44.6000   33.6450   41.1030 C   0  0  0  0  0  0  0  0  0  0  0  0
   44.5860   32.2560   40.5160 C   0  0  0  0  0  0  0  0  0  0  0  0
   43.2190   31.7220   40.2240 C   0  0  0  0  0  0  0  0  0  0  0  0
   42.4750   32.7040   39.3440 C   0  0  0  0  0  0  0  0  0  0  0  0
   42.3990   34.0670   39.9320 C   0  0  0  0  0  0  0  0  0  0  0  0
   43.7030   34.6240   40.4400 C   0  0  0  0  0  0  0  0  0  0  0  0
  1 13  1  0  0  0  0
  2  1  1  0  0  0  0
  2  7  1  0  0  0  0
  3  8  1  0  0  0  0
  3  2  2  0  0  0  0
  4  5  2  0  0  0  0
  4  3  1  0  0  0  0
  5  6  1  0  0  0  0
  6 22  1  0  0  0  0
  6  1  2  0  0  0  0
  9  4  1  0  0  0  0
 10  5  1  0  0  0  0
 11 18  1  0  0  0  0
 11 16  1  0  0  0  0
 12 11  2  0  0  0  0
 13 12  1  0  0  0  0
 13 14  2  0  0  0  0
 14 15  1  0  0  0  0
 15 16  2  0  0  0  0
 15 17  1  0  0  0  0
 17 20  1  0  0  0  0
 17 21  1  0  0  0  0
 19 12  1  0  0  0  0
 23 22  1  0  0  0  0
 24 23  1  0  0  0  0
 25 26  1  0  0  0  0
 25 24  1  0  0  0  0
 26 27  1  0  0  0  0
 27 22  1  0  0  0  0
M  END
>  <minimizedAffinity>
-6.12787342

>  <minimizedRMSD>
0.983970761

$$$$
