
 OpenBabel03252508153D

 34 37  0  0  1  0  0  0  0  0999 V2000
   46.0640   30.9060   46.7830 C   0  0  0  0  0  0  0  0  0  0  0  0
   47.1010   30.5010   46.7760 H   0  0  0  0  0  0  0  0  0  0  0  0
   45.3460   30.0960   46.6410 H   0  0  0  0  0  0  0  0  0  0  0  0
   45.8910   31.6470   48.0900 C   0  0  1  0  0  0  0  0  0  0  0  0
   45.6670   30.8090   49.2990 C   0  0  0  0  0  0  0  0  0  0  0  0
   46.9270   31.5060   49.1390 C   0  0  1  0  0  0  0  0  0  0  0  0
   45.3390   32.6080   48.0600 H   0  0  0  0  0  0  0  0  0  0  0  0
   45.5490   29.7130   49.1350 H   0  0  0  0  0  0  0  0  0  0  0  0
   44.9340   31.1650   50.0740 H   0  0  0  0  0  0  0  0  0  0  0  0
   47.0640   32.4130   49.8040 H   0  0  0  0  0  0  0  0  0  0  0  0
   48.2180   30.8820   48.7630 C   0  0  0  0  0  0  0  0  0  0  0  0
   49.0840   30.4350   49.9700 C   0  0  0  0  0  0  0  0  0  0  0  0
   49.4840   31.6450   49.2110 C   0  0  0  0  0  0  0  0  0  0  0  0
   48.3030   30.3140   47.8330 H   0  0  0  0  0  0  0  0  0  0  0  0
   49.5960   29.4500   49.7890 H   0  0  0  0  0  0  0  0  0  0  0  0
   48.6170   30.4800   50.9600 H   0  0  0  0  0  0  0  0  0  0  0  0
   50.3710   31.5380   48.5330 H   0  0  0  0  0  0  0  0  0  0  0  0
   49.3580   32.5950   49.7500 H   0  0  0  0  0  0  0  0  0  0  0  0
   45.8070   33.1030   45.9380 C   0  0  0  0  0  0  0  0  0  0  0  0
   46.0400   31.8910   45.6260 C   0  0  0  0  0  0  0  0  0  0  0  0
   44.8580   36.0160   43.8960 C   0  0  0  0  0  0  0  0  0  0  0  0
   45.6650   35.8940   42.7740 C   0  0  0  0  0  0  0  0  0  0  0  0
   46.5220   34.8360   42.7440 C   0  0  0  0  0  0  0  0  0  0  0  0
   46.5310   33.9800   43.7970 N   0  0  0  0  0  0  0  0  0  0  0  0
   45.7580   34.0940   44.8720 C   0  0  0  0  0  0  0  0  0  0  0  0
   44.9270   35.1340   44.8870 N   0  0  0  0  0  0  0  0  0  0  0  0
   44.1280   36.8180   44.0470 H   0  0  0  0  0  0  0  0  0  0  0  0
   45.5410   36.6450   42.0380 H   0  0  0  0  0  0  0  0  0  0  0  0
   47.4070   34.6740   41.5420 C   0  0  0  0  0  0  0  0  0  0  0  0
   47.7910   33.2670   41.2540 C   0  0  0  0  0  0  0  0  0  0  0  0
   49.3000   33.0970   41.0960 C   0  0  0  0  0  0  0  0  0  0  0  0
   50.0420   33.6790   42.2670 C   0  0  0  0  0  0  0  0  0  0  0  0
   49.6820   35.1030   42.5480 C   0  0  0  0  0  0  0  0  0  0  0  0
   48.6040   35.5910   41.6240 C   0  0  0  0  0  0  0  0  0  0  0  0
  1  4  1  0  0  0  0
  2  1  1  0  0  0  0
  3  1  1  0  0  0  0
  4  7  1  6  0  0  0
  4  6  1  0  0  0  0
  4  5  1  0  0  0  0
  5  9  1  0  0  0  0
  6  5  1  0  0  0  0
  6 10  1  1  0  0  0
  8  5  1  0  0  0  0
 11  6  1  0  0  0  0
 11 13  1  0  0  0  0
 11 12  1  0  0  0  0
 12 16  1  0  0  0  0
 13 18  1  0  0  0  0
 13 12  1  0  0  0  0
 14 11  1  0  0  0  0
 15 12  1  0  0  0  0
 17 13  1  0  0  0  0
 20 19  2  0  0  0  0
 20  1  1  0  0  0  0
 21 27  1  0  0  0  0
 21 26  1  0  0  0  0
 22 21  2  0  0  0  0
 23 22  1  0  0  0  0
 23 24  2  0  0  0  0
 24 25  1  0  0  0  0
 25 26  2  0  0  0  0
 25 19  1  0  0  0  0
 28 22  1  0  0  0  0
 29 34  1  0  0  0  0
 29 23  1  0  0  0  0
 30 29  1  0  0  0  0
 31 30  1  0  0  0  0
 31 32  1  0  0  0  0
 32 33  1  0  0  0  0
 34 33  1  0  0  0  0
M  END
>  <minimizedAffinity>
-6.30183077

>  <minimizedRMSD>
1.46290207

$$$$
