
 OpenBabel03252506563D

 35 39  0  0  0  0  0  0  0  0999 V2000
   46.4320   31.2550   45.0250 C   0  0  0  0  0  0  0  0  0  0  0  0
   46.5610   32.6200   45.2060 C   0  0  0  0  0  0  0  0  0  0  0  0
   46.3380   33.2520   46.4170 C   0  0  0  0  0  0  0  0  0  0  0  0
   45.9650   32.4970   47.5240 C   0  0  0  0  0  0  0  0  0  0  0  0
   45.6730   32.7590   48.8290 N   0  0  0  0  0  0  0  0  0  0  0  0
   45.3730   31.5860   49.4350 C   0  0  0  0  0  0  0  0  0  0  0  0
   45.4830   30.6130   48.5020 N   0  0  0  0  0  0  0  0  0  0  0  0
   45.8430   31.1460   47.3300 C   0  0  0  0  0  0  0  0  0  0  0  0
   46.0580   30.4990   46.1430 C   0  0  0  0  0  0  0  0  0  0  0  0
   46.6110   30.7960   44.0750 H   0  0  0  0  0  0  0  0  0  0  0  0
   46.4420   34.3120   46.5430 H   0  0  0  0  0  0  0  0  0  0  0  0
   45.6970   33.7380   49.2300 H   0  0  0  0  0  0  0  0  0  0  0  0
   45.1030   31.5140   50.4810 H   0  0  0  0  0  0  0  0  0  0  0  0
   46.4740   35.1800   42.5560 C   0  0  0  0  0  0  0  0  0  0  0  0
   47.6780   34.9830   41.9010 C   0  0  0  0  0  0  0  0  0  0  0  0
   48.5280   33.9710   42.3630 C   0  0  0  0  0  0  0  0  0  0  0  0
   48.1260   33.2270   43.4390 N   0  0  0  0  0  0  0  0  0  0  0  0
   46.9530   33.4410   44.0540 C   0  0  0  0  0  0  0  0  0  0  0  0
   46.1200   34.4130   43.6220 N   0  0  0  0  0  0  0  0  0  0  0  0
   45.7780   35.9620   42.2290 H   0  0  0  0  0  0  0  0  0  0  0  0
   47.9640   35.5820   41.0610 H   0  0  0  0  0  0  0  0  0  0  0  0
   49.4850   33.7740   41.8840 H   0  0  0  0  0  0  0  0  0  0  0  0
   45.8990   29.0390   46.0330 C   0  0  0  0  0  0  0  0  0  0  0  0
   46.9640   28.1480   45.9430 C   0  0  0  0  0  0  0  0  0  0  0  0
   46.3220   26.8970   45.8590 C   0  0  0  0  0  0  0  0  0  0  0  0
   44.9550   27.1060   45.9030 C   0  0  0  0  0  0  0  0  0  0  0  0
   44.7630   28.4100   46.0070 O   0  0  0  0  0  0  0  0  0  0  0  0
   48.0300   28.3480   45.9380 H   0  0  0  0  0  0  0  0  0  0  0  0
   46.8170   25.9400   45.7770 H   0  0  0  0  0  0  0  0  0  0  0  0
   43.8550   26.0900   45.8460 C   0  0  0  0  0  3  0  0  0  0  0  0
   42.8080   26.4620   44.8380 C   0  0  0  0  0  2  0  0  0  0  0  0
   41.6140   27.1460   45.4610 C   0  0  0  0  0  2  0  0  0  0  0  0
   40.9140   26.2290   46.4330 C   0  0  0  0  0  2  0  0  0  0  0  0
   41.8910   25.3210   47.1240 C   0  0  0  0  0  2  0  0  0  0  0  0
   43.2850   25.8800   47.2200 C   0  0  0  0  0  2  0  0  0  0  0  0
  1  2  2  0  0  0  0
  1  9  1  0  0  0  0
  2  3  1  0  0  0  0
  3 11  1  0  0  0  0
  3  4  2  0  0  0  0
  4  5  1  0  0  0  0
  5 12  1  0  0  0  0
  5  6  1  0  0  0  0
  6 13  1  0  0  0  0
  7  6  2  0  0  0  0
  8  4  1  0  0  0  0
  8  7  1  0  0  0  0
  9  8  2  0  0  0  0
 10  1  1  0  0  0  0
 14 19  1  0  0  0  0
 15 16  1  0  0  0  0
 15 14  2  0  0  0  0
 16 17  2  0  0  0  0
 17 18  1  0  0  0  0
 18  2  1  0  0  0  0
 19 18  2  0  0  0  0
 20 14  1  0  0  0  0
 21 15  1  0  0  0  0
 22 16  1  0  0  0  0
 23  9  1  0  0  0  0
 24 23  2  0  0  0  0
 25 26  2  0  0  0  0
 25 24  1  0  0  0  0
 26 27  1  0  0  0  0
 27 23  1  0  0  0  0
 28 24  1  0  0  0  0
 29 25  1  0  0  0  0
 30 26  1  0  0  0  0
 30 35  1  0  0  0  0
 31 32  1  0  0  0  0
 31 30  1  0  0  0  0
 32 33  1  0  0  0  0
 33 34  1  0  0  0  0
 34 35  1  0  0  0  0
M  END
>  <minimizedAffinity>
-6.25073481

>  <minimizedRMSD>
2.72485113

$$$$
