
 OpenBabel03252507263D

 24 26  0  0  0  0  0  0  0  0999 V2000
   45.8620   33.8100   45.5900 C   0  0  0  0  0  0  0  0  0  0  0  0
   44.8470   34.7430   45.8530 C   0  0  0  0  0  0  0  0  0  0  0  0
   44.5190   35.6470   44.8210 C   0  0  0  0  0  0  0  0  0  0  0  0
   45.2030   35.5650   43.6320 N   0  0  0  0  0  0  0  0  0  0  0  0
   46.1650   34.6450   43.4490 C   0  0  0  0  0  0  0  0  0  0  0  0
   46.4980   33.7760   44.4030 N   0  0  0  0  0  0  0  0  0  0  0  0
   44.3620   34.7430   46.8040 H   0  0  0  0  0  0  0  0  0  0  0  0
   43.7520   36.3680   44.9910 H   0  0  0  0  0  0  0  0  0  0  0  0
   46.8560   34.6120   42.1540 C   0  0  0  0  0  0  0  0  0  0  0  0
   48.0060   35.3300   41.9520 C   0  0  0  0  0  0  0  0  0  0  0  0
   48.7240   35.3630   40.7760 C   0  0  0  0  0  0  0  0  0  0  0  0
   48.1820   34.5830   39.7600 C   0  0  0  0  0  0  0  0  0  0  0  0
   47.0220   33.8450   39.9370 C   0  0  0  0  0  0  0  0  0  0  0  0
   46.3640   33.8640   41.1360 N   0  0  0  0  0  0  0  0  0  0  0  0
   48.4180   35.9420   42.7700 H   0  0  0  0  0  0  0  0  0  0  0  0
   49.6300   35.9420   40.6490 H   0  0  0  0  0  0  0  0  0  0  0  0
   48.6620   34.5340   38.7980 H   0  0  0  0  0  0  0  0  0  0  0  0
   46.6100   33.2390   39.1320 H   0  0  0  0  0  0  0  0  0  0  0  0
   46.2800   32.8140   46.6120 C   0  0  0  0  0  3  0  0  0  0  0  0
   46.3440   31.4120   46.0990 C   0  0  0  0  0  2  0  0  0  0  0  0
   46.9070   30.5650   47.2320 C   0  0  0  0  0  2  0  0  0  0  0  0
   46.1390   30.6950   48.5110 C   0  0  0  0  0  2  0  0  0  0  0  0
   45.8810   32.1280   48.8970 C   0  0  0  0  0  2  0  0  0  0  0  0
   45.2190   32.8120   47.7210 C   0  0  0  0  0  2  0  0  0  0  0  0
  1  2  1  0  0  0  0
  1 19  1  0  0  0  0
  2  7  1  0  0  0  0
  3  8  1  0  0  0  0
  3  2  2  0  0  0  0
  4  3  1  0  0  0  0
  5  4  2  0  0  0  0
  5  6  1  0  0  0  0
  6  1  2  0  0  0  0
  9  5  1  0  0  0  0
 10  9  1  0  0  0  0
 10 15  1  0  0  0  0
 11 10  2  0  0  0  0
 12 13  2  0  0  0  0
 12 11  1  0  0  0  0
 13 14  1  0  0  0  0
 14  9  2  0  0  0  0
 16 11  1  0  0  0  0
 17 12  1  0  0  0  0
 18 13  1  0  0  0  0
 19 24  1  0  0  0  0
 20 19  1  0  0  0  0
 20 21  1  0  0  0  0
 21 22  1  0  0  0  0
 22 23  1  0  0  0  0
 24 23  1  0  0  0  0
M  END
>  <minimizedAffinity>
-6.23355484

>  <minimizedRMSD>
0.711477458

$$$$
