
 OpenBabel03252501313D

 17 18  0  0  0  0  0  0  0  0999 V2000
   37.7430   30.1670   41.3860 C   0  0  0  0  0  0  0  0  0  0  0  0
   36.8300   31.0930   40.8780 C   0  0  0  0  0  0  0  0  0  0  0  0
   37.3300   32.2250   40.2460 C   0  0  0  0  0  0  0  0  0  0  0  0
   38.6760   32.3700   40.1570 N   0  0  0  0  0  0  0  0  0  0  0  0
   39.5350   31.4600   40.6570 C   0  0  0  0  0  0  0  0  0  0  0  0
   39.0720   30.3540   41.2750 N   0  0  0  0  0  0  0  0  0  0  0  0
   36.6050   32.9060   39.8720 H   0  0  0  0  0  0  0  0  0  0  0  0
   40.5940   31.7070   40.5130 H   0  0  0  0  0  0  0  0  0  0  0  0
   37.3550   28.9110   42.0860 C   0  0  0  0  0  3  0  0  0  0  0  0
   37.4120   27.8180   41.0690 C   0  0  0  0  0  2  0  0  0  0  0  0
   37.3610   26.4370   41.6390 C   0  0  0  0  0  2  0  0  0  0  0  0
   38.5360   26.3130   42.5770 C   0  0  0  0  0  2  0  0  0  0  0  0
   38.5190   27.3230   43.6800 C   0  0  0  0  0  2  0  0  0  0  0  0
   38.1710   28.7050   43.3040 C   0  0  0  0  0  2  0  0  0  0  0  0
   35.4510   30.7860   41.0570 N   0  0  0  0  0  0  0  0  0  0  0  0
   35.2700   31.1440   42.0230 H   0  0  0  0  0  0  0  0  0  0  0  0
   34.7510   30.3190   40.4140 H   0  0  0  0  0  0  0  0  0  0  0  0
  1  9  1  0  0  0  0
  2 15  1  0  0  0  0
  2  1  2  0  0  0  0
  3  2  1  0  0  0  0
  4  3  2  0  0  0  0
  4  5  1  0  0  0  0
  5  6  2  0  0  0  0
  6  1  1  0  0  0  0
  7  3  1  0  0  0  0
  8  5  1  0  0  0  0
  9 14  1  0  0  0  0
 10 11  1  0  0  0  0
 10  9  1  0  0  0  0
 11 12  1  0  0  0  0
 12 13  1  0  0  0  0
 14 13  1  0  0  0  0
 15 16  1  0  0  0  0
 17 15  1  0  0  0  0
M  END
>  <minimizedAffinity>
-4.61663771

$$$$

 OpenBabel03252501313D

 17 18  0  0  0  0  0  0  0  0999 V2000
   37.8750   31.9420   40.1570 C   0  0  0  0  0  0  0  0  0  0  0  0
   38.0970   33.3110   40.0060 C   0  0  0  0  0  0  0  0  0  0  0  0
   39.3450   33.8130   40.3540 C   0  0  0  0  0  0  0  0  0  0  0  0
   40.2790   32.9470   40.8210 N   0  0  0  0  0  0  0  0  0  0  0  0
   40.0370   31.6280   40.9570 C   0  0  0  0  0  0  0  0  0  0  0  0
   38.8320   31.1190   40.6250 N   0  0  0  0  0  0  0  0  0  0  0  0
   39.4770   34.8600   40.2250 H   0  0  0  0  0  0  0  0  0  0  0  0
   40.8820   31.0480   41.3460 H   0  0  0  0  0  0  0  0  0  0  0  0
   36.5900   31.2640   39.8260 C   0  0  0  0  0  3  0  0  0  0  0  0
   36.8010   30.5590   38.5250 C   0  0  0  0  0  2  0  0  0  0  0  0
   35.7360   29.5690   38.1770 C   0  0  0  0  0  2  0  0  0  0  0  0
   35.7020   28.5590   39.2970 C   0  0  0  0  0  2  0  0  0  0  0  0
   35.4170   29.1690   40.6330 C   0  0  0  0  0  2  0  0  0  0  0  0
   36.1260   30.4220   40.9510 C   0  0  0  0  0  2  0  0  0  0  0  0
   37.0080   34.0780   39.5020 N   0  0  0  0  0  0  0  0  0  0  0  0
   36.4530   34.2690   40.3680 H   0  0  0  0  0  0  0  0  0  0  0  0
   36.7750   34.3970   38.5200 H   0  0  0  0  0  0  0  0  0  0  0  0
  1  6  1  0  0  0  0
  2  1  2  0  0  0  0
  2  3  1  0  0  0  0
  3  4  2  0  0  0  0
  4  5  1  0  0  0  0
  5  8  1  0  0  0  0
  6  5  2  0  0  0  0
  7  3  1  0  0  0  0
  9  1  1  0  0  0  0
  9 14  1  0  0  0  0
 10  9  1  0  0  0  0
 11 10  1  0  0  0  0
 11 12  1  0  0  0  0
 12 13  1  0  0  0  0
 13 14  1  0  0  0  0
 15  2  1  0  0  0  0
 15 16  1  0  0  0  0
 17 15  1  0  0  0  0
M  END
>  <minimizedAffinity>
-4.54915857

$$$$

 OpenBabel03252501313D

 17 18  0  0  0  0  0  0  0  0999 V2000
   37.3040   29.8720   40.1670 C   0  0  0  0  0  0  0  0  0  0  0  0
   36.9820   31.1360   39.6720 C   0  0  0  0  0  0  0  0  0  0  0  0
   37.0810   31.3460   38.3010 C   0  0  0  0  0  0  0  0  0  0  0  0
   37.4850   30.3120   37.5210 N   0  0  0  0  0  0  0  0  0  0  0  0
   37.7890   29.1010   38.0260 C   0  0  0  0  0  0  0  0  0  0  0  0
   37.7000   28.8750   39.3540 N   0  0  0  0  0  0  0  0  0  0  0  0
   36.8290   32.3210   37.9610 H   0  0  0  0  0  0  0  0  0  0  0  0
   38.1000   28.3610   37.2800 H   0  0  0  0  0  0  0  0  0  0  0  0
   37.2440   29.5010   41.6090 C   0  0  0  0  0  3  0  0  0  0  0  0
   36.4430   28.2430   41.6950 C   0  0  0  0  0  2  0  0  0  0  0  0
   36.5290   27.5420   43.0130 C   0  0  0  0  0  2  0  0  0  0  0  0
   37.9870   27.2260   43.2390 C   0  0  0  0  0  2  0  0  0  0  0  0
   38.8590   28.4420   43.2480 C   0  0  0  0  0  2  0  0  0  0  0  0
   38.5990   29.4480   42.2020 C   0  0  0  0  0  2  0  0  0  0  0  0
   36.5760   32.1080   40.6300 N   0  0  0  0  0  0  0  0  0  0  0  0
   37.4940   32.4790   40.9690 H   0  0  0  0  0  0  0  0  0  0  0  0
   35.6140   32.4120   40.9520 H   0  0  0  0  0  0  0  0  0  0  0  0
  1  9  1  0  0  0  0
  2  1  1  0  0  0  0
  2 15  1  0  0  0  0
  3  2  2  0  0  0  0
  4  5  2  0  0  0  0
  4  3  1  0  0  0  0
  5  6  1  0  0  0  0
  6  1  2  0  0  0  0
  7  3  1  0  0  0  0
  8  5  1  0  0  0  0
  9 10  1  0  0  0  0
  9 14  1  0  0  0  0
 10 11  1  0  0  0  0
 11 12  1  0  0  0  0
 12 13  1  0  0  0  0
 14 13  1  0  0  0  0
 15 17  1  0  0  0  0
 15 16  1  0  0  0  0
M  END
>  <minimizedAffinity>
-4.41483688

$$$$

 OpenBabel03252501313D

 17 18  0  0  0  0  0  0  0  0999 V2000
   37.9960   27.9990   41.7720 C   0  0  0  0  0  0  0  0  0  0  0  0
   37.6300   29.2170   42.3490 C   0  0  0  0  0  0  0  0  0  0  0  0
   37.8040   30.3740   41.5990 C   0  0  0  0  0  0  0  0  0  0  0  0
   38.3200   30.2580   40.3490 N   0  0  0  0  0  0  0  0  0  0  0  0
   38.6650   29.0690   39.8170 C   0  0  0  0  0  0  0  0  0  0  0  0
   38.5040   27.9330   40.5270 N   0  0  0  0  0  0  0  0  0  0  0  0
   37.5150   31.2810   42.0710 H   0  0  0  0  0  0  0  0  0  0  0  0
   39.0690   29.1250   38.7990 H   0  0  0  0  0  0  0  0  0  0  0  0
   37.8660   26.6810   42.4540 C   0  0  0  0  0  3  0  0  0  0  0  0
   37.1310   25.7820   41.5130 C   0  0  0  0  0  2  0  0  0  0  0  0
   37.1730   24.3340   41.8800 C   0  0  0  0  0  2  0  0  0  0  0  0
   38.6290   23.9400   41.9190 C   0  0  0  0  0  2  0  0  0  0  0  0
   39.4300   24.7390   42.8970 C   0  0  0  0  0  2  0  0  0  0  0  0
   39.1820   26.1920   42.9230 C   0  0  0  0  0  2  0  0  0  0  0  0
   37.1040   29.1590   43.6710 N   0  0  0  0  0  0  0  0  0  0  0  0
   37.9730   29.1500   44.2530 H   0  0  0  0  0  0  0  0  0  0  0  0
   36.1070   29.1310   44.0240 H   0  0  0  0  0  0  0  0  0  0  0  0
  1  2  1  0  0  0  0
  1  9  1  0  0  0  0
  2 15  1  0  0  0  0
  3  7  1  0  0  0  0
  3  2  2  0  0  0  0
  4  3  1  0  0  0  0
  5  4  2  0  0  0  0
  5  6  1  0  0  0  0
  6  1  2  0  0  0  0
  8  5  1  0  0  0  0
  9 14  1  0  0  0  0
 10 11  1  0  0  0  0
 10  9  1  0  0  0  0
 11 12  1  0  0  0  0
 12 13  1  0  0  0  0
 13 14  1  0  0  0  0
 15 17  1  0  0  0  0
 15 16  1  0  0  0  0
M  END
>  <minimizedAffinity>
-4.35287619

$$$$

 OpenBabel03252501313D

 17 18  0  0  0  0  0  0  0  0999 V2000
   36.4060   30.3100   39.1340 C   0  0  0  0  0  0  0  0  0  0  0  0
   36.4870   31.1920   40.2130 C   0  0  0  0  0  0  0  0  0  0  0  0
   37.3090   32.3060   40.0860 C   0  0  0  0  0  0  0  0  0  0  0  0
   37.9870   32.4750   38.9230 N   0  0  0  0  0  0  0  0  0  0  0  0
   37.8900   31.6080   37.8960 C   0  0  0  0  0  0  0  0  0  0  0  0
   37.0980   30.5190   37.9980 N   0  0  0  0  0  0  0  0  0  0  0  0
   37.3460   32.9540   40.9270 H   0  0  0  0  0  0  0  0  0  0  0  0
   38.4930   31.8700   37.0190 H   0  0  0  0  0  0  0  0  0  0  0  0
   35.5690   29.0780   39.1260 C   0  0  0  0  0  3  0  0  0  0  0  0
   34.7730   29.1100   37.8610 C   0  0  0  0  0  2  0  0  0  0  0  0
   34.1060   27.8170   37.5160 C   0  0  0  0  0  2  0  0  0  0  0  0
   35.2000   26.7850   37.3960 C   0  0  0  0  0  2  0  0  0  0  0  0
   36.0020   26.6290   38.6490 C   0  0  0  0  0  2  0  0  0  0  0  0
   36.3960   27.8700   39.3400 C   0  0  0  0  0  2  0  0  0  0  0  0
   35.7100   30.8640   41.3600 N   0  0  0  0  0  0  0  0  0  0  0  0
   36.3350   30.1950   41.8650 H   0  0  0  0  0  0  0  0  0  0  0  0
   34.7480   31.1850   41.6650 H   0  0  0  0  0  0  0  0  0  0  0  0
  1  2  1  0  0  0  0
  2 15  1  0  0  0  0
  3  2  2  0  0  0  0
  3  7  1  0  0  0  0
  4  3  1  0  0  0  0
  5  6  1  0  0  0  0
  5  4  2  0  0  0  0
  6  1  2  0  0  0  0
  8  5  1  0  0  0  0
  9  1  1  0  0  0  0
  9 14  1  0  0  0  0
 10  9  1  0  0  0  0
 11 10  1  0  0  0  0
 12 11  1  0  0  0  0
 12 13  1  0  0  0  0
 13 14  1  0  0  0  0
 15 17  1  0  0  0  0
 15 16  1  0  0  0  0
M  END
>  <minimizedAffinity>
-4.28935671

$$$$

 OpenBabel03252501313D

 17 18  0  0  0  0  0  0  0  0999 V2000
   36.5400   30.4540   39.0060 C   0  0  0  0  0  0  0  0  0  0  0  0
   35.6900   30.1820   40.0790 C   0  0  0  0  0  0  0  0  0  0  0  0
   34.6790   29.2480   39.8910 C   0  0  0  0  0  0  0  0  0  0  0  0
   34.5720   28.6530   38.6770 N   0  0  0  0  0  0  0  0  0  0  0  0
   35.4070   28.9340   37.6570 C   0  0  0  0  0  0  0  0  0  0  0  0
   36.3960   29.8380   37.8180 N   0  0  0  0  0  0  0  0  0  0  0  0
   34.0510   29.0680   40.7300 H   0  0  0  0  0  0  0  0  0  0  0  0
   35.2040   28.3780   36.7350 H   0  0  0  0  0  0  0  0  0  0  0  0
   37.6660   31.4290   39.0600 C   0  0  0  0  0  3  0  0  0  0  0  0
   37.0690   32.7530   39.4160 C   0  0  0  0  0  2  0  0  0  0  0  0
   38.0640   33.7910   39.8240 C   0  0  0  0  0  2  0  0  0  0  0  0
   38.8050   33.2370   41.0150 C   0  0  0  0  0  2  0  0  0  0  0  0
   39.5020   31.9450   40.7260 C   0  0  0  0  0  2  0  0  0  0  0  0
   38.7470   30.9470   39.9480 C   0  0  0  0  0  2  0  0  0  0  0  0
   35.9420   30.8980   41.2850 N   0  0  0  0  0  0  0  0  0  0  0  0
   35.4350   31.7970   41.1160 H   0  0  0  0  0  0  0  0  0  0  0  0
   36.4910   30.6340   42.1500 H   0  0  0  0  0  0  0  0  0  0  0  0
  1  9  1  0  0  0  0
  1  2  1  0  0  0  0
  2 15  1  0  0  0  0
  3  2  2  0  0  0  0
  3  7  1  0  0  0  0
  4  3  1  0  0  0  0
  5  6  1  0  0  0  0
  5  4  2  0  0  0  0
  6  1  2  0  0  0  0
  8  5  1  0  0  0  0
  9 10  1  0  0  0  0
  9 14  1  0  0  0  0
 10 11  1  0  0  0  0
 11 12  1  0  0  0  0
 13 12  1  0  0  0  0
 14 13  1  0  0  0  0
 15 17  1  0  0  0  0
 16 15  1  0  0  0  0
M  END
>  <minimizedAffinity>
-4.28093672

$$$$

 OpenBabel03252501313D

 17 18  0  0  0  0  0  0  0  0999 V2000
   38.4520   30.6240   41.3730 C   0  0  0  0  0  0  0  0  0  0  0  0
   39.3050   31.7080   41.5830 C   0  0  0  0  0  0  0  0  0  0  0  0
   38.9860   32.9180   40.9770 C   0  0  0  0  0  0  0  0  0  0  0  0
   37.8650   32.9790   40.2160 N   0  0  0  0  0  0  0  0  0  0  0  0
   37.0590   31.9160   40.0300 C   0  0  0  0  0  0  0  0  0  0  0  0
   37.3490   30.7320   40.6090 N   0  0  0  0  0  0  0  0  0  0  0  0
   39.6590   33.7200   41.1600 H   0  0  0  0  0  0  0  0  0  0  0  0
   36.1890   32.1100   39.3910 H   0  0  0  0  0  0  0  0  0  0  0  0
   38.6650   29.2690   41.9570 C   0  0  0  0  0  3  0  0  0  0  0  0
   37.7620   29.1670   43.1430 C   0  0  0  0  0  2  0  0  0  0  0  0
   37.5970   27.7810   43.6790 C   0  0  0  0  0  2  0  0  0  0  0  0
   37.0440   26.9450   42.5510 C   0  0  0  0  0  2  0  0  0  0  0  0
   37.9270   26.9260   41.3440 C   0  0  0  0  0  2  0  0  0  0  0  0
   38.5070   28.2150   40.9300 C   0  0  0  0  0  2  0  0  0  0  0  0
   40.4400   31.4710   42.4110 N   0  0  0  0  0  0  0  0  0  0  0  0
   41.1260   31.0670   41.7320 H   0  0  0  0  0  0  0  0  0  0  0  0
   40.5970   31.6390   43.4440 H   0  0  0  0  0  0  0  0  0  0  0  0
  1  2  1  0  0  0  0
  1  9  1  0  0  0  0
  2 15  1  0  0  0  0
  3  7  1  0  0  0  0
  3  2  2  0  0  0  0
  4  3  1  0  0  0  0
  5  4  2  0  0  0  0
  5  6  1  0  0  0  0
  6  1  2  0  0  0  0
  8  5  1  0  0  0  0
  9 10  1  0  0  0  0
 10 11  1  0  0  0  0
 12 11  1  0  0  0  0
 13 12  1  0  0  0  0
 14 13  1  0  0  0  0
 14  9  1  0  0  0  0
 15 17  1  0  0  0  0
 16 15  1  0  0  0  0
M  END
>  <minimizedAffinity>
-4.25253344

$$$$

 OpenBabel03252501313D

 17 18  0  0  0  0  0  0  0  0999 V2000
   37.6320   28.1900   41.5610 C   0  0  0  0  0  0  0  0  0  0  0  0
   37.8670   28.1900   42.9370 C   0  0  0  0  0  0  0  0  0  0  0  0
   38.6410   27.1650   43.4670 C   0  0  0  0  0  0  0  0  0  0  0  0
   39.1250   26.2210   42.6210 N   0  0  0  0  0  0  0  0  0  0  0  0
   38.8830   26.2450   41.2960 C   0  0  0  0  0  0  0  0  0  0  0  0
   38.1330   27.2310   40.7590 N   0  0  0  0  0  0  0  0  0  0  0  0
   38.7980   27.1980   44.5180 H   0  0  0  0  0  0  0  0  0  0  0  0
   39.3370   25.4210   40.7340 H   0  0  0  0  0  0  0  0  0  0  0  0
   36.8230   29.2220   40.8530 C   0  0  0  0  0  3  0  0  0  0  0  0
   37.5630   29.5610   39.6000 C   0  0  0  0  0  2  0  0  0  0  0  0
   36.7690   30.3430   38.6040 C   0  0  0  0  0  2  0  0  0  0  0  0
   35.5600   29.5070   38.2630 C   0  0  0  0  0  2  0  0  0  0  0  0
   34.7130   29.1840   39.4530 C   0  0  0  0  0  2  0  0  0  0  0  0
   35.4230   28.7730   40.6770 C   0  0  0  0  0  2  0  0  0  0  0  0
   37.2830   29.2550   43.6800 N   0  0  0  0  0  0  0  0  0  0  0  0
   36.3140   28.9000   43.8500 H   0  0  0  0  0  0  0  0  0  0  0  0
   37.6820   30.1820   44.0000 H   0  0  0  0  0  0  0  0  0  0  0  0
  1  2  1  0  0  0  0
  2  3  2  0  0  0  0
  2 15  1  0  0  0  0
  3  7  1  0  0  0  0
  4  3  1  0  0  0  0
  5  4  2  0  0  0  0
  6  5  1  0  0  0  0
  6  1  2  0  0  0  0
  8  5  1  0  0  0  0
  9  1  1  0  0  0  0
 10  9  1  0  0  0  0
 11 10  1  0  0  0  0
 12 11  1  0  0  0  0
 12 13  1  0  0  0  0
 13 14  1  0  0  0  0
 14  9  1  0  0  0  0
 15 16  1  0  0  0  0
 15 17  1  0  0  0  0
M  END
>  <minimizedAffinity>
-4.2252574

$$$$

 OpenBabel03252501313D

 17 18  0  0  0  0  0  0  0  0999 V2000
   38.1440   27.9470   41.9390 C   0  0  0  0  0  0  0  0  0  0  0  0
   37.9070   29.2930   42.2200 C   0  0  0  0  0  0  0  0  0  0  0  0
   38.9890   30.0840   42.5890 C   0  0  0  0  0  0  0  0  0  0  0  0
   40.2140   29.5060   42.6550 N   0  0  0  0  0  0  0  0  0  0  0  0
   40.4150   28.2030   42.3780 C   0  0  0  0  0  0  0  0  0  0  0  0
   39.3790   27.4160   42.0180 N   0  0  0  0  0  0  0  0  0  0  0  0
   38.7700   31.1030   42.7950 H   0  0  0  0  0  0  0  0  0  0  0  0
   41.4560   27.8720   42.4720 H   0  0  0  0  0  0  0  0  0  0  0  0
   37.0850   26.9800   41.5320 C   0  0  0  0  0  3  0  0  0  0  0  0
   37.2290   26.7830   40.0580 C   0  0  0  0  0  2  0  0  0  0  0  0
   36.4650   25.6200   39.5110 C   0  0  0  0  0  2  0  0  0  0  0  0
   36.9680   24.3950   40.2340 C   0  0  0  0  0  2  0  0  0  0  0  0
   36.7910   24.4720   41.7170 C   0  0  0  0  0  2  0  0  0  0  0  0
   37.1370   25.7530   42.3580 C   0  0  0  0  0  2  0  0  0  0  0  0
   36.5590   29.7370   42.1020 N   0  0  0  0  0  0  0  0  0  0  0  0
   36.1590   29.4770   43.0330 H   0  0  0  0  0  0  0  0  0  0  0  0
   36.0480   30.2110   41.3050 H   0  0  0  0  0  0  0  0  0  0  0  0
  1  6  2  0  0  0  0
  1  2  1  0  0  0  0
  2  3  2  0  0  0  0
  3  4  1  0  0  0  0
  3  7  1  0  0  0  0
  5  8  1  0  0  0  0
  5  4  2  0  0  0  0
  6  5  1  0  0  0  0
  9  1  1  0  0  0  0
  9 14  1  0  0  0  0
 10  9  1  0  0  0  0
 11 10  1  0  0  0  0
 11 12  1  0  0  0  0
 12 13  1  0  0  0  0
 13 14  1  0  0  0  0
 15  2  1  0  0  0  0
 15 16  1  0  0  0  0
 17 15  1  0  0  0  0
M  END
>  <minimizedAffinity>
-4.12845659

$$$$
