
 OpenBabel03252503413D

 18 19  0  0  0  0  0  0  0  0999 V2000
   44.6370   35.4110   45.1160 C   0  0  0  0  0  0  0  0  0  0  0  0
   45.3470   35.2310   43.9220 C   0  0  0  0  0  0  0  0  0  0  0  0
   46.2370   34.1470   43.8360 C   0  0  0  0  0  0  0  0  0  0  0  0
   46.3570   33.3430   44.9100 N   0  0  0  0  0  0  0  0  0  0  0  0
   45.6540   33.5430   46.0570 C   0  0  0  0  0  0  0  0  0  0  0  0
   44.7790   34.5890   46.1700 N   0  0  0  0  0  0  0  0  0  0  0  0
   43.9240   36.2020   45.3100 H   0  0  0  0  0  0  0  0  0  0  0  0
   46.7520   34.0520   42.9110 H   0  0  0  0  0  0  0  0  0  0  0  0
   45.8820   32.5880   47.1500 C   0  0  0  0  0  3  0  0  0  0  0  0
   47.2220   32.6500   47.7900 C   0  0  0  0  0  2  0  0  0  0  0  0
   47.9200   31.3170   47.8970 C   0  0  0  0  0  2  0  0  0  0  0  0
   47.0550   30.1860   48.3350 C   0  0  0  0  0  2  0  0  0  0  0  0
   45.6410   30.2710   47.7990 C   0  0  0  0  0  2  0  0  0  0  0  0
   45.7120   31.1750   46.5860 C   0  0  0  0  0  2  0  0  0  0  0  0
   45.0720   36.2240   42.8630 C   0  0  0  0  0  0  0  0  0  0  0  0
   45.7020   35.9660   41.9980 H   0  0  0  0  0  0  0  0  0  0  0  0
   43.9870   36.1710   42.6400 H   0  0  0  0  0  0  0  0  0  0  0  0
   45.3880   37.2150   43.2540 H   0  0  0  0  0  0  0  0  0  0  0  0
  1  7  1  0  0  0  0
  1  6  1  0  0  0  0
  2  1  2  0  0  0  0
  3  2  1  0  0  0  0
  3  4  2  0  0  0  0
  4  5  1  0  0  0  0
  5  6  2  0  0  0  0
  5  9  1  0  0  0  0
  8  3  1  0  0  0  0
  9 10  1  0  0  0  0
 10 11  1  0  0  0  0
 11 12  1  0  0  0  0
 13 12  1  0  0  0  0
 14  9  1  0  0  0  0
 14 13  1  0  0  0  0
 15 18  1  0  0  0  0
 15  2  1  0  0  0  0
 16 15  1  0  0  0  0
 17 15  1  0  0  0  0
M  END
>  <minimizedAffinity>
-4.28611422

>  <minimizedRMSD>
1.25882983

$$$$
