
 OpenBabel03252500593D

 35 37  0  0  0  0  0  0  0  0999 V2000
   35.8750   28.9690   39.8500 O   0  0  0  0  0  0  0  0  0  0  0  0
   36.5790   30.2220   40.3650 P   0  0  1  0  0  0  0  0  0  0  0  0
   35.5450   31.0070   41.4570 O   0  0  0  0  0  0  0  0  0  0  0  0
   34.9960   30.3150   41.9190 H   0  0  0  0  0  0  0  0  0  0  0  0
   37.9750   29.7770   41.2230 O   0  0  0  0  0  0  0  0  0  0  0  0
   38.5370   27.7650   42.3000 C   0  0  0  0  0  0  0  0  0  0  0  0
   38.6230   28.5540   41.1720 C   0  0  0  0  0  0  0  0  0  0  0  0
   39.3540   28.0530   40.0840 C   0  0  0  0  0  0  0  0  0  0  0  0
   39.9230   26.8340   40.2100 N   0  0  0  0  0  0  0  0  0  0  0  0
   39.8230   26.0980   41.3110 C   0  0  0  0  0  0  0  0  0  0  0  0
   39.1300   26.5660   42.3510 N   0  0  0  0  0  0  0  0  0  0  0  0
   39.3940   28.6920   39.2390 H   0  0  0  0  0  0  0  0  0  0  0  0
   40.3140   25.1230   41.3280 H   0  0  0  0  0  0  0  0  0  0  0  0
   37.7950   28.2190   43.4750 C   0  0  0  0  0  0  0  0  0  0  0  0
   37.5470   29.3020   43.4510 H   0  0  0  0  0  0  0  0  0  0  0  0
   38.3880   27.9680   44.3860 H   0  0  0  0  0  0  0  0  0  0  0  0
   36.5020   27.4600   43.5660 C   0  0  0  0  0  0  0  0  0  0  0  0
   35.9790   27.4790   42.5740 H   0  0  0  0  0  0  0  0  0  0  0  0
   36.7580   26.3810   43.7500 H   0  0  0  0  0  0  0  0  0  0  0  0
   35.8000   27.8460   44.3140 H   0  0  0  0  0  0  0  0  0  0  0  0
   36.8990   31.2930   39.0930 O   0  0  0  0  0  0  0  0  0  0  0  0
   37.9320   32.2070   39.2600 C   0  0  0  0  0  0  0  0  0  0  0  0
   37.6420   33.3780   39.9690 C   0  0  0  0  0  0  0  0  0  0  0  0
   38.6140   34.3480   40.1830 C   0  0  0  0  0  0  0  0  0  0  0  0
   39.8660   34.1380   39.6870 N   0  0  0  0  0  0  0  0  0  0  0  0
   40.1270   33.0150   39.0120 C   0  0  0  0  0  0  0  0  0  0  0  0
   39.1870   32.0950   38.8150 N   0  0  0  0  0  0  0  0  0  0  0  0
   36.6690   33.6010   40.3850 H   0  0  0  0  0  0  0  0  0  0  0  0
   38.3820   35.2570   40.7350 H   0  0  0  0  0  0  0  0  0  0  0  0
   41.4700   32.7400   38.4540 C   0  0  0  0  0  3  0  0  0  0  0  0
   42.1670   33.9760   37.9260 C   0  0  0  0  0  2  0  0  0  0  0  0
   43.6200   33.6030   37.7810 C   0  0  0  0  0  2  0  0  0  0  0  0
   43.8890   32.3400   37.0620 C   0  0  0  0  0  2  0  0  0  0  0  0
   42.8460   31.2880   37.0890 C   0  0  0  0  0  2  0  0  0  0  0  0
   41.4350   31.7840   37.2840 C   0  0  0  0  0  2  0  0  0  0  0  0
  2  1  2  6  0  0  0
  2  5  1  0  0  0  0
  2  3  1  0  0  0  0
  3  4  1  0  0  0  0
  6 11  1  0  0  0  0
  6 14  1  0  0  0  0
  7  5  1  0  0  0  0
  7  6  2  0  0  0  0
  8  9  2  0  0  0  0
  8  7  1  0  0  0  0
  9 10  1  0  0  0  0
 10 13  1  0  0  0  0
 10 11  2  0  0  0  0
 12  8  1  0  0  0  0
 14 17  1  0  0  0  0
 14 16  1  0  0  0  0
 15 14  1  0  0  0  0
 17 19  1  0  0  0  0
 17 20  1  0  0  0  0
 18 17  1  0  0  0  0
 21 22  1  0  0  0  0
 21  2  1  0  0  0  0
 22 23  1  0  0  0  0
 23 24  2  0  0  0  0
 23 28  1  0  0  0  0
 24 29  1  0  0  0  0
 25 24  1  0  0  0  0
 26 25  2  0  0  0  0
 27 26  1  0  0  0  0
 27 22  2  0  0  0  0
 30 26  1  0  0  0  0
 31 30  1  0  0  0  0
 32 31  1  0  0  0  0
 33 34  1  0  0  0  0
 33 32  1  0  0  0  0
 34 35  1  0  0  0  0
 35 30  1  0  0  0  0
M  END
>  <minimizedAffinity>
-5.78171968

$$$$

 OpenBabel03252500593D

 35 37  0  0  0  0  0  0  0  0999 V2000
   37.5090   31.7090   38.4540 O   0  0  0  0  0  0  0  0  0  0  0  0
   37.5020   32.3250   39.8510 P   0  0  1  0  0  0  0  0  0  0  0  0
   36.7790   33.8570   39.7570 O   0  0  0  0  0  0  0  0  0  0  0  0
   36.0910   33.8340   39.0370 H   0  0  0  0  0  0  0  0  0  0  0  0
   36.5430   31.3770   40.8840 O   0  0  0  0  0  0  0  0  0  0  0  0
   36.0570   29.0810   40.9950 C   0  0  0  0  0  0  0  0  0  0  0  0
   36.8600   30.1290   41.3950 C   0  0  0  0  0  0  0  0  0  0  0  0
   37.9140   29.8420   42.2750 C   0  0  0  0  0  0  0  0  0  0  0  0
   38.0760   28.5610   42.6730 N   0  0  0  0  0  0  0  0  0  0  0  0
   37.2860   27.5720   42.2710 C   0  0  0  0  0  0  0  0  0  0  0  0
   36.2810   27.8350   41.4340 N   0  0  0  0  0  0  0  0  0  0  0  0
   38.5040   30.6780   42.5550 H   0  0  0  0  0  0  0  0  0  0  0  0
   37.4890   26.5650   42.6410 H   0  0  0  0  0  0  0  0  0  0  0  0
   34.9380   29.3010   40.0810 C   0  0  0  0  0  0  0  0  0  0  0  0
   34.6150   30.3620   40.0250 H   0  0  0  0  0  0  0  0  0  0  0  0
   34.0920   28.6440   40.3940 H   0  0  0  0  0  0  0  0  0  0  0  0
   35.3390   28.8750   38.6980 C   0  0  0  0  0  0  0  0  0  0  0  0
   36.3310   29.3280   38.4330 H   0  0  0  0  0  0  0  0  0  0  0  0
   35.5140   27.7650   38.7240 H   0  0  0  0  0  0  0  0  0  0  0  0
   34.6310   29.1580   37.9110 H   0  0  0  0  0  0  0  0  0  0  0  0
   39.0820   32.5300   40.4220 O   0  0  0  0  0  0  0  0  0  0  0  0
   40.0900   32.7220   39.4850 C   0  0  0  0  0  0  0  0  0  0  0  0
   40.6190   34.0120   39.3700 C   0  0  0  0  0  0  0  0  0  0  0  0
   41.6290   34.2960   38.4590 C   0  0  0  0  0  0  0  0  0  0  0  0
   42.1010   33.2870   37.6730 N   0  0  0  0  0  0  0  0  0  0  0  0
   41.5850   32.0610   37.7950 C   0  0  0  0  0  0  0  0  0  0  0  0
   40.6190   31.8040   38.6710 N   0  0  0  0  0  0  0  0  0  0  0  0
   40.2870   34.8520   39.9640 H   0  0  0  0  0  0  0  0  0  0  0  0
   42.0370   35.3010   38.3740 H   0  0  0  0  0  0  0  0  0  0  0  0
   42.0630   30.9330   36.9650 C   0  0  0  0  0  3  0  0  0  0  0  0
   42.0120   29.5970   37.6760 C   0  0  0  0  0  2  0  0  0  0  0  0
   42.1350   28.5480   36.6020 C   0  0  0  0  0  2  0  0  0  0  0  0
   43.2450   28.7400   35.6430 C   0  0  0  0  0  2  0  0  0  0  0  0
   43.7240   30.1210   35.4000 C   0  0  0  0  0  2  0  0  0  0  0  0
   43.5040   31.0890   36.5360 C   0  0  0  0  0  2  0  0  0  0  0  0
  2  1  2  6  0  0  0
  2 21  1  0  0  0  0
  2  5  1  0  0  0  0
  3  2  1  0  0  0  0
  4  3  1  0  0  0  0
  5  7  1  0  0  0  0
  6  7  2  0  0  0  0
  6 11  1  0  0  0  0
  7  8  1  0  0  0  0
  8 12  1  0  0  0  0
  8  9  2  0  0  0  0
 10 13  1  0  0  0  0
 10  9  1  0  0  0  0
 11 10  2  0  0  0  0
 14 16  1  0  0  0  0
 14  6  1  0  0  0  0
 15 14  1  0  0  0  0
 17 19  1  0  0  0  0
 17 14  1  0  0  0  0
 18 17  1  0  0  0  0
 20 17  1  0  0  0  0
 22 21  1  0  0  0  0
 23 22  1  0  0  0  0
 23 28  1  0  0  0  0
 24 23  2  0  0  0  0
 25 26  2  0  0  0  0
 25 24  1  0  0  0  0
 26 27  1  0  0  0  0
 27 22  2  0  0  0  0
 29 24  1  0  0  0  0
 30 31  1  0  0  0  0
 30 26  1  0  0  0  0
 32 31  1  0  0  0  0
 33 32  1  0  0  0  0
 34 33  1  0  0  0  0
 34 35  1  0  0  0  0
 35 30  1  0  0  0  0
M  END
>  <minimizedAffinity>
-5.69009495

$$$$

 OpenBabel03252500593D

 35 37  0  0  0  0  0  0  0  0999 V2000
   38.4700   30.5490   42.0550 O   0  0  0  0  0  0  0  0  0  0  0  0
   37.2760   29.6250   41.8280 P   0  0  1  0  0  0  0  0  0  0  0  0
   35.8670   30.5700   41.7930 O   0  0  0  0  0  0  0  0  0  0  0  0
   36.0980   31.4620   41.4150 H   0  0  0  0  0  0  0  0  0  0  0  0
   37.4190   28.8770   40.3100 O   0  0  0  0  0  0  0  0  0  0  0  0
   36.3270   29.2170   38.2570 C   0  0  0  0  0  0  0  0  0  0  0  0
   37.4020   29.5010   39.0740 C   0  0  0  0  0  0  0  0  0  0  0  0
   38.3730   30.3880   38.5850 C   0  0  0  0  0  0  0  0  0  0  0  0
   38.1940   30.9060   37.3500 N   0  0  0  0  0  0  0  0  0  0  0  0
   37.1480   30.6120   36.5860 C   0  0  0  0  0  0  0  0  0  0  0  0
   36.2190   29.7700   37.0430 N   0  0  0  0  0  0  0  0  0  0  0  0
   39.1810   30.5760   39.2460 H   0  0  0  0  0  0  0  0  0  0  0  0
   37.0810   31.0770   35.6000 H   0  0  0  0  0  0  0  0  0  0  0  0
   35.2750   28.3020   38.6960 C   0  0  0  0  0  0  0  0  0  0  0  0
   34.2830   28.7890   38.8040 H   0  0  0  0  0  0  0  0  0  0  0  0
   35.5940   27.8320   39.6560 H   0  0  0  0  0  0  0  0  0  0  0  0
   35.1300   27.1970   37.6890 C   0  0  0  0  0  0  0  0  0  0  0  0
   35.0540   27.6300   36.6570 H   0  0  0  0  0  0  0  0  0  0  0  0
   36.0880   26.6070   37.6960 H   0  0  0  0  0  0  0  0  0  0  0  0
   34.2550   26.5560   37.8400 H   0  0  0  0  0  0  0  0  0  0  0  0
   37.1270   28.5170   43.0990 O   0  0  0  0  0  0  0  0  0  0  0  0
   37.7640   27.2890   42.9660 C   0  0  0  0  0  0  0  0  0  0  0  0
   38.9540   27.1060   43.6800 C   0  0  0  0  0  0  0  0  0  0  0  0
   39.6590   25.9100   43.6060 C   0  0  0  0  0  0  0  0  0  0  0  0
   39.1670   24.9100   42.8210 N   0  0  0  0  0  0  0  0  0  0  0  0
   38.0300   25.1010   42.1460 C   0  0  0  0  0  0  0  0  0  0  0  0
   37.3660   26.2510   42.2260 N   0  0  0  0  0  0  0  0  0  0  0  0
   39.3930   27.8600   44.3170 H   0  0  0  0  0  0  0  0  0  0  0  0
   40.5830   25.7730   44.1630 H   0  0  0  0  0  0  0  0  0  0  0  0
   37.4550   24.0470   41.2810 C   0  0  0  0  0  3  0  0  0  0  0  0
   38.5010   23.1900   40.6000 C   0  0  0  0  0  2  0  0  0  0  0  0
   37.7780   21.9630   40.1090 C   0  0  0  0  0  2  0  0  0  0  0  0
   36.5350   22.2130   39.3460 C   0  0  0  0  0  2  0  0  0  0  0  0
   35.7880   23.4610   39.6250 C   0  0  0  0  0  2  0  0  0  0  0  0
   36.6170   24.6050   40.1540 C   0  0  0  0  0  2  0  0  0  0  0  0
  2  1  2  1  0  0  0
  2 21  1  0  0  0  0
  3  2  1  0  0  0  0
  4  3  1  0  0  0  0
  5  2  1  0  0  0  0
  6 14  1  0  0  0  0
  6  7  1  0  0  0  0
  7  5  1  0  0  0  0
  8  7  2  0  0  0  0
  8 12  1  0  0  0  0
  9  8  1  0  0  0  0
 10 11  1  0  0  0  0
 10  9  2  0  0  0  0
 11  6  2  0  0  0  0
 13 10  1  0  0  0  0
 14 15  1  0  0  0  0
 14 16  1  0  0  0  0
 17 19  1  0  0  0  0
 17 20  1  0  0  0  0
 17 14  1  0  0  0  0
 18 17  1  0  0  0  0
 22 21  1  0  0  0  0
 22 23  1  0  0  0  0
 23 28  1  0  0  0  0
 24 23  2  0  0  0  0
 24 29  1  0  0  0  0
 25 24  1  0  0  0  0
 26 27  1  0  0  0  0
 26 25  2  0  0  0  0
 27 22  2  0  0  0  0
 30 26  1  0  0  0  0
 31 30  1  0  0  0  0
 32 31  1  0  0  0  0
 33 34  1  0  0  0  0
 33 32  1  0  0  0  0
 34 35  1  0  0  0  0
 35 30  1  0  0  0  0
M  END
>  <minimizedAffinity>
-5.57124758

$$$$

 OpenBabel03252500593D

 35 37  0  0  0  0  0  0  0  0999 V2000
   37.5740   32.5730   38.7120 O   0  0  0  0  0  0  0  0  0  0  0  0
   38.3180   31.5820   37.8200 P   0  0  1  0  0  0  0  0  0  0  0  0
   38.4440   32.2510   36.2660 O   0  0  0  0  0  0  0  0  0  0  0  0
   38.5080   33.2410   36.3560 H   0  0  0  0  0  0  0  0  0  0  0  0
   39.8960   31.3660   38.4070 O   0  0  0  0  0  0  0  0  0  0  0  0
   40.8870   32.0790   40.4150 C   0  0  0  0  0  0  0  0  0  0  0  0
   40.6690   32.3040   39.0710 C   0  0  0  0  0  0  0  0  0  0  0  0
   41.2420   33.4520   38.5030 C   0  0  0  0  0  0  0  0  0  0  0  0
   41.9690   34.2600   39.3050 N   0  0  0  0  0  0  0  0  0  0  0  0
   42.1610   34.0170   40.5960 C   0  0  0  0  0  0  0  0  0  0  0  0
   41.6200   32.9280   41.1460 N   0  0  0  0  0  0  0  0  0  0  0  0
   41.0480   33.5840   37.4690 H   0  0  0  0  0  0  0  0  0  0  0  0
   42.7630   34.7230   41.1720 H   0  0  0  0  0  0  0  0  0  0  0  0
   40.3210   30.9060   41.0790 C   0  0  0  0  0  0  0  0  0  0  0  0
   40.7290   29.9450   40.7010 H   0  0  0  0  0  0  0  0  0  0  0  0
   39.2110   30.9380   40.9670 H   0  0  0  0  0  0  0  0  0  0  0  0
   40.6190   30.9790   42.5490 C   0  0  0  0  0  0  0  0  0  0  0  0
   41.7080   31.1990   42.7060 H   0  0  0  0  0  0  0  0  0  0  0  0
   40.0710   31.8710   42.9600 H   0  0  0  0  0  0  0  0  0  0  0  0
   40.3860   30.0650   43.1060 H   0  0  0  0  0  0  0  0  0  0  0  0
   37.4570   30.1300   37.6920 O   0  0  0  0  0  0  0  0  0  0  0  0
   37.0260   29.5260   38.8670 C   0  0  0  0  0  0  0  0  0  0  0  0
   35.6830   29.7010   39.2200 C   0  0  0  0  0  0  0  0  0  0  0  0
   35.1660   29.1340   40.3790 C   0  0  0  0  0  0  0  0  0  0  0  0
   35.9950   28.3960   41.1710 N   0  0  0  0  0  0  0  0  0  0  0  0
   37.2740   28.2390   40.8190 C   0  0  0  0  0  0  0  0  0  0  0  0
   37.7550   28.7870   39.7070 N   0  0  0  0  0  0  0  0  0  0  0  0
   34.9790   30.2740   38.6350 H   0  0  0  0  0  0  0  0  0  0  0  0
   34.1210   29.2740   40.6500 H   0  0  0  0  0  0  0  0  0  0  0  0
   38.2130   27.4480   41.6440 C   0  0  0  0  0  3  0  0  0  0  0  0
   37.7560   26.0240   41.8800 C   0  0  0  0  0  2  0  0  0  0  0  0
   38.9690   25.2730   42.3660 C   0  0  0  0  0  2  0  0  0  0  0  0
   39.7210   25.9120   43.4670 C   0  0  0  0  0  2  0  0  0  0  0  0
   39.6550   27.3870   43.5900 C   0  0  0  0  0  2  0  0  0  0  0  0
   38.4100   28.0260   43.0270 C   0  0  0  0  0  2  0  0  0  0  0  0
  2  5  1  0  0  0  0
  2  1  2  1  0  0  0
  3  4  1  0  0  0  0
  3  2  1  0  0  0  0
  5  7  1  0  0  0  0
  6 14  1  0  0  0  0
  6 11  1  0  0  0  0
  7  6  2  0  0  0  0
  8  7  1  0  0  0  0
  8  9  2  0  0  0  0
  9 10  1  0  0  0  0
 10 11  2  0  0  0  0
 10 13  1  0  0  0  0
 12  8  1  0  0  0  0
 14 17  1  0  0  0  0
 15 14  1  0  0  0  0
 16 14  1  0  0  0  0
 17 18  1  0  0  0  0
 17 19  1  0  0  0  0
 17 20  1  0  0  0  0
 21  2  1  0  0  0  0
 21 22  1  0  0  0  0
 22 23  2  0  0  0  0
 22 27  1  0  0  0  0
 23 24  1  0  0  0  0
 24 29  1  0  0  0  0
 24 25  2  0  0  0  0
 26 25  1  0  0  0  0
 26 30  1  0  0  0  0
 27 26  2  0  0  0  0
 28 23  1  0  0  0  0
 30 31  1  0  0  0  0
 30 35  1  0  0  0  0
 31 32  1  0  0  0  0
 32 33  1  0  0  0  0
 33 34  1  0  0  0  0
 35 34  1  0  0  0  0
M  END
>  <minimizedAffinity>
-5.52884245

$$$$

 OpenBabel03252500593D

 35 37  0  0  0  0  0  0  0  0999 V2000
   40.5930   31.6780   38.9270 O   0  0  0  0  0  0  0  0  0  0  0  0
   39.6930   32.6910   39.6310 P   0  0  1  0  0  0  0  0  0  0  0  0
   40.1870   34.2510   39.1800 O   0  0  0  0  0  0  0  0  0  0  0  0
   40.5400   34.2090   38.2490 H   0  0  0  0  0  0  0  0  0  0  0  0
   38.0930   32.4950   39.0980 O   0  0  0  0  0  0  0  0  0  0  0  0
   36.8640   30.5790   38.5120 C   0  0  0  0  0  0  0  0  0  0  0  0
   37.2090   31.5000   39.4800 C   0  0  0  0  0  0  0  0  0  0  0  0
   36.6380   31.3480   40.7530 C   0  0  0  0  0  0  0  0  0  0  0  0
   35.7920   30.3140   40.9490 N   0  0  0  0  0  0  0  0  0  0  0  0
   35.4790   29.4440   39.9970 C   0  0  0  0  0  0  0  0  0  0  0  0
   36.0160   29.5790   38.7830 N   0  0  0  0  0  0  0  0  0  0  0  0
   36.9310   32.0780   41.4650 H   0  0  0  0  0  0  0  0  0  0  0  0
   34.7860   28.6360   40.2420 H   0  0  0  0  0  0  0  0  0  0  0  0
   37.4160   30.6710   37.1620 C   0  0  0  0  0  0  0  0  0  0  0  0
   38.4590   30.2970   37.0840 H   0  0  0  0  0  0  0  0  0  0  0  0
   37.3490   31.7320   36.8240 H   0  0  0  0  0  0  0  0  0  0  0  0
   36.5710   29.8550   36.2270 C   0  0  0  0  0  0  0  0  0  0  0  0
   36.4030   28.8330   36.6580 H   0  0  0  0  0  0  0  0  0  0  0  0
   35.5540   30.3340   36.1870 H   0  0  0  0  0  0  0  0  0  0  0  0
   36.9980   29.7210   35.2260 H   0  0  0  0  0  0  0  0  0  0  0  0
   39.8490   32.5630   41.3120 O   0  0  0  0  0  0  0  0  0  0  0  0
   40.1670   31.3180   41.8400 C   0  0  0  0  0  0  0  0  0  0  0  0
   41.4500   31.1600   42.3770 C   0  0  0  0  0  0  0  0  0  0  0  0
   41.8540   29.9490   42.9260 C   0  0  0  0  0  0  0  0  0  0  0  0
   40.9730   28.9090   42.9350 N   0  0  0  0  0  0  0  0  0  0  0  0
   39.7520   29.0770   42.4180 C   0  0  0  0  0  0  0  0  0  0  0  0
   39.3790   30.2410   41.8950 N   0  0  0  0  0  0  0  0  0  0  0  0
   42.1920   31.9460   42.3990 H   0  0  0  0  0  0  0  0  0  0  0  0
   42.8530   29.8310   43.3420 H   0  0  0  0  0  0  0  0  0  0  0  0
   38.7590   27.9790   42.4030 C   0  0  0  0  0  3  0  0  0  0  0  0
   37.6750   28.1330   43.4480 C   0  0  0  0  0  2  0  0  0  0  0  0
   36.5690   27.1950   43.0410 C   0  0  0  0  0  2  0  0  0  0  0  0
   36.9850   25.8120   42.7260 C   0  0  0  0  0  2  0  0  0  0  0  0
   38.3670   25.5950   42.2390 C   0  0  0  0  0  2  0  0  0  0  0  0
   39.3750   26.6270   42.6790 C   0  0  0  0  0  2  0  0  0  0  0  0
  2  1  2  6  0  0  0
  2 21  1  0  0  0  0
  3  2  1  0  0  0  0
  4  3  1  0  0  0  0
  5  7  1  0  0  0  0
  5  2  1  0  0  0  0
  6 11  2  0  0  0  0
  6  7  1  0  0  0  0
  7  8  2  0  0  0  0
  8  9  1  0  0  0  0
  8 12  1  0  0  0  0
 10 13  1  0  0  0  0
 10  9  2  0  0  0  0
 11 10  1  0  0  0  0
 14  6  1  0  0  0  0
 15 14  1  0  0  0  0
 16 14  1  0  0  0  0
 17 18  1  0  0  0  0
 17 14  1  0  0  0  0
 19 17  1  0  0  0  0
 20 17  1  0  0  0  0
 21 22  1  0  0  0  0
 22 27  2  0  0  0  0
 22 23  1  0  0  0  0
 23 28  1  0  0  0  0
 23 24  2  0  0  0  0
 24 25  1  0  0  0  0
 24 29  1  0  0  0  0
 26 25  2  0  0  0  0
 27 26  1  0  0  0  0
 30 26  1  0  0  0  0
 30 35  1  0  0  0  0
 30 31  1  0  0  0  0
 32 31  1  0  0  0  0
 33 32  1  0  0  0  0
 34 35  1  0  0  0  0
 34 33  1  0  0  0  0
M  END
>  <minimizedAffinity>
-5.49620962

$$$$

 OpenBabel03252500593D

 35 37  0  0  0  0  0  0  0  0999 V2000
   37.7010   32.9230   40.6650 O   0  0  0  0  0  0  0  0  0  0  0  0
   37.3510   31.4550   40.4360 P   0  0  1  0  0  0  0  0  0  0  0  0
   35.8060   31.1660   41.0750 O   0  0  0  0  0  0  0  0  0  0  0  0
   35.2680   32.0000   40.9800 H   0  0  0  0  0  0  0  0  0  0  0  0
   37.2750   31.1430   38.7690 O   0  0  0  0  0  0  0  0  0  0  0  0
   37.0550   29.2050   37.4570 C   0  0  0  0  0  0  0  0  0  0  0  0
   37.8890   30.1030   38.0920 C   0  0  0  0  0  0  0  0  0  0  0  0
   39.2710   29.8830   37.9960 C   0  0  0  0  0  0  0  0  0  0  0  0
   39.6960   28.8120   37.2910 N   0  0  0  0  0  0  0  0  0  0  0  0
   38.8680   27.9650   36.6920 C   0  0  0  0  0  0  0  0  0  0  0  0
   37.5510   28.1650   36.7760 N   0  0  0  0  0  0  0  0  0  0  0  0
   39.8740   30.5970   38.4990 H   0  0  0  0  0  0  0  0  0  0  0  0
   39.2960   27.1250   36.1410 H   0  0  0  0  0  0  0  0  0  0  0  0
   35.6030   29.3660   37.5120 C   0  0  0  0  0  0  0  0  0  0  0  0
   35.1000   29.1790   36.5400 H   0  0  0  0  0  0  0  0  0  0  0  0
   35.3750   30.3920   37.8870 H   0  0  0  0  0  0  0  0  0  0  0  0
   35.0360   28.3960   38.5090 C   0  0  0  0  0  0  0  0  0  0  0  0
   35.4440   27.3690   38.3160 H   0  0  0  0  0  0  0  0  0  0  0  0
   35.4260   28.6880   39.5230 H   0  0  0  0  0  0  0  0  0  0  0  0
   33.9430   28.3200   38.4990 H   0  0  0  0  0  0  0  0  0  0  0  0
   38.4440   30.4460   41.2470 O   0  0  0  0  0  0  0  0  0  0  0  0
   37.9710   29.2310   41.7250 C   0  0  0  0  0  0  0  0  0  0  0  0
   37.8340   29.0990   43.1120 C   0  0  0  0  0  0  0  0  0  0  0  0
   37.3690   27.9180   43.6790 C   0  0  0  0  0  0  0  0  0  0  0  0
   37.0470   26.8820   42.8550 N   0  0  0  0  0  0  0  0  0  0  0  0
   37.1840   27.0230   41.5340 C   0  0  0  0  0  0  0  0  0  0  0  0
   37.6300   28.1590   41.0050 N   0  0  0  0  0  0  0  0  0  0  0  0
   38.0730   29.8840   43.8150 H   0  0  0  0  0  0  0  0  0  0  0  0
   37.2640   27.8220   44.7580 H   0  0  0  0  0  0  0  0  0  0  0  0
   36.8480   25.9280   40.5970 C   0  0  0  0  0  3  0  0  0  0  0  0
   36.7250   24.5770   41.2700 C   0  0  0  0  0  2  0  0  0  0  0  0
   36.0050   23.6880   40.2900 C   0  0  0  0  0  2  0  0  0  0  0  0
   36.5390   23.6890   38.9110 C   0  0  0  0  0  2  0  0  0  0  0  0
   37.2480   24.9020   38.4400 C   0  0  0  0  0  2  0  0  0  0  0  0
   37.8920   25.7330   39.5220 C   0  0  0  0  0  2  0  0  0  0  0  0
  2  1  2  1  0  0  0
  2  3  1  0  0  0  0
  2 21  1  0  0  0  0
  4  3  1  0  0  0  0
  5  2  1  0  0  0  0
  6 14  1  0  0  0  0
  6  7  1  0  0  0  0
  7  5  1  0  0  0  0
  8  7  2  0  0  0  0
  8 12  1  0  0  0  0
  9  8  1  0  0  0  0
 10 11  1  0  0  0  0
 10  9  2  0  0  0  0
 11  6  2  0  0  0  0
 13 10  1  0  0  0  0
 14 16  1  0  0  0  0
 14 17  1  0  0  0  0
 15 14  1  0  0  0  0
 17 19  1  0  0  0  0
 18 17  1  0  0  0  0
 20 17  1  0  0  0  0
 21 22  1  0  0  0  0
 22 23  1  0  0  0  0
 23 24  2  0  0  0  0
 23 28  1  0  0  0  0
 24 29  1  0  0  0  0
 25 24  1  0  0  0  0
 26 25  2  0  0  0  0
 27 26  1  0  0  0  0
 27 22  2  0  0  0  0
 30 31  1  0  0  0  0
 30 26  1  0  0  0  0
 32 31  1  0  0  0  0
 33 32  1  0  0  0  0
 34 33  1  0  0  0  0
 34 35  1  0  0  0  0
 35 30  1  0  0  0  0
M  END
>  <minimizedAffinity>
-5.44700193

$$$$

 OpenBabel03252500593D

 35 37  0  0  0  0  0  0  0  0999 V2000
   36.0750   30.7140   41.4320 O   0  0  0  0  0  0  0  0  0  0  0  0
   36.9220   29.4580   41.2410 P   0  0  1  0  0  0  0  0  0  0  0  0
   35.9810   28.2930   40.4430 O   0  0  0  0  0  0  0  0  0  0  0  0
   35.3470   28.7660   39.8360 H   0  0  0  0  0  0  0  0  0  0  0  0
   38.2440   29.8130   40.2360 O   0  0  0  0  0  0  0  0  0  0  0  0
   39.2210   31.9080   39.8130 C   0  0  0  0  0  0  0  0  0  0  0  0
   39.2650   30.7110   40.4980 C   0  0  0  0  0  0  0  0  0  0  0  0
   40.3310   30.5120   41.3890 C   0  0  0  0  0  0  0  0  0  0  0  0
   41.2410   31.5020   41.5200 N   0  0  0  0  0  0  0  0  0  0  0  0
   41.1720   32.6440   40.8460 C   0  0  0  0  0  0  0  0  0  0  0  0
   40.1620   32.8430   39.9960 N   0  0  0  0  0  0  0  0  0  0  0  0
   40.3240   29.5790   41.8930 H   0  0  0  0  0  0  0  0  0  0  0  0
   41.9500   33.3910   41.0130 H   0  0  0  0  0  0  0  0  0  0  0  0
   38.1430   32.1890   38.8670 C   0  0  0  0  0  0  0  0  0  0  0  0
   37.4790   31.3190   38.6820 H   0  0  0  0  0  0  0  0  0  0  0  0
   38.5960   32.5520   37.9130 H   0  0  0  0  0  0  0  0  0  0  0  0
   37.2920   33.3040   39.4040 C   0  0  0  0  0  0  0  0  0  0  0  0
   37.0130   33.0900   40.4690 H   0  0  0  0  0  0  0  0  0  0  0  0
   37.9310   34.2280   39.4400 H   0  0  0  0  0  0  0  0  0  0  0  0
   36.3620   33.4730   38.8500 H   0  0  0  0  0  0  0  0  0  0  0  0
   37.3840   28.8150   42.7370 O   0  0  0  0  0  0  0  0  0  0  0  0
   37.9590   27.5500   42.7500 C   0  0  0  0  0  0  0  0  0  0  0  0
   39.0910   27.3700   43.5520 C   0  0  0  0  0  0  0  0  0  0  0  0
   39.7310   26.1380   43.6250 C   0  0  0  0  0  0  0  0  0  0  0  0
   39.2330   25.1000   42.8960 N   0  0  0  0  0  0  0  0  0  0  0  0
   38.1520   25.2890   42.1350 C   0  0  0  0  0  0  0  0  0  0  0  0
   37.5490   26.4720   42.0750 N   0  0  0  0  0  0  0  0  0  0  0  0
   39.5330   28.1540   44.1510 H   0  0  0  0  0  0  0  0  0  0  0  0
   40.6120   26.0040   44.2500 H   0  0  0  0  0  0  0  0  0  0  0  0
   37.5720   24.1930   41.3260 C   0  0  0  0  0  3  0  0  0  0  0  0
   38.6080   23.3940   40.5630 C   0  0  0  0  0  2  0  0  0  0  0  0
   37.9230   22.1210   40.1400 C   0  0  0  0  0  2  0  0  0  0  0  0
   36.6090   22.2880   39.4840 C   0  0  0  0  0  2  0  0  0  0  0  0
   35.8120   23.4910   39.8180 C   0  0  0  0  0  2  0  0  0  0  0  0
   36.6100   24.6880   40.2710 C   0  0  0  0  0  2  0  0  0  0  0  0
  2  1  2  1  0  0  0
  2 21  1  0  0  0  0
  3  2  1  0  0  0  0
  4  3  1  0  0  0  0
  5  7  1  0  0  0  0
  5  2  1  0  0  0  0
  6 11  2  0  0  0  0
  6  7  1  0  0  0  0
  7  8  2  0  0  0  0
  8  9  1  0  0  0  0
  8 12  1  0  0  0  0
 10 13  1  0  0  0  0
 10  9  2  0  0  0  0
 11 10  1  0  0  0  0
 14 17  1  0  0  0  0
 14  6  1  0  0  0  0
 15 14  1  0  0  0  0
 16 14  1  0  0  0  0
 17 19  1  0  0  0  0
 17 18  1  0  0  0  0
 20 17  1  0  0  0  0
 21 22  1  0  0  0  0
 22 23  1  0  0  0  0
 23 24  2  0  0  0  0
 23 28  1  0  0  0  0
 24 29  1  0  0  0  0
 25 24  1  0  0  0  0
 26 25  2  0  0  0  0
 27 26  1  0  0  0  0
 27 22  2  0  0  0  0
 30 26  1  0  0  0  0
 31 30  1  0  0  0  0
 32 31  1  0  0  0  0
 33 34  1  0  0  0  0
 33 32  1  0  0  0  0
 34 35  1  0  0  0  0
 35 30  1  0  0  0  0
M  END
>  <minimizedAffinity>
-5.40041113

$$$$

 OpenBabel03252500593D

 35 37  0  0  0  0  0  0  0  0999 V2000
   41.1450   29.7160   41.4970 O   0  0  0  0  0  0  0  0  0  0  0  0
   40.3680   30.8150   42.2170 P   0  0  1  0  0  0  0  0  0  0  0  0
   41.4420   31.6560   43.2270 O   0  0  0  0  0  0  0  0  0  0  0  0
   42.3430   31.6480   42.8000 H   0  0  0  0  0  0  0  0  0  0  0  0
   39.7710   31.9260   41.0800 O   0  0  0  0  0  0  0  0  0  0  0  0
   39.7690   31.8210   38.7330 C   0  0  0  0  0  0  0  0  0  0  0  0
   40.3680   32.2880   39.8840 C   0  0  0  0  0  0  0  0  0  0  0  0
   41.5180   33.0800   39.7430 C   0  0  0  0  0  0  0  0  0  0  0  0
   41.9620   33.3340   38.4930 N   0  0  0  0  0  0  0  0  0  0  0  0
   41.3640   32.8700   37.4020 C   0  0  0  0  0  0  0  0  0  0  0  0
   40.2700   32.1160   37.5260 N   0  0  0  0  0  0  0  0  0  0  0  0
   41.9440   33.4160   40.6530 H   0  0  0  0  0  0  0  0  0  0  0  0
   41.7900   33.1240   36.4300 H   0  0  0  0  0  0  0  0  0  0  0  0
   38.5690   30.9890   38.7980 C   0  0  0  0  0  0  0  0  0  0  0  0
   38.2610   30.7390   39.8350 H   0  0  0  0  0  0  0  0  0  0  0  0
   38.7490   30.0620   38.2030 H   0  0  0  0  0  0  0  0  0  0  0  0
   37.4270   31.7170   38.1490 C   0  0  0  0  0  0  0  0  0  0  0  0
   37.3640   32.7630   38.5500 H   0  0  0  0  0  0  0  0  0  0  0  0
   37.6760   31.8290   37.0580 H   0  0  0  0  0  0  0  0  0  0  0  0
   36.4470   31.2500   38.2970 H   0  0  0  0  0  0  0  0  0  0  0  0
   39.1540   30.1500   43.1910 O   0  0  0  0  0  0  0  0  0  0  0  0
   38.4770   29.0350   42.7120 C   0  0  0  0  0  0  0  0  0  0  0  0
   38.7500   27.8080   43.3270 C   0  0  0  0  0  0  0  0  0  0  0  0
   38.1200   26.6410   42.9130 C   0  0  0  0  0  0  0  0  0  0  0  0
   37.2230   26.7120   41.8890 N   0  0  0  0  0  0  0  0  0  0  0  0
   36.9740   27.8910   41.3120 C   0  0  0  0  0  0  0  0  0  0  0  0
   37.5840   29.0000   41.7190 N   0  0  0  0  0  0  0  0  0  0  0  0
   39.4500   27.6890   44.1420 H   0  0  0  0  0  0  0  0  0  0  0  0
   38.3360   25.6900   43.3950 H   0  0  0  0  0  0  0  0  0  0  0  0
   36.0100   28.0200   40.1970 C   0  0  0  0  0  3  0  0  0  0  0  0
   36.6510   27.9130   38.8300 C   0  0  0  0  0  2  0  0  0  0  0  0
   35.5250   27.6620   37.8600 C   0  0  0  0  0  2  0  0  0  0  0  0
   34.3670   28.5740   37.9730 C   0  0  0  0  0  2  0  0  0  0  0  0
   34.0960   29.1950   39.2900 C   0  0  0  0  0  2  0  0  0  0  0  0
   35.2970   29.3530   40.1880 C   0  0  0  0  0  2  0  0  0  0  0  0
  2  1  2  6  0  0  0
  2 21  1  0  0  0  0
  2  3  1  0  0  0  0
  4  3  1  0  0  0  0
  5  2  1  0  0  0  0
  6 14  1  0  0  0  0
  6  7  1  0  0  0  0
  7  5  1  0  0  0  0
  8  7  2  0  0  0  0
  8 12  1  0  0  0  0
  9  8  1  0  0  0  0
 10 11  1  0  0  0  0
 10  9  2  0  0  0  0
 11  6  2  0  0  0  0
 13 10  1  0  0  0  0
 14 15  1  0  0  0  0
 16 14  1  0  0  0  0
 17 20  1  0  0  0  0
 17 18  1  0  0  0  0
 17 14  1  0  0  0  0
 19 17  1  0  0  0  0
 22 21  1  0  0  0  0
 22 23  1  0  0  0  0
 23 28  1  0  0  0  0
 24 23  2  0  0  0  0
 24 29  1  0  0  0  0
 25 24  1  0  0  0  0
 26 27  1  0  0  0  0
 26 25  2  0  0  0  0
 27 22  2  0  0  0  0
 30 26  1  0  0  0  0
 31 30  1  0  0  0  0
 32 33  1  0  0  0  0
 32 31  1  0  0  0  0
 33 34  1  0  0  0  0
 34 35  1  0  0  0  0
 35 30  1  0  0  0  0
M  END
>  <minimizedAffinity>
-5.37999678

$$$$

 OpenBabel03252500593D

 35 37  0  0  0  0  0  0  0  0999 V2000
   37.3180   30.9780   36.8790 O   0  0  0  0  0  0  0  0  0  0  0  0
   38.6250   31.1590   37.6470 P   0  0  1  0  0  0  0  0  0  0  0  0
   39.5260   32.3820   36.8920 O   0  0  0  0  0  0  0  0  0  0  0  0
   38.8900   33.0400   36.4980 H   0  0  0  0  0  0  0  0  0  0  0  0
   38.2870   31.6830   39.2260 O   0  0  0  0  0  0  0  0  0  0  0  0
   37.5020   30.4790   41.0850 C   0  0  0  0  0  0  0  0  0  0  0  0
   38.5760   31.0110   40.4020 C   0  0  0  0  0  0  0  0  0  0  0  0
   39.8520   30.8250   40.9540 C   0  0  0  0  0  0  0  0  0  0  0  0
   39.9480   30.1390   42.1140 N   0  0  0  0  0  0  0  0  0  0  0  0
   38.8940   29.6400   42.7490 C   0  0  0  0  0  0  0  0  0  0  0  0
   37.6760   29.8110   42.2330 N   0  0  0  0  0  0  0  0  0  0  0  0
   40.6480   31.2490   40.3950 H   0  0  0  0  0  0  0  0  0  0  0  0
   39.0620   29.0980   43.6820 H   0  0  0  0  0  0  0  0  0  0  0  0
   36.1400   30.6330   40.5750 C   0  0  0  0  0  0  0  0  0  0  0  0
   36.0980   31.0600   39.5510 H   0  0  0  0  0  0  0  0  0  0  0  0
   35.5630   31.2630   41.2930 H   0  0  0  0  0  0  0  0  0  0  0  0
   35.4740   29.2880   40.5340 C   0  0  0  0  0  0  0  0  0  0  0  0
   36.1450   28.5460   40.0260 H   0  0  0  0  0  0  0  0  0  0  0  0
   35.3760   28.9270   41.5940 H   0  0  0  0  0  0  0  0  0  0  0  0
   34.5130   29.2720   40.0070 H   0  0  0  0  0  0  0  0  0  0  0  0
   39.5440   29.7370   37.6060 O   0  0  0  0  0  0  0  0  0  0  0  0
   38.8630   28.5260   37.5820 C   0  0  0  0  0  0  0  0  0  0  0  0
   38.6480   27.9380   36.3310 C   0  0  0  0  0  0  0  0  0  0  0  0
   37.9750   26.7280   36.2120 C   0  0  0  0  0  0  0  0  0  0  0  0
   37.5260   26.1170   37.3440 N   0  0  0  0  0  0  0  0  0  0  0  0
   37.7390   26.6920   38.5310 C   0  0  0  0  0  0  0  0  0  0  0  0
   38.3840   27.8500   38.6300 N   0  0  0  0  0  0  0  0  0  0  0  0
   38.9790   28.3740   35.3990 H   0  0  0  0  0  0  0  0  0  0  0  0
   37.8100   26.2750   35.2360 H   0  0  0  0  0  0  0  0  0  0  0  0
   37.2710   26.0690   39.7890 C   0  0  0  0  0  3  0  0  0  0  0  0
   38.0770   26.4810   41.0030 C   0  0  0  0  0  2  0  0  0  0  0  0
   37.2490   26.1000   42.2020 C   0  0  0  0  0  2  0  0  0  0  0  0
   36.7200   24.7190   42.2040 C   0  0  0  0  0  2  0  0  0  0  0  0
   36.4920   24.0600   40.8960 C   0  0  0  0  0  2  0  0  0  0  0  0
   37.3530   24.5600   39.7630 C   0  0  0  0  0  2  0  0  0  0  0  0
  2  1  2  6  0  0  0
  2  5  1  0  0  0  0
  3  2  1  0  0  0  0
  4  3  1  0  0  0  0
  5  7  1  0  0  0  0
  6 11  1  0  0  0  0
  7  8  1  0  0  0  0
  7  6  2  0  0  0  0
  8  9  2  0  0  0  0
  9 10  1  0  0  0  0
 10 13  1  0  0  0  0
 11 10  2  0  0  0  0
 12  8  1  0  0  0  0
 14  6  1  0  0  0  0
 14 16  1  0  0  0  0
 15 14  1  0  0  0  0
 17 14  1  0  0  0  0
 17 19  1  0  0  0  0
 18 17  1  0  0  0  0
 20 17  1  0  0  0  0
 21  2  1  0  0  0  0
 22 21  1  0  0  0  0
 22 27  1  0  0  0  0
 23 22  2  0  0  0  0
 24 23  1  0  0  0  0
 24 25  2  0  0  0  0
 25 26  1  0  0  0  0
 26 27  2  0  0  0  0
 26 30  1  0  0  0  0
 28 23  1  0  0  0  0
 29 24  1  0  0  0  0
 30 31  1  0  0  0  0
 31 32  1  0  0  0  0
 32 33  1  0  0  0  0
 34 33  1  0  0  0  0
 35 30  1  0  0  0  0
 35 34  1  0  0  0  0
M  END
>  <minimizedAffinity>
-5.35621357

$$$$
