
 OpenBabel03252508173D

 44 48  0  0  1  0  0  0  0  0999 V2000
   46.8770   30.9720   46.8520 C   0  0  0  0  0  0  0  0  0  0  0  0
   47.9150   30.6990   46.7300 H   0  0  0  0  0  0  0  0  0  0  0  0
   46.2830   30.0730   46.5150 H   0  0  0  0  0  0  0  0  0  0  0  0
   46.4350   31.4370   48.1980 C   0  0  1  0  0  0  0  0  0  0  0  0
   46.3090   30.3580   49.2200 C   0  0  0  0  0  0  0  0  0  0  0  0
   47.3620   31.3610   49.3470 C   0  0  1  0  0  0  0  0  0  0  0  0
   45.4910   32.0590   48.2110 H   0  0  0  0  0  0  0  0  0  0  0  0
   45.4980   30.3360   49.9680 H   0  0  0  0  0  0  0  0  0  0  0  0
   46.6640   29.3270   48.9590 H   0  0  0  0  0  0  0  0  0  0  0  0
   47.2210   32.1320   50.1330 H   0  0  0  0  0  0  0  0  0  0  0  0
   48.7940   31.0290   49.0710 C   0  0  2  0  0  0  0  0  0  0  0  0
   49.4320   30.0810   50.1170 C   0  0  0  0  0  0  0  0  0  0  0  0
   49.8300   31.4880   50.1050 C   0  0  1  0  0  0  0  0  0  0  0  0
   49.1280   30.7370   48.0620 H   0  0  0  0  0  0  0  0  0  0  0  0
   48.7920   29.7340   50.9520 H   0  0  0  0  0  0  0  0  0  0  0  0
   50.1770   29.3510   49.8180 H   0  0  0  0  0  0  0  0  0  0  0  0
   49.4440   32.1330   50.9070 H   0  0  0  0  0  0  0  0  0  0  0  0
   51.0800   32.0080   49.4590 C   0  0  0  0  0  0  0  0  0  0  0  0
   51.5830   33.2350   50.2250 C   0  0  0  0  0  0  0  0  0  0  0  0
   52.8650   32.9130   50.9690 C   0  0  0  0  0  0  0  0  0  0  0  0
   53.9360   32.6040   49.9390 C   0  0  0  0  0  0  0  0  0  0  0  0
   53.4040   31.7440   48.8350 C   0  0  0  0  0  0  0  0  0  0  0  0
   52.1860   30.9850   49.3760 C   0  0  0  0  0  0  0  0  0  0  0  0
   45.9120   33.0130   46.1720 C   0  0  0  0  0  0  0  0  0  0  0  0
   46.6650   32.0560   45.8190 C   0  0  0  0  0  0  0  0  0  0  0  0
   44.5520   36.0000   44.4960 C   0  0  0  0  0  0  0  0  0  0  0  0
   45.2150   36.0050   43.2790 C   0  0  0  0  0  0  0  0  0  0  0  0
   46.1030   34.9930   43.0660 C   0  0  0  0  0  0  0  0  0  0  0  0
   46.2950   34.0510   44.0240 N   0  0  0  0  0  0  0  0  0  0  0  0
   45.6370   34.0700   45.1960 C   0  0  0  0  0  0  0  0  0  0  0  0
   44.7810   35.0520   45.3950 N   0  0  0  0  0  0  0  0  0  0  0  0
   43.8340   36.8020   44.6930 H   0  0  0  0  0  0  0  0  0  0  0  0
   45.0450   36.7660   42.5310 H   0  0  0  0  0  0  0  0  0  0  0  0
   46.8760   34.8680   41.8320 C   0  0  0  0  0  0  0  0  0  0  0  0
   48.0970   35.4710   41.6290 C   0  0  0  0  0  0  0  0  0  0  0  0
   48.8260   35.3510   40.4610 C   0  0  0  0  0  0  0  0  0  0  0  0
   48.3320   34.5950   39.4280 C   0  0  0  0  0  0  0  0  0  0  0  0
   47.1210   33.9750   39.5820 C   0  0  0  0  0  0  0  0  0  0  0  0
   46.4320   34.1270   40.7690 C   0  0  0  0  0  0  0  0  0  0  0  0
   48.5120   36.0810   42.4430 H   0  0  0  0  0  0  0  0  0  0  0  0
   49.7910   35.8520   40.3550 H   0  0  0  0  0  0  0  0  0  0  0  0
   48.8590   34.4610   38.4830 H   0  0  0  0  0  0  0  0  0  0  0  0
   46.7300   33.3770   38.7660 H   0  0  0  0  0  0  0  0  0  0  0  0
   45.4800   33.6000   40.8060 H   0  0  0  0  0  0  0  0  0  0  0  0
  1  4  1  0  0  0  0
  2  1  1  0  0  0  0
  3  1  1  0  0  0  0
  4  7  1  1  0  0  0
  4  5  1  0  0  0  0
  4  6  1  0  0  0  0
  5  6  1  0  0  0  0
  5  8  1  0  0  0  0
  6 10  1  1  0  0  0
  9  5  1  0  0  0  0
 11 14  1  6  0  0  0
 11  6  1  0  0  0  0
 11 13  1  0  0  0  0
 11 12  1  0  0  0  0
 12 15  1  0  0  0  0
 13 12  1  0  0  0  0
 13 17  1  1  0  0  0
 16 12  1  0  0  0  0
 18 13  1  0  0  0  0
 18 19  1  0  0  0  0
 19 20  1  0  0  0  0
 21 20  1  0  0  0  0
 22 23  1  0  0  0  0
 22 21  1  0  0  0  0
 23 18  1  0  0  0  0
 25 24  2  0  0  0  0
 25  1  1  0  0  0  0
 26 32  1  0  0  0  0
 26 31  1  0  0  0  0
 27 26  2  0  0  0  0
 28 27  1  0  0  0  0
 28 29  2  0  0  0  0
 29 30  1  0  0  0  0
 30 31  2  0  0  0  0
 30 24  1  0  0  0  0
 33 27  1  0  0  0  0
 34 28  1  0  0  0  0
 35 34  1  0  0  0  0
 35 40  1  0  0  0  0
 36 35  2  0  0  0  0
 37 38  2  0  0  0  0
 37 36  1  0  0  0  0
 38 39  1  0  0  0  0
 39 44  1  0  0  0  0
 39 34  2  0  0  0  0
 41 36  1  0  0  0  0
 42 37  1  0  0  0  0
 43 38  1  0  0  0  0
M  END
>  <minimizedAffinity>
-6.7228837

>  <minimizedRMSD>
1.13411856

$$$$
