
 OpenBabel03242522093D

 41 44  0  0  1  0  0  0  0  0999 V2000
   42.0360   29.3730   42.6630 C   0  0  0  0  0  0  0  0  0  0  0  0
   41.8680   30.5980   42.0020 C   0  0  0  0  0  0  0  0  0  0  0  0
   40.5970   30.9550   41.5700 C   0  0  0  0  0  0  0  0  0  0  0  0
   39.6000   30.0680   41.8300 N   0  0  0  0  0  0  0  0  0  0  0  0
   39.7910   28.9010   42.4660 C   0  0  0  0  0  0  0  0  0  0  0  0
   41.0190   28.5560   42.8830 N   0  0  0  0  0  0  0  0  0  0  0  0
   43.0370   29.1280   42.9850 H   0  0  0  0  0  0  0  0  0  0  0  0
   42.6510   31.3090   41.7890 H   0  0  0  0  0  0  0  0  0  0  0  0
   40.2870   32.1660   40.8870 N   0  0  0  0  0  0  0  0  0  0  0  0
   41.0390   32.5570   39.7180 C   0  0  0  0  0  0  0  0  0  0  0  0
   40.9250   34.0450   39.4570 C   0  0  0  0  0  0  0  0  0  0  0  0
   39.6140   34.5360   39.4450 N   0  0  0  0  0  0  0  0  0  0  0  0
   38.6850   33.9640   40.3690 C   0  0  2  0  0  0  0  0  0  0  0  0
   39.2300   33.0110   41.3470 C   0  0  0  0  0  0  0  0  0  0  0  0
   42.1080   32.3400   39.9250 H   0  0  0  0  0  0  0  0  0  0  0  0
   40.7500   31.9570   38.8370 H   0  0  0  0  0  0  0  0  0  0  0  0
   41.5510   34.5730   40.1970 H   0  0  0  0  0  0  0  0  0  0  0  0
   41.3850   34.2130   38.4650 H   0  0  0  0  0  0  0  0  0  0  0  0
   39.2220   34.5710   38.4600 H   0  0  0  0  0  0  0  0  0  0  0  0
   38.2160   34.8190   40.9140 H   0  0  0  0  0  0  0  0  0  0  0  0
   38.3980   32.3340   41.6840 H   0  0  0  0  0  0  0  0  0  0  0  0
   39.5400   33.5610   42.2790 H   0  0  0  0  0  0  0  0  0  0  0  0
   37.6020   33.2600   39.5920 C   0  0  0  0  0  0  0  0  0  0  0  0
   36.6630   34.1900   39.1380 F   0  0  0  0  0  0  0  0  0  0  0  0
   36.9380   32.4480   40.4850 F   0  0  0  0  0  0  0  0  0  0  0  0
   38.0590   32.5850   38.5020 F   0  0  0  0  0  0  0  0  0  0  0  0
   38.6480   28.0090   42.7010 C   0  0  0  0  0  0  0  0  0  0  0  0
   37.5760   28.4610   43.4380 C   0  0  0  0  0  0  0  0  0  0  0  0
   36.5060   27.6020   43.6480 C   0  0  0  0  0  0  0  0  0  0  0  0
   36.6150   26.3540   43.0920 C   0  0  0  0  0  0  0  0  0  0  0  0
   37.6840   25.8830   42.3510 C   0  0  0  0  0  0  0  0  0  0  0  0
   38.7070   26.7470   42.1670 N   0  0  0  0  0  0  0  0  0  0  0  0
   37.5480   29.4570   43.8500 H   0  0  0  0  0  0  0  0  0  0  0  0
   35.6260   27.8760   44.2130 H   0  0  0  0  0  0  0  0  0  0  0  0
   35.8020   25.6550   43.2330 H   0  0  0  0  0  0  0  0  0  0  0  0
   37.7310   24.5270   41.7840 C   0  0  0  0  0  3  0  0  0  0  0  0
   39.1460   24.2580   41.3570 C   0  0  0  0  0  2  0  0  0  0  0  0
   39.1560   24.1760   39.8280 C   0  0  0  0  0  2  0  0  0  0  0  0
   38.4470   22.8620   39.5070 C   0  0  0  0  0  2  0  0  0  0  0  0
   37.0630   22.9170   40.0830 C   0  0  0  0  0  2  0  0  0  0  0  0
   36.7350   24.2610   40.7020 C   0  0  0  0  0  2  0  0  0  0  0  0
  1  6  1  0  0  0  0
  1  7  1  0  0  0  0
  2  1  2  0  0  0  0
  3  4  2  0  0  0  0
  3  2  1  0  0  0  0
  4  5  1  0  0  0  0
  5 27  1  0  0  0  0
  5  6  2  0  0  0  0
  8  2  1  0  0  0  0
  9 14  1  0  0  0  0
  9  3  1  0  0  0  0
 10 15  1  0  0  0  0
 10  9  1  0  0  0  0
 11 10  1  0  0  0  0
 11 17  1  0  0  0  0
 12 11  1  0  0  0  0
 12 13  1  0  0  0  0
 13 20  1  1  0  0  0
 13 14  1  0  0  0  0
 14 21  1  0  0  0  0
 14 22  1  0  0  0  0
 16 10  1  0  0  0  0
 18 11  1  0  0  0  0
 19 12  1  0  0  0  0
 23 13  1  0  0  0  0
 23 25  1  0  0  0  0
 24 23  1  0  0  0  0
 26 23  1  0  0  0  0
 27 28  1  0  0  0  0
 28 29  2  0  0  0  0
 28 33  1  0  0  0  0
 29 34  1  0  0  0  0
 30 35  1  0  0  0  0
 30 29  1  0  0  0  0
 31 30  2  0  0  0  0
 32 31  1  0  0  0  0
 32 27  2  0  0  0  0
 36 31  1  0  0  0  0
 37 36  1  0  0  0  0
 38 37  1  0  0  0  0
 39 38  1  0  0  0  0
 39 40  1  0  0  0  0
 40 41  1  0  0  0  0
 41 36  1  0  0  0  0
M  END
>  <minimizedAffinity>
-6.83390713

$$$$

 OpenBabel03242522093D

 41 44  0  0  1  0  0  0  0  0999 V2000
   36.9140   31.6370   40.6120 C   0  0  0  0  0  0  0  0  0  0  0  0
   37.9690   32.5210   40.3470 C   0  0  0  0  0  0  0  0  0  0  0  0
   39.2650   32.1280   40.6590 C   0  0  0  0  0  0  0  0  0  0  0  0
   39.4040   30.8910   41.2050 N   0  0  0  0  0  0  0  0  0  0  0  0
   38.3730   30.0640   41.4470 C   0  0  0  0  0  0  0  0  0  0  0  0
   37.1220   30.4450   41.1460 N   0  0  0  0  0  0  0  0  0  0  0  0
   35.9220   31.9760   40.3560 H   0  0  0  0  0  0  0  0  0  0  0  0
   37.8710   33.5050   39.9150 H   0  0  0  0  0  0  0  0  0  0  0  0
   40.4250   32.9260   40.4450 N   0  0  0  0  0  0  0  0  0  0  0  0
   41.6470   32.6430   41.1600 C   0  0  0  0  0  0  0  0  0  0  0  0
   42.5600   33.8510   41.1990 C   0  0  0  0  0  0  0  0  0  0  0  0
   42.7900   34.4480   39.9540 N   0  0  0  0  0  0  0  0  0  0  0  0
   41.7020   34.4840   39.0270 C   0  0  2  0  0  0  0  0  0  0  0  0
   40.3980   34.0170   39.5220 C   0  0  0  0  0  0  0  0  0  0  0  0
   41.3680   32.4060   42.2090 H   0  0  0  0  0  0  0  0  0  0  0  0
   42.1530   31.7510   40.7500 H   0  0  0  0  0  0  0  0  0  0  0  0
   42.1470   34.5700   41.9270 H   0  0  0  0  0  0  0  0  0  0  0  0
   43.5210   33.4880   41.6120 H   0  0  0  0  0  0  0  0  0  0  0  0
   43.6790   34.0830   39.5060 H   0  0  0  0  0  0  0  0  0  0  0  0
   41.6070   35.5470   38.6940 H   0  0  0  0  0  0  0  0  0  0  0  0
   39.7840   33.6810   38.6420 H   0  0  0  0  0  0  0  0  0  0  0  0
   39.8240   34.8850   39.9500 H   0  0  0  0  0  0  0  0  0  0  0  0
   42.0650   33.6510   37.8240 C   0  0  0  0  0  0  0  0  0  0  0  0
   42.5950   34.4700   36.8230 F   0  0  0  0  0  0  0  0  0  0  0  0
   40.8850   33.1460   37.3220 F   0  0  0  0  0  0  0  0  0  0  0  0
   42.9860   32.6840   38.0840 F   0  0  0  0  0  0  0  0  0  0  0  0
   38.6270   28.7450   42.0400 C   0  0  0  0  0  0  0  0  0  0  0  0
   39.6260   28.6040   42.9770 C   0  0  0  0  0  0  0  0  0  0  0  0
   39.8490   27.3480   43.5260 C   0  0  0  0  0  0  0  0  0  0  0  0
   39.0380   26.3400   43.0750 C   0  0  0  0  0  0  0  0  0  0  0  0
   38.0310   26.4630   42.1360 C   0  0  0  0  0  0  0  0  0  0  0  0
   37.8420   27.7000   41.6230 N   0  0  0  0  0  0  0  0  0  0  0  0
   40.2330   29.4380   43.2920 H   0  0  0  0  0  0  0  0  0  0  0  0
   40.6120   27.1500   44.2660 H   0  0  0  0  0  0  0  0  0  0  0  0
   39.1800   25.3470   43.4780 H   0  0  0  0  0  0  0  0  0  0  0  0
   37.1980   25.3320   41.7000 C   0  0  0  0  0  3  0  0  0  0  0  0
   37.9260   24.0650   42.0490 C   0  0  0  0  0  2  0  0  0  0  0  0
   38.3430   23.3990   40.7340 C   0  0  0  0  0  2  0  0  0  0  0  0
   37.0380   22.8870   40.1290 C   0  0  0  0  0  2  0  0  0  0  0  0
   36.1180   24.0550   39.9300 C   0  0  0  0  0  2  0  0  0  0  0  0
   36.7670   25.3820   40.2690 C   0  0  0  0  0  2  0  0  0  0  0  0
  1  6  1  0  0  0  0
  2  1  2  0  0  0  0
  2  3  1  0  0  0  0
  3  4  2  0  0  0  0
  4  5  1  0  0  0  0
  5 27  1  0  0  0  0
  6  5  2  0  0  0  0
  7  1  1  0  0  0  0
  8  2  1  0  0  0  0
  9  3  1  0  0  0  0
  9 10  1  0  0  0  0
 10 11  1  0  0  0  0
 10 15  1  0  0  0  0
 11 18  1  0  0  0  0
 11 17  1  0  0  0  0
 12 11  1  0  0  0  0
 13 20  1  6  0  0  0
 13 14  1  0  0  0  0
 13 12  1  0  0  0  0
 14 22  1  0  0  0  0
 14  9  1  0  0  0  0
 16 10  1  0  0  0  0
 19 12  1  0  0  0  0
 21 14  1  0  0  0  0
 23 26  1  0  0  0  0
 23 13  1  0  0  0  0
 24 23  1  0  0  0  0
 25 23  1  0  0  0  0
 27 28  1  0  0  0  0
 28 33  1  0  0  0  0
 28 29  2  0  0  0  0
 29 34  1  0  0  0  0
 30 35  1  0  0  0  0
 30 29  1  0  0  0  0
 31 30  2  0  0  0  0
 32 27  2  0  0  0  0
 32 31  1  0  0  0  0
 36 37  1  0  0  0  0
 36 31  1  0  0  0  0
 38 37  1  0  0  0  0
 39 38  1  0  0  0  0
 40 39  1  0  0  0  0
 40 41  1  0  0  0  0
 41 36  1  0  0  0  0
M  END
>  <minimizedAffinity>
-6.77738953

$$$$

 OpenBabel03242522093D

 41 44  0  0  1  0  0  0  0  0999 V2000
   34.5980   27.9480   36.3730 C   0  0  0  0  0  0  0  0  0  0  0  0
   33.2770   28.4050   36.2740 C   0  0  0  0  0  0  0  0  0  0  0  0
   32.7240   29.0880   37.3500 C   0  0  0  0  0  0  0  0  0  0  0  0
   33.5290   29.2610   38.4330 N   0  0  0  0  0  0  0  0  0  0  0  0
   34.7930   28.8120   38.4980 C   0  0  0  0  0  0  0  0  0  0  0  0
   35.3260   28.1530   37.4590 N   0  0  0  0  0  0  0  0  0  0  0  0
   34.9950   27.4230   35.5180 H   0  0  0  0  0  0  0  0  0  0  0  0
   32.6280   28.2740   35.4220 H   0  0  0  0  0  0  0  0  0  0  0  0
   31.3970   29.6030   37.3850 N   0  0  0  0  0  0  0  0  0  0  0  0
   30.7730   29.9300   38.6460 C   0  0  0  0  0  0  0  0  0  0  0  0
   29.2630   29.9590   38.5280 C   0  0  0  0  0  0  0  0  0  0  0  0
   28.7760   30.7330   37.4690 N   0  0  0  0  0  0  0  0  0  0  0  0
   29.5240   30.7330   36.2500 C   0  0  2  0  0  0  0  0  0  0  0  0
   30.6610   29.8040   36.1750 C   0  0  0  0  0  0  0  0  0  0  0  0
   31.0330   29.1210   39.3620 H   0  0  0  0  0  0  0  0  0  0  0  0
   31.1770   30.8710   39.0600 H   0  0  0  0  0  0  0  0  0  0  0  0
   28.9030   28.9170   38.4710 H   0  0  0  0  0  0  0  0  0  0  0  0
   28.8950   30.3770   39.4840 H   0  0  0  0  0  0  0  0  0  0  0  0
   28.5360   31.7170   37.7850 H   0  0  0  0  0  0  0  0  0  0  0  0
   28.7990   30.4890   35.4360 H   0  0  0  0  0  0  0  0  0  0  0  0
   31.3910   30.1970   35.4150 H   0  0  0  0  0  0  0  0  0  0  0  0
   30.3180   28.8190   35.7520 H   0  0  0  0  0  0  0  0  0  0  0  0
   30.0480   32.1250   36.0040 C   0  0  0  0  0  0  0  0  0  0  0  0
   30.2110   32.7920   37.2220 F   0  0  0  0  0  0  0  0  0  0  0  0
   29.0610   32.8050   35.3240 F   0  0  0  0  0  0  0  0  0  0  0  0
   31.2480   32.1550   35.3640 F   0  0  0  0  0  0  0  0  0  0  0  0
   35.5840   29.0500   39.7130 C   0  0  0  0  0  0  0  0  0  0  0  0
   35.8170   30.3420   40.1270 C   0  0  0  0  0  0  0  0  0  0  0  0
   36.5670   30.5440   41.2790 C   0  0  0  0  0  0  0  0  0  0  0  0
   37.0170   29.4150   41.9120 C   0  0  0  0  0  0  0  0  0  0  0  0
   36.7930   28.1110   41.5100 C   0  0  0  0  0  0  0  0  0  0  0  0
   36.0590   27.9520   40.3850 N   0  0  0  0  0  0  0  0  0  0  0  0
   35.4350   31.1920   39.5850 H   0  0  0  0  0  0  0  0  0  0  0  0
   36.7970   31.5240   41.6730 H   0  0  0  0  0  0  0  0  0  0  0  0
   37.6050   29.5300   42.8120 H   0  0  0  0  0  0  0  0  0  0  0  0
   37.3100   26.9450   42.2430 C   0  0  0  0  0  3  0  0  0  0  0  0
   37.9820   27.4490   43.4890 C   0  0  0  0  0  2  0  0  0  0  0  0
   39.4820   27.1810   43.3400 C   0  0  0  0  0  2  0  0  0  0  0  0
   39.6190   25.6650   43.4660 C   0  0  0  0  0  2  0  0  0  0  0  0
   38.7990   25.0230   42.3870 C   0  0  0  0  0  2  0  0  0  0  0  0
   38.1780   26.0310   41.4400 C   0  0  0  0  0  2  0  0  0  0  0  0
  1  6  1  0  0  0  0
  2  1  2  0  0  0  0
  2  3  1  0  0  0  0
  3  9  1  0  0  0  0
  3  4  2  0  0  0  0
  4  5  1  0  0  0  0
  5 27  1  0  0  0  0
  6  5  2  0  0  0  0
  7  1  1  0  0  0  0
  8  2  1  0  0  0  0
  9 10  1  0  0  0  0
 10 16  1  0  0  0  0
 10 15  1  0  0  0  0
 11 10  1  0  0  0  0
 11 18  1  0  0  0  0
 12 19  1  0  0  0  0
 12 11  1  0  0  0  0
 13 20  1  6  0  0  0
 13 12  1  0  0  0  0
 14 13  1  0  0  0  0
 14  9  1  0  0  0  0
 17 11  1  0  0  0  0
 21 14  1  0  0  0  0
 22 14  1  0  0  0  0
 23 13  1  0  0  0  0
 23 24  1  0  0  0  0
 25 23  1  0  0  0  0
 26 23  1  0  0  0  0
 27 28  2  0  0  0  0
 27 32  1  0  0  0  0
 28 29  1  0  0  0  0
 29 34  1  0  0  0  0
 29 30  2  0  0  0  0
 30 35  1  0  0  0  0
 31 30  1  0  0  0  0
 31 36  1  0  0  0  0
 32 31  2  0  0  0  0
 33 28  1  0  0  0  0
 36 37  1  0  0  0  0
 38 39  1  0  0  0  0
 38 37  1  0  0  0  0
 40 39  1  0  0  0  0
 41 36  1  0  0  0  0
 41 40  1  0  0  0  0
M  END
>  <minimizedAffinity>
-6.62446737

$$$$

 OpenBabel03242522093D

 41 44  0  0  1  0  0  0  0  0999 V2000
   37.7180   31.7880   39.4170 C   0  0  0  0  0  0  0  0  0  0  0  0
   37.2340   31.4000   38.1610 C   0  0  0  0  0  0  0  0  0  0  0  0
   36.7640   30.1030   37.9960 C   0  0  0  0  0  0  0  0  0  0  0  0
   36.8150   29.3000   39.0930 N   0  0  0  0  0  0  0  0  0  0  0  0
   37.2840   29.7010   40.2860 C   0  0  0  0  0  0  0  0  0  0  0  0
   37.7370   30.9540   40.4440 N   0  0  0  0  0  0  0  0  0  0  0  0
   38.0740   32.8030   39.5080 H   0  0  0  0  0  0  0  0  0  0  0  0
   37.1890   32.0270   37.2840 H   0  0  0  0  0  0  0  0  0  0  0  0
   36.2480   29.5780   36.7780 N   0  0  0  0  0  0  0  0  0  0  0  0
   34.8540   29.2140   36.6730 C   0  0  0  0  0  0  0  0  0  0  0  0
   34.6200   28.2350   35.5410 C   0  0  0  0  0  0  0  0  0  0  0  0
   35.1700   28.6220   34.3130 N   0  0  0  0  0  0  0  0  0  0  0  0
   36.4280   29.3010   34.3360 C   0  0  2  0  0  0  0  0  0  0  0  0
   37.0980   29.4040   35.6410 C   0  0  0  0  0  0  0  0  0  0  0  0
   34.5760   28.6990   37.6170 H   0  0  0  0  0  0  0  0  0  0  0  0
   34.2120   30.1080   36.5900 H   0  0  0  0  0  0  0  0  0  0  0  0
   34.9900   27.2450   35.8600 H   0  0  0  0  0  0  0  0  0  0  0  0
   33.5210   28.1520   35.4370 H   0  0  0  0  0  0  0  0  0  0  0  0
   34.4580   29.1280   33.7110 H   0  0  0  0  0  0  0  0  0  0  0  0
   37.0950   28.7540   33.6260 H   0  0  0  0  0  0  0  0  0  0  0  0
   37.7900   30.2900   35.6170 H   0  0  0  0  0  0  0  0  0  0  0  0
   37.7780   28.5190   35.7880 H   0  0  0  0  0  0  0  0  0  0  0  0
   36.2320   30.6990   33.8060 C   0  0  0  0  0  0  0  0  0  0  0  0
   34.8680   30.9960   33.7450 F   0  0  0  0  0  0  0  0  0  0  0  0
   36.6830   30.6950   32.5040 F   0  0  0  0  0  0  0  0  0  0  0  0
   36.8200   31.6620   34.5670 F   0  0  0  0  0  0  0  0  0  0  0  0
   37.2970   28.7580   41.4130 C   0  0  0  0  0  0  0  0  0  0  0  0
   37.4540   29.2360   42.6940 C   0  0  0  0  0  0  0  0  0  0  0  0
   37.4630   28.3280   43.7450 C   0  0  0  0  0  0  0  0  0  0  0  0
   37.3120   27.0090   43.4040 C   0  0  0  0  0  0  0  0  0  0  0  0
   37.1540   26.5120   42.1240 C   0  0  0  0  0  0  0  0  0  0  0  0
   37.1500   27.4240   41.1260 N   0  0  0  0  0  0  0  0  0  0  0  0
   37.5680   30.2880   42.9000 H   0  0  0  0  0  0  0  0  0  0  0  0
   37.5810   28.6180   44.7800 H   0  0  0  0  0  0  0  0  0  0  0  0
   37.3140   26.2710   44.1940 H   0  0  0  0  0  0  0  0  0  0  0  0
   36.9970   25.0780   41.8340 C   0  0  0  0  0  3  0  0  0  0  0  0
   38.2590   24.3840   42.2610 C   0  0  0  0  0  2  0  0  0  0  0  0
   38.9560   23.8810   40.9930 C   0  0  0  0  0  2  0  0  0  0  0  0
   38.0830   22.7300   40.5010 C   0  0  0  0  0  2  0  0  0  0  0  0
   36.7030   23.2590   40.2420 C   0  0  0  0  0  2  0  0  0  0  0  0
   36.6030   24.7600   40.4270 C   0  0  0  0  0  2  0  0  0  0  0  0
  1  7  1  0  0  0  0
  1  6  1  0  0  0  0
  2  1  2  0  0  0  0
  3  2  1  0  0  0  0
  3  4  2  0  0  0  0
  4  5  1  0  0  0  0
  5  6  2  0  0  0  0
  5 27  1  0  0  0  0
  8  2  1  0  0  0  0
  9  3  1  0  0  0  0
 10  9  1  0  0  0  0
 10 15  1  0  0  0  0
 11 17  1  0  0  0  0
 11 10  1  0  0  0  0
 12 13  1  0  0  0  0
 12 11  1  0  0  0  0
 13 20  1  6  0  0  0
 13 14  1  0  0  0  0
 14 22  1  0  0  0  0
 14  9  1  0  0  0  0
 16 10  1  0  0  0  0
 18 11  1  0  0  0  0
 19 12  1  0  0  0  0
 21 14  1  0  0  0  0
 23 13  1  0  0  0  0
 23 26  1  0  0  0  0
 24 23  1  0  0  0  0
 25 23  1  0  0  0  0
 27 28  1  0  0  0  0
 28 33  1  0  0  0  0
 28 29  2  0  0  0  0
 29 34  1  0  0  0  0
 30 29  1  0  0  0  0
 30 35  1  0  0  0  0
 31 30  2  0  0  0  0
 32 27  2  0  0  0  0
 32 31  1  0  0  0  0
 36 31  1  0  0  0  0
 36 37  1  0  0  0  0
 38 37  1  0  0  0  0
 39 38  1  0  0  0  0
 40 41  1  0  0  0  0
 40 39  1  0  0  0  0
 41 36  1  0  0  0  0
M  END
>  <minimizedAffinity>
-6.60263824

$$$$

 OpenBabel03242522093D

 41 44  0  0  1  0  0  0  0  0999 V2000
   36.8620   32.0560   40.1150 C   0  0  0  0  0  0  0  0  0  0  0  0
   38.0110   32.8310   39.9040 C   0  0  0  0  0  0  0  0  0  0  0  0
   39.2140   32.4080   40.4560 C   0  0  0  0  0  0  0  0  0  0  0  0
   39.1750   31.2510   41.1710 N   0  0  0  0  0  0  0  0  0  0  0  0
   38.0580   30.5280   41.3550 C   0  0  0  0  0  0  0  0  0  0  0  0
   36.8970   30.9380   40.8220 N   0  0  0  0  0  0  0  0  0  0  0  0
   35.9460   32.4140   39.6710 H   0  0  0  0  0  0  0  0  0  0  0  0
   38.0540   33.7490   39.3400 H   0  0  0  0  0  0  0  0  0  0  0  0
   40.4520   33.0970   40.3210 N   0  0  0  0  0  0  0  0  0  0  0  0
   41.5960   32.7040   41.1090 C   0  0  0  0  0  0  0  0  0  0  0  0
   42.6100   33.8240   41.2150 C   0  0  0  0  0  0  0  0  0  0  0  0
   42.9710   34.4010   39.9910 N   0  0  0  0  0  0  0  0  0  0  0  0
   41.9510   34.5360   38.9970 C   0  0  2  0  0  0  0  0  0  0  0  0
   40.5820   34.1880   39.4060 C   0  0  0  0  0  0  0  0  0  0  0  0
   41.2310   32.4910   42.1370 H   0  0  0  0  0  0  0  0  0  0  0  0
   42.0450   31.7710   40.7250 H   0  0  0  0  0  0  0  0  0  0  0  0
   42.2180   34.5770   41.9210 H   0  0  0  0  0  0  0  0  0  0  0  0
   43.5060   33.3760   41.6840 H   0  0  0  0  0  0  0  0  0  0  0  0
   43.8500   33.9570   39.5970 H   0  0  0  0  0  0  0  0  0  0  0  0
   41.9730   35.6030   38.6670 H   0  0  0  0  0  0  0  0  0  0  0  0
   39.9970   33.9100   38.4870 H   0  0  0  0  0  0  0  0  0  0  0  0
   40.0630   35.1030   39.8040 H   0  0  0  0  0  0  0  0  0  0  0  0
   42.3130   33.6760   37.8130 C   0  0  0  0  0  0  0  0  0  0  0  0
   43.2950   32.7520   38.1810 F   0  0  0  0  0  0  0  0  0  0  0  0
   42.8970   34.5080   36.8830 F   0  0  0  0  0  0  0  0  0  0  0  0
   41.2660   32.9700   37.3070 F   0  0  0  0  0  0  0  0  0  0  0  0
   38.1190   29.2910   42.1430 C   0  0  0  0  0  0  0  0  0  0  0  0
   36.9530   28.6290   42.4560 C   0  0  0  0  0  0  0  0  0  0  0  0
   37.0320   27.4600   43.2030 C   0  0  0  0  0  0  0  0  0  0  0  0
   38.2910   27.0630   43.5690 C   0  0  0  0  0  0  0  0  0  0  0  0
   39.4730   27.7150   43.2640 C   0  0  0  0  0  0  0  0  0  0  0  0
   39.3570   28.8480   42.5370 N   0  0  0  0  0  0  0  0  0  0  0  0
   35.9890   28.9920   42.1380 H   0  0  0  0  0  0  0  0  0  0  0  0
   36.1670   26.8800   43.4910 H   0  0  0  0  0  0  0  0  0  0  0  0
   38.3960   26.1580   44.1510 H   0  0  0  0  0  0  0  0  0  0  0  0
   40.7920   27.2270   43.6930 C   0  0  0  0  0  3  0  0  0  0  0  0
   41.8170   28.2370   43.2610 C   0  0  0  0  0  2  0  0  0  0  0  0
   42.6720   27.5850   42.1710 C   0  0  0  0  0  2  0  0  0  0  0  0
   43.5100   26.5430   42.9080 C   0  0  0  0  0  2  0  0  0  0  0  0
   42.5800   25.5770   43.5810 C   0  0  0  0  0  2  0  0  0  0  0  0
   41.1230   25.8360   43.2540 C   0  0  0  0  0  2  0  0  0  0  0  0
  1  6  1  0  0  0  0
  2  1  2  0  0  0  0
  2  3  1  0  0  0  0
  3  4  2  0  0  0  0
  4  5  1  0  0  0  0
  5 27  1  0  0  0  0
  6  5  2  0  0  0  0
  7  1  1  0  0  0  0
  8  2  1  0  0  0  0
  9  3  1  0  0  0  0
  9 10  1  0  0  0  0
 10 11  1  0  0  0  0
 10 15  1  0  0  0  0
 11 18  1  0  0  0  0
 11 17  1  0  0  0  0
 12 11  1  0  0  0  0
 13 20  1  6  0  0  0
 13 14  1  0  0  0  0
 13 12  1  0  0  0  0
 14 22  1  0  0  0  0
 14  9  1  0  0  0  0
 16 10  1  0  0  0  0
 19 12  1  0  0  0  0
 21 14  1  0  0  0  0
 23 24  1  0  0  0  0
 23 13  1  0  0  0  0
 25 23  1  0  0  0  0
 26 23  1  0  0  0  0
 27 28  2  0  0  0  0
 27 32  1  0  0  0  0
 28 29  1  0  0  0  0
 29 34  1  0  0  0  0
 29 30  2  0  0  0  0
 30 35  1  0  0  0  0
 31 30  1  0  0  0  0
 31 36  1  0  0  0  0
 32 31  2  0  0  0  0
 33 28  1  0  0  0  0
 37 36  1  0  0  0  0
 38 39  1  0  0  0  0
 38 37  1  0  0  0  0
 39 40  1  0  0  0  0
 41 40  1  0  0  0  0
 41 36  1  0  0  0  0
M  END
>  <minimizedAffinity>
-6.56958199

$$$$

 OpenBabel03242522093D

 41 44  0  0  1  0  0  0  0  0999 V2000
   38.0400   34.4680   39.7720 C   0  0  0  0  0  0  0  0  0  0  0  0
   39.4080   34.5360   40.0700 C   0  0  0  0  0  0  0  0  0  0  0  0
   40.0510   33.3930   40.5280 C   0  0  0  0  0  0  0  0  0  0  0  0
   39.2810   32.2770   40.6520 N   0  0  0  0  0  0  0  0  0  0  0  0
   37.9710   32.2420   40.3580 C   0  0  0  0  0  0  0  0  0  0  0  0
   37.3520   33.3470   39.9150 N   0  0  0  0  0  0  0  0  0  0  0  0
   37.5750   35.3750   39.4180 H   0  0  0  0  0  0  0  0  0  0  0  0
   40.0290   35.4140   39.9770 H   0  0  0  0  0  0  0  0  0  0  0  0
   41.4320   33.3220   40.8680 N   0  0  0  0  0  0  0  0  0  0  0  0
   41.9840   32.1120   41.4290 C   0  0  0  0  0  0  0  0  0  0  0  0
   43.2720   32.3840   42.1780 C   0  0  0  0  0  0  0  0  0  0  0  0
   44.2180   33.1260   41.4600 N   0  0  0  0  0  0  0  0  0  0  0  0
   43.7320   34.1610   40.6010 C   0  0  2  0  0  0  0  0  0  0  0  0
   42.2910   34.4460   40.6600 C   0  0  0  0  0  0  0  0  0  0  0  0
   41.2490   31.7250   42.1670 H   0  0  0  0  0  0  0  0  0  0  0  0
   42.1080   31.3330   40.6560 H   0  0  0  0  0  0  0  0  0  0  0  0
   43.0170   32.8670   43.1370 H   0  0  0  0  0  0  0  0  0  0  0  0
   43.6970   31.3910   42.4180 H   0  0  0  0  0  0  0  0  0  0  0  0
   44.9130   32.4960   40.9660 H   0  0  0  0  0  0  0  0  0  0  0  0
   44.2980   35.0860   40.8710 H   0  0  0  0  0  0  0  0  0  0  0  0
   41.9810   34.9140   39.6860 H   0  0  0  0  0  0  0  0  0  0  0  0
   42.0940   35.2420   41.4310 H   0  0  0  0  0  0  0  0  0  0  0  0
   44.0750   33.8070   39.1760 C   0  0  0  0  0  0  0  0  0  0  0  0
   45.2460   34.4670   38.7920 F   0  0  0  0  0  0  0  0  0  0  0  0
   43.0680   34.3200   38.3880 F   0  0  0  0  0  0  0  0  0  0  0  0
   44.2780   32.4770   38.9750 F   0  0  0  0  0  0  0  0  0  0  0  0
   37.2260   30.9880   40.5240 C   0  0  0  0  0  0  0  0  0  0  0  0
   36.0780   30.7800   39.7920 C   0  0  0  0  0  0  0  0  0  0  0  0
   35.3880   29.5870   39.9640 C   0  0  0  0  0  0  0  0  0  0  0  0
   35.9230   28.7060   40.8670 C   0  0  0  0  0  0  0  0  0  0  0  0
   37.0730   28.8980   41.6110 C   0  0  0  0  0  0  0  0  0  0  0  0
   37.7180   30.0700   41.4170 N   0  0  0  0  0  0  0  0  0  0  0  0
   35.7060   31.5140   39.0950 H   0  0  0  0  0  0  0  0  0  0  0  0
   34.4800   29.3430   39.4310 H   0  0  0  0  0  0  0  0  0  0  0  0
   35.4150   27.7650   41.0300 H   0  0  0  0  0  0  0  0  0  0  0  0
   37.5880   27.9030   42.5640 C   0  0  0  0  0  3  0  0  0  0  0  0
   38.5910   28.5910   43.4460 C   0  0  0  0  0  2  0  0  0  0  0  0
   39.9670   28.0040   43.1170 C   0  0  0  0  0  2  0  0  0  0  0  0
   39.9290   26.5870   43.6830 C   0  0  0  0  0  2  0  0  0  0  0  0
   38.8030   25.8440   43.0280 C   0  0  0  0  0  2  0  0  0  0  0  0
   38.1170   26.6510   41.9430 C   0  0  0  0  0  2  0  0  0  0  0  0
  1  6  2  0  0  0  0
  1  2  1  0  0  0  0
  2  3  2  0  0  0  0
  3  4  1  0  0  0  0
  3  9  1  0  0  0  0
  5 27  1  0  0  0  0
  5  4  2  0  0  0  0
  6  5  1  0  0  0  0
  7  1  1  0  0  0  0
  8  2  1  0  0  0  0
  9 10  1  0  0  0  0
 10 15  1  0  0  0  0
 10 11  1  0  0  0  0
 11 18  1  0  0  0  0
 11 17  1  0  0  0  0
 12 11  1  0  0  0  0
 13 14  1  0  0  0  0
 13 20  1  1  0  0  0
 13 12  1  0  0  0  0
 14  9  1  0  0  0  0
 14 22  1  0  0  0  0
 16 10  1  0  0  0  0
 19 12  1  0  0  0  0
 21 14  1  0  0  0  0
 23 13  1  0  0  0  0
 24 23  1  0  0  0  0
 25 23  1  0  0  0  0
 26 23  1  0  0  0  0
 27 32  1  0  0  0  0
 28 29  1  0  0  0  0
 28 27  2  0  0  0  0
 29 30  2  0  0  0  0
 30 35  1  0  0  0  0
 30 31  1  0  0  0  0
 31 36  1  0  0  0  0
 32 31  2  0  0  0  0
 33 28  1  0  0  0  0
 34 29  1  0  0  0  0
 36 37  1  0  0  0  0
 38 37  1  0  0  0  0
 38 39  1  0  0  0  0
 40 39  1  0  0  0  0
 41 36  1  0  0  0  0
 41 40  1  0  0  0  0
M  END
>  <minimizedAffinity>
-6.53636551

$$$$

 OpenBabel03242522093D

 41 44  0  0  1  0  0  0  0  0999 V2000
   41.8130   31.2460   42.9920 C   0  0  0  0  0  0  0  0  0  0  0  0
   42.1690   31.8690   41.7880 C   0  0  0  0  0  0  0  0  0  0  0  0
   41.3570   31.6880   40.6760 C   0  0  0  0  0  0  0  0  0  0  0  0
   40.2590   30.9040   40.8520 N   0  0  0  0  0  0  0  0  0  0  0  0
   39.9420   30.3210   42.0200 C   0  0  0  0  0  0  0  0  0  0  0  0
   40.7270   30.4960   43.0940 N   0  0  0  0  0  0  0  0  0  0  0  0
   42.4660   31.4100   43.8350 H   0  0  0  0  0  0  0  0  0  0  0  0
   43.0360   32.4920   41.6350 H   0  0  0  0  0  0  0  0  0  0  0  0
   41.6010   32.2590   39.3950 N   0  0  0  0  0  0  0  0  0  0  0  0
   42.3440   33.4920   39.2750 C   0  0  0  0  0  0  0  0  0  0  0  0
   42.0610   34.1850   37.9590 C   0  0  0  0  0  0  0  0  0  0  0  0
   42.1890   33.3670   36.8300 N   0  0  0  0  0  0  0  0  0  0  0  0
   41.7740   32.0040   36.9500 C   0  0  2  0  0  0  0  0  0  0  0  0
   41.1150   31.6250   38.2090 C   0  0  0  0  0  0  0  0  0  0  0  0
   41.9950   34.1670   40.0860 H   0  0  0  0  0  0  0  0  0  0  0  0
   43.4240   33.3250   39.4350 H   0  0  0  0  0  0  0  0  0  0  0  0
   41.0590   34.6430   38.0190 H   0  0  0  0  0  0  0  0  0  0  0  0
   42.7920   35.0140   37.8920 H   0  0  0  0  0  0  0  0  0  0  0  0
   43.1540   33.4490   36.3980 H   0  0  0  0  0  0  0  0  0  0  0  0
   41.0740   31.8120   36.1000 H   0  0  0  0  0  0  0  0  0  0  0  0
   41.2460   30.5180   38.3590 H   0  0  0  0  0  0  0  0  0  0  0  0
   40.0030   31.7660   38.1120 H   0  0  0  0  0  0  0  0  0  0  0  0
   42.9770   31.1140   36.7720 C   0  0  0  0  0  0  0  0  0  0  0  0
   44.1340   31.8940   36.6820 F   0  0  0  0  0  0  0  0  0  0  0  0
   42.8340   30.4960   35.5480 F   0  0  0  0  0  0  0  0  0  0  0  0
   43.1640   30.2330   37.7910 F   0  0  0  0  0  0  0  0  0  0  0  0
   38.7330   29.4920   42.1100 C   0  0  0  0  0  0  0  0  0  0  0  0
   38.3600   28.9690   43.3280 C   0  0  0  0  0  0  0  0  0  0  0  0
   37.2130   28.1880   43.3920 C   0  0  0  0  0  0  0  0  0  0  0  0
   36.5420   28.0040   42.2110 C   0  0  0  0  0  0  0  0  0  0  0  0
   36.9030   28.5200   40.9800 C   0  0  0  0  0  0  0  0  0  0  0  0
   38.0240   29.2750   40.9560 N   0  0  0  0  0  0  0  0  0  0  0  0
   38.9300   29.1510   44.2250 H   0  0  0  0  0  0  0  0  0  0  0  0
   36.8490   27.7400   44.3060 H   0  0  0  0  0  0  0  0  0  0  0  0
   35.6440   27.4020   42.2190 H   0  0  0  0  0  0  0  0  0  0  0  0
   36.1310   28.2780   39.7520 C   0  0  0  0  0  3  0  0  0  0  0  0
   37.0350   28.5470   38.5820 C   0  0  0  0  0  2  0  0  0  0  0  0
   36.5060   29.7960   37.8720 C   0  0  0  0  0  2  0  0  0  0  0  0
   35.2100   29.3430   37.2040 C   0  0  0  0  0  2  0  0  0  0  0  0
   34.2820   28.8350   38.2670 C   0  0  0  0  0  2  0  0  0  0  0  0
   34.8330   29.0160   39.6670 C   0  0  0  0  0  2  0  0  0  0  0  0
  1  6  1  0  0  0  0
  1  7  1  0  0  0  0
  2  1  2  0  0  0  0
  3  4  2  0  0  0  0
  3  2  1  0  0  0  0
  4  5  1  0  0  0  0
  5 27  1  0  0  0  0
  5  6  2  0  0  0  0
  8  2  1  0  0  0  0
  9  3  1  0  0  0  0
 10  9  1  0  0  0  0
 10 16  1  0  0  0  0
 10 15  1  0  0  0  0
 11 17  1  0  0  0  0
 11 10  1  0  0  0  0
 12 13  1  0  0  0  0
 12 11  1  0  0  0  0
 13 20  1  6  0  0  0
 13 14  1  0  0  0  0
 14 21  1  0  0  0  0
 14  9  1  0  0  0  0
 18 11  1  0  0  0  0
 19 12  1  0  0  0  0
 22 14  1  0  0  0  0
 23 13  1  0  0  0  0
 23 26  1  0  0  0  0
 24 23  1  0  0  0  0
 25 23  1  0  0  0  0
 27 28  1  0  0  0  0
 28 29  2  0  0  0  0
 28 33  1  0  0  0  0
 29 34  1  0  0  0  0
 30 35  1  0  0  0  0
 30 29  1  0  0  0  0
 31 30  2  0  0  0  0
 32 31  1  0  0  0  0
 32 27  2  0  0  0  0
 36 31  1  0  0  0  0
 37 36  1  0  0  0  0
 38 37  1  0  0  0  0
 39 38  1  0  0  0  0
 39 40  1  0  0  0  0
 40 41  1  0  0  0  0
 41 36  1  0  0  0  0
M  END
>  <minimizedAffinity>
-6.43036366

$$$$

 OpenBabel03242522093D

 41 44  0  0  1  0  0  0  0  0999 V2000
   43.4300   31.4920   41.0390 C   0  0  0  0  0  0  0  0  0  0  0  0
   42.2820   32.2160   40.6910 C   0  0  0  0  0  0  0  0  0  0  0  0
   41.0360   31.6830   41.0010 C   0  0  0  0  0  0  0  0  0  0  0  0
   41.0360   30.4770   41.6300 N   0  0  0  0  0  0  0  0  0  0  0  0
   42.1540   29.8070   41.9520 C   0  0  0  0  0  0  0  0  0  0  0  0
   43.3570   30.3220   41.6530 N   0  0  0  0  0  0  0  0  0  0  0  0
   44.3800   31.9360   40.7830 H   0  0  0  0  0  0  0  0  0  0  0  0
   42.2690   33.1720   40.1910 H   0  0  0  0  0  0  0  0  0  0  0  0
   39.7930   32.3100   40.7040 N   0  0  0  0  0  0  0  0  0  0  0  0
   39.7590   33.5540   39.9720 C   0  0  0  0  0  0  0  0  0  0  0  0
   38.4600   34.2980   40.2010 C   0  0  0  0  0  0  0  0  0  0  0  0
   37.3060   33.5290   40.0110 N   0  0  0  0  0  0  0  0  0  0  0  0
   37.3510   32.1580   40.4150 C   0  0  2  0  0  0  0  0  0  0  0  0
   38.5610   31.7200   41.1260 C   0  0  0  0  0  0  0  0  0  0  0  0
   40.5790   34.1910   40.3660 H   0  0  0  0  0  0  0  0  0  0  0  0
   39.9620   33.3920   38.8980 H   0  0  0  0  0  0  0  0  0  0  0  0
   38.4920   34.7430   41.2110 H   0  0  0  0  0  0  0  0  0  0  0  0
   38.4620   35.1370   39.4790 H   0  0  0  0  0  0  0  0  0  0  0  0
   36.9230   33.6400   39.0280 H   0  0  0  0  0  0  0  0  0  0  0  0
   36.4620   31.9940   41.0720 H   0  0  0  0  0  0  0  0  0  0  0  0
   38.6710   30.6090   40.9890 H   0  0  0  0  0  0  0  0  0  0  0  0
   38.4170   31.8530   42.2340 H   0  0  0  0  0  0  0  0  0  0  0  0
   37.1920   31.2890   39.1930 C   0  0  0  0  0  0  0  0  0  0  0  0
   37.1590   32.0860   38.0460 F   0  0  0  0  0  0  0  0  0  0  0  0
   35.9510   30.6980   39.2870 F   0  0  0  0  0  0  0  0  0  0  0  0
   38.1970   30.3870   39.0280 F   0  0  0  0  0  0  0  0  0  0  0  0
   42.0500   28.5100   42.6330 C   0  0  0  0  0  0  0  0  0  0  0  0
   43.1660   27.9650   43.2270 C   0  0  0  0  0  0  0  0  0  0  0  0
   43.0460   26.7380   43.8660 C   0  0  0  0  0  0  0  0  0  0  0  0
   41.8000   26.1670   43.8460 C   0  0  0  0  0  0  0  0  0  0  0  0
   40.6690   26.6990   43.2540 C   0  0  0  0  0  0  0  0  0  0  0  0
   40.8240   27.8940   42.6420 N   0  0  0  0  0  0  0  0  0  0  0  0
   44.1220   28.4640   43.2090 H   0  0  0  0  0  0  0  0  0  0  0  0
   43.8700   26.2400   44.3570 H   0  0  0  0  0  0  0  0  0  0  0  0
   41.6650   25.2110   44.3320 H   0  0  0  0  0  0  0  0  0  0  0  0
   39.3620   26.0260   43.2740 C   0  0  0  0  0  3  0  0  0  0  0  0
   39.5970   24.5600   43.0410 C   0  0  0  0  0  2  0  0  0  0  0  0
   39.0070   24.2130   41.6710 C   0  0  0  0  0  2  0  0  0  0  0  0
   37.4950   24.2890   41.8710 C   0  0  0  0  0  2  0  0  0  0  0  0
   37.1460   25.6750   42.3260 C   0  0  0  0  0  2  0  0  0  0  0  0
   38.3410   26.6070   42.3480 C   0  0  0  0  0  2  0  0  0  0  0  0
  1  6  1  0  0  0  0
  2  3  1  0  0  0  0
  2  1  2  0  0  0  0
  3  4  2  0  0  0  0
  4  5  1  0  0  0  0
  5 27  1  0  0  0  0
  6  5  2  0  0  0  0
  7  1  1  0  0  0  0
  8  2  1  0  0  0  0
  9  3  1  0  0  0  0
  9 14  1  0  0  0  0
 10 11  1  0  0  0  0
 10 15  1  0  0  0  0
 10  9  1  0  0  0  0
 11 17  1  0  0  0  0
 12 11  1  0  0  0  0
 12 13  1  0  0  0  0
 13 20  1  1  0  0  0
 13 14  1  0  0  0  0
 14 22  1  0  0  0  0
 16 10  1  0  0  0  0
 18 11  1  0  0  0  0
 19 12  1  0  0  0  0
 21 14  1  0  0  0  0
 23 25  1  0  0  0  0
 23 13  1  0  0  0  0
 24 23  1  0  0  0  0
 26 23  1  0  0  0  0
 27 32  2  0  0  0  0
 27 28  1  0  0  0  0
 28 29  2  0  0  0  0
 29 34  1  0  0  0  0
 30 29  1  0  0  0  0
 30 35  1  0  0  0  0
 31 36  1  0  0  0  0
 31 30  2  0  0  0  0
 32 31  1  0  0  0  0
 33 28  1  0  0  0  0
 37 36  1  0  0  0  0
 38 39  1  0  0  0  0
 38 37  1  0  0  0  0
 39 40  1  0  0  0  0
 40 41  1  0  0  0  0
 41 36  1  0  0  0  0
M  END
>  <minimizedAffinity>
-6.31470299

$$$$

 OpenBabel03242522093D

 41 44  0  0  1  0  0  0  0  0999 V2000
   36.3240   31.1540   40.8600 C   0  0  0  0  0  0  0  0  0  0  0  0
   37.3320   32.0390   40.4490 C   0  0  0  0  0  0  0  0  0  0  0  0
   38.6590   31.6560   40.5990 C   0  0  0  0  0  0  0  0  0  0  0  0
   38.8750   30.4280   41.1420 N   0  0  0  0  0  0  0  0  0  0  0  0
   37.8880   29.6010   41.5250 C   0  0  0  0  0  0  0  0  0  0  0  0
   36.6070   29.9710   41.3810 N   0  0  0  0  0  0  0  0  0  0  0  0
   35.3060   31.4840   40.7280 H   0  0  0  0  0  0  0  0  0  0  0  0
   37.1740   33.0150   40.0180 H   0  0  0  0  0  0  0  0  0  0  0  0
   39.7770   32.4550   40.2260 N   0  0  0  0  0  0  0  0  0  0  0  0
   39.6860   33.8960   40.2550 C   0  0  0  0  0  0  0  0  0  0  0  0
   40.7350   34.5360   39.3690 C   0  0  0  0  0  0  0  0  0  0  0  0
   42.0390   34.0740   39.5820 N   0  0  0  0  0  0  0  0  0  0  0  0
   42.2070   32.6880   39.8930 C   0  0  2  0  0  0  0  0  0  0  0  0
   41.0040   31.8450   39.8180 C   0  0  0  0  0  0  0  0  0  0  0  0
   38.6920   34.1720   39.8420 H   0  0  0  0  0  0  0  0  0  0  0  0
   39.7250   34.2790   41.2900 H   0  0  0  0  0  0  0  0  0  0  0  0
   40.4230   34.4070   38.3180 H   0  0  0  0  0  0  0  0  0  0  0  0
   40.6930   35.6200   39.5880 H   0  0  0  0  0  0  0  0  0  0  0  0
   42.5670   34.6970   40.2580 H   0  0  0  0  0  0  0  0  0  0  0  0
   42.9720   32.2960   39.1790 H   0  0  0  0  0  0  0  0  0  0  0  0
   41.1560   30.9500   40.4820 H   0  0  0  0  0  0  0  0  0  0  0  0
   40.9080   31.4150   38.7830 H   0  0  0  0  0  0  0  0  0  0  0  0
   42.7680   32.5700   41.2870 C   0  0  0  0  0  0  0  0  0  0  0  0
   44.1230   32.2300   41.2260 F   0  0  0  0  0  0  0  0  0  0  0  0
   42.1300   31.5030   41.8810 F   0  0  0  0  0  0  0  0  0  0  0  0
   42.6730   33.7160   42.0150 F   0  0  0  0  0  0  0  0  0  0  0  0
   38.2240   28.2920   42.1020 C   0  0  0  0  0  0  0  0  0  0  0  0
   39.1700   28.2140   43.0990 C   0  0  0  0  0  0  0  0  0  0  0  0
   39.4720   26.9670   43.6300 C   0  0  0  0  0  0  0  0  0  0  0  0
   38.7870   25.9040   43.1020 C   0  0  0  0  0  0  0  0  0  0  0  0
   37.8350   25.9640   42.1010 C   0  0  0  0  0  0  0  0  0  0  0  0
   37.5660   27.1940   41.6080 N   0  0  0  0  0  0  0  0  0  0  0  0
   39.6760   29.0880   43.4740 H   0  0  0  0  0  0  0  0  0  0  0  0
   40.2010   26.8150   44.4140 H   0  0  0  0  0  0  0  0  0  0  0  0
   38.9940   24.9150   43.4890 H   0  0  0  0  0  0  0  0  0  0  0  0
   37.1390   24.7760   41.5830 C   0  0  0  0  0  3  0  0  0  0  0  0
   38.0710   23.6050   41.7140 C   0  0  0  0  0  2  0  0  0  0  0  0
   38.4620   23.1700   40.2980 C   0  0  0  0  0  2  0  0  0  0  0  0
   37.1960   22.5360   39.7260 C   0  0  0  0  0  2  0  0  0  0  0  0
   36.1020   23.5630   39.7430 C   0  0  0  0  0  2  0  0  0  0  0  0
   36.5800   24.9250   40.2040 C   0  0  0  0  0  2  0  0  0  0  0  0
  1  6  1  0  0  0  0
  2  3  1  0  0  0  0
  2  1  2  0  0  0  0
  3  4  2  0  0  0  0
  4  5  1  0  0  0  0
  5 27  1  0  0  0  0
  6  5  2  0  0  0  0
  7  1  1  0  0  0  0
  8  2  1  0  0  0  0
  9 10  1  0  0  0  0
  9  3  1  0  0  0  0
 10 16  1  0  0  0  0
 11 12  1  0  0  0  0
 11 18  1  0  0  0  0
 11 10  1  0  0  0  0
 12 13  1  0  0  0  0
 12 19  1  0  0  0  0
 13 20  1  6  0  0  0
 13 23  1  0  0  0  0
 14 13  1  0  0  0  0
 14  9  1  0  0  0  0
 14 21  1  0  0  0  0
 15 10  1  0  0  0  0
 17 11  1  0  0  0  0
 22 14  1  0  0  0  0
 23 25  1  0  0  0  0
 23 26  1  0  0  0  0
 24 23  1  0  0  0  0
 27 28  1  0  0  0  0
 28 33  1  0  0  0  0
 28 29  2  0  0  0  0
 29 34  1  0  0  0  0
 30 35  1  0  0  0  0
 30 29  1  0  0  0  0
 31 30  2  0  0  0  0
 32 31  1  0  0  0  0
 32 27  2  0  0  0  0
 36 37  1  0  0  0  0
 36 31  1  0  0  0  0
 38 37  1  0  0  0  0
 39 40  1  0  0  0  0
 39 38  1  0  0  0  0
 40 41  1  0  0  0  0
 41 36  1  0  0  0  0
M  END
>  <minimizedAffinity>
-6.28702497

$$$$
