
 OpenBabel03242520343D

 25 27  0  0  1  0  0  0  0  0999 V2000
   45.9010   33.1440   43.2420 C   0  0  0  0  0  0  0  0  0  0  0  0
   47.0560   32.6660   42.5440 C   0  0  0  0  0  0  0  0  0  0  0  0
   47.9280   31.8400   43.2280 C   0  0  0  0  0  0  0  0  0  0  0  0
   47.6390   31.5280   44.5200 N   0  0  0  0  0  0  0  0  0  0  0  0
   46.5490   31.9850   45.1580 C   0  0  0  0  0  0  0  0  0  0  0  0
   45.6990   32.7880   44.5010 N   0  0  0  0  0  0  0  0  0  0  0  0
   45.2390   33.7900   42.6750 H   0  0  0  0  0  0  0  0  0  0  0  0
   48.8230   31.4350   42.7760 H   0  0  0  0  0  0  0  0  0  0  0  0
   47.3400   33.0410   41.1240 C   0  0  1  0  0  0  0  0  0  0  0  0
   46.5830   34.1000   40.4890 C   0  0  0  0  0  0  0  0  0  0  0  0
   47.9890   34.3930   40.8610 C   0  0  1  0  0  0  0  0  0  0  0  0
   47.8420   32.2070   40.5910 H   0  0  0  0  0  0  0  0  0  0  0  0
   45.8020   34.6370   41.0770 H   0  0  0  0  0  0  0  0  0  0  0  0
   46.3530   34.1340   39.4050 H   0  0  0  0  0  0  0  0  0  0  0  0
   48.7420   34.4160   40.0290 H   0  0  0  0  0  0  0  0  0  0  0  0
   48.3180   35.3040   41.9940 C   0  0  0  0  0  0  0  0  0  0  0  0
   49.0850   36.3810   41.5870 F   0  0  0  0  0  0  0  0  0  0  0  0
   48.9960   34.6240   43.0070 F   0  0  0  0  0  0  0  0  0  0  0  0
   47.1480   35.8050   42.4940 F   0  0  0  0  0  0  0  0  0  0  0  0
   46.3070   31.5960   46.5720 C   0  0  0  0  0  0  0  0  0  0  0  0
   45.4430   30.3740   46.7320 C   0  0  0  0  0  0  0  0  0  0  0  0
   45.5990   29.9850   48.2080 C   0  0  0  0  0  0  0  0  0  0  0  0
   45.1790   31.1030   49.1190 C   0  0  0  0  0  0  0  0  0  0  0  0
   45.8190   32.4200   48.7840 C   0  0  0  0  0  0  0  0  0  0  0  0
   45.5830   32.7030   47.3130 C   0  0  0  0  0  0  0  0  0  0  0  0
  1  6  1  0  0  0  0
  2  3  1  0  0  0  0
  2  1  2  0  0  0  0
  3  4  2  0  0  0  0
  4  5  1  0  0  0  0
  5 20  1  0  0  0  0
  6  5  2  0  0  0  0
  7  1  1  0  0  0  0
  8  3  1  0  0  0  0
  9 12  1  6  0  0  0
  9  2  1  0  0  0  0
 10 11  1  0  0  0  0
 10 13  1  0  0  0  0
 10  9  1  0  0  0  0
 11 15  1  6  0  0  0
 11  9  1  0  0  0  0
 11 16  1  0  0  0  0
 14 10  1  0  0  0  0
 16 19  1  0  0  0  0
 16 18  1  0  0  0  0
 17 16  1  0  0  0  0
 20 21  1  0  0  0  0
 20 25  1  0  0  0  0
 21 22  1  0  0  0  0
 22 23  1  0  0  0  0
 24 23  1  0  0  0  0
 25 24  1  0  0  0  0
M  END
>  <minimizedAffinity>
-5.44903851

>  <minimizedRMSD>
2.23933506

$$$$
