
 OpenBabel03242523033D

 29 31  0  0  0  0  0  0  0  0999 V2000
   46.7490   34.8130   42.0850 N   0  0  0  0  0  0  0  0  0  0  0  0
   47.9560   35.5130   42.0380 C   0  0  0  0  0  0  0  0  0  0  0  0
   48.9070   35.0500   40.9610 C   0  0  0  0  0  0  0  0  0  0  0  0
   48.5970   33.9790   40.1570 N   0  0  0  0  0  0  0  0  0  0  0  0
   47.3120   33.4360   40.1770 C   0  0  0  0  0  0  0  0  0  0  0  0
   46.3120   34.2430   40.8460 C   0  0  0  0  0  0  0  0  0  0  0  0
   48.4250   35.9710   42.8900 H   0  0  0  0  0  0  0  0  0  0  0  0
   47.5580   36.5230   41.5420 H   0  0  0  0  0  0  0  0  0  0  0  0
   49.8540   34.7800   41.5390 H   0  0  0  0  0  0  0  0  0  0  0  0
   49.2580   35.8970   40.3340 H   0  0  0  0  0  0  0  0  0  0  0  0
   49.0150   34.0500   39.2260 H   0  0  0  0  0  0  0  0  0  0  0  0
   47.3110   32.3950   40.6020 H   0  0  0  0  0  0  0  0  0  0  0  0
   46.9940   33.2680   39.1010 H   0  0  0  0  0  0  0  0  0  0  0  0
   45.8340   35.0340   40.2010 H   0  0  0  0  0  0  0  0  0  0  0  0
   45.4190   33.5590   41.0590 H   0  0  0  0  0  0  0  0  0  0  0  0
   45.1790   35.9690   43.4190 C   0  0  0  0  0  0  0  0  0  0  0  0
   45.9900   34.8060   43.2960 C   0  0  0  0  0  0  0  0  0  0  0  0
   46.0920   33.8900   44.3100 C   0  0  0  0  0  0  0  0  0  0  0  0
   45.4050   34.1120   45.4590 N   0  0  0  0  0  0  0  0  0  0  0  0
   44.6220   35.2320   45.5920 C   0  0  0  0  0  0  0  0  0  0  0  0
   44.5050   36.1440   44.5980 N   0  0  0  0  0  0  0  0  0  0  0  0
   45.0800   36.7000   42.6340 H   0  0  0  0  0  0  0  0  0  0  0  0
   44.0700   35.4170   46.5110 H   0  0  0  0  0  0  0  0  0  0  0  0
   46.8010   32.5970   44.1910 C   0  0  0  0  0  0  0  0  0  0  0  0
   45.8780   31.6010   43.4000 C   0  0  0  0  0  0  0  0  0  0  0  0
   46.7530   30.4050   43.1810 C   0  0  0  0  0  0  0  0  0  0  0  0
   47.0950   29.7140   44.4480 C   0  0  0  0  0  0  0  0  0  0  0  0
   47.5710   30.6160   45.5450 C   0  0  0  0  0  0  0  0  0  0  0  0
   46.9980   31.9860   45.5220 C   0  0  0  0  0  0  0  0  0  0  0  0
  1 17  1  0  0  0  0
  2  1  1  0  0  0  0
  2  7  1  0  0  0  0
  3  9  1  0  0  0  0
  3  2  1  0  0  0  0
  4  5  1  0  0  0  0
  4  3  1  0  0  0  0
  5 12  1  0  0  0  0
  5  6  1  0  0  0  0
  6 15  1  0  0  0  0
  6  1  1  0  0  0  0
  8  2  1  0  0  0  0
 10  3  1  0  0  0  0
 11  4  1  0  0  0  0
 13  5  1  0  0  0  0
 14  6  1  0  0  0  0
 16 21  1  0  0  0  0
 17 16  2  0  0  0  0
 17 18  1  0  0  0  0
 18 19  2  0  0  0  0
 19 20  1  0  0  0  0
 20 23  1  0  0  0  0
 21 20  2  0  0  0  0
 22 16  1  0  0  0  0
 24 18  1  0  0  0  0
 24 29  1  0  0  0  0
 25 24  1  0  0  0  0
 26 25  1  0  0  0  0
 26 27  1  0  0  0  0
 27 28  1  0  0  0  0
 29 28  1  0  0  0  0
M  END
>  <minimizedAffinity>
-4.63652897

>  <minimizedRMSD>
3.39476013

$$$$
