
 OpenBabel03242517593D

 21 22  0  0  1  0  0  0  0  0999 V2000
   46.6210   34.7410   41.6740 C   0  0  0  0  0  0  0  0  0  0  0  0
   46.6660   33.6530   41.4570 H   0  0  0  0  0  0  0  0  0  0  0  0
   46.0690   35.3090   40.9280 H   0  0  0  0  0  0  0  0  0  0  0  0
   45.1750   36.0100   43.2360 C   0  0  0  0  0  0  0  0  0  0  0  0
   45.9790   34.8810   42.9800 C   0  0  0  0  0  0  0  0  0  0  0  0
   46.1050   33.9560   44.0200 C   0  0  0  0  0  0  0  0  0  0  0  0
   45.4610   34.1940   45.1880 N   0  0  0  0  0  0  0  0  0  0  0  0
   44.7060   35.2860   45.3830 C   0  0  0  0  0  0  0  0  0  0  0  0
   44.5630   36.1970   44.4010 N   0  0  0  0  0  0  0  0  0  0  0  0
   45.0560   36.7530   42.4390 H   0  0  0  0  0  0  0  0  0  0  0  0
   46.7140   33.0790   43.8570 H   0  0  0  0  0  0  0  0  0  0  0  0
   44.1750   35.5160   46.2980 H   0  0  0  0  0  0  0  0  0  0  0  0
   47.9950   35.3650   41.7610 C   0  0  0  0  0  0  0  0  0  0  0  0
   48.1770   35.6830   42.8250 H   0  0  0  0  0  0  0  0  0  0  0  0
   48.0260   36.2250   41.0790 H   0  0  0  0  0  0  0  0  0  0  0  0
   49.0110   34.3140   41.4550 C   0  0  2  0  0  0  0  0  0  0  0  0
   48.4170   32.9920   41.0780 C   0  0  0  0  0  0  0  0  0  0  0  0
   49.5150   32.1110   40.5480 C   0  0  0  0  0  0  0  0  0  0  0  0
   50.8280   32.2490   41.1880 C   0  0  0  0  0  0  0  0  0  0  0  0
   51.0050   33.1650   42.3320 C   0  0  0  0  0  0  0  0  0  0  0  0
   49.8230   34.0230   42.6860 C   0  0  0  0  0  0  0  0  0  0  0  0
  1 13  1  0  0  0  0
  1  5  1  0  0  0  0
  2  1  1  0  0  0  0
  3  1  1  0  0  0  0
  4  9  1  0  0  0  0
  5  4  2  0  0  0  0
  5  6  1  0  0  0  0
  6  7  2  0  0  0  0
  7  8  1  0  0  0  0
  8 12  1  0  0  0  0
  9  8  2  0  0  0  0
 10  4  1  0  0  0  0
 11  6  1  0  0  0  0
 13 14  1  0  0  0  0
 15 13  1  0  0  0  0
 16 13  1  1  0  0  0
 16 21  1  0  0  0  0
 17 16  1  0  0  0  0
 18 17  1  0  0  0  0
 18 19  2  0  0  0  0
 19 20  1  0  0  0  0
 20 21  1  0  0  0  0
M  END
>  <minimizedAffinity>
-4.67917728

>  <minimizedRMSD>
2.59149265

$$$$
