
 OpenBabel03242521403D

 18 19  0  0  0  0  0  0  0  0999 V2000
   44.1200   34.8720   41.3810 C   0  0  0  0  0  0  0  0  0  0  0  0
   45.4740   34.5160   41.4340 C   0  0  0  0  0  0  0  0  0  0  0  0
   46.1840   34.8060   42.6150 C   0  0  0  0  0  0  0  0  0  0  0  0
   45.5030   35.4100   43.6170 N   0  0  0  0  0  0  0  0  0  0  0  0
   44.1940   35.7370   43.5260 C   0  0  0  0  0  0  0  0  0  0  0  0
   43.4970   35.4710   42.4100 N   0  0  0  0  0  0  0  0  0  0  0  0
   45.9420   34.0300   40.5730 H   0  0  0  0  0  0  0  0  0  0  0  0
   43.6960   36.2190   44.3580 H   0  0  0  0  0  0  0  0  0  0  0  0
   47.5970   34.4480   42.6990 C   0  0  0  0  0  0  0  0  0  0  0  0
   48.4700   35.3090   41.7890 C   0  0  0  0  0  0  0  0  0  0  0  0
   49.8570   35.1950   42.4330 C   0  0  0  0  0  0  0  0  0  0  0  0
   50.3380   33.7780   42.2460 C   0  0  0  0  0  0  0  0  0  0  0  0
   49.3460   32.7280   42.5690 C   0  0  0  0  0  0  0  0  0  0  0  0
   47.9110   33.0260   42.3750 C   0  0  0  0  0  0  0  0  0  0  0  0
   43.3770   34.5570   40.1190 C   0  0  0  0  0  0  0  0  0  0  0  0
   42.8760   33.5690   40.2070 H   0  0  0  0  0  0  0  0  0  0  0  0
   42.6590   35.3310   39.8440 H   0  0  0  0  0  0  0  0  0  0  0  0
   44.1170   34.4850   39.2730 H   0  0  0  0  0  0  0  0  0  0  0  0
  1  2  2  0  0  0  0
  1  6  1  0  0  0  0
  2  3  1  0  0  0  0
  3  9  1  0  0  0  0
  3  4  2  0  0  0  0
  5  4  1  0  0  0  0
  5  8  1  0  0  0  0
  6  5  2  0  0  0  0
  7  2  1  0  0  0  0
 10 11  1  0  0  0  0
 10  9  1  0  0  0  0
 12 11  1  0  0  0  0
 12 13  1  0  0  0  0
 14 13  1  0  0  0  0
 14  9  1  0  0  0  0
 15 16  1  0  0  0  0
 15  1  1  0  0  0  0
 17 15  1  0  0  0  0
 18 15  1  0  0  0  0
M  END
>  <minimizedAffinity>
-4.50674772

>  <minimizedRMSD>
3.23101068

$$$$
