
 OpenBabel03252507093D

 21 22  0  0  0  0  0  0  0  0999 V2000
   38.6770   34.1520   40.5270 C   0  0  0  0  0  0  0  0  0  0  0  0
   39.9620   34.1440   39.9230 C   0  0  0  0  0  0  0  0  0  0  0  0
   40.5280   32.9090   39.6430 C   0  0  0  0  0  0  0  0  0  0  0  0
   39.8420   31.7830   39.9520 N   0  0  0  0  0  0  0  0  0  0  0  0
   38.6250   31.8080   40.5250 C   0  0  0  0  0  0  0  0  0  0  0  0
   38.0390   32.9830   40.8130 N   0  0  0  0  0  0  0  0  0  0  0  0
   38.2640   35.1310   40.7330 H   0  0  0  0  0  0  0  0  0  0  0  0
   40.4490   35.0660   39.7040 H   0  0  0  0  0  0  0  0  0  0  0  0
   37.9730   30.5050   40.8160 C   0  0  0  0  0  3  0  0  0  0  0  0
   36.4760   30.7250   40.9380 C   0  0  0  0  0  2  0  0  0  0  0  0
   35.7480   29.4240   40.8470 C   0  0  0  0  0  2  0  0  0  0  0  0
   36.5020   28.3880   41.6270 C   0  0  0  0  0  2  0  0  0  0  0  0
   37.3930   28.9720   42.7070 C   0  0  0  0  0  2  0  0  0  0  0  0
   38.4070   29.9250   42.1550 C   0  0  0  0  0  2  0  0  0  0  0  0
   41.7900   32.9050   39.0500 O   0  0  0  0  0  0  0  0  0  0  0  0
   42.9020   31.5920   37.0520 O   0  0  0  0  0  0  0  0  0  0  0  0
   41.9170   32.7070   37.3500 P   0  0  0  0  0  0  0  0  0  0  0  0
   40.4050   32.3840   36.7190 O   0  0  0  0  0  0  0  0  0  0  0  0
   40.1420   33.0920   36.0870 H   0  0  0  0  0  0  0  0  0  0  0  0
   42.5480   34.1520   36.7150 O   0  0  0  0  0  0  0  0  0  0  0  0
   41.8720   34.8720   36.7110 H   0  0  0  0  0  0  0  0  0  0  0  0
  1  7  1  0  0  0  0
  1  6  1  0  0  0  0
  2  1  2  0  0  0  0
  3  2  1  0  0  0  0
  3  4  2  0  0  0  0
  4  5  1  0  0  0  0
  5  6  2  0  0  0  0
  5  9  1  0  0  0  0
  8  2  1  0  0  0  0
  9 10  1  0  0  0  0
  9 14  1  0  0  0  0
 11 10  1  0  0  0  0
 11 12  1  0  0  0  0
 12 13  1  0  0  0  0
 14 13  1  0  0  0  0
 15  3  1  0  0  0  0
 16 17  2  0  0  0  0
 17 15  1  0  0  0  0
 18 17  1  0  0  0  0
 19 18  1  0  0  0  0
 20 17  1  0  0  0  0
 21 20  1  0  0  0  0
M  END
>  <minimizedAffinity>
-5.64786673

$$$$

 OpenBabel03252507093D

 21 22  0  0  0  0  0  0  0  0999 V2000
   39.1940   28.0990   43.2680 C   0  0  0  0  0  0  0  0  0  0  0  0
   39.1580   29.3870   42.6730 C   0  0  0  0  0  0  0  0  0  0  0  0
   38.3770   29.5450   41.5380 C   0  0  0  0  0  0  0  0  0  0  0  0
   37.6910   28.4810   41.0550 N   0  0  0  0  0  0  0  0  0  0  0  0
   37.7360   27.2670   41.6320 C   0  0  0  0  0  0  0  0  0  0  0  0
   38.4800   27.0700   42.7330 N   0  0  0  0  0  0  0  0  0  0  0  0
   39.8120   28.0090   44.1520 H   0  0  0  0  0  0  0  0  0  0  0  0
   39.7200   30.1840   43.1020 H   0  0  0  0  0  0  0  0  0  0  0  0
   36.9400   26.1790   41.0080 C   0  0  0  0  0  3  0  0  0  0  0  0
   37.7670   24.9060   41.0100 C   0  0  0  0  0  2  0  0  0  0  0  0
   36.8990   23.7180   40.7550 C   0  0  0  0  0  2  0  0  0  0  0  0
   35.9050   24.0600   39.6860 C   0  0  0  0  0  2  0  0  0  0  0  0
   36.3520   25.1940   38.7830 C   0  0  0  0  0  2  0  0  0  0  0  0
   36.6250   26.4550   39.5450 C   0  0  0  0  0  2  0  0  0  0  0  0
   38.3440   30.8120   40.9550 O   0  0  0  0  0  0  0  0  0  0  0  0
   36.6550   30.9600   38.9370 O   0  0  0  0  0  0  0  0  0  0  0  0
   36.8540   31.4260   40.3670 P   0  0  0  0  0  0  0  0  0  0  0  0
   35.6160   30.9170   41.3640 O   0  0  0  0  0  0  0  0  0  0  0  0
   35.1700   31.6930   41.7750 H   0  0  0  0  0  0  0  0  0  0  0  0
   36.9710   33.1220   40.3560 O   0  0  0  0  0  0  0  0  0  0  0  0
   36.9140   33.4960   41.2680 H   0  0  0  0  0  0  0  0  0  0  0  0
  1  7  1  0  0  0  0
  2  8  1  0  0  0  0
  2  1  2  0  0  0  0
  3  2  1  0  0  0  0
  4  3  2  0  0  0  0
  4  5  1  0  0  0  0
  5  6  2  0  0  0  0
  6  1  1  0  0  0  0
  9 10  1  0  0  0  0
  9  5  1  0  0  0  0
 11 10  1  0  0  0  0
 12 11  1  0  0  0  0
 13 14  1  0  0  0  0
 13 12  1  0  0  0  0
 14  9  1  0  0  0  0
 15  3  1  0  0  0  0
 16 17  2  0  0  0  0
 17 15  1  0  0  0  0
 17 18  1  0  0  0  0
 18 19  1  0  0  0  0
 20 17  1  0  0  0  0
 20 21  1  0  0  0  0
M  END
>  <minimizedAffinity>
-5.37878275

$$$$

 OpenBabel03252507093D

 21 22  0  0  0  0  0  0  0  0999 V2000
   35.5070   28.1750   37.0680 C   0  0  0  0  0  0  0  0  0  0  0  0
   35.9770   29.4870   37.3360 C   0  0  0  0  0  0  0  0  0  0  0  0
   36.6250   29.6990   38.5440 C   0  0  0  0  0  0  0  0  0  0  0  0
   36.7790   28.6620   39.4020 N   0  0  0  0  0  0  0  0  0  0  0  0
   36.3270   27.4240   39.1320 C   0  0  0  0  0  0  0  0  0  0  0  0
   35.6950   27.1740   37.9730 N   0  0  0  0  0  0  0  0  0  0  0  0
   35.0060   28.0430   36.1180 H   0  0  0  0  0  0  0  0  0  0  0  0
   35.8250   30.2610   36.6200 H   0  0  0  0  0  0  0  0  0  0  0  0
   36.5570   26.3690   40.1520 C   0  0  0  0  0  3  0  0  0  0  0  0
   37.1990   27.0020   41.3740 C   0  0  0  0  0  2  0  0  0  0  0  0
   37.1010   26.0860   42.5490 C   0  0  0  0  0  2  0  0  0  0  0  0
   37.3780   24.6830   42.0990 C   0  0  0  0  0  2  0  0  0  0  0  0
   38.2000   24.6050   40.8270 C   0  0  0  0  0  2  0  0  0  0  0  0
   37.5430   25.3090   39.6800 C   0  0  0  0  0  2  0  0  0  0  0  0
   37.0850   30.9900   38.8050 O   0  0  0  0  0  0  0  0  0  0  0  0
   38.2710   31.0670   41.1580 O   0  0  0  0  0  0  0  0  0  0  0  0
   37.0530   31.5810   40.4160 P   0  0  0  0  0  0  0  0  0  0  0  0
   36.9990   33.2500   40.3900 O   0  0  0  0  0  0  0  0  0  0  0  0
   36.1710   33.5700   40.8140 H   0  0  0  0  0  0  0  0  0  0  0  0
   35.6690   30.9380   41.1660 O   0  0  0  0  0  0  0  0  0  0  0  0
   34.8450   31.3810   40.8500 H   0  0  0  0  0  0  0  0  0  0  0  0
  1  2  2  0  0  0  0
  1  6  1  0  0  0  0
  2  3  1  0  0  0  0
  3 15  1  0  0  0  0
  3  4  2  0  0  0  0
  5  4  1  0  0  0  0
  5  9  1  0  0  0  0
  6  5  2  0  0  0  0
  7  1  1  0  0  0  0
  8  2  1  0  0  0  0
  9 10  1  0  0  0  0
 10 11  1  0  0  0  0
 12 11  1  0  0  0  0
 13 12  1  0  0  0  0
 14  9  1  0  0  0  0
 14 13  1  0  0  0  0
 15 17  1  0  0  0  0
 17 16  2  0  0  0  0
 17 20  1  0  0  0  0
 18 17  1  0  0  0  0
 18 19  1  0  0  0  0
 21 20  1  0  0  0  0
M  END
>  <minimizedAffinity>
-5.08943415

$$$$

 OpenBabel03252507093D

 21 22  0  0  0  0  0  0  0  0999 V2000
   36.8620   29.9690   37.6580 C   0  0  0  0  0  0  0  0  0  0  0  0
   37.3160   31.3020   37.8300 C   0  0  0  0  0  0  0  0  0  0  0  0
   37.5300   31.7400   39.1290 C   0  0  0  0  0  0  0  0  0  0  0  0
   37.3010   30.8910   40.1590 N   0  0  0  0  0  0  0  0  0  0  0  0
   36.8710   29.6300   39.9770 C   0  0  0  0  0  0  0  0  0  0  0  0
   36.6510   29.1640   38.7360 N   0  0  0  0  0  0  0  0  0  0  0  0
   36.7040   29.6580   36.6330 H   0  0  0  0  0  0  0  0  0  0  0  0
   37.4780   31.9210   36.9790 H   0  0  0  0  0  0  0  0  0  0  0  0
   36.6560   28.7940   41.1870 C   0  0  0  0  0  3  0  0  0  0  0  0
   37.7330   29.1220   42.2050 C   0  0  0  0  0  2  0  0  0  0  0  0
   37.3510   28.6080   43.5540 C   0  0  0  0  0  2  0  0  0  0  0  0
   36.7380   27.2480   43.4020 C   0  0  0  0  0  2  0  0  0  0  0  0
   37.1580   26.5320   42.1330 C   0  0  0  0  0  2  0  0  0  0  0  0
   36.8090   27.3070   40.9000 C   0  0  0  0  0  2  0  0  0  0  0  0
   37.9770   33.0520   39.2950 O   0  0  0  0  0  0  0  0  0  0  0  0
   40.3610   34.1520   39.5320 O   0  0  0  0  0  0  0  0  0  0  0  0
   39.3290   33.3540   40.3070 P   0  0  0  0  0  0  0  0  0  0  0  0
   38.8220   34.1610   41.6790 O   0  0  0  0  0  0  0  0  0  0  0  0
   39.0090   33.6200   42.4800 H   0  0  0  0  0  0  0  0  0  0  0  0
   40.0150   31.8500   40.7030 O   0  0  0  0  0  0  0  0  0  0  0  0
   39.4660   31.3630   41.3640 H   0  0  0  0  0  0  0  0  0  0  0  0
  1  2  2  0  0  0  0
  1  6  1  0  0  0  0
  2  3  1  0  0  0  0
  3 15  1  0  0  0  0
  3  4  2  0  0  0  0
  5  4  1  0  0  0  0
  5  9  1  0  0  0  0
  6  5  2  0  0  0  0
  7  1  1  0  0  0  0
  8  2  1  0  0  0  0
  9 10  1  0  0  0  0
 10 11  1  0  0  0  0
 12 11  1  0  0  0  0
 13 12  1  0  0  0  0
 14  9  1  0  0  0  0
 14 13  1  0  0  0  0
 15 17  1  0  0  0  0
 16 17  2  0  0  0  0
 17 20  1  0  0  0  0
 17 18  1  0  0  0  0
 18 19  1  0  0  0  0
 20 21  1  0  0  0  0
M  END
>  <minimizedAffinity>
-5.08629704

$$$$

 OpenBabel03252507093D

 21 22  0  0  0  0  0  0  0  0999 V2000
   40.4530   28.6100   42.9110 C   0  0  0  0  0  0  0  0  0  0  0  0
   40.0320   29.8790   42.4370 C   0  0  0  0  0  0  0  0  0  0  0  0
   38.8310   29.9370   41.7470 C   0  0  0  0  0  0  0  0  0  0  0  0
   38.1220   28.7980   41.5590 N   0  0  0  0  0  0  0  0  0  0  0  0
   38.5350   27.6020   42.0160 C   0  0  0  0  0  0  0  0  0  0  0  0
   39.6930   27.5010   42.6900 N   0  0  0  0  0  0  0  0  0  0  0  0
   41.3950   28.5990   43.4450 H   0  0  0  0  0  0  0  0  0  0  0  0
   40.6360   30.7390   42.6170 H   0  0  0  0  0  0  0  0  0  0  0  0
   37.6700   26.4250   41.7470 C   0  0  0  0  0  3  0  0  0  0  0  0
   38.5460   25.1900   41.6330 C   0  0  0  0  0  2  0  0  0  0  0  0
   37.7200   23.9520   41.7460 C   0  0  0  0  0  2  0  0  0  0  0  0
   36.4480   24.1410   40.9750 C   0  0  0  0  0  2  0  0  0  0  0  0
   36.5520   25.1860   39.8800 C   0  0  0  0  0  2  0  0  0  0  0  0
   36.9440   26.5310   40.4130 C   0  0  0  0  0  2  0  0  0  0  0  0
   38.4200   31.1860   41.2810 O   0  0  0  0  0  0  0  0  0  0  0  0
   36.9030   32.6990   39.7450 O   0  0  0  0  0  0  0  0  0  0  0  0
   37.0080   31.2960   40.3120 P   0  0  0  0  0  0  0  0  0  0  0  0
   37.0740   30.1420   39.1070 O   0  0  0  0  0  0  0  0  0  0  0  0
   36.3250   29.5110   39.2000 H   0  0  0  0  0  0  0  0  0  0  0  0
   35.6710   31.0390   41.3300 O   0  0  0  0  0  0  0  0  0  0  0  0
   35.5820   30.0880   41.5800 H   0  0  0  0  0  0  0  0  0  0  0  0
  1  7  1  0  0  0  0
  2  8  1  0  0  0  0
  2  1  2  0  0  0  0
  3  2  1  0  0  0  0
  4  3  2  0  0  0  0
  4  5  1  0  0  0  0
  5  6  2  0  0  0  0
  6  1  1  0  0  0  0
  9  5  1  0  0  0  0
 10 11  1  0  0  0  0
 10  9  1  0  0  0  0
 12 11  1  0  0  0  0
 13 14  1  0  0  0  0
 13 12  1  0  0  0  0
 14  9  1  0  0  0  0
 15  3  1  0  0  0  0
 16 17  2  0  0  0  0
 17 15  1  0  0  0  0
 17 20  1  0  0  0  0
 18 19  1  0  0  0  0
 18 17  1  0  0  0  0
 20 21  1  0  0  0  0
M  END
>  <minimizedAffinity>
-4.95648956

$$$$

 OpenBabel03252507093D

 21 22  0  0  0  0  0  0  0  0999 V2000
   35.7230   28.2370   39.4700 C   0  0  0  0  0  0  0  0  0  0  0  0
   35.7360   29.6460   39.6380 C   0  0  0  0  0  0  0  0  0  0  0  0
   36.4850   30.1570   40.6880 C   0  0  0  0  0  0  0  0  0  0  0  0
   37.1600   29.3030   41.4940 N   0  0  0  0  0  0  0  0  0  0  0  0
   37.1370   27.9700   41.3210 C   0  0  0  0  0  0  0  0  0  0  0  0
   36.4250   27.4320   40.3150 N   0  0  0  0  0  0  0  0  0  0  0  0
   35.1300   27.8710   38.6420 H   0  0  0  0  0  0  0  0  0  0  0  0
   35.1830   30.2640   38.9700 H   0  0  0  0  0  0  0  0  0  0  0  0
   37.9200   27.1370   42.2700 C   0  0  0  0  0  3  0  0  0  0  0  0
   39.3590   27.6190   42.2710 C   0  0  0  0  0  2  0  0  0  0  0  0
   40.0880   27.0880   43.4610 C   0  0  0  0  0  2  0  0  0  0  0  0
   39.6910   25.6580   43.6780 C   0  0  0  0  0  2  0  0  0  0  0  0
   39.1740   24.9760   42.4250 C   0  0  0  0  0  2  0  0  0  0  0  0
   37.9830   25.6770   41.8470 C   0  0  0  0  0  2  0  0  0  0  0  0
   36.4950   31.5420   40.8510 O   0  0  0  0  0  0  0  0  0  0  0  0
   37.1140   33.0010   38.7440 O   0  0  0  0  0  0  0  0  0  0  0  0
   37.6900   32.4720   40.0440 P   0  0  0  0  0  0  0  0  0  0  0  0
   38.1990   33.7070   41.0450 O   0  0  0  0  0  0  0  0  0  0  0  0
   39.1590   33.6120   41.2420 H   0  0  0  0  0  0  0  0  0  0  0  0
   38.9760   31.4270   39.6630 O   0  0  0  0  0  0  0  0  0  0  0  0
   39.5090   31.2000   40.4630 H   0  0  0  0  0  0  0  0  0  0  0  0
  1  2  2  0  0  0  0
  1  6  1  0  0  0  0
  2  3  1  0  0  0  0
  3 15  1  0  0  0  0
  3  4  2  0  0  0  0
  5  4  1  0  0  0  0
  5  9  1  0  0  0  0
  6  5  2  0  0  0  0
  7  1  1  0  0  0  0
  8  2  1  0  0  0  0
  9 10  1  0  0  0  0
 10 11  1  0  0  0  0
 11 12  1  0  0  0  0
 13 12  1  0  0  0  0
 14  9  1  0  0  0  0
 14 13  1  0  0  0  0
 16 17  2  0  0  0  0
 17 15  1  0  0  0  0
 17 18  1  0  0  0  0
 18 19  1  0  0  0  0
 20 17  1  0  0  0  0
 20 21  1  0  0  0  0
M  END
>  <minimizedAffinity>
-4.71899509

$$$$

 OpenBabel03252507093D

 21 22  0  0  0  0  0  0  0  0999 V2000
   37.8950   28.0730   36.6820 C   0  0  0  0  0  0  0  0  0  0  0  0
   37.4680   29.3680   37.0770 C   0  0  0  0  0  0  0  0  0  0  0  0
   37.1260   29.5480   38.4090 C   0  0  0  0  0  0  0  0  0  0  0  0
   37.2130   28.4990   39.2620 N   0  0  0  0  0  0  0  0  0  0  0  0
   37.6200   27.2780   38.8700 C   0  0  0  0  0  0  0  0  0  0  0  0
   37.9610   27.0590   37.5890 N   0  0  0  0  0  0  0  0  0  0  0  0
   38.1540   27.9650   35.6370 H   0  0  0  0  0  0  0  0  0  0  0  0
   37.4210   30.1520   36.3580 H   0  0  0  0  0  0  0  0  0  0  0  0
   37.6740   26.2070   39.8990 C   0  0  0  0  0  3  0  0  0  0  0  0
   36.4560   25.3150   39.7390 C   0  0  0  0  0  2  0  0  0  0  0  0
   36.6500   24.0300   40.4740 C   0  0  0  0  0  2  0  0  0  0  0  0
   37.3010   24.3170   41.7940 C   0  0  0  0  0  2  0  0  0  0  0  0
   37.0790   25.7350   42.2840 C   0  0  0  0  0  2  0  0  0  0  0  0
   37.5880   26.7580   41.3150 C   0  0  0  0  0  2  0  0  0  0  0  0
   36.7070   30.8220   38.7950 O   0  0  0  0  0  0  0  0  0  0  0  0
   37.3820   32.8220   40.3740 O   0  0  0  0  0  0  0  0  0  0  0  0
   37.0060   31.3520   40.3990 P   0  0  0  0  0  0  0  0  0  0  0  0
   35.6500   31.0740   41.3330 O   0  0  0  0  0  0  0  0  0  0  0  0
   35.8630   30.4470   42.0620 H   0  0  0  0  0  0  0  0  0  0  0  0
   38.3410   30.4770   40.9840 O   0  0  0  0  0  0  0  0  0  0  0  0
   38.0970   29.5450   41.2000 H   0  0  0  0  0  0  0  0  0  0  0  0
  1  2  2  0  0  0  0
  1  6  1  0  0  0  0
  2  3  1  0  0  0  0
  3 15  1  0  0  0  0
  3  4  2  0  0  0  0
  5  4  1  0  0  0  0
  5  9  1  0  0  0  0
  6  5  2  0  0  0  0
  7  1  1  0  0  0  0
  8  2  1  0  0  0  0
  9 14  1  0  0  0  0
 10  9  1  0  0  0  0
 10 11  1  0  0  0  0
 11 12  1  0  0  0  0
 12 13  1  0  0  0  0
 14 13  1  0  0  0  0
 15 17  1  0  0  0  0
 16 17  2  0  0  0  0
 17 20  1  0  0  0  0
 17 18  1  0  0  0  0
 18 19  1  0  0  0  0
 20 21  1  0  0  0  0
M  END
>  <minimizedAffinity>
-4.62942457

$$$$

 OpenBabel03252507093D

 21 22  0  0  0  0  0  0  0  0999 V2000
   41.5000   29.7300   39.5370 C   0  0  0  0  0  0  0  0  0  0  0  0
   40.7460   30.8280   39.0450 C   0  0  0  0  0  0  0  0  0  0  0  0
   39.3860   30.8400   39.3140 C   0  0  0  0  0  0  0  0  0  0  0  0
   38.8440   29.8210   40.0230 N   0  0  0  0  0  0  0  0  0  0  0  0
   39.5730   28.7880   40.4820 C   0  0  0  0  0  0  0  0  0  0  0  0
   40.8950   28.7370   40.2440 N   0  0  0  0  0  0  0  0  0  0  0  0
   42.5580   29.7510   39.3100 H   0  0  0  0  0  0  0  0  0  0  0  0
   41.2320   31.5990   38.4930 H   0  0  0  0  0  0  0  0  0  0  0  0
   38.8640   27.7310   41.2470 C   0  0  0  0  0  3  0  0  0  0  0  0
   37.6630   27.2670   40.4420 C   0  0  0  0  0  2  0  0  0  0  0  0
   37.1480   25.9690   40.9720 C   0  0  0  0  0  2  0  0  0  0  0  0
   37.1780   26.0080   42.4710 C   0  0  0  0  0  2  0  0  0  0  0  0
   37.1480   27.4120   43.0420 C   0  0  0  0  0  2  0  0  0  0  0  0
   38.2940   28.2480   42.5610 C   0  0  0  0  0  2  0  0  0  0  0  0
   38.6480   31.9200   38.8280 O   0  0  0  0  0  0  0  0  0  0  0  0
   38.4910   33.2040   41.1250 O   0  0  0  0  0  0  0  0  0  0  0  0
   37.6670   32.8180   39.9120 P   0  0  0  0  0  0  0  0  0  0  0  0
   37.0580   34.1580   39.1230 O   0  0  0  0  0  0  0  0  0  0  0  0
   36.0740   34.1190   39.0950 H   0  0  0  0  0  0  0  0  0  0  0  0
   36.4130   31.7940   40.4320 O   0  0  0  0  0  0  0  0  0  0  0  0
   35.7360   31.6610   39.7240 H   0  0  0  0  0  0  0  0  0  0  0  0
  1  6  1  0  0  0  0
  2  3  1  0  0  0  0
  2  1  2  0  0  0  0
  3  4  2  0  0  0  0
  4  5  1  0  0  0  0
  5  9  1  0  0  0  0
  6  5  2  0  0  0  0
  7  1  1  0  0  0  0
  8  2  1  0  0  0  0
  9 14  1  0  0  0  0
 10 11  1  0  0  0  0
 10  9  1  0  0  0  0
 11 12  1  0  0  0  0
 12 13  1  0  0  0  0
 14 13  1  0  0  0  0
 15  3  1  0  0  0  0
 15 17  1  0  0  0  0
 17 20  1  0  0  0  0
 17 16  2  0  0  0  0
 18 17  1  0  0  0  0
 19 18  1  0  0  0  0
 21 20  1  0  0  0  0
M  END
>  <minimizedAffinity>
-4.45070028

$$$$

 OpenBabel03252507093D

 21 22  0  0  0  0  0  0  0  0999 V2000
   36.4270   26.9120   36.6040 C   0  0  0  0  0  0  0  0  0  0  0  0
   36.7090   28.2310   36.1630 C   0  0  0  0  0  0  0  0  0  0  0  0
   36.8990   29.2020   37.1350 C   0  0  0  0  0  0  0  0  0  0  0  0
   36.8110   28.8540   38.4410 N   0  0  0  0  0  0  0  0  0  0  0  0
   36.5430   27.5990   38.8420 C   0  0  0  0  0  0  0  0  0  0  0  0
   36.3520   26.6270   37.9330 N   0  0  0  0  0  0  0  0  0  0  0  0
   36.2840   26.1780   35.8210 H   0  0  0  0  0  0  0  0  0  0  0  0
   36.7650   28.4410   35.1200 H   0  0  0  0  0  0  0  0  0  0  0  0
   36.4720   27.3420   40.3030 C   0  0  0  0  0  3  0  0  0  0  0  0
   37.3310   28.3670   41.0220 C   0  0  0  0  0  2  0  0  0  0  0  0
   36.9980   28.3980   42.4780 C   0  0  0  0  0  2  0  0  0  0  0  0
   36.8010   26.9930   42.9640 C   0  0  0  0  0  2  0  0  0  0  0  0
   37.5040   25.9530   42.1130 C   0  0  0  0  0  2  0  0  0  0  0  0
   37.0540   25.9880   40.6840 C   0  0  0  0  0  2  0  0  0  0  0  0
   37.1750   30.4980   36.6990 O   0  0  0  0  0  0  0  0  0  0  0  0
   37.3450   32.4820   38.4270 O   0  0  0  0  0  0  0  0  0  0  0  0
   38.1970   31.5000   37.6450 P   0  0  0  0  0  0  0  0  0  0  0  0
   39.1270   30.5460   38.6510 O   0  0  0  0  0  0  0  0  0  0  0  0
   40.0820   30.6650   38.4450 H   0  0  0  0  0  0  0  0  0  0  0  0
   39.1730   32.3890   36.5730 O   0  0  0  0  0  0  0  0  0  0  0  0
   39.8780   31.8250   36.1730 H   0  0  0  0  0  0  0  0  0  0  0  0
  1  6  1  0  0  0  0
  2  1  2  0  0  0  0
  2  3  1  0  0  0  0
  3  4  2  0  0  0  0
  4  5  1  0  0  0  0
  5  9  1  0  0  0  0
  6  5  2  0  0  0  0
  7  1  1  0  0  0  0
  8  2  1  0  0  0  0
  9 14  1  0  0  0  0
  9 10  1  0  0  0  0
 10 11  1  0  0  0  0
 11 12  1  0  0  0  0
 13 12  1  0  0  0  0
 14 13  1  0  0  0  0
 15  3  1  0  0  0  0
 15 17  1  0  0  0  0
 17 16  2  0  0  0  0
 17 18  1  0  0  0  0
 19 18  1  0  0  0  0
 20 17  1  0  0  0  0
 21 20  1  0  0  0  0
M  END
>  <minimizedAffinity>
-4.42724085

$$$$
