
 OpenBabel03252509163D

 22 24  0  0  0  0  0  0  0  0999 V2000
   45.5050   33.8130   44.0990 C   0  0  0  0  0  0  0  0  0  0  0  0
   46.0010   34.4030   42.9100 C   0  0  0  0  0  0  0  0  0  0  0  0
   45.8720   35.7420   42.7640 C   0  0  0  0  0  0  0  0  0  0  0  0
   45.2550   36.5090   43.7870 C   0  0  0  0  0  0  0  0  0  0  0  0
   44.8380   35.2370   45.0250 S   0  0  0  0  0  0  0  0  0  0  0  0
   46.4670   33.8060   42.1410 H   0  0  0  0  0  0  0  0  0  0  0  0
   46.1780   36.3400   41.9570 H   0  0  0  0  0  0  0  0  0  0  0  0
   45.3590   30.0990   44.0210 C   0  0  0  0  0  0  0  0  0  0  0  0
   45.8300   29.8150   45.3200 C   0  0  0  0  0  0  0  0  0  0  0  0
   46.1720   30.8970   46.1540 C   0  0  0  0  0  0  0  0  0  0  0  0
   46.0300   32.1650   45.6590 N   0  0  0  0  0  0  0  0  0  0  0  0
   45.5710   32.3810   44.3990 C   0  0  0  0  0  0  0  0  0  0  0  0
   45.2360   31.3550   43.5800 N   0  0  0  0  0  0  0  0  0  0  0  0
   45.0870   29.3000   43.3570 H   0  0  0  0  0  0  0  0  0  0  0  0
   45.9310   28.8040   45.6800 H   0  0  0  0  0  0  0  0  0  0  0  0
   46.5390   30.7520   47.1600 H   0  0  0  0  0  0  0  0  0  0  0  0
   44.9450   37.8790   44.0030 C   0  0  0  0  0  3  0  0  0  0  0  0
   44.8200   38.2240   45.4630 C   0  0  0  0  0  2  0  0  0  0  0  0
   45.3880   39.5540   45.8470 C   0  0  0  0  0  2  0  0  0  0  0  0
   45.0790   40.6480   44.8610 C   0  0  0  0  0  2  0  0  0  0  0  0
   45.2670   40.2140   43.4300 C   0  0  0  0  0  2  0  0  0  0  0  0
   45.9590   38.8540   43.3940 C   0  0  0  0  0  2  0  0  0  0  0  0
  1 12  1  0  0  0  0
  1  5  1  0  0  0  0
  2  1  2  0  0  0  0
  3  2  1  0  0  0  0
  3  4  2  0  0  0  0
  4 17  1  0  0  0  0
  4  5  1  0  0  0  0
  6  2  1  0  0  0  0
  7  3  1  0  0  0  0
  8  9  1  0  0  0  0
  9 15  1  0  0  0  0
  9 10  2  0  0  0  0
 10 16  1  0  0  0  0
 11 10  1  0  0  0  0
 12 11  2  0  0  0  0
 13  8  2  0  0  0  0
 13 12  1  0  0  0  0
 14  8  1  0  0  0  0
 17 18  1  0  0  0  0
 18 19  1  0  0  0  0
 20 19  1  0  0  0  0
 21 20  1  0  0  0  0
 22 21  1  0  0  0  0
 22 17  1  0  0  0  0
M  END
>  <minimizedAffinity>
-0.91084832

>  <minimizedRMSD>
8.27965546

$$$$
