
 OpenBabel03252505473D

 25 27  0  0  1  0  0  0  0  0999 V2000
   37.4880   26.9200   42.2950 C   0  0  0  0  0  0  0  0  0  0  0  0
   38.6820   27.0750   43.0510 C   0  0  0  0  0  0  0  0  0  0  0  0
   39.2480   28.3360   43.2480 C   0  0  0  0  0  0  0  0  0  0  0  0
   38.5880   29.3860   42.6740 N   0  0  0  0  0  0  0  0  0  0  0  0
   37.4430   29.1960   41.9530 C   0  0  0  0  0  0  0  0  0  0  0  0
   36.9160   27.9950   41.7750 N   0  0  0  0  0  0  0  0  0  0  0  0
   39.1360   26.2100   43.4650 H   0  0  0  0  0  0  0  0  0  0  0  0
   40.1410   28.4560   43.8120 H   0  0  0  0  0  0  0  0  0  0  0  0
   36.9370   25.5680   42.1100 C   0  0  1  0  0  0  0  0  0  0  0  0
   37.4820   24.9000   40.8070 C   0  0  1  0  0  0  0  0  0  0  0  0
   37.7010   24.3640   42.1930 C   0  0  0  0  0  0  0  0  0  0  0  0
   35.8140   25.5480   42.1780 H   0  0  0  0  0  0  0  0  0  0  0  0
   38.2770   25.3970   40.2610 H   0  0  0  0  0  0  0  0  0  0  0  0
   37.2360   23.4030   42.4860 H   0  0  0  0  0  0  0  0  0  0  0  0
   38.7720   24.4060   42.5050 H   0  0  0  0  0  0  0  0  0  0  0  0
   36.4250   24.1750   40.0090 C   0  0  0  0  0  0  0  0  0  0  0  0
   35.4470   23.6240   40.8080 F   0  0  0  0  0  0  0  0  0  0  0  0
   35.7950   25.1090   39.1720 F   0  0  0  0  0  0  0  0  0  0  0  0
   36.9920   23.2360   39.1760 F   0  0  0  0  0  0  0  0  0  0  0  0
   36.7490   30.3630   41.3400 C   0  0  0  0  0  3  0  0  0  0  0  0
   35.8220   29.9990   40.2270 C   0  0  0  0  0  2  0  0  0  0  0  0
   36.4820   30.0580   38.8620 C   0  0  0  0  0  2  0  0  0  0  0  0
   36.9850   31.4480   38.5240 C   0  0  0  0  0  2  0  0  0  0  0  0
   37.1490   32.2770   39.7840 C   0  0  0  0  0  2  0  0  0  0  0  0
   37.7710   31.3730   40.8130 C   0  0  0  0  0  2  0  0  0  0  0  0
  1  2  1  0  0  0  0
  2  3  2  0  0  0  0
  2  7  1  0  0  0  0
  3  8  1  0  0  0  0
  4  3  1  0  0  0  0
  5  4  2  0  0  0  0
  6  5  1  0  0  0  0
  6  1  2  0  0  0  0
  9 12  1  1  0  0  0
  9 11  1  0  0  0  0
  9  1  1  0  0  0  0
 10 13  1  6  0  0  0
 10  9  1  0  0  0  0
 10 11  1  0  0  0  0
 11 14  1  0  0  0  0
 11 15  1  0  0  0  0
 16 10  1  0  0  0  0
 16 17  1  0  0  0  0
 18 16  1  0  0  0  0
 19 16  1  0  0  0  0
 20  5  1  0  0  0  0
 21 20  1  0  0  0  0
 22 21  1  0  0  0  0
 23 22  1  0  0  0  0
 23 24  1  0  0  0  0
 24 25  1  0  0  0  0
 25 20  1  0  0  0  0
M  END
>  <minimizedAffinity>
-5.37723875

$$$$

 OpenBabel03252505473D

 25 27  0  0  1  0  0  0  0  0999 V2000
   36.7580   30.6780   40.2140 C   0  0  0  0  0  0  0  0  0  0  0  0
   36.1810   30.2910   38.9730 C   0  0  0  0  0  0  0  0  0  0  0  0
   35.7670   28.9760   38.7530 C   0  0  0  0  0  0  0  0  0  0  0  0
   35.9530   28.1080   39.7910 N   0  0  0  0  0  0  0  0  0  0  0  0
   36.5130   28.5170   40.9690 C   0  0  0  0  0  0  0  0  0  0  0  0
   36.9000   29.7680   41.1640 N   0  0  0  0  0  0  0  0  0  0  0  0
   36.0710   31.0250   38.2150 H   0  0  0  0  0  0  0  0  0  0  0  0
   35.3360   28.6830   37.8270 H   0  0  0  0  0  0  0  0  0  0  0  0
   37.1860   32.0750   40.3910 C   0  0  1  0  0  0  0  0  0  0  0  0
   38.5390   32.3580   39.6630 C   0  0  1  0  0  0  0  0  0  0  0  0
   37.2420   33.0440   39.3440 C   0  0  0  0  0  0  0  0  0  0  0  0
   37.1940   32.3880   41.4720 H   0  0  0  0  0  0  0  0  0  0  0  0
   38.9490   31.5920   39.0120 H   0  0  0  0  0  0  0  0  0  0  0  0
   37.1320   34.1260   39.5500 H   0  0  0  0  0  0  0  0  0  0  0  0
   36.8590   32.7860   38.3270 H   0  0  0  0  0  0  0  0  0  0  0  0
   39.5060   33.1820   40.4780 C   0  0  0  0  0  0  0  0  0  0  0  0
   40.4170   33.8540   39.6920 F   0  0  0  0  0  0  0  0  0  0  0  0
   38.7710   34.1510   41.1780 F   0  0  0  0  0  0  0  0  0  0  0  0
   40.1290   32.4100   41.4330 F   0  0  0  0  0  0  0  0  0  0  0  0
   36.7010   27.5440   42.0800 C   0  0  0  0  0  3  0  0  0  0  0  0
   37.4040   28.1120   43.2690 C   0  0  0  0  0  2  0  0  0  0  0  0
   38.9060   27.8970   43.2280 C   0  0  0  0  0  2  0  0  0  0  0  0
   39.2790   26.4280   43.2090 C   0  0  0  0  0  2  0  0  0  0  0  0
   38.1050   25.5860   42.7450 C   0  0  0  0  0  2  0  0  0  0  0  0
   37.4810   26.3220   41.5900 C   0  0  0  0  0  2  0  0  0  0  0  0
  1  9  1  0  0  0  0
  1  6  1  0  0  0  0
  2  1  2  0  0  0  0
  3  2  1  0  0  0  0
  3  4  2  0  0  0  0
  4  5  1  0  0  0  0
  5  6  2  0  0  0  0
  5 20  1  0  0  0  0
  7  2  1  0  0  0  0
  8  3  1  0  0  0  0
  9 12  1  1  0  0  0
 10 13  1  6  0  0  0
 10  9  1  0  0  0  0
 10 16  1  0  0  0  0
 11 14  1  0  0  0  0
 11 10  1  0  0  0  0
 11  9  1  0  0  0  0
 15 11  1  0  0  0  0
 16 18  1  0  0  0  0
 16 19  1  0  0  0  0
 17 16  1  0  0  0  0
 20 21  1  0  0  0  0
 22 21  1  0  0  0  0
 23 22  1  0  0  0  0
 24 23  1  0  0  0  0
 25 20  1  0  0  0  0
 25 24  1  0  0  0  0
M  END
>  <minimizedAffinity>
-5.30843592

$$$$

 OpenBabel03252505473D

 25 27  0  0  1  0  0  0  0  0999 V2000
   38.4220   30.1120   41.7090 C   0  0  0  0  0  0  0  0  0  0  0  0
   39.7840   30.4470   41.9410 C   0  0  0  0  0  0  0  0  0  0  0  0
   40.6500   29.5440   42.5600 C   0  0  0  0  0  0  0  0  0  0  0  0
   40.1070   28.3440   42.9210 N   0  0  0  0  0  0  0  0  0  0  0  0
   38.7910   28.0590   42.6820 C   0  0  0  0  0  0  0  0  0  0  0  0
   37.9820   28.9240   42.0920 N   0  0  0  0  0  0  0  0  0  0  0  0
   40.1310   31.4010   41.6310 H   0  0  0  0  0  0  0  0  0  0  0  0
   41.6690   29.7900   42.7360 H   0  0  0  0  0  0  0  0  0  0  0  0
   37.5490   31.1040   41.0600 C   0  0  1  0  0  0  0  0  0  0  0  0
   37.4850   30.8860   39.5140 C   0  0  1  0  0  0  0  0  0  0  0  0
   36.3020   30.7990   40.4350 C   0  0  0  0  0  0  0  0  0  0  0  0
   37.8130   32.1600   41.3450 H   0  0  0  0  0  0  0  0  0  0  0  0
   37.9430   29.9960   39.0950 H   0  0  0  0  0  0  0  0  0  0  0  0
   35.4940   31.5520   40.3580 H   0  0  0  0  0  0  0  0  0  0  0  0
   35.8860   29.7650   40.5020 H   0  0  0  0  0  0  0  0  0  0  0  0
   37.5720   32.1660   38.7170 C   0  0  0  0  0  0  0  0  0  0  0  0
   36.7520   33.1540   39.2170 F   0  0  0  0  0  0  0  0  0  0  0  0
   38.8890   32.6420   38.8000 F   0  0  0  0  0  0  0  0  0  0  0  0
   37.3330   31.9320   37.3810 F   0  0  0  0  0  0  0  0  0  0  0  0
   38.2310   26.7400   43.0880 C   0  0  0  0  0  3  0  0  0  0  0  0
   39.2550   25.6620   43.2200 C   0  0  0  0  0  2  0  0  0  0  0  0
   39.4330   24.8550   41.9470 C   0  0  0  0  0  2  0  0  0  0  0  0
   38.1590   24.1460   41.5300 C   0  0  0  0  0  2  0  0  0  0  0  0
   36.9510   24.7970   42.1760 C   0  0  0  0  0  2  0  0  0  0  0  0
   37.1670   26.2830   42.0870 C   0  0  0  0  0  2  0  0  0  0  0  0
  1  2  2  0  0  0  0
  1  6  1  0  0  0  0
  2  3  1  0  0  0  0
  3  8  1  0  0  0  0
  3  4  2  0  0  0  0
  5  4  1  0  0  0  0
  5 20  1  0  0  0  0
  6  5  2  0  0  0  0
  7  2  1  0  0  0  0
  9 12  1  1  0  0  0
  9  1  1  0  0  0  0
 10 13  1  6  0  0  0
 10 11  1  0  0  0  0
 10  9  1  0  0  0  0
 11 15  1  0  0  0  0
 11  9  1  0  0  0  0
 14 11  1  0  0  0  0
 16 18  1  0  0  0  0
 16 17  1  0  0  0  0
 16 10  1  0  0  0  0
 19 16  1  0  0  0  0
 20 21  1  0  0  0  0
 22 21  1  0  0  0  0
 23 22  1  0  0  0  0
 23 24  1  0  0  0  0
 25 24  1  0  0  0  0
 25 20  1  0  0  0  0
M  END
>  <minimizedAffinity>
-5.29960108

$$$$

 OpenBabel03252505473D

 25 27  0  0  1  0  0  0  0  0999 V2000
   37.5140   28.9630   41.9140 C   0  0  0  0  0  0  0  0  0  0  0  0
   38.6770   29.0910   42.7210 C   0  0  0  0  0  0  0  0  0  0  0  0
   39.3030   27.9670   43.2630 C   0  0  0  0  0  0  0  0  0  0  0  0
   38.7290   26.7620   42.9680 N   0  0  0  0  0  0  0  0  0  0  0  0
   37.6100   26.6790   42.1890 C   0  0  0  0  0  0  0  0  0  0  0  0
   37.0270   27.7540   41.6810 N   0  0  0  0  0  0  0  0  0  0  0  0
   39.0620   30.0630   42.9050 H   0  0  0  0  0  0  0  0  0  0  0  0
   40.1720   28.0580   43.8670 H   0  0  0  0  0  0  0  0  0  0  0  0
   36.8880   30.1810   41.3750 C   0  0  1  0  0  0  0  0  0  0  0  0
   37.1360   30.3220   39.8390 C   0  0  1  0  0  0  0  0  0  0  0  0
   35.7810   30.1910   40.4720 C   0  0  0  0  0  0  0  0  0  0  0  0
   37.1740   31.1030   41.9530 H   0  0  0  0  0  0  0  0  0  0  0  0
   37.5950   29.4930   39.3080 H   0  0  0  0  0  0  0  0  0  0  0  0
   35.0750   31.0430   40.4320 H   0  0  0  0  0  0  0  0  0  0  0  0
   35.2730   29.2330   40.2060 H   0  0  0  0  0  0  0  0  0  0  0  0
   37.5010   31.7220   39.4090 C   0  0  0  0  0  0  0  0  0  0  0  0
   38.8550   31.9630   39.4930 F   0  0  0  0  0  0  0  0  0  0  0  0
   37.1380   31.8730   38.0620 F   0  0  0  0  0  0  0  0  0  0  0  0
   36.7720   32.6590   40.1080 F   0  0  0  0  0  0  0  0  0  0  0  0
   37.0100   25.3490   41.8880 C   0  0  0  0  0  3  0  0  0  0  0  0
   37.8870   24.1950   42.2460 C   0  0  0  0  0  2  0  0  0  0  0  0
   38.7540   23.7290   41.0900 C   0  0  0  0  0  2  0  0  0  0  0  0
   37.9330   23.2550   39.9070 C   0  0  0  0  0  2  0  0  0  0  0  0
   36.5240   23.8130   39.9780 C   0  0  0  0  0  2  0  0  0  0  0  0
   36.6550   25.2500   40.4030 C   0  0  0  0  0  2  0  0  0  0  0  0
  1  2  1  0  0  0  0
  2  7  1  0  0  0  0
  2  3  2  0  0  0  0
  3  8  1  0  0  0  0
  4  3  1  0  0  0  0
  5  4  2  0  0  0  0
  6  1  2  0  0  0  0
  6  5  1  0  0  0  0
  9  1  1  0  0  0  0
  9 12  1  1  0  0  0
 10 13  1  6  0  0  0
 10 11  1  0  0  0  0
 10  9  1  0  0  0  0
 11  9  1  0  0  0  0
 14 11  1  0  0  0  0
 15 11  1  0  0  0  0
 16 17  1  0  0  0  0
 16 10  1  0  0  0  0
 16 19  1  0  0  0  0
 18 16  1  0  0  0  0
 20  5  1  0  0  0  0
 20 21  1  0  0  0  0
 22 21  1  0  0  0  0
 23 24  1  0  0  0  0
 23 22  1  0  0  0  0
 24 25  1  0  0  0  0
 25 20  1  0  0  0  0
M  END
>  <minimizedAffinity>
-5.22621393

$$$$

 OpenBabel03252505473D

 25 27  0  0  1  0  0  0  0  0999 V2000
   37.0700   28.4410   41.2880 C   0  0  0  0  0  0  0  0  0  0  0  0
   37.4170   29.1460   42.4730 C   0  0  0  0  0  0  0  0  0  0  0  0
   37.8890   28.4690   43.5990 C   0  0  0  0  0  0  0  0  0  0  0  0
   37.9910   27.1110   43.4840 N   0  0  0  0  0  0  0  0  0  0  0  0
   37.6470   26.4690   42.3280 C   0  0  0  0  0  0  0  0  0  0  0  0
   37.2010   27.1240   41.2670 N   0  0  0  0  0  0  0  0  0  0  0  0
   37.3090   30.2010   42.4850 H   0  0  0  0  0  0  0  0  0  0  0  0
   38.1490   28.9920   44.4870 H   0  0  0  0  0  0  0  0  0  0  0  0
   36.5690   29.2010   40.1330 C   0  0  1  0  0  0  0  0  0  0  0  0
   35.0090   29.1630   40.0540 C   0  0  1  0  0  0  0  0  0  0  0  0
   35.8210   30.4140   40.2240 C   0  0  0  0  0  0  0  0  0  0  0  0
   37.0650   28.8960   39.1700 H   0  0  0  0  0  0  0  0  0  0  0  0
   34.4570   28.7300   40.8820 H   0  0  0  0  0  0  0  0  0  0  0  0
   35.8390   31.1670   39.4130 H   0  0  0  0  0  0  0  0  0  0  0  0
   35.6640   30.8960   41.2190 H   0  0  0  0  0  0  0  0  0  0  0  0
   34.4770   28.9390   38.6590 C   0  0  0  0  0  0  0  0  0  0  0  0
   35.1050   29.7320   37.7230 F   0  0  0  0  0  0  0  0  0  0  0  0
   34.7290   27.6050   38.3050 F   0  0  0  0  0  0  0  0  0  0  0  0
   33.1090   29.0930   38.6220 F   0  0  0  0  0  0  0  0  0  0  0  0
   37.7700   24.9870   42.2350 C   0  0  0  0  0  3  0  0  0  0  0  0
   39.1660   24.5100   42.0070 C   0  0  0  0  0  2  0  0  0  0  0  0
   39.4960   24.3260   40.5370 C   0  0  0  0  0  2  0  0  0  0  0  0
   38.6070   23.2960   39.8690 C   0  0  0  0  0  2  0  0  0  0  0  0
   37.3380   23.0850   40.6730 C   0  0  0  0  0  2  0  0  0  0  0  0
   36.8800   24.4490   41.1130 C   0  0  0  0  0  2  0  0  0  0  0  0
  1  2  1  0  0  0  0
  2  7  1  0  0  0  0
  2  3  2  0  0  0  0
  3  8  1  0  0  0  0
  4  3  1  0  0  0  0
  5  4  2  0  0  0  0
  6  1  2  0  0  0  0
  6  5  1  0  0  0  0
  9 12  1  6  0  0  0
  9 11  1  0  0  0  0
  9  1  1  0  0  0  0
 10  9  1  0  0  0  0
 10 11  1  0  0  0  0
 10 13  1  1  0  0  0
 11 15  1  0  0  0  0
 14 11  1  0  0  0  0
 16 10  1  0  0  0  0
 17 16  1  0  0  0  0
 18 16  1  0  0  0  0
 19 16  1  0  0  0  0
 20  5  1  0  0  0  0
 21 20  1  0  0  0  0
 22 21  1  0  0  0  0
 23 22  1  0  0  0  0
 23 24  1  0  0  0  0
 24 25  1  0  0  0  0
 25 20  1  0  0  0  0
M  END
>  <minimizedAffinity>
-5.16957474

$$$$

 OpenBabel03252505473D

 25 27  0  0  1  0  0  0  0  0999 V2000
   37.3850   28.9290   41.8940 C   0  0  0  0  0  0  0  0  0  0  0  0
   36.1450   28.3970   41.4450 C   0  0  0  0  0  0  0  0  0  0  0  0
   35.3070   29.1360   40.6090 C   0  0  0  0  0  0  0  0  0  0  0  0
   35.7530   30.3800   40.2610 N   0  0  0  0  0  0  0  0  0  0  0  0
   36.9500   30.8570   40.7130 C   0  0  0  0  0  0  0  0  0  0  0  0
   37.7360   30.1450   41.5050 N   0  0  0  0  0  0  0  0  0  0  0  0
   35.8680   27.4220   41.7610 H   0  0  0  0  0  0  0  0  0  0  0  0
   34.3790   28.7420   40.2720 H   0  0  0  0  0  0  0  0  0  0  0  0
   38.2270   28.1110   42.7810 C   0  0  1  0  0  0  0  0  0  0  0  0
   39.2010   27.2000   41.9680 C   0  0  1  0  0  0  0  0  0  0  0  0
   39.6390   28.2680   42.9290 C   0  0  0  0  0  0  0  0  0  0  0  0
   37.6240   27.5420   43.5420 H   0  0  0  0  0  0  0  0  0  0  0  0
   39.2710   27.3410   40.8950 H   0  0  0  0  0  0  0  0  0  0  0  0
   40.1580   27.9820   43.8630 H   0  0  0  0  0  0  0  0  0  0  0  0
   40.1590   29.1150   42.4200 H   0  0  0  0  0  0  0  0  0  0  0  0
   39.3020   25.7910   42.5020 C   0  0  0  0  0  0  0  0  0  0  0  0
   38.0690   25.1920   42.6390 F   0  0  0  0  0  0  0  0  0  0  0  0
   40.0310   25.0270   41.5780 F   0  0  0  0  0  0  0  0  0  0  0  0
   40.0190   25.7580   43.6770 F   0  0  0  0  0  0  0  0  0  0  0  0
   37.4070   32.2180   40.3150 C   0  0  0  0  0  3  0  0  0  0  0  0
   37.6220   32.3770   38.8460 C   0  0  0  0  0  2  0  0  0  0  0  0
   39.0540   32.1030   38.4240 C   0  0  0  0  0  2  0  0  0  0  0  0
   40.0410   33.0510   39.0780 C   0  0  0  0  0  2  0  0  0  0  0  0
   39.4350   33.6770   40.3200 C   0  0  0  0  0  2  0  0  0  0  0  0
   38.7050   32.5770   41.0410 C   0  0  0  0  0  2  0  0  0  0  0  0
  1  9  1  0  0  0  0
  2  7  1  0  0  0  0
  2  1  2  0  0  0  0
  3  2  1  0  0  0  0
  4  3  2  0  0  0  0
  4  5  1  0  0  0  0
  5  6  2  0  0  0  0
  6  1  1  0  0  0  0
  8  3  1  0  0  0  0
  9 11  1  0  0  0  0
  9 12  1  1  0  0  0
 10 13  1  6  0  0  0
 10 16  1  0  0  0  0
 10  9  1  0  0  0  0
 10 11  1  0  0  0  0
 11 14  1  0  0  0  0
 15 11  1  0  0  0  0
 16 17  1  0  0  0  0
 16 19  1  0  0  0  0
 18 16  1  0  0  0  0
 20  5  1  0  0  0  0
 20 25  1  0  0  0  0
 21 20  1  0  0  0  0
 22 21  1  0  0  0  0
 22 23  1  0  0  0  0
 23 24  1  0  0  0  0
 24 25  1  0  0  0  0
M  END
>  <minimizedAffinity>
-5.13847494

$$$$

 OpenBabel03252505473D

 25 27  0  0  1  0  0  0  0  0999 V2000
   38.7470   27.0190   42.3140 C   0  0  0  0  0  0  0  0  0  0  0  0
   39.7520   26.7580   43.2860 C   0  0  0  0  0  0  0  0  0  0  0  0
   40.0810   25.4500   43.6450 C   0  0  0  0  0  0  0  0  0  0  0  0
   39.3840   24.4610   43.0120 N   0  0  0  0  0  0  0  0  0  0  0  0
   38.4240   24.7510   42.0830 C   0  0  0  0  0  0  0  0  0  0  0  0
   38.1220   25.9970   41.7510 N   0  0  0  0  0  0  0  0  0  0  0  0
   40.2490   27.5820   43.7340 H   0  0  0  0  0  0  0  0  0  0  0  0
   40.8310   25.2510   44.3710 H   0  0  0  0  0  0  0  0  0  0  0  0
   38.4320   28.4170   41.9770 C   0  0  1  0  0  0  0  0  0  0  0  0
   36.9220   28.7380   42.2150 C   0  0  1  0  0  0  0  0  0  0  0  0
   38.0580   29.4140   42.9280 C   0  0  0  0  0  0  0  0  0  0  0  0
   38.7850   28.7000   40.9470 H   0  0  0  0  0  0  0  0  0  0  0  0
   36.3050   27.9950   42.7110 H   0  0  0  0  0  0  0  0  0  0  0  0
   38.2530   30.4890   42.7460 H   0  0  0  0  0  0  0  0  0  0  0  0
   38.0810   29.1780   44.0190 H   0  0  0  0  0  0  0  0  0  0  0  0
   36.2930   29.5530   41.1110 C   0  0  0  0  0  0  0  0  0  0  0  0
   36.9800   29.4450   39.9210 F   0  0  0  0  0  0  0  0  0  0  0  0
   34.9990   29.0590   40.8870 F   0  0  0  0  0  0  0  0  0  0  0  0
   36.1410   30.8670   41.4930 F   0  0  0  0  0  0  0  0  0  0  0  0
   37.6820   23.6480   41.4110 C   0  0  0  0  0  3  0  0  0  0  0  0
   38.4890   22.9050   40.3990 C   0  0  0  0  0  2  0  0  0  0  0  0
   38.3340   23.4590   38.9950 C   0  0  0  0  0  2  0  0  0  0  0  0
   36.9040   23.3830   38.4980 C   0  0  0  0  0  2  0  0  0  0  0  0
   35.9420   23.2460   39.6630 C   0  0  0  0  0  2  0  0  0  0  0  0
   36.4240   24.1920   40.7290 C   0  0  0  0  0  2  0  0  0  0  0  0
  1  2  1  0  0  0  0
  2  3  2  0  0  0  0
  2  7  1  0  0  0  0
  3  8  1  0  0  0  0
  4  3  1  0  0  0  0
  5  4  2  0  0  0  0
  6  5  1  0  0  0  0
  6  1  2  0  0  0  0
  9 12  1  6  0  0  0
  9 10  1  0  0  0  0
  9  1  1  0  0  0  0
  9 11  1  0  0  0  0
 10 13  1  1  0  0  0
 10 11  1  0  0  0  0
 11 15  1  0  0  0  0
 14 11  1  0  0  0  0
 16 19  1  0  0  0  0
 16 10  1  0  0  0  0
 17 16  1  0  0  0  0
 18 16  1  0  0  0  0
 20  5  1  0  0  0  0
 21 20  1  0  0  0  0
 22 21  1  0  0  0  0
 23 22  1  0  0  0  0
 23 24  1  0  0  0  0
 24 25  1  0  0  0  0
 25 20  1  0  0  0  0
M  END
>  <minimizedAffinity>
-5.11323452

$$$$

 OpenBabel03252505473D

 25 27  0  0  1  0  0  0  0  0999 V2000
   38.8470   30.7440   39.8110 C   0  0  0  0  0  0  0  0  0  0  0  0
   39.8100   31.7350   40.1450 C   0  0  0  0  0  0  0  0  0  0  0  0
   40.3000   31.8510   41.4480 C   0  0  0  0  0  0  0  0  0  0  0  0
   39.7970   30.9640   42.3580 N   0  0  0  0  0  0  0  0  0  0  0  0
   38.8710   30.0250   41.9990 C   0  0  0  0  0  0  0  0  0  0  0  0
   38.4170   29.9260   40.7600 N   0  0  0  0  0  0  0  0  0  0  0  0
   40.1510   32.3870   39.3810 H   0  0  0  0  0  0  0  0  0  0  0  0
   41.0200   32.5900   41.7010 H   0  0  0  0  0  0  0  0  0  0  0  0
   38.3570   30.6700   38.4260 C   0  0  1  0  0  0  0  0  0  0  0  0
   36.7960   30.6610   38.3690 C   0  0  1  0  0  0  0  0  0  0  0  0
   37.6630   31.7220   37.7550 C   0  0  0  0  0  0  0  0  0  0  0  0
   38.8230   29.8220   37.8500 H   0  0  0  0  0  0  0  0  0  0  0  0
   36.2420   30.8430   39.2840 H   0  0  0  0  0  0  0  0  0  0  0  0
   37.6980   31.8280   36.6530 H   0  0  0  0  0  0  0  0  0  0  0  0
   37.5450   32.7140   38.2530 H   0  0  0  0  0  0  0  0  0  0  0  0
   36.2300   29.6620   37.3890 C   0  0  0  0  0  0  0  0  0  0  0  0
   36.7240   28.3910   37.5880 F   0  0  0  0  0  0  0  0  0  0  0  0
   34.8410   29.6000   37.5830 F   0  0  0  0  0  0  0  0  0  0  0  0
   36.4160   30.0840   36.0910 F   0  0  0  0  0  0  0  0  0  0  0  0
   38.3440   29.0740   43.0160 C   0  0  0  0  0  3  0  0  0  0  0  0
   39.1980   27.8650   43.2130 C   0  0  0  0  0  2  0  0  0  0  0  0
   38.7780   26.6950   42.3420 C   0  0  0  0  0  2  0  0  0  0  0  0
   37.3630   26.2360   42.6330 C   0  0  0  0  0  2  0  0  0  0  0  0
   36.5800   27.3320   43.3320 C   0  0  0  0  0  2  0  0  0  0  0  0
   36.9330   28.6190   42.6370 C   0  0  0  0  0  2  0  0  0  0  0  0
  1  2  2  0  0  0  0
  1  6  1  0  0  0  0
  2  3  1  0  0  0  0
  3  8  1  0  0  0  0
  3  4  2  0  0  0  0
  5  4  1  0  0  0  0
  5 20  1  0  0  0  0
  6  5  2  0  0  0  0
  7  2  1  0  0  0  0
  9 12  1  6  0  0  0
  9  1  1  0  0  0  0
 10  9  1  0  0  0  0
 10 13  1  1  0  0  0
 11 15  1  0  0  0  0
 11 10  1  0  0  0  0
 11  9  1  0  0  0  0
 14 11  1  0  0  0  0
 16 18  1  0  0  0  0
 16 17  1  0  0  0  0
 16 10  1  0  0  0  0
 19 16  1  0  0  0  0
 20 21  1  0  0  0  0
 22 23  1  0  0  0  0
 22 21  1  0  0  0  0
 23 24  1  0  0  0  0
 25 20  1  0  0  0  0
 25 24  1  0  0  0  0
M  END
>  <minimizedAffinity>
-5.07189989

$$$$

 OpenBabel03252505473D

 25 27  0  0  1  0  0  0  0  0999 V2000
   36.4860   30.3420   38.8970 C   0  0  0  0  0  0  0  0  0  0  0  0
   37.0730   31.6300   38.7600 C   0  0  0  0  0  0  0  0  0  0  0  0
   37.7340   32.2360   39.8300 C   0  0  0  0  0  0  0  0  0  0  0  0
   37.7740   31.5190   40.9930 N   0  0  0  0  0  0  0  0  0  0  0  0
   37.1970   30.2840   41.0870 C   0  0  0  0  0  0  0  0  0  0  0  0
   36.5740   29.7210   40.0630 N   0  0  0  0  0  0  0  0  0  0  0  0
   36.9990   32.1230   37.8230 H   0  0  0  0  0  0  0  0  0  0  0  0
   38.1740   33.1980   39.7320 H   0  0  0  0  0  0  0  0  0  0  0  0
   35.7940   29.7520   37.7410 C   0  0  1  0  0  0  0  0  0  0  0  0
   36.8050   29.2590   36.6570 C   0  0  1  0  0  0  0  0  0  0  0  0
   35.8420   28.3690   37.3870 C   0  0  0  0  0  0  0  0  0  0  0  0
   34.9990   30.4310   37.3240 H   0  0  0  0  0  0  0  0  0  0  0  0
   37.8650   29.2620   36.8950 H   0  0  0  0  0  0  0  0  0  0  0  0
   35.0160   27.8860   36.8300 H   0  0  0  0  0  0  0  0  0  0  0  0
   36.3550   27.6420   38.0600 H   0  0  0  0  0  0  0  0  0  0  0  0
   36.3990   29.6070   35.2450 C   0  0  0  0  0  0  0  0  0  0  0  0
   36.6250   30.9330   34.9440 F   0  0  0  0  0  0  0  0  0  0  0  0
   37.1840   28.8450   34.3660 F   0  0  0  0  0  0  0  0  0  0  0  0
   35.0930   29.2450   35.0030 F   0  0  0  0  0  0  0  0  0  0  0  0
   37.2580   29.5300   42.3690 C   0  0  0  0  0  3  0  0  0  0  0  0
   38.6340   29.4170   42.9390 C   0  0  0  0  0  2  0  0  0  0  0  0
   39.3510   28.1500   42.5090 C   0  0  0  0  0  2  0  0  0  0  0  0
   38.6280   26.8960   42.9590 C   0  0  0  0  0  2  0  0  0  0  0  0
   37.1750   27.2010   43.2720 C   0  0  0  0  0  2  0  0  0  0  0  0
   36.6890   28.1210   42.1860 C   0  0  0  0  0  2  0  0  0  0  0  0
  1  6  1  0  0  0  0
  2  1  2  0  0  0  0
  2  3  1  0  0  0  0
  3  4  2  0  0  0  0
  4  5  1  0  0  0  0
  5 20  1  0  0  0  0
  6  5  2  0  0  0  0
  7  2  1  0  0  0  0
  8  3  1  0  0  0  0
  9 12  1  6  0  0  0
  9  1  1  0  0  0  0
 10 13  1  1  0  0  0
 10 11  1  0  0  0  0
 10  9  1  0  0  0  0
 11  9  1  0  0  0  0
 11 15  1  0  0  0  0
 14 11  1  0  0  0  0
 16 10  1  0  0  0  0
 17 16  1  0  0  0  0
 18 16  1  0  0  0  0
 19 16  1  0  0  0  0
 20 21  1  0  0  0  0
 22 21  1  0  0  0  0
 22 23  1  0  0  0  0
 23 24  1  0  0  0  0
 25 20  1  0  0  0  0
 25 24  1  0  0  0  0
M  END
>  <minimizedAffinity>
-5.06428242

$$$$
