
 OpenBabel03252506323D

 29 31  0  0  1  0  0  0  0  0999 V2000
   44.5630   35.7870   44.7050 C   0  0  0  0  0  0  0  0  0  0  0  0
   44.5710   35.4370   43.3590 C   0  0  0  0  0  0  0  0  0  0  0  0
   44.9580   34.1650   43.0150 C   0  0  0  0  0  0  0  0  0  0  0  0
   45.3160   33.3120   44.0160 N   0  0  0  0  0  0  0  0  0  0  0  0
   45.3000   33.6730   45.2970 C   0  0  0  0  0  0  0  0  0  0  0  0
   44.9280   34.9010   45.6550 N   0  0  0  0  0  0  0  0  0  0  0  0
   45.6820   32.6930   46.2560 N   0  0  0  0  0  0  0  0  0  0  0  0
   45.4070   32.8330   47.6970 C   0  0  0  0  0  0  0  0  0  0  0  0
   46.6530   32.2310   48.2870 C   0  0  0  0  0  0  0  0  0  0  0  0
   47.3890   31.5300   47.1700 C   0  0  0  0  0  0  0  0  0  0  0  0
   46.3570   31.4370   46.0880 C   0  0  2  0  0  0  0  0  0  0  0  0
   44.2760   36.7680   45.1010 H   0  0  0  0  0  0  0  0  0  0  0  0
   44.9470   33.9500   41.9790 H   0  0  0  0  0  0  0  0  0  0  0  0
   45.1990   33.8590   47.9950 H   0  0  0  0  0  0  0  0  0  0  0  0
   44.5820   32.1220   47.9060 H   0  0  0  0  0  0  0  0  0  0  0  0
   46.4360   31.5380   49.1240 H   0  0  0  0  0  0  0  0  0  0  0  0
   47.2300   33.0760   48.7310 H   0  0  0  0  0  0  0  0  0  0  0  0
   48.2510   32.1930   46.9270 H   0  0  0  0  0  0  0  0  0  0  0  0
   47.7040   30.5140   47.4860 H   0  0  0  0  0  0  0  0  0  0  0  0
   45.6500   30.6370   46.3910 H   0  0  0  0  0  0  0  0  0  0  0  0
   46.9670   31.1160   44.8130 C   0  0  0  0  0  0  0  0  0  0  0  0
   47.7020   32.3880   44.3370 C   0  0  0  0  0  0  0  0  0  0  0  0
   48.3780   32.1170   43.0100 C   0  0  0  0  0  0  0  0  0  0  0  0
   47.3940   31.7240   41.9390 C   0  0  0  0  0  0  0  0  0  0  0  0
   46.6970   30.4590   42.4260 C   0  0  0  0  0  0  0  0  0  0  0  0
   45.9390   30.8800   43.6940 C   0  0  0  0  0  0  0  0  0  0  0  0
   44.1570   36.4620   42.4420 N   0  0  0  0  0  0  0  0  0  0  0  0
   43.1340   36.3240   42.2590 H   0  0  0  0  0  0  0  0  0  0  0  0
   44.7070   37.2220   42.0070 H   0  0  0  0  0  0  0  0  0  0  0  0
  1 12  1  0  0  0  0
  1  6  1  0  0  0  0
  2  1  2  0  0  0  0
  3  2  1  0  0  0  0
  3  4  2  0  0  0  0
  4  5  1  0  0  0  0
  5  6  2  0  0  0  0
  5  7  1  0  0  0  0
  7  8  1  0  0  0  0
  8 15  1  0  0  0  0
  8 14  1  0  0  0  0
  8  9  1  0  0  0  0
  9 17  1  0  0  0  0
  9 16  1  0  0  0  0
 10 19  1  0  0  0  0
 10  9  1  0  0  0  0
 11  7  1  0  0  0  0
 11 20  1  1  0  0  0
 11 10  1  0  0  0  0
 13  3  1  0  0  0  0
 18 10  1  0  0  0  0
 21 11  1  0  0  0  0
 22 21  1  0  0  0  0
 23 22  1  0  0  0  0
 24 25  1  0  0  0  0
 24 23  1  0  0  0  0
 25 26  1  0  0  0  0
 26 21  1  0  0  0  0
 27  2  1  0  0  0  0
 28 27  1  0  0  0  0
 29 27  1  0  0  0  0
M  END
>  <minimizedAffinity>
-4.69534254

>  <minimizedRMSD>
1.42140198

$$$$
