
 OpenBabel03242515513D

 17 18  0  0  0  0  0  0  0  0999 V2000
   45.9640   33.4440   45.9200 C   0  0  0  0  0  0  0  0  0  0  0  0
   44.9540   34.4090   46.0870 C   0  0  0  0  0  0  0  0  0  0  0  0
   44.7090   35.2710   45.0310 C   0  0  0  0  0  0  0  0  0  0  0  0
   45.4530   35.1350   43.9040 N   0  0  0  0  0  0  0  0  0  0  0  0
   46.4120   34.2030   43.7750 C   0  0  0  0  0  0  0  0  0  0  0  0
   46.6730   33.3420   44.7980 N   0  0  0  0  0  0  0  0  0  0  0  0
   46.2670   32.6980   46.6680 H   0  0  0  0  0  0  0  0  0  0  0  0
   43.9320   35.9970   45.1870 H   0  0  0  0  0  0  0  0  0  0  0  0
   47.1550   34.1510   42.5030 C   0  0  0  0  0  0  0  0  0  0  0  0
   46.4010   33.4550   41.4000 C   0  0  0  0  0  0  0  0  0  0  0  0
   46.8270   33.9440   40.0390 C   0  0  0  0  0  0  0  0  0  0  0  0
   48.2760   34.3410   39.9850 C   0  0  0  0  0  0  0  0  0  0  0  0
   48.6920   35.3090   41.0660 C   0  0  0  0  0  0  0  0  0  0  0  0
   47.4720   35.5530   41.9620 C   0  0  0  0  0  0  0  0  0  0  0  0
   44.2740   34.4010   47.3440 N   0  0  0  0  0  0  0  0  0  0  0  0
   44.4100   35.3620   47.7780 H   0  0  0  0  0  0  0  0  0  0  0  0
   43.7570   33.5470   47.6960 H   0  0  0  0  0  0  0  0  0  0  0  0
  1  2  1  0  0  0  0
  1  7  1  0  0  0  0
  2 15  1  0  0  0  0
  3  8  1  0  0  0  0
  3  2  2  0  0  0  0
  4  3  1  0  0  0  0
  5  4  2  0  0  0  0
  5  6  1  0  0  0  0
  6  1  2  0  0  0  0
  9  5  1  0  0  0  0
 10  9  1  0  0  0  0
 11 10  1  0  0  0  0
 12 11  1  0  0  0  0
 12 13  1  0  0  0  0
 13 14  1  0  0  0  0
 14  9  1  0  0  0  0
 15 17  1  0  0  0  0
 15 16  1  0  0  0  0
M  END
>  <minimizedAffinity>
-5.11781454

>  <minimizedRMSD>
5.65111113

$$$$
