
 OpenBabel03252507263D

 24 26  0  0  0  0  0  0  0  0999 V2000
   45.8620   33.8120   45.5890 C   0  0  0  0  0  0  0  0  0  0  0  0
   44.8460   34.7440   45.8520 C   0  0  0  0  0  0  0  0  0  0  0  0
   44.5170   35.6480   44.8190 C   0  0  0  0  0  0  0  0  0  0  0  0
   45.2010   35.5650   43.6300 N   0  0  0  0  0  0  0  0  0  0  0  0
   46.1640   34.6460   43.4480 C   0  0  0  0  0  0  0  0  0  0  0  0
   46.4980   33.7780   44.4030 N   0  0  0  0  0  0  0  0  0  0  0  0
   44.3610   34.7440   46.8020 H   0  0  0  0  0  0  0  0  0  0  0  0
   43.7490   36.3670   44.9890 H   0  0  0  0  0  0  0  0  0  0  0  0
   46.8560   34.6120   42.1530 C   0  0  0  0  0  0  0  0  0  0  0  0
   48.0070   35.3290   41.9520 C   0  0  0  0  0  0  0  0  0  0  0  0
   48.7250   35.3610   40.7750 C   0  0  0  0  0  0  0  0  0  0  0  0
   48.1820   34.5830   39.7590 C   0  0  0  0  0  0  0  0  0  0  0  0
   47.0200   33.8480   39.9350 C   0  0  0  0  0  0  0  0  0  0  0  0
   46.3620   33.8670   41.1340 N   0  0  0  0  0  0  0  0  0  0  0  0
   48.4200   35.9400   42.7700 H   0  0  0  0  0  0  0  0  0  0  0  0
   49.6320   35.9390   40.6500 H   0  0  0  0  0  0  0  0  0  0  0  0
   48.6620   34.5340   38.7970 H   0  0  0  0  0  0  0  0  0  0  0  0
   46.6070   33.2430   39.1290 H   0  0  0  0  0  0  0  0  0  0  0  0
   46.2810   32.8180   46.6120 C   0  0  0  0  0  3  0  0  0  0  0  0
   46.3490   31.4150   46.0990 C   0  0  0  0  0  2  0  0  0  0  0  0
   46.9130   30.5690   47.2320 C   0  0  0  0  0  2  0  0  0  0  0  0
   46.1430   30.6980   48.5110 C   0  0  0  0  0  2  0  0  0  0  0  0
   45.8800   32.1300   48.8970 C   0  0  0  0  0  2  0  0  0  0  0  0
   45.2180   32.8120   47.7180 C   0  0  0  0  0  2  0  0  0  0  0  0
  1  2  1  0  0  0  0
  1 19  1  0  0  0  0
  2  7  1  0  0  0  0
  3  8  1  0  0  0  0
  3  2  2  0  0  0  0
  4  3  1  0  0  0  0
  5  4  2  0  0  0  0
  5  6  1  0  0  0  0
  6  1  2  0  0  0  0
  9  5  1  0  0  0  0
 10  9  1  0  0  0  0
 10 15  1  0  0  0  0
 11 10  2  0  0  0  0
 12 13  2  0  0  0  0
 12 11  1  0  0  0  0
 13 14  1  0  0  0  0
 14  9  2  0  0  0  0
 16 11  1  0  0  0  0
 17 12  1  0  0  0  0
 18 13  1  0  0  0  0
 19 24  1  0  0  0  0
 20 19  1  0  0  0  0
 20 21  1  0  0  0  0
 21 22  1  0  0  0  0
 22 23  1  0  0  0  0
 24 23  1  0  0  0  0
M  END
>  <minimizedAffinity>
-6.2331562

>  <minimizedRMSD>
0.596542835

$$$$
