
 OpenBabel03242523533D

 42 45  0  0  1  0  0  0  0  0999 V2000
   42.8190   34.5270   38.7480 C   0  0  1  0  0  0  0  0  0  0  0  0
   42.9570   35.1840   40.1170 C   0  0  1  0  0  0  0  0  0  0  0  0
   41.6710   35.4080   40.6320 O   0  0  0  0  0  0  0  0  0  0  0  0
   40.7480   35.7580   39.6420 C   0  0  0  0  0  0  0  0  0  0  0  0
   40.4380   34.5950   38.7230 C   0  0  2  0  0  0  0  0  0  0  0  0
   41.6480   33.6050   38.8460 C   0  0  1  0  0  0  0  0  0  0  0  0
   43.7620   33.9970   38.4780 H   0  0  0  0  0  0  0  0  0  0  0  0
   43.5500   36.1100   40.0990 H   0  0  0  0  0  0  0  0  0  0  0  0
   41.0050   36.6910   39.1110 H   0  0  0  0  0  0  0  0  0  0  0  0
   39.8110   35.9770   40.1910 H   0  0  0  0  0  0  0  0  0  0  0  0
   39.5020   34.0630   38.9840 H   0  0  0  0  0  0  0  0  0  0  0  0
   41.4360   33.3090   39.9250 H   0  0  0  0  0  0  0  0  0  0  0  0
   42.6080   35.4900   37.7510 O   0  0  0  0  0  0  0  0  0  0  0  0
   43.4880   35.8930   37.5600 H   0  0  0  0  0  0  0  0  0  0  0  0
   40.4570   35.0270   37.4040 O   0  0  0  0  0  0  0  0  0  0  0  0
   40.6400   34.3290   36.7430 H   0  0  0  0  0  0  0  0  0  0  0  0
   43.4900   34.1900   40.9500 O   0  0  0  0  0  0  0  0  0  0  0  0
   44.5950   34.3190   41.6920 C   0  0  0  0  0  0  0  0  0  0  0  0
   45.8580   34.4340   41.0940 C   0  0  0  0  0  0  0  0  0  0  0  0
   46.9720   34.5670   41.9030 C   0  0  0  0  0  0  0  0  0  0  0  0
   46.8060   34.5820   43.2780 N   0  0  0  0  0  0  0  0  0  0  0  0
   45.5740   34.4700   43.8210 C   0  0  0  0  0  0  0  0  0  0  0  0
   44.4770   34.3390   43.0310 N   0  0  0  0  0  0  0  0  0  0  0  0
   45.9960   34.4220   40.0210 H   0  0  0  0  0  0  0  0  0  0  0  0
   45.4820   34.4850   44.8800 H   0  0  0  0  0  0  0  0  0  0  0  0
   48.3510   34.6770   41.3410 C   0  0  0  0  0  0  0  0  0  0  0  0
   49.0630   36.0170   41.5170 C   0  0  0  0  0  0  0  0  0  0  0  0
   49.5000   34.6980   42.1880 C   0  0  0  0  0  0  0  0  0  0  0  0
   48.4110   34.2390   40.3060 H   0  0  0  0  0  0  0  0  0  0  0  0
   48.5080   36.7370   42.1170 H   0  0  0  0  0  0  0  0  0  0  0  0
   49.7060   36.3320   40.6810 H   0  0  0  0  0  0  0  0  0  0  0  0
   50.4650   34.2560   41.8820 H   0  0  0  0  0  0  0  0  0  0  0  0
   49.3640   34.7120   43.3020 H   0  0  0  0  0  0  0  0  0  0  0  0
   41.5170   32.6810   37.8760 O   0  0  0  0  0  0  0  0  0  0  0  0
   40.8410   31.5120   37.8920 C   0  0  0  0  0  0  0  0  0  0  0  0
   39.6010   31.4360   37.4680 O   0  0  0  0  0  0  0  0  0  0  0  0
   40.9320   30.0530   38.2410 C   0  0  0  0  0  3  0  0  0  0  0  0
   40.6470   29.3010   36.9450 C   0  0  0  0  0  2  0  0  0  0  0  0
   40.8250   27.8290   37.1090 C   0  0  0  0  0  2  0  0  0  0  0  0
   40.4290   27.3380   38.4600 C   0  0  0  0  0  2  0  0  0  0  0  0
   39.3240   28.2490   38.9660 C   0  0  0  0  0  2  0  0  0  0  0  0
   39.9820   29.5740   39.2670 C   0  0  0  0  0  2  0  0  0  0  0  0
  1  7  1  6  0  0  0
  1  6  1  0  0  0  0
  1  2  1  0  0  0  0
  2  8  1  6  0  0  0
  2  3  1  0  0  0  0
  2 17  1  0  0  0  0
  4 10  1  0  0  0  0
  4  3  1  0  0  0  0
  5  6  1  0  0  0  0
  5 11  1  1  0  0  0
  5  4  1  0  0  0  0
  6 12  1  1  0  0  0
  9  4  1  0  0  0  0
 13  1  1  0  0  0  0
 14 13  1  0  0  0  0
 15  5  1  0  0  0  0
 16 15  1  0  0  0  0
 17 18  1  0  0  0  0
 18 23  1  0  0  0  0
 19 18  2  0  0  0  0
 19 20  1  0  0  0  0
 20 21  2  0  0  0  0
 21 22  1  0  0  0  0
 22 25  1  0  0  0  0
 23 22  2  0  0  0  0
 24 19  1  0  0  0  0
 26 27  1  0  0  0  0
 26 20  1  0  0  0  0
 26 28  1  0  0  0  0
 27 30  1  0  0  0  0
 27 28  1  0  0  0  0
 28 33  1  0  0  0  0
 29 26  1  0  0  0  0
 31 27  1  0  0  0  0
 32 28  1  0  0  0  0
 34 35  1  0  0  0  0
 34  6  1  0  0  0  0
 35 37  1  0  0  0  0
 36 35  2  0  0  0  0
 37 42  1  0  0  0  0
 38 39  1  0  0  0  0
 38 37  1  0  0  0  0
 39 40  1  0  0  0  0
 40 41  1  0  0  0  0
 41 42  1  0  0  0  0
M  END
>  <minimizedAffinity>
-5.77400064

>  <minimizedRMSD>
0.153975382

$$$$
