
 OpenBabel03242523533D

 42 45  0  0  1  0  0  0  0  0999 V2000
   42.8140   34.5380   38.7290 C   0  0  1  0  0  0  0  0  0  0  0  0
   42.9500   35.1780   40.1060 C   0  0  1  0  0  0  0  0  0  0  0  0
   41.6630   35.3830   40.6280 O   0  0  0  0  0  0  0  0  0  0  0  0
   40.7340   35.7370   39.6450 C   0  0  0  0  0  0  0  0  0  0  0  0
   40.4330   34.5840   38.7110 C   0  0  2  0  0  0  0  0  0  0  0  0
   41.6520   33.6040   38.8180 C   0  0  1  0  0  0  0  0  0  0  0  0
   43.7620   34.0210   38.4500 H   0  0  0  0  0  0  0  0  0  0  0  0
   43.5340   36.1100   40.0990 H   0  0  0  0  0  0  0  0  0  0  0  0
   40.9810   36.6790   39.1260 H   0  0  0  0  0  0  0  0  0  0  0  0
   39.7970   35.9400   40.1990 H   0  0  0  0  0  0  0  0  0  0  0  0
   39.5030   34.0390   38.9670 H   0  0  0  0  0  0  0  0  0  0  0  0
   41.4460   33.2910   39.8930 H   0  0  0  0  0  0  0  0  0  0  0  0
   42.5920   35.5120   37.7460 O   0  0  0  0  0  0  0  0  0  0  0  0
   43.4670   35.9260   37.5580 H   0  0  0  0  0  0  0  0  0  0  0  0
   40.4440   35.0330   37.3980 O   0  0  0  0  0  0  0  0  0  0  0  0
   40.6320   34.3460   36.7280 H   0  0  0  0  0  0  0  0  0  0  0  0
   43.4950   34.1780   40.9250 O   0  0  0  0  0  0  0  0  0  0  0  0
   44.5950   34.3110   41.6730 C   0  0  0  0  0  0  0  0  0  0  0  0
   45.8610   34.4260   41.0820 C   0  0  0  0  0  0  0  0  0  0  0  0
   46.9700   34.5630   41.8980 C   0  0  0  0  0  0  0  0  0  0  0  0
   46.7960   34.5820   43.2720 N   0  0  0  0  0  0  0  0  0  0  0  0
   45.5610   34.4690   43.8070 C   0  0  0  0  0  0  0  0  0  0  0  0
   44.4690   34.3340   43.0110 N   0  0  0  0  0  0  0  0  0  0  0  0
   46.0060   34.4120   40.0100 H   0  0  0  0  0  0  0  0  0  0  0  0
   45.4630   34.4870   44.8660 H   0  0  0  0  0  0  0  0  0  0  0  0
   48.3530   34.6740   41.3440 C   0  0  0  0  0  0  0  0  0  0  0  0
   49.0610   36.0160   41.5210 C   0  0  0  0  0  0  0  0  0  0  0  0
   49.4960   34.6990   42.1970 C   0  0  0  0  0  0  0  0  0  0  0  0
   48.4190   34.2340   40.3100 H   0  0  0  0  0  0  0  0  0  0  0  0
   48.5010   36.7370   42.1160 H   0  0  0  0  0  0  0  0  0  0  0  0
   49.7080   36.3300   40.6880 H   0  0  0  0  0  0  0  0  0  0  0  0
   50.4640   34.2580   41.8980 H   0  0  0  0  0  0  0  0  0  0  0  0
   49.3530   34.7160   43.3110 H   0  0  0  0  0  0  0  0  0  0  0  0
   41.5280   32.6910   37.8360 O   0  0  0  0  0  0  0  0  0  0  0  0
   40.8920   31.5010   37.8490 C   0  0  0  0  0  0  0  0  0  0  0  0
   39.6240   31.4010   37.5210 O   0  0  0  0  0  0  0  0  0  0  0  0
   41.0550   30.0310   38.1180 C   0  0  0  0  0  3  0  0  0  0  0  0
   42.5050   29.7070   37.7720 C   0  0  0  0  0  2  0  0  0  0  0  0
   42.8510   28.2960   38.1090 C   0  0  0  0  0  2  0  0  0  0  0  0
   41.7170   27.3500   37.9050 C   0  0  0  0  0  2  0  0  0  0  0  0
   40.8650   27.9020   36.7770 C   0  0  0  0  0  2  0  0  0  0  0  0
   40.1850   29.1310   37.3300 C   0  0  0  0  0  2  0  0  0  0  0  0
  1  7  1  6  0  0  0
  1  6  1  0  0  0  0
  1  2  1  0  0  0  0
  2  8  1  6  0  0  0
  2  3  1  0  0  0  0
  2 17  1  0  0  0  0
  4 10  1  0  0  0  0
  4  3  1  0  0  0  0
  5  6  1  0  0  0  0
  5 11  1  1  0  0  0
  5  4  1  0  0  0  0
  6 12  1  1  0  0  0
  9  4  1  0  0  0  0
 13  1  1  0  0  0  0
 14 13  1  0  0  0  0
 15  5  1  0  0  0  0
 16 15  1  0  0  0  0
 17 18  1  0  0  0  0
 18 23  1  0  0  0  0
 19 18  2  0  0  0  0
 19 20  1  0  0  0  0
 20 21  2  0  0  0  0
 21 22  1  0  0  0  0
 22 25  1  0  0  0  0
 23 22  2  0  0  0  0
 24 19  1  0  0  0  0
 26 27  1  0  0  0  0
 26 20  1  0  0  0  0
 26 28  1  0  0  0  0
 27 30  1  0  0  0  0
 27 28  1  0  0  0  0
 28 33  1  0  0  0  0
 29 26  1  0  0  0  0
 31 27  1  0  0  0  0
 32 28  1  0  0  0  0
 34 35  1  0  0  0  0
 34  6  1  0  0  0  0
 35 37  1  0  0  0  0
 36 35  2  0  0  0  0
 38 39  1  0  0  0  0
 38 37  1  0  0  0  0
 40 39  1  0  0  0  0
 41 42  1  0  0  0  0
 41 40  1  0  0  0  0
 42 37  1  0  0  0  0
M  END
>  <minimizedAffinity>
-5.64698935

>  <minimizedRMSD>
0.181859687

$$$$
