
 OpenBabel03242523533D

 42 45  0  0  1  0  0  0  0  0999 V2000
   42.8100   34.5220   38.7400 C   0  0  1  0  0  0  0  0  0  0  0  0
   42.9460   35.1810   40.1080 C   0  0  1  0  0  0  0  0  0  0  0  0
   41.6580   35.3950   40.6260 O   0  0  0  0  0  0  0  0  0  0  0  0
   40.7310   35.7370   39.6370 C   0  0  0  0  0  0  0  0  0  0  0  0
   40.4290   34.5710   38.7190 C   0  0  2  0  0  0  0  0  0  0  0  0
   41.6470   33.5910   38.8400 C   0  0  1  0  0  0  0  0  0  0  0  0
   43.7570   33.9990   38.4690 H   0  0  0  0  0  0  0  0  0  0  0  0
   43.5310   36.1110   40.0880 H   0  0  0  0  0  0  0  0  0  0  0  0
   40.9800   36.6720   39.1050 H   0  0  0  0  0  0  0  0  0  0  0  0
   39.7930   35.9490   40.1870 H   0  0  0  0  0  0  0  0  0  0  0  0
   39.4980   34.0310   38.9810 H   0  0  0  0  0  0  0  0  0  0  0  0
   41.4390   33.2940   39.9200 H   0  0  0  0  0  0  0  0  0  0  0  0
   42.5900   35.4830   37.7430 O   0  0  0  0  0  0  0  0  0  0  0  0
   43.4660   35.8920   37.5500 H   0  0  0  0  0  0  0  0  0  0  0  0
   40.4420   35.0020   37.3990 O   0  0  0  0  0  0  0  0  0  0  0  0
   40.6290   34.3060   36.7390 H   0  0  0  0  0  0  0  0  0  0  0  0
   43.4880   34.1920   40.9410 O   0  0  0  0  0  0  0  0  0  0  0  0
   44.5910   34.3320   41.6850 C   0  0  0  0  0  0  0  0  0  0  0  0
   45.8560   34.4320   41.0890 C   0  0  0  0  0  0  0  0  0  0  0  0
   46.9670   34.5770   41.9000 C   0  0  0  0  0  0  0  0  0  0  0  0
   46.7960   34.6180   43.2740 N   0  0  0  0  0  0  0  0  0  0  0  0
   45.5620   34.5190   43.8140 C   0  0  0  0  0  0  0  0  0  0  0  0
   44.4680   34.3760   43.0220 N   0  0  0  0  0  0  0  0  0  0  0  0
   45.9980   34.4010   40.0170 H   0  0  0  0  0  0  0  0  0  0  0  0
   45.4660   34.5540   44.8730 H   0  0  0  0  0  0  0  0  0  0  0  0
   48.3490   34.6740   41.3410 C   0  0  0  0  0  0  0  0  0  0  0  0
   49.0670   36.0130   41.5040 C   0  0  0  0  0  0  0  0  0  0  0  0
   49.4950   34.6990   42.1910 C   0  0  0  0  0  0  0  0  0  0  0  0
   48.4100   34.2240   40.3110 H   0  0  0  0  0  0  0  0  0  0  0  0
   48.5130   36.7420   42.0930 H   0  0  0  0  0  0  0  0  0  0  0  0
   49.7140   36.3140   40.6660 H   0  0  0  0  0  0  0  0  0  0  0  0
   50.4590   34.2490   41.8950 H   0  0  0  0  0  0  0  0  0  0  0  0
   49.3550   34.7270   43.3050 H   0  0  0  0  0  0  0  0  0  0  0  0
   41.5220   32.6650   37.8720 O   0  0  0  0  0  0  0  0  0  0  0  0
   40.8680   31.4840   37.8950 C   0  0  0  0  0  0  0  0  0  0  0  0
   39.6250   31.3840   37.4830 O   0  0  0  0  0  0  0  0  0  0  0  0
   40.9900   30.0270   38.2420 C   0  0  0  0  0  3  0  0  0  0  0  0
   42.3600   29.8710   38.8950 C   0  0  0  0  0  2  0  0  0  0  0  0
   42.5730   28.4870   39.4080 C   0  0  0  0  0  2  0  0  0  0  0  0
   41.9340   27.4420   38.5580 C   0  0  0  0  0  2  0  0  0  0  0  0
   41.9250   27.9610   37.1320 C   0  0  0  0  0  2  0  0  0  0  0  0
   40.9160   29.0850   37.1040 C   0  0  0  0  0  2  0  0  0  0  0  0
  1  7  1  6  0  0  0
  1  6  1  0  0  0  0
  1  2  1  0  0  0  0
  2  8  1  6  0  0  0
  2  3  1  0  0  0  0
  2 17  1  0  0  0  0
  4 10  1  0  0  0  0
  4  3  1  0  0  0  0
  5  6  1  0  0  0  0
  5 11  1  1  0  0  0
  5  4  1  0  0  0  0
  6 12  1  1  0  0  0
  9  4  1  0  0  0  0
 13  1  1  0  0  0  0
 14 13  1  0  0  0  0
 15  5  1  0  0  0  0
 16 15  1  0  0  0  0
 17 18  1  0  0  0  0
 18 23  1  0  0  0  0
 19 18  2  0  0  0  0
 19 20  1  0  0  0  0
 20 21  2  0  0  0  0
 21 22  1  0  0  0  0
 22 25  1  0  0  0  0
 23 22  2  0  0  0  0
 24 19  1  0  0  0  0
 26 27  1  0  0  0  0
 26 20  1  0  0  0  0
 26 28  1  0  0  0  0
 27 30  1  0  0  0  0
 27 28  1  0  0  0  0
 28 33  1  0  0  0  0
 29 26  1  0  0  0  0
 31 27  1  0  0  0  0
 32 28  1  0  0  0  0
 34 35  1  0  0  0  0
 34  6  1  0  0  0  0
 35 37  1  0  0  0  0
 36 35  2  0  0  0  0
 37 38  1  0  0  0  0
 38 39  1  0  0  0  0
 40 39  1  0  0  0  0
 41 40  1  0  0  0  0
 42 41  1  0  0  0  0
 42 37  1  0  0  0  0
M  END
>  <minimizedAffinity>
-5.64116526

>  <minimizedRMSD>
0.0913657397

$$$$
