
 OpenBabel03242523533D

 42 45  0  0  1  0  0  0  0  0999 V2000
   42.7990   34.3730   39.0440 C   0  0  1  0  0  0  0  0  0  0  0  0
   43.1340   35.1290   40.3250 C   0  0  1  0  0  0  0  0  0  0  0  0
   41.9330   35.5590   40.9120 O   0  0  0  0  0  0  0  0  0  0  0  0
   40.9740   35.9300   39.9650 C   0  0  0  0  0  0  0  0  0  0  0  0
   40.4500   34.7360   39.1940 C   0  0  2  0  0  0  0  0  0  0  0  0
   41.5410   33.6180   39.3240 C   0  0  1  0  0  0  0  0  0  0  0  0
   43.6470   33.7060   38.7580 H   0  0  0  0  0  0  0  0  0  0  0  0
   43.8270   35.9680   40.1680 H   0  0  0  0  0  0  0  0  0  0  0  0
   41.2910   36.7710   39.3230 H   0  0  0  0  0  0  0  0  0  0  0  0
   40.1210   36.3140   40.5580 H   0  0  0  0  0  0  0  0  0  0  0  0
   39.4850   34.3510   39.5780 H   0  0  0  0  0  0  0  0  0  0  0  0
   41.3920   33.4500   40.4410 H   0  0  0  0  0  0  0  0  0  0  0  0
   42.6160   35.2590   37.9740 O   0  0  0  0  0  0  0  0  0  0  0  0
   43.5170   35.5290   37.6770 H   0  0  0  0  0  0  0  0  0  0  0  0
   40.4030   35.0400   37.8400 O   0  0  0  0  0  0  0  0  0  0  0  0
   40.4440   34.2680   37.2420 H   0  0  0  0  0  0  0  0  0  0  0  0
   43.6180   34.1560   41.2120 O   0  0  0  0  0  0  0  0  0  0  0  0
   44.7550   34.2490   41.9090 C   0  0  0  0  0  0  0  0  0  0  0  0
   45.9840   34.4450   41.2640 C   0  0  0  0  0  0  0  0  0  0  0  0
   47.1340   34.5350   42.0290 C   0  0  0  0  0  0  0  0  0  0  0  0
   47.0350   34.4280   43.4060 N   0  0  0  0  0  0  0  0  0  0  0  0
   45.8340   34.2400   43.9940 C   0  0  0  0  0  0  0  0  0  0  0  0
   44.7020   34.1510   43.2490 N   0  0  0  0  0  0  0  0  0  0  0  0
   46.0700   34.5280   40.1890 H   0  0  0  0  0  0  0  0  0  0  0  0
   45.7940   34.1630   45.0550 H   0  0  0  0  0  0  0  0  0  0  0  0
   48.4810   34.7270   41.4140 C   0  0  0  0  0  0  0  0  0  0  0  0
   49.1140   36.1100   41.5570 C   0  0  0  0  0  0  0  0  0  0  0  0
   49.6580   34.8240   42.2160 C   0  0  0  0  0  0  0  0  0  0  0  0
   48.5290   34.2860   40.3790 H   0  0  0  0  0  0  0  0  0  0  0  0
   48.5380   36.7980   42.1740 H   0  0  0  0  0  0  0  0  0  0  0  0
   49.7040   36.4580   40.6940 H   0  0  0  0  0  0  0  0  0  0  0  0
   50.6360   34.4420   41.8760 H   0  0  0  0  0  0  0  0  0  0  0  0
   49.5630   34.8390   43.3340 H   0  0  0  0  0  0  0  0  0  0  0  0
   41.2180   32.6320   38.4660 O   0  0  0  0  0  0  0  0  0  0  0  0
   40.2040   31.7430   38.5250 C   0  0  0  0  0  0  0  0  0  0  0  0
   39.4370   31.5130   37.4850 O   0  0  0  0  0  0  0  0  0  0  0  0
   39.4890   30.7640   39.4130 C   0  0  0  0  0  3  0  0  0  0  0  0
   38.2530   30.3270   38.6340 C   0  0  0  0  0  2  0  0  0  0  0  0
   37.5020   29.2520   39.3450 C   0  0  0  0  0  2  0  0  0  0  0  0
   37.5430   29.3920   40.8290 C   0  0  0  0  0  2  0  0  0  0  0  0
   37.6520   30.8740   41.1400 C   0  0  0  0  0  2  0  0  0  0  0  0
   39.0440   31.2860   40.7230 C   0  0  0  0  0  2  0  0  0  0  0  0
  1  7  1  6  0  0  0
  1  6  1  0  0  0  0
  1  2  1  0  0  0  0
  2  8  1  6  0  0  0
  2  3  1  0  0  0  0
  2 17  1  0  0  0  0
  4 10  1  0  0  0  0
  4  3  1  0  0  0  0
  5  6  1  0  0  0  0
  5 11  1  1  0  0  0
  5  4  1  0  0  0  0
  6 12  1  1  0  0  0
  9  4  1  0  0  0  0
 13  1  1  0  0  0  0
 14 13  1  0  0  0  0
 15  5  1  0  0  0  0
 16 15  1  0  0  0  0
 17 18  1  0  0  0  0
 18 23  1  0  0  0  0
 19 18  2  0  0  0  0
 19 20  1  0  0  0  0
 20 21  2  0  0  0  0
 21 22  1  0  0  0  0
 22 25  1  0  0  0  0
 23 22  2  0  0  0  0
 24 19  1  0  0  0  0
 26 27  1  0  0  0  0
 26 20  1  0  0  0  0
 26 28  1  0  0  0  0
 27 30  1  0  0  0  0
 27 28  1  0  0  0  0
 28 33  1  0  0  0  0
 29 26  1  0  0  0  0
 31 27  1  0  0  0  0
 32 28  1  0  0  0  0
 34 35  1  0  0  0  0
 34  6  1  0  0  0  0
 35 37  1  0  0  0  0
 36 35  2  0  0  0  0
 37 42  1  0  0  0  0
 38 39  1  0  0  0  0
 38 37  1  0  0  0  0
 39 40  1  0  0  0  0
 40 41  1  0  0  0  0
 42 41  1  0  0  0  0
M  END
>  <minimizedAffinity>
-6.47903728

>  <minimizedRMSD>
1.50625777

$$$$
