
 OpenBabel03242523543D

 42 45  0  0  1  0  0  0  0  0999 V2000
   42.8160   34.5080   38.7580 C   0  0  1  0  0  0  0  0  0  0  0  0
   42.9540   35.1840   40.1170 C   0  0  1  0  0  0  0  0  0  0  0  0
   41.6680   35.4120   40.6320 O   0  0  0  0  0  0  0  0  0  0  0  0
   40.7430   35.7450   39.6380 C   0  0  0  0  0  0  0  0  0  0  0  0
   40.4350   34.5690   38.7350 C   0  0  2  0  0  0  0  0  0  0  0  0
   41.6480   33.5840   38.8700 C   0  0  1  0  0  0  0  0  0  0  0  0
   43.7610   33.9770   38.4940 H   0  0  0  0  0  0  0  0  0  0  0  0
   43.5440   36.1110   40.0860 H   0  0  0  0  0  0  0  0  0  0  0  0
   40.9970   36.6710   39.0930 H   0  0  0  0  0  0  0  0  0  0  0  0
   39.8060   35.9700   40.1850 H   0  0  0  0  0  0  0  0  0  0  0  0
   39.5010   34.0370   39.0050 H   0  0  0  0  0  0  0  0  0  0  0  0
   41.4380   33.3030   39.9540 H   0  0  0  0  0  0  0  0  0  0  0  0
   42.6010   35.4560   37.7480 O   0  0  0  0  0  0  0  0  0  0  0  0
   43.4800   35.8580   37.5500 H   0  0  0  0  0  0  0  0  0  0  0  0
   40.4510   34.9820   37.4100 O   0  0  0  0  0  0  0  0  0  0  0  0
   40.6350   34.2760   36.7590 H   0  0  0  0  0  0  0  0  0  0  0  0
   43.4910   34.2040   40.9640 O   0  0  0  0  0  0  0  0  0  0  0  0
   44.5980   34.3460   41.7010 C   0  0  0  0  0  0  0  0  0  0  0  0
   45.8600   34.4450   41.0990 C   0  0  0  0  0  0  0  0  0  0  0  0
   46.9750   34.5920   41.9040 C   0  0  0  0  0  0  0  0  0  0  0  0
   46.8110   34.6370   43.2790 N   0  0  0  0  0  0  0  0  0  0  0  0
   45.5800   34.5390   43.8250 C   0  0  0  0  0  0  0  0  0  0  0  0
   44.4810   34.3940   43.0400 N   0  0  0  0  0  0  0  0  0  0  0  0
   45.9970   34.4100   40.0260 H   0  0  0  0  0  0  0  0  0  0  0  0
   45.4890   34.5770   44.8840 H   0  0  0  0  0  0  0  0  0  0  0  0
   48.3540   34.6870   41.3380 C   0  0  0  0  0  0  0  0  0  0  0  0
   49.0770   36.0230   41.5040 C   0  0  0  0  0  0  0  0  0  0  0  0
   49.5050   34.7030   42.1820 C   0  0  0  0  0  0  0  0  0  0  0  0
   48.4070   34.2420   40.3050 H   0  0  0  0  0  0  0  0  0  0  0  0
   48.5300   36.7510   42.1010 H   0  0  0  0  0  0  0  0  0  0  0  0
   49.7210   36.3260   40.6640 H   0  0  0  0  0  0  0  0  0  0  0  0
   50.4650   34.2520   41.8770 H   0  0  0  0  0  0  0  0  0  0  0  0
   49.3720   34.7260   43.2960 H   0  0  0  0  0  0  0  0  0  0  0  0
   41.5190   32.6460   37.9140 O   0  0  0  0  0  0  0  0  0  0  0  0
   40.8370   31.4810   37.9440 C   0  0  0  0  0  0  0  0  0  0  0  0
   39.6270   31.3850   37.4430 O   0  0  0  0  0  0  0  0  0  0  0  0
   40.8980   30.0410   38.3690 C   0  0  0  0  0  3  0  0  0  0  0  0
   40.2690   29.2470   37.2290 C   0  0  0  0  0  2  0  0  0  0  0  0
   40.3720   27.7770   37.4580 C   0  0  0  0  0  2  0  0  0  0  0  0
   40.2600   27.3970   38.8950 C   0  0  0  0  0  2  0  0  0  0  0  0
   39.3700   28.4280   39.5660 C   0  0  0  0  0  2  0  0  0  0  0  0
   40.1750   29.7040   39.6150 C   0  0  0  0  0  2  0  0  0  0  0  0
  1  7  1  6  0  0  0
  1  6  1  0  0  0  0
  1  2  1  0  0  0  0
  2  8  1  6  0  0  0
  2  3  1  0  0  0  0
  2 17  1  0  0  0  0
  4 10  1  0  0  0  0
  4  3  1  0  0  0  0
  5  6  1  0  0  0  0
  5 11  1  1  0  0  0
  5  4  1  0  0  0  0
  6 12  1  1  0  0  0
  9  4  1  0  0  0  0
 13  1  1  0  0  0  0
 14 13  1  0  0  0  0
 15  5  1  0  0  0  0
 16 15  1  0  0  0  0
 17 18  1  0  0  0  0
 18 23  1  0  0  0  0
 19 18  2  0  0  0  0
 19 20  1  0  0  0  0
 20 21  2  0  0  0  0
 21 22  1  0  0  0  0
 22 25  1  0  0  0  0
 23 22  2  0  0  0  0
 24 19  1  0  0  0  0
 26 27  1  0  0  0  0
 26 20  1  0  0  0  0
 26 28  1  0  0  0  0
 27 30  1  0  0  0  0
 27 28  1  0  0  0  0
 28 33  1  0  0  0  0
 29 26  1  0  0  0  0
 31 27  1  0  0  0  0
 32 28  1  0  0  0  0
 34 35  1  0  0  0  0
 34  6  1  0  0  0  0
 35 37  1  0  0  0  0
 36 35  2  0  0  0  0
 37 42  1  0  0  0  0
 38 39  1  0  0  0  0
 38 37  1  0  0  0  0
 39 40  1  0  0  0  0
 40 41  1  0  0  0  0
 41 42  1  0  0  0  0
M  END
>  <minimizedAffinity>
-5.7845521

>  <minimizedRMSD>
0.181420937

$$$$
