
 OpenBabel03242523533D

 42 45  0  0  1  0  0  0  0  0999 V2000
   42.2050   34.2230   38.8380 C   0  0  1  0  0  0  0  0  0  0  0  0
   42.7780   35.0580   39.9770 C   0  0  1  0  0  0  0  0  0  0  0  0
   41.7110   35.5350   40.7560 O   0  0  0  0  0  0  0  0  0  0  0  0
   40.5860   35.8530   39.9900 C   0  0  0  0  0  0  0  0  0  0  0  0
   39.9280   34.6160   39.4140 C   0  0  2  0  0  0  0  0  0  0  0  0
   41.0280   33.4990   39.4040 C   0  0  1  0  0  0  0  0  0  0  0  0
   42.9840   33.5320   38.4380 H   0  0  0  0  0  0  0  0  0  0  0  0
   43.4240   35.8790   39.6350 H   0  0  0  0  0  0  0  0  0  0  0  0
   40.7700   36.6470   39.2460 H   0  0  0  0  0  0  0  0  0  0  0  0
   39.8620   36.2820   40.7100 H   0  0  0  0  0  0  0  0  0  0  0  0
   39.0560   34.2650   40.0020 H   0  0  0  0  0  0  0  0  0  0  0  0
   41.0980   33.4050   40.5370 H   0  0  0  0  0  0  0  0  0  0  0  0
   41.8150   35.0400   37.7670 O   0  0  0  0  0  0  0  0  0  0  0  0
   42.6400   35.2820   37.2840 H   0  0  0  0  0  0  0  0  0  0  0  0
   39.6190   34.8320   38.0780 O   0  0  0  0  0  0  0  0  0  0  0  0
   39.5470   34.0220   37.5350 H   0  0  0  0  0  0  0  0  0  0  0  0
   43.4280   34.1410   40.8150 O   0  0  0  0  0  0  0  0  0  0  0  0
   44.5110   34.4070   41.5540 C   0  0  0  0  0  0  0  0  0  0  0  0
   45.7910   34.4130   40.9830 C   0  0  0  0  0  0  0  0  0  0  0  0
   46.8800   34.6950   41.7880 C   0  0  0  0  0  0  0  0  0  0  0  0
   46.6730   34.9610   43.1310 N   0  0  0  0  0  0  0  0  0  0  0  0
   45.4250   34.9470   43.6480 C   0  0  0  0  0  0  0  0  0  0  0  0
   44.3520   34.6710   42.8620 N   0  0  0  0  0  0  0  0  0  0  0  0
   45.9610   34.2050   39.9350 H   0  0  0  0  0  0  0  0  0  0  0  0
   45.3010   35.1570   44.6830 H   0  0  0  0  0  0  0  0  0  0  0  0
   48.2760   34.7040   41.2570 C   0  0  0  0  0  0  0  0  0  0  0  0
   49.0790   35.9900   41.4470 C   0  0  0  0  0  0  0  0  0  0  0  0
   49.4040   34.6440   42.1290 C   0  0  0  0  0  0  0  0  0  0  0  0
   48.3280   34.2600   40.2240 H   0  0  0  0  0  0  0  0  0  0  0  0
   48.5630   36.7500   42.0330 H   0  0  0  0  0  0  0  0  0  0  0  0
   49.7610   36.2550   40.6250 H   0  0  0  0  0  0  0  0  0  0  0  0
   50.3420   34.1340   41.8460 H   0  0  0  0  0  0  0  0  0  0  0  0
   49.2450   34.6730   43.2400 H   0  0  0  0  0  0  0  0  0  0  0  0
   40.5490   32.4630   38.6900 O   0  0  0  0  0  0  0  0  0  0  0  0
   39.4790   31.6760   38.9350 C   0  0  0  0  0  0  0  0  0  0  0  0
   38.3790   31.7820   38.2260 O   0  0  0  0  0  0  0  0  0  0  0  0
   38.9500   30.5690   39.8020 C   0  0  0  0  0  3  0  0  0  0  0  0
   37.9020   29.8490   38.9590 C   0  0  0  0  0  2  0  0  0  0  0  0
   37.3740   28.6380   39.6500 C   0  0  0  0  0  2  0  0  0  0  0  0
   37.2810   28.8010   41.1290 C   0  0  0  0  0  2  0  0  0  0  0  0
   37.0270   30.2720   41.4080 C   0  0  0  0  0  2  0  0  0  0  0  0
   38.3100   30.9890   41.0670 C   0  0  0  0  0  2  0  0  0  0  0  0
  1  7  1  6  0  0  0
  1  6  1  0  0  0  0
  1  2  1  0  0  0  0
  2  8  1  6  0  0  0
  2  3  1  0  0  0  0
  2 17  1  0  0  0  0
  4 10  1  0  0  0  0
  4  3  1  0  0  0  0
  5  4  1  0  0  0  0
  5 11  1  1  0  0  0
  6  5  1  0  0  0  0
  6 12  1  1  0  0  0
  9  4  1  0  0  0  0
 13  1  1  0  0  0  0
 14 13  1  0  0  0  0
 15  5  1  0  0  0  0
 16 15  1  0  0  0  0
 17 18  1  0  0  0  0
 18 23  1  0  0  0  0
 19 18  2  0  0  0  0
 19 20  1  0  0  0  0
 20 21  2  0  0  0  0
 21 22  1  0  0  0  0
 22 25  1  0  0  0  0
 23 22  2  0  0  0  0
 24 19  1  0  0  0  0
 26 27  1  0  0  0  0
 26 20  1  0  0  0  0
 26 28  1  0  0  0  0
 27 30  1  0  0  0  0
 27 28  1  0  0  0  0
 28 33  1  0  0  0  0
 29 26  1  0  0  0  0
 31 27  1  0  0  0  0
 32 28  1  0  0  0  0
 34 35  1  0  0  0  0
 34  6  1  0  0  0  0
 35 37  1  0  0  0  0
 36 35  2  0  0  0  0
 37 42  1  0  0  0  0
 38 39  1  0  0  0  0
 38 37  1  0  0  0  0
 39 40  1  0  0  0  0
 40 41  1  0  0  0  0
 42 41  1  0  0  0  0
M  END
>  <minimizedAffinity>
-6.49646139

>  <minimizedRMSD>
1.73177946

$$$$
