
 OpenBabel03242523543D

 42 45  0  0  1  0  0  0  0  0999 V2000
   42.8130   34.5100   38.7420 C   0  0  1  0  0  0  0  0  0  0  0  0
   42.9630   35.1770   40.1040 C   0  0  1  0  0  0  0  0  0  0  0  0
   41.6810   35.4170   40.6230 O   0  0  0  0  0  0  0  0  0  0  0  0
   40.7580   35.7670   39.6340 C   0  0  0  0  0  0  0  0  0  0  0  0
   40.4330   34.6000   38.7260 C   0  0  2  0  0  0  0  0  0  0  0  0
   41.6340   33.6000   38.8520 C   0  0  1  0  0  0  0  0  0  0  0  0
   43.7500   33.9680   38.4720 H   0  0  0  0  0  0  0  0  0  0  0  0
   43.5650   36.0970   40.0760 H   0  0  0  0  0  0  0  0  0  0  0  0
   41.0220   36.6930   39.0930 H   0  0  0  0  0  0  0  0  0  0  0  0
   39.8250   36.0000   40.1840 H   0  0  0  0  0  0  0  0  0  0  0  0
   39.4930   34.0780   38.9950 H   0  0  0  0  0  0  0  0  0  0  0  0
   41.4230   33.3150   39.9350 H   0  0  0  0  0  0  0  0  0  0  0  0
   42.6070   35.4650   37.7370 O   0  0  0  0  0  0  0  0  0  0  0  0
   43.4900   35.8580   37.5390 H   0  0  0  0  0  0  0  0  0  0  0  0
   40.4500   35.0200   37.4030 O   0  0  0  0  0  0  0  0  0  0  0  0
   40.6240   34.3150   36.7480 H   0  0  0  0  0  0  0  0  0  0  0  0
   43.4900   34.1850   40.9440 O   0  0  0  0  0  0  0  0  0  0  0  0
   44.5950   34.3130   41.6870 C   0  0  0  0  0  0  0  0  0  0  0  0
   45.8580   34.4310   41.0900 C   0  0  0  0  0  0  0  0  0  0  0  0
   46.9710   34.5630   41.9000 C   0  0  0  0  0  0  0  0  0  0  0  0
   46.8050   34.5740   43.2750 N   0  0  0  0  0  0  0  0  0  0  0  0
   45.5720   34.4580   43.8170 C   0  0  0  0  0  0  0  0  0  0  0  0
   44.4760   34.3290   43.0250 N   0  0  0  0  0  0  0  0  0  0  0  0
   45.9970   34.4230   40.0170 H   0  0  0  0  0  0  0  0  0  0  0  0
   45.4800   34.4700   44.8760 H   0  0  0  0  0  0  0  0  0  0  0  0
   48.3510   34.6770   41.3390 C   0  0  0  0  0  0  0  0  0  0  0  0
   49.0600   36.0180   41.5200 C   0  0  0  0  0  0  0  0  0  0  0  0
   49.4990   34.6970   42.1860 C   0  0  0  0  0  0  0  0  0  0  0  0
   48.4120   34.2420   40.3020 H   0  0  0  0  0  0  0  0  0  0  0  0
   48.5040   36.7350   42.1210 H   0  0  0  0  0  0  0  0  0  0  0  0
   49.7030   36.3350   40.6850 H   0  0  0  0  0  0  0  0  0  0  0  0
   50.4650   34.2580   41.8800 H   0  0  0  0  0  0  0  0  0  0  0  0
   49.3620   34.7080   43.3010 H   0  0  0  0  0  0  0  0  0  0  0  0
   41.4900   32.6680   37.8910 O   0  0  0  0  0  0  0  0  0  0  0  0
   40.8320   31.4900   37.9320 C   0  0  0  0  0  0  0  0  0  0  0  0
   39.6120   31.3740   37.4600 O   0  0  0  0  0  0  0  0  0  0  0  0
   40.9300   30.0490   38.3490 C   0  0  0  0  0  3  0  0  0  0  0  0
   42.3240   29.8870   38.9480 C   0  0  0  0  0  2  0  0  0  0  0  0
   42.5220   28.5250   39.5220 C   0  0  0  0  0  2  0  0  0  0  0  0
   41.8180   27.4570   38.7580 C   0  0  0  0  0  2  0  0  0  0  0  0
   41.7580   27.9040   37.3070 C   0  0  0  0  0  2  0  0  0  0  0  0
   40.7790   29.0540   37.2660 C   0  0  0  0  0  2  0  0  0  0  0  0
  1  7  1  6  0  0  0
  1  6  1  0  0  0  0
  1  2  1  0  0  0  0
  2  8  1  6  0  0  0
  2  3  1  0  0  0  0
  2 17  1  0  0  0  0
  4 10  1  0  0  0  0
  4  3  1  0  0  0  0
  5  6  1  0  0  0  0
  5 11  1  1  0  0  0
  5  4  1  0  0  0  0
  6 12  1  1  0  0  0
  9  4  1  0  0  0  0
 13  1  1  0  0  0  0
 14 13  1  0  0  0  0
 15  5  1  0  0  0  0
 16 15  1  0  0  0  0
 17 18  1  0  0  0  0
 18 23  1  0  0  0  0
 19 18  2  0  0  0  0
 19 20  1  0  0  0  0
 20 21  2  0  0  0  0
 21 22  1  0  0  0  0
 22 25  1  0  0  0  0
 23 22  2  0  0  0  0
 24 19  1  0  0  0  0
 26 27  1  0  0  0  0
 26 20  1  0  0  0  0
 26 28  1  0  0  0  0
 27 30  1  0  0  0  0
 27 28  1  0  0  0  0
 28 33  1  0  0  0  0
 29 26  1  0  0  0  0
 31 27  1  0  0  0  0
 32 28  1  0  0  0  0
 34 35  1  0  0  0  0
 34  6  1  0  0  0  0
 35 37  1  0  0  0  0
 36 35  2  0  0  0  0
 37 38  1  0  0  0  0
 38 39  1  0  0  0  0
 40 39  1  0  0  0  0
 41 40  1  0  0  0  0
 42 41  1  0  0  0  0
 42 37  1  0  0  0  0
M  END
>  <minimizedAffinity>
-5.62752104

>  <minimizedRMSD>
0.211795807

$$$$
