
 OpenBabel03242514323D

 23 24  0  0  0  0  0  0  0  0999 V2000
   49.4640   35.5110   42.6100 O   0  0  0  0  0  0  0  0  0  0  0  0
   48.9130   34.3370   41.8680 P   0  0  1  0  0  0  0  0  0  0  0  0
   50.2030   33.3230   41.5060 O   0  0  0  0  0  0  0  0  0  0  0  0
   49.9490   32.6400   40.8190 H   0  0  0  0  0  0  0  0  0  0  0  0
   47.7400   33.5150   42.8050 O   0  0  0  0  0  0  0  0  0  0  0  0
   46.1550   35.2920   42.7530 C   0  0  0  0  0  0  0  0  0  0  0  0
   46.7000   34.2100   43.4250 C   0  0  0  0  0  0  0  0  0  0  0  0
   46.1820   33.8770   44.6770 C   0  0  0  0  0  0  0  0  0  0  0  0
   45.1650   34.6340   45.1720 N   0  0  0  0  0  0  0  0  0  0  0  0
   44.6630   35.6710   44.4980 C   0  0  0  0  0  0  0  0  0  0  0  0
   45.1520   35.9960   43.3020 N   0  0  0  0  0  0  0  0  0  0  0  0
   46.4760   35.6370   41.7830 H   0  0  0  0  0  0  0  0  0  0  0  0
   46.6240   33.0250   45.1860 H   0  0  0  0  0  0  0  0  0  0  0  0
   43.8590   36.1630   45.0380 H   0  0  0  0  0  0  0  0  0  0  0  0
   48.2290   34.8880   40.4480 O   0  0  0  0  0  0  0  0  0  0  0  0
   47.7630   34.1160   39.4360 C   0  0  0  0  0  0  0  0  0  0  0  0
   46.5570   33.7280   39.6570 O   0  0  0  0  0  0  0  0  0  0  0  0
   47.6820   33.3580   38.1590 C   0  0  0  0  0  3  0  0  0  0  0  0
   48.6290   34.0060   37.1500 C   0  0  0  0  0  2  0  0  0  0  0  0
   48.4810   33.1620   35.8950 C   0  0  0  0  0  2  0  0  0  0  0  0
   49.1770   31.8470   36.1870 C   0  0  0  0  0  2  0  0  0  0  0  0
   48.2520   31.1220   37.1670 C   0  0  0  0  0  2  0  0  0  0  0  0
   48.0360   31.9250   38.3990 C   0  0  0  0  0  2  0  0  0  0  0  0
  2  1  2  1  0  0  0
  2  5  1  0  0  0  0
  3  2  1  0  0  0  0
  4  3  1  0  0  0  0
  5  7  1  0  0  0  0
  6 11  2  0  0  0  0
  6  7  1  0  0  0  0
  7  8  2  0  0  0  0
  8  9  1  0  0  0  0
  8 13  1  0  0  0  0
 10 14  1  0  0  0  0
 10  9  2  0  0  0  0
 11 10  1  0  0  0  0
 12  6  1  0  0  0  0
 15  2  1  0  0  0  0
 16 17  2  0  0  0  0
 16 15  1  0  0  0  0
 18 23  1  0  0  0  0
 18 16  1  0  0  0  0
 19 18  1  0  0  0  0
 20 21  1  0  0  0  0
 20 19  1  0  0  0  0
 21 22  1  0  0  0  0
 22 23  1  0  0  0  0
M  END
>  <minimizedAffinity>
-4.57888508

>  <minimizedRMSD>
0.697172225

$$$$
