
 OpenBabel03242514323D

 23 24  0  0  0  0  0  0  0  0999 V2000
   49.4780   35.4380   42.5770 O   0  0  0  0  0  0  0  0  0  0  0  0
   48.8940   34.2970   41.8090 P   0  0  1  0  0  0  0  0  0  0  0  0
   50.1560   33.2620   41.4130 O   0  0  0  0  0  0  0  0  0  0  0  0
   49.8820   32.6020   40.7110 H   0  0  0  0  0  0  0  0  0  0  0  0
   47.7070   33.4800   42.7340 O   0  0  0  0  0  0  0  0  0  0  0  0
   46.1500   35.2820   42.7280 C   0  0  0  0  0  0  0  0  0  0  0  0
   46.6880   34.1830   43.3790 C   0  0  0  0  0  0  0  0  0  0  0  0
   46.1840   33.8430   44.6350 C   0  0  0  0  0  0  0  0  0  0  0  0
   45.1880   34.6110   45.1550 N   0  0  0  0  0  0  0  0  0  0  0  0
   44.6920   35.6630   44.5010 C   0  0  0  0  0  0  0  0  0  0  0  0
   45.1670   35.9950   43.3020 N   0  0  0  0  0  0  0  0  0  0  0  0
   46.4620   35.6340   41.7580 H   0  0  0  0  0  0  0  0  0  0  0  0
   46.6200   32.9780   45.1260 H   0  0  0  0  0  0  0  0  0  0  0  0
   43.9050   36.1620   45.0590 H   0  0  0  0  0  0  0  0  0  0  0  0
   48.2140   34.9000   40.4090 O   0  0  0  0  0  0  0  0  0  0  0  0
   47.7140   34.1640   39.3860 C   0  0  0  0  0  0  0  0  0  0  0  0
   46.5540   33.6850   39.6730 O   0  0  0  0  0  0  0  0  0  0  0  0
   47.5730   33.4850   38.0700 C   0  0  0  0  0  3  0  0  0  0  0  0
   48.7630   33.8750   37.1940 C   0  0  0  0  0  2  0  0  0  0  0  0
   48.5340   33.1310   35.8890 C   0  0  0  0  0  2  0  0  0  0  0  0
   48.8180   31.6710   36.1820 C   0  0  0  0  0  2  0  0  0  0  0  0
   47.6340   31.2000   37.0270 C   0  0  0  0  0  2  0  0  0  0  0  0
   47.5060   32.0050   38.2720 C   0  0  0  0  0  2  0  0  0  0  0  0
  2  1  2  1  0  0  0
  2  5  1  0  0  0  0
  3  2  1  0  0  0  0
  4  3  1  0  0  0  0
  5  7  1  0  0  0  0
  6 11  2  0  0  0  0
  6  7  1  0  0  0  0
  7  8  2  0  0  0  0
  8 13  1  0  0  0  0
  8  9  1  0  0  0  0
 10 14  1  0  0  0  0
 10  9  2  0  0  0  0
 11 10  1  0  0  0  0
 12  6  1  0  0  0  0
 15  2  1  0  0  0  0
 16 17  2  0  0  0  0
 16 15  1  0  0  0  0
 18 23  1  0  0  0  0
 18 16  1  0  0  0  0
 19 18  1  0  0  0  0
 20 21  1  0  0  0  0
 20 19  1  0  0  0  0
 21 22  1  0  0  0  0
 22 23  1  0  0  0  0
M  END
>  <minimizedAffinity>
-4.57686996

>  <minimizedRMSD>
0.539400399

$$$$
