
 OpenBabel03242514323D

 23 24  0  0  0  0  0  0  0  0999 V2000
   49.4640   35.4850   42.6000 O   0  0  0  0  0  0  0  0  0  0  0  0
   48.9040   34.3230   41.8470 P   0  0  1  0  0  0  0  0  0  0  0  0
   50.1860   33.3020   41.4760 O   0  0  0  0  0  0  0  0  0  0  0  0
   49.9280   32.6270   40.7830 H   0  0  0  0  0  0  0  0  0  0  0  0
   47.7240   33.5020   42.7760 O   0  0  0  0  0  0  0  0  0  0  0  0
   46.1500   35.2880   42.7460 C   0  0  0  0  0  0  0  0  0  0  0  0
   46.6940   34.2000   43.4090 C   0  0  0  0  0  0  0  0  0  0  0  0
   46.1850   33.8630   44.6640 C   0  0  0  0  0  0  0  0  0  0  0  0
   45.1770   34.6250   45.1710 N   0  0  0  0  0  0  0  0  0  0  0  0
   44.6760   35.6670   44.5060 C   0  0  0  0  0  0  0  0  0  0  0  0
   45.1560   35.9960   43.3080 N   0  0  0  0  0  0  0  0  0  0  0  0
   46.4650   35.6360   41.7760 H   0  0  0  0  0  0  0  0  0  0  0  0
   46.6260   33.0070   45.1640 H   0  0  0  0  0  0  0  0  0  0  0  0
   43.8790   36.1620   45.0550 H   0  0  0  0  0  0  0  0  0  0  0  0
   48.2250   34.8920   40.4320 O   0  0  0  0  0  0  0  0  0  0  0  0
   47.7450   34.1330   39.4180 C   0  0  0  0  0  0  0  0  0  0  0  0
   46.5530   33.7150   39.6650 O   0  0  0  0  0  0  0  0  0  0  0  0
   47.6410   33.4010   38.1260 C   0  0  0  0  0  3  0  0  0  0  0  0
   48.6980   33.9500   37.1710 C   0  0  0  0  0  2  0  0  0  0  0  0
   48.5190   33.1400   35.8990 C   0  0  0  0  0  2  0  0  0  0  0  0
   49.0510   31.7550   36.2010 C   0  0  0  0  0  2  0  0  0  0  0  0
   48.0080   31.1250   37.1280 C   0  0  0  0  0  2  0  0  0  0  0  0
   47.8240   31.9360   38.3620 C   0  0  0  0  0  2  0  0  0  0  0  0
  2  1  2  1  0  0  0
  2  5  1  0  0  0  0
  3  2  1  0  0  0  0
  4  3  1  0  0  0  0
  5  7  1  0  0  0  0
  6 11  2  0  0  0  0
  6  7  1  0  0  0  0
  7  8  2  0  0  0  0
  8 13  1  0  0  0  0
  8  9  1  0  0  0  0
 10 14  1  0  0  0  0
 10  9  2  0  0  0  0
 11 10  1  0  0  0  0
 12  6  1  0  0  0  0
 15  2  1  0  0  0  0
 16 17  2  0  0  0  0
 16 15  1  0  0  0  0
 18 23  1  0  0  0  0
 18 16  1  0  0  0  0
 19 18  1  0  0  0  0
 20 21  1  0  0  0  0
 20 19  1  0  0  0  0
 21 22  1  0  0  0  0
 22 23  1  0  0  0  0
M  END
>  <minimizedAffinity>
-4.57997227

>  <minimizedRMSD>
0.607720077

$$$$
