
 OpenBabel03242514323D

 23 24  0  0  0  0  0  0  0  0999 V2000
   49.4610   35.5070   42.6090 O   0  0  0  0  0  0  0  0  0  0  0  0
   48.9110   34.3350   41.8640 P   0  0  1  0  0  0  0  0  0  0  0  0
   50.2010   33.3200   41.5040 O   0  0  0  0  0  0  0  0  0  0  0  0
   49.9490   32.6380   40.8160 H   0  0  0  0  0  0  0  0  0  0  0  0
   47.7350   33.5120   42.7970 O   0  0  0  0  0  0  0  0  0  0  0  0
   46.1520   35.2900   42.7510 C   0  0  0  0  0  0  0  0  0  0  0  0
   46.6980   34.2080   43.4210 C   0  0  0  0  0  0  0  0  0  0  0  0
   46.1830   33.8740   44.6750 C   0  0  0  0  0  0  0  0  0  0  0  0
   45.1690   34.6320   45.1730 N   0  0  0  0  0  0  0  0  0  0  0  0
   44.6660   35.6690   44.5000 C   0  0  0  0  0  0  0  0  0  0  0  0
   45.1510   35.9950   43.3040 N   0  0  0  0  0  0  0  0  0  0  0  0
   46.4710   35.6350   41.7800 H   0  0  0  0  0  0  0  0  0  0  0  0
   46.6260   33.0220   45.1810 H   0  0  0  0  0  0  0  0  0  0  0  0
   43.8640   36.1620   45.0430 H   0  0  0  0  0  0  0  0  0  0  0  0
   48.2310   34.8880   40.4430 O   0  0  0  0  0  0  0  0  0  0  0  0
   47.7630   34.1170   39.4310 C   0  0  0  0  0  0  0  0  0  0  0  0
   46.5590   33.7240   39.6560 O   0  0  0  0  0  0  0  0  0  0  0  0
   47.6790   33.3620   38.1520 C   0  0  0  0  0  3  0  0  0  0  0  0
   48.6360   34.0020   37.1480 C   0  0  0  0  0  2  0  0  0  0  0  0
   48.4860   33.1620   35.8910 C   0  0  0  0  0  2  0  0  0  0  0  0
   49.1660   31.8400   36.1830 C   0  0  0  0  0  2  0  0  0  0  0  0
   48.2300   31.1220   37.1580 C   0  0  0  0  0  2  0  0  0  0  0  0
   48.0180   31.9250   38.3920 C   0  0  0  0  0  2  0  0  0  0  0  0
  2  1  2  1  0  0  0
  2  5  1  0  0  0  0
  3  2  1  0  0  0  0
  4  3  1  0  0  0  0
  5  7  1  0  0  0  0
  6 11  2  0  0  0  0
  6  7  1  0  0  0  0
  7  8  2  0  0  0  0
  8  9  1  0  0  0  0
  8 13  1  0  0  0  0
 10 14  1  0  0  0  0
 10  9  2  0  0  0  0
 11 10  1  0  0  0  0
 12  6  1  0  0  0  0
 15  2  1  0  0  0  0
 16 17  2  0  0  0  0
 16 15  1  0  0  0  0
 18 23  1  0  0  0  0
 18 16  1  0  0  0  0
 19 18  1  0  0  0  0
 20 21  1  0  0  0  0
 20 19  1  0  0  0  0
 21 22  1  0  0  0  0
 22 23  1  0  0  0  0
M  END
>  <minimizedAffinity>
-4.57669544

>  <minimizedRMSD>
0.840726018

$$$$
