
 OpenBabel03242514343D

 23 24  0  0  0  0  0  0  0  0999 V2000
   38.0970   30.6780   41.5780 O   0  0  0  0  0  0  0  0  0  0  0  0
   36.9850   30.8420   40.5940 P   0  0  1  0  0  0  0  0  0  0  0  0
   35.5600   31.0010   41.4700 O   0  0  0  0  0  0  0  0  0  0  0  0
   34.7560   30.8850   40.8850 H   0  0  0  0  0  0  0  0  0  0  0  0
   37.2420   32.2130   39.6010 O   0  0  0  0  0  0  0  0  0  0  0  0
   39.2940   32.0520   38.4040 C   0  0  0  0  0  0  0  0  0  0  0  0
   38.5290   32.6960   39.3630 C   0  0  0  0  0  0  0  0  0  0  0  0
   39.0860   33.7860   40.0340 C   0  0  0  0  0  0  0  0  0  0  0  0
   40.3540   34.1600   39.7070 N   0  0  0  0  0  0  0  0  0  0  0  0
   41.0630   33.5160   38.7770 C   0  0  0  0  0  0  0  0  0  0  0  0
   40.5390   32.4750   38.1330 N   0  0  0  0  0  0  0  0  0  0  0  0
   38.9650   31.2030   37.8260 H   0  0  0  0  0  0  0  0  0  0  0  0
   38.4690   34.2760   40.7810 H   0  0  0  0  0  0  0  0  0  0  0  0
   42.0520   33.9450   38.6440 H   0  0  0  0  0  0  0  0  0  0  0  0
   36.9050   29.4630   39.6570 O   0  0  0  0  0  0  0  0  0  0  0  0
   36.9790   28.1870   40.1090 C   0  0  0  0  0  0  0  0  0  0  0  0
   36.1770   27.9900   41.0950 O   0  0  0  0  0  0  0  0  0  0  0  0
   37.3770   26.7610   40.2580 C   0  0  0  0  0  3  0  0  0  0  0  0
   37.2050   26.3610   41.7220 C   0  0  0  0  0  2  0  0  0  0  0  0
   37.6240   24.9020   41.7690 C   0  0  0  0  0  2  0  0  0  0  0  0
   36.5130   24.1230   41.0920 C   0  0  0  0  0  2  0  0  0  0  0  0
   36.6560   24.4470   39.6030 C   0  0  0  0  0  2  0  0  0  0  0  0
   36.5430   25.9090   39.3560 C   0  0  0  0  0  2  0  0  0  0  0  0
  2  3  1  0  0  0  0
  2  1  2  1  0  0  0
  4  3  1  0  0  0  0
  5  2  1  0  0  0  0
  6  7  1  0  0  0  0
  7  5  1  0  0  0  0
  7  8  2  0  0  0  0
  8 13  1  0  0  0  0
  9  8  1  0  0  0  0
 10  9  2  0  0  0  0
 11  6  2  0  0  0  0
 11 10  1  0  0  0  0
 12  6  1  0  0  0  0
 14 10  1  0  0  0  0
 15 16  1  0  0  0  0
 15  2  1  0  0  0  0
 16 18  1  0  0  0  0
 16 17  2  0  0  0  0
 18 19  1  0  0  0  0
 19 20  1  0  0  0  0
 21 20  1  0  0  0  0
 22 21  1  0  0  0  0
 23 22  1  0  0  0  0
 23 18  1  0  0  0  0
M  END
>  <minimizedAffinity>
-4.94207478

$$$$

 OpenBabel03242514343D

 23 24  0  0  0  0  0  0  0  0999 V2000
   33.9090   29.3110   39.5770 O   0  0  0  0  0  0  0  0  0  0  0  0
   35.3630   29.4580   39.8850 P   0  0  1  0  0  0  0  0  0  0  0  0
   35.5050   30.6110   41.0990 O   0  0  0  0  0  0  0  0  0  0  0  0
   36.4500   30.9260   41.1960 H   0  0  0  0  0  0  0  0  0  0  0  0
   36.0370   27.9660   40.3860 O   0  0  0  0  0  0  0  0  0  0  0  0
   36.6990   27.6970   42.6580 C   0  0  0  0  0  0  0  0  0  0  0  0
   37.0570   27.9220   41.3380 C   0  0  0  0  0  0  0  0  0  0  0  0
   38.4090   28.0890   41.0360 C   0  0  0  0  0  0  0  0  0  0  0  0
   39.3060   28.0230   42.0580 N   0  0  0  0  0  0  0  0  0  0  0  0
   38.9270   27.8050   43.3180 C   0  0  0  0  0  0  0  0  0  0  0  0
   37.6390   27.6430   43.6160 N   0  0  0  0  0  0  0  0  0  0  0  0
   35.6880   27.5530   43.0030 H   0  0  0  0  0  0  0  0  0  0  0  0
   38.6660   28.2640   39.9960 H   0  0  0  0  0  0  0  0  0  0  0  0
   39.7700   27.7820   44.0040 H   0  0  0  0  0  0  0  0  0  0  0  0
   36.1390   30.0040   38.5110 O   0  0  0  0  0  0  0  0  0  0  0  0
   37.0700   30.9880   38.4600 C   0  0  0  0  0  0  0  0  0  0  0  0
   37.3850   31.2760   37.2470 O   0  0  0  0  0  0  0  0  0  0  0  0
   38.0440   32.0350   38.8710 C   0  0  0  0  0  3  0  0  0  0  0  0
   37.2890   33.1330   39.6170 C   0  0  0  0  0  2  0  0  0  0  0  0
   38.3610   34.1400   39.9980 C   0  0  0  0  0  2  0  0  0  0  0  0
   39.1680   33.4960   41.1080 C   0  0  0  0  0  2  0  0  0  0  0  0
   39.9880   32.4050   40.4170 C   0  0  0  0  0  2  0  0  0  0  0  0
   39.1080   31.4240   39.7260 C   0  0  0  0  0  2  0  0  0  0  0  0
  2  1  2  6  0  0  0
  2  5  1  0  0  0  0
  2  3  1  0  0  0  0
  3  4  1  0  0  0  0
  5  7  1  0  0  0  0
  6 12  1  0  0  0  0
  6 11  1  0  0  0  0
  7  6  2  0  0  0  0
  8  7  1  0  0  0  0
  8  9  2  0  0  0  0
  9 10  1  0  0  0  0
 10 11  2  0  0  0  0
 10 14  1  0  0  0  0
 13  8  1  0  0  0  0
 15  2  1  0  0  0  0
 16 15  1  0  0  0  0
 16 18  1  0  0  0  0
 17 16  2  0  0  0  0
 18 19  1  0  0  0  0
 18 23  1  0  0  0  0
 19 20  1  0  0  0  0
 20 21  1  0  0  0  0
 22 21  1  0  0  0  0
 23 22  1  0  0  0  0
M  END
>  <minimizedAffinity>
-4.8701601

$$$$

 OpenBabel03242514343D

 23 24  0  0  0  0  0  0  0  0999 V2000
   41.6980   29.9260   41.7080 O   0  0  0  0  0  0  0  0  0  0  0  0
   41.1690   31.2570   42.1290 P   0  0  1  0  0  0  0  0  0  0  0  0
   42.2720   31.9150   43.2130 O   0  0  0  0  0  0  0  0  0  0  0  0
   41.8800   32.6920   43.7080 H   0  0  0  0  0  0  0  0  0  0  0  0
   40.9580   32.2890   40.7780 O   0  0  0  0  0  0  0  0  0  0  0  0
   39.3700   31.5750   39.1530 C   0  0  0  0  0  0  0  0  0  0  0  0
   39.7060   32.4420   40.1810 C   0  0  0  0  0  0  0  0  0  0  0  0
   38.7790   33.4150   40.5590 C   0  0  0  0  0  0  0  0  0  0  0  0
   37.5910   33.4590   39.8970 N   0  0  0  0  0  0  0  0  0  0  0  0
   37.2990   32.6080   38.9110 C   0  0  0  0  0  0  0  0  0  0  0  0
   38.1770   31.6770   38.5440 N   0  0  0  0  0  0  0  0  0  0  0  0
   40.0070   30.7890   38.7810 H   0  0  0  0  0  0  0  0  0  0  0  0
   39.0640   34.0830   41.3660 H   0  0  0  0  0  0  0  0  0  0  0  0
   36.3110   32.7850   38.4940 H   0  0  0  0  0  0  0  0  0  0  0  0
   39.7080   31.0220   42.9030 O   0  0  0  0  0  0  0  0  0  0  0  0
   38.9840   29.8760   42.9060 C   0  0  0  0  0  0  0  0  0  0  0  0
   38.1540   29.8410   41.9240 O   0  0  0  0  0  0  0  0  0  0  0  0
   38.4540   28.5400   43.2890 C   0  0  0  0  0  3  0  0  0  0  0  0
   37.0050   28.4400   42.8180 C   0  0  0  0  0  2  0  0  0  0  0  0
   36.5620   27.0510   43.2440 C   0  0  0  0  0  2  0  0  0  0  0  0
   37.2670   26.0800   42.3170 C   0  0  0  0  0  2  0  0  0  0  0  0
   38.7300   26.0990   42.7660 C   0  0  0  0  0  2  0  0  0  0  0  0
   39.3030   27.4690   42.6820 C   0  0  0  0  0  2  0  0  0  0  0  0
  2  1  2  6  0  0  0
  2 15  1  0  0  0  0
  2  3  1  0  0  0  0
  3  4  1  0  0  0  0
  5  2  1  0  0  0  0
  6  7  1  0  0  0  0
  7  8  2  0  0  0  0
  7  5  1  0  0  0  0
  8 13  1  0  0  0  0
  9  8  1  0  0  0  0
 10  9  2  0  0  0  0
 11 10  1  0  0  0  0
 11  6  2  0  0  0  0
 12  6  1  0  0  0  0
 14 10  1  0  0  0  0
 15 16  1  0  0  0  0
 16 18  1  0  0  0  0
 17 16  2  0  0  0  0
 19 20  1  0  0  0  0
 19 18  1  0  0  0  0
 21 22  1  0  0  0  0
 21 20  1  0  0  0  0
 23 22  1  0  0  0  0
 23 18  1  0  0  0  0
M  END
>  <minimizedAffinity>
-4.84268379

$$$$

 OpenBabel03242514343D

 23 24  0  0  0  0  0  0  0  0999 V2000
   37.5810   32.4270   40.6200 O   0  0  0  0  0  0  0  0  0  0  0  0
   36.9430   31.0960   40.3890 P   0  0  1  0  0  0  0  0  0  0  0  0
   35.6280   30.9830   41.4290 O   0  0  0  0  0  0  0  0  0  0  0  0
   35.2930   30.0410   41.4950 H   0  0  0  0  0  0  0  0  0  0  0  0
   36.4420   30.9320   38.7600 O   0  0  0  0  0  0  0  0  0  0  0  0
   36.8680   29.3640   37.0180 C   0  0  0  0  0  0  0  0  0  0  0  0
   36.2150   29.6730   38.2010 C   0  0  0  0  0  0  0  0  0  0  0  0
   35.3740   28.7130   38.7660 C   0  0  0  0  0  0  0  0  0  0  0  0
   35.2400   27.5210   38.1220 N   0  0  0  0  0  0  0  0  0  0  0  0
   35.8830   27.2560   36.9830 C   0  0  0  0  0  0  0  0  0  0  0  0
   36.6880   28.1660   36.4380 N   0  0  0  0  0  0  0  0  0  0  0  0
   37.5390   30.0280   36.4970 H   0  0  0  0  0  0  0  0  0  0  0  0
   34.8740   28.9760   39.6920 H   0  0  0  0  0  0  0  0  0  0  0  0
   35.6620   26.2610   36.6070 H   0  0  0  0  0  0  0  0  0  0  0  0
   38.0520   29.9080   40.7690 O   0  0  0  0  0  0  0  0  0  0  0  0
   37.8920   28.9390   41.7040 C   0  0  0  0  0  0  0  0  0  0  0  0
   37.5720   29.4350   42.8470 O   0  0  0  0  0  0  0  0  0  0  0  0
   37.8270   27.6050   42.3610 C   0  0  0  0  0  3  0  0  0  0  0  0
   37.1260   26.6330   41.4150 C   0  0  0  0  0  2  0  0  0  0  0  0
   37.1170   25.3120   42.1660 C   0  0  0  0  0  2  0  0  0  0  0  0
   38.5460   24.8060   42.1430 C   0  0  0  0  0  2  0  0  0  0  0  0
   39.3030   25.7170   43.1110 C   0  0  0  0  0  2  0  0  0  0  0  0
   39.2090   27.1420   42.6960 C   0  0  0  0  0  2  0  0  0  0  0  0
  2  1  2  1  0  0  0
  2 15  1  0  0  0  0
  2  3  1  0  0  0  0
  3  4  1  0  0  0  0
  5  2  1  0  0  0  0
  6  7  1  0  0  0  0
  7  5  1  0  0  0  0
  7  8  2  0  0  0  0
  8 13  1  0  0  0  0
  9  8  1  0  0  0  0
 10  9  2  0  0  0  0
 11 10  1  0  0  0  0
 11  6  2  0  0  0  0
 12  6  1  0  0  0  0
 14 10  1  0  0  0  0
 15 16  1  0  0  0  0
 16 18  1  0  0  0  0
 16 17  2  0  0  0  0
 18 23  1  0  0  0  0
 19 20  1  0  0  0  0
 19 18  1  0  0  0  0
 21 20  1  0  0  0  0
 21 22  1  0  0  0  0
 23 22  1  0  0  0  0
M  END
>  <minimizedAffinity>
-4.83077765

$$$$

 OpenBabel03242514343D

 23 24  0  0  0  0  0  0  0  0999 V2000
   38.4610   31.2960   40.7700 O   0  0  0  0  0  0  0  0  0  0  0  0
   37.2350   31.6400   39.9890 P   0  0  1  0  0  0  0  0  0  0  0  0
   36.9430   33.2800   40.2130 O   0  0  0  0  0  0  0  0  0  0  0  0
   36.0220   33.5320   39.9130 H   0  0  0  0  0  0  0  0  0  0  0  0
   37.4450   31.2840   38.3280 O   0  0  0  0  0  0  0  0  0  0  0  0
   36.2070   29.6080   37.1750 C   0  0  0  0  0  0  0  0  0  0  0  0
   37.3560   29.9720   37.8580 C   0  0  0  0  0  0  0  0  0  0  0  0
   38.3540   29.0140   38.0360 C   0  0  0  0  0  0  0  0  0  0  0  0
   38.1450   27.7690   37.5270 N   0  0  0  0  0  0  0  0  0  0  0  0
   37.0260   27.4510   36.8740 C   0  0  0  0  0  0  0  0  0  0  0  0
   36.0680   28.3600   36.6990 N   0  0  0  0  0  0  0  0  0  0  0  0
   35.3750   30.2660   36.9800 H   0  0  0  0  0  0  0  0  0  0  0  0
   39.2460   29.3220   38.5740 H   0  0  0  0  0  0  0  0  0  0  0  0
   37.0250   26.4180   36.5370 H   0  0  0  0  0  0  0  0  0  0  0  0
   35.9550   30.7630   40.6060 O   0  0  0  0  0  0  0  0  0  0  0  0
   36.0180   29.5000   41.0930 C   0  0  0  0  0  0  0  0  0  0  0  0
   35.2660   28.6990   40.4240 O   0  0  0  0  0  0  0  0  0  0  0  0
   36.3840   28.3220   41.9270 C   0  0  0  0  0  3  0  0  0  0  0  0
   36.9100   27.2230   41.0070 C   0  0  0  0  0  2  0  0  0  0  0  0
   37.2610   26.0790   41.9430 C   0  0  0  0  0  2  0  0  0  0  0  0
   38.5150   26.5080   42.6800 C   0  0  0  0  0  2  0  0  0  0  0  0
   38.0480   27.5880   43.6570 C   0  0  0  0  0  2  0  0  0  0  0  0
   37.4060   28.7230   42.9420 C   0  0  0  0  0  2  0  0  0  0  0  0
  2  3  1  0  0  0  0
  2 15  1  0  0  0  0
  2  1  2  1  0  0  0
  4  3  1  0  0  0  0
  5  2  1  0  0  0  0
  6  7  1  0  0  0  0
  7  8  2  0  0  0  0
  7  5  1  0  0  0  0
  8 13  1  0  0  0  0
  9  8  1  0  0  0  0
 10  9  2  0  0  0  0
 11 10  1  0  0  0  0
 11  6  2  0  0  0  0
 12  6  1  0  0  0  0
 14 10  1  0  0  0  0
 15 16  1  0  0  0  0
 16 18  1  0  0  0  0
 17 16  2  0  0  0  0
 18 23  1  0  0  0  0
 19 18  1  0  0  0  0
 19 20  1  0  0  0  0
 20 21  1  0  0  0  0
 21 22  1  0  0  0  0
 23 22  1  0  0  0  0
M  END
>  <minimizedAffinity>
-4.79253292

$$$$

 OpenBabel03242514343D

 23 24  0  0  0  0  0  0  0  0999 V2000
   39.5090   33.4950   40.5080 O   0  0  0  0  0  0  0  0  0  0  0  0
   38.4080   32.5510   40.1500 P   0  0  1  0  0  0  0  0  0  0  0  0
   36.9630   33.3990   40.2690 O   0  0  0  0  0  0  0  0  0  0  0  0
   36.1740   32.7810   40.2680 H   0  0  0  0  0  0  0  0  0  0  0  0
   38.6200   31.9340   38.5660 O   0  0  0  0  0  0  0  0  0  0  0  0
   40.2700   30.2180   38.4850 C   0  0  0  0  0  0  0  0  0  0  0  0
   39.8710   31.4960   38.1280 C   0  0  0  0  0  0  0  0  0  0  0  0
   40.7370   32.2700   37.3530 C   0  0  0  0  0  0  0  0  0  0  0  0
   41.9300   31.7250   36.9890 N   0  0  0  0  0  0  0  0  0  0  0  0
   42.2820   30.4900   37.3510 C   0  0  0  0  0  0  0  0  0  0  0  0
   41.4630   29.7450   38.0900 N   0  0  0  0  0  0  0  0  0  0  0  0
   39.6820   29.5370   39.0790 H   0  0  0  0  0  0  0  0  0  0  0  0
   40.4030   33.2670   37.0850 H   0  0  0  0  0  0  0  0  0  0  0  0
   43.2640   30.2160   36.9750 H   0  0  0  0  0  0  0  0  0  0  0  0
   38.4070   31.3010   41.2560 O   0  0  0  0  0  0  0  0  0  0  0  0
   37.4890   30.3080   41.3340 C   0  0  0  0  0  0  0  0  0  0  0  0
   36.2890   30.7710   41.3000 O   0  0  0  0  0  0  0  0  0  0  0  0
   36.8720   28.9570   41.4390 C   0  0  0  0  0  3  0  0  0  0  0  0
   37.4460   28.0760   40.3320 C   0  0  0  0  0  2  0  0  0  0  0  0
   36.7670   26.7300   40.5270 C   0  0  0  0  0  2  0  0  0  0  0  0
   37.3850   26.1240   41.7720 C   0  0  0  0  0  2  0  0  0  0  0  0
   36.8130   26.9400   42.9330 C   0  0  0  0  0  2  0  0  0  0  0  0
   37.1440   28.3830   42.7930 C   0  0  0  0  0  2  0  0  0  0  0  0
  2  3  1  0  0  0  0
  2  1  2  1  0  0  0
  2 15  1  0  0  0  0
  4  3  1  0  0  0  0
  5  2  1  0  0  0  0
  6 12  1  0  0  0  0
  7  6  1  0  0  0  0
  7  5  1  0  0  0  0
  8  7  2  0  0  0  0
  9 10  2  0  0  0  0
  9  8  1  0  0  0  0
 10 11  1  0  0  0  0
 11  6  2  0  0  0  0
 13  8  1  0  0  0  0
 14 10  1  0  0  0  0
 15 16  1  0  0  0  0
 16 18  1  0  0  0  0
 17 16  2  0  0  0  0
 18 23  1  0  0  0  0
 19 20  1  0  0  0  0
 19 18  1  0  0  0  0
 20 21  1  0  0  0  0
 21 22  1  0  0  0  0
 23 22  1  0  0  0  0
M  END
>  <minimizedAffinity>
-4.78533792

$$$$

 OpenBabel03242514343D

 23 24  0  0  0  0  0  0  0  0999 V2000
   39.5430   29.5010   40.7970 O   0  0  0  0  0  0  0  0  0  0  0  0
   38.9620   30.4850   41.7590 P   0  0  1  0  0  0  0  0  0  0  0  0
   40.1230   31.6680   42.0280 O   0  0  0  0  0  0  0  0  0  0  0  0
   39.8960   32.2290   42.8260 H   0  0  0  0  0  0  0  0  0  0  0  0
   37.5250   31.1770   41.1340 O   0  0  0  0  0  0  0  0  0  0  0  0
   35.7880   29.6300   40.6220 C   0  0  0  0  0  0  0  0  0  0  0  0
   36.7640   30.5070   40.1750 C   0  0  0  0  0  0  0  0  0  0  0  0
   36.9280   30.6720   38.7990 C   0  0  0  0  0  0  0  0  0  0  0  0
   36.1190   29.9600   37.9680 N   0  0  0  0  0  0  0  0  0  0  0  0
   35.1890   29.1230   38.4320 C   0  0  0  0  0  0  0  0  0  0  0  0
   35.0250   28.9590   39.7430 N   0  0  0  0  0  0  0  0  0  0  0  0
   35.5750   29.4260   41.6590 H   0  0  0  0  0  0  0  0  0  0  0  0
   37.6970   31.3640   38.4720 H   0  0  0  0  0  0  0  0  0  0  0  0
   34.6350   28.6380   37.6330 H   0  0  0  0  0  0  0  0  0  0  0  0
   38.6390   29.6910   43.1920 O   0  0  0  0  0  0  0  0  0  0  0  0
   38.1760   28.4230   43.3130 C   0  0  0  0  0  0  0  0  0  0  0  0
   36.9430   28.4050   43.6800 O   0  0  0  0  0  0  0  0  0  0  0  0
   38.1080   26.9370   43.3120 C   0  0  0  0  0  3  0  0  0  0  0  0
   37.3220   26.4890   42.0820 C   0  0  0  0  0  2  0  0  0  0  0  0
   37.3160   24.9720   42.1670 C   0  0  0  0  0  2  0  0  0  0  0  0
   38.7240   24.5250   41.8260 C   0  0  0  0  0  2  0  0  0  0  0  0
   39.5640   24.9090   43.0460 C   0  0  0  0  0  2  0  0  0  0  0  0
   39.4920   26.3700   43.3140 C   0  0  0  0  0  2  0  0  0  0  0  0
  2  1  2  6  0  0  0
  2  3  1  0  0  0  0
  2 15  1  0  0  0  0
  3  4  1  0  0  0  0
  5  2  1  0  0  0  0
  6 12  1  0  0  0  0
  7  6  1  0  0  0  0
  7  5  1  0  0  0  0
  8  7  2  0  0  0  0
  9 10  2  0  0  0  0
  9  8  1  0  0  0  0
 10 11  1  0  0  0  0
 11  6  2  0  0  0  0
 13  8  1  0  0  0  0
 14 10  1  0  0  0  0
 15 16  1  0  0  0  0
 16 17  2  0  0  0  0
 18 16  1  0  0  0  0
 18 23  1  0  0  0  0
 19 20  1  0  0  0  0
 19 18  1  0  0  0  0
 21 20  1  0  0  0  0
 21 22  1  0  0  0  0
 22 23  1  0  0  0  0
M  END
>  <minimizedAffinity>
-4.71572971

$$$$

 OpenBabel03242514343D

 23 24  0  0  0  0  0  0  0  0999 V2000
   35.2680   29.8070   40.3690 O   0  0  0  0  0  0  0  0  0  0  0  0
   36.6950   30.0800   40.7170 P   0  0  1  0  0  0  0  0  0  0  0  0
   37.6420   29.4580   39.4760 O   0  0  0  0  0  0  0  0  0  0  0  0
   38.6050   29.3990   39.7440 H   0  0  0  0  0  0  0  0  0  0  0  0
   36.9700   31.7600   40.9040 O   0  0  0  0  0  0  0  0  0  0  0  0
   39.3070   31.7570   41.3600 C   0  0  0  0  0  0  0  0  0  0  0  0
   38.2330   32.3100   40.6820 C   0  0  0  0  0  0  0  0  0  0  0  0
   38.4720   33.3810   39.8200 C   0  0  0  0  0  0  0  0  0  0  0  0
   39.7530   33.8250   39.6900 N   0  0  0  0  0  0  0  0  0  0  0  0
   40.7650   33.2680   40.3580 C   0  0  0  0  0  0  0  0  0  0  0  0
   40.5450   32.2460   41.1830 N   0  0  0  0  0  0  0  0  0  0  0  0
   39.2380   30.9300   42.0480 H   0  0  0  0  0  0  0  0  0  0  0  0
   37.6160   33.7990   39.2990 H   0  0  0  0  0  0  0  0  0  0  0  0
   41.7160   33.7450   40.1370 H   0  0  0  0  0  0  0  0  0  0  0  0
   37.0520   29.2790   42.1370 O   0  0  0  0  0  0  0  0  0  0  0  0
   37.5330   28.0160   42.2400 C   0  0  0  0  0  0  0  0  0  0  0  0
   38.7050   27.9140   41.7170 O   0  0  0  0  0  0  0  0  0  0  0  0
   37.6470   26.5690   42.5650 C   0  0  0  0  0  3  0  0  0  0  0  0
   37.1560   25.7630   41.3640 C   0  0  0  0  0  2  0  0  0  0  0  0
   37.3190   24.3130   41.7870 C   0  0  0  0  0  2  0  0  0  0  0  0
   38.8090   24.0340   41.7730 C   0  0  0  0  0  2  0  0  0  0  0  0
   39.3620   24.7830   42.9870 C   0  0  0  0  0  2  0  0  0  0  0  0
   39.0660   26.2390   42.9040 C   0  0  0  0  0  2  0  0  0  0  0  0
  2  1  2  6  0  0  0
  2  5  1  0  0  0  0
  2 15  1  0  0  0  0
  3  4  1  0  0  0  0
  3  2  1  0  0  0  0
  6 12  1  0  0  0  0
  7  5  1  0  0  0  0
  7  6  2  0  0  0  0
  8  7  1  0  0  0  0
  9  8  2  0  0  0  0
  9 10  1  0  0  0  0
 10 11  2  0  0  0  0
 11  6  1  0  0  0  0
 13  8  1  0  0  0  0
 14 10  1  0  0  0  0
 15 16  1  0  0  0  0
 16 18  1  0  0  0  0
 17 16  2  0  0  0  0
 18 23  1  0  0  0  0
 19 20  1  0  0  0  0
 19 18  1  0  0  0  0
 21 20  1  0  0  0  0
 21 22  1  0  0  0  0
 23 22  1  0  0  0  0
M  END
>  <minimizedAffinity>
-4.65131807

$$$$

 OpenBabel03242514343D

 23 24  0  0  0  0  0  0  0  0999 V2000
   39.8030   29.6370   40.8350 O   0  0  0  0  0  0  0  0  0  0  0  0
   38.9890   30.8230   41.2390 P   0  0  1  0  0  0  0  0  0  0  0  0
   39.8620   31.6550   42.4080 O   0  0  0  0  0  0  0  0  0  0  0  0
   39.2900   32.3230   42.8860 H   0  0  0  0  0  0  0  0  0  0  0  0
   38.6650   31.8310   39.8930 O   0  0  0  0  0  0  0  0  0  0  0  0
   40.0930   31.6950   37.9920 C   0  0  0  0  0  0  0  0  0  0  0  0
   39.7040   32.3740   39.1360 C   0  0  0  0  0  0  0  0  0  0  0  0
   40.3690   33.5560   39.4650 C   0  0  0  0  0  0  0  0  0  0  0  0
   41.3660   33.9800   38.6410 N   0  0  0  0  0  0  0  0  0  0  0  0
   41.7150   33.3020   37.5460 C   0  0  0  0  0  0  0  0  0  0  0  0
   41.0870   32.1730   37.2250 N   0  0  0  0  0  0  0  0  0  0  0  0
   39.6500   30.7760   37.6440 H   0  0  0  0  0  0  0  0  0  0  0  0
   40.0480   34.0710   40.3650 H   0  0  0  0  0  0  0  0  0  0  0  0
   42.5280   33.7810   37.0070 H   0  0  0  0  0  0  0  0  0  0  0  0
   37.5580   30.2770   41.9030 O   0  0  0  0  0  0  0  0  0  0  0  0
   37.1590   28.9840   41.9830 C   0  0  0  0  0  0  0  0  0  0  0  0
   37.1520   28.5670   43.2000 O   0  0  0  0  0  0  0  0  0  0  0  0
   36.6910   27.6230   41.6050 C   0  0  0  0  0  3  0  0  0  0  0  0
   37.1390   27.3370   40.1730 C   0  0  0  0  0  2  0  0  0  0  0  0
   36.6260   25.9360   39.8870 C   0  0  0  0  0  2  0  0  0  0  0  0
   37.5020   24.9950   40.6900 C   0  0  0  0  0  2  0  0  0  0  0  0
   37.0730   25.2000   42.1440 C   0  0  0  0  0  2  0  0  0  0  0  0
   37.2450   26.6170   42.5630 C   0  0  0  0  0  2  0  0  0  0  0  0
  2  1  2  6  0  0  0
  2 15  1  0  0  0  0
  2  3  1  0  0  0  0
  3  4  1  0  0  0  0
  5  2  1  0  0  0  0
  6  7  1  0  0  0  0
  7  8  2  0  0  0  0
  7  5  1  0  0  0  0
  8 13  1  0  0  0  0
  9  8  1  0  0  0  0
 10  9  2  0  0  0  0
 11 10  1  0  0  0  0
 11  6  2  0  0  0  0
 12  6  1  0  0  0  0
 14 10  1  0  0  0  0
 15 16  1  0  0  0  0
 16 17  2  0  0  0  0
 18 16  1  0  0  0  0
 18 23  1  0  0  0  0
 19 18  1  0  0  0  0
 20 19  1  0  0  0  0
 20 21  1  0  0  0  0
 21 22  1  0  0  0  0
 22 23  1  0  0  0  0
M  END
>  <minimizedAffinity>
-4.60157251

$$$$
