
 OpenBabel03242514323D

 23 24  0  0  0  0  0  0  0  0999 V2000
   49.4650   35.5120   42.6120 O   0  0  0  0  0  0  0  0  0  0  0  0
   48.9140   34.3390   41.8700 P   0  0  1  0  0  0  0  0  0  0  0  0
   50.2040   33.3240   41.5080 O   0  0  0  0  0  0  0  0  0  0  0  0
   49.9510   32.6410   40.8220 H   0  0  0  0  0  0  0  0  0  0  0  0
   47.7410   33.5160   42.8080 O   0  0  0  0  0  0  0  0  0  0  0  0
   46.1560   35.2920   42.7540 C   0  0  0  0  0  0  0  0  0  0  0  0
   46.7010   34.2110   43.4270 C   0  0  0  0  0  0  0  0  0  0  0  0
   46.1820   33.8780   44.6790 C   0  0  0  0  0  0  0  0  0  0  0  0
   45.1640   34.6350   45.1730 N   0  0  0  0  0  0  0  0  0  0  0  0
   44.6620   35.6710   44.4970 C   0  0  0  0  0  0  0  0  0  0  0  0
   45.1520   35.9960   43.3020 N   0  0  0  0  0  0  0  0  0  0  0  0
   46.4780   35.6370   41.7850 H   0  0  0  0  0  0  0  0  0  0  0  0
   46.6230   33.0270   45.1880 H   0  0  0  0  0  0  0  0  0  0  0  0
   43.8580   36.1630   45.0370 H   0  0  0  0  0  0  0  0  0  0  0  0
   48.2290   34.8890   40.4500 O   0  0  0  0  0  0  0  0  0  0  0  0
   47.7640   34.1160   39.4390 C   0  0  0  0  0  0  0  0  0  0  0  0
   46.5560   33.7310   39.6580 O   0  0  0  0  0  0  0  0  0  0  0  0
   47.6840   33.3550   38.1630 C   0  0  0  0  0  3  0  0  0  0  0  0
   48.6240   34.0070   37.1510 C   0  0  0  0  0  2  0  0  0  0  0  0
   48.4800   33.1610   35.8970 C   0  0  0  0  0  2  0  0  0  0  0  0
   49.1830   31.8500   36.1890 C   0  0  0  0  0  2  0  0  0  0  0  0
   48.2650   31.1200   37.1730 C   0  0  0  0  0  2  0  0  0  0  0  0
   48.0470   31.9250   38.4060 C   0  0  0  0  0  2  0  0  0  0  0  0
  2  1  2  1  0  0  0
  2  5  1  0  0  0  0
  3  2  1  0  0  0  0
  4  3  1  0  0  0  0
  5  7  1  0  0  0  0
  6 11  2  0  0  0  0
  6  7  1  0  0  0  0
  7  8  2  0  0  0  0
  8  9  1  0  0  0  0
  8 13  1  0  0  0  0
 10 14  1  0  0  0  0
 10  9  2  0  0  0  0
 11 10  1  0  0  0  0
 12  6  1  0  0  0  0
 15  2  1  0  0  0  0
 16 17  2  0  0  0  0
 16 15  1  0  0  0  0
 18 23  1  0  0  0  0
 18 16  1  0  0  0  0
 19 18  1  0  0  0  0
 20 21  1  0  0  0  0
 20 19  1  0  0  0  0
 21 22  1  0  0  0  0
 22 23  1  0  0  0  0
M  END
>  <minimizedAffinity>
-4.57414007

>  <minimizedRMSD>
0.979412138

$$$$
