
 OpenBabel03242520133D

 32 34  0  0  0  0  0  0  0  0999 V2000
   39.8660   30.2010   41.9860 C   0  0  0  0  0  0  0  0  0  0  0  0
   41.0640   29.5940   42.1070 C   0  0  0  0  0  0  0  0  0  0  0  0
   41.1380   28.3770   42.7660 C   0  0  0  0  0  0  0  0  0  0  0  0
   39.9810   27.8010   43.2910 C   0  0  0  0  0  0  0  0  0  0  0  0
   38.7630   28.4680   43.1420 C   0  0  0  0  0  0  0  0  0  0  0  0
   38.7640   29.6060   42.5130 N   0  0  0  0  0  0  0  0  0  0  0  0
   41.8910   30.1240   41.6660 H   0  0  0  0  0  0  0  0  0  0  0  0
   42.1150   27.9290   42.8390 H   0  0  0  0  0  0  0  0  0  0  0  0
   40.0630   26.8440   43.8060 H   0  0  0  0  0  0  0  0  0  0  0  0
   38.2480   33.0360   40.3350 C   0  0  0  0  0  0  0  0  0  0  0  0
   39.3590   33.8660   40.0680 C   0  0  0  0  0  0  0  0  0  0  0  0
   40.6550   33.4610   40.4480 C   0  0  0  0  0  0  0  0  0  0  0  0
   40.7280   32.2680   41.0610 N   0  0  0  0  0  0  0  0  0  0  0  0
   39.6730   31.4870   41.3100 C   0  0  0  0  0  0  0  0  0  0  0  0
   38.4380   31.8770   40.9460 N   0  0  0  0  0  0  0  0  0  0  0  0
   36.9660   33.4750   39.9410 N   0  0  0  0  0  0  0  0  0  0  0  0
   39.2080   34.8090   39.5720 H   0  0  0  0  0  0  0  0  0  0  0  0
   41.5150   34.0680   40.2600 H   0  0  0  0  0  0  0  0  0  0  0  0
   36.8880   34.0120   39.0470 H   0  0  0  0  0  0  0  0  0  0  0  0
   36.1440   33.2520   40.5430 H   0  0  0  0  0  0  0  0  0  0  0  0
   37.5480   27.8890   43.6800 C   0  0  0  0  0  3  0  0  0  0  0  0
   36.6780   27.1980   42.9440 C   0  0  0  0  0  3  0  0  0  0  0  0
   36.8810   26.9620   41.5010 C   0  0  0  0  0  0  0  0  0  0  0  0
   37.5250   27.7930   41.1160 H   0  0  0  0  0  0  0  0  0  0  0  0
   35.8910   27.1460   41.0120 H   0  0  0  0  0  0  0  0  0  0  0  0
   37.4510   25.6570   41.1600 C   0  0  0  0  0  0  0  0  0  0  0  0
   36.8560   24.4370   41.4120 C   0  0  0  0  0  3  0  0  0  0  0  0
   37.5690   23.3270   41.0080 C   0  0  0  0  0  0  0  0  0  0  0  0
   37.1290   22.3540   41.1920 H   0  0  0  0  0  0  0  0  0  0  0  0
   38.7670   23.3770   40.4040 N   0  0  0  0  0  0  0  0  0  0  0  0
   39.3180   24.5750   40.1730 C   0  0  0  0  0  3  0  0  0  0  0  0
   38.6590   25.6760   40.5500 N   0  0  0  0  0  0  0  0  0  0  0  0
  1  2  2  0  0  0  0
  1  6  1  0  0  0  0
  2  3  1  0  0  0  0
  3  8  1  0  0  0  0
  3  4  2  0  0  0  0
  4  9  1  0  0  0  0
  5  4  1  0  0  0  0
  5 21  1  0  0  0  0
  6  5  2  0  0  0  0
  7  2  1  0  0  0  0
 10 15  1  0  0  0  0
 11 10  2  0  0  0  0
 11 12  1  0  0  0  0
 12 13  2  0  0  0  0
 13 14  1  0  0  0  0
 14  1  1  0  0  0  0
 15 14  2  0  0  0  0
 16 10  1  0  0  0  0
 16 20  1  0  0  0  0
 17 11  1  0  0  0  0
 18 12  1  0  0  0  0
 19 16  1  0  0  0  0
 22 21  2  0  0  0  0
 23 22  1  0  0  0  0
 24 23  1  0  0  0  0
 25 23  1  0  0  0  0
 26 27  1  0  0  0  0
 26 23  1  0  0  0  0
 28 29  1  0  0  0  0
 28 27  2  0  0  0  0
 30 28  1  0  0  0  0
 31 30  2  0  0  0  0
 31 32  1  0  0  0  0
 32 26  2  0  0  0  0
M  END
>  <minimizedAffinity>
-6.01909304

$$$$

 OpenBabel03242520133D

 32 34  0  0  0  0  0  0  0  0999 V2000
   37.7430   30.5470   40.4100 C   0  0  0  0  0  0  0  0  0  0  0  0
   36.6440   30.2150   39.7020 C   0  0  0  0  0  0  0  0  0  0  0  0
   35.7620   29.2840   40.2250 C   0  0  0  0  0  0  0  0  0  0  0  0
   36.0190   28.7050   41.4680 C   0  0  0  0  0  0  0  0  0  0  0  0
   37.1710   29.0790   42.1640 C   0  0  0  0  0  0  0  0  0  0  0  0
   37.9560   29.9580   41.6160 N   0  0  0  0  0  0  0  0  0  0  0  0
   36.5410   30.7210   38.7560 H   0  0  0  0  0  0  0  0  0  0  0  0
   34.8980   29.0500   39.6240 H   0  0  0  0  0  0  0  0  0  0  0  0
   35.3110   27.9750   41.8590 H   0  0  0  0  0  0  0  0  0  0  0  0
   40.0080   32.4180   38.2320 C   0  0  0  0  0  0  0  0  0  0  0  0
   40.5830   33.3240   39.1510 C   0  0  0  0  0  0  0  0  0  0  0  0
   40.2010   33.2960   40.5080 C   0  0  0  0  0  0  0  0  0  0  0  0
   39.2810   32.3720   40.8270 N   0  0  0  0  0  0  0  0  0  0  0  0
   38.7410   31.5180   39.9530 C   0  0  0  0  0  0  0  0  0  0  0  0
   39.1080   31.5470   38.6590 N   0  0  0  0  0  0  0  0  0  0  0  0
   40.4140   32.4750   36.8820 N   0  0  0  0  0  0  0  0  0  0  0  0
   41.3150   34.0330   38.8060 H   0  0  0  0  0  0  0  0  0  0  0  0
   40.6180   33.9690   41.2270 H   0  0  0  0  0  0  0  0  0  0  0  0
   41.4160   32.7010   36.6830 H   0  0  0  0  0  0  0  0  0  0  0  0
   39.7130   32.2910   36.1310 H   0  0  0  0  0  0  0  0  0  0  0  0
   37.4590   28.4910   43.4570 C   0  0  0  0  0  3  0  0  0  0  0  0
   38.3170   27.4860   43.6300 C   0  0  0  0  0  3  0  0  0  0  0  0
   39.0530   26.8790   42.5040 C   0  0  0  0  0  0  0  0  0  0  0  0
   40.0960   26.6780   42.8590 H   0  0  0  0  0  0  0  0  0  0  0  0
   39.1840   27.6890   41.7420 H   0  0  0  0  0  0  0  0  0  0  0  0
   38.4470   25.6670   41.9480 C   0  0  0  0  0  0  0  0  0  0  0  0
   37.1330   25.2810   42.1240 C   0  0  0  0  0  3  0  0  0  0  0  0
   36.7670   24.1000   41.5120 C   0  0  0  0  0  0  0  0  0  0  0  0
   35.7420   23.7700   41.6300 H   0  0  0  0  0  0  0  0  0  0  0  0
   37.5980   23.3380   40.7840 N   0  0  0  0  0  0  0  0  0  0  0  0
   38.8670   23.7380   40.6320 C   0  0  0  0  0  3  0  0  0  0  0  0
   39.2610   24.8780   41.2090 N   0  0  0  0  0  0  0  0  0  0  0  0
  1  6  1  0  0  0  0
  2  3  1  0  0  0  0
  2  1  2  0  0  0  0
  3  4  2  0  0  0  0
  4  9  1  0  0  0  0
  4  5  1  0  0  0  0
  5 21  1  0  0  0  0
  6  5  2  0  0  0  0
  7  2  1  0  0  0  0
  8  3  1  0  0  0  0
 10 15  2  0  0  0  0
 10 11  1  0  0  0  0
 11 12  2  0  0  0  0
 12 13  1  0  0  0  0
 12 18  1  0  0  0  0
 14  1  1  0  0  0  0
 14 13  2  0  0  0  0
 15 14  1  0  0  0  0
 16 10  1  0  0  0  0
 17 11  1  0  0  0  0
 19 16  1  0  0  0  0
 20 16  1  0  0  0  0
 21 22  2  0  0  0  0
 23 24  1  0  0  0  0
 23 22  1  0  0  0  0
 25 23  1  0  0  0  0
 26 27  1  0  0  0  0
 26 23  1  0  0  0  0
 28 29  1  0  0  0  0
 28 27  2  0  0  0  0
 30 28  1  0  0  0  0
 31 30  2  0  0  0  0
 31 32  1  0  0  0  0
 32 26  2  0  0  0  0
M  END
>  <minimizedAffinity>
-5.92543507

$$$$

 OpenBabel03242520133D

 32 34  0  0  0  0  0  0  0  0999 V2000
   39.9240   30.1680   42.0500 C   0  0  0  0  0  0  0  0  0  0  0  0
   41.1500   29.6260   42.2010 C   0  0  0  0  0  0  0  0  0  0  0  0
   41.2740   28.4140   42.8590 C   0  0  0  0  0  0  0  0  0  0  0  0
   40.1370   27.7730   43.3540 C   0  0  0  0  0  0  0  0  0  0  0  0
   38.8890   28.3740   43.1740 C   0  0  0  0  0  0  0  0  0  0  0  0
   38.8440   29.5120   42.5480 N   0  0  0  0  0  0  0  0  0  0  0  0
   41.9580   30.2030   41.7820 H   0  0  0  0  0  0  0  0  0  0  0  0
   42.2720   28.0190   42.9560 H   0  0  0  0  0  0  0  0  0  0  0  0
   40.2580   26.8200   43.8680 H   0  0  0  0  0  0  0  0  0  0  0  0
   38.1970   32.9190   40.3680 C   0  0  0  0  0  0  0  0  0  0  0  0
   39.2680   33.8060   40.1270 C   0  0  0  0  0  0  0  0  0  0  0  0
   40.5740   33.4700   40.5350 C   0  0  0  0  0  0  0  0  0  0  0  0
   40.6960   32.2810   41.1480 N   0  0  0  0  0  0  0  0  0  0  0  0
   39.6790   31.4440   41.3720 C   0  0  0  0  0  0  0  0  0  0  0  0
   38.4330   31.7690   40.9810 N   0  0  0  0  0  0  0  0  0  0  0  0
   36.9020   33.2900   39.9460 N   0  0  0  0  0  0  0  0  0  0  0  0
   39.0780   34.7410   39.6290 H   0  0  0  0  0  0  0  0  0  0  0  0
   41.4060   34.1210   40.3680 H   0  0  0  0  0  0  0  0  0  0  0  0
   36.8160   33.8240   39.0510 H   0  0  0  0  0  0  0  0  0  0  0  0
   36.0800   33.0220   40.5290 H   0  0  0  0  0  0  0  0  0  0  0  0
   37.6940   27.7270   43.6800 C   0  0  0  0  0  3  0  0  0  0  0  0
   36.8560   27.0330   42.9110 C   0  0  0  0  0  3  0  0  0  0  0  0
   37.0760   26.8630   41.4610 C   0  0  0  0  0  0  0  0  0  0  0  0
   36.5250   25.9410   41.1480 H   0  0  0  0  0  0  0  0  0  0  0  0
   38.1530   26.5830   41.3400 H   0  0  0  0  0  0  0  0  0  0  0  0
   36.6890   28.0100   40.6370 C   0  0  0  0  0  0  0  0  0  0  0  0
   35.6080   28.8350   40.8770 C   0  0  0  0  0  3  0  0  0  0  0  0
   35.4230   29.8600   39.9710 C   0  0  0  0  0  0  0  0  0  0  0  0
   34.5830   30.5250   40.1320 H   0  0  0  0  0  0  0  0  0  0  0  0
   36.2140   30.0830   38.9100 N   0  0  0  0  0  0  0  0  0  0  0  0
   37.2540   29.2650   38.7050 C   0  0  0  0  0  3  0  0  0  0  0  0
   37.4680   28.2590   39.5590 N   0  0  0  0  0  0  0  0  0  0  0  0
  1  2  2  0  0  0  0
  1  6  1  0  0  0  0
  2  3  1  0  0  0  0
  3  8  1  0  0  0  0
  3  4  2  0  0  0  0
  4  9  1  0  0  0  0
  5  4  1  0  0  0  0
  5 21  1  0  0  0  0
  6  5  2  0  0  0  0
  7  2  1  0  0  0  0
 10 15  1  0  0  0  0
 11 10  2  0  0  0  0
 11 12  1  0  0  0  0
 12 13  2  0  0  0  0
 13 14  1  0  0  0  0
 14  1  1  0  0  0  0
 15 14  2  0  0  0  0
 16 10  1  0  0  0  0
 16 20  1  0  0  0  0
 17 11  1  0  0  0  0
 18 12  1  0  0  0  0
 19 16  1  0  0  0  0
 22 21  2  0  0  0  0
 23 22  1  0  0  0  0
 24 23  1  0  0  0  0
 25 23  1  0  0  0  0
 26 27  1  0  0  0  0
 26 23  1  0  0  0  0
 28 29  1  0  0  0  0
 28 27  2  0  0  0  0
 30 28  1  0  0  0  0
 31 30  2  0  0  0  0
 31 32  1  0  0  0  0
 32 26  2  0  0  0  0
M  END
>  <minimizedAffinity>
-5.85870171

$$$$

 OpenBabel03242520133D

 32 34  0  0  0  0  0  0  0  0999 V2000
   37.4370   30.6950   41.0460 C   0  0  0  0  0  0  0  0  0  0  0  0
   36.3620   30.3420   40.3120 C   0  0  0  0  0  0  0  0  0  0  0  0
   35.6860   29.1750   40.6270 C   0  0  0  0  0  0  0  0  0  0  0  0
   36.1210   28.3860   41.6930 C   0  0  0  0  0  0  0  0  0  0  0  0
   37.2400   28.7920   42.4240 C   0  0  0  0  0  0  0  0  0  0  0  0
   37.8280   29.8980   42.0740 N   0  0  0  0  0  0  0  0  0  0  0  0
   36.1120   31.0210   39.5140 H   0  0  0  0  0  0  0  0  0  0  0  0
   34.8340   28.9320   40.0140 H   0  0  0  0  0  0  0  0  0  0  0  0
   35.5740   27.4720   41.9220 H   0  0  0  0  0  0  0  0  0  0  0  0
   40.2470   33.0340   40.9400 C   0  0  0  0  0  0  0  0  0  0  0  0
   39.6450   34.1560   40.3290 C   0  0  0  0  0  0  0  0  0  0  0  0
   38.2860   34.1160   39.9550 C   0  0  0  0  0  0  0  0  0  0  0  0
   37.6500   32.9630   40.2220 N   0  0  0  0  0  0  0  0  0  0  0  0
   38.2250   31.9060   40.8000 C   0  0  0  0  0  0  0  0  0  0  0  0
   39.5220   31.9470   41.1560 N   0  0  0  0  0  0  0  0  0  0  0  0
   41.6090   33.1100   41.3000 N   0  0  0  0  0  0  0  0  0  0  0  0
   40.2310   35.0400   40.1520 H   0  0  0  0  0  0  0  0  0  0  0  0
   37.8020   34.9490   39.4910 H   0  0  0  0  0  0  0  0  0  0  0  0
   41.9710   34.0270   41.6490 H   0  0  0  0  0  0  0  0  0  0  0  0
   42.2080   32.2600   41.2110 H   0  0  0  0  0  0  0  0  0  0  0  0
   37.7110   27.9890   43.5350 C   0  0  0  0  0  3  0  0  0  0  0  0
   38.6190   27.0220   43.4060 C   0  0  0  0  0  3  0  0  0  0  0  0
   39.2270   26.6830   42.1040 C   0  0  0  0  0  0  0  0  0  0  0  0
   40.3130   26.4840   42.2870 H   0  0  0  0  0  0  0  0  0  0  0  0
   39.2270   27.6270   41.5040 H   0  0  0  0  0  0  0  0  0  0  0  0
   38.6000   25.5600   41.4020 C   0  0  0  0  0  0  0  0  0  0  0  0
   38.4890   24.2750   41.8930 C   0  0  0  0  0  3  0  0  0  0  0  0
   37.8610   23.3680   41.0630 C   0  0  0  0  0  0  0  0  0  0  0  0
   37.7580   22.3500   41.4200 H   0  0  0  0  0  0  0  0  0  0  0  0
   37.3740   23.6670   39.8490 N   0  0  0  0  0  0  0  0  0  0  0  0
   37.4970   24.9220   39.4010 C   0  0  0  0  0  3  0  0  0  0  0  0
   38.1000   25.8310   40.1740 N   0  0  0  0  0  0  0  0  0  0  0  0
  1  6  1  0  0  0  0
  2  3  1  0  0  0  0
  2  1  2  0  0  0  0
  3  4  2  0  0  0  0
  4  9  1  0  0  0  0
  4  5  1  0  0  0  0
  5 21  1  0  0  0  0
  6  5  2  0  0  0  0
  7  2  1  0  0  0  0
  8  3  1  0  0  0  0
 10 15  1  0  0  0  0
 10 16  1  0  0  0  0
 11 10  2  0  0  0  0
 12 13  2  0  0  0  0
 12 11  1  0  0  0  0
 13 14  1  0  0  0  0
 14  1  1  0  0  0  0
 14 15  2  0  0  0  0
 16 19  1  0  0  0  0
 17 11  1  0  0  0  0
 18 12  1  0  0  0  0
 20 16  1  0  0  0  0
 22 21  2  0  0  0  0
 23 24  1  0  0  0  0
 23 22  1  0  0  0  0
 25 23  1  0  0  0  0
 26 27  1  0  0  0  0
 26 23  1  0  0  0  0
 28 29  1  0  0  0  0
 28 27  2  0  0  0  0
 30 28  1  0  0  0  0
 31 30  2  0  0  0  0
 31 32  1  0  0  0  0
 32 26  2  0  0  0  0
M  END
>  <minimizedAffinity>
-5.60897684

$$$$

 OpenBabel03242520133D

 32 34  0  0  0  0  0  0  0  0999 V2000
   36.1620   27.0510   38.5730 C   0  0  0  0  0  0  0  0  0  0  0  0
   35.1980   26.5410   37.7790 C   0  0  0  0  0  0  0  0  0  0  0  0
   35.0810   25.1660   37.6620 C   0  0  0  0  0  0  0  0  0  0  0  0
   35.9540   24.3320   38.3620 C   0  0  0  0  0  0  0  0  0  0  0  0
   36.9360   24.9070   39.1720 C   0  0  0  0  0  0  0  0  0  0  0  0
   36.9910   26.2040   39.2360 N   0  0  0  0  0  0  0  0  0  0  0  0
   34.5800   27.2720   37.2840 H   0  0  0  0  0  0  0  0  0  0  0  0
   34.2980   24.8030   37.0160 H   0  0  0  0  0  0  0  0  0  0  0  0
   35.8430   23.2540   38.2550 H   0  0  0  0  0  0  0  0  0  0  0  0
   36.1560   30.3760   40.0970 C   0  0  0  0  0  0  0  0  0  0  0  0
   36.7900   31.1380   39.0910 C   0  0  0  0  0  0  0  0  0  0  0  0
   37.2180   30.5220   37.8980 C   0  0  0  0  0  0  0  0  0  0  0  0
   36.9770   29.2030   37.8140 N   0  0  0  0  0  0  0  0  0  0  0  0
   36.3760   28.4880   38.7690 C   0  0  0  0  0  0  0  0  0  0  0  0
   35.9690   29.0800   39.9060 N   0  0  0  0  0  0  0  0  0  0  0  0
   35.7410   31.0270   41.2780 N   0  0  0  0  0  0  0  0  0  0  0  0
   36.9430   32.1920   39.2440 H   0  0  0  0  0  0  0  0  0  0  0  0
   37.7010   31.0710   37.1180 H   0  0  0  0  0  0  0  0  0  0  0  0
   35.3780   32.0040   41.1950 H   0  0  0  0  0  0  0  0  0  0  0  0
   35.8070   30.5210   42.1880 H   0  0  0  0  0  0  0  0  0  0  0  0
   37.8540   24.0610   39.9090 C   0  0  0  0  0  3  0  0  0  0  0  0
   37.8600   23.9720   41.2390 C   0  0  0  0  0  3  0  0  0  0  0  0
   36.9220   24.7370   42.0830 C   0  0  0  0  0  0  0  0  0  0  0  0
   36.6350   24.0780   42.9410 H   0  0  0  0  0  0  0  0  0  0  0  0
   35.9760   24.8300   41.4920 H   0  0  0  0  0  0  0  0  0  0  0  0
   37.4270   26.0270   42.5590 C   0  0  0  0  0  0  0  0  0  0  0  0
   36.6500   27.1340   42.8340 C   0  0  0  0  0  3  0  0  0  0  0  0
   37.3310   28.2510   43.2720 C   0  0  0  0  0  0  0  0  0  0  0  0
   36.7500   29.1370   43.4970 H   0  0  0  0  0  0  0  0  0  0  0  0
   38.6620   28.3080   43.4370 N   0  0  0  0  0  0  0  0  0  0  0  0
   39.3880   27.2180   43.1610 C   0  0  0  0  0  3  0  0  0  0  0  0
   38.7660   26.1140   42.7340 N   0  0  0  0  0  0  0  0  0  0  0  0
  1 14  1  0  0  0  0
  1  6  1  0  0  0  0
  2  1  2  0  0  0  0
  3  2  1  0  0  0  0
  3  4  2  0  0  0  0
  4  5  1  0  0  0  0
  5  6  2  0  0  0  0
  5 21  1  0  0  0  0
  7  2  1  0  0  0  0
  8  3  1  0  0  0  0
  9  4  1  0  0  0  0
 10 16  1  0  0  0  0
 11 17  1  0  0  0  0
 11 10  2  0  0  0  0
 12 11  1  0  0  0  0
 13 12  2  0  0  0  0
 13 14  1  0  0  0  0
 14 15  2  0  0  0  0
 15 10  1  0  0  0  0
 16 20  1  0  0  0  0
 18 12  1  0  0  0  0
 19 16  1  0  0  0  0
 21 22  2  0  0  0  0
 22 23  1  0  0  0  0
 23 26  1  0  0  0  0
 23 24  1  0  0  0  0
 25 23  1  0  0  0  0
 26 32  2  0  0  0  0
 26 27  1  0  0  0  0
 27 28  2  0  0  0  0
 28 30  1  0  0  0  0
 28 29  1  0  0  0  0
 31 30  2  0  0  0  0
 32 31  1  0  0  0  0
M  END
>  <minimizedAffinity>
-5.58276224

$$$$

 OpenBabel03242520133D

 32 34  0  0  0  0  0  0  0  0999 V2000
   37.7250   30.5410   40.3510 C   0  0  0  0  0  0  0  0  0  0  0  0
   36.6750   30.1660   39.5920 C   0  0  0  0  0  0  0  0  0  0  0  0
   35.7800   29.2360   40.0930 C   0  0  0  0  0  0  0  0  0  0  0  0
   35.9730   28.7030   41.3680 C   0  0  0  0  0  0  0  0  0  0  0  0
   37.0750   29.1210   42.1170 C   0  0  0  0  0  0  0  0  0  0  0  0
   37.8770   29.9960   41.5870 N   0  0  0  0  0  0  0  0  0  0  0  0
   36.6200   30.6380   38.6250 H   0  0  0  0  0  0  0  0  0  0  0  0
   34.9580   28.9660   39.4510 H   0  0  0  0  0  0  0  0  0  0  0  0
   35.2560   27.9720   41.7420 H   0  0  0  0  0  0  0  0  0  0  0  0
   40.0440   32.4170   38.2350 C   0  0  0  0  0  0  0  0  0  0  0  0
   40.5890   33.3270   39.1680 C   0  0  0  0  0  0  0  0  0  0  0  0
   40.1680   33.3010   40.5130 C   0  0  0  0  0  0  0  0  0  0  0  0
   39.2430   32.3740   40.8080 N   0  0  0  0  0  0  0  0  0  0  0  0
   38.7320   31.5150   39.9210 C   0  0  0  0  0  0  0  0  0  0  0  0
   39.1360   31.5420   38.6380 N   0  0  0  0  0  0  0  0  0  0  0  0
   40.4890   32.4720   36.8970 N   0  0  0  0  0  0  0  0  0  0  0  0
   41.3270   34.0390   38.8420 H   0  0  0  0  0  0  0  0  0  0  0  0
   40.5610   33.9780   41.2420 H   0  0  0  0  0  0  0  0  0  0  0  0
   41.4950   32.7020   36.7270 H   0  0  0  0  0  0  0  0  0  0  0  0
   39.8110   32.2830   36.1270 H   0  0  0  0  0  0  0  0  0  0  0  0
   37.2970   28.5810   43.4440 C   0  0  0  0  0  3  0  0  0  0  0  0
   38.0250   27.4900   43.6780 C   0  0  0  0  0  3  0  0  0  0  0  0
   38.6740   26.7290   42.5930 C   0  0  0  0  0  0  0  0  0  0  0  0
   38.4990   27.2930   41.6420 H   0  0  0  0  0  0  0  0  0  0  0  0
   38.0710   25.7950   42.4630 H   0  0  0  0  0  0  0  0  0  0  0  0
   40.1010   26.4650   42.7890 C   0  0  0  0  0  0  0  0  0  0  0  0
   40.7180   25.2430   42.6030 C   0  0  0  0  0  3  0  0  0  0  0  0
   42.0760   25.2140   42.8440 C   0  0  0  0  0  0  0  0  0  0  0  0
   42.5900   24.2700   42.7070 H   0  0  0  0  0  0  0  0  0  0  0  0
   42.7970   26.2760   43.2370 N   0  0  0  0  0  0  0  0  0  0  0  0
   42.1700   27.4470   43.4090 C   0  0  0  0  0  3  0  0  0  0  0  0
   40.8530   27.5170   43.1850 N   0  0  0  0  0  0  0  0  0  0  0  0
  1  6  1  0  0  0  0
  2  3  1  0  0  0  0
  2  1  2  0  0  0  0
  3  4  2  0  0  0  0
  4  9  1  0  0  0  0
  4  5  1  0  0  0  0
  5 21  1  0  0  0  0
  6  5  2  0  0  0  0
  7  2  1  0  0  0  0
  8  3  1  0  0  0  0
 10 15  2  0  0  0  0
 10 11  1  0  0  0  0
 11 12  2  0  0  0  0
 12 13  1  0  0  0  0
 12 18  1  0  0  0  0
 14  1  1  0  0  0  0
 14 13  2  0  0  0  0
 15 14  1  0  0  0  0
 16 10  1  0  0  0  0
 17 11  1  0  0  0  0
 19 16  1  0  0  0  0
 20 16  1  0  0  0  0
 21 22  2  0  0  0  0
 23 26  1  0  0  0  0
 23 22  1  0  0  0  0
 24 23  1  0  0  0  0
 25 23  1  0  0  0  0
 26 32  1  0  0  0  0
 27 26  2  0  0  0  0
 27 28  1  0  0  0  0
 28 30  2  0  0  0  0
 29 28  1  0  0  0  0
 30 31  1  0  0  0  0
 32 31  2  0  0  0  0
M  END
>  <minimizedAffinity>
-5.54501343

$$$$

 OpenBabel03242520133D

 32 34  0  0  0  0  0  0  0  0999 V2000
   38.8760   26.9060   41.8730 C   0  0  0  0  0  0  0  0  0  0  0  0
   38.2490   26.7760   43.0600 C   0  0  0  0  0  0  0  0  0  0  0  0
   36.9590   27.2610   43.1960 C   0  0  0  0  0  0  0  0  0  0  0  0
   36.3290   27.8730   42.1110 C   0  0  0  0  0  0  0  0  0  0  0  0
   37.0190   27.9860   40.9020 C   0  0  0  0  0  0  0  0  0  0  0  0
   38.2270   27.5100   40.8430 N   0  0  0  0  0  0  0  0  0  0  0  0
   38.8250   26.2890   43.8290 H   0  0  0  0  0  0  0  0  0  0  0  0
   36.4970   27.1360   44.1610 H   0  0  0  0  0  0  0  0  0  0  0  0
   35.3140   28.2470   42.2410 H   0  0  0  0  0  0  0  0  0  0  0  0
   42.1740   25.4110   42.3900 C   0  0  0  0  0  0  0  0  0  0  0  0
   42.7480   25.5680   41.1090 C   0  0  0  0  0  0  0  0  0  0  0  0
   42.0150   26.1810   40.0730 C   0  0  0  0  0  0  0  0  0  0  0  0
   40.7770   26.5820   40.4050 N   0  0  0  0  0  0  0  0  0  0  0  0
   40.2390   26.4310   41.6190 C   0  0  0  0  0  0  0  0  0  0  0  0
   40.9420   25.8450   42.6050 N   0  0  0  0  0  0  0  0  0  0  0  0
   42.9370   24.7920   43.4020 N   0  0  0  0  0  0  0  0  0  0  0  0
   43.7490   25.2150   40.9320 H   0  0  0  0  0  0  0  0  0  0  0  0
   42.4220   26.3140   39.0930 H   0  0  0  0  0  0  0  0  0  0  0  0
   43.9670   24.9770   43.4190 H   0  0  0  0  0  0  0  0  0  0  0  0
   42.4600   24.1760   44.0960 H   0  0  0  0  0  0  0  0  0  0  0  0
   36.3860   28.6180   39.7620 C   0  0  0  0  0  3  0  0  0  0  0  0
   36.0660   29.9110   39.7250 C   0  0  0  0  0  3  0  0  0  0  0  0
   36.3320   30.8190   40.8580 C   0  0  0  0  0  0  0  0  0  0  0  0
   36.3600   30.1930   41.7850 H   0  0  0  0  0  0  0  0  0  0  0  0
   35.4080   31.4390   40.9840 H   0  0  0  0  0  0  0  0  0  0  0  0
   37.5480   31.6260   40.7330 C   0  0  0  0  0  0  0  0  0  0  0  0
   38.8060   31.2400   41.1500 C   0  0  0  0  0  3  0  0  0  0  0  0
   39.8160   32.1560   40.9370 C   0  0  0  0  0  0  0  0  0  0  0  0
   40.8160   31.8830   41.2530 H   0  0  0  0  0  0  0  0  0  0  0  0
   39.6380   33.3570   40.3660 N   0  0  0  0  0  0  0  0  0  0  0  0
   38.4060   33.7030   39.9720 C   0  0  0  0  0  3  0  0  0  0  0  0
   37.3990   32.8430   40.1610 N   0  0  0  0  0  0  0  0  0  0  0  0
  1  2  1  0  0  0  0
  2  3  2  0  0  0  0
  2  7  1  0  0  0  0
  3  8  1  0  0  0  0
  4  9  1  0  0  0  0
  4  3  1  0  0  0  0
  5  4  2  0  0  0  0
  6  5  1  0  0  0  0
  6  1  2  0  0  0  0
 10 15  1  0  0  0  0
 10 16  1  0  0  0  0
 11 10  2  0  0  0  0
 12 13  2  0  0  0  0
 12 11  1  0  0  0  0
 13 14  1  0  0  0  0
 14  1  1  0  0  0  0
 14 15  2  0  0  0  0
 16 19  1  0  0  0  0
 16 20  1  0  0  0  0
 17 11  1  0  0  0  0
 18 12  1  0  0  0  0
 21  5  1  0  0  0  0
 22 21  2  0  0  0  0
 22 23  1  0  0  0  0
 23 25  1  0  0  0  0
 23 24  1  0  0  0  0
 26 23  1  0  0  0  0
 26 27  1  0  0  0  0
 28 27  2  0  0  0  0
 28 29  1  0  0  0  0
 30 28  1  0  0  0  0
 31 32  1  0  0  0  0
 31 30  2  0  0  0  0
 32 26  2  0  0  0  0
M  END
>  <minimizedAffinity>
-5.53012514

$$$$

 OpenBabel03242520133D

 32 34  0  0  0  0  0  0  0  0999 V2000
   38.9870   30.8950   41.1900 C   0  0  0  0  0  0  0  0  0  0  0  0
   39.4040   30.4150   42.3790 C   0  0  0  0  0  0  0  0  0  0  0  0
   38.5760   29.5600   43.0880 C   0  0  0  0  0  0  0  0  0  0  0  0
   37.3310   29.2090   42.5670 C   0  0  0  0  0  0  0  0  0  0  0  0
   36.9410   29.7320   41.3320 C   0  0  0  0  0  0  0  0  0  0  0  0
   37.7660   30.5290   40.7190 N   0  0  0  0  0  0  0  0  0  0  0  0
   40.3810   30.7490   42.6890 H   0  0  0  0  0  0  0  0  0  0  0  0
   38.9510   29.2020   44.0330 H   0  0  0  0  0  0  0  0  0  0  0  0
   36.6960   28.5350   43.1420 H   0  0  0  0  0  0  0  0  0  0  0  0
   40.4080   32.5480   38.2530 C   0  0  0  0  0  0  0  0  0  0  0  0
   41.2560   33.5000   38.8600 C   0  0  0  0  0  0  0  0  0  0  0  0
   41.3450   33.5770   40.2650 C   0  0  0  0  0  0  0  0  0  0  0  0
   40.5800   32.7030   40.9380 N   0  0  0  0  0  0  0  0  0  0  0  0
   39.7790   31.8040   40.3580 C   0  0  0  0  0  0  0  0  0  0  0  0
   39.6980   31.7330   39.0170 N   0  0  0  0  0  0  0  0  0  0  0  0
   40.3440   32.5000   36.8440 N   0  0  0  0  0  0  0  0  0  0  0  0
   41.8340   34.1640   38.2410 H   0  0  0  0  0  0  0  0  0  0  0  0
   41.9780   34.2870   40.7540 H   0  0  0  0  0  0  0  0  0  0  0  0
   41.2240   32.6840   36.3100 H   0  0  0  0  0  0  0  0  0  0  0  0
   39.4340   32.2820   36.3830 H   0  0  0  0  0  0  0  0  0  0  0  0
   35.6510   29.3810   40.7700 C   0  0  0  0  0  3  0  0  0  0  0  0
   35.4830   28.4100   39.8740 C   0  0  0  0  0  3  0  0  0  0  0  0
   36.6090   27.6000   39.3710 C   0  0  0  0  0  0  0  0  0  0  0  0
   37.5530   28.1130   39.6830 H   0  0  0  0  0  0  0  0  0  0  0  0
   36.6020   27.7130   38.2570 H   0  0  0  0  0  0  0  0  0  0  0  0
   36.6070   26.2000   39.8020 C   0  0  0  0  0  0  0  0  0  0  0  0
   36.2140   25.1280   39.0270 C   0  0  0  0  0  3  0  0  0  0  0  0
   36.2900   23.8900   39.6310 C   0  0  0  0  0  0  0  0  0  0  0  0
   35.9890   23.0270   39.0490 H   0  0  0  0  0  0  0  0  0  0  0  0
   36.7130   23.6880   40.8890 N   0  0  0  0  0  0  0  0  0  0  0  0
   37.0880   24.7480   41.6160 C   0  0  0  0  0  3  0  0  0  0  0  0
   37.0280   25.9660   41.0660 N   0  0  0  0  0  0  0  0  0  0  0  0
  1  2  1  0  0  0  0
  2  7  1  0  0  0  0
  2  3  2  0  0  0  0
  3  8  1  0  0  0  0
  4  3  1  0  0  0  0
  4  9  1  0  0  0  0
  5  4  2  0  0  0  0
  6  1  2  0  0  0  0
  6  5  1  0  0  0  0
 10 11  2  0  0  0  0
 10 15  1  0  0  0  0
 11 12  1  0  0  0  0
 12 18  1  0  0  0  0
 12 13  2  0  0  0  0
 14 13  1  0  0  0  0
 14  1  1  0  0  0  0
 15 14  2  0  0  0  0
 16 10  1  0  0  0  0
 17 11  1  0  0  0  0
 19 16  1  0  0  0  0
 20 16  1  0  0  0  0
 21  5  1  0  0  0  0
 22 21  2  0  0  0  0
 23 24  1  0  0  0  0
 23 26  1  0  0  0  0
 23 22  1  0  0  0  0
 25 23  1  0  0  0  0
 26 32  1  0  0  0  0
 27 28  1  0  0  0  0
 27 26  2  0  0  0  0
 28 30  2  0  0  0  0
 29 28  1  0  0  0  0
 30 31  1  0  0  0  0
 32 31  2  0  0  0  0
M  END
>  <minimizedAffinity>
-5.52531338

$$$$

 OpenBabel03242520133D

 32 34  0  0  0  0  0  0  0  0999 V2000
   38.4620   31.4260   38.4820 C   0  0  0  0  0  0  0  0  0  0  0  0
   38.0710   31.0310   37.2530 C   0  0  0  0  0  0  0  0  0  0  0  0
   36.9400   30.2400   37.1290 C   0  0  0  0  0  0  0  0  0  0  0  0
   36.2260   29.8660   38.2670 C   0  0  0  0  0  0  0  0  0  0  0  0
   36.6690   30.2990   39.5190 C   0  0  0  0  0  0  0  0  0  0  0  0
   37.7380   31.0380   39.5650 N   0  0  0  0  0  0  0  0  0  0  0  0
   38.6930   31.3760   36.4440 H   0  0  0  0  0  0  0  0  0  0  0  0
   36.6660   29.9480   36.1280 H   0  0  0  0  0  0  0  0  0  0  0  0
   35.3400   29.2430   38.1450 H   0  0  0  0  0  0  0  0  0  0  0  0
   41.4750   33.4180   37.9090 C   0  0  0  0  0  0  0  0  0  0  0  0
   41.8030   33.8020   39.2280 C   0  0  0  0  0  0  0  0  0  0  0  0
   41.0010   33.3840   40.3090 C   0  0  0  0  0  0  0  0  0  0  0  0
   39.9440   32.6230   39.9790 N   0  0  0  0  0  0  0  0  0  0  0  0
   39.6400   32.2620   38.7300 C   0  0  0  0  0  0  0  0  0  0  0  0
   40.4080   32.6630   37.7010 N   0  0  0  0  0  0  0  0  0  0  0  0
   42.3010   33.8560   36.8520 N   0  0  0  0  0  0  0  0  0  0  0  0
   42.6700   34.4160   39.4000 H   0  0  0  0  0  0  0  0  0  0  0  0
   41.2230   33.6590   41.3180 H   0  0  0  0  0  0  0  0  0  0  0  0
   43.3290   33.9200   37.0310 H   0  0  0  0  0  0  0  0  0  0  0  0
   41.8680   34.0980   35.9340 H   0  0  0  0  0  0  0  0  0  0  0  0
   35.9440   29.9230   40.7160 C   0  0  0  0  0  3  0  0  0  0  0  0
   36.2640   28.8690   41.4650 C   0  0  0  0  0  3  0  0  0  0  0  0
   37.3990   27.9850   41.1350 C   0  0  0  0  0  0  0  0  0  0  0  0
   38.1040   28.0110   42.0040 H   0  0  0  0  0  0  0  0  0  0  0  0
   37.9660   28.4970   40.3170 H   0  0  0  0  0  0  0  0  0  0  0  0
   37.0340   26.6070   40.8000 C   0  0  0  0  0  0  0  0  0  0  0  0
   36.5580   26.1840   39.5740 C   0  0  0  0  0  3  0  0  0  0  0  0
   36.2740   24.8380   39.4730 C   0  0  0  0  0  0  0  0  0  0  0  0
   35.8990   24.4740   38.5230 H   0  0  0  0  0  0  0  0  0  0  0  0
   36.4310   23.9550   40.4710 N   0  0  0  0  0  0  0  0  0  0  0  0
   36.8940   24.3950   41.6480 C   0  0  0  0  0  3  0  0  0  0  0  0
   37.1820   25.6940   41.7870 N   0  0  0  0  0  0  0  0  0  0  0  0
  1 14  1  0  0  0  0
  1  6  1  0  0  0  0
  2  1  2  0  0  0  0
  3  2  1  0  0  0  0
  3  4  2  0  0  0  0
  4  5  1  0  0  0  0
  5  6  2  0  0  0  0
  5 21  1  0  0  0  0
  7  2  1  0  0  0  0
  8  3  1  0  0  0  0
  9  4  1  0  0  0  0
 10 11  1  0  0  0  0
 11 17  1  0  0  0  0
 11 12  2  0  0  0  0
 12 18  1  0  0  0  0
 13 12  1  0  0  0  0
 14 13  2  0  0  0  0
 15 10  2  0  0  0  0
 15 14  1  0  0  0  0
 16 19  1  0  0  0  0
 16 10  1  0  0  0  0
 20 16  1  0  0  0  0
 21 22  2  0  0  0  0
 23 22  1  0  0  0  0
 23 24  1  0  0  0  0
 25 23  1  0  0  0  0
 26 23  1  0  0  0  0
 26 32  1  0  0  0  0
 27 26  2  0  0  0  0
 28 27  1  0  0  0  0
 28 30  2  0  0  0  0
 29 28  1  0  0  0  0
 30 31  1  0  0  0  0
 31 32  2  0  0  0  0
M  END
>  <minimizedAffinity>
-5.51877165

$$$$
