
 OpenBabel03242520123D

 32 34  0  0  0  0  0  0  0  0999 V2000
   46.1900   32.6190   46.8520 C   0  0  0  0  0  0  0  0  0  0  0  0
   45.3070   32.7000   47.8680 C   0  0  0  0  0  0  0  0  0  0  0  0
   45.4900   31.9010   48.9840 C   0  0  0  0  0  0  0  0  0  0  0  0
   46.5770   31.0290   49.0430 C   0  0  0  0  0  0  0  0  0  0  0  0
   47.4650   30.9790   47.9670 C   0  0  0  0  0  0  0  0  0  0  0  0
   47.2350   31.7550   46.9500 N   0  0  0  0  0  0  0  0  0  0  0  0
   44.5050   33.4040   47.7200 H   0  0  0  0  0  0  0  0  0  0  0  0
   44.7590   31.9990   49.7700 H   0  0  0  0  0  0  0  0  0  0  0  0
   46.7010   30.4090   49.9320 H   0  0  0  0  0  0  0  0  0  0  0  0
   44.9660   34.9940   44.3550 C   0  0  0  0  0  0  0  0  0  0  0  0
   45.9510   34.8680   43.3520 C   0  0  0  0  0  0  0  0  0  0  0  0
   47.0290   33.9750   43.5250 C   0  0  0  0  0  0  0  0  0  0  0  0
   47.0290   33.2920   44.6810 N   0  0  0  0  0  0  0  0  0  0  0  0
   46.0930   33.4160   45.6260 C   0  0  0  0  0  0  0  0  0  0  0  0
   45.0660   34.2680   45.4570 N   0  0  0  0  0  0  0  0  0  0  0  0
   43.9010   35.8980   44.1480 N   0  0  0  0  0  0  0  0  0  0  0  0
   45.8720   35.4570   42.4550 H   0  0  0  0  0  0  0  0  0  0  0  0
   47.7910   33.8580   42.7830 H   0  0  0  0  0  0  0  0  0  0  0  0
   43.5310   36.0000   43.1750 H   0  0  0  0  0  0  0  0  0  0  0  0
   43.5190   36.4290   44.9600 H   0  0  0  0  0  0  0  0  0  0  0  0
   48.6020   30.0800   48.0050 C   0  0  0  0  0  3  0  0  0  0  0  0
   48.7140   29.0070   47.2240 C   0  0  0  0  0  3  0  0  0  0  0  0
   47.6750   28.6360   46.2430 C   0  0  0  0  0  0  0  0  0  0  0  0
   48.1930   28.1450   45.3810 H   0  0  0  0  0  0  0  0  0  0  0  0
   47.2960   29.5970   45.8120 H   0  0  0  0  0  0  0  0  0  0  0  0
   46.6040   27.7840   46.7660 C   0  0  0  0  0  0  0  0  0  0  0  0
   46.7910   26.6600   47.5470 C   0  0  0  0  0  3  0  0  0  0  0  0
   45.6410   26.0010   47.9330 C   0  0  0  0  0  0  0  0  0  0  0  0
   45.7540   25.1140   48.5460 H   0  0  0  0  0  0  0  0  0  0  0  0
   44.4010   26.3880   47.5990 N   0  0  0  0  0  0  0  0  0  0  0  0
   44.2530   27.4820   46.8420 C   0  0  0  0  0  3  0  0  0  0  0  0
   45.3410   28.1490   46.4460 N   0  0  0  0  0  0  0  0  0  0  0  0
  1  6  2  0  0  0  0
  1  2  1  0  0  0  0
  2  3  2  0  0  0  0
  3  4  1  0  0  0  0
  3  8  1  0  0  0  0
  4  9  1  0  0  0  0
  5 21  1  0  0  0  0
  5  4  2  0  0  0  0
  6  5  1  0  0  0  0
  7  2  1  0  0  0  0
 10 15  1  0  0  0  0
 11 12  1  0  0  0  0
 11 10  2  0  0  0  0
 12 13  2  0  0  0  0
 13 14  1  0  0  0  0
 14  1  1  0  0  0  0
 15 14  2  0  0  0  0
 16 10  1  0  0  0  0
 16 20  1  0  0  0  0
 17 11  1  0  0  0  0
 18 12  1  0  0  0  0
 19 16  1  0  0  0  0
 22 21  2  0  0  0  0
 23 26  1  0  0  0  0
 23 22  1  0  0  0  0
 24 23  1  0  0  0  0
 25 23  1  0  0  0  0
 26 27  1  0  0  0  0
 27 28  2  0  0  0  0
 28 29  1  0  0  0  0
 30 28  1  0  0  0  0
 31 30  2  0  0  0  0
 32 26  2  0  0  0  0
 32 31  1  0  0  0  0
M  END
>  <minimizedAffinity>
-5.49256563

>  <minimizedRMSD>
4.71038723

$$$$
