
 OpenBabel03252506373D

 42 45  0  0  1  0  0  0  0  0999 V2000
   44.5030   35.5500   45.1370 C   0  0  0  0  0  0  0  0  0  0  0  0
   45.1560   35.5370   43.8920 C   0  0  0  0  0  0  0  0  0  0  0  0
   46.0720   34.5760   43.6360 C   0  0  0  0  0  0  0  0  0  0  0  0
   46.3060   33.6670   44.6170 N   0  0  0  0  0  0  0  0  0  0  0  0
   45.6870   33.6860   45.7860 C   0  0  0  0  0  0  0  0  0  0  0  0
   44.7810   34.6210   46.0620 N   0  0  0  0  0  0  0  0  0  0  0  0
   46.0120   32.6750   46.7560 N   0  0  0  0  0  0  0  0  0  0  0  0
   45.2700   32.4340   47.9420 C   0  0  0  0  0  0  0  0  0  0  0  0
   46.3410   32.0840   48.9580 C   0  0  0  0  0  0  0  0  0  0  0  0
   47.6260   31.9840   48.1930 C   0  0  0  0  0  0  0  0  0  0  0  0
   47.1350   31.7660   46.7620 C   0  0  1  0  0  0  0  0  0  0  0  0
   43.7730   36.3340   45.3080 H   0  0  0  0  0  0  0  0  0  0  0  0
   46.5930   34.5370   42.6900 H   0  0  0  0  0  0  0  0  0  0  0  0
   44.4390   31.8140   48.0290 H   0  0  0  0  0  0  0  0  0  0  0  0
   44.9190   33.4570   48.2970 H   0  0  0  0  0  0  0  0  0  0  0  0
   46.3730   32.7280   49.8360 H   0  0  0  0  0  0  0  0  0  0  0  0
   46.0940   31.0580   49.3590 H   0  0  0  0  0  0  0  0  0  0  0  0
   48.2060   31.1310   48.5520 H   0  0  0  0  0  0  0  0  0  0  0  0
   48.1270   32.9710   48.2880 H   0  0  0  0  0  0  0  0  0  0  0  0
   47.9240   32.1110   46.0740 H   0  0  0  0  0  0  0  0  0  0  0  0
   44.8100   36.5630   42.9440 N   0  0  0  0  0  0  0  0  0  0  0  0
   45.1590   36.4420   41.9640 H   0  0  0  0  0  0  0  0  0  0  0  0
   44.2430   37.3740   43.2320 H   0  0  0  0  0  0  0  0  0  0  0  0
   46.6280   30.0750   46.5760 S   0  0  0  0  0  0  0  0  0  0  0  0
   45.7460   30.6520   43.4080 O   0  0  0  0  0  0  0  0  0  0  0  0
   45.0850   30.0660   44.2810 C   0  0  0  0  0  0  0  0  0  0  0  0
   45.1220   29.7830   45.7420 C   0  0  1  0  0  0  0  0  0  0  0  0
   44.6150   28.3650   45.7830 C   0  0  0  0  0  0  0  0  0  0  0  0
   43.3300   28.5750   44.9790 C   0  0  0  0  0  0  0  0  0  0  0  0
   43.8660   29.4000   43.8940 N   0  0  0  0  0  0  0  0  0  0  0  0
   44.2110   30.3440   46.0760 H   0  0  0  0  0  0  0  0  0  0  0  0
   45.2540   27.6920   45.1730 H   0  0  0  0  0  0  0  0  0  0  0  0
   44.4280   27.9950   46.7950 H   0  0  0  0  0  0  0  0  0  0  0  0
   42.5550   29.0800   45.5480 H   0  0  0  0  0  0  0  0  0  0  0  0
   43.0200   27.6070   44.5410 H   0  0  0  0  0  0  0  0  0  0  0  0
   43.1700   29.4600   42.6360 C   0  0  0  0  0  0  0  0  0  0  0  0
   43.2740   28.6120   41.5760 C   0  0  0  0  0  3  0  0  0  0  0  0
   42.4870   28.8960   40.4730 C   0  0  0  0  0  0  0  0  0  0  0  0
   42.5870   28.2010   39.6290 H   0  0  0  0  0  0  0  0  0  0  0  0
   41.6520   29.9490   40.4220 N   0  0  0  0  0  0  0  0  0  0  0  0
   41.5630   30.7760   41.4830 C   0  0  0  0  0  3  0  0  0  0  0  0
   42.3150   30.5210   42.5590 N   0  0  0  0  0  0  0  0  0  0  0  0
  1 12  1  0  0  0  0
  1  6  1  0  0  0  0
  2  1  2  0  0  0  0
  3  2  1  0  0  0  0
  3  4  2  0  0  0  0
  4  5  1  0  0  0  0
  5  6  2  0  0  0  0
  5  7  1  0  0  0  0
  7 11  1  0  0  0  0
  7  8  1  0  0  0  0
  8 14  1  0  0  0  0
  8 15  1  0  0  0  0
  8  9  1  0  0  0  0
  9 17  1  0  0  0  0
  9 16  1  0  0  0  0
 10 19  1  0  0  0  0
 10 18  1  0  0  0  0
 10  9  1  0  0  0  0
 11 20  1  6  0  0  0
 11 10  1  0  0  0  0
 13  3  1  0  0  0  0
 21 23  1  0  0  0  0
 21  2  1  0  0  0  0
 22 21  1  0  0  0  0
 24 11  1  0  0  0  0
 25 26  2  0  0  0  0
 26 27  1  0  0  0  0
 27 28  1  0  0  0  0
 27 31  1  1  0  0  0
 27 24  1  0  0  0  0
 28 33  1  0  0  0  0
 29 34  1  0  0  0  0
 29 28  1  0  0  0  0
 30 26  1  0  0  0  0
 30 29  1  0  0  0  0
 32 28  1  0  0  0  0
 35 29  1  0  0  0  0
 36 30  1  0  0  0  0
 37 36  2  0  0  0  0
 38 37  1  0  0  0  0
 39 38  1  0  0  0  0
 40 38  2  0  0  0  0
 40 41  1  0  0  0  0
 41 42  2  0  0  0  0
 42 36  1  0  0  0  0
M  END
>  <minimizedAffinity>
-5.30884552

>  <minimizedRMSD>
0.673101783

$$$$
