
 OpenBabel03252504323D

 38 40  0  0  0  0  0  0  0  0999 V2000
   44.0570   35.3460   41.3190 C   0  0  0  0  0  3  0  0  0  0  0  0
   44.0390   35.6040   42.6240 C   0  0  0  0  0  3  0  0  0  0  0  0
   45.2630   35.5330   43.5250 C   0  0  0  0  0  0  0  0  0  0  0  0
   45.4760   36.5160   43.9900 H   0  0  0  0  0  0  0  0  0  0  0  0
   46.1050   35.2700   42.8660 H   0  0  0  0  0  0  0  0  0  0  0  0
   44.9830   34.5880   44.4960 O   0  0  0  0  0  0  0  0  0  0  0  0
   45.6130   32.4290   43.0740 O   0  0  0  0  0  0  0  0  0  0  0  0
   45.9720   33.2340   44.3020 P   0  0  1  0  0  0  0  0  0  0  0  0
   47.5990   33.7170   44.1240 O   0  0  0  0  0  0  0  0  0  0  0  0
   47.6850   34.4530   43.4660 H   0  0  0  0  0  0  0  0  0  0  0  0
   45.8950   32.2600   45.6760 O   0  0  0  0  0  0  0  0  0  0  0  0
   46.2060   32.9520   46.8320 C   0  0  0  0  0  0  0  0  0  0  0  0
   47.0750   32.3050   47.8600 C   0  0  0  0  0  0  0  0  0  0  0  0
   45.5770   32.4130   48.0950 C   0  0  0  0  0  0  0  0  0  0  0  0
   46.3210   34.0490   46.7320 H   0  0  0  0  0  0  0  0  0  0  0  0
   47.4950   31.2960   47.6480 H   0  0  0  0  0  0  0  0  0  0  0  0
   47.6600   32.9790   48.5170 H   0  0  0  0  0  0  0  0  0  0  0  0
   45.0240   31.4570   48.0600 H   0  0  0  0  0  0  0  0  0  0  0  0
   45.1980   33.1470   48.8370 H   0  0  0  0  0  0  0  0  0  0  0  0
   42.8510   35.4550   40.6520 O   0  0  0  0  0  0  0  0  0  0  0  0
   41.6210   35.6460   41.1830 C   0  0  0  0  0  0  0  0  0  0  0  0
   41.5330   35.7870   42.2860 H   0  0  0  0  0  0  0  0  0  0  0  0
   41.1740   36.5970   40.7670 H   0  0  0  0  0  0  0  0  0  0  0  0
   41.0760   33.2820   41.2760 C   0  0  0  0  0  0  0  0  0  0  0  0
   40.6430   34.5540   40.8840 C   0  0  0  0  0  0  0  0  0  0  0  0
   39.4260   34.6880   40.3180 C   0  0  0  0  0  0  0  0  0  0  0  0
   38.7130   33.5690   40.1730 N   0  0  0  0  0  0  0  0  0  0  0  0
   39.1000   32.3500   40.5370 C   0  0  0  0  0  0  0  0  0  0  0  0
   40.3540   32.1690   41.1270 N   0  0  0  0  0  0  0  0  0  0  0  0
   42.0400   33.1070   41.7350 H   0  0  0  0  0  0  0  0  0  0  0  0
   39.1290   35.6740   40.0300 H   0  0  0  0  0  0  0  0  0  0  0  0
   38.2750   31.1580   40.3550 C   0  0  0  0  0  0  0  0  0  0  0  0
   38.4010   30.4860   39.1560 C   0  0  0  0  0  3  0  0  0  0  0  0
   37.5980   29.3480   39.0110 C   0  0  0  0  0  0  0  0  0  0  0  0
   37.7050   28.8290   38.0660 H   0  0  0  0  0  0  0  0  0  0  0  0
   36.7560   28.9300   39.9710 N   0  0  0  0  0  0  0  0  0  0  0  0
   36.6660   29.6170   41.1220 C   0  0  0  0  0  3  0  0  0  0  0  0
   37.4290   30.7340   41.3120 N   0  0  0  0  0  0  0  0  0  0  0  0
  1  2  2  0  0  0  0
  2  3  1  0  0  0  0
  3  4  1  0  0  0  0
  3  6  1  0  0  0  0
  5  3  1  0  0  0  0
  8  7  2  6  0  0  0
  8  6  1  0  0  0  0
  8 11  1  0  0  0  0
  9  8  1  0  0  0  0
 10  9  1  0  0  0  0
 11 12  1  0  0  0  0
 12 13  1  0  0  0  0
 12 14  1  0  0  0  0
 13 14  1  0  0  0  0
 13 17  1  0  0  0  0
 14 19  1  0  0  0  0
 15 12  1  0  0  0  0
 16 13  1  0  0  0  0
 18 14  1  0  0  0  0
 20 21  1  0  0  0  0
 20  1  1  0  0  0  0
 21 22  1  0  0  0  0
 23 21  1  0  0  0  0
 24 30  1  0  0  0  0
 25 21  1  0  0  0  0
 25 24  2  0  0  0  0
 26 25  1  0  0  0  0
 27 26  2  0  0  0  0
 27 28  1  0  0  0  0
 28 29  2  0  0  0  0
 29 24  1  0  0  0  0
 31 26  1  0  0  0  0
 32 28  1  0  0  0  0
 32 38  1  0  0  0  0
 33 32  2  0  0  0  0
 34 33  1  0  0  0  0
 34 36  2  0  0  0  0
 35 34  1  0  0  0  0
 36 37  1  0  0  0  0
 37 38  2  0  0  0  0
M  END
>  <minimizedAffinity>
-5.02787066

>  <minimizedRMSD>
0.827301681

$$$$
