
 OpenBabel03252501553D

 19 20  0  0  0  0  0  0  0  0999 V2000
   44.6350   35.3350   45.1140 C   0  0  0  0  0  0  0  0  0  0  0  0
   45.2180   35.3440   43.8490 C   0  0  0  0  0  0  0  0  0  0  0  0
   46.2100   34.4150   43.5710 C   0  0  0  0  0  0  0  0  0  0  0  0
   46.5640   33.5400   44.5440 N   0  0  0  0  0  0  0  0  0  0  0  0
   45.9830   33.5550   45.7540 C   0  0  0  0  0  0  0  0  0  0  0  0
   45.0040   34.4570   46.0610 N   0  0  0  0  0  0  0  0  0  0  0  0
   43.8600   36.0480   45.3590 H   0  0  0  0  0  0  0  0  0  0  0  0
   46.2860   32.8390   46.5200 H   0  0  0  0  0  0  0  0  0  0  0  0
   46.8110   34.4330   42.2500 C   0  0  0  0  0  0  0  0  0  0  0  0
   47.9730   35.2090   42.2090 C   0  0  0  0  0  0  0  0  0  0  0  0
   48.6910   35.3520   41.0410 C   0  0  0  0  0  0  0  0  0  0  0  0
   49.6020   35.9460   40.9650 H   0  0  0  0  0  0  0  0  0  0  0  0
   48.2440   34.7250   39.9390 N   0  0  0  0  0  0  0  0  0  0  0  0
   47.1080   33.9700   39.9870 C   0  0  0  0  0  0  0  0  0  0  0  0
   46.3840   33.8160   41.1320 N   0  0  0  0  0  0  0  0  0  0  0  0
   44.7260   36.3600   42.8950 C   0  0  0  0  0  0  0  0  0  0  0  0
   43.8210   35.9860   42.3320 H   0  0  0  0  0  0  0  0  0  0  0  0
   45.5540   36.6020   42.1840 H   0  0  0  0  0  0  0  0  0  0  0  0
   44.4550   37.3120   43.4030 H   0  0  0  0  0  0  0  0  0  0  0  0
  1  7  1  0  0  0  0
  1  6  1  0  0  0  0
  2  1  2  0  0  0  0
  3  2  1  0  0  0  0
  3  4  2  0  0  0  0
  4  5  1  0  0  0  0
  5  6  2  0  0  0  0
  5  8  1  0  0  0  0
  9  3  1  0  0  0  0
 10  9  1  0  0  0  0
 11 10  2  0  0  0  0
 12 11  1  0  0  0  0
 13 14  2  0  0  0  0
 13 11  1  0  0  0  0
 14 15  1  0  0  0  0
 15  9  2  0  0  0  0
 16 19  1  0  0  0  0
 16  2  1  0  0  0  0
 17 16  1  0  0  0  0
 18 16  1  0  0  0  0
M  END
>  <minimizedAffinity>
-4.40017128

>  <minimizedRMSD>
2.2785728

$$$$
