
 OpenBabel03242514383D

 31 33  0  0  0  0  0  0  0  0999 V2000
   40.3460   34.3630   39.7720 C   0  0  0  0  0  0  0  0  0  0  0  0
   40.2820   35.2630   40.6920 O   0  0  0  0  0  0  0  0  0  0  0  0
   39.3860   33.3200   40.1460 C   0  0  0  0  0  0  0  0  0  0  0  0
   37.9920   33.2710   39.8620 C   0  0  0  0  0  0  0  0  0  0  0  0
   37.3390   32.1770   40.3410 C   0  0  0  0  0  0  0  0  0  0  0  0
   37.9650   31.2090   41.0320 C   0  0  0  0  0  0  0  0  0  0  0  0
   39.7560   31.8550   41.0640 S   0  0  0  0  0  0  0  0  0  0  0  0
   37.5570   34.0810   39.3020 H   0  0  0  0  0  0  0  0  0  0  0  0
   36.2770   32.0300   40.1880 H   0  0  0  0  0  0  0  0  0  0  0  0
   37.5960   29.9970   41.6430 C   0  0  0  0  0  0  0  0  0  0  0  0
   38.3510   29.6250   42.7340 C   0  0  0  0  0  3  0  0  0  0  0  0
   38.0420   28.4340   43.3890 C   0  0  0  0  0  0  0  0  0  0  0  0
   38.6130   28.1190   44.2430 H   0  0  0  0  0  0  0  0  0  0  0  0
   37.0180   27.7100   42.9130 N   0  0  0  0  0  0  0  0  0  0  0  0
   36.2980   28.1140   41.8290 C   0  0  0  0  0  3  0  0  0  0  0  0
   36.5690   29.2730   41.1630 N   0  0  0  0  0  0  0  0  0  0  0  0
   41.2420   34.6900   38.8240 O   0  0  0  0  0  0  0  0  0  0  0  0
   43.2370   33.0660   38.6860 O   0  0  0  0  0  0  0  0  0  0  0  0
   42.1310   33.6620   37.8710 P   0  0  2  0  0  0  0  0  0  0  0  0
   42.8310   34.5430   36.6320 O   0  0  0  0  0  0  0  0  0  0  0  0
   43.6380   35.0110   36.9570 H   0  0  0  0  0  0  0  0  0  0  0  0
   41.1080   32.4220   37.2560 O   0  0  0  0  0  0  0  0  0  0  0  0
   40.8940   30.1340   37.8990 C   0  0  0  0  0  0  0  0  0  0  0  0
   41.5570   31.1080   37.1510 C   0  0  0  0  0  0  0  0  0  0  0  0
   42.6280   30.7340   36.3400 C   0  0  0  0  0  0  0  0  0  0  0  0
   42.9720   29.4090   36.3250 N   0  0  0  0  0  0  0  0  0  0  0  0
   42.3180   28.4890   37.0530 C   0  0  0  0  0  0  0  0  0  0  0  0
   41.2940   28.8580   37.8270 N   0  0  0  0  0  0  0  0  0  0  0  0
   40.0630   30.3090   38.5510 H   0  0  0  0  0  0  0  0  0  0  0  0
   43.1190   31.5040   35.7770 H   0  0  0  0  0  0  0  0  0  0  0  0
   42.7260   27.4910   36.9180 H   0  0  0  0  0  0  0  0  0  0  0  0
  1  3  1  0  0  0  0
  1  2  2  0  0  0  0
  3  7  1  0  0  0  0
  4  3  2  0  0  0  0
  4  5  1  0  0  0  0
  5  6  2  0  0  0  0
  6  7  1  0  0  0  0
  6 10  1  0  0  0  0
  8  4  1  0  0  0  0
  9  5  1  0  0  0  0
 10 11  1  0  0  0  0
 11 12  2  0  0  0  0
 12 13  1  0  0  0  0
 14 12  1  0  0  0  0
 15 14  2  0  0  0  0
 16 10  2  0  0  0  0
 16 15  1  0  0  0  0
 17  1  1  0  0  0  0
 19 18  2  1  0  0  0
 19 17  1  0  0  0  0
 20 21  1  0  0  0  0
 20 19  1  0  0  0  0
 22 19  1  0  0  0  0
 23 29  1  0  0  0  0
 24 22  1  0  0  0  0
 24 23  2  0  0  0  0
 25 24  1  0  0  0  0
 26 25  2  0  0  0  0
 26 27  1  0  0  0  0
 27 28  2  0  0  0  0
 28 23  1  0  0  0  0
 30 25  1  0  0  0  0
 31 27  1  0  0  0  0
M  END
>  <minimizedAffinity>
-5.76517439

$$$$

 OpenBabel03242514383D

 31 33  0  0  0  0  0  0  0  0999 V2000
   37.4160   32.5690   40.1660 C   0  0  0  0  0  0  0  0  0  0  0  0
   37.0100   32.7250   38.9540 O   0  0  0  0  0  0  0  0  0  0  0  0
   38.6520   33.3480   40.2920 C   0  0  0  0  0  0  0  0  0  0  0  0
   38.8220   34.7500   40.1250 C   0  0  0  0  0  0  0  0  0  0  0  0
   40.0940   35.2070   40.2970 C   0  0  0  0  0  0  0  0  0  0  0  0
   41.1160   34.3910   40.6040 C   0  0  0  0  0  0  0  0  0  0  0  0
   40.2480   32.6970   40.6830 S   0  0  0  0  0  0  0  0  0  0  0  0
   37.9570   35.3440   39.8810 H   0  0  0  0  0  0  0  0  0  0  0  0
   40.3460   36.2540   40.1950 H   0  0  0  0  0  0  0  0  0  0  0  0
   42.4950   34.5360   40.8400 C   0  0  0  0  0  0  0  0  0  0  0  0
   43.3240   33.9810   39.8890 C   0  0  0  0  0  3  0  0  0  0  0  0
   44.7040   34.0870   40.0580 C   0  0  0  0  0  0  0  0  0  0  0  0
   45.3740   33.6640   39.3330 H   0  0  0  0  0  0  0  0  0  0  0  0
   45.1500   34.7270   41.1490 N   0  0  0  0  0  0  0  0  0  0  0  0
   44.2940   35.2610   42.0660 C   0  0  0  0  0  3  0  0  0  0  0  0
   42.9390   35.1790   41.9350 N   0  0  0  0  0  0  0  0  0  0  0  0
   36.5880   31.7720   40.8650 O   0  0  0  0  0  0  0  0  0  0  0  0
   37.4430   29.5640   39.8500 O   0  0  0  0  0  0  0  0  0  0  0  0
   36.6300   30.1170   40.9800 P   0  0  2  0  0  0  0  0  0  0  0  0
   35.0730   29.5230   40.8240 O   0  0  0  0  0  0  0  0  0  0  0  0
   34.8100   29.4950   39.8720 H   0  0  0  0  0  0  0  0  0  0  0  0
   37.3220   29.6640   42.4900 O   0  0  0  0  0  0  0  0  0  0  0  0
   39.2470   28.3630   43.0320 C   0  0  0  0  0  0  0  0  0  0  0  0
   37.9010   28.4110   42.6670 C   0  0  0  0  0  0  0  0  0  0  0  0
   37.1980   27.2180   42.4960 C   0  0  0  0  0  0  0  0  0  0  0  0
   37.8820   26.0500   42.6990 N   0  0  0  0  0  0  0  0  0  0  0  0
   39.1790   26.0290   43.0510 C   0  0  0  0  0  0  0  0  0  0  0  0
   39.8440   27.1770   43.2120 N   0  0  0  0  0  0  0  0  0  0  0  0
   39.8800   29.2130   43.1900 H   0  0  0  0  0  0  0  0  0  0  0  0
   36.1650   27.2860   42.2150 H   0  0  0  0  0  0  0  0  0  0  0  0
   39.5570   25.0170   43.1690 H   0  0  0  0  0  0  0  0  0  0  0  0
  1  3  1  0  0  0  0
  1 17  1  0  0  0  0
  2  1  2  0  0  0  0
  3  7  1  0  0  0  0
  4  3  2  0  0  0  0
  4  5  1  0  0  0  0
  5  6  2  0  0  0  0
  6  7  1  0  0  0  0
  6 10  1  0  0  0  0
  8  4  1  0  0  0  0
  9  5  1  0  0  0  0
 10 16  1  0  0  0  0
 11 12  1  0  0  0  0
 11 10  2  0  0  0  0
 12 14  2  0  0  0  0
 13 12  1  0  0  0  0
 14 15  1  0  0  0  0
 16 15  2  0  0  0  0
 17 19  1  0  0  0  0
 19 18  2  6  0  0  0
 19 22  1  0  0  0  0
 20 19  1  0  0  0  0
 21 20  1  0  0  0  0
 22 24  1  0  0  0  0
 23 29  1  0  0  0  0
 23 28  1  0  0  0  0
 24 23  2  0  0  0  0
 25 24  1  0  0  0  0
 25 26  2  0  0  0  0
 26 27  1  0  0  0  0
 27 31  1  0  0  0  0
 27 28  2  0  0  0  0
 30 25  1  0  0  0  0
M  END
>  <minimizedAffinity>
-5.73778868

$$$$

 OpenBabel03242514383D

 31 33  0  0  0  0  0  0  0  0999 V2000
   38.6630   33.3560   40.0850 C   0  0  0  0  0  0  0  0  0  0  0  0
   38.8310   34.3470   40.8900 O   0  0  0  0  0  0  0  0  0  0  0  0
   39.9330   33.1830   39.3720 C   0  0  0  0  0  0  0  0  0  0  0  0
   41.0210   34.0950   39.2890 C   0  0  0  0  0  0  0  0  0  0  0  0
   42.0810   33.6720   38.5470 C   0  0  0  0  0  0  0  0  0  0  0  0
   42.1000   32.4760   37.9350 C   0  0  0  0  0  0  0  0  0  0  0  0
   40.4020   31.7660   38.4250 S   0  0  0  0  0  0  0  0  0  0  0  0
   40.9380   35.0370   39.8060 H   0  0  0  0  0  0  0  0  0  0  0  0
   42.9660   34.2810   38.4120 H   0  0  0  0  0  0  0  0  0  0  0  0
   43.0020   31.7640   37.1260 C   0  0  0  0  0  0  0  0  0  0  0  0
   42.4670   30.7060   36.4230 C   0  0  0  0  0  3  0  0  0  0  0  0
   43.3040   29.9550   35.5990 C   0  0  0  0  0  0  0  0  0  0  0  0
   42.9140   29.1250   35.0400 H   0  0  0  0  0  0  0  0  0  0  0  0
   44.5980   30.3080   35.5390 N   0  0  0  0  0  0  0  0  0  0  0  0
   45.0860   31.3620   36.2520 C   0  0  0  0  0  3  0  0  0  0  0  0
   44.2980   32.1210   37.0670 N   0  0  0  0  0  0  0  0  0  0  0  0
   37.4220   32.8460   40.1810 O   0  0  0  0  0  0  0  0  0  0  0  0
   36.6330   30.6790   39.0330 O   0  0  0  0  0  0  0  0  0  0  0  0
   36.9910   31.2540   40.3690 P   0  0  2  0  0  0  0  0  0  0  0  0
   35.6290   31.1730   41.3380 O   0  0  0  0  0  0  0  0  0  0  0  0
   34.8190   31.3770   40.8110 H   0  0  0  0  0  0  0  0  0  0  0  0
   38.3040   30.3820   41.0610 O   0  0  0  0  0  0  0  0  0  0  0  0
   37.8380   28.0440   40.9680 C   0  0  0  0  0  0  0  0  0  0  0  0
   38.0930   29.1820   41.7340 C   0  0  0  0  0  0  0  0  0  0  0  0
   38.1260   29.0750   43.1250 C   0  0  0  0  0  0  0  0  0  0  0  0
   37.9010   27.8380   43.6650 N   0  0  0  0  0  0  0  0  0  0  0  0
   37.6580   26.7560   42.9060 C   0  0  0  0  0  0  0  0  0  0  0  0
   37.6290   26.8690   41.5750 N   0  0  0  0  0  0  0  0  0  0  0  0
   37.7900   28.0130   39.8980 H   0  0  0  0  0  0  0  0  0  0  0  0
   38.3240   29.9660   43.6880 H   0  0  0  0  0  0  0  0  0  0  0  0
   37.5040   25.8610   43.5030 H   0  0  0  0  0  0  0  0  0  0  0  0
  1 17  1  0  0  0  0
  1  2  2  0  0  0  0
  3  1  1  0  0  0  0
  4  3  2  0  0  0  0
  4  8  1  0  0  0  0
  5  4  1  0  0  0  0
  6  7  1  0  0  0  0
  6  5  2  0  0  0  0
  7  3  1  0  0  0  0
  9  5  1  0  0  0  0
 10  6  1  0  0  0  0
 11 10  2  0  0  0  0
 12 11  1  0  0  0  0
 13 12  1  0  0  0  0
 14 12  2  0  0  0  0
 14 15  1  0  0  0  0
 15 16  2  0  0  0  0
 16 10  1  0  0  0  0
 17 19  1  0  0  0  0
 19 18  2  6  0  0  0
 19 22  1  0  0  0  0
 19 20  1  0  0  0  0
 21 20  1  0  0  0  0
 22 24  1  0  0  0  0
 23 28  2  0  0  0  0
 23 24  1  0  0  0  0
 24 25  2  0  0  0  0
 25 26  1  0  0  0  0
 25 30  1  0  0  0  0
 27 31  1  0  0  0  0
 27 26  2  0  0  0  0
 28 27  1  0  0  0  0
 29 23  1  0  0  0  0
M  END
>  <minimizedAffinity>
-5.6572032

$$$$

 OpenBabel03242514383D

 31 33  0  0  0  0  0  0  0  0999 V2000
   36.7510   28.6620   40.7370 C   0  0  0  0  0  0  0  0  0  0  0  0
   36.7260   27.9810   39.6440 O   0  0  0  0  0  0  0  0  0  0  0  0
   37.2780   29.9850   40.3880 C   0  0  0  0  0  0  0  0  0  0  0  0
   36.5500   31.1900   40.1800 C   0  0  0  0  0  0  0  0  0  0  0  0
   37.3040   32.2770   39.8570 C   0  0  0  0  0  0  0  0  0  0  0  0
   38.6410   32.2180   39.7440 C   0  0  0  0  0  0  0  0  0  0  0  0
   38.9810   30.3850   40.1340 S   0  0  0  0  0  0  0  0  0  0  0  0
   35.4780   31.1640   40.2880 H   0  0  0  0  0  0  0  0  0  0  0  0
   36.8610   33.2480   39.6750 H   0  0  0  0  0  0  0  0  0  0  0  0
   39.6750   33.1210   39.4370 C   0  0  0  0  0  0  0  0  0  0  0  0
   39.6110   34.3400   40.0760 C   0  0  0  0  0  3  0  0  0  0  0  0
   40.6040   35.2850   39.8190 C   0  0  0  0  0  0  0  0  0  0  0  0
   40.5800   36.2440   40.3020 H   0  0  0  0  0  0  0  0  0  0  0  0
   41.5730   34.9500   38.9530 N   0  0  0  0  0  0  0  0  0  0  0  0
   41.5970   33.7310   38.3420 C   0  0  0  0  0  3  0  0  0  0  0  0
   40.6450   32.7810   38.5690 N   0  0  0  0  0  0  0  0  0  0  0  0
   36.2980   27.9410   41.7780 O   0  0  0  0  0  0  0  0  0  0  0  0
   35.9900   27.1970   44.2260 O   0  0  0  0  0  0  0  0  0  0  0  0
   36.9950   27.7740   43.2760 P   0  0  2  0  0  0  0  0  0  0  0  0
   37.4220   29.2880   43.8460 O   0  0  0  0  0  0  0  0  0  0  0  0
   36.6320   29.7520   44.2160 H   0  0  0  0  0  0  0  0  0  0  0  0
   38.3670   26.7400   43.1580 O   0  0  0  0  0  0  0  0  0  0  0  0
   37.6260   24.6360   42.3110 C   0  0  0  0  0  0  0  0  0  0  0  0
   38.4430   25.7590   42.1730 C   0  0  0  0  0  0  0  0  0  0  0  0
   39.2910   25.8550   41.0700 C   0  0  0  0  0  0  0  0  0  0  0  0
   39.2730   24.8220   40.1720 N   0  0  0  0  0  0  0  0  0  0  0  0
   38.4770   23.7500   40.3260 C   0  0  0  0  0  0  0  0  0  0  0  0
   37.6680   23.6680   41.3860 N   0  0  0  0  0  0  0  0  0  0  0  0
   36.9400   24.4610   43.1150 H   0  0  0  0  0  0  0  0  0  0  0  0
   39.9080   26.7290   40.9900 H   0  0  0  0  0  0  0  0  0  0  0  0
   38.5940   23.0310   39.5190 H   0  0  0  0  0  0  0  0  0  0  0  0
  1 17  1  0  0  0  0
  2  1  2  0  0  0  0
  3  1  1  0  0  0  0
  4  8  1  0  0  0  0
  4  3  2  0  0  0  0
  5  4  1  0  0  0  0
  6  5  2  0  0  0  0
  6  7  1  0  0  0  0
  7  3  1  0  0  0  0
  9  5  1  0  0  0  0
 10  6  1  0  0  0  0
 10 11  1  0  0  0  0
 12 11  2  0  0  0  0
 12 13  1  0  0  0  0
 14 12  1  0  0  0  0
 15 16  1  0  0  0  0
 15 14  2  0  0  0  0
 16 10  2  0  0  0  0
 17 19  1  0  0  0  0
 19 20  1  0  0  0  0
 19 18  2  1  0  0  0
 20 21  1  0  0  0  0
 22 19  1  0  0  0  0
 23 29  1  0  0  0  0
 24 23  1  0  0  0  0
 24 22  1  0  0  0  0
 25 24  2  0  0  0  0
 26 27  2  0  0  0  0
 26 25  1  0  0  0  0
 27 28  1  0  0  0  0
 28 23  2  0  0  0  0
 30 25  1  0  0  0  0
 31 27  1  0  0  0  0
M  END
>  <minimizedAffinity>
-5.46851826

$$$$

 OpenBabel03242514383D

 31 33  0  0  0  0  0  0  0  0999 V2000
   36.7030   30.3060   41.3090 C   0  0  0  0  0  0  0  0  0  0  0  0
   35.6220   29.6870   40.9800 O   0  0  0  0  0  0  0  0  0  0  0  0
   37.5370   29.3330   42.0210 C   0  0  0  0  0  0  0  0  0  0  0  0
   37.2120   28.5940   43.1930 C   0  0  0  0  0  0  0  0  0  0  0  0
   38.1880   27.7590   43.6440 C   0  0  0  0  0  0  0  0  0  0  0  0
   39.3760   27.6410   43.0270 C   0  0  0  0  0  0  0  0  0  0  0  0
   39.1800   28.8570   41.5750 S   0  0  0  0  0  0  0  0  0  0  0  0
   36.2400   28.7380   43.6340 H   0  0  0  0  0  0  0  0  0  0  0  0
   38.0560   27.1460   44.5260 H   0  0  0  0  0  0  0  0  0  0  0  0
   40.5540   26.9000   43.2270 C   0  0  0  0  0  0  0  0  0  0  0  0
   40.8260   25.9420   42.2740 C   0  0  0  0  0  3  0  0  0  0  0  0
   41.9790   25.1690   42.4090 C   0  0  0  0  0  0  0  0  0  0  0  0
   42.2150   24.4150   41.6810 H   0  0  0  0  0  0  0  0  0  0  0  0
   42.7640   25.4040   43.4710 N   0  0  0  0  0  0  0  0  0  0  0  0
   42.4570   26.3610   44.3910 C   0  0  0  0  0  3  0  0  0  0  0  0
   41.3400   27.1370   44.2930 N   0  0  0  0  0  0  0  0  0  0  0  0
   36.6830   31.5860   40.8940 O   0  0  0  0  0  0  0  0  0  0  0  0
   37.1830   33.7080   39.5210 O   0  0  0  0  0  0  0  0  0  0  0  0
   37.5600   32.2650   39.6590 P   0  0  2  0  0  0  0  0  0  0  0  0
   37.1620   31.4970   38.2270 O   0  0  0  0  0  0  0  0  0  0  0  0
   36.3090   31.8490   37.8740 H   0  0  0  0  0  0  0  0  0  0  0  0
   39.2410   32.1180   40.0010 O   0  0  0  0  0  0  0  0  0  0  0  0
   40.6660   34.0000   39.6510 C   0  0  0  0  0  0  0  0  0  0  0  0
   40.1920   32.7620   39.2140 C   0  0  0  0  0  0  0  0  0  0  0  0
   40.6830   32.2240   38.0240 C   0  0  0  0  0  0  0  0  0  0  0  0
   41.6160   32.9570   37.3420 N   0  0  0  0  0  0  0  0  0  0  0  0
   42.0570   34.1470   37.7820 C   0  0  0  0  0  0  0  0  0  0  0  0
   41.5810   34.6530   38.9240 N   0  0  0  0  0  0  0  0  0  0  0  0
   40.3590   34.5020   40.5460 H   0  0  0  0  0  0  0  0  0  0  0  0
   40.3010   31.2720   37.7130 H   0  0  0  0  0  0  0  0  0  0  0  0
   42.7950   34.5860   37.1160 H   0  0  0  0  0  0  0  0  0  0  0  0
  1  3  1  0  0  0  0
  2  1  2  0  0  0  0
  3  4  2  0  0  0  0
  4  8  1  0  0  0  0
  4  5  1  0  0  0  0
  5  9  1  0  0  0  0
  6 10  1  0  0  0  0
  6  5  2  0  0  0  0
  7  3  1  0  0  0  0
  7  6  1  0  0  0  0
 10 16  1  0  0  0  0
 11 12  1  0  0  0  0
 11 10  2  0  0  0  0
 12 14  2  0  0  0  0
 13 12  1  0  0  0  0
 14 15  1  0  0  0  0
 16 15  2  0  0  0  0
 17  1  1  0  0  0  0
 19 18  2  6  0  0  0
 19 22  1  0  0  0  0
 19 17  1  0  0  0  0
 20 19  1  0  0  0  0
 21 20  1  0  0  0  0
 23 29  1  0  0  0  0
 24 23  1  0  0  0  0
 24 22  1  0  0  0  0
 25 24  2  0  0  0  0
 26 27  2  0  0  0  0
 26 25  1  0  0  0  0
 27 28  1  0  0  0  0
 28 23  2  0  0  0  0
 30 25  1  0  0  0  0
 31 27  1  0  0  0  0
M  END
>  <minimizedAffinity>
-5.44759464

$$$$

 OpenBabel03242514383D

 31 33  0  0  0  0  0  0  0  0999 V2000
   37.5740   31.4660   39.7560 C   0  0  0  0  0  0  0  0  0  0  0  0
   37.0720   31.1430   38.6150 O   0  0  0  0  0  0  0  0  0  0  0  0
   37.5900   30.2420   40.5630 C   0  0  0  0  0  0  0  0  0  0  0  0
   36.5750   29.7550   41.4330 C   0  0  0  0  0  0  0  0  0  0  0  0
   36.8630   28.5850   42.0670 C   0  0  0  0  0  0  0  0  0  0  0  0
   38.0240   27.9330   41.8830 C   0  0  0  0  0  0  0  0  0  0  0  0
   38.9120   29.0720   40.6420 S   0  0  0  0  0  0  0  0  0  0  0  0
   35.6680   30.3290   41.5310 H   0  0  0  0  0  0  0  0  0  0  0  0
   36.1680   28.1170   42.7530 H   0  0  0  0  0  0  0  0  0  0  0  0
   38.6110   26.7500   42.3650 C   0  0  0  0  0  0  0  0  0  0  0  0
   38.1820   25.5840   41.7690 C   0  0  0  0  0  3  0  0  0  0  0  0
   38.7220   24.3730   42.1980 C   0  0  0  0  0  0  0  0  0  0  0  0
   38.4050   23.4490   41.7510 H   0  0  0  0  0  0  0  0  0  0  0  0
   39.6380   24.4120   43.1780 N   0  0  0  0  0  0  0  0  0  0  0  0
   40.0340   25.5890   43.7410 C   0  0  0  0  0  3  0  0  0  0  0  0
   39.5290   26.7930   43.3480 N   0  0  0  0  0  0  0  0  0  0  0  0
   37.8970   32.7710   39.8010 O   0  0  0  0  0  0  0  0  0  0  0  0
   39.9890   32.4130   41.2630 O   0  0  0  0  0  0  0  0  0  0  0  0
   39.2280   33.4630   40.5120 P   0  0  2  0  0  0  0  0  0  0  0  0
   38.7160   34.6080   41.6190 O   0  0  0  0  0  0  0  0  0  0  0  0
   38.4380   34.1720   42.4610 H   0  0  0  0  0  0  0  0  0  0  0  0
   40.2250   34.1680   39.2980 O   0  0  0  0  0  0  0  0  0  0  0  0
   42.4630   33.6610   38.6440 C   0  0  0  0  0  0  0  0  0  0  0  0
   41.0980   33.3880   38.5450 C   0  0  0  0  0  0  0  0  0  0  0  0
   40.6670   32.3590   37.7070 C   0  0  0  0  0  0  0  0  0  0  0  0
   41.6260   31.6650   37.0190 N   0  0  0  0  0  0  0  0  0  0  0  0
   42.9350   31.9470   37.1320 C   0  0  0  0  0  0  0  0  0  0  0  0
   43.3370   32.9350   37.9370 N   0  0  0  0  0  0  0  0  0  0  0  0
   42.9010   34.4250   39.2540 H   0  0  0  0  0  0  0  0  0  0  0  0
   39.6130   32.1710   37.6500 H   0  0  0  0  0  0  0  0  0  0  0  0
   43.5510   31.2970   36.5150 H   0  0  0  0  0  0  0  0  0  0  0  0
  1 17  1  0  0  0  0
  1  3  1  0  0  0  0
  2  1  2  0  0  0  0
  3  7  1  0  0  0  0
  3  4  2  0  0  0  0
  4  8  1  0  0  0  0
  4  5  1  0  0  0  0
  5  9  1  0  0  0  0
  6  5  2  0  0  0  0
  6 10  1  0  0  0  0
  7  6  1  0  0  0  0
 10 16  1  0  0  0  0
 11 12  1  0  0  0  0
 11 10  2  0  0  0  0
 12 14  2  0  0  0  0
 13 12  1  0  0  0  0
 14 15  1  0  0  0  0
 16 15  2  0  0  0  0
 17 19  1  0  0  0  0
 19 18  2  1  0  0  0
 19 20  1  0  0  0  0
 20 21  1  0  0  0  0
 22 19  1  0  0  0  0
 23 29  1  0  0  0  0
 24 23  1  0  0  0  0
 24 22  1  0  0  0  0
 25 24  2  0  0  0  0
 26 27  2  0  0  0  0
 26 25  1  0  0  0  0
 27 28  1  0  0  0  0
 28 23  2  0  0  0  0
 30 25  1  0  0  0  0
 31 27  1  0  0  0  0
M  END
>  <minimizedAffinity>
-5.35686731

$$$$

 OpenBabel03242514383D

 31 33  0  0  0  0  0  0  0  0999 V2000
   38.7410   31.2760   40.5120 C   0  0  0  0  0  0  0  0  0  0  0  0
   38.1620   32.3940   40.7860 O   0  0  0  0  0  0  0  0  0  0  0  0
   39.8000   31.5840   39.5460 C   0  0  0  0  0  0  0  0  0  0  0  0
   40.0080   32.7980   38.8340 C   0  0  0  0  0  0  0  0  0  0  0  0
   41.0760   32.8020   37.9890 C   0  0  0  0  0  0  0  0  0  0  0  0
   41.8790   31.7360   37.8390 C   0  0  0  0  0  0  0  0  0  0  0  0
   41.0830   30.4830   39.0330 S   0  0  0  0  0  0  0  0  0  0  0  0
   39.3250   33.6140   39.0050 H   0  0  0  0  0  0  0  0  0  0  0  0
   41.3330   33.6690   37.3940 H   0  0  0  0  0  0  0  0  0  0  0  0
   43.0200   31.4230   37.0790 C   0  0  0  0  0  0  0  0  0  0  0  0
   42.8570   30.4300   36.1380 C   0  0  0  0  0  3  0  0  0  0  0  0
   43.9470   30.0680   35.3480 C   0  0  0  0  0  0  0  0  0  0  0  0
   43.8480   29.2970   34.6060 H   0  0  0  0  0  0  0  0  0  0  0  0
   45.1050   30.7130   35.5540 N   0  0  0  0  0  0  0  0  0  0  0  0
   45.2240   31.6890   36.4970 C   0  0  0  0  0  3  0  0  0  0  0  0
   44.1800   32.0710   37.2880 N   0  0  0  0  0  0  0  0  0  0  0  0
   38.1860   30.2550   41.1890 O   0  0  0  0  0  0  0  0  0  0  0  0
   36.3380   29.2510   39.7010 O   0  0  0  0  0  0  0  0  0  0  0  0
   36.6210   29.7100   41.0990 P   0  0  2  0  0  0  0  0  0  0  0  0
   35.5850   30.9800   41.4360 O   0  0  0  0  0  0  0  0  0  0  0  0
   35.4770   31.5560   40.6410 H   0  0  0  0  0  0  0  0  0  0  0  0
   36.4010   28.4120   42.2090 O   0  0  0  0  0  0  0  0  0  0  0  0
   38.2370   27.6950   43.5530 C   0  0  0  0  0  0  0  0  0  0  0  0
   37.4170   27.4890   42.4440 C   0  0  0  0  0  0  0  0  0  0  0  0
   37.6430   26.3830   41.6240 C   0  0  0  0  0  0  0  0  0  0  0  0
   38.6750   25.5500   41.9630 N   0  0  0  0  0  0  0  0  0  0  0  0
   39.4510   25.7690   43.0380 C   0  0  0  0  0  0  0  0  0  0  0  0
   39.2270   26.8320   43.8160 N   0  0  0  0  0  0  0  0  0  0  0  0
   38.1530   28.5080   44.2470 H   0  0  0  0  0  0  0  0  0  0  0  0
   36.9970   26.2500   40.7780 H   0  0  0  0  0  0  0  0  0  0  0  0
   40.2190   25.0080   43.1530 H   0  0  0  0  0  0  0  0  0  0  0  0
  1  2  2  0  0  0  0
  1 17  1  0  0  0  0
  3  1  1  0  0  0  0
  4  8  1  0  0  0  0
  4  3  2  0  0  0  0
  5  4  1  0  0  0  0
  6  5  2  0  0  0  0
  6  7  1  0  0  0  0
  7  3  1  0  0  0  0
  9  5  1  0  0  0  0
 10 16  1  0  0  0  0
 10  6  1  0  0  0  0
 11 10  2  0  0  0  0
 12 14  2  0  0  0  0
 12 11  1  0  0  0  0
 13 12  1  0  0  0  0
 14 15  1  0  0  0  0
 15 16  2  0  0  0  0
 19 18  2  6  0  0  0
 19 17  1  0  0  0  0
 19 20  1  0  0  0  0
 19 22  1  0  0  0  0
 21 20  1  0  0  0  0
 22 24  1  0  0  0  0
 23 28  1  0  0  0  0
 23 29  1  0  0  0  0
 24 23  2  0  0  0  0
 25 26  2  0  0  0  0
 25 24  1  0  0  0  0
 26 27  1  0  0  0  0
 27 31  1  0  0  0  0
 27 28  2  0  0  0  0
 30 25  1  0  0  0  0
M  END
>  <minimizedAffinity>
-5.29926252

$$$$

 OpenBabel03242514383D

 31 33  0  0  0  0  0  0  0  0999 V2000
   37.8740   27.9570   40.7280 C   0  0  0  0  0  0  0  0  0  0  0  0
   38.2640   27.1800   39.7770 O   0  0  0  0  0  0  0  0  0  0  0  0
   38.0910   29.3290   40.2590 C   0  0  0  0  0  0  0  0  0  0  0  0
   37.2900   30.0800   39.3540 C   0  0  0  0  0  0  0  0  0  0  0  0
   37.7360   31.3390   39.0890 C   0  0  0  0  0  0  0  0  0  0  0  0
   38.8550   31.8380   39.6430 C   0  0  0  0  0  0  0  0  0  0  0  0
   39.4370   30.3780   40.7190 S   0  0  0  0  0  0  0  0  0  0  0  0
   36.4050   29.6170   38.9500 H   0  0  0  0  0  0  0  0  0  0  0  0
   37.2100   32.0040   38.4160 H   0  0  0  0  0  0  0  0  0  0  0  0
   39.5640   33.0510   39.5810 C   0  0  0  0  0  0  0  0  0  0  0  0
   40.7180   33.0290   38.8290 C   0  0  0  0  0  3  0  0  0  0  0  0
   41.4720   34.1970   38.7240 C   0  0  0  0  0  0  0  0  0  0  0  0
   42.3770   34.2100   38.1440 H   0  0  0  0  0  0  0  0  0  0  0  0
   41.0270   35.2850   39.3700 N   0  0  0  0  0  0  0  0  0  0  0  0
   39.8790   35.2620   40.1050 C   0  0  0  0  0  3  0  0  0  0  0  0
   39.1140   34.1400   40.2300 N   0  0  0  0  0  0  0  0  0  0  0  0
   37.4200   27.2550   41.7820 O   0  0  0  0  0  0  0  0  0  0  0  0
   35.9890   27.2840   43.9240 O   0  0  0  0  0  0  0  0  0  0  0  0
   37.2910   27.7600   43.3580 P   0  0  2  0  0  0  0  0  0  0  0  0
   37.2780   29.4330   43.3900 O   0  0  0  0  0  0  0  0  0  0  0  0
   36.3790   29.7740   43.1610 H   0  0  0  0  0  0  0  0  0  0  0  0
   38.6060   27.1280   44.2720 O   0  0  0  0  0  0  0  0  0  0  0  0
   40.6910   27.5930   43.2100 C   0  0  0  0  0  0  0  0  0  0  0  0
   39.7540   26.6540   43.6430 C   0  0  0  0  0  0  0  0  0  0  0  0
   40.0000   25.2970   43.4330 C   0  0  0  0  0  0  0  0  0  0  0  0
   41.1680   24.9610   42.8020 N   0  0  0  0  0  0  0  0  0  0  0  0
   42.0550   25.8830   42.3940 C   0  0  0  0  0  0  0  0  0  0  0  0
   41.8100   27.1800   42.6000 N   0  0  0  0  0  0  0  0  0  0  0  0
   40.6040   28.6550   43.3200 H   0  0  0  0  0  0  0  0  0  0  0  0
   39.2630   24.5980   43.7760 H   0  0  0  0  0  0  0  0  0  0  0  0
   42.9220   25.4370   41.9140 H   0  0  0  0  0  0  0  0  0  0  0  0
  1 17  1  0  0  0  0
  2  1  2  0  0  0  0
  3  7  1  0  0  0  0
  3  1  1  0  0  0  0
  4  3  2  0  0  0  0
  5  4  1  0  0  0  0
  5  6  2  0  0  0  0
  6  7  1  0  0  0  0
  8  4  1  0  0  0  0
  9  5  1  0  0  0  0
 10  6  1  0  0  0  0
 10 16  1  0  0  0  0
 11 10  2  0  0  0  0
 12 11  1  0  0  0  0
 12 14  2  0  0  0  0
 13 12  1  0  0  0  0
 14 15  1  0  0  0  0
 15 16  2  0  0  0  0
 17 19  1  0  0  0  0
 19 20  1  0  0  0  0
 19 18  2  1  0  0  0
 19 22  1  0  0  0  0
 21 20  1  0  0  0  0
 23 29  1  0  0  0  0
 23 24  1  0  0  0  0
 24 22  1  0  0  0  0
 25 24  2  0  0  0  0
 25 30  1  0  0  0  0
 26 25  1  0  0  0  0
 27 28  1  0  0  0  0
 27 26  2  0  0  0  0
 28 23  2  0  0  0  0
 31 27  1  0  0  0  0
M  END
>  <minimizedAffinity>
-5.25971603

$$$$

 OpenBabel03242514383D

 31 33  0  0  0  0  0  0  0  0999 V2000
   40.8250   31.5600   41.4790 C   0  0  0  0  0  0  0  0  0  0  0  0
   41.7870   31.7180   42.3210 O   0  0  0  0  0  0  0  0  0  0  0  0
   40.0900   30.3670   41.9100 C   0  0  0  0  0  0  0  0  0  0  0  0
   39.0590   30.2800   42.8870 C   0  0  0  0  0  0  0  0  0  0  0  0
   38.5540   29.0320   43.0920 C   0  0  0  0  0  0  0  0  0  0  0  0
   38.9960   27.9570   42.4190 C   0  0  0  0  0  0  0  0  0  0  0  0
   40.3330   28.7260   41.3010 S   0  0  0  0  0  0  0  0  0  0  0  0
   38.7530   31.1840   43.3880 H   0  0  0  0  0  0  0  0  0  0  0  0
   37.7670   28.8430   43.8100 H   0  0  0  0  0  0  0  0  0  0  0  0
   38.7000   26.5830   42.3930 C   0  0  0  0  0  0  0  0  0  0  0  0
   37.4020   26.2580   42.0650 C   0  0  0  0  0  3  0  0  0  0  0  0
   37.0370   24.9130   42.0200 C   0  0  0  0  0  0  0  0  0  0  0  0
   36.0320   24.6310   41.7670 H   0  0  0  0  0  0  0  0  0  0  0  0
   37.9820   24.0030   42.3050 N   0  0  0  0  0  0  0  0  0  0  0  0
   39.2550   24.3680   42.6260 C   0  0  0  0  0  3  0  0  0  0  0  0
   39.6490   25.6730   42.6790 N   0  0  0  0  0  0  0  0  0  0  0  0
   40.8350   32.5160   40.5330 O   0  0  0  0  0  0  0  0  0  0  0  0
   40.2400   34.8240   39.5550 O   0  0  0  0  0  0  0  0  0  0  0  0
   39.6330   33.6030   40.1770 P   0  0  2  0  0  0  0  0  0  0  0  0
   38.8910   34.0750   41.6010 O   0  0  0  0  0  0  0  0  0  0  0  0
   39.4340   34.7590   42.0620 H   0  0  0  0  0  0  0  0  0  0  0  0
   38.5070   32.8790   39.0950 O   0  0  0  0  0  0  0  0  0  0  0  0
   38.0580   30.5510   38.8300 C   0  0  0  0  0  0  0  0  0  0  0  0
   37.7720   31.7580   39.4690 C   0  0  0  0  0  0  0  0  0  0  0  0
   36.7750   31.7940   40.4450 C   0  0  0  0  0  0  0  0  0  0  0  0
   36.1240   30.6220   40.7220 N   0  0  0  0  0  0  0  0  0  0  0  0
   36.4180   29.4710   40.0930 C   0  0  0  0  0  0  0  0  0  0  0  0
   37.3740   29.4480   39.1600 N   0  0  0  0  0  0  0  0  0  0  0  0
   38.8000   30.4100   38.0700 H   0  0  0  0  0  0  0  0  0  0  0  0
   36.5770   32.7350   40.9190 H   0  0  0  0  0  0  0  0  0  0  0  0
   35.8040   28.6450   40.4390 H   0  0  0  0  0  0  0  0  0  0  0  0
  1  3  1  0  0  0  0
  1  2  2  0  0  0  0
  3  4  2  0  0  0  0
  4  5  1  0  0  0  0
  4  8  1  0  0  0  0
  5  9  1  0  0  0  0
  6  5  2  0  0  0  0
  7  3  1  0  0  0  0
  7  6  1  0  0  0  0
 10  6  1  0  0  0  0
 10 16  1  0  0  0  0
 11 10  2  0  0  0  0
 12 11  1  0  0  0  0
 12 14  2  0  0  0  0
 13 12  1  0  0  0  0
 14 15  1  0  0  0  0
 15 16  2  0  0  0  0
 17  1  1  0  0  0  0
 19 18  2  6  0  0  0
 19 17  1  0  0  0  0
 19 20  1  0  0  0  0
 20 21  1  0  0  0  0
 22 24  1  0  0  0  0
 22 19  1  0  0  0  0
 23 28  2  0  0  0  0
 23 24  1  0  0  0  0
 24 25  2  0  0  0  0
 25 26  1  0  0  0  0
 25 30  1  0  0  0  0
 27 31  1  0  0  0  0
 27 26  2  0  0  0  0
 28 27  1  0  0  0  0
 29 23  1  0  0  0  0
M  END
>  <minimizedAffinity>
-5.20030928

$$$$
