
 OpenBabel03242521203D

 24 26  0  0  0  0  0  0  0  0999 V2000
   46.0750   34.4740   41.5890 C   0  0  0  0  0  0  0  0  0  0  0  0
   46.2110   35.0490   42.8190 C   0  0  0  0  0  0  0  0  0  0  0  0
   45.1930   35.7180   43.4590 C   0  0  0  0  0  0  0  0  0  0  0  0
   44.0060   35.7880   42.8030 N   0  0  0  0  0  0  0  0  0  0  0  0
   43.8660   35.2260   41.6010 C   0  0  0  0  0  0  0  0  0  0  0  0
   44.8670   34.5660   40.9660 N   0  0  0  0  0  0  0  0  0  0  0  0
   47.1630   34.9610   43.2810 H   0  0  0  0  0  0  0  0  0  0  0  0
   45.3020   36.1750   44.4340 H   0  0  0  0  0  0  0  0  0  0  0  0
   48.1850   33.0830   38.9510 C   0  0  0  0  0  0  0  0  0  0  0  0
   49.2050   32.4580   39.6810 C   0  0  0  0  0  0  0  0  0  0  0  0
   49.1770   32.5090   41.0840 C   0  0  0  0  0  0  0  0  0  0  0  0
   48.1290   33.1830   41.6690 N   0  0  0  0  0  0  0  0  0  0  0  0
   47.1650   33.7720   40.9320 C   0  0  0  0  0  0  0  0  0  0  0  0
   47.1820   33.7280   39.5830 N   0  0  0  0  0  0  0  0  0  0  0  0
   48.1610   33.0730   37.8680 H   0  0  0  0  0  0  0  0  0  0  0  0
   49.9970   31.9470   39.1390 H   0  0  0  0  0  0  0  0  0  0  0  0
   49.9430   32.0410   41.6570 H   0  0  0  0  0  0  0  0  0  0  0  0
   42.5950   35.2930   40.8820 C   0  0  0  0  0  0  0  0  0  0  0  0
   42.5290   35.0640   39.5210 C   0  0  0  0  0  0  0  0  0  0  0  0
   41.3410   35.1200   38.8170 C   0  0  0  0  0  0  0  0  0  0  0  0
   41.2870   34.9400   37.7440 H   0  0  0  0  0  0  0  0  0  0  0  0
   40.1890   35.4050   39.4490 N   0  0  0  0  0  0  0  0  0  0  0  0
   40.2530   35.6320   40.7940 C   0  0  0  0  0  0  0  0  0  0  0  0
   41.4150   35.5740   41.4690 N   0  0  0  0  0  0  0  0  0  0  0  0
  1  2  1  0  0  0  0
  2  7  1  0  0  0  0
  2  3  2  0  0  0  0
  3  8  1  0  0  0  0
  4  3  1  0  0  0  0
  5  4  2  0  0  0  0
  6  1  2  0  0  0  0
  6  5  1  0  0  0  0
  9 14  2  0  0  0  0
  9 10  1  0  0  0  0
 10 11  2  0  0  0  0
 11 17  1  0  0  0  0
 11 12  1  0  0  0  0
 13  1  1  0  0  0  0
 13 12  2  0  0  0  0
 14 13  1  0  0  0  0
 15  9  1  0  0  0  0
 16 10  1  0  0  0  0
 18 24  1  0  0  0  0
 18  5  1  0  0  0  0
 19 18  2  0  0  0  0
 20 22  2  0  0  0  0
 20 19  1  0  0  0  0
 21 20  1  0  0  0  0
 22 23  1  0  0  0  0
 23 24  2  0  0  0  0
M  END
>  <minimizedAffinity>
-4.86931133

>  <minimizedRMSD>
8.3263483

$$$$
