
 OpenBabel03252506233D

 29 31  0  0  0  0  0  0  0  0999 V2000
   38.3070   31.2960   41.0180 C   0  0  0  0  0  0  0  0  0  0  0  0
   36.9660   31.5470   40.6640 C   0  0  0  0  0  0  0  0  0  0  0  0
   36.2290   30.4890   41.0570 C   0  0  0  0  0  0  0  0  0  0  0  0
   37.0740   29.6110   41.6360 N   0  0  0  0  0  0  0  0  0  0  0  0
   38.3110   30.0990   41.6100 N   0  0  0  0  0  0  0  0  0  0  0  0
   36.6060   32.4380   40.1620 H   0  0  0  0  0  0  0  0  0  0  0  0
   35.1440   30.4270   40.9010 H   0  0  0  0  0  0  0  0  0  0  0  0
   41.6790   32.7300   41.0380 C   0  0  0  0  0  0  0  0  0  0  0  0
   41.5160   33.8890   40.2610 C   0  0  0  0  0  0  0  0  0  0  0  0
   40.2470   34.1610   39.7430 C   0  0  0  0  0  0  0  0  0  0  0  0
   39.2420   33.2870   40.0210 N   0  0  0  0  0  0  0  0  0  0  0  0
   39.4280   32.1900   40.7660 C   0  0  0  0  0  0  0  0  0  0  0  0
   40.6380   31.9070   41.2740 N   0  0  0  0  0  0  0  0  0  0  0  0
   42.6540   32.4870   41.4570 H   0  0  0  0  0  0  0  0  0  0  0  0
   42.3340   34.5500   40.0650 H   0  0  0  0  0  0  0  0  0  0  0  0
   40.0440   35.0320   39.1370 H   0  0  0  0  0  0  0  0  0  0  0  0
   36.6190   28.3530   42.1710 C   0  0  0  0  0  0  0  0  0  0  0  0
   36.6490   27.6120   41.3420 H   0  0  0  0  0  0  0  0  0  0  0  0
   35.5750   28.4250   42.5410 H   0  0  0  0  0  0  0  0  0  0  0  0
   37.5200   27.9680   43.2910 C   0  0  0  0  0  0  0  0  0  0  0  0
   36.8980   27.9030   44.2300 H   0  0  0  0  0  0  0  0  0  0  0  0
   38.2330   28.8220   43.4470 H   0  0  0  0  0  0  0  0  0  0  0  0
   38.2270   26.6990   43.0840 C   0  0  0  0  0  0  0  0  0  0  0  0
   39.4820   26.6700   43.6760 C   0  0  0  0  0  3  0  0  0  0  0  0
   40.2900   25.5470   43.5800 C   0  0  0  0  0  0  0  0  0  0  0  0
   41.2870   25.4740   44.0290 H   0  0  0  0  0  0  0  0  0  0  0  0
   39.8430   24.4570   42.8930 N   0  0  0  0  0  0  0  0  0  0  0  0
   38.6220   24.5180   42.3320 C   0  0  0  0  0  3  0  0  0  0  0  0
   37.8350   25.5860   42.4140 N   0  0  0  0  0  0  0  0  0  0  0  0
  1  5  2  0  0  0  0
  2  1  1  0  0  0  0
  2  3  2  0  0  0  0
  3  4  1  0  0  0  0
  4 17  1  0  0  0  0
  5  4  1  0  0  0  0
  6  2  1  0  0  0  0
  7  3  1  0  0  0  0
  8 13  1  0  0  0  0
  8 14  1  0  0  0  0
  9  8  2  0  0  0  0
 10 11  2  0  0  0  0
 10  9  1  0  0  0  0
 11 12  1  0  0  0  0
 12  1  1  0  0  0  0
 12 13  2  0  0  0  0
 15  9  1  0  0  0  0
 16 10  1  0  0  0  0
 17 19  1  0  0  0  0
 17 20  1  0  0  0  0
 18 17  1  0  0  0  0
 20 22  1  0  0  0  0
 20 21  1  0  0  0  0
 23 20  1  0  0  0  0
 23 24  1  0  0  0  0
 25 24  2  0  0  0  0
 25 26  1  0  0  0  0
 27 25  1  0  0  0  0
 28 29  1  0  0  0  0
 28 27  2  0  0  0  0
 29 23  2  0  0  0  0
M  END
>  <minimizedAffinity>
-4.92098379

$$$$

 OpenBabel03252506233D

 29 31  0  0  0  0  0  0  0  0999 V2000
   37.0980   30.3960   41.0930 C   0  0  0  0  0  0  0  0  0  0  0  0
   36.1110   29.6780   40.3890 C   0  0  0  0  0  0  0  0  0  0  0  0
   35.8560   28.5450   41.0730 C   0  0  0  0  0  0  0  0  0  0  0  0
   36.6510   28.5530   42.1630 N   0  0  0  0  0  0  0  0  0  0  0  0
   37.3880   29.6590   42.1690 N   0  0  0  0  0  0  0  0  0  0  0  0
   35.6480   29.9950   39.4600 H   0  0  0  0  0  0  0  0  0  0  0  0
   35.1200   27.8010   40.7400 H   0  0  0  0  0  0  0  0  0  0  0  0
   37.4490   33.7130   39.5760 C   0  0  0  0  0  0  0  0  0  0  0  0
   38.7500   34.0800   39.9570 C   0  0  0  0  0  0  0  0  0  0  0  0
   39.4890   33.1800   40.7290 C   0  0  0  0  0  0  0  0  0  0  0  0
   38.9040   31.9980   41.0680 N   0  0  0  0  0  0  0  0  0  0  0  0
   37.6610   31.6760   40.6890 C   0  0  0  0  0  0  0  0  0  0  0  0
   36.9320   32.5250   39.9480 N   0  0  0  0  0  0  0  0  0  0  0  0
   36.8450   34.3910   38.9750 H   0  0  0  0  0  0  0  0  0  0  0  0
   39.1730   35.0200   39.6700 H   0  0  0  0  0  0  0  0  0  0  0  0
   40.4960   33.3910   41.0600 H   0  0  0  0  0  0  0  0  0  0  0  0
   36.6410   27.4780   43.1220 C   0  0  0  0  0  0  0  0  0  0  0  0
   35.6060   27.4040   43.5230 H   0  0  0  0  0  0  0  0  0  0  0  0
   37.3320   27.6810   43.9650 H   0  0  0  0  0  0  0  0  0  0  0  0
   37.0550   26.2290   42.4270 C   0  0  0  0  0  0  0  0  0  0  0  0
   36.6900   26.2860   41.3610 H   0  0  0  0  0  0  0  0  0  0  0  0
   36.4900   25.3840   42.9050 H   0  0  0  0  0  0  0  0  0  0  0  0
   38.5030   25.9890   42.4350 C   0  0  0  0  0  0  0  0  0  0  0  0
   39.1480   26.5780   43.5140 C   0  0  0  0  0  3  0  0  0  0  0  0
   40.5190   26.4540   43.6800 C   0  0  0  0  0  0  0  0  0  0  0  0
   41.0750   26.8990   44.5130 H   0  0  0  0  0  0  0  0  0  0  0  0
   41.2420   25.7420   42.7680 N   0  0  0  0  0  0  0  0  0  0  0  0
   40.5860   25.1840   41.7350 C   0  0  0  0  0  3  0  0  0  0  0  0
   39.2730   25.2930   41.5610 N   0  0  0  0  0  0  0  0  0  0  0  0
  1  5  2  0  0  0  0
  2  3  2  0  0  0  0
  2  1  1  0  0  0  0
  3  4  1  0  0  0  0
  4  5  1  0  0  0  0
  4 17  1  0  0  0  0
  6  2  1  0  0  0  0
  7  3  1  0  0  0  0
  8 13  2  0  0  0  0
  8  9  1  0  0  0  0
  9 10  2  0  0  0  0
 10 16  1  0  0  0  0
 10 11  1  0  0  0  0
 12 11  2  0  0  0  0
 12  1  1  0  0  0  0
 13 12  1  0  0  0  0
 14  8  1  0  0  0  0
 15  9  1  0  0  0  0
 17 18  1  0  0  0  0
 17 19  1  0  0  0  0
 20 23  1  0  0  0  0
 20 22  1  0  0  0  0
 20 17  1  0  0  0  0
 21 20  1  0  0  0  0
 23 24  1  0  0  0  0
 24 25  2  0  0  0  0
 25 26  1  0  0  0  0
 27 25  1  0  0  0  0
 28 27  2  0  0  0  0
 29 28  1  0  0  0  0
 29 23  2  0  0  0  0
M  END
>  <minimizedAffinity>
-4.85100365

$$$$

 OpenBabel03252506233D

 29 31  0  0  0  0  0  0  0  0999 V2000
   37.1310   30.4440   41.1340 C   0  0  0  0  0  0  0  0  0  0  0  0
   36.1000   29.7890   40.4310 C   0  0  0  0  0  0  0  0  0  0  0  0
   35.8220   28.6410   41.0800 C   0  0  0  0  0  0  0  0  0  0  0  0
   36.6450   28.5790   42.1480 N   0  0  0  0  0  0  0  0  0  0  0  0
   37.4220   29.6580   42.1740 N   0  0  0  0  0  0  0  0  0  0  0  0
   35.6250   30.1570   39.5290 H   0  0  0  0  0  0  0  0  0  0  0  0
   35.0510   27.9360   40.7410 H   0  0  0  0  0  0  0  0  0  0  0  0
   39.5380   33.1890   40.8100 C   0  0  0  0  0  0  0  0  0  0  0  0
   38.8270   34.1190   40.0330 C   0  0  0  0  0  0  0  0  0  0  0  0
   37.5290   33.7890   39.6340 C   0  0  0  0  0  0  0  0  0  0  0  0
   37.0280   32.5840   40.0210 N   0  0  0  0  0  0  0  0  0  0  0  0
   37.7300   31.7180   40.7620 C   0  0  0  0  0  0  0  0  0  0  0  0
   38.9790   32.0130   41.1570 N   0  0  0  0  0  0  0  0  0  0  0  0
   40.5510   33.4140   41.1380 H   0  0  0  0  0  0  0  0  0  0  0  0
   39.2580   35.0560   39.7500 H   0  0  0  0  0  0  0  0  0  0  0  0
   36.9210   34.4530   39.0360 H   0  0  0  0  0  0  0  0  0  0  0  0
   36.6210   27.4690   43.0660 C   0  0  0  0  0  0  0  0  0  0  0  0
   35.7630   26.8230   42.7790 H   0  0  0  0  0  0  0  0  0  0  0  0
   36.4710   27.8120   44.1100 H   0  0  0  0  0  0  0  0  0  0  0  0
   37.9180   26.7470   42.9590 C   0  0  0  0  0  0  0  0  0  0  0  0
   38.0890   26.1950   43.9280 H   0  0  0  0  0  0  0  0  0  0  0  0
   38.7240   27.5270   42.8990 H   0  0  0  0  0  0  0  0  0  0  0  0
   37.9900   25.8030   41.8390 C   0  0  0  0  0  0  0  0  0  0  0  0
   37.0640   24.7720   41.9340 C   0  0  0  0  0  3  0  0  0  0  0  0
   36.9920   23.7870   40.9590 C   0  0  0  0  0  0  0  0  0  0  0  0
   36.2810   22.9540   40.9880 H   0  0  0  0  0  0  0  0  0  0  0  0
   37.8430   23.8340   39.8950 N   0  0  0  0  0  0  0  0  0  0  0  0
   38.7270   24.8470   39.8330 C   0  0  0  0  0  3  0  0  0  0  0  0
   38.8100   25.7980   40.7580 N   0  0  0  0  0  0  0  0  0  0  0  0
  1  5  2  0  0  0  0
  2  3  2  0  0  0  0
  2  1  1  0  0  0  0
  3  4  1  0  0  0  0
  4  5  1  0  0  0  0
  4 17  1  0  0  0  0
  6  2  1  0  0  0  0
  7  3  1  0  0  0  0
  8 14  1  0  0  0  0
  8 13  1  0  0  0  0
  9  8  2  0  0  0  0
 10 11  2  0  0  0  0
 10  9  1  0  0  0  0
 11 12  1  0  0  0  0
 12  1  1  0  0  0  0
 12 13  2  0  0  0  0
 15  9  1  0  0  0  0
 16 10  1  0  0  0  0
 17 19  1  0  0  0  0
 18 17  1  0  0  0  0
 20 17  1  0  0  0  0
 20 21  1  0  0  0  0
 22 20  1  0  0  0  0
 23 24  1  0  0  0  0
 23 20  1  0  0  0  0
 25 26  1  0  0  0  0
 25 24  2  0  0  0  0
 27 25  1  0  0  0  0
 28 27  2  0  0  0  0
 28 29  1  0  0  0  0
 29 23  2  0  0  0  0
M  END
>  <minimizedAffinity>
-4.82328844

$$$$

 OpenBabel03252506233D

 29 31  0  0  0  0  0  0  0  0999 V2000
   39.5610   32.9080   39.3260 C   0  0  0  0  0  0  0  0  0  0  0  0
   38.6790   33.7420   40.0420 C   0  0  0  0  0  0  0  0  0  0  0  0
   37.5300   33.0620   40.2320 C   0  0  0  0  0  0  0  0  0  0  0  0
   37.6870   31.8510   39.6580 N   0  0  0  0  0  0  0  0  0  0  0  0
   38.9000   31.7660   39.1210 N   0  0  0  0  0  0  0  0  0  0  0  0
   38.9000   34.7500   40.3740 H   0  0  0  0  0  0  0  0  0  0  0  0
   36.6700   33.4850   40.7670 H   0  0  0  0  0  0  0  0  0  0  0  0
   42.5380   33.4120   37.2490 C   0  0  0  0  0  0  0  0  0  0  0  0
   43.4520   33.9580   38.1650 C   0  0  0  0  0  0  0  0  0  0  0  0
   43.0320   34.1440   39.4850 C   0  0  0  0  0  0  0  0  0  0  0  0
   41.7600   33.7840   39.8060 N   0  0  0  0  0  0  0  0  0  0  0  0
   40.9100   33.2650   38.9110 C   0  0  0  0  0  0  0  0  0  0  0  0
   41.2920   33.0780   37.6370 N   0  0  0  0  0  0  0  0  0  0  0  0
   42.8320   33.2550   36.2130 H   0  0  0  0  0  0  0  0  0  0  0  0
   44.4450   34.2290   37.8700 H   0  0  0  0  0  0  0  0  0  0  0  0
   43.6780   34.5580   40.2450 H   0  0  0  0  0  0  0  0  0  0  0  0
   36.6400   30.8620   39.6690 C   0  0  0  0  0  0  0  0  0  0  0  0
   37.0480   29.9440   39.1890 H   0  0  0  0  0  0  0  0  0  0  0  0
   35.7580   31.2000   39.0890 H   0  0  0  0  0  0  0  0  0  0  0  0
   36.2430   30.6170   41.0830 C   0  0  0  0  0  0  0  0  0  0  0  0
   35.1490   30.3420   41.0940 H   0  0  0  0  0  0  0  0  0  0  0  0
   36.3240   31.6000   41.6210 H   0  0  0  0  0  0  0  0  0  0  0  0
   37.0180   29.5660   41.7510 C   0  0  0  0  0  0  0  0  0  0  0  0
   36.4930   28.2950   41.5600 C   0  0  0  0  0  3  0  0  0  0  0  0
   37.1000   27.1810   42.1220 C   0  0  0  0  0  0  0  0  0  0  0  0
   36.7260   26.1590   42.0010 H   0  0  0  0  0  0  0  0  0  0  0  0
   38.2270   27.3390   42.8720 N   0  0  0  0  0  0  0  0  0  0  0  0
   38.7100   28.5840   43.0370 C   0  0  0  0  0  3  0  0  0  0  0  0
   38.1410   29.6620   42.5070 N   0  0  0  0  0  0  0  0  0  0  0  0
  1  2  1  0  0  0  0
  2  3  2  0  0  0  0
  2  6  1  0  0  0  0
  3  7  1  0  0  0  0
  4 17  1  0  0  0  0
  4  3  1  0  0  0  0
  5  1  2  0  0  0  0
  5  4  1  0  0  0  0
  8 13  2  0  0  0  0
  8  9  1  0  0  0  0
  9 10  2  0  0  0  0
 10 11  1  0  0  0  0
 10 16  1  0  0  0  0
 12  1  1  0  0  0  0
 12 11  2  0  0  0  0
 13 12  1  0  0  0  0
 14  8  1  0  0  0  0
 15  9  1  0  0  0  0
 17 20  1  0  0  0  0
 18 17  1  0  0  0  0
 19 17  1  0  0  0  0
 20 21  1  0  0  0  0
 20 22  1  0  0  0  0
 20 23  1  0  0  0  0
 23 29  1  0  0  0  0
 24 23  2  0  0  0  0
 24 25  1  0  0  0  0
 25 27  2  0  0  0  0
 26 25  1  0  0  0  0
 27 28  1  0  0  0  0
 29 28  2  0  0  0  0
M  END
>  <minimizedAffinity>
-4.69790506

$$$$

 OpenBabel03252506233D

 29 31  0  0  0  0  0  0  0  0999 V2000
   37.6100   28.2400   41.7850 C   0  0  0  0  0  0  0  0  0  0  0  0
   36.2490   28.1580   41.4250 C   0  0  0  0  0  0  0  0  0  0  0  0
   35.8670   29.3690   40.9750 C   0  0  0  0  0  0  0  0  0  0  0  0
   36.9440   30.1780   41.0490 N   0  0  0  0  0  0  0  0  0  0  0  0
   37.9790   29.4980   41.5320 N   0  0  0  0  0  0  0  0  0  0  0  0
   35.6330   27.2690   41.5040 H   0  0  0  0  0  0  0  0  0  0  0  0
   34.8470   29.5800   40.6270 H   0  0  0  0  0  0  0  0  0  0  0  0
   38.8600   24.8680   42.4870 C   0  0  0  0  0  0  0  0  0  0  0  0
   39.9390   25.1230   43.3500 C   0  0  0  0  0  0  0  0  0  0  0  0
   40.2200   26.4510   43.6800 C   0  0  0  0  0  0  0  0  0  0  0  0
   39.4310   27.4220   43.1450 N   0  0  0  0  0  0  0  0  0  0  0  0
   38.4080   27.1490   42.3250 C   0  0  0  0  0  0  0  0  0  0  0  0
   38.1200   25.8800   41.9940 N   0  0  0  0  0  0  0  0  0  0  0  0
   38.6130   23.8440   42.2100 H   0  0  0  0  0  0  0  0  0  0  0  0
   40.5350   24.3290   43.7490 H   0  0  0  0  0  0  0  0  0  0  0  0
   41.0330   26.7250   44.3360 H   0  0  0  0  0  0  0  0  0  0  0  0
   36.8880   31.5600   40.6480 C   0  0  0  0  0  0  0  0  0  0  0  0
   37.6700   32.1030   41.2240 H   0  0  0  0  0  0  0  0  0  0  0  0
   35.9020   32.0100   40.8830 H   0  0  0  0  0  0  0  0  0  0  0  0
   37.1320   31.6310   39.1810 C   0  0  0  0  0  0  0  0  0  0  0  0
   36.3650   32.3280   38.7350 H   0  0  0  0  0  0  0  0  0  0  0  0
   36.9100   30.6130   38.7620 H   0  0  0  0  0  0  0  0  0  0  0  0
   38.4780   32.0880   38.8170 C   0  0  0  0  0  0  0  0  0  0  0  0
   38.9840   33.0440   39.6870 C   0  0  0  0  0  3  0  0  0  0  0  0
   40.2450   33.5870   39.4930 C   0  0  0  0  0  0  0  0  0  0  0  0
   40.6900   34.3440   40.1500 H   0  0  0  0  0  0  0  0  0  0  0  0
   40.9970   33.1750   38.4330 N   0  0  0  0  0  0  0  0  0  0  0  0
   40.4770   32.2460   37.6100 C   0  0  0  0  0  3  0  0  0  0  0  0
   39.2700   31.7160   37.7810 N   0  0  0  0  0  0  0  0  0  0  0  0
  1 12  1  0  0  0  0
  2  6  1  0  0  0  0
  2  1  1  0  0  0  0
  3  4  1  0  0  0  0
  3  2  2  0  0  0  0
  4  5  1  0  0  0  0
  5  1  2  0  0  0  0
  7  3  1  0  0  0  0
  8  9  1  0  0  0  0
  9 10  2  0  0  0  0
  9 15  1  0  0  0  0
 10 16  1  0  0  0  0
 11 10  1  0  0  0  0
 12 11  2  0  0  0  0
 13 12  1  0  0  0  0
 13  8  2  0  0  0  0
 14  8  1  0  0  0  0
 17 19  1  0  0  0  0
 17  4  1  0  0  0  0
 17 18  1  0  0  0  0
 20 17  1  0  0  0  0
 21 20  1  0  0  0  0
 22 20  1  0  0  0  0
 23 20  1  0  0  0  0
 23 24  1  0  0  0  0
 25 24  2  0  0  0  0
 25 26  1  0  0  0  0
 27 25  1  0  0  0  0
 28 29  1  0  0  0  0
 28 27  2  0  0  0  0
 29 23  2  0  0  0  0
M  END
>  <minimizedAffinity>
-4.67428875

$$$$

 OpenBabel03252506233D

 29 31  0  0  0  0  0  0  0  0999 V2000
   37.1520   27.3820   41.4820 C   0  0  0  0  0  0  0  0  0  0  0  0
   37.7310   28.0220   42.5970 C   0  0  0  0  0  0  0  0  0  0  0  0
   37.4290   29.3340   42.5250 C   0  0  0  0  0  0  0  0  0  0  0  0
   36.6890   29.5090   41.4090 N   0  0  0  0  0  0  0  0  0  0  0  0
   36.5280   28.3410   40.7940 N   0  0  0  0  0  0  0  0  0  0  0  0
   38.3150   27.5310   43.3680 H   0  0  0  0  0  0  0  0  0  0  0  0
   37.7590   30.0630   43.2750 H   0  0  0  0  0  0  0  0  0  0  0  0
   38.1000   23.8470   41.6690 C   0  0  0  0  0  0  0  0  0  0  0  0
   37.3910   23.2910   40.5910 C   0  0  0  0  0  0  0  0  0  0  0  0
   36.5980   24.1400   39.8150 C   0  0  0  0  0  0  0  0  0  0  0  0
   36.5590   25.4590   40.1480 N   0  0  0  0  0  0  0  0  0  0  0  0
   37.2470   25.9610   41.1820 C   0  0  0  0  0  0  0  0  0  0  0  0
   38.0140   25.1640   41.9420 N   0  0  0  0  0  0  0  0  0  0  0  0
   38.7270   23.2140   42.2950 H   0  0  0  0  0  0  0  0  0  0  0  0
   37.4490   22.2470   40.3640 H   0  0  0  0  0  0  0  0  0  0  0  0
   36.0240   23.7850   38.9710 H   0  0  0  0  0  0  0  0  0  0  0  0
   36.1950   30.8040   41.0180 C   0  0  0  0  0  0  0  0  0  0  0  0
   36.5790   31.5410   41.7580 H   0  0  0  0  0  0  0  0  0  0  0  0
   35.0870   30.8350   41.0320 H   0  0  0  0  0  0  0  0  0  0  0  0
   36.6850   31.0940   39.6430 C   0  0  0  0  0  0  0  0  0  0  0  0
   35.8490   31.5960   39.0750 H   0  0  0  0  0  0  0  0  0  0  0  0
   36.8550   30.1050   39.1390 H   0  0  0  0  0  0  0  0  0  0  0  0
   37.8830   31.9410   39.5980 C   0  0  0  0  0  0  0  0  0  0  0  0
   37.6620   33.2260   40.0750 C   0  0  0  0  0  3  0  0  0  0  0  0
   38.6860   34.1610   40.1040 C   0  0  0  0  0  0  0  0  0  0  0  0
   38.5640   35.1860   40.4700 H   0  0  0  0  0  0  0  0  0  0  0  0
   39.9270   33.8100   39.6580 N   0  0  0  0  0  0  0  0  0  0  0  0
   40.1060   32.5570   39.2040 C   0  0  0  0  0  3  0  0  0  0  0  0
   39.1360   31.6490   39.1680 N   0  0  0  0  0  0  0  0  0  0  0  0
  1  2  1  0  0  0  0
  2  6  1  0  0  0  0
  3  2  2  0  0  0  0
  3  7  1  0  0  0  0
  4  3  1  0  0  0  0
  5  4  1  0  0  0  0
  5  1  2  0  0  0  0
  8 13  1  0  0  0  0
  8 14  1  0  0  0  0
  9  8  2  0  0  0  0
 10 11  2  0  0  0  0
 10  9  1  0  0  0  0
 11 12  1  0  0  0  0
 12  1  1  0  0  0  0
 12 13  2  0  0  0  0
 15  9  1  0  0  0  0
 16 10  1  0  0  0  0
 17 19  1  0  0  0  0
 17  4  1  0  0  0  0
 17 18  1  0  0  0  0
 20 17  1  0  0  0  0
 21 20  1  0  0  0  0
 22 20  1  0  0  0  0
 23 20  1  0  0  0  0
 23 24  1  0  0  0  0
 24 25  2  0  0  0  0
 25 26  1  0  0  0  0
 27 25  1  0  0  0  0
 28 27  2  0  0  0  0
 29 28  1  0  0  0  0
 29 23  2  0  0  0  0
M  END
>  <minimizedAffinity>
-4.6658783

$$$$

 OpenBabel03252506233D

 29 31  0  0  0  0  0  0  0  0999 V2000
   37.5530   26.9030   42.0240 C   0  0  0  0  0  0  0  0  0  0  0  0
   36.8580   27.3180   43.1780 C   0  0  0  0  0  0  0  0  0  0  0  0
   37.3680   28.5040   43.5650 C   0  0  0  0  0  0  0  0  0  0  0  0
   38.3440   28.8200   42.6870 N   0  0  0  0  0  0  0  0  0  0  0  0
   38.4470   27.8620   41.7720 N   0  0  0  0  0  0  0  0  0  0  0  0
   36.0560   26.7680   43.6580 H   0  0  0  0  0  0  0  0  0  0  0  0
   37.0030   29.0510   44.4430 H   0  0  0  0  0  0  0  0  0  0  0  0
   37.5800   23.3630   41.0780 C   0  0  0  0  0  0  0  0  0  0  0  0
   36.8290   23.3650   39.8910 C   0  0  0  0  0  0  0  0  0  0  0  0
   36.3240   24.5840   39.4320 C   0  0  0  0  0  0  0  0  0  0  0  0
   36.5910   25.7010   40.1630 N   0  0  0  0  0  0  0  0  0  0  0  0
   37.3120   25.6690   41.2910 C   0  0  0  0  0  0  0  0  0  0  0  0
   37.8060   24.5080   41.7510 N   0  0  0  0  0  0  0  0  0  0  0  0
   37.9880   22.4300   41.4640 H   0  0  0  0  0  0  0  0  0  0  0  0
   36.6420   22.4630   39.3470 H   0  0  0  0  0  0  0  0  0  0  0  0
   35.7380   24.6650   38.5280 H   0  0  0  0  0  0  0  0  0  0  0  0
   39.1120   30.0330   42.8060 C   0  0  0  0  0  0  0  0  0  0  0  0
   39.9520   29.8250   43.5050 H   0  0  0  0  0  0  0  0  0  0  0  0
   38.5010   30.8590   43.2260 H   0  0  0  0  0  0  0  0  0  0  0  0
   39.5990   30.4120   41.4520 C   0  0  0  0  0  0  0  0  0  0  0  0
   39.4430   29.5290   40.7670 H   0  0  0  0  0  0  0  0  0  0  0  0
   40.7110   30.5520   41.5310 H   0  0  0  0  0  0  0  0  0  0  0  0
   38.9400   31.5940   40.8850 C   0  0  0  0  0  0  0  0  0  0  0  0
   37.8080   31.2850   40.1430 C   0  0  0  0  0  3  0  0  0  0  0  0
   37.0620   32.2830   39.5340 C   0  0  0  0  0  0  0  0  0  0  0  0
   36.1620   32.0910   38.9390 H   0  0  0  0  0  0  0  0  0  0  0  0
   37.4470   33.5840   39.6670 N   0  0  0  0  0  0  0  0  0  0  0  0
   38.5480   33.8480   40.3930 C   0  0  0  0  0  3  0  0  0  0  0  0
   39.2750   32.9050   40.9830 N   0  0  0  0  0  0  0  0  0  0  0  0
  1  2  1  0  0  0  0
  2  3  2  0  0  0  0
  2  6  1  0  0  0  0
  3  7  1  0  0  0  0
  4 17  1  0  0  0  0
  4  3  1  0  0  0  0
  5  1  2  0  0  0  0
  5  4  1  0  0  0  0
  8 14  1  0  0  0  0
  8 13  1  0  0  0  0
  9  8  2  0  0  0  0
 10  9  1  0  0  0  0
 10 11  2  0  0  0  0
 11 12  1  0  0  0  0
 12 13  2  0  0  0  0
 12  1  1  0  0  0  0
 15  9  1  0  0  0  0
 16 10  1  0  0  0  0
 17 19  1  0  0  0  0
 17 18  1  0  0  0  0
 20 22  1  0  0  0  0
 20 17  1  0  0  0  0
 21 20  1  0  0  0  0
 23 29  1  0  0  0  0
 23 20  1  0  0  0  0
 24 23  2  0  0  0  0
 25 27  2  0  0  0  0
 25 24  1  0  0  0  0
 26 25  1  0  0  0  0
 27 28  1  0  0  0  0
 28 29  2  0  0  0  0
M  END
>  <minimizedAffinity>
-4.65086555

$$$$

 OpenBabel03252506233D

 29 31  0  0  0  0  0  0  0  0999 V2000
   39.5070   30.7160   41.6120 C   0  0  0  0  0  0  0  0  0  0  0  0
   40.8760   30.7470   41.9430 C   0  0  0  0  0  0  0  0  0  0  0  0
   41.1670   29.6110   42.6070 C   0  0  0  0  0  0  0  0  0  0  0  0
   40.0250   28.8960   42.6890 N   0  0  0  0  0  0  0  0  0  0  0  0
   39.0400   29.5610   42.0930 N   0  0  0  0  0  0  0  0  0  0  0  0
   41.5620   31.5510   41.6990 H   0  0  0  0  0  0  0  0  0  0  0  0
   42.1730   29.3810   42.9820 H   0  0  0  0  0  0  0  0  0  0  0  0
   37.0830   32.3980   39.4370 C   0  0  0  0  0  0  0  0  0  0  0  0
   37.4530   33.7480   39.5670 C   0  0  0  0  0  0  0  0  0  0  0  0
   38.5300   34.0590   40.3990 C   0  0  0  0  0  0  0  0  0  0  0  0
   39.1620   33.0360   41.0370 N   0  0  0  0  0  0  0  0  0  0  0  0
   38.7880   31.7590   40.8940 C   0  0  0  0  0  0  0  0  0  0  0  0
   37.7540   31.4350   40.0990 N   0  0  0  0  0  0  0  0  0  0  0  0
   36.2480   32.1200   38.7970 H   0  0  0  0  0  0  0  0  0  0  0  0
   36.9280   34.5220   39.0470 H   0  0  0  0  0  0  0  0  0  0  0  0
   38.8720   35.0730   40.5490 H   0  0  0  0  0  0  0  0  0  0  0  0
   39.9730   27.6160   43.3480 C   0  0  0  0  0  0  0  0  0  0  0  0
   40.4290   27.7440   44.3540 H   0  0  0  0  0  0  0  0  0  0  0  0
   40.5540   26.8520   42.7930 H   0  0  0  0  0  0  0  0  0  0  0  0
   38.5480   27.1940   43.4340 C   0  0  0  0  0  0  0  0  0  0  0  0
   37.9070   28.0720   43.1350 H   0  0  0  0  0  0  0  0  0  0  0  0
   38.3280   27.0020   44.5190 H   0  0  0  0  0  0  0  0  0  0  0  0
   38.2140   26.0350   42.5980 C   0  0  0  0  0  0  0  0  0  0  0  0
   39.3200   25.4730   41.9750 C   0  0  0  0  0  3  0  0  0  0  0  0
   39.1860   24.3700   41.1460 C   0  0  0  0  0  0  0  0  0  0  0  0
   40.0270   23.8900   40.6320 H   0  0  0  0  0  0  0  0  0  0  0  0
   37.9500   23.8310   40.9400 N   0  0  0  0  0  0  0  0  0  0  0  0
   36.9000   24.4000   41.5590 C   0  0  0  0  0  3  0  0  0  0  0  0
   37.0100   25.4580   42.3570 N   0  0  0  0  0  0  0  0  0  0  0  0
  1  2  1  0  0  0  0
  1  5  2  0  0  0  0
  2  3  2  0  0  0  0
  3  4  1  0  0  0  0
  3  7  1  0  0  0  0
  4 17  1  0  0  0  0
  5  4  1  0  0  0  0
  6  2  1  0  0  0  0
  8  9  2  0  0  0  0
  8 13  1  0  0  0  0
  9 10  1  0  0  0  0
 10 16  1  0  0  0  0
 10 11  2  0  0  0  0
 12 11  1  0  0  0  0
 12  1  1  0  0  0  0
 13 12  2  0  0  0  0
 14  8  1  0  0  0  0
 15  9  1  0  0  0  0
 17 20  1  0  0  0  0
 17 18  1  0  0  0  0
 19 17  1  0  0  0  0
 20 22  1  0  0  0  0
 21 20  1  0  0  0  0
 23 20  1  0  0  0  0
 24 23  2  0  0  0  0
 25 24  1  0  0  0  0
 26 25  1  0  0  0  0
 27 25  2  0  0  0  0
 27 28  1  0  0  0  0
 28 29  2  0  0  0  0
 29 23  1  0  0  0  0
M  END
>  <minimizedAffinity>
-4.48230886

$$$$

 OpenBabel03252506233D

 29 31  0  0  0  0  0  0  0  0999 V2000
   36.7930   28.2090   40.8300 C   0  0  0  0  0  0  0  0  0  0  0  0
   35.6600   29.0290   40.6530 C   0  0  0  0  0  0  0  0  0  0  0  0
   36.0690   30.3130   40.6930 C   0  0  0  0  0  0  0  0  0  0  0  0
   37.4040   30.2980   40.8860 N   0  0  0  0  0  0  0  0  0  0  0  0
   37.8290   29.0410   40.9660 N   0  0  0  0  0  0  0  0  0  0  0  0
   34.6450   28.6740   40.5130 H   0  0  0  0  0  0  0  0  0  0  0  0
   35.3800   31.1600   40.5790 H   0  0  0  0  0  0  0  0  0  0  0  0
   36.4790   24.7160   39.7650 C   0  0  0  0  0  0  0  0  0  0  0  0
   36.7930   24.0160   40.9420 C   0  0  0  0  0  0  0  0  0  0  0  0
   37.1070   24.7550   42.0850 C   0  0  0  0  0  0  0  0  0  0  0  0
   37.0900   26.1130   41.9930 N   0  0  0  0  0  0  0  0  0  0  0  0
   36.7860   26.7530   40.8570 C   0  0  0  0  0  0  0  0  0  0  0  0
   36.4810   26.0630   39.7460 N   0  0  0  0  0  0  0  0  0  0  0  0
   36.2300   24.1710   38.8570 H   0  0  0  0  0  0  0  0  0  0  0  0
   36.7960   22.9460   40.9720 H   0  0  0  0  0  0  0  0  0  0  0  0
   37.3590   24.2880   43.0260 H   0  0  0  0  0  0  0  0  0  0  0  0
   38.1730   31.5120   40.9840 C   0  0  0  0  0  0  0  0  0  0  0  0
   39.2300   31.2180   41.1710 H   0  0  0  0  0  0  0  0  0  0  0  0
   37.8280   32.1420   41.8280 H   0  0  0  0  0  0  0  0  0  0  0  0
   38.0250   32.2630   39.7070 C   0  0  0  0  0  0  0  0  0  0  0  0
   37.3840   33.1680   39.9100 H   0  0  0  0  0  0  0  0  0  0  0  0
   37.4340   31.6100   39.0100 H   0  0  0  0  0  0  0  0  0  0  0  0
   39.2960   32.6870   39.1090 C   0  0  0  0  0  0  0  0  0  0  0  0
   39.6620   31.9270   38.0060 C   0  0  0  0  0  3  0  0  0  0  0  0
   40.8370   32.1890   37.3180 C   0  0  0  0  0  0  0  0  0  0  0  0
   41.1690   31.6200   36.4430 H   0  0  0  0  0  0  0  0  0  0  0  0
   41.6430   33.2090   37.7310 N   0  0  0  0  0  0  0  0  0  0  0  0
   41.2580   33.9260   38.8030 C   0  0  0  0  0  3  0  0  0  0  0  0
   40.1360   33.6880   39.4750 N   0  0  0  0  0  0  0  0  0  0  0  0
  1 12  1  0  0  0  0
  1  5  2  0  0  0  0
  2  3  2  0  0  0  0
  2  1  1  0  0  0  0
  3  4  1  0  0  0  0
  4  5  1  0  0  0  0
  4 17  1  0  0  0  0
  6  2  1  0  0  0  0
  7  3  1  0  0  0  0
  8  9  1  0  0  0  0
  9 15  1  0  0  0  0
  9 10  2  0  0  0  0
 10 16  1  0  0  0  0
 11 10  1  0  0  0  0
 12 11  2  0  0  0  0
 13  8  2  0  0  0  0
 13 12  1  0  0  0  0
 14  8  1  0  0  0  0
 17 18  1  0  0  0  0
 17 19  1  0  0  0  0
 20 21  1  0  0  0  0
 20 17  1  0  0  0  0
 22 20  1  0  0  0  0
 23 29  1  0  0  0  0
 23 20  1  0  0  0  0
 24 23  2  0  0  0  0
 25 27  2  0  0  0  0
 25 24  1  0  0  0  0
 26 25  1  0  0  0  0
 27 28  1  0  0  0  0
 28 29  2  0  0  0  0
M  END
>  <minimizedAffinity>
-4.43844509

$$$$
