
 OpenBabel03252507193D

 42 45  0  0  1  0  0  0  0  0999 V2000
   44.1530   33.0600   40.8720 C   0  0  0  0  0  0  0  0  0  0  0  0
   44.0730   32.0810   41.6630 O   0  0  0  0  0  0  0  0  0  0  0  0
   43.0180   33.7370   40.2960 N   0  0  0  0  0  0  0  0  0  0  0  0
   42.7470   35.1580   40.1270 C   0  0  0  0  0  0  0  0  0  0  0  0
   42.3670   35.4130   38.6620 C   0  0  0  0  0  0  0  0  0  0  0  0
   41.0810   34.6840   38.3390 C   0  0  0  0  0  0  0  0  0  0  0  0
   40.7680   33.6940   39.4250 C   0  0  0  0  0  0  0  0  0  0  0  0
   41.9750   32.8700   39.7980 C   0  0  2  0  0  0  0  0  0  0  0  0
   41.9970   35.5490   40.8100 H   0  0  0  0  0  0  0  0  0  0  0  0
   43.7600   35.6530   40.2110 H   0  0  0  0  0  0  0  0  0  0  0  0
   43.1510   34.9570   38.0210 H   0  0  0  0  0  0  0  0  0  0  0  0
   42.3100   36.5000   38.4820 H   0  0  0  0  0  0  0  0  0  0  0  0
   41.0960   34.1960   37.3530 H   0  0  0  0  0  0  0  0  0  0  0  0
   40.2830   35.4580   38.3510 H   0  0  0  0  0  0  0  0  0  0  0  0
   40.4100   34.2380   40.3400 H   0  0  0  0  0  0  0  0  0  0  0  0
   39.9880   32.9990   39.0660 H   0  0  0  0  0  0  0  0  0  0  0  0
   42.3500   32.4090   38.8640 H   0  0  0  0  0  0  0  0  0  0  0  0
   45.9820   33.2020   39.2470 C   0  0  0  0  0  0  0  0  0  0  0  0
   45.4720   33.5320   40.5230 C   0  0  0  0  0  0  0  0  0  0  0  0
   46.2430   34.2830   41.3820 C   0  0  0  0  0  0  0  0  0  0  0  0
   47.4670   34.6800   40.9690 N   0  0  0  0  0  0  0  0  0  0  0  0
   47.9680   34.3710   39.7470 C   0  0  0  0  0  0  0  0  0  0  0  0
   47.2120   33.6340   38.9070 N   0  0  0  0  0  0  0  0  0  0  0  0
   45.3480   32.6050   38.5870 H   0  0  0  0  0  0  0  0  0  0  0  0
   48.9480   34.6880   39.4170 H   0  0  0  0  0  0  0  0  0  0  0  0
   45.7110   34.6130   42.6880 C   0  0  0  0  0  0  0  0  0  0  0  0
   45.0290   35.7800   42.8710 C   0  0  0  0  0  0  0  0  0  0  0  0
   44.5290   36.0750   44.1230 C   0  0  0  0  0  0  0  0  0  0  0  0
   44.6880   35.2340   45.2140 C   0  0  0  0  0  0  0  0  0  0  0  0
   45.3930   34.0580   44.9680 C   0  0  0  0  0  0  0  0  0  0  0  0
   45.8650   33.8030   43.7360 N   0  0  0  0  0  0  0  0  0  0  0  0
   44.8320   36.5270   42.1180 H   0  0  0  0  0  0  0  0  0  0  0  0
   43.9800   36.9880   44.3200 H   0  0  0  0  0  0  0  0  0  0  0  0
   44.2950   35.4660   46.1990 H   0  0  0  0  0  0  0  0  0  0  0  0
   45.5670   33.3410   45.7580 H   0  0  0  0  0  0  0  0  0  0  0  0
   41.6040   31.7770   40.7230 C   0  0  0  0  0  0  0  0  0  0  0  0
   41.8480   30.4360   40.5360 C   0  0  0  0  0  0  0  0  0  0  0  0
   41.4870   29.4530   41.4230 C   0  0  0  0  0  0  0  0  0  0  0  0
   41.6910   28.4170   41.2500 H   0  0  0  0  0  0  0  0  0  0  0  0
   40.8510   29.7960   42.5560 N   0  0  0  0  0  0  0  0  0  0  0  0
   40.5940   31.1090   42.7750 C   0  0  0  0  0  0  0  0  0  0  0  0
   40.9570   32.0470   41.8920 N   0  0  0  0  0  0  0  0  0  0  0  0
  1  2  2  0  0  0  0
  3  1  1  0  0  0  0
  4 10  1  0  0  0  0
  4  3  1  0  0  0  0
  4  9  1  0  0  0  0
  5  4  1  0  0  0  0
  6 14  1  0  0  0  0
  6  5  1  0  0  0  0
  6  7  1  0  0  0  0
  7  8  1  0  0  0  0
  7 15  1  0  0  0  0
  8 17  1  6  0  0  0
  8  3  1  0  0  0  0
  8 36  1  0  0  0  0
 11  5  1  0  0  0  0
 12  5  1  0  0  0  0
 13  6  1  0  0  0  0
 16  7  1  0  0  0  0
 18 19  1  0  0  0  0
 19  1  1  0  0  0  0
 19 20  2  0  0  0  0
 20 26  1  0  0  0  0
 21 20  1  0  0  0  0
 22 21  2  0  0  0  0
 23 18  2  0  0  0  0
 23 22  1  0  0  0  0
 24 18  1  0  0  0  0
 25 22  1  0  0  0  0
 26 27  2  0  0  0  0
 26 31  1  0  0  0  0
 27 28  1  0  0  0  0
 28 33  1  0  0  0  0
 28 29  2  0  0  0  0
 29 34  1  0  0  0  0
 30 29  1  0  0  0  0
 30 35  1  0  0  0  0
 31 30  2  0  0  0  0
 32 27  1  0  0  0  0
 36 42  1  0  0  0  0
 37 36  2  0  0  0  0
 37 38  1  0  0  0  0
 38 40  2  0  0  0  0
 39 38  1  0  0  0  0
 40 41  1  0  0  0  0
 42 41  2  0  0  0  0
M  END
>  <minimizedAffinity>
-6.08391142

>  <minimizedRMSD>
6.34335279

$$$$
