
 OpenBabel03252504333D

 38 40  0  0  0  0  0  0  0  0999 V2000
   44.0500   35.3340   41.3300 C   0  0  0  0  0  3  0  0  0  0  0  0
   44.0480   35.6250   42.6280 C   0  0  0  0  0  3  0  0  0  0  0  0
   45.2740   35.5320   43.5250 C   0  0  0  0  0  0  0  0  0  0  0  0
   45.5010   36.5090   43.9960 H   0  0  0  0  0  0  0  0  0  0  0  0
   46.1100   35.2630   42.8620 H   0  0  0  0  0  0  0  0  0  0  0  0
   44.9840   34.5840   44.4900 O   0  0  0  0  0  0  0  0  0  0  0  0
   45.6140   32.4240   43.0720 O   0  0  0  0  0  0  0  0  0  0  0  0
   45.9730   33.2290   44.2990 P   0  0  1  0  0  0  0  0  0  0  0  0
   47.5990   33.7110   44.1230 O   0  0  0  0  0  0  0  0  0  0  0  0
   47.6880   34.4460   43.4650 H   0  0  0  0  0  0  0  0  0  0  0  0
   45.8930   32.2570   45.6750 O   0  0  0  0  0  0  0  0  0  0  0  0
   46.2000   32.9510   46.8300 C   0  0  0  0  0  0  0  0  0  0  0  0
   47.0710   32.3070   47.8590 C   0  0  0  0  0  0  0  0  0  0  0  0
   45.5720   32.4090   48.0930 C   0  0  0  0  0  0  0  0  0  0  0  0
   46.3110   34.0480   46.7300 H   0  0  0  0  0  0  0  0  0  0  0  0
   47.4960   31.3000   47.6470 H   0  0  0  0  0  0  0  0  0  0  0  0
   47.6530   32.9840   48.5150 H   0  0  0  0  0  0  0  0  0  0  0  0
   45.0240   31.4510   48.0580 H   0  0  0  0  0  0  0  0  0  0  0  0
   45.1900   33.1420   48.8340 H   0  0  0  0  0  0  0  0  0  0  0  0
   42.8440   35.4700   40.6660 O   0  0  0  0  0  0  0  0  0  0  0  0
   41.6100   35.6150   41.2020 C   0  0  0  0  0  0  0  0  0  0  0  0
   41.5180   35.7080   42.3090 H   0  0  0  0  0  0  0  0  0  0  0  0
   41.1450   36.5730   40.8260 H   0  0  0  0  0  0  0  0  0  0  0  0
   41.0740   33.2480   41.2700 C   0  0  0  0  0  0  0  0  0  0  0  0
   40.6540   34.5170   40.8560 C   0  0  0  0  0  0  0  0  0  0  0  0
   39.4660   34.6440   40.2290 C   0  0  0  0  0  0  0  0  0  0  0  0
   38.7670   33.5210   40.0500 N   0  0  0  0  0  0  0  0  0  0  0  0
   39.1420   32.3050   40.4340 C   0  0  0  0  0  0  0  0  0  0  0  0
   40.3660   32.1310   41.0860 N   0  0  0  0  0  0  0  0  0  0  0  0
   42.0150   33.0780   41.7770 H   0  0  0  0  0  0  0  0  0  0  0  0
   39.1790   35.6280   39.9250 H   0  0  0  0  0  0  0  0  0  0  0  0
   38.3330   31.1090   40.2120 C   0  0  0  0  0  0  0  0  0  0  0  0
   37.5090   30.7090   41.2460 C   0  0  0  0  0  3  0  0  0  0  0  0
   36.7470   29.5600   41.0030 C   0  0  0  0  0  0  0  0  0  0  0  0
   36.1040   29.2550   41.8200 H   0  0  0  0  0  0  0  0  0  0  0  0
   36.8050   28.8840   39.8430 N   0  0  0  0  0  0  0  0  0  0  0  0
   37.6230   29.3110   38.8650 C   0  0  0  0  0  3  0  0  0  0  0  0
   38.3870   30.4270   39.0540 N   0  0  0  0  0  0  0  0  0  0  0  0
  1  2  2  0  0  0  0
  2  3  1  0  0  0  0
  3  4  1  0  0  0  0
  3  6  1  0  0  0  0
  5  3  1  0  0  0  0
  8  7  2  6  0  0  0
  8  6  1  0  0  0  0
  8 11  1  0  0  0  0
  9  8  1  0  0  0  0
 10  9  1  0  0  0  0
 11 12  1  0  0  0  0
 12 13  1  0  0  0  0
 12 14  1  0  0  0  0
 13 14  1  0  0  0  0
 13 17  1  0  0  0  0
 14 19  1  0  0  0  0
 15 12  1  0  0  0  0
 16 13  1  0  0  0  0
 18 14  1  0  0  0  0
 20 21  1  0  0  0  0
 20  1  1  0  0  0  0
 21 22  1  0  0  0  0
 23 21  1  0  0  0  0
 24 30  1  0  0  0  0
 25 21  1  0  0  0  0
 25 24  2  0  0  0  0
 26 25  1  0  0  0  0
 27 26  2  0  0  0  0
 27 28  1  0  0  0  0
 28 29  2  0  0  0  0
 29 24  1  0  0  0  0
 31 26  1  0  0  0  0
 32 28  1  0  0  0  0
 32 33  1  0  0  0  0
 34 33  2  0  0  0  0
 34 35  1  0  0  0  0
 36 34  1  0  0  0  0
 37 38  1  0  0  0  0
 37 36  2  0  0  0  0
 38 32  2  0  0  0  0
M  END
>  <minimizedAffinity>
-4.98194504

>  <minimizedRMSD>
0.852885127

$$$$
