
 OpenBabel03242513393D

 32 35  0  0  0  0  0  0  0  0999 V2000
   39.8080   30.4660   40.8310 C   0  0  0  0  0  0  0  0  0  0  0  0
   38.4900   30.0900   40.8640 C   0  0  0  0  0  0  0  0  0  0  0  0
   37.5260   31.0580   40.6330 C   0  0  0  0  0  0  0  0  0  0  0  0
   37.8650   32.3660   40.3750 C   0  0  0  0  0  0  0  0  0  0  0  0
   37.2010   33.5200   40.1150 N   0  0  0  0  0  0  0  0  0  0  0  0
   38.0680   34.5360   39.9350 C   0  0  0  0  0  0  0  0  0  0  0  0
   39.2930   34.0100   40.0850 N   0  0  0  0  0  0  0  0  0  0  0  0
   39.2020   32.6860   40.3540 C   0  0  0  0  0  0  0  0  0  0  0  0
   40.1830   31.7700   40.5760 C   0  0  0  0  0  0  0  0  0  0  0  0
   40.5440   29.7030   41.0130 H   0  0  0  0  0  0  0  0  0  0  0  0
   36.4790   30.8150   40.6470 H   0  0  0  0  0  0  0  0  0  0  0  0
   36.1620   33.5750   40.0690 H   0  0  0  0  0  0  0  0  0  0  0  0
   37.8540   35.5750   39.7140 H   0  0  0  0  0  0  0  0  0  0  0  0
   37.0880   27.1160   42.4720 C   0  0  0  0  0  0  0  0  0  0  0  0
   37.4570   26.0920   41.6030 C   0  0  0  0  0  0  0  0  0  0  0  0
   38.1830   26.4450   40.4780 C   0  0  0  0  0  0  0  0  0  0  0  0
   38.4960   27.7470   40.2780 N   0  0  0  0  0  0  0  0  0  0  0  0
   38.1230   28.7080   41.1370 C   0  0  0  0  0  0  0  0  0  0  0  0
   37.4200   28.4070   42.2360 N   0  0  0  0  0  0  0  0  0  0  0  0
   36.5150   26.9800   43.3930 H   0  0  0  0  0  0  0  0  0  0  0  0
   38.4620   25.6490   39.8170 H   0  0  0  0  0  0  0  0  0  0  0  0
   37.0360   24.7060   41.9650 C   0  0  0  0  0  0  0  0  0  0  0  0
   36.1990   24.8500   43.0690 F   0  0  0  0  0  0  0  0  0  0  0  0
   38.1440   23.9820   42.2910 F   0  0  0  0  0  0  0  0  0  0  0  0
   36.3870   24.1700   40.8710 F   0  0  0  0  0  0  0  0  0  0  0  0
   41.5780   32.1940   40.5350 C   0  0  0  0  0  0  0  0  0  0  0  0
   42.3730   32.1670   39.4110 C   0  0  0  0  0  3  0  0  0  0  0  0
   43.6880   32.5850   39.4460 C   0  0  0  0  0  0  0  0  0  0  0  0
   44.2540   32.5400   38.5410 H   0  0  0  0  0  0  0  0  0  0  0  0
   44.2450   33.0360   40.5740 N   0  0  0  0  0  0  0  0  0  0  0  0
   43.4720   33.0650   41.6780 C   0  0  0  0  0  3  0  0  0  0  0  0
   42.1910   32.6570   41.6390 N   0  0  0  0  0  0  0  0  0  0  0  0
  1  2  1  0  0  0  0
  1 10  1  0  0  0  0
  2 18  1  0  0  0  0
  3 11  1  0  0  0  0
  3  2  2  0  0  0  0
  4  3  1  0  0  0  0
  5  4  1  0  0  0  0
  6  7  2  0  0  0  0
  6  5  1  0  0  0  0
  7  8  1  0  0  0  0
  8  4  2  0  0  0  0
  8  9  1  0  0  0  0
  9  1  2  0  0  0  0
 12  5  1  0  0  0  0
 13  6  1  0  0  0  0
 14 20  1  0  0  0  0
 15 22  1  0  0  0  0
 15 14  2  0  0  0  0
 16 15  1  0  0  0  0
 17 16  2  0  0  0  0
 17 18  1  0  0  0  0
 18 19  2  0  0  0  0
 19 14  1  0  0  0  0
 21 16  1  0  0  0  0
 22 24  1  0  0  0  0
 22 23  1  0  0  0  0
 25 22  1  0  0  0  0
 26  9  1  0  0  0  0
 26 32  1  0  0  0  0
 27 28  1  0  0  0  0
 27 26  2  0  0  0  0
 28 30  2  0  0  0  0
 29 28  1  0  0  0  0
 30 31  1  0  0  0  0
 32 31  2  0  0  0  0
M  END
>  <minimizedAffinity>
-5.9613266

$$$$

 OpenBabel03242513393D

 32 35  0  0  0  0  0  0  0  0999 V2000
   39.9800   30.1570   39.8840 C   0  0  0  0  0  0  0  0  0  0  0  0
   38.8310   29.9860   40.6120 C   0  0  0  0  0  0  0  0  0  0  0  0
   38.1230   31.1140   40.9960 C   0  0  0  0  0  0  0  0  0  0  0  0
   38.5490   32.3790   40.6630 C   0  0  0  0  0  0  0  0  0  0  0  0
   38.1140   33.6480   40.8680 N   0  0  0  0  0  0  0  0  0  0  0  0
   38.9520   34.5350   40.2960 C   0  0  0  0  0  0  0  0  0  0  0  0
   39.9270   33.8110   39.7250 N   0  0  0  0  0  0  0  0  0  0  0  0
   39.7070   32.4910   39.9310 C   0  0  0  0  0  0  0  0  0  0  0  0
   40.4350   31.4120   39.5330 C   0  0  0  0  0  0  0  0  0  0  0  0
   40.5170   29.2710   39.5940 H   0  0  0  0  0  0  0  0  0  0  0  0
   37.2170   31.0340   41.5670 H   0  0  0  0  0  0  0  0  0  0  0  0
   37.2460   33.8670   41.4000 H   0  0  0  0  0  0  0  0  0  0  0  0
   38.8840   35.6160   40.2820 H   0  0  0  0  0  0  0  0  0  0  0  0
   37.1270   27.2330   42.3180 C   0  0  0  0  0  0  0  0  0  0  0  0
   37.5450   26.1170   41.5980 C   0  0  0  0  0  0  0  0  0  0  0  0
   38.4080   26.3320   40.5370 C   0  0  0  0  0  0  0  0  0  0  0  0
   38.7990   27.5980   40.2540 N   0  0  0  0  0  0  0  0  0  0  0  0
   38.3750   28.6510   40.9690 C   0  0  0  0  0  0  0  0  0  0  0  0
   37.5390   28.4830   42.0020 N   0  0  0  0  0  0  0  0  0  0  0  0
   36.4480   27.2070   43.1760 H   0  0  0  0  0  0  0  0  0  0  0  0
   38.7250   25.4670   39.9910 H   0  0  0  0  0  0  0  0  0  0  0  0
   37.0250   24.7880   42.0380 C   0  0  0  0  0  0  0  0  0  0  0  0
   38.1530   24.0380   42.3620 F   0  0  0  0  0  0  0  0  0  0  0  0
   36.3480   24.2170   41.0020 F   0  0  0  0  0  0  0  0  0  0  0  0
   36.1990   25.0030   43.1230 F   0  0  0  0  0  0  0  0  0  0  0  0
   41.6540   31.6190   38.7580 C   0  0  0  0  0  0  0  0  0  0  0  0
   41.7830   31.3500   37.4140 C   0  0  0  0  0  3  0  0  0  0  0  0
   42.9690   31.5720   36.7440 C   0  0  0  0  0  0  0  0  0  0  0  0
   43.0090   31.3430   35.7010 H   0  0  0  0  0  0  0  0  0  0  0  0
   44.0430   32.0590   37.3740 N   0  0  0  0  0  0  0  0  0  0  0  0
   43.9230   32.3250   38.6890 C   0  0  0  0  0  3  0  0  0  0  0  0
   42.7650   32.1070   39.3370 N   0  0  0  0  0  0  0  0  0  0  0  0
  1  2  1  0  0  0  0
  2 18  1  0  0  0  0
  2  3  2  0  0  0  0
  3 11  1  0  0  0  0
  4  5  1  0  0  0  0
  4  3  1  0  0  0  0
  5 12  1  0  0  0  0
  6  5  1  0  0  0  0
  7  8  1  0  0  0  0
  7  6  2  0  0  0  0
  8  4  2  0  0  0  0
  9  1  2  0  0  0  0
  9  8  1  0  0  0  0
 10  1  1  0  0  0  0
 13  6  1  0  0  0  0
 14 20  1  0  0  0  0
 15 22  1  0  0  0  0
 15 14  2  0  0  0  0
 16 15  1  0  0  0  0
 17 16  2  0  0  0  0
 17 18  1  0  0  0  0
 18 19  2  0  0  0  0
 19 14  1  0  0  0  0
 21 16  1  0  0  0  0
 22 23  1  0  0  0  0
 22 25  1  0  0  0  0
 24 22  1  0  0  0  0
 26 32  1  0  0  0  0
 26  9  1  0  0  0  0
 27 26  2  0  0  0  0
 28 30  2  0  0  0  0
 28 27  1  0  0  0  0
 29 28  1  0  0  0  0
 30 31  1  0  0  0  0
 31 32  2  0  0  0  0
M  END
>  <minimizedAffinity>
-5.80894852

$$$$

 OpenBabel03242513393D

 32 35  0  0  0  0  0  0  0  0999 V2000
   35.8880   27.3090   39.1910 C   0  0  0  0  0  0  0  0  0  0  0  0
   35.2570   28.5240   39.1100 C   0  0  0  0  0  0  0  0  0  0  0  0
   35.4690   29.4430   40.1250 C   0  0  0  0  0  0  0  0  0  0  0  0
   36.2890   29.1600   41.1930 C   0  0  0  0  0  0  0  0  0  0  0  0
   36.7000   29.8040   42.3140 N   0  0  0  0  0  0  0  0  0  0  0  0
   37.5320   29.0240   43.0320 C   0  0  0  0  0  0  0  0  0  0  0  0
   37.6440   27.8740   42.3500 N   0  0  0  0  0  0  0  0  0  0  0  0
   36.8960   27.9270   41.2220 C   0  0  0  0  0  0  0  0  0  0  0  0
   36.7170   26.9930   40.2490 C   0  0  0  0  0  0  0  0  0  0  0  0
   35.7130   26.6080   38.3950 H   0  0  0  0  0  0  0  0  0  0  0  0
   34.9980   30.4090   40.1090 H   0  0  0  0  0  0  0  0  0  0  0  0
   36.3930   30.7700   42.5550 H   0  0  0  0  0  0  0  0  0  0  0  0
   38.0260   29.2480   43.9700 H   0  0  0  0  0  0  0  0  0  0  0  0
   32.2980   29.3690   37.1290 C   0  0  0  0  0  0  0  0  0  0  0  0
   32.7950   29.4030   35.8290 C   0  0  0  0  0  0  0  0  0  0  0  0
   34.1420   29.1340   35.6580 C   0  0  0  0  0  0  0  0  0  0  0  0
   34.9010   28.8540   36.7440 N   0  0  0  0  0  0  0  0  0  0  0  0
   34.3880   28.8310   37.9830 C   0  0  0  0  0  0  0  0  0  0  0  0
   33.0890   29.0860   38.1900 N   0  0  0  0  0  0  0  0  0  0  0  0
   31.2580   29.5630   37.4080 H   0  0  0  0  0  0  0  0  0  0  0  0
   34.5150   29.1620   34.6530 H   0  0  0  0  0  0  0  0  0  0  0  0
   31.8290   29.7270   34.7380 C   0  0  0  0  0  0  0  0  0  0  0  0
   31.8030   28.6000   33.9210 F   0  0  0  0  0  0  0  0  0  0  0  0
   32.2900   30.8100   34.0510 F   0  0  0  0  0  0  0  0  0  0  0  0
   30.6080   29.9860   35.3280 F   0  0  0  0  0  0  0  0  0  0  0  0
   37.4000   25.7090   40.3570 C   0  0  0  0  0  0  0  0  0  0  0  0
   36.8690   24.5870   40.9520 C   0  0  0  0  0  3  0  0  0  0  0  0
   37.5740   23.4020   41.0180 C   0  0  0  0  0  0  0  0  0  0  0  0
   37.1090   22.5660   41.4940 H   0  0  0  0  0  0  0  0  0  0  0  0
   38.8030   23.2950   40.5040 N   0  0  0  0  0  0  0  0  0  0  0  0
   39.3290   24.3890   39.9200 C   0  0  0  0  0  3  0  0  0  0  0  0
   38.6380   25.5410   39.8580 N   0  0  0  0  0  0  0  0  0  0  0  0
  1  9  1  0  0  0  0
  2  1  2  0  0  0  0
  2  3  1  0  0  0  0
  3  4  2  0  0  0  0
  4  8  1  0  0  0  0
  4  5  1  0  0  0  0
  5 12  1  0  0  0  0
  5  6  1  0  0  0  0
  6 13  1  0  0  0  0
  7  6  2  0  0  0  0
  8  7  1  0  0  0  0
  9 26  1  0  0  0  0
  9  8  2  0  0  0  0
 10  1  1  0  0  0  0
 11  3  1  0  0  0  0
 14 20  1  0  0  0  0
 14 19  1  0  0  0  0
 15 14  2  0  0  0  0
 16 15  1  0  0  0  0
 16 17  2  0  0  0  0
 17 18  1  0  0  0  0
 18 19  2  0  0  0  0
 18  2  1  0  0  0  0
 21 16  1  0  0  0  0
 22 25  1  0  0  0  0
 22 15  1  0  0  0  0
 23 22  1  0  0  0  0
 24 22  1  0  0  0  0
 26 27  1  0  0  0  0
 27 28  2  0  0  0  0
 28 29  1  0  0  0  0
 30 28  1  0  0  0  0
 31 30  2  0  0  0  0
 32 31  1  0  0  0  0
 32 26  2  0  0  0  0
M  END
>  <minimizedAffinity>
-5.62852573

$$$$

 OpenBabel03242513393D

 32 35  0  0  0  0  0  0  0  0999 V2000
   36.7100   30.3700   39.3430 C   0  0  0  0  0  0  0  0  0  0  0  0
   35.7680   29.3730   39.3380 C   0  0  0  0  0  0  0  0  0  0  0  0
   35.6650   28.5620   40.4560 C   0  0  0  0  0  0  0  0  0  0  0  0
   36.4770   28.7390   41.5520 C   0  0  0  0  0  0  0  0  0  0  0  0
   36.6360   28.1490   42.7640 N   0  0  0  0  0  0  0  0  0  0  0  0
   37.6160   28.7550   43.4620 C   0  0  0  0  0  0  0  0  0  0  0  0
   38.0790   29.7390   42.6760 N   0  0  0  0  0  0  0  0  0  0  0  0
   37.4030   29.7550   41.5040 C   0  0  0  0  0  0  0  0  0  0  0  0
   37.5410   30.5750   40.4270 C   0  0  0  0  0  0  0  0  0  0  0  0
   36.7770   30.9900   38.4680 H   0  0  0  0  0  0  0  0  0  0  0  0
   34.9440   27.7660   40.5020 H   0  0  0  0  0  0  0  0  0  0  0  0
   36.0590   27.3400   43.0770 H   0  0  0  0  0  0  0  0  0  0  0  0
   37.9820   28.5210   44.4550 H   0  0  0  0  0  0  0  0  0  0  0  0
   32.8000   28.8540   37.2610 C   0  0  0  0  0  0  0  0  0  0  0  0
   33.3260   28.8160   35.9730 C   0  0  0  0  0  0  0  0  0  0  0  0
   34.6960   28.9700   35.8420 C   0  0  0  0  0  0  0  0  0  0  0  0
   35.4480   29.1470   36.9550 N   0  0  0  0  0  0  0  0  0  0  0  0
   34.9060   29.1790   38.1820 C   0  0  0  0  0  0  0  0  0  0  0  0
   33.5840   29.0340   38.3490 N   0  0  0  0  0  0  0  0  0  0  0  0
   31.7390   28.7470   37.5080 H   0  0  0  0  0  0  0  0  0  0  0  0
   35.0910   28.9390   34.8470 H   0  0  0  0  0  0  0  0  0  0  0  0
   32.3650   28.6120   34.8490 C   0  0  0  0  0  0  0  0  0  0  0  0
   31.2240   28.0690   35.4320 F   0  0  0  0  0  0  0  0  0  0  0  0
   32.9120   27.7400   33.9560 F   0  0  0  0  0  0  0  0  0  0  0  0
   32.1330   29.8450   34.2720 F   0  0  0  0  0  0  0  0  0  0  0  0
   38.5490   31.6290   40.4570 C   0  0  0  0  0  0  0  0  0  0  0  0
   38.2740   32.9730   40.5820 C   0  0  0  0  0  3  0  0  0  0  0  0
   39.2810   33.9170   40.6030 C   0  0  0  0  0  0  0  0  0  0  0  0
   39.0050   34.9440   40.7020 H   0  0  0  0  0  0  0  0  0  0  0  0
   40.5670   33.5640   40.5050 N   0  0  0  0  0  0  0  0  0  0  0  0
   40.8420   32.2510   40.3830 C   0  0  0  0  0  3  0  0  0  0  0  0
   39.8570   31.3350   40.3620 N   0  0  0  0  0  0  0  0  0  0  0  0
  1  9  1  0  0  0  0
  2  1  2  0  0  0  0
  2  3  1  0  0  0  0
  3 11  1  0  0  0  0
  3  4  2  0  0  0  0
  4  5  1  0  0  0  0
  5 12  1  0  0  0  0
  5  6  1  0  0  0  0
  6 13  1  0  0  0  0
  7  6  2  0  0  0  0
  8  4  1  0  0  0  0
  8  7  1  0  0  0  0
  9 26  1  0  0  0  0
  9  8  2  0  0  0  0
 10  1  1  0  0  0  0
 14 20  1  0  0  0  0
 14 19  1  0  0  0  0
 15 14  2  0  0  0  0
 16 15  1  0  0  0  0
 16 17  2  0  0  0  0
 17 18  1  0  0  0  0
 18 19  2  0  0  0  0
 18  2  1  0  0  0  0
 21 16  1  0  0  0  0
 22 23  1  0  0  0  0
 22 15  1  0  0  0  0
 24 22  1  0  0  0  0
 25 22  1  0  0  0  0
 26 27  1  0  0  0  0
 27 28  2  0  0  0  0
 28 29  1  0  0  0  0
 30 28  1  0  0  0  0
 31 30  2  0  0  0  0
 32 31  1  0  0  0  0
 32 26  2  0  0  0  0
M  END
>  <minimizedAffinity>
-5.56583023

$$$$

 OpenBabel03242513393D

 32 35  0  0  0  0  0  0  0  0999 V2000
   33.3370   29.2790   38.2330 C   0  0  0  0  0  0  0  0  0  0  0  0
   34.4890   28.5370   38.2820 C   0  0  0  0  0  0  0  0  0  0  0  0
   34.7790   27.7020   37.2150 C   0  0  0  0  0  0  0  0  0  0  0  0
   33.9440   27.6100   36.1250 C   0  0  0  0  0  0  0  0  0  0  0  0
   33.9260   26.9220   34.9560 N   0  0  0  0  0  0  0  0  0  0  0  0
   32.8270   27.2310   34.2400 C   0  0  0  0  0  0  0  0  0  0  0  0
   32.1460   28.1260   34.9720 N   0  0  0  0  0  0  0  0  0  0  0  0
   32.8030   28.3780   36.1280 C   0  0  0  0  0  0  0  0  0  0  0  0
   32.4770   29.2110   37.1540 C   0  0  0  0  0  0  0  0  0  0  0  0
   33.1270   29.9210   39.0690 H   0  0  0  0  0  0  0  0  0  0  0  0
   35.6680   27.0990   37.2050 H   0  0  0  0  0  0  0  0  0  0  0  0
   34.6770   26.2540   34.6840 H   0  0  0  0  0  0  0  0  0  0  0  0
   32.5250   26.8530   33.2710 H   0  0  0  0  0  0  0  0  0  0  0  0
   36.9470   27.6810   40.8550 C   0  0  0  0  0  0  0  0  0  0  0  0
   37.0320   28.8520   41.6030 C   0  0  0  0  0  0  0  0  0  0  0  0
   36.2400   29.9170   41.2080 C   0  0  0  0  0  0  0  0  0  0  0  0
   35.4320   29.7720   40.1300 N   0  0  0  0  0  0  0  0  0  0  0  0
   35.3770   28.6280   39.4320 C   0  0  0  0  0  0  0  0  0  0  0  0
   36.1280   27.5760   39.7830 N   0  0  0  0  0  0  0  0  0  0  0  0
   37.5150   26.7680   41.0540 H   0  0  0  0  0  0  0  0  0  0  0  0
   36.3120   30.8130   41.7910 H   0  0  0  0  0  0  0  0  0  0  0  0
   37.9700   28.8530   42.7650 C   0  0  0  0  0  0  0  0  0  0  0  0
   37.1960   28.4990   43.8660 F   0  0  0  0  0  0  0  0  0  0  0  0
   38.4790   30.1080   42.9170 F   0  0  0  0  0  0  0  0  0  0  0  0
   38.9650   27.9350   42.4960 F   0  0  0  0  0  0  0  0  0  0  0  0
   31.2470   29.9910   37.0780 C   0  0  0  0  0  0  0  0  0  0  0  0
   30.0900   29.6990   37.7650 C   0  0  0  0  0  3  0  0  0  0  0  0
   28.9610   30.4840   37.6440 C   0  0  0  0  0  0  0  0  0  0  0  0
   28.0940   30.2060   38.2020 H   0  0  0  0  0  0  0  0  0  0  0  0
   28.9450   31.5620   36.8540 N   0  0  0  0  0  0  0  0  0  0  0  0
   30.0740   31.8540   36.1790 C   0  0  0  0  0  3  0  0  0  0  0  0
   31.1720   31.0850   36.3000 N   0  0  0  0  0  0  0  0  0  0  0  0
  1  2  1  0  0  0  0
  1 10  1  0  0  0  0
  2 18  1  0  0  0  0
  3  2  2  0  0  0  0
  4  8  2  0  0  0  0
  4  3  1  0  0  0  0
  5  4  1  0  0  0  0
  6  5  1  0  0  0  0
  6  7  2  0  0  0  0
  7  8  1  0  0  0  0
  8  9  1  0  0  0  0
  9  1  2  0  0  0  0
 11  3  1  0  0  0  0
 12  5  1  0  0  0  0
 13  6  1  0  0  0  0
 14 20  1  0  0  0  0
 14 15  1  0  0  0  0
 15 22  1  0  0  0  0
 16 15  2  0  0  0  0
 16 21  1  0  0  0  0
 17 16  1  0  0  0  0
 18 19  1  0  0  0  0
 18 17  2  0  0  0  0
 19 14  2  0  0  0  0
 22 24  1  0  0  0  0
 22 23  1  0  0  0  0
 25 22  1  0  0  0  0
 26  9  1  0  0  0  0
 26 27  1  0  0  0  0
 28 27  2  0  0  0  0
 28 29  1  0  0  0  0
 30 28  1  0  0  0  0
 31 32  1  0  0  0  0
 31 30  2  0  0  0  0
 32 26  2  0  0  0  0
M  END
>  <minimizedAffinity>
-5.2868042

$$$$

 OpenBabel03242513393D

 32 35  0  0  0  0  0  0  0  0999 V2000
   37.0760   27.5060   38.9540 C   0  0  0  0  0  0  0  0  0  0  0  0
   36.8560   28.8500   38.7950 C   0  0  0  0  0  0  0  0  0  0  0  0
   36.7710   29.6390   39.9300 C   0  0  0  0  0  0  0  0  0  0  0  0
   36.9020   29.1050   41.1910 C   0  0  0  0  0  0  0  0  0  0  0  0
   36.8730   29.5720   42.4640 N   0  0  0  0  0  0  0  0  0  0  0  0
   37.0660   28.5690   43.3430 C   0  0  0  0  0  0  0  0  0  0  0  0
   37.2160   27.4560   42.6090 N   0  0  0  0  0  0  0  0  0  0  0  0
   37.1220   27.7520   41.2910 C   0  0  0  0  0  0  0  0  0  0  0  0
   37.2120   26.9370   40.2040 C   0  0  0  0  0  0  0  0  0  0  0  0
   37.1400   26.9070   38.0630 H   0  0  0  0  0  0  0  0  0  0  0  0
   36.5990   30.6980   39.8600 H   0  0  0  0  0  0  0  0  0  0  0  0
   36.7210   30.5770   42.6930 H   0  0  0  0  0  0  0  0  0  0  0  0
   37.0970   28.6160   44.4250 H   0  0  0  0  0  0  0  0  0  0  0  0
   37.1600   31.1070   35.9300 C   0  0  0  0  0  0  0  0  0  0  0  0
   36.4200   30.4570   34.9450 C   0  0  0  0  0  0  0  0  0  0  0  0
   35.8290   29.2520   35.2860 C   0  0  0  0  0  0  0  0  0  0  0  0
   35.9950   28.7700   36.5400 N   0  0  0  0  0  0  0  0  0  0  0  0
   36.7150   29.4230   37.4640 C   0  0  0  0  0  0  0  0  0  0  0  0
   37.3030   30.5910   37.1730 N   0  0  0  0  0  0  0  0  0  0  0  0
   37.6790   32.0610   35.7970 H   0  0  0  0  0  0  0  0  0  0  0  0
   35.2620   28.7610   34.5210 H   0  0  0  0  0  0  0  0  0  0  0  0
   36.3320   31.1200   33.6100 C   0  0  0  0  0  0  0  0  0  0  0  0
   37.2460   32.1690   33.6560 F   0  0  0  0  0  0  0  0  0  0  0  0
   35.0650   31.5930   33.4380 F   0  0  0  0  0  0  0  0  0  0  0  0
   36.6510   30.1760   32.6550 F   0  0  0  0  0  0  0  0  0  0  0  0
   37.4480   25.5110   40.3990 C   0  0  0  0  0  0  0  0  0  0  0  0
   38.6630   24.9560   40.7340 C   0  0  0  0  0  3  0  0  0  0  0  0
   38.8130   23.5940   40.9030 C   0  0  0  0  0  0  0  0  0  0  0  0
   39.7800   23.2230   41.1620 H   0  0  0  0  0  0  0  0  0  0  0  0
   37.7820   22.7570   40.7490 N   0  0  0  0  0  0  0  0  0  0  0  0
   36.5900   23.2930   40.4220 C   0  0  0  0  0  3  0  0  0  0  0  0
   36.4500   24.6210   40.2580 N   0  0  0  0  0  0  0  0  0  0  0  0
  1  9  1  0  0  0  0
  2  1  2  0  0  0  0
  2  3  1  0  0  0  0
  3  4  2  0  0  0  0
  4  8  1  0  0  0  0
  4  5  1  0  0  0  0
  5 12  1  0  0  0  0
  5  6  1  0  0  0  0
  6 13  1  0  0  0  0
  7  6  2  0  0  0  0
  8  7  1  0  0  0  0
  9 26  1  0  0  0  0
  9  8  2  0  0  0  0
 10  1  1  0  0  0  0
 11  3  1  0  0  0  0
 14 19  1  0  0  0  0
 15 16  1  0  0  0  0
 15 14  2  0  0  0  0
 16 17  2  0  0  0  0
 17 18  1  0  0  0  0
 18  2  1  0  0  0  0
 19 18  2  0  0  0  0
 20 14  1  0  0  0  0
 21 16  1  0  0  0  0
 22 23  1  0  0  0  0
 22 15  1  0  0  0  0
 24 22  1  0  0  0  0
 25 22  1  0  0  0  0
 26 27  1  0  0  0  0
 27 28  2  0  0  0  0
 28 29  1  0  0  0  0
 30 28  1  0  0  0  0
 31 30  2  0  0  0  0
 32 26  2  0  0  0  0
 32 31  1  0  0  0  0
M  END
>  <minimizedAffinity>
-5.23313522

$$$$

 OpenBabel03242513393D

 32 35  0  0  0  0  0  0  0  0999 V2000
   39.1150   28.5610   40.2770 C   0  0  0  0  0  0  0  0  0  0  0  0
   39.3400   29.7380   40.9430 C   0  0  0  0  0  0  0  0  0  0  0  0
   38.7180   29.9300   42.1660 C   0  0  0  0  0  0  0  0  0  0  0  0
   37.8940   28.9730   42.7130 C   0  0  0  0  0  0  0  0  0  0  0  0
   37.1580   28.8400   43.8450 N   0  0  0  0  0  0  0  0  0  0  0  0
   36.5240   27.6510   43.8630 C   0  0  0  0  0  0  0  0  0  0  0  0
   36.8690   27.0290   42.7240 N   0  0  0  0  0  0  0  0  0  0  0  0
   37.7050   27.8110   42.0020 C   0  0  0  0  0  0  0  0  0  0  0  0
   38.2940   27.5800   40.7970 C   0  0  0  0  0  0  0  0  0  0  0  0
   39.6040   28.4290   39.3290 H   0  0  0  0  0  0  0  0  0  0  0  0
   38.8610   30.8340   42.7280 H   0  0  0  0  0  0  0  0  0  0  0  0
   37.1120   29.5790   44.5780 H   0  0  0  0  0  0  0  0  0  0  0  0
   35.8650   27.2480   44.6220 H   0  0  0  0  0  0  0  0  0  0  0  0
   41.5290   31.5440   38.6320 C   0  0  0  0  0  0  0  0  0  0  0  0
   41.8390   32.7020   39.3400 C   0  0  0  0  0  0  0  0  0  0  0  0
   41.2870   32.8410   40.6020 C   0  0  0  0  0  0  0  0  0  0  0  0
   40.4860   31.8590   41.0820 N   0  0  0  0  0  0  0  0  0  0  0  0
   40.2090   30.7560   40.3710 C   0  0  0  0  0  0  0  0  0  0  0  0
   40.7230   30.5860   39.1460 N   0  0  0  0  0  0  0  0  0  0  0  0
   41.8940   31.3070   37.6280 H   0  0  0  0  0  0  0  0  0  0  0  0
   41.5320   33.7350   41.1390 H   0  0  0  0  0  0  0  0  0  0  0  0
   42.7380   33.6890   38.6730 C   0  0  0  0  0  0  0  0  0  0  0  0
   41.8970   34.5190   37.9370 F   0  0  0  0  0  0  0  0  0  0  0  0
   43.5930   33.0180   37.8510 F   0  0  0  0  0  0  0  0  0  0  0  0
   43.4190   34.3660   39.6650 F   0  0  0  0  0  0  0  0  0  0  0  0
   38.0400   26.3200   40.1080 C   0  0  0  0  0  0  0  0  0  0  0  0
   36.9870   26.0940   39.2500 C   0  0  0  0  0  3  0  0  0  0  0  0
   36.8080   24.8730   38.6320 C   0  0  0  0  0  0  0  0  0  0  0  0
   35.9720   24.7580   37.9780 H   0  0  0  0  0  0  0  0  0  0  0  0
   37.6530   23.8580   38.8390 N   0  0  0  0  0  0  0  0  0  0  0  0
   38.6870   24.0730   39.6770 C   0  0  0  0  0  3  0  0  0  0  0  0
   38.8560   25.2640   40.2780 N   0  0  0  0  0  0  0  0  0  0  0  0
  1  9  2  0  0  0  0
  1  2  1  0  0  0  0
  2  3  2  0  0  0  0
  3  4  1  0  0  0  0
  3 11  1  0  0  0  0
  4  5  1  0  0  0  0
  5  6  1  0  0  0  0
  5 12  1  0  0  0  0
  6 13  1  0  0  0  0
  7  6  2  0  0  0  0
  8  4  2  0  0  0  0
  8  7  1  0  0  0  0
  9  8  1  0  0  0  0
 10  1  1  0  0  0  0
 14 19  2  0  0  0  0
 14 15  1  0  0  0  0
 15 16  2  0  0  0  0
 16 17  1  0  0  0  0
 16 21  1  0  0  0  0
 18  2  1  0  0  0  0
 18 17  2  0  0  0  0
 19 18  1  0  0  0  0
 20 14  1  0  0  0  0
 22 15  1  0  0  0  0
 22 25  1  0  0  0  0
 23 22  1  0  0  0  0
 24 22  1  0  0  0  0
 26 32  1  0  0  0  0
 26  9  1  0  0  0  0
 27 26  2  0  0  0  0
 28 30  2  0  0  0  0
 28 27  1  0  0  0  0
 29 28  1  0  0  0  0
 30 31  1  0  0  0  0
 31 32  2  0  0  0  0
M  END
>  <minimizedAffinity>
-5.22300529

$$$$

 OpenBabel03242513393D

 32 35  0  0  0  0  0  0  0  0999 V2000
   36.8540   27.4940   38.9330 C   0  0  0  0  0  0  0  0  0  0  0  0
   36.3700   27.1870   37.6880 C   0  0  0  0  0  0  0  0  0  0  0  0
   35.8980   25.9030   37.4650 C   0  0  0  0  0  0  0  0  0  0  0  0
   35.9080   24.9500   38.4570 C   0  0  0  0  0  0  0  0  0  0  0  0
   35.5370   23.6510   38.5750 N   0  0  0  0  0  0  0  0  0  0  0  0
   35.7820   23.1980   39.8210 C   0  0  0  0  0  0  0  0  0  0  0  0
   36.3160   24.2300   40.4930 N   0  0  0  0  0  0  0  0  0  0  0  0
   36.4050   25.3140   39.6870 C   0  0  0  0  0  0  0  0  0  0  0  0
   36.8790   26.5620   39.9510 C   0  0  0  0  0  0  0  0  0  0  0  0
   37.2170   28.4950   39.0880 H   0  0  0  0  0  0  0  0  0  0  0  0
   35.5080   25.6110   36.5070 H   0  0  0  0  0  0  0  0  0  0  0  0
   35.1220   23.1090   37.7880 H   0  0  0  0  0  0  0  0  0  0  0  0
   35.6000   22.2110   40.2290 H   0  0  0  0  0  0  0  0  0  0  0  0
   35.8640   28.8290   34.4560 C   0  0  0  0  0  0  0  0  0  0  0  0
   36.3540   30.1130   34.6810 C   0  0  0  0  0  0  0  0  0  0  0  0
   36.8500   30.3900   35.9440 C   0  0  0  0  0  0  0  0  0  0  0  0
   36.8370   29.4160   36.8850 N   0  0  0  0  0  0  0  0  0  0  0  0
   36.3560   28.1890   36.6320 C   0  0  0  0  0  0  0  0  0  0  0  0
   35.8670   27.8820   35.4240 N   0  0  0  0  0  0  0  0  0  0  0  0
   35.4430   28.4760   33.5100 H   0  0  0  0  0  0  0  0  0  0  0  0
   37.2250   31.3800   36.1060 H   0  0  0  0  0  0  0  0  0  0  0  0
   36.2990   31.0740   33.5400 C   0  0  0  0  0  0  0  0  0  0  0  0
   34.9710   31.4830   33.4640 F   0  0  0  0  0  0  0  0  0  0  0  0
   36.6680   30.4230   32.4010 F   0  0  0  0  0  0  0  0  0  0  0  0
   37.1620   32.1120   33.8300 F   0  0  0  0  0  0  0  0  0  0  0  0
   37.3880   26.8650   41.2830 C   0  0  0  0  0  0  0  0  0  0  0  0
   38.6800   26.6320   41.7000 C   0  0  0  0  0  3  0  0  0  0  0  0
   39.0940   26.9450   42.9790 C   0  0  0  0  0  0  0  0  0  0  0  0
   40.1080   26.7410   43.2440 H   0  0  0  0  0  0  0  0  0  0  0  0
   38.2560   27.4890   43.8670 N   0  0  0  0  0  0  0  0  0  0  0  0
   36.9910   27.7200   43.4660 C   0  0  0  0  0  3  0  0  0  0  0  0
   36.5930   27.4130   42.2180 N   0  0  0  0  0  0  0  0  0  0  0  0
  1 10  1  0  0  0  0
  1  9  1  0  0  0  0
  2  1  2  0  0  0  0
  3  2  1  0  0  0  0
  3  4  2  0  0  0  0
  4  5  1  0  0  0  0
  4  8  1  0  0  0  0
  5  6  1  0  0  0  0
  6 13  1  0  0  0  0
  6  7  2  0  0  0  0
  8  9  2  0  0  0  0
  8  7  1  0  0  0  0
  9 26  1  0  0  0  0
 11  3  1  0  0  0  0
 12  5  1  0  0  0  0
 14 15  2  0  0  0  0
 14 19  1  0  0  0  0
 15 16  1  0  0  0  0
 16 21  1  0  0  0  0
 16 17  2  0  0  0  0
 18 17  1  0  0  0  0
 18  2  1  0  0  0  0
 19 18  2  0  0  0  0
 20 14  1  0  0  0  0
 22 25  1  0  0  0  0
 22 15  1  0  0  0  0
 23 22  1  0  0  0  0
 24 22  1  0  0  0  0
 26 27  2  0  0  0  0
 26 32  1  0  0  0  0
 27 28  1  0  0  0  0
 28 29  1  0  0  0  0
 28 30  2  0  0  0  0
 31 30  1  0  0  0  0
 32 31  2  0  0  0  0
M  END
>  <minimizedAffinity>
-5.19130468

$$$$

 OpenBabel03242513393D

 32 35  0  0  0  0  0  0  0  0999 V2000
   34.4490   28.6050   37.5550 C   0  0  0  0  0  0  0  0  0  0  0  0
   35.7580   28.6650   37.9580 C   0  0  0  0  0  0  0  0  0  0  0  0
   36.7050   29.1110   37.0500 C   0  0  0  0  0  0  0  0  0  0  0  0
   36.3580   29.4890   35.7740 C   0  0  0  0  0  0  0  0  0  0  0  0
   37.0050   29.9550   34.6760 N   0  0  0  0  0  0  0  0  0  0  0  0
   36.1370   30.1670   33.6670 C   0  0  0  0  0  0  0  0  0  0  0  0
   34.9270   29.8270   34.1400 N   0  0  0  0  0  0  0  0  0  0  0  0
   35.0300   29.4100   35.4240 C   0  0  0  0  0  0  0  0  0  0  0  0
   34.0660   28.9780   36.2820 C   0  0  0  0  0  0  0  0  0  0  0  0
   33.7270   28.2570   38.2710 H   0  0  0  0  0  0  0  0  0  0  0  0
   37.7450   29.1750   37.3160 H   0  0  0  0  0  0  0  0  0  0  0  0
   38.0340   30.1150   34.6540 H   0  0  0  0  0  0  0  0  0  0  0  0
   36.3390   30.5330   32.6680 H   0  0  0  0  0  0  0  0  0  0  0  0
   36.1320   28.6290   41.5980 C   0  0  0  0  0  0  0  0  0  0  0  0
   36.8670   27.4680   41.8220 C   0  0  0  0  0  0  0  0  0  0  0  0
   37.2220   26.7170   40.7140 C   0  0  0  0  0  0  0  0  0  0  0  0
   36.8440   27.1410   39.4840 N   0  0  0  0  0  0  0  0  0  0  0  0
   36.1350   28.2650   39.3060 C   0  0  0  0  0  0  0  0  0  0  0  0
   35.7720   29.0180   40.3530 N   0  0  0  0  0  0  0  0  0  0  0  0
   35.7860   29.3130   42.3800 H   0  0  0  0  0  0  0  0  0  0  0  0
   37.7880   25.8270   40.8980 H   0  0  0  0  0  0  0  0  0  0  0  0
   37.2070   27.1390   43.2390 C   0  0  0  0  0  0  0  0  0  0  0  0
   38.1640   26.1310   43.1650 F   0  0  0  0  0  0  0  0  0  0  0  0
   36.0830   26.6910   43.8670 F   0  0  0  0  0  0  0  0  0  0  0  0
   37.6900   28.2900   43.8280 F   0  0  0  0  0  0  0  0  0  0  0  0
   32.6800   28.9250   35.8300 C   0  0  0  0  0  0  0  0  0  0  0  0
   31.8680   30.0240   35.6620 C   0  0  0  0  0  3  0  0  0  0  0  0
   30.5630   29.8990   35.2300 C   0  0  0  0  0  0  0  0  0  0  0  0
   29.9820   30.7880   35.1200 H   0  0  0  0  0  0  0  0  0  0  0  0
   30.0340   28.7030   34.9540 N   0  0  0  0  0  0  0  0  0  0  0  0
   30.8230   27.6230   35.1160 C   0  0  0  0  0  3  0  0  0  0  0  0
   32.0940   27.7500   35.5370 N   0  0  0  0  0  0  0  0  0  0  0  0
  1  2  1  0  0  0  0
  1 10  1  0  0  0  0
  2 18  1  0  0  0  0
  3 11  1  0  0  0  0
  3  2  2  0  0  0  0
  4  3  1  0  0  0  0
  5  4  1  0  0  0  0
  6  7  2  0  0  0  0
  6  5  1  0  0  0  0
  7  8  1  0  0  0  0
  8  4  2  0  0  0  0
  8  9  1  0  0  0  0
  9  1  2  0  0  0  0
 12  5  1  0  0  0  0
 13  6  1  0  0  0  0
 14 15  1  0  0  0  0
 14 20  1  0  0  0  0
 15 22  1  0  0  0  0
 16 21  1  0  0  0  0
 16 15  2  0  0  0  0
 17 16  1  0  0  0  0
 18 17  2  0  0  0  0
 18 19  1  0  0  0  0
 19 14  2  0  0  0  0
 22 25  1  0  0  0  0
 22 24  1  0  0  0  0
 23 22  1  0  0  0  0
 26  9  1  0  0  0  0
 27 26  1  0  0  0  0
 28 27  2  0  0  0  0
 29 28  1  0  0  0  0
 30 31  2  0  0  0  0
 30 28  1  0  0  0  0
 31 32  1  0  0  0  0
 32 26  2  0  0  0  0
M  END
>  <minimizedAffinity>
-5.18379641

$$$$
