
 OpenBabel03252508423D

 26 28  0  0  0  0  0  0  0  0999 V2000
   46.0950   34.1600   40.9080 C   0  0  0  0  0  0  0  0  0  0  0  0
   46.6160   34.7430   42.0550 C   0  0  0  0  0  0  0  0  0  0  0  0
   47.9230   35.2090   42.0210 C   0  0  0  0  0  0  0  0  0  0  0  0
   48.6660   35.0890   40.8720 C   0  0  0  0  0  0  0  0  0  0  0  0
   48.1710   34.5160   39.7250 C   0  0  0  0  0  0  0  0  0  0  0  0
   46.8500   34.0520   39.7810 C   0  0  0  0  0  0  0  0  0  0  0  0
   48.3810   35.6750   42.8920 H   0  0  0  0  0  0  0  0  0  0  0  0
   49.6890   35.4520   40.8410 H   0  0  0  0  0  0  0  0  0  0  0  0
   48.7520   34.4260   38.8360 H   0  0  0  0  0  0  0  0  0  0  0  0
   46.4190   33.5920   38.8960 H   0  0  0  0  0  0  0  0  0  0  0  0
   42.3210   33.9060   40.6990 C   0  0  0  0  0  0  0  0  0  0  0  0
   43.6130   34.4410   40.5700 C   0  0  0  0  0  0  0  0  0  0  0  0
   44.7170   33.6900   40.9990 C   0  0  0  0  0  0  0  0  0  0  0  0
   44.4680   32.4670   41.5220 N   0  0  0  0  0  0  0  0  0  0  0  0
   43.2170   31.9660   41.6390 C   0  0  0  0  0  0  0  0  0  0  0  0
   42.1440   32.6750   41.2320 N   0  0  0  0  0  0  0  0  0  0  0  0
   41.5690   34.5940   40.3280 H   0  0  0  0  0  0  0  0  0  0  0  0
   43.8350   35.4130   40.1560 H   0  0  0  0  0  0  0  0  0  0  0  0
   43.0510   30.9760   42.0660 H   0  0  0  0  0  0  0  0  0  0  0  0
   45.9190   34.9220   43.3290 C   0  0  0  0  0  0  0  0  0  0  0  0
   45.1230   36.0260   43.5750 C   0  0  0  0  0  0  0  0  0  0  0  0
   44.4590   36.1940   44.7890 C   0  0  0  0  0  0  0  0  0  0  0  0
   43.8460   37.0800   44.9280 H   0  0  0  0  0  0  0  0  0  0  0  0
   44.6170   35.2300   45.7380 N   0  0  0  0  0  0  0  0  0  0  0  0
   45.4030   34.1440   45.4900 C   0  0  0  0  0  0  0  0  0  0  0  0
   46.0330   34.0030   44.3130 N   0  0  0  0  0  0  0  0  0  0  0  0
  1 13  1  0  0  0  0
  1  2  1  0  0  0  0
  2 20  1  0  0  0  0
  3  2  2  0  0  0  0
  3  7  1  0  0  0  0
  4  3  1  0  0  0  0
  5  6  1  0  0  0  0
  5  4  2  0  0  0  0
  6  1  2  0  0  0  0
  8  4  1  0  0  0  0
  9  5  1  0  0  0  0
 10  6  1  0  0  0  0
 11 16  1  0  0  0  0
 12 11  2  0  0  0  0
 12 13  1  0  0  0  0
 13 14  2  0  0  0  0
 14 15  1  0  0  0  0
 15 19  1  0  0  0  0
 16 15  2  0  0  0  0
 17 11  1  0  0  0  0
 18 12  1  0  0  0  0
 20 21  2  0  0  0  0
 20 26  1  0  0  0  0
 21 22  1  0  0  0  0
 22 23  1  0  0  0  0
 22 24  2  0  0  0  0
 25 24  1  0  0  0  0
 26 25  2  0  0  0  0
M  END
>  <minimizedAffinity>
-5.66433096

>  <minimizedRMSD>
3.70998478

$$$$
