
 OpenBabel03252508363D

 29 31  0  0  0  0  0  0  0  0999 V2000
   39.3310   31.3270   40.4720 C   0  0  0  0  0  0  0  0  0  0  0  0
   39.3800   32.5900   39.8960 C   0  0  0  0  0  0  0  0  0  0  0  0
   38.1930   33.2110   39.6560 C   0  0  0  0  0  0  0  0  0  0  0  0
   36.9650   32.6360   39.9600 C   0  0  0  0  0  0  0  0  0  0  0  0
   36.9570   31.3870   40.5290 C   0  0  0  0  0  0  0  0  0  0  0  0
   38.1310   30.7350   40.7840 C   0  0  0  0  0  0  0  0  0  0  0  0
   38.2190   34.2020   39.2040 H   0  0  0  0  0  0  0  0  0  0  0  0
   36.0560   33.1880   39.7420 H   0  0  0  0  0  0  0  0  0  0  0  0
   35.9790   30.9950   40.7420 H   0  0  0  0  0  0  0  0  0  0  0  0
   42.3740   33.9170   38.0180 C   0  0  0  0  0  0  0  0  0  0  0  0
   41.0990   33.3960   38.2760 C   0  0  0  0  0  0  0  0  0  0  0  0
   40.6930   33.1310   39.6020 C   0  0  0  0  0  0  0  0  0  0  0  0
   41.6090   33.4150   40.5540 N   0  0  0  0  0  0  0  0  0  0  0  0
   42.8180   33.9100   40.2970 C   0  0  0  0  0  0  0  0  0  0  0  0
   43.1980   34.1610   39.0170 N   0  0  0  0  0  0  0  0  0  0  0  0
   42.7350   34.1610   36.6840 N   0  0  0  0  0  0  0  0  0  0  0  0
   40.4090   33.1890   37.4560 H   0  0  0  0  0  0  0  0  0  0  0  0
   43.4490   34.0900   41.1580 H   0  0  0  0  0  0  0  0  0  0  0  0
   42.0850   34.3170   35.8820 H   0  0  0  0  0  0  0  0  0  0  0  0
   43.7480   34.1970   36.4400 H   0  0  0  0  0  0  0  0  0  0  0  0
   38.1250   29.4070   41.3860 C   0  0  0  0  0  0  0  0  0  0  0  0
   38.0860   29.1830   42.7330 C   0  0  0  0  0  3  0  0  0  0  0  0
   38.0800   27.9290   43.3070 C   0  0  0  0  0  0  0  0  0  0  0  0
   38.0490   27.7910   44.3900 H   0  0  0  0  0  0  0  0  0  0  0  0
   38.1120   26.8400   42.5320 N   0  0  0  0  0  0  0  0  0  0  0  0
   38.1500   27.0340   41.1950 C   0  0  0  0  0  3  0  0  0  0  0  0
   38.1560   28.2670   40.6650 N   0  0  0  0  0  0  0  0  0  0  0  0
   41.5380   30.0280   41.0150 N   0  0  0  0  0  0  0  0  0  0  0  0
   40.5370   30.6100   40.7600 C   0  0  0  0  0  0  0  0  0  0  0  0
  1 29  1  0  0  0  0
  1  6  1  0  0  0  0
  2  1  2  0  0  0  0
  3  2  1  0  0  0  0
  3  4  2  0  0  0  0
  4  5  1  0  0  0  0
  5  9  1  0  0  0  0
  5  6  2  0  0  0  0
  6 21  1  0  0  0  0
  7  3  1  0  0  0  0
  8  4  1  0  0  0  0
 10 11  2  0  0  0  0
 10 15  1  0  0  0  0
 11 12  1  0  0  0  0
 12  2  1  0  0  0  0
 12 13  2  0  0  0  0
 14 13  1  0  0  0  0
 14 18  1  0  0  0  0
 15 14  2  0  0  0  0
 16 10  1  0  0  0  0
 17 11  1  0  0  0  0
 19 16  1  0  0  0  0
 20 16  1  0  0  0  0
 21 22  1  0  0  0  0
 22 23  2  0  0  0  0
 23 24  1  0  0  0  0
 25 23  1  0  0  0  0
 26 25  2  0  0  0  0
 27 26  1  0  0  0  0
 27 21  2  0  0  0  0
 29 28  3  0  0  0  0
M  END
>  <minimizedAffinity>
-5.44693947

$$$$

 OpenBabel03252508363D

 29 31  0  0  0  0  0  0  0  0999 V2000
   37.8950   27.9990   41.1450 C   0  0  0  0  0  0  0  0  0  0  0  0
   37.8280   29.0820   42.0120 C   0  0  0  0  0  0  0  0  0  0  0  0
   37.3310   28.8530   43.2570 C   0  0  0  0  0  0  0  0  0  0  0  0
   36.8980   27.6010   43.6800 C   0  0  0  0  0  0  0  0  0  0  0  0
   36.9800   26.5550   42.7950 C   0  0  0  0  0  0  0  0  0  0  0  0
   37.4750   26.7510   41.5350 C   0  0  0  0  0  0  0  0  0  0  0  0
   37.2740   29.6950   43.9450 H   0  0  0  0  0  0  0  0  0  0  0  0
   36.5120   27.4900   44.6880 H   0  0  0  0  0  0  0  0  0  0  0  0
   36.6320   25.6130   43.1770 H   0  0  0  0  0  0  0  0  0  0  0  0
   37.8800   32.5160   40.4430 C   0  0  0  0  0  0  0  0  0  0  0  0
   37.4050   31.2880   40.9240 C   0  0  0  0  0  0  0  0  0  0  0  0
   38.2940   30.3590   41.5070 C   0  0  0  0  0  0  0  0  0  0  0  0
   39.5870   30.7500   41.5550 N   0  0  0  0  0  0  0  0  0  0  0  0
   40.0270   31.9190   41.0950 C   0  0  0  0  0  0  0  0  0  0  0  0
   39.1620   32.8050   40.5360 N   0  0  0  0  0  0  0  0  0  0  0  0
   36.9590   33.4050   39.8680 N   0  0  0  0  0  0  0  0  0  0  0  0
   36.3440   31.0380   40.8520 H   0  0  0  0  0  0  0  0  0  0  0  0
   41.0890   32.1010   41.1990 H   0  0  0  0  0  0  0  0  0  0  0  0
   35.9290   33.4290   40.0350 H   0  0  0  0  0  0  0  0  0  0  0  0
   37.3110   34.1280   39.2040 H   0  0  0  0  0  0  0  0  0  0  0  0
   37.5620   25.6400   40.5940 C   0  0  0  0  0  0  0  0  0  0  0  0
   36.5610   25.2930   39.7320 C   0  0  0  0  0  3  0  0  0  0  0  0
   36.6380   24.2440   38.8400 C   0  0  0  0  0  0  0  0  0  0  0  0
   35.8150   23.9980   38.1670 H   0  0  0  0  0  0  0  0  0  0  0  0
   37.7470   23.4970   38.7840 N   0  0  0  0  0  0  0  0  0  0  0  0
   38.7530   23.8200   39.6250 C   0  0  0  0  0  3  0  0  0  0  0  0
   38.6480   24.8470   40.4840 N   0  0  0  0  0  0  0  0  0  0  0  0
   38.8300   28.3060   38.7190 N   0  0  0  0  0  0  0  0  0  0  0  0
   38.4110   28.1570   39.8180 C   0  0  0  0  0  0  0  0  0  0  0  0
  1  6  2  0  0  0  0
  1  2  1  0  0  0  0
  2  3  2  0  0  0  0
  3  4  1  0  0  0  0
  3  7  1  0  0  0  0
  4  8  1  0  0  0  0
  5  9  1  0  0  0  0
  5  4  2  0  0  0  0
  6  5  1  0  0  0  0
 10 15  2  0  0  0  0
 10 11  1  0  0  0  0
 11 12  2  0  0  0  0
 12 13  1  0  0  0  0
 12  2  1  0  0  0  0
 14 18  1  0  0  0  0
 14 13  2  0  0  0  0
 15 14  1  0  0  0  0
 16 19  1  0  0  0  0
 16 10  1  0  0  0  0
 17 11  1  0  0  0  0
 20 16  1  0  0  0  0
 21  6  1  0  0  0  0
 22 21  2  0  0  0  0
 23 22  1  0  0  0  0
 24 23  1  0  0  0  0
 25 23  2  0  0  0  0
 25 26  1  0  0  0  0
 26 27  2  0  0  0  0
 27 21  1  0  0  0  0
 28 29  3  0  0  0  0
 29  1  1  0  0  0  0
M  END
>  <minimizedAffinity>
-5.38972282

$$$$

 OpenBabel03252508363D

 29 31  0  0  0  0  0  0  0  0999 V2000
   38.5720   28.9340   41.0290 C   0  0  0  0  0  0  0  0  0  0  0  0
   37.8930   30.0490   40.5540 C   0  0  0  0  0  0  0  0  0  0  0  0
   36.5330   30.0130   40.5940 C   0  0  0  0  0  0  0  0  0  0  0  0
   35.8200   28.9240   41.0810 C   0  0  0  0  0  0  0  0  0  0  0  0
   36.5260   27.8410   41.5410 C   0  0  0  0  0  0  0  0  0  0  0  0
   37.8940   27.8440   41.5160 C   0  0  0  0  0  0  0  0  0  0  0  0
   35.9900   30.8820   40.2240 H   0  0  0  0  0  0  0  0  0  0  0  0
   34.7350   28.9630   41.0830 H   0  0  0  0  0  0  0  0  0  0  0  0
   35.9220   27.0300   41.9050 H   0  0  0  0  0  0  0  0  0  0  0  0
   39.8580   32.3010   38.2480 C   0  0  0  0  0  0  0  0  0  0  0  0
   39.0800   31.2280   38.7030 C   0  0  0  0  0  0  0  0  0  0  0  0
   38.6970   31.1500   40.0590 C   0  0  0  0  0  0  0  0  0  0  0  0
   39.1320   32.1620   40.8410 N   0  0  0  0  0  0  0  0  0  0  0  0
   39.8710   33.1770   40.3980 C   0  0  0  0  0  0  0  0  0  0  0  0
   40.2340   33.2410   39.0900 N   0  0  0  0  0  0  0  0  0  0  0  0
   40.2180   32.3340   36.8920 N   0  0  0  0  0  0  0  0  0  0  0  0
   38.7630   30.4420   38.0130 H   0  0  0  0  0  0  0  0  0  0  0  0
   40.1490   33.9190   41.1360 H   0  0  0  0  0  0  0  0  0  0  0  0
   39.7270   31.8540   36.1060 H   0  0  0  0  0  0  0  0  0  0  0  0
   41.0560   32.8870   36.6110 H   0  0  0  0  0  0  0  0  0  0  0  0
   38.6450   26.6940   42.0040 C   0  0  0  0  0  0  0  0  0  0  0  0
   39.2770   26.6550   43.2140 C   0  0  0  0  0  3  0  0  0  0  0  0
   39.9890   25.5690   43.6790 C   0  0  0  0  0  0  0  0  0  0  0  0
   40.4810   25.5770   44.6540 H   0  0  0  0  0  0  0  0  0  0  0  0
   40.0900   24.4660   42.9290 N   0  0  0  0  0  0  0  0  0  0  0  0
   39.4740   24.4790   41.7270 C   0  0  0  0  0  3  0  0  0  0  0  0
   38.7880   25.5510   41.3000 N   0  0  0  0  0  0  0  0  0  0  0  0
   41.1900   28.8850   41.0180 N   0  0  0  0  0  0  0  0  0  0  0  0
   40.0040   28.8960   41.0260 C   0  0  0  0  0  0  0  0  0  0  0  0
  1  6  1  0  0  0  0
  2  3  1  0  0  0  0
  2  1  2  0  0  0  0
  3  4  2  0  0  0  0
  4  8  1  0  0  0  0
  4  5  1  0  0  0  0
  5  9  1  0  0  0  0
  6  5  2  0  0  0  0
  6 21  1  0  0  0  0
  7  3  1  0  0  0  0
 10 11  2  0  0  0  0
 10 15  1  0  0  0  0
 11 12  1  0  0  0  0
 12  2  1  0  0  0  0
 12 13  2  0  0  0  0
 14 13  1  0  0  0  0
 14 18  1  0  0  0  0
 15 14  2  0  0  0  0
 16 10  1  0  0  0  0
 17 11  1  0  0  0  0
 19 16  1  0  0  0  0
 20 16  1  0  0  0  0
 21 22  1  0  0  0  0
 22 23  2  0  0  0  0
 23 24  1  0  0  0  0
 25 23  1  0  0  0  0
 26 25  2  0  0  0  0
 27 26  1  0  0  0  0
 27 21  2  0  0  0  0
 28 29  3  0  0  0  0
 29  1  1  0  0  0  0
M  END
>  <minimizedAffinity>
-5.3185873

$$$$

 OpenBabel03252508363D

 29 31  0  0  0  0  0  0  0  0999 V2000
   39.0370   28.4150   41.7270 C   0  0  0  0  0  0  0  0  0  0  0  0
   37.7370   28.8800   41.5770 C   0  0  0  0  0  0  0  0  0  0  0  0
   36.8050   28.4180   42.4540 C   0  0  0  0  0  0  0  0  0  0  0  0
   37.1040   27.5190   43.4700 C   0  0  0  0  0  0  0  0  0  0  0  0
   38.4000   27.0820   43.5870 C   0  0  0  0  0  0  0  0  0  0  0  0
   39.3610   27.5250   42.7220 C   0  0  0  0  0  0  0  0  0  0  0  0
   35.7820   28.7770   42.3450 H   0  0  0  0  0  0  0  0  0  0  0  0
   36.3110   27.1920   44.1350 H   0  0  0  0  0  0  0  0  0  0  0  0
   38.5710   26.3880   44.3900 H   0  0  0  0  0  0  0  0  0  0  0  0
   37.1440   32.0860   39.6730 C   0  0  0  0  0  0  0  0  0  0  0  0
   37.3810   31.2020   40.7350 C   0  0  0  0  0  0  0  0  0  0  0  0
   37.4930   29.8160   40.4950 C   0  0  0  0  0  0  0  0  0  0  0  0
   37.3550   29.4390   39.2050 N   0  0  0  0  0  0  0  0  0  0  0  0
   37.1310   30.2880   38.2040 C   0  0  0  0  0  0  0  0  0  0  0  0
   37.0250   31.6210   38.4470 N   0  0  0  0  0  0  0  0  0  0  0  0
   37.0370   33.4560   39.9600 N   0  0  0  0  0  0  0  0  0  0  0  0
   37.4820   31.5770   41.7560 H   0  0  0  0  0  0  0  0  0  0  0  0
   37.0420   29.8480   37.2190 H   0  0  0  0  0  0  0  0  0  0  0  0
   37.4270   33.9500   40.7930 H   0  0  0  0  0  0  0  0  0  0  0  0
   36.5230   34.0670   39.2900 H   0  0  0  0  0  0  0  0  0  0  0  0
   40.7380   27.0610   42.8450 C   0  0  0  0  0  0  0  0  0  0  0  0
   41.7010   27.7130   43.5610 C   0  0  0  0  0  3  0  0  0  0  0  0
   43.0040   27.2780   43.6800 C   0  0  0  0  0  0  0  0  0  0  0  0
   43.7450   27.8280   44.2620 H   0  0  0  0  0  0  0  0  0  0  0  0
   43.3880   26.1500   43.0710 N   0  0  0  0  0  0  0  0  0  0  0  0
   42.4550   25.4850   42.3560 C   0  0  0  0  0  3  0  0  0  0  0  0
   41.1930   25.9340   42.2580 N   0  0  0  0  0  0  0  0  0  0  0  0
   40.9420   29.2370   40.1310 N   0  0  0  0  0  0  0  0  0  0  0  0
   40.0770   28.8560   40.8470 C   0  0  0  0  0  0  0  0  0  0  0  0
  1  6  1  0  0  0  0
  2  1  2  0  0  0  0
  2  3  1  0  0  0  0
  3  4  2  0  0  0  0
  4  5  1  0  0  0  0
  4  8  1  0  0  0  0
  5  9  1  0  0  0  0
  6 21  1  0  0  0  0
  6  5  2  0  0  0  0
  7  3  1  0  0  0  0
 10 16  1  0  0  0  0
 10 11  1  0  0  0  0
 11 17  1  0  0  0  0
 12 11  2  0  0  0  0
 12  2  1  0  0  0  0
 13 12  1  0  0  0  0
 14 15  1  0  0  0  0
 14 13  2  0  0  0  0
 15 10  2  0  0  0  0
 16 19  1  0  0  0  0
 18 14  1  0  0  0  0
 20 16  1  0  0  0  0
 21 22  1  0  0  0  0
 22 23  2  0  0  0  0
 23 24  1  0  0  0  0
 25 23  1  0  0  0  0
 26 25  2  0  0  0  0
 27 26  1  0  0  0  0
 27 21  2  0  0  0  0
 28 29  3  0  0  0  0
 29  1  1  0  0  0  0
M  END
>  <minimizedAffinity>
-5.15264797

$$$$

 OpenBabel03252508363D

 29 31  0  0  0  0  0  0  0  0999 V2000
   38.7590   27.8470   41.4570 C   0  0  0  0  0  0  0  0  0  0  0  0
   39.1410   27.5390   42.7570 C   0  0  0  0  0  0  0  0  0  0  0  0
   38.1500   27.3980   43.6790 C   0  0  0  0  0  0  0  0  0  0  0  0
   36.8040   27.5500   43.3720 C   0  0  0  0  0  0  0  0  0  0  0  0
   36.4660   27.8550   42.0770 C   0  0  0  0  0  0  0  0  0  0  0  0
   37.4360   28.0030   41.1240 C   0  0  0  0  0  0  0  0  0  0  0  0
   38.4380   27.1560   44.7020 H   0  0  0  0  0  0  0  0  0  0  0  0
   36.0660   27.4240   44.1580 H   0  0  0  0  0  0  0  0  0  0  0  0
   35.4110   27.9600   41.8990 H   0  0  0  0  0  0  0  0  0  0  0  0
   42.5410   26.0110   43.3540 C   0  0  0  0  0  0  0  0  0  0  0  0
   41.1660   26.1230   43.1080 C   0  0  0  0  0  0  0  0  0  0  0  0
   40.5610   27.3950   43.0100 C   0  0  0  0  0  0  0  0  0  0  0  0
   41.3970   28.4450   43.1700 N   0  0  0  0  0  0  0  0  0  0  0  0
   42.7020   28.3260   43.4040 C   0  0  0  0  0  0  0  0  0  0  0  0
   43.2730   27.0970   43.4960 N   0  0  0  0  0  0  0  0  0  0  0  0
   43.0970   24.7260   43.4460 N   0  0  0  0  0  0  0  0  0  0  0  0
   40.5500   25.2300   42.9890 H   0  0  0  0  0  0  0  0  0  0  0  0
   43.2510   29.2540   43.5110 H   0  0  0  0  0  0  0  0  0  0  0  0
   42.7050   23.8480   43.0400 H   0  0  0  0  0  0  0  0  0  0  0  0
   43.9930   24.6060   43.9660 H   0  0  0  0  0  0  0  0  0  0  0  0
   37.0790   28.3280   39.7490 C   0  0  0  0  0  0  0  0  0  0  0  0
   36.8730   29.6000   39.2960 C   0  0  0  0  0  3  0  0  0  0  0  0
   36.5350   29.9120   37.9950 C   0  0  0  0  0  0  0  0  0  0  0  0
   36.3790   30.9430   37.6720 H   0  0  0  0  0  0  0  0  0  0  0  0
   36.3920   28.9370   37.0910 N   0  0  0  0  0  0  0  0  0  0  0  0
   36.5900   27.6690   37.5130 C   0  0  0  0  0  3  0  0  0  0  0  0
   36.9180   27.3960   38.7860 N   0  0  0  0  0  0  0  0  0  0  0  0
   40.5630   28.1540   39.5850 N   0  0  0  0  0  0  0  0  0  0  0  0
   39.7410   28.0070   40.4270 C   0  0  0  0  0  0  0  0  0  0  0  0
  1  2  1  0  0  0  0
  2 12  1  0  0  0  0
  2  3  2  0  0  0  0
  3  7  1  0  0  0  0
  4  3  1  0  0  0  0
  4  8  1  0  0  0  0
  5  4  2  0  0  0  0
  6  1  2  0  0  0  0
  6  5  1  0  0  0  0
  9  5  1  0  0  0  0
 10 16  1  0  0  0  0
 10 15  1  0  0  0  0
 11 10  2  0  0  0  0
 12 11  1  0  0  0  0
 12 13  2  0  0  0  0
 13 14  1  0  0  0  0
 14 15  2  0  0  0  0
 14 18  1  0  0  0  0
 16 20  1  0  0  0  0
 17 11  1  0  0  0  0
 19 16  1  0  0  0  0
 21  6  1  0  0  0  0
 22 21  1  0  0  0  0
 23 22  2  0  0  0  0
 24 23  1  0  0  0  0
 25 26  2  0  0  0  0
 25 23  1  0  0  0  0
 26 27  1  0  0  0  0
 27 21  2  0  0  0  0
 28 29  3  0  0  0  0
 29  1  1  0  0  0  0
M  END
>  <minimizedAffinity>
-5.01508856

$$$$

 OpenBabel03252508363D

 29 31  0  0  0  0  0  0  0  0999 V2000
   37.3050   29.5230   39.6690 C   0  0  0  0  0  0  0  0  0  0  0  0
   36.8070   30.4030   38.7170 C   0  0  0  0  0  0  0  0  0  0  0  0
   36.9360   31.7340   38.9710 C   0  0  0  0  0  0  0  0  0  0  0  0
   37.5340   32.2280   40.1240 C   0  0  0  0  0  0  0  0  0  0  0  0
   38.0150   31.3280   41.0420 C   0  0  0  0  0  0  0  0  0  0  0  0
   37.9010   29.9840   40.8180 C   0  0  0  0  0  0  0  0  0  0  0  0
   36.5480   32.4330   38.2310 H   0  0  0  0  0  0  0  0  0  0  0  0
   37.6040   33.3030   40.2620 H   0  0  0  0  0  0  0  0  0  0  0  0
   38.4660   31.7690   41.9120 H   0  0  0  0  0  0  0  0  0  0  0  0
   36.2760   29.1630   35.1910 C   0  0  0  0  0  0  0  0  0  0  0  0
   36.8920   29.7300   36.3160 C   0  0  0  0  0  0  0  0  0  0  0  0
   36.1930   29.8210   37.5390 C   0  0  0  0  0  0  0  0  0  0  0  0
   34.9330   29.3330   37.5220 N   0  0  0  0  0  0  0  0  0  0  0  0
   34.3590   28.7980   36.4470 C   0  0  0  0  0  0  0  0  0  0  0  0
   35.0410   28.7150   35.2750 N   0  0  0  0  0  0  0  0  0  0  0  0
   37.0090   29.0970   33.9950 N   0  0  0  0  0  0  0  0  0  0  0  0
   37.9150   30.1050   36.2570 H   0  0  0  0  0  0  0  0  0  0  0  0
   33.3430   28.4460   36.5770 H   0  0  0  0  0  0  0  0  0  0  0  0
   38.0480   29.1100   33.9010 H   0  0  0  0  0  0  0  0  0  0  0  0
   36.4890   29.0260   33.0950 H   0  0  0  0  0  0  0  0  0  0  0  0
   38.4100   29.0260   41.7920 C   0  0  0  0  0  0  0  0  0  0  0  0
   39.7140   28.6240   41.8560 C   0  0  0  0  0  3  0  0  0  0  0  0
   40.2000   27.7190   42.7760 C   0  0  0  0  0  0  0  0  0  0  0  0
   41.2500   27.4230   42.7940 H   0  0  0  0  0  0  0  0  0  0  0  0
   39.3750   27.1790   43.6800 N   0  0  0  0  0  0  0  0  0  0  0  0
   38.0790   27.5600   43.6390 C   0  0  0  0  0  3  0  0  0  0  0  0
   37.6350   28.4440   42.7310 N   0  0  0  0  0  0  0  0  0  0  0  0
   37.1530   26.9330   39.3230 N   0  0  0  0  0  0  0  0  0  0  0  0
   37.2120   28.1080   39.4740 C   0  0  0  0  0  0  0  0  0  0  0  0
  1  6  1  0  0  0  0
  2  3  1  0  0  0  0
  2  1  2  0  0  0  0
  3  4  2  0  0  0  0
  4  8  1  0  0  0  0
  4  5  1  0  0  0  0
  5  9  1  0  0  0  0
  6  5  2  0  0  0  0
  6 21  1  0  0  0  0
  7  3  1  0  0  0  0
 10 15  2  0  0  0  0
 10 11  1  0  0  0  0
 11 12  2  0  0  0  0
 12  2  1  0  0  0  0
 13 12  1  0  0  0  0
 14 18  1  0  0  0  0
 14 13  2  0  0  0  0
 15 14  1  0  0  0  0
 16 10  1  0  0  0  0
 17 11  1  0  0  0  0
 19 16  1  0  0  0  0
 20 16  1  0  0  0  0
 21 22  2  0  0  0  0
 21 27  1  0  0  0  0
 22 23  1  0  0  0  0
 23 24  1  0  0  0  0
 23 25  2  0  0  0  0
 26 25  1  0  0  0  0
 27 26  2  0  0  0  0
 28 29  3  0  0  0  0
 29  1  1  0  0  0  0
M  END
>  <minimizedAffinity>
-5.01472759

$$$$

 OpenBabel03252508363D

 29 31  0  0  0  0  0  0  0  0999 V2000
   38.9360   26.0870   41.6420 C   0  0  0  0  0  0  0  0  0  0  0  0
   39.6670   26.7690   42.6050 C   0  0  0  0  0  0  0  0  0  0  0  0
   38.9670   27.4430   43.5580 C   0  0  0  0  0  0  0  0  0  0  0  0
   37.5780   27.4700   43.5960 C   0  0  0  0  0  0  0  0  0  0  0  0
   36.8890   26.7840   42.6270 C   0  0  0  0  0  0  0  0  0  0  0  0
   37.5620   26.0970   41.6550 C   0  0  0  0  0  0  0  0  0  0  0  0
   39.5310   27.9810   44.3180 H   0  0  0  0  0  0  0  0  0  0  0  0
   37.0830   28.0290   44.3850 H   0  0  0  0  0  0  0  0  0  0  0  0
   35.8190   26.8410   42.7080 H   0  0  0  0  0  0  0  0  0  0  0  0
   43.2420   25.6300   43.0300 C   0  0  0  0  0  0  0  0  0  0  0  0
   41.8450   25.6740   43.1400 C   0  0  0  0  0  0  0  0  0  0  0  0
   41.1130   26.7010   42.5070 C   0  0  0  0  0  0  0  0  0  0  0  0
   41.8530   27.5970   41.8160 N   0  0  0  0  0  0  0  0  0  0  0  0
   43.1800   27.5450   41.7190 C   0  0  0  0  0  0  0  0  0  0  0  0
   43.8740   26.5520   42.3330 N   0  0  0  0  0  0  0  0  0  0  0  0
   43.9270   24.5920   43.6800 N   0  0  0  0  0  0  0  0  0  0  0  0
   41.3110   24.9150   43.7160 H   0  0  0  0  0  0  0  0  0  0  0  0
   43.6430   28.3290   41.1330 H   0  0  0  0  0  0  0  0  0  0  0  0
   43.5340   23.6680   43.9620 H   0  0  0  0  0  0  0  0  0  0  0  0
   44.9330   24.7290   43.9150 H   0  0  0  0  0  0  0  0  0  0  0  0
   36.8330   25.3680   40.6240 C   0  0  0  0  0  0  0  0  0  0  0  0
   36.4090   24.0770   40.7600 C   0  0  0  0  0  3  0  0  0  0  0  0
   35.7190   23.3840   39.7870 C   0  0  0  0  0  0  0  0  0  0  0  0
   35.3970   22.3520   39.9340 H   0  0  0  0  0  0  0  0  0  0  0  0
   35.4250   23.9790   38.6260 N   0  0  0  0  0  0  0  0  0  0  0  0
   35.8330   25.2570   38.4660 C   0  0  0  0  0  3  0  0  0  0  0  0
   36.5040   25.9060   39.4310 N   0  0  0  0  0  0  0  0  0  0  0  0
   40.1660   24.7470   39.7590 N   0  0  0  0  0  0  0  0  0  0  0  0
   39.5990   25.3500   40.6080 C   0  0  0  0  0  0  0  0  0  0  0  0
  1  6  2  0  0  0  0
  1  2  1  0  0  0  0
  2  3  2  0  0  0  0
  3  4  1  0  0  0  0
  3  7  1  0  0  0  0
  4  8  1  0  0  0  0
  5  9  1  0  0  0  0
  5  4  2  0  0  0  0
  6  5  1  0  0  0  0
 10 11  1  0  0  0  0
 10 16  1  0  0  0  0
 11 17  1  0  0  0  0
 12  2  1  0  0  0  0
 12 11  2  0  0  0  0
 13 12  1  0  0  0  0
 14 13  2  0  0  0  0
 14 15  1  0  0  0  0
 15 10  2  0  0  0  0
 16 20  1  0  0  0  0
 16 19  1  0  0  0  0
 18 14  1  0  0  0  0
 21 22  1  0  0  0  0
 21  6  1  0  0  0  0
 23 24  1  0  0  0  0
 23 22  2  0  0  0  0
 25 23  1  0  0  0  0
 26 25  2  0  0  0  0
 26 27  1  0  0  0  0
 27 21  2  0  0  0  0
 28 29  3  0  0  0  0
 29  1  1  0  0  0  0
M  END
>  <minimizedAffinity>
-4.98686218

$$$$

 OpenBabel03252508363D

 29 31  0  0  0  0  0  0  0  0999 V2000
   37.7270   28.8730   39.7200 C   0  0  0  0  0  0  0  0  0  0  0  0
   37.3530   30.0650   39.1140 C   0  0  0  0  0  0  0  0  0  0  0  0
   36.1700   30.0780   38.4430 C   0  0  0  0  0  0  0  0  0  0  0  0
   35.3440   28.9640   38.3460 C   0  0  0  0  0  0  0  0  0  0  0  0
   35.7470   27.8040   38.9580 C   0  0  0  0  0  0  0  0  0  0  0  0
   36.9310   27.7560   39.6410 C   0  0  0  0  0  0  0  0  0  0  0  0
   35.8670   31.0080   37.9640 H   0  0  0  0  0  0  0  0  0  0  0  0
   34.4130   29.0450   37.7940 H   0  0  0  0  0  0  0  0  0  0  0  0
   35.0690   26.9770   38.8490 H   0  0  0  0  0  0  0  0  0  0  0  0
   38.9820   33.2260   40.3850 C   0  0  0  0  0  0  0  0  0  0  0  0
   38.0910   32.1490   40.2720 C   0  0  0  0  0  0  0  0  0  0  0  0
   38.2610   31.1880   39.2520 C   0  0  0  0  0  0  0  0  0  0  0  0
   39.3150   31.3960   38.4330 N   0  0  0  0  0  0  0  0  0  0  0  0
   40.1550   32.4220   38.5490 C   0  0  0  0  0  0  0  0  0  0  0  0
   39.9810   33.3420   39.5350 N   0  0  0  0  0  0  0  0  0  0  0  0
   38.7710   34.1580   41.4120 N   0  0  0  0  0  0  0  0  0  0  0  0
   37.2590   32.0430   40.9710 H   0  0  0  0  0  0  0  0  0  0  0  0
   40.9570   32.4640   37.8230 H   0  0  0  0  0  0  0  0  0  0  0  0
   38.2460   33.9980   42.3000 H   0  0  0  0  0  0  0  0  0  0  0  0
   39.1680   35.1160   41.3060 H   0  0  0  0  0  0  0  0  0  0  0  0
   37.3620   26.5240   40.2900 C   0  0  0  0  0  0  0  0  0  0  0  0
   37.0270   26.1800   41.5690 C   0  0  0  0  0  3  0  0  0  0  0  0
   37.4310   25.0160   42.1870 C   0  0  0  0  0  0  0  0  0  0  0  0
   37.1420   24.7770   43.2120 H   0  0  0  0  0  0  0  0  0  0  0  0
   38.2000   24.1420   41.5270 N   0  0  0  0  0  0  0  0  0  0  0  0
   38.5450   24.4580   40.2600 C   0  0  0  0  0  3  0  0  0  0  0  0
   38.1360   25.6000   39.6840 N   0  0  0  0  0  0  0  0  0  0  0  0
   39.9670   28.6840   41.0620 N   0  0  0  0  0  0  0  0  0  0  0  0
   38.9560   28.7790   40.4490 C   0  0  0  0  0  0  0  0  0  0  0  0
  1 29  1  0  0  0  0
  2 12  1  0  0  0  0
  2  1  2  0  0  0  0
  3  2  1  0  0  0  0
  4  3  2  0  0  0  0
  4  5  1  0  0  0  0
  5  6  2  0  0  0  0
  6  1  1  0  0  0  0
  6 21  1  0  0  0  0
  7  3  1  0  0  0  0
  8  4  1  0  0  0  0
  9  5  1  0  0  0  0
 10 16  1  0  0  0  0
 11 10  1  0  0  0  0
 11 17  1  0  0  0  0
 12 11  2  0  0  0  0
 13 14  2  0  0  0  0
 13 12  1  0  0  0  0
 14 15  1  0  0  0  0
 15 10  2  0  0  0  0
 16 19  1  0  0  0  0
 18 14  1  0  0  0  0
 20 16  1  0  0  0  0
 21 22  1  0  0  0  0
 22 23  2  0  0  0  0
 23 24  1  0  0  0  0
 25 23  1  0  0  0  0
 26 25  2  0  0  0  0
 27 26  1  0  0  0  0
 27 21  2  0  0  0  0
 29 28  3  0  0  0  0
M  END
>  <minimizedAffinity>
-4.96524858

$$$$

 OpenBabel03252508363D

 29 31  0  0  0  0  0  0  0  0999 V2000
   37.2350   29.9320   40.1400 C   0  0  0  0  0  0  0  0  0  0  0  0
   36.4110   28.8300   40.3260 C   0  0  0  0  0  0  0  0  0  0  0  0
   36.4390   28.2310   41.5470 C   0  0  0  0  0  0  0  0  0  0  0  0
   37.2460   28.6740   42.5880 C   0  0  0  0  0  0  0  0  0  0  0  0
   38.0460   29.7670   42.3670 C   0  0  0  0  0  0  0  0  0  0  0  0
   38.0420   30.3930   41.1510 C   0  0  0  0  0  0  0  0  0  0  0  0
   35.7960   27.3650   41.7040 H   0  0  0  0  0  0  0  0  0  0  0  0
   37.2180   28.1480   43.5380 H   0  0  0  0  0  0  0  0  0  0  0  0
   38.6470   30.0640   43.2070 H   0  0  0  0  0  0  0  0  0  0  0  0
   33.5570   28.5730   37.8670 C   0  0  0  0  0  0  0  0  0  0  0  0
   34.3260   28.9880   38.9630 C   0  0  0  0  0  0  0  0  0  0  0  0
   35.5960   28.4180   39.1990 C   0  0  0  0  0  0  0  0  0  0  0  0
   35.9810   27.4770   38.3090 N   0  0  0  0  0  0  0  0  0  0  0  0
   35.2420   27.0910   37.2710 C   0  0  0  0  0  0  0  0  0  0  0  0
   34.0210   27.6470   37.0540 N   0  0  0  0  0  0  0  0  0  0  0  0
   32.3000   29.1660   37.6740 N   0  0  0  0  0  0  0  0  0  0  0  0
   33.9510   29.7560   39.6440 H   0  0  0  0  0  0  0  0  0  0  0  0
   35.6750   26.3270   36.6380 H   0  0  0  0  0  0  0  0  0  0  0  0
   31.9880   30.0950   38.0340 H   0  0  0  0  0  0  0  0  0  0  0  0
   31.5850   28.6500   37.1180 H   0  0  0  0  0  0  0  0  0  0  0  0
   38.8930   31.5530   40.9130 C   0  0  0  0  0  0  0  0  0  0  0  0
   40.2410   31.4790   40.7070 C   0  0  0  0  0  3  0  0  0  0  0  0
   41.0500   32.5730   40.4820 C   0  0  0  0  0  0  0  0  0  0  0  0
   42.1240   32.4720   40.3210 H   0  0  0  0  0  0  0  0  0  0  0  0
   40.5190   33.8010   40.4550 N   0  0  0  0  0  0  0  0  0  0  0  0
   39.1870   33.9020   40.6560 C   0  0  0  0  0  3  0  0  0  0  0  0
   38.4250   32.8180   40.8730 N   0  0  0  0  0  0  0  0  0  0  0  0
   37.2890   31.2080   37.8540 N   0  0  0  0  0  0  0  0  0  0  0  0
   37.2590   30.6210   38.8850 C   0  0  0  0  0  0  0  0  0  0  0  0
  1  2  2  0  0  0  0
  1  6  1  0  0  0  0
  2  3  1  0  0  0  0
  3  7  1  0  0  0  0
  3  4  2  0  0  0  0
  4  8  1  0  0  0  0
  5  4  1  0  0  0  0
  5  9  1  0  0  0  0
  6  5  2  0  0  0  0
 10 11  1  0  0  0  0
 11 12  2  0  0  0  0
 11 17  1  0  0  0  0
 12  2  1  0  0  0  0
 13 12  1  0  0  0  0
 14 13  2  0  0  0  0
 15 14  1  0  0  0  0
 15 10  2  0  0  0  0
 16 10  1  0  0  0  0
 16 19  1  0  0  0  0
 18 14  1  0  0  0  0
 20 16  1  0  0  0  0
 21  6  1  0  0  0  0
 22 21  2  0  0  0  0
 23 22  1  0  0  0  0
 24 23  1  0  0  0  0
 25 23  2  0  0  0  0
 25 26  1  0  0  0  0
 26 27  2  0  0  0  0
 27 21  1  0  0  0  0
 28 29  3  0  0  0  0
 29  1  1  0  0  0  0
M  END
>  <minimizedAffinity>
-4.94001722

$$$$
