
 OpenBabel03252509113D

 29 32  0  0  0  0  0  0  0  0999 V2000
   44.6280   29.6880   43.5110 C   0  0  0  0  0  0  0  0  0  0  0  0
   45.3400   30.3260   44.5020 C   0  0  0  0  0  0  0  0  0  0  0  0
   45.4190   29.8360   45.7880 C   0  0  0  0  0  0  0  0  0  0  0  0
   44.7690   28.6550   46.1360 C   0  0  0  0  0  0  0  0  0  0  0  0
   44.6250   27.8970   47.2500 N   0  0  0  0  0  0  0  0  0  0  0  0
   43.8460   26.8210   46.9570 C   0  0  0  0  0  0  0  0  0  0  0  0
   43.5150   26.9300   45.6440 N   0  0  0  0  0  0  0  0  0  0  0  0
   44.0640   28.0370   45.1230 C   0  0  0  0  0  0  0  0  0  0  0  0
   43.9590   28.4950   43.8230 C   0  0  0  0  0  0  0  0  0  0  0  0
   44.5770   30.0900   42.5020 H   0  0  0  0  0  0  0  0  0  0  0  0
   45.0930   28.2030   48.1400 H   0  0  0  0  0  0  0  0  0  0  0  0
   43.6460   26.1300   47.7460 H   0  0  0  0  0  0  0  0  0  0  0  0
   43.3840   27.9500   43.0830 H   0  0  0  0  0  0  0  0  0  0  0  0
   46.1080   33.9110   44.2090 C   0  0  0  0  0  0  0  0  0  0  0  0
   47.3740   33.9010   43.6220 C   0  0  0  0  0  0  0  0  0  0  0  0
   47.9660   32.6590   43.3270 C   0  0  0  0  0  0  0  0  0  0  0  0
   47.2530   31.5290   43.6370 N   0  0  0  0  0  0  0  0  0  0  0  0
   46.0380   31.5630   44.2000 C   0  0  0  0  0  0  0  0  0  0  0  0
   45.4690   32.7530   44.4840 N   0  0  0  0  0  0  0  0  0  0  0  0
   45.6240   34.8620   44.4500 H   0  0  0  0  0  0  0  0  0  0  0  0
   47.9030   34.8170   43.3940 H   0  0  0  0  0  0  0  0  0  0  0  0
   48.9480   32.5950   42.8710 H   0  0  0  0  0  0  0  0  0  0  0  0
   46.1780   30.5240   46.8270 C   0  0  0  0  0  0  0  0  0  0  0  0
   47.5490   30.4800   46.9880 C   0  0  0  0  0  3  0  0  0  0  0  0
   48.0750   31.2040   48.0370 C   0  0  0  0  0  0  0  0  0  0  0  0
   49.1440   31.1680   48.1610 H   0  0  0  0  0  0  0  0  0  0  0  0
   47.3050   31.9240   48.8720 N   0  0  0  0  0  0  0  0  0  0  0  0
   45.9730   31.9550   48.7000 C   0  0  0  0  0  3  0  0  0  0  0  0
   45.4050   31.2550   47.6760 N   0  0  0  0  0  0  0  0  0  0  0  0
  1  9  2  0  0  0  0
  1  2  1  0  0  0  0
  2  3  2  0  0  0  0
  3  4  1  0  0  0  0
  3 23  1  0  0  0  0
  4  5  1  0  0  0  0
  5 11  1  0  0  0  0
  6  5  1  0  0  0  0
  6 12  1  0  0  0  0
  7  6  2  0  0  0  0
  8  7  1  0  0  0  0
  8  4  2  0  0  0  0
  9  8  1  0  0  0  0
 10  1  1  0  0  0  0
 13  9  1  0  0  0  0
 14 20  1  0  0  0  0
 14 19  1  0  0  0  0
 15 14  2  0  0  0  0
 16 15  1  0  0  0  0
 16 17  2  0  0  0  0
 17 18  1  0  0  0  0
 18 19  2  0  0  0  0
 18  2  1  0  0  0  0
 21 15  1  0  0  0  0
 22 16  1  0  0  0  0
 23 24  2  0  0  0  0
 23 29  1  0  0  0  0
 24 25  1  0  0  0  0
 25 26  1  0  0  0  0
 25 27  2  0  0  0  0
 28 27  1  0  0  0  0
 29 28  2  0  0  0  0
M  END
>  <minimizedAffinity>
-3.92710447

>  <minimizedRMSD>
4.23645401

$$$$
