
 OpenBabel03252506493D

 27 29  0  0  0  0  0  0  0  0999 V2000
   45.3670   34.4230   41.4680 C   0  0  0  0  0  0  0  0  0  0  0  0
   46.0490   35.1170   42.4680 C   0  0  0  0  0  0  0  0  0  0  0  0
   47.4350   35.2950   42.3230 C   0  0  0  0  0  0  0  0  0  0  0  0
   48.0390   34.7850   41.2240 N   0  0  0  0  0  0  0  0  0  0  0  0
   47.3440   34.1150   40.2750 C   0  0  0  0  0  0  0  0  0  0  0  0
   46.0070   33.9270   40.3840 N   0  0  0  0  0  0  0  0  0  0  0  0
   45.5590   35.5220   43.3420 H   0  0  0  0  0  0  0  0  0  0  0  0
   47.9480   35.8370   43.1090 H   0  0  0  0  0  0  0  0  0  0  0  0
   48.0460   33.5870   39.1120 C   0  0  0  0  0  0  0  0  0  0  0  0
   47.9980   34.2420   37.9090 C   0  0  0  0  0  3  0  0  0  0  0  0
   48.6910   33.6900   36.8260 C   0  0  0  0  0  0  0  0  0  0  0  0
   48.6530   34.2060   35.8750 H   0  0  0  0  0  0  0  0  0  0  0  0
   49.3980   32.5320   36.9570 N   0  0  0  0  0  0  0  0  0  0  0  0
   49.4000   31.9440   38.1710 C   0  0  0  0  0  3  0  0  0  0  0  0
   48.7470   32.4300   39.2620 N   0  0  0  0  0  0  0  0  0  0  0  0
   43.6080   34.2390   41.7260 S   0  0  0  0  0  0  0  0  0  0  0  0
   41.2190   35.8150   40.2950 Cl  0  0  0  0  0  0  0  0  0  0  0  0
   41.7250   34.2700   39.6140 C   0  0  0  0  0  0  0  0  0  0  0  0
   42.7480   33.6690   40.2870 C   0  0  0  0  0  0  0  0  0  0  0  0
   43.2000   32.4370   39.7960 C   0  0  0  0  0  0  0  0  0  0  0  0
   42.5960   31.8930   38.6680 C   0  0  0  0  0  0  0  0  0  0  0  0
   41.5650   32.5050   37.9960 C   0  0  0  0  0  0  0  0  0  0  0  0
   41.1320   33.7300   38.5020 C   0  0  0  0  0  0  0  0  0  0  0  0
   39.8250   34.6140   37.7380 Cl  0  0  0  0  0  0  0  0  0  0  0  0
   44.0040   31.8750   40.2510 H   0  0  0  0  0  0  0  0  0  0  0  0
   42.9340   30.9340   38.2720 H   0  0  0  0  0  0  0  0  0  0  0  0
   41.1040   32.0700   37.1200 H   0  0  0  0  0  0  0  0  0  0  0  0
  1 16  1  0  0  0  0
  1  2  1  0  0  0  0
  2  7  1  0  0  0  0
  3  2  2  0  0  0  0
  3  8  1  0  0  0  0
  4  3  1  0  0  0  0
  5  6  1  0  0  0  0
  5  4  2  0  0  0  0
  6  1  2  0  0  0  0
  9 15  1  0  0  0  0
  9  5  1  0  0  0  0
 10  9  2  0  0  0  0
 11 13  2  0  0  0  0
 11 10  1  0  0  0  0
 12 11  1  0  0  0  0
 13 14  1  0  0  0  0
 14 15  2  0  0  0  0
 18 19  1  0  0  0  0
 18 17  1  0  0  0  0
 19 16  1  0  0  0  0
 20 25  1  0  0  0  0
 20 19  2  0  0  0  0
 21 20  1  0  0  0  0
 22 23  1  0  0  0  0
 22 21  2  0  0  0  0
 23 18  2  0  0  0  0
 24 23  1  0  0  0  0
 26 21  1  0  0  0  0
 27 22  1  0  0  0  0
M  END
>  <minimizedAffinity>
-5.04867506

>  <minimizedRMSD>
6.64076376

$$$$
