
 OpenBabel03252509043D

 46 48  0  0  1  0  0  0  0  0999 V2000
   46.6940   34.4390   43.5690 N   0  0  0  0  0  0  0  0  0  0  0  0
   46.2270   35.5130   42.7730 C   0  0  0  0  0  0  0  0  0  0  0  0
   44.7380   35.7730   42.8500 C   0  0  0  0  0  0  0  0  0  0  0  0
   44.1140   35.4500   44.1860 C   0  0  0  0  0  0  0  0  0  0  0  0
   45.1590   35.0520   45.2020 C   0  0  0  0  0  0  0  0  0  0  0  0
   45.8870   33.8340   44.5110 C   0  0  2  0  0  0  0  0  0  0  0  0
   46.7250   36.4440   43.1660 H   0  0  0  0  0  0  0  0  0  0  0  0
   46.4830   35.4920   41.7080 H   0  0  0  0  0  0  0  0  0  0  0  0
   44.2230   35.2300   42.0130 H   0  0  0  0  0  0  0  0  0  0  0  0
   44.5390   36.8580   42.6630 H   0  0  0  0  0  0  0  0  0  0  0  0
   43.4070   36.2170   44.5420 H   0  0  0  0  0  0  0  0  0  0  0  0
   43.4980   34.5210   44.0270 H   0  0  0  0  0  0  0  0  0  0  0  0
   45.8980   35.8350   45.3990 H   0  0  0  0  0  0  0  0  0  0  0  0
   44.6220   34.6860   46.0970 H   0  0  0  0  0  0  0  0  0  0  0  0
   45.0760   33.1590   44.1690 H   0  0  0  0  0  0  0  0  0  0  0  0
   47.7230   33.6410   42.9340 C   0  0  0  0  0  0  0  0  0  0  0  0
   48.3740   34.3580   42.3890 H   0  0  0  0  0  0  0  0  0  0  0  0
   48.3870   33.1520   43.6910 H   0  0  0  0  0  0  0  0  0  0  0  0
   47.0770   32.6950   41.9940 C   0  0  0  0  0  0  0  0  0  0  0  0
   47.1640   31.6680   42.3510 H   0  0  0  0  0  0  0  0  0  0  0  0
   45.9620   32.8800   41.9300 H   0  0  0  0  0  0  0  0  0  0  0  0
   49.0660   31.9870   38.8730 C   0  0  0  0  0  0  0  0  0  0  0  0
   48.4730   31.8660   40.1470 C   0  0  0  0  0  0  0  0  0  0  0  0
   47.6860   32.8530   40.6490 C   0  0  0  0  0  0  0  0  0  0  0  0
   47.5060   33.9320   39.8830 N   0  0  0  0  0  0  0  0  0  0  0  0
   48.0580   34.0720   38.6680 C   0  0  0  0  0  0  0  0  0  0  0  0
   48.8410   33.1110   38.1470 N   0  0  0  0  0  0  0  0  0  0  0  0
   49.6860   31.2370   38.4460 H   0  0  0  0  0  0  0  0  0  0  0  0
   48.7230   30.9340   40.6220 H   0  0  0  0  0  0  0  0  0  0  0  0
   47.8260   35.0020   38.1570 H   0  0  0  0  0  0  0  0  0  0  0  0
   46.6020   33.3140   45.5640 O   0  0  0  0  0  0  0  0  0  0  0  0
   45.5200   31.0280   44.7060 O   0  0  0  0  0  0  0  0  0  0  0  0
   46.2240   31.7220   45.8950 P   0  0  2  0  0  0  0  0  0  0  0  0
   45.0000   31.7550   47.1100 O   0  0  0  0  0  0  0  0  0  0  0  0
   45.3050   32.4080   47.7970 H   0  0  0  0  0  0  0  0  0  0  0  0
   47.4710   30.8080   46.4720 O   0  0  0  0  0  0  0  0  0  0  0  0
   47.7010   29.7200   45.6730 C   0  0  0  0  0  0  0  0  0  0  0  0
   46.8620   29.7380   44.9050 H   0  0  0  0  0  0  0  0  0  0  0  0
   47.4200   28.8150   46.2920 H   0  0  0  0  0  0  0  0  0  0  0  0
   49.0080   29.5880   45.0510 C   0  0  0  0  0  0  0  0  0  0  0  0
   48.9800   30.1080   43.7520 C   0  0  0  0  0  3  0  0  0  0  0  0
   50.1820   30.1000   43.0340 C   0  0  0  0  0  0  0  0  0  0  0  0
   50.2610   30.4880   42.0080 H   0  0  0  0  0  0  0  0  0  0  0  0
   51.3360   29.6220   43.5350 N   0  0  0  0  0  0  0  0  0  0  0  0
   51.3090   29.1320   44.7880 C   0  0  0  0  0  3  0  0  0  0  0  0
   50.1890   29.1100   45.5320 N   0  0  0  0  0  0  0  0  0  0  0  0
  1  6  1  0  0  0  0
  2  3  1  0  0  0  0
  2  7  1  0  0  0  0
  2  1  1  0  0  0  0
  3  4  1  0  0  0  0
  4 11  1  0  0  0  0
  4  5  1  0  0  0  0
  5 13  1  0  0  0  0
  5 14  1  0  0  0  0
  6 15  1  6  0  0  0
  6  5  1  0  0  0  0
  6 31  1  0  0  0  0
  8  2  1  0  0  0  0
  9  3  1  0  0  0  0
 10  3  1  0  0  0  0
 12  4  1  0  0  0  0
 16  1  1  0  0  0  0
 16 18  1  0  0  0  0
 17 16  1  0  0  0  0
 19 20  1  0  0  0  0
 19 16  1  0  0  0  0
 21 19  1  0  0  0  0
 22 23  1  0  0  0  0
 23 29  1  0  0  0  0
 23 24  2  0  0  0  0
 24 19  1  0  0  0  0
 25 24  1  0  0  0  0
 26 25  2  0  0  0  0
 27 26  1  0  0  0  0
 27 22  2  0  0  0  0
 28 22  1  0  0  0  0
 30 26  1  0  0  0  0
 31 33  1  0  0  0  0
 33 32  2  6  0  0  0
 33 36  1  0  0  0  0
 33 34  1  0  0  0  0
 34 35  1  0  0  0  0
 37 39  1  0  0  0  0
 37 36  1  0  0  0  0
 38 37  1  0  0  0  0
 40 46  1  0  0  0  0
 40 37  1  0  0  0  0
 41 40  2  0  0  0  0
 42 44  2  0  0  0  0
 42 41  1  0  0  0  0
 43 42  1  0  0  0  0
 44 45  1  0  0  0  0
 45 46  2  0  0  0  0
M  END
>  <minimizedAffinity>
-4.04483938

>  <minimizedRMSD>
1.82535422

$$$$
