
 OpenBabel03242515203D

 37 39  0  0  0  0  0  0  0  0999 V2000
   46.8380   33.7310   44.4250 C   0  0  0  0  0  0  0  0  0  0  0  0
   47.4160   32.9000   44.0300 H   0  0  0  0  0  0  0  0  0  0  0  0
   47.4770   34.6270   44.6150 H   0  0  0  0  0  0  0  0  0  0  0  0
   44.4160   35.6640   42.3560 C   0  0  0  0  0  0  0  0  0  0  0  0
   43.6280   34.6100   41.8050 C   0  0  0  0  0  0  0  0  0  0  0  0
   43.9680   33.3460   42.1710 C   0  0  0  0  0  0  0  0  0  0  0  0
   45.0110   33.1860   43.0140 N   0  0  0  0  0  0  0  0  0  0  0  0
   45.7460   34.1640   43.5270 C   0  0  0  0  0  0  0  0  0  0  0  0
   45.4330   35.4070   43.1850 N   0  0  0  0  0  0  0  0  0  0  0  0
   44.3550   36.7120   42.2240 H   0  0  0  0  0  0  0  0  0  0  0  0
   42.5700   35.0560   40.8960 C   0  0  0  0  0  0  0  0  0  0  0  0
   41.3860   35.5510   41.3900 C   0  0  0  0  0  0  0  0  0  0  0  0
   40.3190   35.9860   40.6390 C   0  0  0  0  0  0  0  0  0  0  0  0
   39.3870   36.3740   41.0030 H   0  0  0  0  0  0  0  0  0  0  0  0
   40.4250   35.9300   39.2880 N   0  0  0  0  0  0  0  0  0  0  0  0
   41.5860   35.4440   38.7720 C   0  0  0  0  0  0  0  0  0  0  0  0
   42.5590   35.0490   39.5760 N   0  0  0  0  0  0  0  0  0  0  0  0
   43.1670   32.2580   41.6160 C   0  0  0  0  0  0  0  0  0  0  0  0
   43.6010   31.0280   42.1530 F   0  0  0  0  0  0  0  0  0  0  0  0
   43.5300   32.1480   40.2680 F   0  0  0  0  0  0  0  0  0  0  0  0
   41.8400   32.3870   41.8240 F   0  0  0  0  0  0  0  0  0  0  0  0
   46.3200   33.2860   45.7770 C   0  0  0  0  0  0  0  0  0  0  0  0
   45.2660   33.6400   45.8560 H   0  0  0  0  0  0  0  0  0  0  0  0
   46.8520   33.7780   46.6210 H   0  0  0  0  0  0  0  0  0  0  0  0
   46.3000   31.8300   45.9080 C   0  0  0  0  0  0  0  0  0  0  0  0
   46.8560   30.8770   45.0960 C   0  0  0  0  0  0  0  0  0  0  0  0
   46.5590   29.6580   45.6460 C   0  0  0  0  0  0  0  0  0  0  0  0
   45.8520   29.8620   46.7520 N   0  0  0  0  0  0  0  0  0  0  0  0
   45.7040   31.1740   46.8960 N   0  0  0  0  0  0  0  0  0  0  0  0
   47.4220   31.0900   44.1860 H   0  0  0  0  0  0  0  0  0  0  0  0
   45.3060   28.8610   47.6810 C   0  0  0  0  0  0  0  0  0  0  0  0
   44.8250   29.4910   48.8350 F   0  0  0  0  0  0  0  0  0  0  0  0
   46.2700   27.9220   47.9600 F   0  0  0  0  0  0  0  0  0  0  0  0
   44.2330   28.2450   47.0650 F   0  0  0  0  0  0  0  0  0  0  0  0
   46.9570   28.3670   45.1010 C   0  0  0  0  0  0  0  0  0  0  0  0
   46.1800   27.6150   44.4450 O   0  0  0  0  0  0  0  0  0  0  0  0
   47.8690   27.7980   45.1080 H   0  0  0  0  0  0  0  0  0  0  0  0
  1  3  1  0  0  0  0
  1 22  1  0  0  0  0
  2  1  1  0  0  0  0
  4  9  1  0  0  0  0
  5  6  1  0  0  0  0
  5  4  2  0  0  0  0
  6  7  2  0  0  0  0
  7  8  1  0  0  0  0
  8  1  1  0  0  0  0
  9  8  2  0  0  0  0
 10  4  1  0  0  0  0
 11 12  1  0  0  0  0
 11  5  1  0  0  0  0
 13 14  1  0  0  0  0
 13 12  2  0  0  0  0
 15 13  1  0  0  0  0
 16 15  2  0  0  0  0
 16 17  1  0  0  0  0
 17 11  2  0  0  0  0
 18 21  1  0  0  0  0
 18 19  1  0  0  0  0
 18  6  1  0  0  0  0
 20 18  1  0  0  0  0
 22 23  1  0  0  0  0
 22 25  1  0  0  0  0
 22 24  1  0  0  0  0
 25 29  2  0  0  0  0
 26 27  2  0  0  0  0
 26 25  1  0  0  0  0
 27 28  1  0  0  0  0
 28 29  1  0  0  0  0
 28 31  1  0  0  0  0
 30 26  1  0  0  0  0
 31 33  1  0  0  0  0
 31 32  1  0  0  0  0
 34 31  1  0  0  0  0
 35 37  1  0  0  0  0
 35 27  1  0  0  0  0
 36 35  2  0  0  0  0
M  END
>  <minimizedAffinity>
-5.21028709

>  <minimizedRMSD>
2.9651587

$$$$
