
 OpenBabel03252502383D

 36 38  0  0  1  0  0  0  0  0999 V2000
   46.0400   33.6940   41.4190 C   0  0  1  0  0  0  0  0  0  0  0  0
   46.4920   34.5690   41.9460 H   0  0  0  0  0  0  0  0  0  0  0  0
   47.0750   33.1830   40.5430 N   0  0  0  0  0  0  0  0  0  0  0  0
   47.6330   34.1310   39.6650 C   0  0  0  0  0  0  0  0  0  0  0  0
   48.3830   33.2990   38.5990 C   0  0  0  0  0  0  0  0  0  0  0  0
   49.5290   32.8030   39.2980 N   0  0  0  0  0  0  0  0  0  0  0  0
   49.2560   32.0440   40.4590 C   0  0  0  0  0  0  0  0  0  0  0  0
   48.0020   32.3350   41.2100 C   0  0  0  0  0  0  0  0  0  0  0  0
   46.8050   34.6210   39.0980 H   0  0  0  0  0  0  0  0  0  0  0  0
   48.3200   34.8590   40.1120 H   0  0  0  0  0  0  0  0  0  0  0  0
   48.7290   34.0490   37.8670 H   0  0  0  0  0  0  0  0  0  0  0  0
   47.7420   32.5090   38.2160 H   0  0  0  0  0  0  0  0  0  0  0  0
   50.3400   33.4300   39.3180 H   0  0  0  0  0  0  0  0  0  0  0  0
   50.1630   32.1440   41.1310 H   0  0  0  0  0  0  0  0  0  0  0  0
   49.2790   30.9700   40.1610 H   0  0  0  0  0  0  0  0  0  0  0  0
   48.2720   32.7940   42.1800 H   0  0  0  0  0  0  0  0  0  0  0  0
   47.5550   31.3400   41.4480 H   0  0  0  0  0  0  0  0  0  0  0  0
   43.9730   35.0610   41.2660 C   0  0  0  0  0  0  0  0  0  0  0  0
   44.8370   34.1040   40.7580 C   0  0  0  0  0  0  0  0  0  0  0  0
   44.4450   33.5430   39.5370 C   0  0  0  0  0  0  0  0  0  0  0  0
   43.2830   33.9450   38.9320 N   0  0  0  0  0  0  0  0  0  0  0  0
   42.4920   34.8830   39.4890 C   0  0  0  0  0  0  0  0  0  0  0  0
   42.8330   35.4500   40.6660 N   0  0  0  0  0  0  0  0  0  0  0  0
   44.2520   35.5170   42.2160 H   0  0  0  0  0  0  0  0  0  0  0  0
   45.0450   32.7930   39.0590 H   0  0  0  0  0  0  0  0  0  0  0  0
   41.6190   35.0830   38.8860 H   0  0  0  0  0  0  0  0  0  0  0  0
   45.7130   32.6290   42.4700 C   0  0  0  0  0  0  0  0  0  0  0  0
   46.6770   32.1500   42.8160 H   0  0  0  0  0  0  0  0  0  0  0  0
   45.2050   33.1190   43.3450 H   0  0  0  0  0  0  0  0  0  0  0  0
   44.8350   31.5480   42.0020 C   0  0  0  0  0  0  0  0  0  0  0  0
   44.8380   30.4450   41.2010 C   0  0  0  0  0  3  0  0  0  0  0  0
   43.7720   29.6200   40.9580 C   0  0  0  0  0  0  0  0  0  0  0  0
   44.0090   28.8130   40.2950 H   0  0  0  0  0  0  0  0  0  0  0  0
   42.6150   29.9200   41.5590 N   0  0  0  0  0  0  0  0  0  0  0  0
   42.5480   30.9790   42.3480 C   0  0  0  0  0  3  0  0  0  0  0  0
   43.6000   31.7570   42.5630 N   0  0  0  0  0  0  0  0  0  0  0  0
  1  2  1  1  0  0  0
  1 27  1  0  0  0  0
  3  8  1  0  0  0  0
  3  1  1  0  0  0  0
  4 10  1  0  0  0  0
  4  3  1  0  0  0  0
  5  6  1  0  0  0  0
  5  4  1  0  0  0  0
  6 13  1  0  0  0  0
  6  7  1  0  0  0  0
  7 14  1  0  0  0  0
  7  8  1  0  0  0  0
  8 17  1  0  0  0  0
  8 16  1  0  0  0  0
  9  4  1  0  0  0  0
 11  5  1  0  0  0  0
 12  5  1  0  0  0  0
 15  7  1  0  0  0  0
 18 24  1  0  0  0  0
 19 18  1  0  0  0  0
 19  1  1  0  0  0  0
 20 19  2  0  0  0  0
 21 22  2  0  0  0  0
 21 20  1  0  0  0  0
 22 23  1  0  0  0  0
 23 18  2  0  0  0  0
 25 20  1  0  0  0  0
 26 22  1  0  0  0  0
 27 28  1  0  0  0  0
 27 29  1  0  0  0  0
 30 27  1  0  0  0  0
 30 36  1  0  0  0  0
 31 30  2  0  0  0  0
 32 31  1  0  0  0  0
 32 34  2  0  0  0  0
 33 32  1  0  0  0  0
 34 35  1  0  0  0  0
 35 36  2  0  0  0  0
M  END
>  <minimizedAffinity>
-3.33144403

>  <minimizedRMSD>
6.00381088

$$$$
