
 OpenBabel03242521333D

 29 32  0  0  0  0  0  0  0  0999 V2000
   44.4340   35.9070   44.8890 C   0  0  0  0  0  0  0  0  0  0  0  0
   45.0170   35.8750   43.5860 C   0  0  0  0  0  0  0  0  0  0  0  0
   45.9190   34.8600   43.3230 C   0  0  0  0  0  0  0  0  0  0  0  0
   46.2040   33.9570   44.2920 N   0  0  0  0  0  0  0  0  0  0  0  0
   45.6350   34.0090   45.5280 C   0  0  0  0  0  0  0  0  0  0  0  0
   44.7640   34.9770   45.8050 N   0  0  0  0  0  0  0  0  0  0  0  0
   43.7440   36.7220   45.0240 H   0  0  0  0  0  0  0  0  0  0  0  0
   44.8040   36.5740   42.8160 H   0  0  0  0  0  0  0  0  0  0  0  0
   47.8790   35.2050   41.9320 C   0  0  0  0  0  0  0  0  0  0  0  0
   46.5920   34.6960   42.0460 C   0  0  0  0  0  0  0  0  0  0  0  0
   46.0400   34.0740   40.9540 C   0  0  0  0  0  0  0  0  0  0  0  0
   46.7150   33.9350   39.7480 C   0  0  0  0  0  0  0  0  0  0  0  0
   46.3770   33.3740   38.5660 N   0  0  0  0  0  0  0  0  0  0  0  0
   47.4370   33.5230   37.7100 C   0  0  0  0  0  0  0  0  0  0  0  0
   48.4200   34.1820   38.3890 N   0  0  0  0  0  0  0  0  0  0  0  0
   47.9930   34.4420   39.6360 C   0  0  0  0  0  0  0  0  0  0  0  0
   48.5680   35.0720   40.7240 C   0  0  0  0  0  0  0  0  0  0  0  0
   48.3320   35.7040   42.7960 H   0  0  0  0  0  0  0  0  0  0  0  0
   45.0330   33.6880   41.0760 H   0  0  0  0  0  0  0  0  0  0  0  0
   45.4680   32.9040   38.3370 H   0  0  0  0  0  0  0  0  0  0  0  0
   47.5110   33.1900   36.6800 H   0  0  0  0  0  0  0  0  0  0  0  0
   49.5730   35.4800   40.6660 H   0  0  0  0  0  0  0  0  0  0  0  0
   45.9820   33.0080   46.5310 C   0  0  0  0  0  0  0  0  0  0  0  0
   45.2130   32.9030   47.6850 C   0  0  0  0  0  0  0  0  0  0  0  0
   45.5600   31.9550   48.6130 C   0  0  0  0  0  0  0  0  0  0  0  0
   44.8950   31.9520   49.4830 H   0  0  0  0  0  0  0  0  0  0  0  0
   46.6200   31.1330   48.4280 N   0  0  0  0  0  0  0  0  0  0  0  0
   47.3410   31.2750   47.2820 C   0  0  0  0  0  0  0  0  0  0  0  0
   47.0350   32.2040   46.3290 N   0  0  0  0  0  0  0  0  0  0  0  0
  1  7  1  0  0  0  0
  1  6  1  0  0  0  0
  2  1  2  0  0  0  0
  3  2  1  0  0  0  0
  3  4  2  0  0  0  0
  4  5  1  0  0  0  0
  5  6  2  0  0  0  0
  5 23  1  0  0  0  0
  8  2  1  0  0  0  0
  9 10  1  0  0  0  0
  9 18  1  0  0  0  0
 10  3  1  0  0  0  0
 11 19  1  0  0  0  0
 11 10  2  0  0  0  0
 12 11  1  0  0  0  0
 13 12  1  0  0  0  0
 14 15  2  0  0  0  0
 14 13  1  0  0  0  0
 15 16  1  0  0  0  0
 16 12  2  0  0  0  0
 16 17  1  0  0  0  0
 17  9  2  0  0  0  0
 20 13  1  0  0  0  0
 21 14  1  0  0  0  0
 22 17  1  0  0  0  0
 23 24  1  0  0  0  0
 24 25  2  0  0  0  0
 25 26  1  0  0  0  0
 27 25  1  0  0  0  0
 28 27  2  0  0  0  0
 29 23  2  0  0  0  0
 29 28  1  0  0  0  0
M  END
>  <minimizedAffinity>
-6.90225506

>  <minimizedRMSD>
0.13422671

$$$$
