
 OpenBabel03252509323D

 25 26  0  0  0  0  0  0  0  0999 V2000
   36.9540   29.7230   39.3740 O   0  0  0  0  0  0  0  0  0  0  0  0
   36.7490   30.9160   38.6740 C   0  0  0  0  0  0  0  0  0  0  0  0
   36.7410   30.7900   37.5760 H   0  0  0  0  0  0  0  0  0  0  0  0
   35.7350   31.3470   38.9230 H   0  0  0  0  0  0  0  0  0  0  0  0
   39.9900   32.7480   39.0490 C   0  0  0  0  0  0  0  0  0  0  0  0
   39.0630   31.7640   38.6740 C   0  0  0  0  0  0  0  0  0  0  0  0
   37.7390   31.9290   39.0540 C   0  0  0  0  0  0  0  0  0  0  0  0
   37.4030   33.0380   39.7730 N   0  0  0  0  0  0  0  0  0  0  0  0
   38.3260   33.9800   40.1250 C   0  0  0  0  0  0  0  0  0  0  0  0
   39.6030   33.8210   39.7590 N   0  0  0  0  0  0  0  0  0  0  0  0
   41.0170   32.5550   38.7160 H   0  0  0  0  0  0  0  0  0  0  0  0
   39.3950   30.8960   38.0960 H   0  0  0  0  0  0  0  0  0  0  0  0
   38.0700   34.8560   40.6920 H   0  0  0  0  0  0  0  0  0  0  0  0
   34.3920   29.3050   39.6920 O   0  0  0  0  0  0  0  0  0  0  0  0
   35.6700   29.5710   40.4530 P   0  0  2  0  0  0  0  0  0  0  0  0
   35.5840   30.9800   41.3680 O   0  0  0  0  0  0  0  0  0  0  0  0
   34.6580   31.2830   41.4260 H   0  0  0  0  0  0  0  0  0  0  0  0
   35.9610   28.2350   41.4320 O   0  0  0  0  0  0  0  0  0  0  0  0
   37.1790   28.1200   42.0850 C   0  0  0  0  0  0  0  0  0  0  0  0
   37.5980   26.8240   42.3970 C   0  0  0  0  0  3  0  0  0  0  0  0
   38.8040   26.6080   43.0510 C   0  0  0  0  0  0  0  0  0  0  0  0
   39.1530   25.5970   43.3060 H   0  0  0  0  0  0  0  0  0  0  0  0
   39.5410   27.6970   43.3650 N   0  0  0  0  0  0  0  0  0  0  0  0
   39.1090   28.9300   43.0500 C   0  0  0  0  0  3  0  0  0  0  0  0
   37.9610   29.1510   42.4270 N   0  0  0  0  0  0  0  0  0  0  0  0
  1 15  1  0  0  0  0
  2  4  1  0  0  0  0
  2  7  1  0  0  0  0
  2  1  1  0  0  0  0
  3  2  1  0  0  0  0
  5 10  1  0  0  0  0
  6  5  2  0  0  0  0
  6  7  1  0  0  0  0
  7  8  2  0  0  0  0
  8  9  1  0  0  0  0
  9 13  1  0  0  0  0
 10  9  2  0  0  0  0
 11  5  1  0  0  0  0
 12  6  1  0  0  0  0
 15 14  2  6  0  0  0
 15 16  1  0  0  0  0
 15 18  1  0  0  0  0
 16 17  1  0  0  0  0
 18 19  1  0  0  0  0
 19 20  2  0  0  0  0
 19 25  1  0  0  0  0
 20 21  1  0  0  0  0
 21 22  1  0  0  0  0
 21 23  2  0  0  0  0
 24 23  1  0  0  0  0
 25 24  2  0  0  0  0
M  END
>  <minimizedAffinity>
-4.88511705

$$$$

 OpenBabel03252509323D

 25 26  0  0  0  0  0  0  0  0999 V2000
   36.5680   28.2790   41.2190 O   0  0  0  0  0  0  0  0  0  0  0  0
   36.5720   27.7170   42.4980 C   0  0  0  0  0  0  0  0  0  0  0  0
   36.8240   28.4370   43.2980 H   0  0  0  0  0  0  0  0  0  0  0  0
   35.5410   27.3390   42.7640 H   0  0  0  0  0  0  0  0  0  0  0  0
   37.9220   24.2440   42.1590 C   0  0  0  0  0  0  0  0  0  0  0  0
   37.0420   25.3340   42.0840 C   0  0  0  0  0  0  0  0  0  0  0  0
   37.4710   26.5610   42.5660 C   0  0  0  0  0  0  0  0  0  0  0  0
   38.7270   26.6490   43.0900 N   0  0  0  0  0  0  0  0  0  0  0  0
   39.5640   25.5720   43.1510 C   0  0  0  0  0  0  0  0  0  0  0  0
   39.1490   24.3880   42.6860 N   0  0  0  0  0  0  0  0  0  0  0  0
   37.5180   23.3050   41.7600 H   0  0  0  0  0  0  0  0  0  0  0  0
   36.0450   25.1990   41.6520 H   0  0  0  0  0  0  0  0  0  0  0  0
   40.5550   25.6330   43.5620 H   0  0  0  0  0  0  0  0  0  0  0  0
   37.9670   30.0060   42.5960 O   0  0  0  0  0  0  0  0  0  0  0  0
   37.0620   29.8790   41.3930 P   0  0  2  0  0  0  0  0  0  0  0  0
   35.6870   30.8400   41.5270 O   0  0  0  0  0  0  0  0  0  0  0  0
   35.7990   31.4800   42.2560 H   0  0  0  0  0  0  0  0  0  0  0  0
   37.9630   30.3030   40.0380 O   0  0  0  0  0  0  0  0  0  0  0  0
   38.5220   31.5700   39.9600 C   0  0  0  0  0  0  0  0  0  0  0  0
   39.7700   31.6620   39.3370 C   0  0  0  0  0  3  0  0  0  0  0  0
   40.4090   32.8890   39.2110 C   0  0  0  0  0  0  0  0  0  0  0  0
   41.3900   32.9850   38.7250 H   0  0  0  0  0  0  0  0  0  0  0  0
   39.7740   33.9720   39.7120 N   0  0  0  0  0  0  0  0  0  0  0  0
   38.5740   33.8490   40.3060 C   0  0  0  0  0  3  0  0  0  0  0  0
   37.9530   32.6850   40.4330 N   0  0  0  0  0  0  0  0  0  0  0  0
  1 15  1  0  0  0  0
  1  2  1  0  0  0  0
  2  7  1  0  0  0  0
  2  4  1  0  0  0  0
  2  3  1  0  0  0  0
  5 10  1  0  0  0  0
  6  5  2  0  0  0  0
  6  7  1  0  0  0  0
  7  8  2  0  0  0  0
  8  9  1  0  0  0  0
  9 13  1  0  0  0  0
 10  9  2  0  0  0  0
 11  5  1  0  0  0  0
 12  6  1  0  0  0  0
 15 16  1  0  0  0  0
 15 14  2  1  0  0  0
 16 17  1  0  0  0  0
 18 15  1  0  0  0  0
 19 18  1  0  0  0  0
 19 25  1  0  0  0  0
 20 19  2  0  0  0  0
 21 20  1  0  0  0  0
 21 23  2  0  0  0  0
 22 21  1  0  0  0  0
 23 24  1  0  0  0  0
 24 25  2  0  0  0  0
M  END
>  <minimizedAffinity>
-4.83014774

$$$$

 OpenBabel03252509323D

 25 26  0  0  0  0  0  0  0  0999 V2000
   37.5400   29.8180   39.8260 O   0  0  0  0  0  0  0  0  0  0  0  0
   37.1320   31.0290   39.2590 C   0  0  0  0  0  0  0  0  0  0  0  0
   36.8240   30.9420   38.2010 H   0  0  0  0  0  0  0  0  0  0  0  0
   36.2180   31.4240   39.7940 H   0  0  0  0  0  0  0  0  0  0  0  0
   38.9230   34.1600   40.2500 C   0  0  0  0  0  0  0  0  0  0  0  0
   37.9110   33.1960   40.1360 C   0  0  0  0  0  0  0  0  0  0  0  0
   38.1720   32.0530   39.3940 C   0  0  0  0  0  0  0  0  0  0  0  0
   39.3990   31.9230   38.8130 N   0  0  0  0  0  0  0  0  0  0  0  0
   40.3660   32.8770   38.9400 C   0  0  0  0  0  0  0  0  0  0  0  0
   40.1150   33.9790   39.6550 N   0  0  0  0  0  0  0  0  0  0  0  0
   38.6500   35.0370   40.8500 H   0  0  0  0  0  0  0  0  0  0  0  0
   36.9470   33.3600   40.6260 H   0  0  0  0  0  0  0  0  0  0  0  0
   41.3350   32.7820   38.4850 H   0  0  0  0  0  0  0  0  0  0  0  0
   36.1560   28.2570   41.4030 O   0  0  0  0  0  0  0  0  0  0  0  0
   36.7030   29.6600   41.2790 P   0  0  2  0  0  0  0  0  0  0  0  0
   35.4870   30.8230   41.3130 O   0  0  0  0  0  0  0  0  0  0  0  0
   34.6510   30.4210   41.6180 H   0  0  0  0  0  0  0  0  0  0  0  0
   37.7900   29.8900   42.5400 O   0  0  0  0  0  0  0  0  0  0  0  0
   38.7040   28.8910   42.8430 C   0  0  0  0  0  0  0  0  0  0  0  0
   40.0370   29.1440   42.5040 C   0  0  0  0  0  3  0  0  0  0  0  0
   41.0240   28.2030   42.7680 C   0  0  0  0  0  0  0  0  0  0  0  0
   42.0780   28.3800   42.5100 H   0  0  0  0  0  0  0  0  0  0  0  0
   40.6390   27.0500   43.3600 N   0  0  0  0  0  0  0  0  0  0  0  0
   39.3490   26.8390   43.6720 C   0  0  0  0  0  3  0  0  0  0  0  0
   38.3970   27.7270   43.4270 N   0  0  0  0  0  0  0  0  0  0  0  0
  1 15  1  0  0  0  0
  2  7  1  0  0  0  0
  2  4  1  0  0  0  0
  2  1  1  0  0  0  0
  3  2  1  0  0  0  0
  5 11  1  0  0  0  0
  6  5  1  0  0  0  0
  6 12  1  0  0  0  0
  7  6  2  0  0  0  0
  8  9  2  0  0  0  0
  8  7  1  0  0  0  0
  9 10  1  0  0  0  0
 10  5  2  0  0  0  0
 13  9  1  0  0  0  0
 15 16  1  0  0  0  0
 15 14  2  1  0  0  0
 15 18  1  0  0  0  0
 16 17  1  0  0  0  0
 18 19  1  0  0  0  0
 19 25  1  0  0  0  0
 20 21  1  0  0  0  0
 20 19  2  0  0  0  0
 21 23  2  0  0  0  0
 22 21  1  0  0  0  0
 23 24  1  0  0  0  0
 25 24  2  0  0  0  0
M  END
>  <minimizedAffinity>
-4.71781826

$$$$

 OpenBabel03252509323D

 25 26  0  0  0  0  0  0  0  0999 V2000
   38.2440   29.5670   40.8010 O   0  0  0  0  0  0  0  0  0  0  0  0
   38.6630   30.5040   41.7510 C   0  0  0  0  0  0  0  0  0  0  0  0
   37.9280   30.6760   42.5570 H   0  0  0  0  0  0  0  0  0  0  0  0
   39.5920   30.1370   42.2790 H   0  0  0  0  0  0  0  0  0  0  0  0
   40.6660   33.3310   40.3410 C   0  0  0  0  0  0  0  0  0  0  0  0
   40.3540   32.1070   40.9510 C   0  0  0  0  0  0  0  0  0  0  0  0
   39.0180   31.7770   41.1170 C   0  0  0  0  0  0  0  0  0  0  0  0
   38.0720   32.6570   40.6790 N   0  0  0  0  0  0  0  0  0  0  0  0
   38.4040   33.8420   40.0880 C   0  0  0  0  0  0  0  0  0  0  0  0
   39.6930   34.1610   39.9290 N   0  0  0  0  0  0  0  0  0  0  0  0
   41.7410   33.5290   40.2420 H   0  0  0  0  0  0  0  0  0  0  0  0
   41.1590   31.4440   41.2810 H   0  0  0  0  0  0  0  0  0  0  0  0
   37.6660   34.5410   39.7410 H   0  0  0  0  0  0  0  0  0  0  0  0
   36.0590   28.3190   40.0900 O   0  0  0  0  0  0  0  0  0  0  0  0
   36.6550   29.1660   41.1900 P   0  0  2  0  0  0  0  0  0  0  0  0
   35.7970   30.5930   41.4300 O   0  0  0  0  0  0  0  0  0  0  0  0
   34.9370   30.5460   40.9710 H   0  0  0  0  0  0  0  0  0  0  0  0
   36.6750   28.2330   42.5890 O   0  0  0  0  0  0  0  0  0  0  0  0
   37.5420   27.1540   42.6770 C   0  0  0  0  0  0  0  0  0  0  0  0
   38.6500   27.3130   43.5160 C   0  0  0  0  0  3  0  0  0  0  0  0
   39.5740   26.2880   43.6680 C   0  0  0  0  0  0  0  0  0  0  0  0
   40.4520   26.3910   44.3220 H   0  0  0  0  0  0  0  0  0  0  0  0
   39.3540   25.1470   42.9770 N   0  0  0  0  0  0  0  0  0  0  0  0
   38.2790   25.0270   42.1790 C   0  0  0  0  0  3  0  0  0  0  0  0
   37.3890   25.9960   42.0240 N   0  0  0  0  0  0  0  0  0  0  0  0
  1 15  1  0  0  0  0
  1  2  1  0  0  0  0
  2  4  1  0  0  0  0
  2  3  1  0  0  0  0
  5  6  1  0  0  0  0
  6  7  2  0  0  0  0
  6 12  1  0  0  0  0
  7  2  1  0  0  0  0
  8  7  1  0  0  0  0
  9  8  2  0  0  0  0
 10  9  1  0  0  0  0
 10  5  2  0  0  0  0
 11  5  1  0  0  0  0
 13  9  1  0  0  0  0
 15 14  2  6  0  0  0
 15 16  1  0  0  0  0
 15 18  1  0  0  0  0
 17 16  1  0  0  0  0
 18 19  1  0  0  0  0
 19 20  1  0  0  0  0
 20 21  2  0  0  0  0
 21 22  1  0  0  0  0
 23 21  1  0  0  0  0
 24 23  2  0  0  0  0
 25 24  1  0  0  0  0
 25 19  2  0  0  0  0
M  END
>  <minimizedAffinity>
-4.61272955

$$$$

 OpenBabel03252509323D

 25 26  0  0  0  0  0  0  0  0999 V2000
   38.6900   30.6720   40.1010 O   0  0  0  0  0  0  0  0  0  0  0  0
   39.0340   30.9110   38.7670 C   0  0  0  0  0  0  0  0  0  0  0  0
   39.4490   30.0270   38.2510 H   0  0  0  0  0  0  0  0  0  0  0  0
   38.1160   31.1890   38.1700 H   0  0  0  0  0  0  0  0  0  0  0  0
   41.6530   33.2350   37.4510 C   0  0  0  0  0  0  0  0  0  0  0  0
   40.7730   32.1470   37.5340 C   0  0  0  0  0  0  0  0  0  0  0  0
   39.9640   32.0390   38.6550 C   0  0  0  0  0  0  0  0  0  0  0  0
   40.0640   32.9960   39.6220 N   0  0  0  0  0  0  0  0  0  0  0  0
   40.9290   34.0460   39.5160 C   0  0  0  0  0  0  0  0  0  0  0  0
   41.7100   34.1490   38.4340 N   0  0  0  0  0  0  0  0  0  0  0  0
   42.2630   33.2590   36.5390 H   0  0  0  0  0  0  0  0  0  0  0  0
   40.7400   31.4110   36.7240 H   0  0  0  0  0  0  0  0  0  0  0  0
   41.0140   34.8030   40.2720 H   0  0  0  0  0  0  0  0  0  0  0  0
   36.2900   30.5580   39.0700 O   0  0  0  0  0  0  0  0  0  0  0  0
   37.0630   31.0760   40.2600 P   0  0  2  0  0  0  0  0  0  0  0  0
   36.9510   32.7480   40.4130 O   0  0  0  0  0  0  0  0  0  0  0  0
   36.2380   33.0880   39.8390 H   0  0  0  0  0  0  0  0  0  0  0  0
   36.4600   30.3050   41.6270 O   0  0  0  0  0  0  0  0  0  0  0  0
   36.9180   29.0360   41.9520 C   0  0  0  0  0  0  0  0  0  0  0  0
   37.6140   28.9170   43.1580 C   0  0  0  0  0  3  0  0  0  0  0  0
   38.1120   27.6870   43.5690 C   0  0  0  0  0  0  0  0  0  0  0  0
   38.6620   27.5700   44.5130 H   0  0  0  0  0  0  0  0  0  0  0  0
   37.8910   26.6280   42.7580 N   0  0  0  0  0  0  0  0  0  0  0  0
   37.2180   26.7770   41.6040 C   0  0  0  0  0  3  0  0  0  0  0  0
   36.7380   27.9440   41.2000 N   0  0  0  0  0  0  0  0  0  0  0  0
  1 15  1  0  0  0  0
  2  1  1  0  0  0  0
  3  2  1  0  0  0  0
  4  2  1  0  0  0  0
  5  6  2  0  0  0  0
  5 10  1  0  0  0  0
  6  7  1  0  0  0  0
  7  2  1  0  0  0  0
  7  8  2  0  0  0  0
  9  8  1  0  0  0  0
  9 13  1  0  0  0  0
 10  9  2  0  0  0  0
 11  5  1  0  0  0  0
 12  6  1  0  0  0  0
 15 14  2  6  0  0  0
 15 16  1  0  0  0  0
 15 18  1  0  0  0  0
 17 16  1  0  0  0  0
 18 19  1  0  0  0  0
 19 20  1  0  0  0  0
 20 21  2  0  0  0  0
 21 22  1  0  0  0  0
 23 21  1  0  0  0  0
 24 23  2  0  0  0  0
 25 24  1  0  0  0  0
 25 19  2  0  0  0  0
M  END
>  <minimizedAffinity>
-4.54206944

$$$$

 OpenBabel03252509323D

 25 26  0  0  0  0  0  0  0  0999 V2000
   37.7130   32.2230   39.2640 O   0  0  0  0  0  0  0  0  0  0  0  0
   38.0460   32.8820   40.4510 C   0  0  0  0  0  0  0  0  0  0  0  0
   37.5890   33.8840   40.5450 H   0  0  0  0  0  0  0  0  0  0  0  0
   37.6610   32.3040   41.3420 H   0  0  0  0  0  0  0  0  0  0  0  0
   41.5580   34.1610   40.2900 C   0  0  0  0  0  0  0  0  0  0  0  0
   40.1670   34.0930   40.1230 C   0  0  0  0  0  0  0  0  0  0  0  0
   39.5000   32.9790   40.6120 C   0  0  0  0  0  0  0  0  0  0  0  0
   40.2280   32.0060   41.2300 N   0  0  0  0  0  0  0  0  0  0  0  0
   41.5820   32.0980   41.3790 C   0  0  0  0  0  0  0  0  0  0  0  0
   42.2250   33.1720   40.9080 N   0  0  0  0  0  0  0  0  0  0  0  0
   42.0210   35.0680   39.8820 H   0  0  0  0  0  0  0  0  0  0  0  0
   39.6400   34.9070   39.6180 H   0  0  0  0  0  0  0  0  0  0  0  0
   42.1630   31.3360   41.8650 H   0  0  0  0  0  0  0  0  0  0  0  0
   36.0760   30.3280   38.5110 O   0  0  0  0  0  0  0  0  0  0  0  0
   36.8410   30.8510   39.7040 P   0  0  2  0  0  0  0  0  0  0  0  0
   35.8250   31.2620   40.9810 O   0  0  0  0  0  0  0  0  0  0  0  0
   34.9320   30.9000   40.8250 H   0  0  0  0  0  0  0  0  0  0  0  0
   37.9330   29.6580   40.1640 O   0  0  0  0  0  0  0  0  0  0  0  0
   37.7090   28.9420   41.3310 C   0  0  0  0  0  0  0  0  0  0  0  0
   37.3490   27.6000   41.1780 C   0  0  0  0  0  3  0  0  0  0  0  0
   37.1050   26.8030   42.2890 C   0  0  0  0  0  0  0  0  0  0  0  0
   36.8200   25.7450   42.1920 H   0  0  0  0  0  0  0  0  0  0  0  0
   37.2320   27.3790   43.5050 N   0  0  0  0  0  0  0  0  0  0  0  0
   37.5790   28.6730   43.6170 C   0  0  0  0  0  3  0  0  0  0  0  0
   37.8150   29.4450   42.5660 N   0  0  0  0  0  0  0  0  0  0  0  0
  1 15  1  0  0  0  0
  1  2  1  0  0  0  0
  2  3  1  0  0  0  0
  2  7  1  0  0  0  0
  2  4  1  0  0  0  0
  5 10  1  0  0  0  0
  6  5  2  0  0  0  0
  6  7  1  0  0  0  0
  7  8  2  0  0  0  0
  8  9  1  0  0  0  0
  9 13  1  0  0  0  0
 10  9  2  0  0  0  0
 11  5  1  0  0  0  0
 12  6  1  0  0  0  0
 15 14  2  6  0  0  0
 15 18  1  0  0  0  0
 15 16  1  0  0  0  0
 17 16  1  0  0  0  0
 18 19  1  0  0  0  0
 19 25  1  0  0  0  0
 20 19  2  0  0  0  0
 20 21  1  0  0  0  0
 21 23  2  0  0  0  0
 22 21  1  0  0  0  0
 23 24  1  0  0  0  0
 25 24  2  0  0  0  0
M  END
>  <minimizedAffinity>
-4.43730783

$$$$

 OpenBabel03252509323D

 25 26  0  0  0  0  0  0  0  0999 V2000
   38.3660   30.5630   42.0950 O   0  0  0  0  0  0  0  0  0  0  0  0
   39.4110   30.3410   41.1930 C   0  0  0  0  0  0  0  0  0  0  0  0
   39.6630   29.2730   41.0620 H   0  0  0  0  0  0  0  0  0  0  0  0
   39.1210   30.6980   40.1620 H   0  0  0  0  0  0  0  0  0  0  0  0
   42.4640   31.4530   43.0480 C   0  0  0  0  0  0  0  0  0  0  0  0
   41.3210   30.7150   42.7040 C   0  0  0  0  0  0  0  0  0  0  0  0
   40.6090   31.0940   41.5760 C   0  0  0  0  0  0  0  0  0  0  0  0
   41.0540   32.1640   40.8560 N   0  0  0  0  0  0  0  0  0  0  0  0
   42.1690   32.8640   41.2130 C   0  0  0  0  0  0  0  0  0  0  0  0
   42.8560   32.4990   42.3020 N   0  0  0  0  0  0  0  0  0  0  0  0
   42.9790   31.0990   43.9500 H   0  0  0  0  0  0  0  0  0  0  0  0
   41.0160   29.8670   43.3230 H   0  0  0  0  0  0  0  0  0  0  0  0
   42.5260   33.7080   40.6520 H   0  0  0  0  0  0  0  0  0  0  0  0
   37.3320   29.2370   40.0920 O   0  0  0  0  0  0  0  0  0  0  0  0
   37.0080   29.7980   41.4570 P   0  0  2  0  0  0  0  0  0  0  0  0
   35.7530   30.9160   41.4040 O   0  0  0  0  0  0  0  0  0  0  0  0
   35.2980   30.8660   40.5420 H   0  0  0  0  0  0  0  0  0  0  0  0
   36.6170   28.5010   42.4540 O   0  0  0  0  0  0  0  0  0  0  0  0
   37.5700   27.5250   42.7080 C   0  0  0  0  0  0  0  0  0  0  0  0
   37.3790   26.2920   42.0760 C   0  0  0  0  0  3  0  0  0  0  0  0
   38.2800   25.2520   42.2690 C   0  0  0  0  0  0  0  0  0  0  0  0
   38.1500   24.2750   41.7830 H   0  0  0  0  0  0  0  0  0  0  0  0
   39.3320   25.4880   43.0840 N   0  0  0  0  0  0  0  0  0  0  0  0
   39.4860   26.6850   43.6760 C   0  0  0  0  0  3  0  0  0  0  0  0
   38.6350   27.6850   43.5010 N   0  0  0  0  0  0  0  0  0  0  0  0
  2  7  1  0  0  0  0
  2  1  1  0  0  0  0
  3  2  1  0  0  0  0
  4  2  1  0  0  0  0
  5 11  1  0  0  0  0
  6  5  1  0  0  0  0
  6 12  1  0  0  0  0
  7  6  2  0  0  0  0
  8  9  2  0  0  0  0
  8  7  1  0  0  0  0
  9 10  1  0  0  0  0
 10  5  2  0  0  0  0
 13  9  1  0  0  0  0
 15 14  2  6  0  0  0
 15  1  1  0  0  0  0
 15 18  1  0  0  0  0
 16 15  1  0  0  0  0
 17 16  1  0  0  0  0
 18 19  1  0  0  0  0
 19 25  1  0  0  0  0
 20 21  1  0  0  0  0
 20 19  2  0  0  0  0
 21 23  2  0  0  0  0
 22 21  1  0  0  0  0
 23 24  1  0  0  0  0
 25 24  2  0  0  0  0
M  END
>  <minimizedAffinity>
-4.39132929

$$$$

 OpenBabel03252509323D

 25 26  0  0  0  0  0  0  0  0999 V2000
   38.4840   30.6250   40.2800 O   0  0  0  0  0  0  0  0  0  0  0  0
   38.7400   30.7910   41.6440 C   0  0  0  0  0  0  0  0  0  0  0  0
   39.6990   31.2970   41.8570 H   0  0  0  0  0  0  0  0  0  0  0  0
   37.9540   31.4530   42.1130 H   0  0  0  0  0  0  0  0  0  0  0  0
   39.7630   27.5420   43.1910 C   0  0  0  0  0  0  0  0  0  0  0  0
   39.8440   28.7650   42.5090 C   0  0  0  0  0  0  0  0  0  0  0  0
   38.6840   29.5080   42.3530 C   0  0  0  0  0  0  0  0  0  0  0  0
   37.5220   29.0150   42.8690 N   0  0  0  0  0  0  0  0  0  0  0  0
   37.4710   27.8220   43.5290 C   0  0  0  0  0  0  0  0  0  0  0  0
   38.5900   27.1040   43.6800 N   0  0  0  0  0  0  0  0  0  0  0  0
   40.7160   27.0060   43.2790 H   0  0  0  0  0  0  0  0  0  0  0  0
   40.8070   29.1060   42.1180 H   0  0  0  0  0  0  0  0  0  0  0  0
   36.5600   27.4260   43.9390 H   0  0  0  0  0  0  0  0  0  0  0  0
   37.4470   33.0070   39.9820 O   0  0  0  0  0  0  0  0  0  0  0  0
   37.1100   31.5350   39.9340 P   0  0  2  0  0  0  0  0  0  0  0  0
   35.9120   31.1190   41.0400 O   0  0  0  0  0  0  0  0  0  0  0  0
   35.4820   31.9250   41.3830 H   0  0  0  0  0  0  0  0  0  0  0  0
   36.6260   31.1810   38.3630 O   0  0  0  0  0  0  0  0  0  0  0  0
   36.2350   29.8890   38.0440 C   0  0  0  0  0  0  0  0  0  0  0  0
   36.1970   29.5680   36.6840 C   0  0  0  0  0  3  0  0  0  0  0  0
   35.8170   28.2980   36.2680 C   0  0  0  0  0  0  0  0  0  0  0  0
   35.7800   28.0240   35.2040 H   0  0  0  0  0  0  0  0  0  0  0  0
   35.4910   27.4030   37.2270 N   0  0  0  0  0  0  0  0  0  0  0  0
   35.5380   27.7450   38.5260 C   0  0  0  0  0  3  0  0  0  0  0  0
   35.8980   28.9520   38.9380 N   0  0  0  0  0  0  0  0  0  0  0  0
  1  2  1  0  0  0  0
  2  3  1  0  0  0  0
  2  4  1  0  0  0  0
  2  7  1  0  0  0  0
  5 11  1  0  0  0  0
  5 10  1  0  0  0  0
  6  5  2  0  0  0  0
  7  6  1  0  0  0  0
  7  8  2  0  0  0  0
  8  9  1  0  0  0  0
  9 10  2  0  0  0  0
  9 13  1  0  0  0  0
 12  6  1  0  0  0  0
 15 14  2  1  0  0  0
 15  1  1  0  0  0  0
 15 16  1  0  0  0  0
 16 17  1  0  0  0  0
 18 15  1  0  0  0  0
 19 18  1  0  0  0  0
 19 25  1  0  0  0  0
 20 19  2  0  0  0  0
 21 20  1  0  0  0  0
 21 23  2  0  0  0  0
 22 21  1  0  0  0  0
 23 24  1  0  0  0  0
 24 25  2  0  0  0  0
M  END
>  <minimizedAffinity>
-4.25345469

$$$$

 OpenBabel03252509323D

 25 26  0  0  0  0  0  0  0  0999 V2000
   38.2190   30.3580   41.1980 O   0  0  0  0  0  0  0  0  0  0  0  0
   37.6830   29.6600   42.2840 C   0  0  0  0  0  0  0  0  0  0  0  0
   38.0690   29.9990   43.2620 H   0  0  0  0  0  0  0  0  0  0  0  0
   36.5660   29.8230   42.3420 H   0  0  0  0  0  0  0  0  0  0  0  0
   37.1120   25.9650   42.3880 C   0  0  0  0  0  0  0  0  0  0  0  0
   36.8900   27.3410   42.5390 C   0  0  0  0  0  0  0  0  0  0  0  0
   37.8890   28.2160   42.1380 C   0  0  0  0  0  0  0  0  0  0  0  0
   39.0370   27.6960   41.6180 N   0  0  0  0  0  0  0  0  0  0  0  0
   39.2270   26.3510   41.4820 C   0  0  0  0  0  0  0  0  0  0  0  0
   38.2630   25.5070   41.8690 N   0  0  0  0  0  0  0  0  0  0  0  0
   36.2810   25.3310   42.7240 H   0  0  0  0  0  0  0  0  0  0  0  0
   35.9460   27.6960   42.9640 H   0  0  0  0  0  0  0  0  0  0  0  0
   40.1280   25.9330   41.0740 H   0  0  0  0  0  0  0  0  0  0  0  0
   37.2980   32.6340   40.2970 O   0  0  0  0  0  0  0  0  0  0  0  0
   36.9390   31.1770   40.4720 P   0  0  2  0  0  0  0  0  0  0  0  0
   35.5720   30.9680   41.4310 O   0  0  0  0  0  0  0  0  0  0  0  0
   35.1110   31.8210   41.5430 H   0  0  0  0  0  0  0  0  0  0  0  0
   36.7020   30.5300   38.9380 O   0  0  0  0  0  0  0  0  0  0  0  0
   36.9700   29.1870   38.7150 C   0  0  0  0  0  0  0  0  0  0  0  0
   35.9540   28.2860   39.0490 C   0  0  0  0  0  3  0  0  0  0  0  0
   36.1300   26.9210   38.8620 C   0  0  0  0  0  0  0  0  0  0  0  0
   35.3450   26.1950   39.1170 H   0  0  0  0  0  0  0  0  0  0  0  0
   37.3130   26.5130   38.3490 N   0  0  0  0  0  0  0  0  0  0  0  0
   38.2690   27.4060   38.0400 C   0  0  0  0  0  3  0  0  0  0  0  0
   38.1150   28.7110   38.2130 N   0  0  0  0  0  0  0  0  0  0  0  0
  1  2  1  0  0  0  0
  2  4  1  0  0  0  0
  2  3  1  0  0  0  0
  5  6  1  0  0  0  0
  5 11  1  0  0  0  0
  6 12  1  0  0  0  0
  7  2  1  0  0  0  0
  7  6  2  0  0  0  0
  8  7  1  0  0  0  0
  9  8  2  0  0  0  0
  9 10  1  0  0  0  0
 10  5  2  0  0  0  0
 13  9  1  0  0  0  0
 15 14  2  6  0  0  0
 15  1  1  0  0  0  0
 15 16  1  0  0  0  0
 16 17  1  0  0  0  0
 18 15  1  0  0  0  0
 19 18  1  0  0  0  0
 19 20  1  0  0  0  0
 21 20  2  0  0  0  0
 21 22  1  0  0  0  0
 23 21  1  0  0  0  0
 24 25  1  0  0  0  0
 24 23  2  0  0  0  0
 25 19  2  0  0  0  0
M  END
>  <minimizedAffinity>
-4.2449584

$$$$
