
 OpenBabel03242521053D

 32 35  0  0  1  0  0  0  0  0999 V2000
   46.7830   34.8260   42.1100 C   0  0  0  0  0  0  0  0  0  0  0  0
   48.0070   35.4530   41.9200 C   0  0  0  0  0  0  0  0  0  0  0  0
   48.7690   35.3700   40.7830 C   0  0  0  0  0  0  0  0  0  0  0  0
   48.3040   34.6080   39.7280 C   0  0  0  0  0  0  0  0  0  0  0  0
   47.0850   33.9950   39.9380 C   0  0  0  0  0  0  0  0  0  0  0  0
   46.3720   34.1000   41.0600 N   0  0  0  0  0  0  0  0  0  0  0  0
   48.4280   36.0650   42.7090 H   0  0  0  0  0  0  0  0  0  0  0  0
   49.7180   35.8820   40.6920 H   0  0  0  0  0  0  0  0  0  0  0  0
   48.8770   34.5170   38.8110 H   0  0  0  0  0  0  0  0  0  0  0  0
   44.4580   35.9170   44.8610 C   0  0  0  0  0  0  0  0  0  0  0  0
   45.1110   35.9520   43.6190 C   0  0  0  0  0  0  0  0  0  0  0  0
   46.0180   34.9500   43.3360 C   0  0  0  0  0  0  0  0  0  0  0  0
   46.2220   33.9930   44.2700 N   0  0  0  0  0  0  0  0  0  0  0  0
   45.5780   33.9800   45.4640 C   0  0  0  0  0  0  0  0  0  0  0  0
   44.6980   34.9570   45.7360 N   0  0  0  0  0  0  0  0  0  0  0  0
   43.7600   36.7450   45.0060 H   0  0  0  0  0  0  0  0  0  0  0  0
   44.9630   36.7170   42.8480 H   0  0  0  0  0  0  0  0  0  0  0  0
   45.7750   33.1890   46.1840 H   0  0  0  0  0  0  0  0  0  0  0  0
   46.5450   33.1580   38.8170 C   0  0  2  0  0  0  0  0  0  0  0  0
   46.6670   31.6760   39.0080 C   0  0  0  0  0  0  0  0  0  0  0  0
   47.4950   32.3960   37.9910 C   0  0  1  0  0  0  0  0  0  0  0  0
   45.5740   33.4720   38.3740 H   0  0  0  0  0  0  0  0  0  0  0  0
   47.1150   31.2560   39.9120 H   0  0  0  0  0  0  0  0  0  0  0  0
   45.8850   30.9940   38.5790 H   0  0  0  0  0  0  0  0  0  0  0  0
   48.5940   32.5170   38.1340 H   0  0  0  0  0  0  0  0  0  0  0  0
   47.1460   32.3000   36.5440 C   0  0  0  0  0  0  0  0  0  0  0  0
   48.1650   32.2520   35.5990 C   0  0  0  0  0  0  0  0  0  0  0  0
   47.8540   32.1610   34.2410 C   0  0  0  0  0  0  0  0  0  0  0  0
   48.6860   32.1270   33.5540 H   0  0  0  0  0  0  0  0  0  0  0  0
   46.5630   32.1230   33.8670 N   0  0  0  0  0  0  0  0  0  0  0  0
   45.5830   32.1720   34.7870 C   0  0  0  0  0  0  0  0  0  0  0  0
   45.8470   32.2590   36.1230 N   0  0  0  0  0  0  0  0  0  0  0  0
  1 12  1  0  0  0  0
  2  1  1  0  0  0  0
  2  7  1  0  0  0  0
  3  2  2  0  0  0  0
  4  5  2  0  0  0  0
  4  3  1  0  0  0  0
  5  6  1  0  0  0  0
  6  1  2  0  0  0  0
  8  3  1  0  0  0  0
  9  4  1  0  0  0  0
 10 16  1  0  0  0  0
 10 15  1  0  0  0  0
 11 10  2  0  0  0  0
 12 11  1  0  0  0  0
 12 13  2  0  0  0  0
 13 14  1  0  0  0  0
 14 15  2  0  0  0  0
 14 18  1  0  0  0  0
 17 11  1  0  0  0  0
 19 22  1  6  0  0  0
 19 20  1  0  0  0  0
 19  5  1  0  0  0  0
 20 23  1  0  0  0  0
 21 25  1  1  0  0  0
 21 19  1  0  0  0  0
 21 20  1  0  0  0  0
 24 20  1  0  0  0  0
 26 21  1  0  0  0  0
 27 26  2  0  0  0  0
 28 27  1  0  0  0  0
 29 28  1  0  0  0  0
 30 28  2  0  0  0  0
 30 31  1  0  0  0  0
 31 32  2  0  0  0  0
 32 26  1  0  0  0  0
M  END
>  <minimizedAffinity>
-5.75989246

>  <minimizedRMSD>
1.45800734

$$$$
