
 OpenBabel03242516303D

 44 48  0  0  0  0  0  0  0  0999 V2000
   37.0680   26.7700   41.0970 C   0  0  0  0  0  0  0  0  0  0  0  0
   36.5190   25.9800   40.1200 N   0  0  0  0  0  0  0  0  0  0  0  0
   36.8850   24.7190   39.8970 C   0  0  0  0  0  0  0  0  0  0  0  0
   37.8430   24.2110   40.6770 N   0  0  0  0  0  0  0  0  0  0  0  0
   38.4330   24.9150   41.6540 C   0  0  0  0  0  0  0  0  0  0  0  0
   39.4320   24.3820   42.4710 C   0  0  0  0  0  0  0  0  0  0  0  0
   40.0060   25.1190   43.4490 C   0  0  0  0  0  0  0  0  0  0  0  0
   39.6170   26.4080   43.6580 C   0  0  0  0  0  0  0  0  0  0  0  0
   38.6220   26.9880   42.8700 C   0  0  0  0  0  0  0  0  0  0  0  0
   38.0450   26.2400   41.8850 C   0  0  0  0  0  0  0  0  0  0  0  0
   36.3940   24.1760   39.1040 H   0  0  0  0  0  0  0  0  0  0  0  0
   39.6940   23.3680   42.2590 H   0  0  0  0  0  0  0  0  0  0  0  0
   40.7820   24.6690   44.0670 H   0  0  0  0  0  0  0  0  0  0  0  0
   40.1210   26.9450   44.4620 H   0  0  0  0  0  0  0  0  0  0  0  0
   38.2980   28.3970   43.1710 C   0  0  0  0  0  0  0  0  0  0  0  0
   37.4660   28.8260   42.6070 H   0  0  0  0  0  0  0  0  0  0  0  0
   38.3880   28.6750   44.2420 H   0  0  0  0  0  0  0  0  0  0  0  0
   39.4160   29.3010   42.6720 C   0  0  0  0  0  0  0  0  0  0  0  0
   40.3650   28.8570   41.7690 C   0  0  0  0  0  3  0  0  0  0  0  0
   41.4170   29.5760   41.2510 C   0  0  0  0  0  0  0  0  0  0  0  0
   42.0980   29.1170   40.5480 H   0  0  0  0  0  0  0  0  0  0  0  0
   41.5140   30.8410   41.6830 N   0  0  0  0  0  0  0  0  0  0  0  0
   40.6190   31.3270   42.5600 C   0  0  0  0  0  3  0  0  0  0  0  0
   39.6020   30.6020   43.0490 N   0  0  0  0  0  0  0  0  0  0  0  0
   36.5160   28.3790   41.3610 S   0  0  0  0  0  0  0  0  0  0  0  0
   37.8150   31.4750   39.1860 C   0  0  0  0  0  0  0  0  0  0  0  0
   37.5610   30.5920   40.2270 C   0  0  0  0  0  0  0  0  0  0  0  0
   36.8320   29.4410   40.0030 C   0  0  0  0  0  0  0  0  0  0  0  0
   36.3470   29.1520   38.7490 C   0  0  0  0  0  0  0  0  0  0  0  0
   36.5760   29.9940   37.7060 C   0  0  0  0  0  0  0  0  0  0  0  0
   37.3070   31.1420   37.9460 C   0  0  0  0  0  0  0  0  0  0  0  0
   37.9430   30.8290   41.1900 H   0  0  0  0  0  0  0  0  0  0  0  0
   35.7840   28.2390   38.6300 H   0  0  0  0  0  0  0  0  0  0  0  0
   36.1980   29.7730   36.7170 H   0  0  0  0  0  0  0  0  0  0  0  0
   37.4960   31.8220   37.1180 H   0  0  0  0  0  0  0  0  0  0  0  0
   40.6900   33.7330   39.2630 C   0  0  0  0  0  0  0  0  0  0  0  0
   40.1660   34.9080   39.8670 C   0  0  0  0  0  0  0  0  0  0  0  0
   38.8190   34.9110   40.2460 C   0  0  0  0  0  0  0  0  0  0  0  0
   38.0410   33.8100   40.0330 N   0  0  0  0  0  0  0  0  0  0  0  0
   38.5920   32.6980   39.4460 C   0  0  0  0  0  0  0  0  0  0  0  0
   39.8980   32.6490   39.0610 N   0  0  0  0  0  0  0  0  0  0  0  0
   41.7230   33.6890   38.9570 H   0  0  0  0  0  0  0  0  0  0  0  0
   40.7960   35.7560   40.0210 H   0  0  0  0  0  0  0  0  0  0  0  0
   38.3880   35.7810   40.7050 H   0  0  0  0  0  0  0  0  0  0  0  0
  1 25  1  0  0  0  0
  1 10  1  0  0  0  0
  2  1  2  0  0  0  0
  3  2  1  0  0  0  0
  3  4  2  0  0  0  0
  4  5  1  0  0  0  0
  5 10  2  0  0  0  0
  5  6  1  0  0  0  0
  6  7  2  0  0  0  0
  7  8  1  0  0  0  0
  7 13  1  0  0  0  0
  8 14  1  0  0  0  0
  9 15  1  0  0  0  0
  9  8  2  0  0  0  0
 10  9  1  0  0  0  0
 11  3  1  0  0  0  0
 12  6  1  0  0  0  0
 15 17  1  0  0  0  0
 16 15  1  0  0  0  0
 18 24  1  0  0  0  0
 18 15  1  0  0  0  0
 19 18  2  0  0  0  0
 20 22  2  0  0  0  0
 20 19  1  0  0  0  0
 21 20  1  0  0  0  0
 22 23  1  0  0  0  0
 23 24  2  0  0  0  0
 26 40  1  0  0  0  0
 26 27  1  0  0  0  0
 27 32  1  0  0  0  0
 28 27  2  0  0  0  0
 28 25  1  0  0  0  0
 29 28  1  0  0  0  0
 30 31  1  0  0  0  0
 30 29  2  0  0  0  0
 31 26  2  0  0  0  0
 33 29  1  0  0  0  0
 34 30  1  0  0  0  0
 35 31  1  0  0  0  0
 36 37  1  0  0  0  0
 37 43  1  0  0  0  0
 37 38  2  0  0  0  0
 38 44  1  0  0  0  0
 39 38  1  0  0  0  0
 40 39  2  0  0  0  0
 41 36  2  0  0  0  0
 41 40  1  0  0  0  0
 42 36  1  0  0  0  0
M  END
>  <minimizedAffinity>
-6.6813674

$$$$

 OpenBabel03242516303D

 44 48  0  0  0  0  0  0  0  0999 V2000
   38.8120   30.0570   42.2710 C   0  0  0  0  0  0  0  0  0  0  0  0
   40.0700   30.2530   42.7800 N   0  0  0  0  0  0  0  0  0  0  0  0
   40.9170   31.1730   42.3210 C   0  0  0  0  0  0  0  0  0  0  0  0
   40.5020   31.9390   41.3090 N   0  0  0  0  0  0  0  0  0  0  0  0
   39.2880   31.8120   40.7530 C   0  0  0  0  0  0  0  0  0  0  0  0
   38.8550   32.6160   39.6970 C   0  0  0  0  0  0  0  0  0  0  0  0
   37.6230   32.4630   39.1590 C   0  0  0  0  0  0  0  0  0  0  0  0
   36.7730   31.5130   39.6420 C   0  0  0  0  0  0  0  0  0  0  0  0
   37.1580   30.6850   40.6980 C   0  0  0  0  0  0  0  0  0  0  0  0
   38.4020   30.8440   41.2370 C   0  0  0  0  0  0  0  0  0  0  0  0
   41.8870   31.2530   42.7880 H   0  0  0  0  0  0  0  0  0  0  0  0
   39.5640   33.3420   39.3620 H   0  0  0  0  0  0  0  0  0  0  0  0
   37.3190   33.1090   38.3360 H   0  0  0  0  0  0  0  0  0  0  0  0
   35.7980   31.4430   39.1630 H   0  0  0  0  0  0  0  0  0  0  0  0
   36.1670   29.6770   41.1230 C   0  0  0  0  0  0  0  0  0  0  0  0
   36.5640   28.8190   41.6720 H   0  0  0  0  0  0  0  0  0  0  0  0
   35.1950   30.0960   41.4620 H   0  0  0  0  0  0  0  0  0  0  0  0
   35.6160   28.9500   39.9050 C   0  0  0  0  0  0  0  0  0  0  0  0
   36.3210   27.9390   39.2790 C   0  0  0  0  0  3  0  0  0  0  0  0
   35.9300   27.2140   38.1760 C   0  0  0  0  0  0  0  0  0  0  0  0
   36.5720   26.4440   37.7740 H   0  0  0  0  0  0  0  0  0  0  0  0
   34.7320   27.5430   37.6720 N   0  0  0  0  0  0  0  0  0  0  0  0
   34.0020   28.5170   38.2400 C   0  0  0  0  0  3  0  0  0  0  0  0
   34.4090   29.2070   39.3160 N   0  0  0  0  0  0  0  0  0  0  0  0
   37.7520   28.8780   42.9410 S   0  0  0  0  0  0  0  0  0  0  0  0
   38.3400   25.0330   42.0040 C   0  0  0  0  0  0  0  0  0  0  0  0
   37.8590   26.3350   42.0470 C   0  0  0  0  0  0  0  0  0  0  0  0
   38.4200   27.2590   42.9070 C   0  0  0  0  0  0  0  0  0  0  0  0
   39.4630   26.9050   43.7300 C   0  0  0  0  0  0  0  0  0  0  0  0
   39.9600   25.6390   43.7150 C   0  0  0  0  0  0  0  0  0  0  0  0
   39.3870   24.7260   42.8510 C   0  0  0  0  0  0  0  0  0  0  0  0
   37.0530   26.5930   41.4040 H   0  0  0  0  0  0  0  0  0  0  0  0
   39.8640   27.6660   44.3810 H   0  0  0  0  0  0  0  0  0  0  0  0
   40.7800   25.3540   44.3610 H   0  0  0  0  0  0  0  0  0  0  0  0
   39.7770   23.7100   42.8300 H   0  0  0  0  0  0  0  0  0  0  0  0
   35.8480   23.5660   39.7650 C   0  0  0  0  0  0  0  0  0  0  0  0
   36.4550   22.3480   39.3560 C   0  0  0  0  0  0  0  0  0  0  0  0
   37.7250   22.0410   39.8580 C   0  0  0  0  0  0  0  0  0  0  0  0
   38.3520   22.8970   40.7160 N   0  0  0  0  0  0  0  0  0  0  0  0
   37.7260   24.0630   41.0830 C   0  0  0  0  0  0  0  0  0  0  0  0
   36.4900   24.4030   40.6210 N   0  0  0  0  0  0  0  0  0  0  0  0
   34.8710   23.8400   39.4020 H   0  0  0  0  0  0  0  0  0  0  0  0
   35.9440   21.6960   38.6830 H   0  0  0  0  0  0  0  0  0  0  0  0
   38.2140   21.1300   39.5710 H   0  0  0  0  0  0  0  0  0  0  0  0
  1  2  1  0  0  0  0
  1 25  1  0  0  0  0
  3  2  2  0  0  0  0
  3 11  1  0  0  0  0
  4  3  1  0  0  0  0
  5 10  1  0  0  0  0
  5  4  2  0  0  0  0
  6  5  1  0  0  0  0
  7  8  1  0  0  0  0
  7  6  2  0  0  0  0
  8  9  2  0  0  0  0
  9 15  1  0  0  0  0
  9 10  1  0  0  0  0
 10  1  2  0  0  0  0
 12  6  1  0  0  0  0
 13  7  1  0  0  0  0
 14  8  1  0  0  0  0
 15 17  1  0  0  0  0
 15 16  1  0  0  0  0
 18 15  1  0  0  0  0
 19 18  2  0  0  0  0
 20 19  1  0  0  0  0
 21 20  1  0  0  0  0
 22 20  2  0  0  0  0
 22 23  1  0  0  0  0
 23 24  2  0  0  0  0
 24 18  1  0  0  0  0
 26 27  2  0  0  0  0
 26 31  1  0  0  0  0
 27 28  1  0  0  0  0
 28 25  1  0  0  0  0
 28 29  2  0  0  0  0
 29 33  1  0  0  0  0
 30 29  1  0  0  0  0
 30 34  1  0  0  0  0
 31 30  2  0  0  0  0
 32 27  1  0  0  0  0
 35 31  1  0  0  0  0
 36 41  1  0  0  0  0
 37 36  2  0  0  0  0
 37 38  1  0  0  0  0
 38 39  2  0  0  0  0
 39 40  1  0  0  0  0
 40 26  1  0  0  0  0
 41 40  2  0  0  0  0
 42 36  1  0  0  0  0
 43 37  1  0  0  0  0
 44 38  1  0  0  0  0
M  END
>  <minimizedAffinity>
-6.58774376

$$$$

 OpenBabel03242516303D

 44 48  0  0  0  0  0  0  0  0999 V2000
   36.8310   28.2080   41.4710 C   0  0  0  0  0  0  0  0  0  0  0  0
   37.1180   29.0790   42.4900 N   0  0  0  0  0  0  0  0  0  0  0  0
   37.9260   28.7860   43.5070 C   0  0  0  0  0  0  0  0  0  0  0  0
   38.4780   27.5710   43.5220 N   0  0  0  0  0  0  0  0  0  0  0  0
   38.2500   26.6580   42.5660 C   0  0  0  0  0  0  0  0  0  0  0  0
   38.8300   25.3880   42.5810 C   0  0  0  0  0  0  0  0  0  0  0  0
   38.5790   24.4900   41.6000 C   0  0  0  0  0  0  0  0  0  0  0  0
   37.7470   24.8110   40.5690 C   0  0  0  0  0  0  0  0  0  0  0  0
   37.1420   26.0680   40.5080 C   0  0  0  0  0  0  0  0  0  0  0  0
   37.4000   26.9700   41.4990 C   0  0  0  0  0  0  0  0  0  0  0  0
   38.0920   29.5400   44.2620 H   0  0  0  0  0  0  0  0  0  0  0  0
   39.4720   25.1960   43.4130 H   0  0  0  0  0  0  0  0  0  0  0  0
   39.0510   23.5100   41.6450 H   0  0  0  0  0  0  0  0  0  0  0  0
   37.5880   24.0420   39.8140 H   0  0  0  0  0  0  0  0  0  0  0  0
   36.2420   26.2960   39.3590 C   0  0  0  0  0  0  0  0  0  0  0  0
   35.3510   25.6660   39.3190 H   0  0  0  0  0  0  0  0  0  0  0  0
   36.1310   27.3610   39.0630 H   0  0  0  0  0  0  0  0  0  0  0  0
   36.9190   25.8380   38.0750 C   0  0  0  0  0  0  0  0  0  0  0  0
   38.0560   26.4570   37.5890 C   0  0  0  0  0  3  0  0  0  0  0  0
   38.7510   26.1350   36.4460 C   0  0  0  0  0  0  0  0  0  0  0  0
   39.6310   26.6960   36.1680 H   0  0  0  0  0  0  0  0  0  0  0  0
   38.2520   25.1090   35.7430 N   0  0  0  0  0  0  0  0  0  0  0  0
   37.1500   24.4700   36.1680 C   0  0  0  0  0  3  0  0  0  0  0  0
   36.4920   24.8050   37.2880 N   0  0  0  0  0  0  0  0  0  0  0  0
   35.8120   28.6670   40.1630 S   0  0  0  0  0  0  0  0  0  0  0  0
   37.9180   31.7440   38.7120 C   0  0  0  0  0  0  0  0  0  0  0  0
   37.3050   30.8320   39.5610 C   0  0  0  0  0  0  0  0  0  0  0  0
   36.5890   29.7700   39.0440 C   0  0  0  0  0  0  0  0  0  0  0  0
   36.4730   29.5990   37.6850 C   0  0  0  0  0  0  0  0  0  0  0  0
   37.0600   30.4740   36.8230 C   0  0  0  0  0  0  0  0  0  0  0  0
   37.7720   31.5310   37.3550 C   0  0  0  0  0  0  0  0  0  0  0  0
   37.4050   30.9770   40.6090 H   0  0  0  0  0  0  0  0  0  0  0  0
   35.9040   28.7520   37.3350 H   0  0  0  0  0  0  0  0  0  0  0  0
   36.9730   30.3450   35.7530 H   0  0  0  0  0  0  0  0  0  0  0  0
   38.2450   32.2360   36.6750 H   0  0  0  0  0  0  0  0  0  0  0  0
   40.7900   33.8560   39.5280 C   0  0  0  0  0  0  0  0  0  0  0  0
   40.2140   34.9110   40.2850 C   0  0  0  0  0  0  0  0  0  0  0  0
   38.8330   34.8850   40.5110 C   0  0  0  0  0  0  0  0  0  0  0  0
   38.0720   33.8690   40.0090 N   0  0  0  0  0  0  0  0  0  0  0  0
   38.6740   32.8710   39.2830 C   0  0  0  0  0  0  0  0  0  0  0  0
   40.0140   32.8540   39.0390 N   0  0  0  0  0  0  0  0  0  0  0  0
   41.8500   33.8380   39.3320 H   0  0  0  0  0  0  0  0  0  0  0  0
   40.8310   35.6950   40.6660 H   0  0  0  0  0  0  0  0  0  0  0  0
   38.3630   35.6650   41.0780 H   0  0  0  0  0  0  0  0  0  0  0  0
  1 10  2  0  0  0  0
  1  2  1  0  0  0  0
  2  3  2  0  0  0  0
  3  4  1  0  0  0  0
  3 11  1  0  0  0  0
  5  6  1  0  0  0  0
  5  4  2  0  0  0  0
  6 12  1  0  0  0  0
  7 13  1  0  0  0  0
  7  6  2  0  0  0  0
  8  7  1  0  0  0  0
  9  8  2  0  0  0  0
  9 10  1  0  0  0  0
 10  5  1  0  0  0  0
 14  8  1  0  0  0  0
 15  9  1  0  0  0  0
 16 15  1  0  0  0  0
 17 15  1  0  0  0  0
 18 15  1  0  0  0  0
 19 18  1  0  0  0  0
 20 19  2  0  0  0  0
 21 20  1  0  0  0  0
 22 23  2  0  0  0  0
 22 20  1  0  0  0  0
 23 24  1  0  0  0  0
 24 18  2  0  0  0  0
 25  1  1  0  0  0  0
 26 40  1  0  0  0  0
 26 27  1  0  0  0  0
 27 32  1  0  0  0  0
 28 27  2  0  0  0  0
 28 25  1  0  0  0  0
 29 28  1  0  0  0  0
 30 31  1  0  0  0  0
 30 29  2  0  0  0  0
 31 26  2  0  0  0  0
 33 29  1  0  0  0  0
 34 30  1  0  0  0  0
 35 31  1  0  0  0  0
 36 37  1  0  0  0  0
 37 38  2  0  0  0  0
 37 43  1  0  0  0  0
 38 44  1  0  0  0  0
 39 38  1  0  0  0  0
 40 39  2  0  0  0  0
 41 40  1  0  0  0  0
 41 36  2  0  0  0  0
 42 36  1  0  0  0  0
M  END
>  <minimizedAffinity>
-6.40526819

$$$$

 OpenBabel03242516303D

 44 48  0  0  0  0  0  0  0  0999 V2000
   36.3020   27.4970   40.0170 C   0  0  0  0  0  0  0  0  0  0  0  0
   35.7410   27.6070   38.7700 N   0  0  0  0  0  0  0  0  0  0  0  0
   35.5790   26.5790   37.9390 C   0  0  0  0  0  0  0  0  0  0  0  0
   35.9920   25.3800   38.3580 N   0  0  0  0  0  0  0  0  0  0  0  0
   36.5510   25.1850   39.5610 C   0  0  0  0  0  0  0  0  0  0  0  0
   36.9790   23.9300   40.0000 C   0  0  0  0  0  0  0  0  0  0  0  0
   37.5390   23.7670   41.2210 C   0  0  0  0  0  0  0  0  0  0  0  0
   37.6970   24.8330   42.0540 C   0  0  0  0  0  0  0  0  0  0  0  0
   37.2850   26.1080   41.6640 C   0  0  0  0  0  0  0  0  0  0  0  0
   36.7200   26.2680   40.4310 C   0  0  0  0  0  0  0  0  0  0  0  0
   35.1260   26.7660   36.9770 H   0  0  0  0  0  0  0  0  0  0  0  0
   36.8280   23.1340   39.3030 H   0  0  0  0  0  0  0  0  0  0  0  0
   37.8600   22.7720   41.5280 H   0  0  0  0  0  0  0  0  0  0  0  0
   38.1550   24.6320   43.0220 H   0  0  0  0  0  0  0  0  0  0  0  0
   37.5270   27.1930   42.6370 C   0  0  0  0  0  0  0  0  0  0  0  0
   37.3150   28.2050   42.2860 H   0  0  0  0  0  0  0  0  0  0  0  0
   37.2510   26.9450   43.6840 H   0  0  0  0  0  0  0  0  0  0  0  0
   39.0210   27.3330   42.8900 C   0  0  0  0  0  0  0  0  0  0  0  0
   39.6540   26.6560   43.9160 C   0  0  0  0  0  3  0  0  0  0  0  0
   40.9900   26.7040   44.2420 C   0  0  0  0  0  0  0  0  0  0  0  0
   41.3700   26.1270   45.0720 H   0  0  0  0  0  0  0  0  0  0  0  0
   41.7380   27.5020   43.4680 N   0  0  0  0  0  0  0  0  0  0  0  0
   41.1780   28.1840   42.4560 C   0  0  0  0  0  3  0  0  0  0  0  0
   39.8710   28.1180   42.1610 N   0  0  0  0  0  0  0  0  0  0  0  0
   36.4410   28.8600   41.0580 S   0  0  0  0  0  0  0  0  0  0  0  0
   39.0210   31.0320   38.9060 C   0  0  0  0  0  0  0  0  0  0  0  0
   38.3440   29.9800   39.5090 C   0  0  0  0  0  0  0  0  0  0  0  0
   37.2370   30.2230   40.2980 C   0  0  0  0  0  0  0  0  0  0  0  0
   36.7890   31.5080   40.4970 C   0  0  0  0  0  0  0  0  0  0  0  0
   37.4280   32.5620   39.9230 C   0  0  0  0  0  0  0  0  0  0  0  0
   38.5340   32.3030   39.1370 C   0  0  0  0  0  0  0  0  0  0  0  0
   38.7030   28.9930   39.3440 H   0  0  0  0  0  0  0  0  0  0  0  0
   35.9190   31.6410   41.1220 H   0  0  0  0  0  0  0  0  0  0  0  0
   37.0800   33.5750   40.0760 H   0  0  0  0  0  0  0  0  0  0  0  0
   39.0520   33.1400   38.6730 H   0  0  0  0  0  0  0  0  0  0  0  0
   42.0010   31.6850   36.8890 C   0  0  0  0  0  0  0  0  0  0  0  0
   42.4270   30.3840   36.5070 C   0  0  0  0  0  0  0  0  0  0  0  0
   41.6790   29.2870   36.9490 C   0  0  0  0  0  0  0  0  0  0  0  0
   40.5740   29.4760   37.7270 N   0  0  0  0  0  0  0  0  0  0  0  0
   40.2010   30.7520   38.0710 C   0  0  0  0  0  0  0  0  0  0  0  0
   40.8980   31.8490   37.6630 N   0  0  0  0  0  0  0  0  0  0  0  0
   42.5490   32.5560   36.5690 H   0  0  0  0  0  0  0  0  0  0  0  0
   43.2960   30.2630   35.8980 H   0  0  0  0  0  0  0  0  0  0  0  0
   41.9710   28.2900   36.6810 H   0  0  0  0  0  0  0  0  0  0  0  0
  1 10  1  0  0  0  0
  1 25  1  0  0  0  0
  2  1  2  0  0  0  0
  3  4  2  0  0  0  0
  3  2  1  0  0  0  0
  4  5  1  0  0  0  0
  5  6  2  0  0  0  0
  5 10  1  0  0  0  0
  6  7  1  0  0  0  0
  7 13  1  0  0  0  0
  7  8  2  0  0  0  0
  8 14  1  0  0  0  0
  9  8  1  0  0  0  0
  9 15  1  0  0  0  0
 10  9  2  0  0  0  0
 11  3  1  0  0  0  0
 12  6  1  0  0  0  0
 15 18  1  0  0  0  0
 15 17  1  0  0  0  0
 16 15  1  0  0  0  0
 18 19  1  0  0  0  0
 19 20  2  0  0  0  0
 20 21  1  0  0  0  0
 22 20  1  0  0  0  0
 23 22  2  0  0  0  0
 24 23  1  0  0  0  0
 24 18  2  0  0  0  0
 26 31  2  0  0  0  0
 26 27  1  0  0  0  0
 27 28  2  0  0  0  0
 28 29  1  0  0  0  0
 28 25  1  0  0  0  0
 29 33  1  0  0  0  0
 30 34  1  0  0  0  0
 30 29  2  0  0  0  0
 31 30  1  0  0  0  0
 32 27  1  0  0  0  0
 35 31  1  0  0  0  0
 36 41  1  0  0  0  0
 37 36  2  0  0  0  0
 37 38  1  0  0  0  0
 38 39  2  0  0  0  0
 39 40  1  0  0  0  0
 40 26  1  0  0  0  0
 41 40  2  0  0  0  0
 42 36  1  0  0  0  0
 43 37  1  0  0  0  0
 44 38  1  0  0  0  0
M  END
>  <minimizedAffinity>
-6.39643097

$$$$

 OpenBabel03242516303D

 44 48  0  0  0  0  0  0  0  0999 V2000
   36.6380   27.2240   39.3020 C   0  0  0  0  0  0  0  0  0  0  0  0
   36.6420   25.8580   39.1820 N   0  0  0  0  0  0  0  0  0  0  0  0
   36.8390   25.0270   40.2040 C   0  0  0  0  0  0  0  0  0  0  0  0
   37.0450   25.5710   41.4060 N   0  0  0  0  0  0  0  0  0  0  0  0
   37.0580   26.8970   41.6110 C   0  0  0  0  0  0  0  0  0  0  0  0
   37.2700   27.4640   42.8690 C   0  0  0  0  0  0  0  0  0  0  0  0
   37.2760   28.8060   43.0410 C   0  0  0  0  0  0  0  0  0  0  0  0
   37.0740   29.6370   41.9810 C   0  0  0  0  0  0  0  0  0  0  0  0
   36.8560   29.1200   40.7030 C   0  0  0  0  0  0  0  0  0  0  0  0
   36.8500   27.7660   40.5340 C   0  0  0  0  0  0  0  0  0  0  0  0
   36.8230   23.9660   40.0100 H   0  0  0  0  0  0  0  0  0  0  0  0
   37.4220   26.7620   43.6600 H   0  0  0  0  0  0  0  0  0  0  0  0
   37.4430   29.2120   44.0380 H   0  0  0  0  0  0  0  0  0  0  0  0
   37.0920   30.7060   42.1900 H   0  0  0  0  0  0  0  0  0  0  0  0
   36.6730   30.1150   39.6260 C   0  0  0  0  0  0  0  0  0  0  0  0
   36.8900   29.7660   38.6130 H   0  0  0  0  0  0  0  0  0  0  0  0
   35.7990   30.7870   39.7600 H   0  0  0  0  0  0  0  0  0  0  0  0
   37.7340   31.1990   39.7390 C   0  0  0  0  0  0  0  0  0  0  0  0
   37.4040   32.5200   39.9840 C   0  0  0  0  0  3  0  0  0  0  0  0
   38.2700   33.5820   40.1050 C   0  0  0  0  0  0  0  0  0  0  0  0
   37.8910   34.5750   40.2980 H   0  0  0  0  0  0  0  0  0  0  0  0
   39.5680   33.2810   39.9660 N   0  0  0  0  0  0  0  0  0  0  0  0
   39.9480   32.0140   39.7270 C   0  0  0  0  0  3  0  0  0  0  0  0
   39.0810   30.9970   39.6140 N   0  0  0  0  0  0  0  0  0  0  0  0
   36.3320   28.2390   37.9460 S   0  0  0  0  0  0  0  0  0  0  0  0
   32.5390   28.8020   36.8050 C   0  0  0  0  0  0  0  0  0  0  0  0
   33.8110   28.9790   37.3330 C   0  0  0  0  0  0  0  0  0  0  0  0
   34.7530   27.9730   37.2350 C   0  0  0  0  0  0  0  0  0  0  0  0
   34.4460   26.7850   36.6140 C   0  0  0  0  0  0  0  0  0  0  0  0
   33.2100   26.5780   36.0860 C   0  0  0  0  0  0  0  0  0  0  0  0
   32.2790   27.5920   36.1930 C   0  0  0  0  0  0  0  0  0  0  0  0
   34.0330   29.9030   37.8090 H   0  0  0  0  0  0  0  0  0  0  0  0
   35.2190   26.0340   36.5650 H   0  0  0  0  0  0  0  0  0  0  0  0
   32.9620   25.6450   35.5970 H   0  0  0  0  0  0  0  0  0  0  0  0
   31.2870   27.4370   35.7730 H   0  0  0  0  0  0  0  0  0  0  0  0
   30.5460   31.7160   35.8490 C   0  0  0  0  0  0  0  0  0  0  0  0
   29.7400   31.9490   36.9960 C   0  0  0  0  0  0  0  0  0  0  0  0
   29.8920   31.0970   38.0950 C   0  0  0  0  0  0  0  0  0  0  0  0
   30.7920   30.0720   38.0530 N   0  0  0  0  0  0  0  0  0  0  0  0
   31.5490   29.8850   36.9230 C   0  0  0  0  0  0  0  0  0  0  0  0
   31.4360   30.6900   35.8290 N   0  0  0  0  0  0  0  0  0  0  0  0
   30.4600   32.3490   34.9820 H   0  0  0  0  0  0  0  0  0  0  0  0
   29.0430   32.7580   37.0030 H   0  0  0  0  0  0  0  0  0  0  0  0
   29.3000   31.2430   38.9790 H   0  0  0  0  0  0  0  0  0  0  0  0
  1 10  1  0  0  0  0
  2  1  2  0  0  0  0
  2  3  1  0  0  0  0
  3  4  2  0  0  0  0
  4  5  1  0  0  0  0
  5  6  1  0  0  0  0
  6  7  2  0  0  0  0
  6 12  1  0  0  0  0
  7 13  1  0  0  0  0
  8 14  1  0  0  0  0
  8  7  1  0  0  0  0
  9  8  2  0  0  0  0
 10  9  1  0  0  0  0
 10  5  2  0  0  0  0
 11  3  1  0  0  0  0
 15 18  1  0  0  0  0
 15 17  1  0  0  0  0
 15  9  1  0  0  0  0
 16 15  1  0  0  0  0
 18 19  1  0  0  0  0
 19 20  2  0  0  0  0
 20 21  1  0  0  0  0
 22 20  1  0  0  0  0
 23 22  2  0  0  0  0
 24 23  1  0  0  0  0
 24 18  2  0  0  0  0
 25  1  1  0  0  0  0
 26 40  1  0  0  0  0
 26 27  1  0  0  0  0
 27 32  1  0  0  0  0
 28 27  2  0  0  0  0
 28 25  1  0  0  0  0
 29 28  1  0  0  0  0
 30 31  1  0  0  0  0
 30 29  2  0  0  0  0
 31 26  2  0  0  0  0
 33 29  1  0  0  0  0
 34 30  1  0  0  0  0
 35 31  1  0  0  0  0
 36 37  1  0  0  0  0
 37 43  1  0  0  0  0
 37 38  2  0  0  0  0
 38 44  1  0  0  0  0
 39 38  1  0  0  0  0
 40 39  2  0  0  0  0
 41 36  2  0  0  0  0
 41 40  1  0  0  0  0
 42 36  1  0  0  0  0
M  END
>  <minimizedAffinity>
-6.28525782

$$$$

 OpenBabel03242516303D

 44 48  0  0  0  0  0  0  0  0999 V2000
   36.9470   29.2490   41.7710 C   0  0  0  0  0  0  0  0  0  0  0  0
   35.8000   28.6740   41.2900 N   0  0  0  0  0  0  0  0  0  0  0  0
   35.2150   29.0340   40.1490 C   0  0  0  0  0  0  0  0  0  0  0  0
   35.7900   30.0130   39.4460 N   0  0  0  0  0  0  0  0  0  0  0  0
   36.9130   30.6300   39.8460 C   0  0  0  0  0  0  0  0  0  0  0  0
   37.5160   31.6510   39.1090 C   0  0  0  0  0  0  0  0  0  0  0  0
   38.6490   32.2520   39.5400 C   0  0  0  0  0  0  0  0  0  0  0  0
   39.2290   31.8680   40.7110 C   0  0  0  0  0  0  0  0  0  0  0  0
   38.6660   30.8520   41.4850 C   0  0  0  0  0  0  0  0  0  0  0  0
   37.5230   30.2480   41.0450 C   0  0  0  0  0  0  0  0  0  0  0  0
   34.3130   28.5210   39.8520 H   0  0  0  0  0  0  0  0  0  0  0  0
   37.0150   31.9070   38.2000 H   0  0  0  0  0  0  0  0  0  0  0  0
   39.0910   33.0440   38.9370 H   0  0  0  0  0  0  0  0  0  0  0  0
   40.1390   32.3940   41.0000 H   0  0  0  0  0  0  0  0  0  0  0  0
   39.3670   30.5350   42.7460 C   0  0  0  0  0  0  0  0  0  0  0  0
   39.4520   31.3560   43.4630 H   0  0  0  0  0  0  0  0  0  0  0  0
   39.1600   29.5220   43.1490 H   0  0  0  0  0  0  0  0  0  0  0  0
   40.8450   30.3030   42.4700 C   0  0  0  0  0  0  0  0  0  0  0  0
   41.2880   29.2230   41.7280 C   0  0  0  0  0  3  0  0  0  0  0  0
   42.5910   28.9100   41.4160 C   0  0  0  0  0  0  0  0  0  0  0  0
   42.8140   28.0330   40.8250 H   0  0  0  0  0  0  0  0  0  0  0  0
   43.5130   29.7560   41.8950 N   0  0  0  0  0  0  0  0  0  0  0  0
   43.1410   30.8220   42.6220 C   0  0  0  0  0  3  0  0  0  0  0  0
   41.8620   31.1040   42.9110 N   0  0  0  0  0  0  0  0  0  0  0  0
   37.6750   28.7040   43.2320 S   0  0  0  0  0  0  0  0  0  0  0  0
   38.3870   24.9440   42.0670 C   0  0  0  0  0  0  0  0  0  0  0  0
   37.8510   26.2170   42.2010 C   0  0  0  0  0  0  0  0  0  0  0  0
   38.4130   27.1220   43.0810 C   0  0  0  0  0  0  0  0  0  0  0  0
   39.5100   26.7760   43.8340 C   0  0  0  0  0  0  0  0  0  0  0  0
   40.0620   25.5380   43.7280 C   0  0  0  0  0  0  0  0  0  0  0  0
   39.4880   24.6440   42.8450 C   0  0  0  0  0  0  0  0  0  0  0  0
   37.0030   26.4700   41.6120 H   0  0  0  0  0  0  0  0  0  0  0  0
   39.9090   27.5210   44.5040 H   0  0  0  0  0  0  0  0  0  0  0  0
   40.9250   25.2590   44.3180 H   0  0  0  0  0  0  0  0  0  0  0  0
   39.9220   23.6500   42.7520 H   0  0  0  0  0  0  0  0  0  0  0  0
   35.8670   23.4920   39.8500 C   0  0  0  0  0  0  0  0  0  0  0  0
   36.4960   22.3130   39.3690 C   0  0  0  0  0  0  0  0  0  0  0  0
   37.7910   22.0250   39.8160 C   0  0  0  0  0  0  0  0  0  0  0  0
   38.4200   22.8650   40.6890 N   0  0  0  0  0  0  0  0  0  0  0  0
   37.7720   23.9930   41.1260 C   0  0  0  0  0  0  0  0  0  0  0  0
   36.5120   24.3130   40.7180 N   0  0  0  0  0  0  0  0  0  0  0  0
   34.8700   23.7500   39.5310 H   0  0  0  0  0  0  0  0  0  0  0  0
   35.9820   21.6730   38.6860 H   0  0  0  0  0  0  0  0  0  0  0  0
   38.2980   21.1430   39.4750 H   0  0  0  0  0  0  0  0  0  0  0  0
  1 25  1  0  0  0  0
  2  1  1  0  0  0  0
  3  2  2  0  0  0  0
  4  5  2  0  0  0  0
  4  3  1  0  0  0  0
  5 10  1  0  0  0  0
  6  7  2  0  0  0  0
  6  5  1  0  0  0  0
  7  8  1  0  0  0  0
  8 14  1  0  0  0  0
  8  9  2  0  0  0  0
  9 15  1  0  0  0  0
 10  9  1  0  0  0  0
 10  1  2  0  0  0  0
 11  3  1  0  0  0  0
 12  6  1  0  0  0  0
 13  7  1  0  0  0  0
 15 17  1  0  0  0  0
 15 16  1  0  0  0  0
 18 15  1  0  0  0  0
 18 24  1  0  0  0  0
 19 18  2  0  0  0  0
 20 19  1  0  0  0  0
 20 22  2  0  0  0  0
 21 20  1  0  0  0  0
 22 23  1  0  0  0  0
 23 24  2  0  0  0  0
 26 27  2  0  0  0  0
 26 31  1  0  0  0  0
 27 28  1  0  0  0  0
 28 25  1  0  0  0  0
 28 29  2  0  0  0  0
 29 33  1  0  0  0  0
 30 29  1  0  0  0  0
 30 34  1  0  0  0  0
 31 30  2  0  0  0  0
 32 27  1  0  0  0  0
 35 31  1  0  0  0  0
 36 41  1  0  0  0  0
 37 38  1  0  0  0  0
 37 36  2  0  0  0  0
 38 39  2  0  0  0  0
 39 40  1  0  0  0  0
 40 26  1  0  0  0  0
 41 40  2  0  0  0  0
 42 36  1  0  0  0  0
 43 37  1  0  0  0  0
 44 38  1  0  0  0  0
M  END
>  <minimizedAffinity>
-6.27323866

$$$$

 OpenBabel03242516303D

 44 48  0  0  0  0  0  0  0  0999 V2000
   37.4960   28.5780   40.9710 C   0  0  0  0  0  0  0  0  0  0  0  0
   37.5610   29.2540   42.1620 N   0  0  0  0  0  0  0  0  0  0  0  0
   37.4230   28.6710   43.3510 C   0  0  0  0  0  0  0  0  0  0  0  0
   37.2080   27.3530   43.3670 N   0  0  0  0  0  0  0  0  0  0  0  0
   37.1290   26.6170   42.2490 C   0  0  0  0  0  0  0  0  0  0  0  0
   36.9080   25.2380   42.2660 C   0  0  0  0  0  0  0  0  0  0  0  0
   36.8350   24.5250   41.1190 C   0  0  0  0  0  0  0  0  0  0  0  0
   36.9770   25.1430   39.9140 C   0  0  0  0  0  0  0  0  0  0  0  0
   37.2010   26.5190   39.8410 C   0  0  0  0  0  0  0  0  0  0  0  0
   37.2750   27.2340   41.0020 C   0  0  0  0  0  0  0  0  0  0  0  0
   37.4910   29.2870   44.2350 H   0  0  0  0  0  0  0  0  0  0  0  0
   36.8050   24.8110   43.2410 H   0  0  0  0  0  0  0  0  0  0  0  0
   36.6620   23.4510   41.1730 H   0  0  0  0  0  0  0  0  0  0  0  0
   36.9070   24.5100   39.0300 H   0  0  0  0  0  0  0  0  0  0  0  0
   37.3160   27.0850   38.4820 C   0  0  0  0  0  0  0  0  0  0  0  0
   37.1700   28.1650   38.4010 H   0  0  0  0  0  0  0  0  0  0  0  0
   38.1100   26.6270   37.8550 H   0  0  0  0  0  0  0  0  0  0  0  0
   36.1450   26.6200   37.6290 C   0  0  0  0  0  0  0  0  0  0  0  0
   34.9050   27.2280   37.6990 C   0  0  0  0  0  3  0  0  0  0  0  0
   33.7770   26.8960   36.9830 C   0  0  0  0  0  0  0  0  0  0  0  0
   32.8600   27.4490   37.1260 H   0  0  0  0  0  0  0  0  0  0  0  0
   33.9190   25.8690   36.1350 N   0  0  0  0  0  0  0  0  0  0  0  0
   35.1010   25.2400   36.0250 C   0  0  0  0  0  3  0  0  0  0  0  0
   36.1850   25.5850   36.7350 N   0  0  0  0  0  0  0  0  0  0  0  0
   37.7280   29.3880   39.4700 S   0  0  0  0  0  0  0  0  0  0  0  0
   39.5520   32.8500   40.3060 C   0  0  0  0  0  0  0  0  0  0  0  0
   39.2730   31.5030   40.1180 C   0  0  0  0  0  0  0  0  0  0  0  0
   38.0340   31.1030   39.6590 C   0  0  0  0  0  0  0  0  0  0  0  0
   37.0590   32.0320   39.3800 C   0  0  0  0  0  0  0  0  0  0  0  0
   37.2960   33.3600   39.5520 C   0  0  0  0  0  0  0  0  0  0  0  0
   38.5400   33.7440   40.0130 C   0  0  0  0  0  0  0  0  0  0  0  0
   40.0380   30.7970   40.3370 H   0  0  0  0  0  0  0  0  0  0  0  0
   36.1080   31.6660   39.0230 H   0  0  0  0  0  0  0  0  0  0  0  0
   36.5330   34.0960   39.3350 H   0  0  0  0  0  0  0  0  0  0  0  0
   38.7410   34.8040   40.1540 H   0  0  0  0  0  0  0  0  0  0  0  0
   42.8390   32.5500   41.8810 C   0  0  0  0  0  0  0  0  0  0  0  0
   43.3750   33.8610   41.7680 C   0  0  0  0  0  0  0  0  0  0  0  0
   42.5930   34.8430   41.1490 C   0  0  0  0  0  0  0  0  0  0  0  0
   41.3540   34.5350   40.6680 N   0  0  0  0  0  0  0  0  0  0  0  0
   40.8780   33.2540   40.7990 C   0  0  0  0  0  0  0  0  0  0  0  0
   41.6020   32.2660   41.3960 N   0  0  0  0  0  0  0  0  0  0  0  0
   43.4070   31.7650   42.3520 H   0  0  0  0  0  0  0  0  0  0  0  0
   44.3480   34.0760   42.1520 H   0  0  0  0  0  0  0  0  0  0  0  0
   42.9650   35.8450   41.0460 H   0  0  0  0  0  0  0  0  0  0  0  0
  1 10  2  0  0  0  0
  1  2  1  0  0  0  0
  2  3  2  0  0  0  0
  3  4  1  0  0  0  0
  3 11  1  0  0  0  0
  5  6  1  0  0  0  0
  5  4  2  0  0  0  0
  6 12  1  0  0  0  0
  7 13  1  0  0  0  0
  7  6  2  0  0  0  0
  8  7  1  0  0  0  0
  9  8  2  0  0  0  0
  9 10  1  0  0  0  0
 10  5  1  0  0  0  0
 14  8  1  0  0  0  0
 15  9  1  0  0  0  0
 16 15  1  0  0  0  0
 17 15  1  0  0  0  0
 18 19  1  0  0  0  0
 18 15  1  0  0  0  0
 20 21  1  0  0  0  0
 20 19  2  0  0  0  0
 22 20  1  0  0  0  0
 23 22  2  0  0  0  0
 23 24  1  0  0  0  0
 24 18  2  0  0  0  0
 25 28  1  0  0  0  0
 25  1  1  0  0  0  0
 26 40  1  0  0  0  0
 27 26  1  0  0  0  0
 27 32  1  0  0  0  0
 28 27  2  0  0  0  0
 29 30  2  0  0  0  0
 29 28  1  0  0  0  0
 30 31  1  0  0  0  0
 31 35  1  0  0  0  0
 31 26  2  0  0  0  0
 33 29  1  0  0  0  0
 34 30  1  0  0  0  0
 36 42  1  0  0  0  0
 37 36  1  0  0  0  0
 37 43  1  0  0  0  0
 38 37  2  0  0  0  0
 39 40  2  0  0  0  0
 39 38  1  0  0  0  0
 40 41  1  0  0  0  0
 41 36  2  0  0  0  0
 44 38  1  0  0  0  0
M  END
>  <minimizedAffinity>
-6.22370529

$$$$

 OpenBabel03242516303D

 44 48  0  0  0  0  0  0  0  0999 V2000
   37.0200   29.2080   41.5710 C   0  0  0  0  0  0  0  0  0  0  0  0
   37.6400   29.2650   42.7930 N   0  0  0  0  0  0  0  0  0  0  0  0
   38.0970   28.1940   43.4400 C   0  0  0  0  0  0  0  0  0  0  0  0
   37.9340   27.0060   42.8520 N   0  0  0  0  0  0  0  0  0  0  0  0
   37.3370   26.8620   41.6590 C   0  0  0  0  0  0  0  0  0  0  0  0
   37.1700   25.6190   41.0450 C   0  0  0  0  0  0  0  0  0  0  0  0
   36.5640   25.5090   39.8400 C   0  0  0  0  0  0  0  0  0  0  0  0
   36.1020   26.6180   39.1970 C   0  0  0  0  0  0  0  0  0  0  0  0
   36.2460   27.8830   39.7680 C   0  0  0  0  0  0  0  0  0  0  0  0
   36.8580   27.9900   40.9840 C   0  0  0  0  0  0  0  0  0  0  0  0
   38.5730   28.3400   44.3970 H   0  0  0  0  0  0  0  0  0  0  0  0
   37.5530   24.7880   41.5970 H   0  0  0  0  0  0  0  0  0  0  0  0
   36.4530   24.5220   39.3910 H   0  0  0  0  0  0  0  0  0  0  0  0
   35.6240   26.4570   38.2310 H   0  0  0  0  0  0  0  0  0  0  0  0
   35.6860   29.0100   38.9940 C   0  0  0  0  0  0  0  0  0  0  0  0
   34.5980   29.0310   38.9010 H   0  0  0  0  0  0  0  0  0  0  0  0
   36.2070   29.9790   39.1450 H   0  0  0  0  0  0  0  0  0  0  0  0
   36.0500   28.8550   37.5240 C   0  0  0  0  0  0  0  0  0  0  0  0
   35.1040   28.9690   36.5230 C   0  0  0  0  0  3  0  0  0  0  0  0
   35.3110   28.8480   35.1680 C   0  0  0  0  0  0  0  0  0  0  0  0
   34.4870   28.9570   34.4780 H   0  0  0  0  0  0  0  0  0  0  0  0
   36.5750   28.5920   34.8040 N   0  0  0  0  0  0  0  0  0  0  0  0
   37.5370   28.4720   35.7340 C   0  0  0  0  0  3  0  0  0  0  0  0
   37.3060   28.5950   37.0490 N   0  0  0  0  0  0  0  0  0  0  0  0
   36.4920   30.6370   40.7700 S   0  0  0  0  0  0  0  0  0  0  0  0
   39.8130   31.6910   38.8050 C   0  0  0  0  0  0  0  0  0  0  0  0
   38.7350   30.9780   39.3110 C   0  0  0  0  0  0  0  0  0  0  0  0
   37.8150   31.5940   40.1360 C   0  0  0  0  0  0  0  0  0  0  0  0
   37.9520   32.9220   40.4680 C   0  0  0  0  0  0  0  0  0  0  0  0
   38.9960   33.6520   39.9900 C   0  0  0  0  0  0  0  0  0  0  0  0
   39.9080   33.0210   39.1670 C   0  0  0  0  0  0  0  0  0  0  0  0
   38.6420   29.9530   39.0440 H   0  0  0  0  0  0  0  0  0  0  0  0
   37.2050   33.3540   41.1150 H   0  0  0  0  0  0  0  0  0  0  0  0
   39.1100   34.6960   40.2480 H   0  0  0  0  0  0  0  0  0  0  0  0
   40.7470   33.5950   38.7800 H   0  0  0  0  0  0  0  0  0  0  0  0
   41.3910   28.9860   36.9160 C   0  0  0  0  0  0  0  0  0  0  0  0
   42.5120   29.6200   36.3140 C   0  0  0  0  0  0  0  0  0  0  0  0
   42.7160   30.9810   36.5680 C   0  0  0  0  0  0  0  0  0  0  0  0
   41.8530   31.6690   37.3700 N   0  0  0  0  0  0  0  0  0  0  0  0
   40.7840   31.0140   37.9290 C   0  0  0  0  0  0  0  0  0  0  0  0
   40.5460   29.6910   37.7120 N   0  0  0  0  0  0  0  0  0  0  0  0
   41.1980   27.9400   36.7470 H   0  0  0  0  0  0  0  0  0  0  0  0
   43.1720   29.0590   35.6900 H   0  0  0  0  0  0  0  0  0  0  0  0
   43.5520   31.4930   36.1310 H   0  0  0  0  0  0  0  0  0  0  0  0
  1  2  1  0  0  0  0
  2  3  2  0  0  0  0
  3 11  1  0  0  0  0
  4  3  1  0  0  0  0
  5  4  2  0  0  0  0
  6 12  1  0  0  0  0
  6  5  1  0  0  0  0
  7  6  2  0  0  0  0
  8  9  2  0  0  0  0
  8  7  1  0  0  0  0
  9 10  1  0  0  0  0
 10  1  2  0  0  0  0
 10  5  1  0  0  0  0
 13  7  1  0  0  0  0
 14  8  1  0  0  0  0
 15 17  1  0  0  0  0
 15  9  1  0  0  0  0
 16 15  1  0  0  0  0
 18 15  1  0  0  0  0
 19 18  2  0  0  0  0
 20 19  1  0  0  0  0
 21 20  1  0  0  0  0
 22 20  2  0  0  0  0
 22 23  1  0  0  0  0
 23 24  2  0  0  0  0
 24 18  1  0  0  0  0
 25  1  1  0  0  0  0
 26 31  2  0  0  0  0
 26 27  1  0  0  0  0
 27 28  2  0  0  0  0
 28 29  1  0  0  0  0
 28 25  1  0  0  0  0
 29 33  1  0  0  0  0
 30 34  1  0  0  0  0
 30 29  2  0  0  0  0
 31 30  1  0  0  0  0
 32 27  1  0  0  0  0
 35 31  1  0  0  0  0
 36 41  1  0  0  0  0
 37 38  1  0  0  0  0
 37 36  2  0  0  0  0
 38 39  2  0  0  0  0
 39 40  1  0  0  0  0
 40 26  1  0  0  0  0
 41 40  2  0  0  0  0
 42 36  1  0  0  0  0
 43 37  1  0  0  0  0
 44 38  1  0  0  0  0
M  END
>  <minimizedAffinity>
-6.21837378

$$$$

 OpenBabel03242516303D

 44 48  0  0  0  0  0  0  0  0999 V2000
   37.3030   26.0600   41.7910 C   0  0  0  0  0  0  0  0  0  0  0  0
   37.6300   24.7490   42.0230 N   0  0  0  0  0  0  0  0  0  0  0  0
   37.4390   23.7720   41.1380 C   0  0  0  0  0  0  0  0  0  0  0  0
   36.8950   24.1050   39.9650 N   0  0  0  0  0  0  0  0  0  0  0  0
   36.5440   25.3620   39.6570 C   0  0  0  0  0  0  0  0  0  0  0  0
   35.9790   25.7090   38.4290 C   0  0  0  0  0  0  0  0  0  0  0  0
   35.6370   26.9880   38.1500 C   0  0  0  0  0  0  0  0  0  0  0  0
   35.8400   27.9710   39.0710 C   0  0  0  0  0  0  0  0  0  0  0  0
   36.4030   27.6770   40.3140 C   0  0  0  0  0  0  0  0  0  0  0  0
   36.7470   26.3850   40.5900 C   0  0  0  0  0  0  0  0  0  0  0  0
   37.7310   22.7700   41.4120 H   0  0  0  0  0  0  0  0  0  0  0  0
   35.8450   24.8950   37.7490 H   0  0  0  0  0  0  0  0  0  0  0  0
   35.1990   27.2200   37.1800 H   0  0  0  0  0  0  0  0  0  0  0  0
   35.5420   28.9790   38.7820 H   0  0  0  0  0  0  0  0  0  0  0  0
   36.5540   28.8170   41.2410 C   0  0  0  0  0  0  0  0  0  0  0  0
   35.6300   29.3250   41.5280 H   0  0  0  0  0  0  0  0  0  0  0  0
   37.3260   28.6750   42.0270 H   0  0  0  0  0  0  0  0  0  0  0  0
   37.2520   29.9690   40.5320 C   0  0  0  0  0  0  0  0  0  0  0  0
   36.6900   31.2300   40.4630 C   0  0  0  0  0  3  0  0  0  0  0  0
   37.2210   32.3430   39.8520 C   0  0  0  0  0  0  0  0  0  0  0  0
   36.6840   33.2800   39.8640 H   0  0  0  0  0  0  0  0  0  0  0  0
   38.4130   32.1590   39.2670 N   0  0  0  0  0  0  0  0  0  0  0  0
   39.0070   30.9550   39.3030 C   0  0  0  0  0  3  0  0  0  0  0  0
   38.4650   29.8870   39.9060 N   0  0  0  0  0  0  0  0  0  0  0  0
   37.6180   27.2810   42.9620 S   0  0  0  0  0  0  0  0  0  0  0  0
   41.3070   28.8290   42.9640 C   0  0  0  0  0  0  0  0  0  0  0  0
   39.9490   28.6240   42.7620 C   0  0  0  0  0  0  0  0  0  0  0  0
   39.3280   27.5030   43.2760 C   0  0  0  0  0  0  0  0  0  0  0  0
   40.0430   26.5750   43.9950 C   0  0  0  0  0  0  0  0  0  0  0  0
   41.3750   26.7420   44.2130 C   0  0  0  0  0  0  0  0  0  0  0  0
   41.9820   27.8680   43.6920 C   0  0  0  0  0  0  0  0  0  0  0  0
   39.4100   29.3510   42.2040 H   0  0  0  0  0  0  0  0  0  0  0  0
   39.5080   25.7180   44.3740 H   0  0  0  0  0  0  0  0  0  0  0  0
   41.9440   26.0160   44.7780 H   0  0  0  0  0  0  0  0  0  0  0  0
   43.0470   28.0120   43.8600 H   0  0  0  0  0  0  0  0  0  0  0  0
   42.6940   31.0950   40.4500 C   0  0  0  0  0  0  0  0  0  0  0  0
   43.1370   32.2030   41.2210 C   0  0  0  0  0  0  0  0  0  0  0  0
   42.9550   32.1590   42.6080 C   0  0  0  0  0  0  0  0  0  0  0  0
   42.3640   31.0760   43.1910 N   0  0  0  0  0  0  0  0  0  0  0  0
   41.9510   30.0290   42.4050 C   0  0  0  0  0  0  0  0  0  0  0  0
   42.1080   30.0270   41.0520 N   0  0  0  0  0  0  0  0  0  0  0  0
   42.8150   31.0880   39.3800 H   0  0  0  0  0  0  0  0  0  0  0  0
   43.5960   33.0390   40.7400 H   0  0  0  0  0  0  0  0  0  0  0  0
   43.2780   32.9790   43.2210 H   0  0  0  0  0  0  0  0  0  0  0  0
  1  2  1  0  0  0  0
  1 25  1  0  0  0  0
  3 11  1  0  0  0  0
  3  2  2  0  0  0  0
  4  3  1  0  0  0  0
  5  4  2  0  0  0  0
  5 10  1  0  0  0  0
  6  5  1  0  0  0  0
  7  6  2  0  0  0  0
  7  8  1  0  0  0  0
  8  9  2  0  0  0  0
  9 10  1  0  0  0  0
  9 15  1  0  0  0  0
 10  1  2  0  0  0  0
 12  6  1  0  0  0  0
 13  7  1  0  0  0  0
 14  8  1  0  0  0  0
 15 16  1  0  0  0  0
 15 17  1  0  0  0  0
 18 15  1  0  0  0  0
 19 18  1  0  0  0  0
 20 21  1  0  0  0  0
 20 19  2  0  0  0  0
 22 23  2  0  0  0  0
 22 20  1  0  0  0  0
 23 24  1  0  0  0  0
 24 18  2  0  0  0  0
 25 28  1  0  0  0  0
 26 31  1  0  0  0  0
 27 26  2  0  0  0  0
 27 28  1  0  0  0  0
 28 29  2  0  0  0  0
 29 30  1  0  0  0  0
 29 33  1  0  0  0  0
 30 34  1  0  0  0  0
 31 35  1  0  0  0  0
 31 30  2  0  0  0  0
 32 27  1  0  0  0  0
 36 41  2  0  0  0  0
 36 37  1  0  0  0  0
 37 38  2  0  0  0  0
 38 39  1  0  0  0  0
 38 44  1  0  0  0  0
 40 26  1  0  0  0  0
 40 39  2  0  0  0  0
 41 40  1  0  0  0  0
 42 36  1  0  0  0  0
 43 37  1  0  0  0  0
M  END
>  <minimizedAffinity>
-6.18922043

$$$$
