
 OpenBabel03242522243D

 26 28  0  0  0  0  0  0  0  0999 V2000
   39.5610   33.9540   40.0620 C   0  0  0  0  0  0  0  0  0  0  0  0
   38.8960   32.9640   40.8160 C   0  0  0  0  0  0  0  0  0  0  0  0
   39.2490   31.6150   40.6720 C   0  0  0  0  0  0  0  0  0  0  0  0
   40.2380   31.3440   39.7900 N   0  0  0  0  0  0  0  0  0  0  0  0
   40.8550   32.2940   39.0870 C   0  0  0  0  0  0  0  0  0  0  0  0
   40.5270   33.5740   39.2160 N   0  0  0  0  0  0  0  0  0  0  0  0
   39.2160   34.9650   40.2440 H   0  0  0  0  0  0  0  0  0  0  0  0
   38.1190   33.2260   41.5020 H   0  0  0  0  0  0  0  0  0  0  0  0
   36.7860   30.6600   39.3900 Cl  0  0  0  0  0  0  0  0  0  0  0  0
   37.4150   30.0470   40.9240 C   0  0  0  0  0  0  0  0  0  0  0  0
   38.5790   30.5630   41.4390 C   0  0  0  0  0  0  0  0  0  0  0  0
   39.0310   30.0530   42.6390 C   0  0  0  0  0  0  0  0  0  0  0  0
   38.3330   29.0570   43.2940 C   0  0  0  0  0  0  0  0  0  0  0  0
   37.1510   28.5740   42.7140 C   0  0  0  0  0  0  0  0  0  0  0  0
   36.2740   27.3130   43.5530 Cl  0  0  0  0  0  0  0  0  0  0  0  0
   36.6650   29.0540   41.5190 C   0  0  0  0  0  0  0  0  0  0  0  0
   39.9470   30.4640   43.0370 H   0  0  0  0  0  0  0  0  0  0  0  0
   38.6760   28.6490   44.2350 H   0  0  0  0  0  0  0  0  0  0  0  0
   35.7560   28.6760   41.0820 H   0  0  0  0  0  0  0  0  0  0  0  0
   41.9130   31.9170   38.1550 C   0  0  0  0  0  0  0  0  0  0  0  0
   41.7440   30.9090   37.2280 C   0  0  0  0  0  3  0  0  0  0  0  0
   42.7180   30.5140   36.3210 C   0  0  0  0  0  0  0  0  0  0  0  0
   42.4400   29.7090   35.6560 H   0  0  0  0  0  0  0  0  0  0  0  0
   43.8950   31.1810   36.3770 N   0  0  0  0  0  0  0  0  0  0  0  0
   44.0760   32.1680   37.2780 C   0  0  0  0  0  3  0  0  0  0  0  0
   43.1150   32.5540   38.1680 N   0  0  0  0  0  0  0  0  0  0  0  0
  1  7  1  0  0  0  0
  1  2  1  0  0  0  0
  2  8  1  0  0  0  0
  3  2  2  0  0  0  0
  3 11  1  0  0  0  0
  4  3  1  0  0  0  0
  5  6  1  0  0  0  0
  5  4  2  0  0  0  0
  6  1  2  0  0  0  0
  9 10  1  0  0  0  0
 10 11  2  0  0  0  0
 10 16  1  0  0  0  0
 11 12  1  0  0  0  0
 12 17  1  0  0  0  0
 12 13  2  0  0  0  0
 13 18  1  0  0  0  0
 14 13  1  0  0  0  0
 14 15  1  0  0  0  0
 16 14  2  0  0  0  0
 19 16  1  0  0  0  0
 20 26  1  0  0  0  0
 20  5  1  0  0  0  0
 21 20  2  0  0  0  0
 22 24  2  0  0  0  0
 22 21  1  0  0  0  0
 23 22  1  0  0  0  0
 24 25  1  0  0  0  0
 25 26  2  0  0  0  0
M  END
>  <minimizedAffinity>
-5.38434172

$$$$

 OpenBabel03242522243D

 26 28  0  0  0  0  0  0  0  0999 V2000
   37.2390   32.6080   40.0400 C   0  0  0  0  0  0  0  0  0  0  0  0
   36.9470   31.2940   40.4640 C   0  0  0  0  0  0  0  0  0  0  0  0
   37.8390   30.2510   40.1870 C   0  0  0  0  0  0  0  0  0  0  0  0
   38.9600   30.5850   39.5070 N   0  0  0  0  0  0  0  0  0  0  0  0
   39.2200   31.8330   39.1150 C   0  0  0  0  0  0  0  0  0  0  0  0
   38.3790   32.8280   39.3730 N   0  0  0  0  0  0  0  0  0  0  0  0
   36.4870   33.3430   40.3030 H   0  0  0  0  0  0  0  0  0  0  0  0
   36.0460   31.0780   40.9990 H   0  0  0  0  0  0  0  0  0  0  0  0
   38.7850   29.6900   42.9100 Cl  0  0  0  0  0  0  0  0  0  0  0  0
   37.9710   28.5120   41.8740 C   0  0  0  0  0  0  0  0  0  0  0  0
   37.5670   28.8760   40.6120 C   0  0  0  0  0  0  0  0  0  0  0  0
   36.9350   27.9240   39.8410 C   0  0  0  0  0  0  0  0  0  0  0  0
   36.7180   26.6480   40.3250 C   0  0  0  0  0  0  0  0  0  0  0  0
   37.1560   26.3400   41.6220 C   0  0  0  0  0  0  0  0  0  0  0  0
   36.8760   24.7220   42.2260 Cl  0  0  0  0  0  0  0  0  0  0  0  0
   37.7890   27.2610   42.4260 C   0  0  0  0  0  0  0  0  0  0  0  0
   36.6200   28.2190   38.8500 H   0  0  0  0  0  0  0  0  0  0  0  0
   36.2240   25.8910   39.7310 H   0  0  0  0  0  0  0  0  0  0  0  0
   38.1210   27.0150   43.4200 H   0  0  0  0  0  0  0  0  0  0  0  0
   40.4530   32.1090   38.3850 C   0  0  0  0  0  0  0  0  0  0  0  0
   41.1310   31.1230   37.6990 C   0  0  0  0  0  3  0  0  0  0  0  0
   42.3070   31.3350   36.9910 C   0  0  0  0  0  0  0  0  0  0  0  0
   42.7240   30.4660   36.5040 H   0  0  0  0  0  0  0  0  0  0  0  0
   42.7890   32.6000   36.9950 N   0  0  0  0  0  0  0  0  0  0  0  0
   42.1370   33.5750   37.6620 C   0  0  0  0  0  3  0  0  0  0  0  0
   40.9810   33.3620   38.3570 N   0  0  0  0  0  0  0  0  0  0  0  0
  1  7  1  0  0  0  0
  1  2  1  0  0  0  0
  2  8  1  0  0  0  0
  3  2  2  0  0  0  0
  3 11  1  0  0  0  0
  4  3  1  0  0  0  0
  5  6  1  0  0  0  0
  5  4  2  0  0  0  0
  6  1  2  0  0  0  0
 10 16  1  0  0  0  0
 10  9  1  0  0  0  0
 11 10  2  0  0  0  0
 12 13  2  0  0  0  0
 12 11  1  0  0  0  0
 13 14  1  0  0  0  0
 14 15  1  0  0  0  0
 14 16  2  0  0  0  0
 16 19  1  0  0  0  0
 17 12  1  0  0  0  0
 18 13  1  0  0  0  0
 20  5  1  0  0  0  0
 21 20  2  0  0  0  0
 22 24  2  0  0  0  0
 22 21  1  0  0  0  0
 23 22  1  0  0  0  0
 24 25  1  0  0  0  0
 25 26  2  0  0  0  0
 26 20  1  0  0  0  0
M  END
>  <minimizedAffinity>
-5.20254087

$$$$

 OpenBabel03242522243D

 26 28  0  0  0  0  0  0  0  0999 V2000
   37.3360   32.5930   40.2530 C   0  0  0  0  0  0  0  0  0  0  0  0
   36.9920   31.2700   40.6010 C   0  0  0  0  0  0  0  0  0  0  0  0
   37.9670   30.3980   41.1030 C   0  0  0  0  0  0  0  0  0  0  0  0
   39.2170   30.9020   41.2250 N   0  0  0  0  0  0  0  0  0  0  0  0
   39.5230   32.1560   40.8910 C   0  0  0  0  0  0  0  0  0  0  0  0
   38.6050   32.9880   40.4130 N   0  0  0  0  0  0  0  0  0  0  0  0
   36.5130   33.1870   39.8740 H   0  0  0  0  0  0  0  0  0  0  0  0
   35.9890   30.9150   40.4870 H   0  0  0  0  0  0  0  0  0  0  0  0
   38.2070   28.5240   38.8550 Cl  0  0  0  0  0  0  0  0  0  0  0  0
   37.7250   28.0630   40.4910 C   0  0  0  0  0  0  0  0  0  0  0  0
   37.6430   29.0190   41.4750 C   0  0  0  0  0  0  0  0  0  0  0  0
   37.2640   28.6110   42.7360 C   0  0  0  0  0  0  0  0  0  0  0  0
   36.9770   27.2850   42.9970 C   0  0  0  0  0  0  0  0  0  0  0  0
   37.0790   26.3590   41.9490 C   0  0  0  0  0  0  0  0  0  0  0  0
   36.7140   24.6820   42.2900 Cl  0  0  0  0  0  0  0  0  0  0  0  0
   37.4550   26.7220   40.6760 C   0  0  0  0  0  0  0  0  0  0  0  0
   37.2020   29.3700   43.5030 H   0  0  0  0  0  0  0  0  0  0  0  0
   36.6780   26.9520   43.9810 H   0  0  0  0  0  0  0  0  0  0  0  0
   37.5310   26.0030   39.8780 H   0  0  0  0  0  0  0  0  0  0  0  0
   40.8960   32.6220   41.0520 C   0  0  0  0  0  0  0  0  0  0  0  0
   41.8090   31.9440   41.8340 C   0  0  0  0  0  3  0  0  0  0  0  0
   43.1250   32.3460   42.0200 C   0  0  0  0  0  0  0  0  0  0  0  0
   43.7220   31.7140   42.6610 H   0  0  0  0  0  0  0  0  0  0  0  0
   43.5030   33.4770   41.3790 N   0  0  0  0  0  0  0  0  0  0  0  0
   42.6220   34.1510   40.6110 C   0  0  0  0  0  3  0  0  0  0  0  0
   41.3280   33.7520   40.4310 N   0  0  0  0  0  0  0  0  0  0  0  0
  1  6  2  0  0  0  0
  1  2  1  0  0  0  0
  2  3  2  0  0  0  0
  3  4  1  0  0  0  0
  3 11  1  0  0  0  0
  5 20  1  0  0  0  0
  5  4  2  0  0  0  0
  6  5  1  0  0  0  0
  7  1  1  0  0  0  0
  8  2  1  0  0  0  0
  9 10  1  0  0  0  0
 10 16  2  0  0  0  0
 10 11  1  0  0  0  0
 11 12  2  0  0  0  0
 12 13  1  0  0  0  0
 12 17  1  0  0  0  0
 13 18  1  0  0  0  0
 14 15  1  0  0  0  0
 14 13  2  0  0  0  0
 16 14  1  0  0  0  0
 19 16  1  0  0  0  0
 20 21  1  0  0  0  0
 21 22  2  0  0  0  0
 22 23  1  0  0  0  0
 24 22  1  0  0  0  0
 25 24  2  0  0  0  0
 26 25  1  0  0  0  0
 26 20  2  0  0  0  0
M  END
>  <minimizedAffinity>
-5.11858654

$$$$

 OpenBabel03242522243D

 26 28  0  0  0  0  0  0  0  0999 V2000
   37.2730   32.6600   40.0470 C   0  0  0  0  0  0  0  0  0  0  0  0
   37.0200   31.3770   40.5780 C   0  0  0  0  0  0  0  0  0  0  0  0
   37.9400   30.3400   40.3790 C   0  0  0  0  0  0  0  0  0  0  0  0
   39.0480   30.6490   39.6670 N   0  0  0  0  0  0  0  0  0  0  0  0
   39.2700   31.8670   39.1730 C   0  0  0  0  0  0  0  0  0  0  0  0
   38.4030   32.8560   39.3560 N   0  0  0  0  0  0  0  0  0  0  0  0
   36.5010   33.3920   40.2550 H   0  0  0  0  0  0  0  0  0  0  0  0
   36.1280   31.1790   41.1350 H   0  0  0  0  0  0  0  0  0  0  0  0
   36.6250   28.5520   38.4570 Cl  0  0  0  0  0  0  0  0  0  0  0  0
   37.0970   28.0830   40.0940 C   0  0  0  0  0  0  0  0  0  0  0  0
   37.7080   28.9970   40.9170 C   0  0  0  0  0  0  0  0  0  0  0  0
   38.0590   28.5850   42.1850 C   0  0  0  0  0  0  0  0  0  0  0  0
   37.8020   27.2960   42.6090 C   0  0  0  0  0  0  0  0  0  0  0  0
   37.1740   26.4110   41.7200 C   0  0  0  0  0  0  0  0  0  0  0  0
   36.8530   24.7800   42.2670 Cl  0  0  0  0  0  0  0  0  0  0  0  0
   36.8080   26.7800   40.4450 C   0  0  0  0  0  0  0  0  0  0  0  0
   38.5390   29.3110   42.8260 H   0  0  0  0  0  0  0  0  0  0  0  0
   38.0710   26.9590   43.6010 H   0  0  0  0  0  0  0  0  0  0  0  0
   36.3270   26.0930   39.7700 H   0  0  0  0  0  0  0  0  0  0  0  0
   40.4910   32.1180   38.4150 C   0  0  0  0  0  0  0  0  0  0  0  0
   41.0940   33.3590   38.3940 C   0  0  0  0  0  3  0  0  0  0  0  0
   42.2550   33.6490   37.6900 C   0  0  0  0  0  0  0  0  0  0  0  0
   42.6100   34.6660   37.7680 H   0  0  0  0  0  0  0  0  0  0  0  0
   42.8030   32.6260   36.9910 N   0  0  0  0  0  0  0  0  0  0  0  0
   42.2250   31.4080   37.0020 C   0  0  0  0  0  3  0  0  0  0  0  0
   41.0830   31.1270   37.6960 N   0  0  0  0  0  0  0  0  0  0  0  0
  1  7  1  0  0  0  0
  1  2  1  0  0  0  0
  2  8  1  0  0  0  0
  3  2  2  0  0  0  0
  3 11  1  0  0  0  0
  4  3  1  0  0  0  0
  5  6  1  0  0  0  0
  5  4  2  0  0  0  0
  6  1  2  0  0  0  0
  9 10  1  0  0  0  0
 10 16  2  0  0  0  0
 10 11  1  0  0  0  0
 11 12  2  0  0  0  0
 12 13  1  0  0  0  0
 12 17  1  0  0  0  0
 13 18  1  0  0  0  0
 14 15  1  0  0  0  0
 14 13  2  0  0  0  0
 16 14  1  0  0  0  0
 19 16  1  0  0  0  0
 20  5  1  0  0  0  0
 21 20  1  0  0  0  0
 22 23  1  0  0  0  0
 22 21  2  0  0  0  0
 24 25  2  0  0  0  0
 24 22  1  0  0  0  0
 25 26  1  0  0  0  0
 26 20  2  0  0  0  0
M  END
>  <minimizedAffinity>
-4.98581791

$$$$

 OpenBabel03242522243D

 26 28  0  0  0  0  0  0  0  0999 V2000
   37.5480   30.3220   41.8080 C   0  0  0  0  0  0  0  0  0  0  0  0
   36.7250   30.3040   40.6610 C   0  0  0  0  0  0  0  0  0  0  0  0
   36.4620   29.0960   40.0020 C   0  0  0  0  0  0  0  0  0  0  0  0
   37.0350   27.9890   40.5280 N   0  0  0  0  0  0  0  0  0  0  0  0
   37.8100   28.0250   41.6120 C   0  0  0  0  0  0  0  0  0  0  0  0
   38.0650   29.1650   42.2430 N   0  0  0  0  0  0  0  0  0  0  0  0
   37.6900   31.3030   42.2430 H   0  0  0  0  0  0  0  0  0  0  0  0
   36.2940   31.2070   40.2810 H   0  0  0  0  0  0  0  0  0  0  0  0
   37.9770   29.4050   37.5060 Cl  0  0  0  0  0  0  0  0  0  0  0  0
   36.2270   29.1780   37.5890 C   0  0  0  0  0  0  0  0  0  0  0  0
   35.6130   29.0430   38.8110 C   0  0  0  0  0  0  0  0  0  0  0  0
   34.2450   28.8680   38.8260 C   0  0  0  0  0  0  0  0  0  0  0  0
   33.5210   28.8290   37.6500 C   0  0  0  0  0  0  0  0  0  0  0  0
   34.2080   28.9730   36.4350 C   0  0  0  0  0  0  0  0  0  0  0  0
   33.2830   28.9230   34.9510 Cl  0  0  0  0  0  0  0  0  0  0  0  0
   35.5720   29.1500   36.3740 C   0  0  0  0  0  0  0  0  0  0  0  0
   33.7700   28.7620   39.7910 H   0  0  0  0  0  0  0  0  0  0  0  0
   32.4490   28.6930   37.6460 H   0  0  0  0  0  0  0  0  0  0  0  0
   36.0910   29.2590   35.4370 H   0  0  0  0  0  0  0  0  0  0  0  0
   38.3900   26.7840   42.1160 C   0  0  0  0  0  0  0  0  0  0  0  0
   39.3460   26.7780   43.1120 C   0  0  0  0  0  3  0  0  0  0  0  0
   39.9280   25.6260   43.6240 C   0  0  0  0  0  0  0  0  0  0  0  0
   40.6620   25.7780   44.4020 H   0  0  0  0  0  0  0  0  0  0  0  0
   39.5080   24.4540   43.0920 N   0  0  0  0  0  0  0  0  0  0  0  0
   38.5750   24.4450   42.1180 C   0  0  0  0  0  3  0  0  0  0  0  0
   38.0050   25.5800   41.6160 N   0  0  0  0  0  0  0  0  0  0  0  0
  1  7  1  0  0  0  0
  1  6  1  0  0  0  0
  2  1  2  0  0  0  0
  3  4  2  0  0  0  0
  3  2  1  0  0  0  0
  4  5  1  0  0  0  0
  5 20  1  0  0  0  0
  5  6  2  0  0  0  0
  8  2  1  0  0  0  0
  9 10  1  0  0  0  0
 10 11  1  0  0  0  0
 11 12  2  0  0  0  0
 11  3  1  0  0  0  0
 12 17  1  0  0  0  0
 13 12  1  0  0  0  0
 14 13  2  0  0  0  0
 15 14  1  0  0  0  0
 16 14  1  0  0  0  0
 16 10  2  0  0  0  0
 18 13  1  0  0  0  0
 19 16  1  0  0  0  0
 20 21  1  0  0  0  0
 21 22  2  0  0  0  0
 22 23  1  0  0  0  0
 24 22  1  0  0  0  0
 25 24  2  0  0  0  0
 26 20  2  0  0  0  0
 26 25  1  0  0  0  0
M  END
>  <minimizedAffinity>
-4.91520309

$$$$

 OpenBabel03242522243D

 26 28  0  0  0  0  0  0  0  0999 V2000
   36.0380   30.8580   41.0560 C   0  0  0  0  0  0  0  0  0  0  0  0
   36.0840   29.4480   41.0250 C   0  0  0  0  0  0  0  0  0  0  0  0
   37.2430   28.7920   40.5940 C   0  0  0  0  0  0  0  0  0  0  0  0
   38.2770   29.5810   40.2230 N   0  0  0  0  0  0  0  0  0  0  0  0
   38.2160   30.9130   40.2600 C   0  0  0  0  0  0  0  0  0  0  0  0
   37.1200   31.5430   40.6670 N   0  0  0  0  0  0  0  0  0  0  0  0
   35.0980   31.2700   41.4040 H   0  0  0  0  0  0  0  0  0  0  0  0
   35.2390   28.8640   41.3280 H   0  0  0  0  0  0  0  0  0  0  0  0
   38.3440   27.6340   43.0580 Cl  0  0  0  0  0  0  0  0  0  0  0  0
   37.8270   26.6900   41.6560 C   0  0  0  0  0  0  0  0  0  0  0  0
   37.3240   27.3300   40.5500 C   0  0  0  0  0  0  0  0  0  0  0  0
   36.9330   26.5510   39.4800 C   0  0  0  0  0  0  0  0  0  0  0  0
   37.0450   25.1750   39.5260 C   0  0  0  0  0  0  0  0  0  0  0  0
   37.5670   24.5840   40.6860 C   0  0  0  0  0  0  0  0  0  0  0  0
   37.7050   22.8400   40.7340 Cl  0  0  0  0  0  0  0  0  0  0  0  0
   37.9680   25.3230   41.7760 C   0  0  0  0  0  0  0  0  0  0  0  0
   36.5390   27.0630   38.6140 H   0  0  0  0  0  0  0  0  0  0  0  0
   36.7430   24.5530   38.6950 H   0  0  0  0  0  0  0  0  0  0  0  0
   38.3670   24.8590   42.6620 H   0  0  0  0  0  0  0  0  0  0  0  0
   39.3760   31.6920   39.8430 C   0  0  0  0  0  0  0  0  0  0  0  0
   40.1970   32.3230   40.7550 C   0  0  0  0  0  3  0  0  0  0  0  0
   41.3120   33.0760   40.4090 C   0  0  0  0  0  0  0  0  0  0  0  0
   41.8580   33.5100   41.2340 H   0  0  0  0  0  0  0  0  0  0  0  0
   41.5810   33.1760   39.0860 N   0  0  0  0  0  0  0  0  0  0  0  0
   40.7870   32.5650   38.1830 C   0  0  0  0  0  3  0  0  0  0  0  0
   39.6920   31.8260   38.5270 N   0  0  0  0  0  0  0  0  0  0  0  0
  1  7  1  0  0  0  0
  2  1  1  0  0  0  0
  2  8  1  0  0  0  0
  3  2  2  0  0  0  0
  4  5  2  0  0  0  0
  4  3  1  0  0  0  0
  5  6  1  0  0  0  0
  6  1  2  0  0  0  0
 10 16  1  0  0  0  0
 10  9  1  0  0  0  0
 11  3  1  0  0  0  0
 11 10  2  0  0  0  0
 12 13  2  0  0  0  0
 12 11  1  0  0  0  0
 13 14  1  0  0  0  0
 14 15  1  0  0  0  0
 14 16  2  0  0  0  0
 16 19  1  0  0  0  0
 17 12  1  0  0  0  0
 18 13  1  0  0  0  0
 20  5  1  0  0  0  0
 20 21  1  0  0  0  0
 22 21  2  0  0  0  0
 22 23  1  0  0  0  0
 24 22  1  0  0  0  0
 25 26  1  0  0  0  0
 25 24  2  0  0  0  0
 26 20  2  0  0  0  0
M  END
>  <minimizedAffinity>
-4.79973555

$$$$

 OpenBabel03242522243D

 26 28  0  0  0  0  0  0  0  0999 V2000
   38.0160   34.1610   39.9600 C   0  0  0  0  0  0  0  0  0  0  0  0
   37.3110   33.1920   39.2140 C   0  0  0  0  0  0  0  0  0  0  0  0
   37.7780   31.8730   39.1550 C   0  0  0  0  0  0  0  0  0  0  0  0
   38.9130   31.6070   39.8420 N   0  0  0  0  0  0  0  0  0  0  0  0
   39.5650   32.5360   40.5420 C   0  0  0  0  0  0  0  0  0  0  0  0
   39.1300   33.7890   40.6030 N   0  0  0  0  0  0  0  0  0  0  0  0
   37.5740   35.1500   39.9420 H   0  0  0  0  0  0  0  0  0  0  0  0
   36.4170   33.4500   38.6850 H   0  0  0  0  0  0  0  0  0  0  0  0
   35.8340   30.3820   40.7730 Cl  0  0  0  0  0  0  0  0  0  0  0  0
   36.1380   30.0890   39.0580 C   0  0  0  0  0  0  0  0  0  0  0  0
   37.0710   30.8440   38.3900 C   0  0  0  0  0  0  0  0  0  0  0  0
   37.2730   30.5780   37.0520 C   0  0  0  0  0  0  0  0  0  0  0  0
   36.5580   29.5860   36.4090 C   0  0  0  0  0  0  0  0  0  0  0  0
   35.6200   28.8510   37.1480 C   0  0  0  0  0  0  0  0  0  0  0  0
   34.7200   27.5960   36.3250 Cl  0  0  0  0  0  0  0  0  0  0  0  0
   35.3860   29.0830   38.4850 C   0  0  0  0  0  0  0  0  0  0  0  0
   38.0090   31.1770   36.5350 H   0  0  0  0  0  0  0  0  0  0  0  0
   36.7070   29.3670   35.3610 H   0  0  0  0  0  0  0  0  0  0  0  0
   34.6630   28.5130   39.0430 H   0  0  0  0  0  0  0  0  0  0  0  0
   40.7830   32.1670   41.2560 C   0  0  0  0  0  0  0  0  0  0  0  0
   40.7840   31.2110   42.2510 C   0  0  0  0  0  3  0  0  0  0  0  0
   41.9150   30.8250   42.9590 C   0  0  0  0  0  0  0  0  0  0  0  0
   41.7600   30.0640   43.7090 H   0  0  0  0  0  0  0  0  0  0  0  0
   43.0710   31.4450   42.6250 N   0  0  0  0  0  0  0  0  0  0  0  0
   43.0860   32.3810   41.6550 C   0  0  0  0  0  3  0  0  0  0  0  0
   41.9720   32.7580   40.9610 N   0  0  0  0  0  0  0  0  0  0  0  0
  1  6  1  0  0  0  0
  2  1  2  0  0  0  0
  3  2  1  0  0  0  0
  3  4  2  0  0  0  0
  4  5  1  0  0  0  0
  5  6  2  0  0  0  0
  5 20  1  0  0  0  0
  7  1  1  0  0  0  0
  8  2  1  0  0  0  0
 10  9  1  0  0  0  0
 11 10  2  0  0  0  0
 11  3  1  0  0  0  0
 12 11  1  0  0  0  0
 13 12  2  0  0  0  0
 13 14  1  0  0  0  0
 14 16  2  0  0  0  0
 15 14  1  0  0  0  0
 16 19  1  0  0  0  0
 16 10  1  0  0  0  0
 17 12  1  0  0  0  0
 18 13  1  0  0  0  0
 20 21  1  0  0  0  0
 21 22  2  0  0  0  0
 22 23  1  0  0  0  0
 24 22  1  0  0  0  0
 25 24  2  0  0  0  0
 26 20  2  0  0  0  0
 26 25  1  0  0  0  0
M  END
>  <minimizedAffinity>
-4.78928328

$$$$

 OpenBabel03242522243D

 26 28  0  0  0  0  0  0  0  0999 V2000
   34.4680   26.7490   36.8260 C   0  0  0  0  0  0  0  0  0  0  0  0
   34.9170   28.0540   37.1220 C   0  0  0  0  0  0  0  0  0  0  0  0
   35.8900   28.2560   38.1080 C   0  0  0  0  0  0  0  0  0  0  0  0
   36.3500   27.1480   38.7340 N   0  0  0  0  0  0  0  0  0  0  0  0
   35.9150   25.9230   38.4410 C   0  0  0  0  0  0  0  0  0  0  0  0
   34.9920   25.7210   37.5070 N   0  0  0  0  0  0  0  0  0  0  0  0
   33.7150   26.6980   36.0490 H   0  0  0  0  0  0  0  0  0  0  0  0
   34.5220   28.9010   36.6010 H   0  0  0  0  0  0  0  0  0  0  0  0
   35.2500   29.0570   40.8600 Cl  0  0  0  0  0  0  0  0  0  0  0  0
   36.1280   30.0660   39.7060 C   0  0  0  0  0  0  0  0  0  0  0  0
   36.3780   29.5970   38.4390 C   0  0  0  0  0  0  0  0  0  0  0  0
   37.0670   30.4200   37.5740 C   0  0  0  0  0  0  0  0  0  0  0  0
   37.4910   31.6730   37.9720 C   0  0  0  0  0  0  0  0  0  0  0  0
   37.2040   32.0930   39.2800 C   0  0  0  0  0  0  0  0  0  0  0  0
   37.7450   33.6820   39.7750 Cl  0  0  0  0  0  0  0  0  0  0  0  0
   36.5190   31.3040   40.1760 C   0  0  0  0  0  0  0  0  0  0  0  0
   37.2590   30.0430   36.5800 H   0  0  0  0  0  0  0  0  0  0  0  0
   38.0320   32.3290   37.3040 H   0  0  0  0  0  0  0  0  0  0  0  0
   36.3040   31.6350   41.1780 H   0  0  0  0  0  0  0  0  0  0  0  0
   36.4630   24.7790   39.1620 C   0  0  0  0  0  0  0  0  0  0  0  0
   37.0200   24.9080   40.4180 C   0  0  0  0  0  3  0  0  0  0  0  0
   37.5550   23.8520   41.1450 C   0  0  0  0  0  0  0  0  0  0  0  0
   37.9560   24.1070   42.1150 H   0  0  0  0  0  0  0  0  0  0  0  0
   37.5100   22.6340   40.5540 N   0  0  0  0  0  0  0  0  0  0  0  0
   36.9690   22.4930   39.3270 C   0  0  0  0  0  3  0  0  0  0  0  0
   36.4440   23.5340   38.6160 N   0  0  0  0  0  0  0  0  0  0  0  0
  1  2  2  0  0  0  0
  1  6  1  0  0  0  0
  2  3  1  0  0  0  0
  3 11  1  0  0  0  0
  3  4  2  0  0  0  0
  5  4  1  0  0  0  0
  5 20  1  0  0  0  0
  6  5  2  0  0  0  0
  7  1  1  0  0  0  0
  8  2  1  0  0  0  0
 10 16  1  0  0  0  0
 10  9  1  0  0  0  0
 11 10  2  0  0  0  0
 12 13  2  0  0  0  0
 12 11  1  0  0  0  0
 13 14  1  0  0  0  0
 14 15  1  0  0  0  0
 14 16  2  0  0  0  0
 16 19  1  0  0  0  0
 17 12  1  0  0  0  0
 18 13  1  0  0  0  0
 20 21  1  0  0  0  0
 21 22  2  0  0  0  0
 22 23  1  0  0  0  0
 24 22  1  0  0  0  0
 25 24  2  0  0  0  0
 26 20  2  0  0  0  0
 26 25  1  0  0  0  0
M  END
>  <minimizedAffinity>
-4.77314138

$$$$

 OpenBabel03242522243D

 26 28  0  0  0  0  0  0  0  0999 V2000
   41.6440   29.9410   42.9020 C   0  0  0  0  0  0  0  0  0  0  0  0
   41.1710   28.6330   42.6620 C   0  0  0  0  0  0  0  0  0  0  0  0
   40.0510   28.4290   41.8460 C   0  0  0  0  0  0  0  0  0  0  0  0
   39.4780   29.5390   41.3260 N   0  0  0  0  0  0  0  0  0  0  0  0
   39.9390   30.7670   41.5640 C   0  0  0  0  0  0  0  0  0  0  0  0
   41.0000   30.9690   42.3360 N   0  0  0  0  0  0  0  0  0  0  0  0
   42.5150   29.9920   43.5450 H   0  0  0  0  0  0  0  0  0  0  0  0
   41.6580   27.7850   43.0960 H   0  0  0  0  0  0  0  0  0  0  0  0
   37.7940   27.7040   43.5790 Cl  0  0  0  0  0  0  0  0  0  0  0  0
   38.4760   26.6500   42.3350 C   0  0  0  0  0  0  0  0  0  0  0  0
   39.5350   27.0860   41.5760 C   0  0  0  0  0  0  0  0  0  0  0  0
   40.0330   26.2290   40.6170 C   0  0  0  0  0  0  0  0  0  0  0  0
   39.4810   24.9760   40.4300 C   0  0  0  0  0  0  0  0  0  0  0  0
   38.4020   24.5910   41.2390 C   0  0  0  0  0  0  0  0  0  0  0  0
   37.7110   23.0020   40.9950 Cl  0  0  0  0  0  0  0  0  0  0  0  0
   37.8730   25.4150   42.2070 C   0  0  0  0  0  0  0  0  0  0  0  0
   40.8650   26.5790   40.0250 H   0  0  0  0  0  0  0  0  0  0  0  0
   39.8620   24.2930   39.6830 H   0  0  0  0  0  0  0  0  0  0  0  0
   37.0440   25.1110   42.8220 H   0  0  0  0  0  0  0  0  0  0  0  0
   39.2630   31.9120   40.9630 C   0  0  0  0  0  0  0  0  0  0  0  0
   37.9580   31.8390   40.5220 C   0  0  0  0  0  3  0  0  0  0  0  0
   37.2710   32.8990   39.9450 C   0  0  0  0  0  0  0  0  0  0  0  0
   36.2530   32.6910   39.6480 H   0  0  0  0  0  0  0  0  0  0  0  0
   37.9540   34.0610   39.8230 N   0  0  0  0  0  0  0  0  0  0  0  0
   39.2310   34.1470   40.2490 C   0  0  0  0  0  3  0  0  0  0  0  0
   39.9030   33.1030   40.8160 N   0  0  0  0  0  0  0  0  0  0  0  0
  1  7  1  0  0  0  0
  2  1  1  0  0  0  0
  2  8  1  0  0  0  0
  3  2  2  0  0  0  0
  4  5  2  0  0  0  0
  4  3  1  0  0  0  0
  5  6  1  0  0  0  0
  6  1  2  0  0  0  0
 10  9  1  0  0  0  0
 11  3  1  0  0  0  0
 11 10  2  0  0  0  0
 12 11  1  0  0  0  0
 13 12  2  0  0  0  0
 13 14  1  0  0  0  0
 14 16  2  0  0  0  0
 15 14  1  0  0  0  0
 16 10  1  0  0  0  0
 16 19  1  0  0  0  0
 17 12  1  0  0  0  0
 18 13  1  0  0  0  0
 20  5  1  0  0  0  0
 21 20  2  0  0  0  0
 22 21  1  0  0  0  0
 23 22  1  0  0  0  0
 24 22  2  0  0  0  0
 24 25  1  0  0  0  0
 25 26  2  0  0  0  0
 26 20  1  0  0  0  0
M  END
>  <minimizedAffinity>
-4.65854263

$$$$
