
 OpenBabel03242515513D

 18 19  0  0  0  0  0  0  0  0999 V2000
   44.5070   35.5300   45.0960 C   0  0  0  0  0  0  0  0  0  0  0  0
   45.1220   35.4380   43.8330 C   0  0  0  0  0  0  0  0  0  0  0  0
   46.0620   34.4410   43.6310 C   0  0  0  0  0  0  0  0  0  0  0  0
   46.3310   33.6090   44.6780 N   0  0  0  0  0  0  0  0  0  0  0  0
   45.7290   33.7210   45.8700 C   0  0  0  0  0  0  0  0  0  0  0  0
   44.8140   34.6810   46.0870 N   0  0  0  0  0  0  0  0  0  0  0  0
   43.7560   36.2740   45.3640 H   0  0  0  0  0  0  0  0  0  0  0  0
   46.4950   34.4160   42.6610 H   0  0  0  0  0  0  0  0  0  0  0  0
   46.0650   32.7970   46.9460 C   0  0  0  0  0  0  0  0  0  0  0  0
   45.1720   32.5600   47.9720 C   0  0  0  0  0  0  0  0  0  0  0  0
   45.4260   31.6930   49.0290 C   0  0  0  0  0  0  0  0  0  0  0  0
   44.6720   31.5630   49.7910 H   0  0  0  0  0  0  0  0  0  0  0  0
   46.6390   31.0730   48.9960 N   0  0  0  0  0  0  0  0  0  0  0  0
   47.5120   31.3040   47.9940 C   0  0  0  0  0  0  0  0  0  0  0  0
   47.2440   32.1570   46.9680 N   0  0  0  0  0  0  0  0  0  0  0  0
   44.6900   36.4130   42.8820 N   0  0  0  0  0  0  0  0  0  0  0  0
   45.0140   37.3620   43.2040 H   0  0  0  0  0  0  0  0  0  0  0  0
   44.1530   36.3200   42.0000 H   0  0  0  0  0  0  0  0  0  0  0  0
  1  7  1  0  0  0  0
  1  6  1  0  0  0  0
  2  1  2  0  0  0  0
  3  2  1  0  0  0  0
  3  4  2  0  0  0  0
  4  5  1  0  0  0  0
  5  6  2  0  0  0  0
  5  9  1  0  0  0  0
  8  3  1  0  0  0  0
  9 15  2  0  0  0  0
  9 10  1  0  0  0  0
 10 11  2  0  0  0  0
 11 12  1  0  0  0  0
 13 11  1  0  0  0  0
 14 13  2  0  0  0  0
 15 14  1  0  0  0  0
 16 17  1  0  0  0  0
 16  2  1  0  0  0  0
 18 16  1  0  0  0  0
M  END
>  <minimizedAffinity>
-4.75624084

>  <minimizedRMSD>
1.24402189

$$$$
