
 OpenBabel03252509163D

 23 25  0  0  0  0  0  0  0  0999 V2000
   47.3920   32.8500   42.7210 C   0  0  0  0  0  0  0  0  0  0  0  0
   47.1200   33.5680   43.9200 C   0  0  0  0  0  0  0  0  0  0  0  0
   46.8270   32.8530   45.0370 C   0  0  0  0  0  0  0  0  0  0  0  0
   46.8040   31.4370   44.9680 C   0  0  0  0  0  0  0  0  0  0  0  0
   47.2220   31.1020   43.2210 S   0  0  0  0  0  0  0  0  0  0  0  0
   47.1490   34.6480   43.9280 H   0  0  0  0  0  0  0  0  0  0  0  0
   46.6050   33.2660   45.9920 H   0  0  0  0  0  0  0  0  0  0  0  0
   48.5190   35.1310   40.0220 C   0  0  0  0  0  0  0  0  0  0  0  0
   48.1860   34.3400   38.8930 C   0  0  0  0  0  0  0  0  0  0  0  0
   47.6020   33.0840   39.1000 C   0  0  0  0  0  0  0  0  0  0  0  0
   47.3850   32.6920   40.3980 N   0  0  0  0  0  0  0  0  0  0  0  0
   47.7210   33.4830   41.4430 C   0  0  0  0  0  0  0  0  0  0  0  0
   48.2880   34.7010   41.2590 N   0  0  0  0  0  0  0  0  0  0  0  0
   48.9600   36.0760   39.8230 H   0  0  0  0  0  0  0  0  0  0  0  0
   48.3530   34.6400   37.8680 H   0  0  0  0  0  0  0  0  0  0  0  0
   47.3180   32.4200   38.2970 H   0  0  0  0  0  0  0  0  0  0  0  0
   46.5490   30.4460   45.8970 C   0  0  0  0  0  0  0  0  0  0  0  0
   47.5830   29.9180   46.6420 C   0  0  0  0  0  3  0  0  0  0  0  0
   47.2650   28.9170   47.5680 C   0  0  0  0  0  0  0  0  0  0  0  0
   48.0650   28.4970   48.1560 H   0  0  0  0  0  0  0  0  0  0  0  0
   45.9750   28.5090   47.6970 N   0  0  0  0  0  0  0  0  0  0  0  0
   44.9920   29.0460   46.9540 C   0  0  0  0  0  3  0  0  0  0  0  0
   45.2840   30.0220   46.0460 N   0  0  0  0  0  0  0  0  0  0  0  0
  1  5  1  0  0  0  0
  1  2  2  0  0  0  0
  2  6  1  0  0  0  0
  2  3  1  0  0  0  0
  3  7  1  0  0  0  0
  4  3  2  0  0  0  0
  4 17  1  0  0  0  0
  5  4  1  0  0  0  0
  8 13  1  0  0  0  0
  9 10  1  0  0  0  0
  9  8  2  0  0  0  0
 10 11  2  0  0  0  0
 11 12  1  0  0  0  0
 12  1  1  0  0  0  0
 13 12  2  0  0  0  0
 14  8  1  0  0  0  0
 15  9  1  0  0  0  0
 16 10  1  0  0  0  0
 17 23  2  0  0  0  0
 17 18  1  0  0  0  0
 18 19  2  0  0  0  0
 19 21  1  0  0  0  0
 19 20  1  0  0  0  0
 22 21  2  0  0  0  0
 23 22  1  0  0  0  0
M  END
>  <minimizedAffinity>
-3.3741889

>  <minimizedRMSD>
4.39834738

$$$$
