
 OpenBabel03252509293D

 19 20  0  0  0  0  0  0  0  0999 V2000
   46.6300   35.0030   42.0080 C   0  0  0  0  0  0  0  0  0  0  0  0
   47.6320   34.5330   42.1010 H   0  0  0  0  0  0  0  0  0  0  0  0
   46.8610   36.0690   41.7210 H   0  0  0  0  0  0  0  0  0  0  0  0
   44.4930   35.9820   44.8960 C   0  0  0  0  0  0  0  0  0  0  0  0
   45.1360   36.0080   43.6300 C   0  0  0  0  0  0  0  0  0  0  0  0
   45.9810   34.9540   43.3150 C   0  0  0  0  0  0  0  0  0  0  0  0
   46.1560   33.9490   44.2230 N   0  0  0  0  0  0  0  0  0  0  0  0
   45.5230   33.9670   45.4150 C   0  0  0  0  0  0  0  0  0  0  0  0
   44.7000   34.9740   45.7480 N   0  0  0  0  0  0  0  0  0  0  0  0
   43.8450   36.8260   45.0950 H   0  0  0  0  0  0  0  0  0  0  0  0
   44.9620   36.8220   42.9590 H   0  0  0  0  0  0  0  0  0  0  0  0
   45.7300   33.1130   46.0750 H   0  0  0  0  0  0  0  0  0  0  0  0
   45.9200   34.3080   40.9190 C   0  0  0  0  0  0  0  0  0  0  0  0
   44.5390   34.3680   40.8750 C   0  0  0  0  0  3  0  0  0  0  0  0
   43.7830   33.7420   39.8820 C   0  0  0  0  0  0  0  0  0  0  0  0
   42.7220   33.7620   39.8090 H   0  0  0  0  0  0  0  0  0  0  0  0
   44.4400   33.0520   38.9340 N   0  0  0  0  0  0  0  0  0  0  0  0
   45.7770   32.9920   38.9750 C   0  0  0  0  0  3  0  0  0  0  0  0
   46.5390   33.5940   39.9330 N   0  0  0  0  0  0  0  0  0  0  0  0
  1  2  1  0  0  0  0
  1  6  1  0  0  0  0
  3  1  1  0  0  0  0
  4 10  1  0  0  0  0
  4  9  1  0  0  0  0
  5  4  2  0  0  0  0
  6  5  1  0  0  0  0
  6  7  2  0  0  0  0
  7  8  1  0  0  0  0
  8  9  2  0  0  0  0
  8 12  1  0  0  0  0
 11  5  1  0  0  0  0
 13  1  1  0  0  0  0
 14 13  1  0  0  0  0
 15 14  2  0  0  0  0
 16 15  1  0  0  0  0
 17 18  2  0  0  0  0
 17 15  1  0  0  0  0
 18 19  1  0  0  0  0
 19 13  2  0  0  0  0
M  END
>  <minimizedAffinity>
-3.9368639

>  <minimizedRMSD>
0.852307677

$$$$
