
 OpenBabel03252503223D

 38 42  0  0  1  0  0  0  0  0999 V2000
   46.6710   33.4640   41.4150 C   0  0  1  0  0  0  0  0  0  0  0  0
   47.4980   34.6230   41.1520 C   0  0  0  0  0  0  0  0  0  0  0  0
   48.0560   33.2640   40.8200 C   0  0  2  0  0  0  0  0  0  0  0  0
   45.8310   33.1200   40.7660 H   0  0  0  0  0  0  0  0  0  0  0  0
   47.2590   35.2870   40.2780 H   0  0  0  0  0  0  0  0  0  0  0  0
   47.9840   35.1710   41.9660 H   0  0  0  0  0  0  0  0  0  0  0  0
   48.8980   32.9250   41.4470 H   0  0  0  0  0  0  0  0  0  0  0  0
   48.0810   32.9000   39.3780 C   0  0  0  0  0  0  0  0  0  0  0  0
   49.2030   32.4670   38.7060 C   0  0  0  0  0  0  0  0  0  0  0  0
   49.1630   32.1350   37.3670 C   0  0  0  0  0  0  0  0  0  0  0  0
   47.9680   32.2340   36.6680 C   0  0  0  0  0  0  0  0  0  0  0  0
   47.8690   31.9210   35.3470 N   0  0  0  0  0  0  0  0  0  0  0  0
   46.7010   32.0210   34.6860 C   0  0  0  0  0  0  0  0  0  0  0  0
   45.5100   32.4500   35.2960 C   0  0  0  0  0  0  0  0  0  0  0  0
   45.5830   32.7760   36.6420 C   0  0  0  0  0  0  0  0  0  0  0  0
   46.7980   32.6660   37.3000 C   0  0  0  0  0  0  0  0  0  0  0  0
   46.9110   32.9830   38.6410 C   0  0  0  0  0  0  0  0  0  0  0  0
   50.1290   32.3920   39.2550 H   0  0  0  0  0  0  0  0  0  0  0  0
   50.0100   31.7960   36.8100 H   0  0  0  0  0  0  0  0  0  0  0  0
   46.5980   31.7780   33.6350 H   0  0  0  0  0  0  0  0  0  0  0  0
   44.5800   32.5250   34.7520 H   0  0  0  0  0  0  0  0  0  0  0  0
   44.6850   33.1100   37.1420 H   0  0  0  0  0  0  0  0  0  0  0  0
   45.9550   33.3290   39.0480 H   0  0  0  0  0  0  0  0  0  0  0  0
   46.7610   33.8080   43.9090 C   0  0  0  0  0  0  0  0  0  0  0  0
   46.4470   32.9720   42.8040 C   0  0  0  0  0  0  0  0  0  0  0  0
   45.9370   31.7160   43.0650 C   0  0  0  0  0  0  0  0  0  0  0  0
   45.7690   31.3650   44.3710 N   0  0  0  0  0  0  0  0  0  0  0  0
   46.0700   32.1670   45.4040 C   0  0  0  0  0  0  0  0  0  0  0  0
   46.5710   33.4000   45.1690 N   0  0  0  0  0  0  0  0  0  0  0  0
   47.1580   34.7840   43.7120 H   0  0  0  0  0  0  0  0  0  0  0  0
   45.6840   31.0460   42.2590 H   0  0  0  0  0  0  0  0  0  0  0  0
   45.8690   31.7370   46.7660 C   0  0  0  0  0  0  0  0  0  0  0  0
   45.4970   30.4530   47.0670 C   0  0  0  0  0  0  0  0  0  0  0  0
   45.2900   29.9880   48.3700 C   0  0  0  0  0  0  0  0  0  0  0  0
   44.9950   28.9340   48.4310 H   0  0  0  0  0  0  0  0  0  0  0  0
   45.4700   30.8670   49.3930 N   0  0  0  0  0  0  0  0  0  0  0  0
   45.8400   32.1360   49.0550 C   0  0  0  0  0  0  0  0  0  0  0  0
   46.0410   32.5830   47.7990 N   0  0  0  0  0  0  0  0  0  0  0  0
  1  4  1  6  0  0  0
  1 25  1  0  0  0  0
  2  1  1  0  0  0  0
  2  6  1  0  0  0  0
  3  2  1  0  0  0  0
  3  1  1  0  0  0  0
  3  7  1  1  0  0  0
  5  2  1  0  0  0  0
  8  3  1  0  0  0  0
  9 18  1  0  0  0  0
  9  8  1  0  0  0  0
 10  9  2  0  0  0  0
 11 16  1  0  0  0  0
 11 10  1  0  0  0  0
 12 11  2  0  0  0  0
 13 14  2  0  0  0  0
 13 12  1  0  0  0  0
 14 15  1  0  0  0  0
 15 22  1  0  0  0  0
 15 16  2  0  0  0  0
 16 17  1  0  0  0  0
 17 23  1  0  0  0  0
 17  8  2  0  0  0  0
 19 10  1  0  0  0  0
 20 13  1  0  0  0  0
 21 14  1  0  0  0  0
 24 29  1  0  0  0  0
 25 26  1  0  0  0  0
 25 24  2  0  0  0  0
 26 27  2  0  0  0  0
 27 28  1  0  0  0  0
 28 32  1  0  0  0  0
 29 28  2  0  0  0  0
 30 24  1  0  0  0  0
 31 26  1  0  0  0  0
 32 33  2  0  0  0  0
 32 38  1  0  0  0  0
 33 34  1  0  0  0  0
 34 35  1  0  0  0  0
 34 36  2  0  0  0  0
 37 36  1  0  0  0  0
 38 37  2  0  0  0  0
M  END
>  <minimizedAffinity>
-5.31658602

>  <minimizedRMSD>
4.29137087

$$$$
