
 OpenBabel03252502253D

 32 34  0  0  1  0  0  0  0  0999 V2000
   36.9930   30.6660   39.4540 N   0  0  0  0  0  0  0  0  0  0  0  0
   36.9800   29.9120   38.2110 C   0  0  0  0  0  0  0  0  0  0  0  0
   35.4960   29.6000   37.9780 C   0  0  0  0  0  0  0  0  0  0  0  0
   34.9720   28.6980   39.0530 C   0  0  0  0  0  0  0  0  0  0  0  0
   35.5170   28.9660   40.4220 C   0  0  0  0  0  0  0  0  0  0  0  0
   36.1790   30.2990   40.5690 C   0  0  1  0  0  0  0  0  0  0  0  0
   37.4630   28.9400   38.4100 H   0  0  0  0  0  0  0  0  0  0  0  0
   37.3670   30.4670   37.3620 H   0  0  0  0  0  0  0  0  0  0  0  0
   34.9660   30.5570   37.8920 H   0  0  0  0  0  0  0  0  0  0  0  0
   35.4840   29.0320   37.0160 H   0  0  0  0  0  0  0  0  0  0  0  0
   33.8620   28.9010   39.1000 H   0  0  0  0  0  0  0  0  0  0  0  0
   35.0630   27.6260   38.8050 H   0  0  0  0  0  0  0  0  0  0  0  0
   34.7470   28.8570   41.2040 H   0  0  0  0  0  0  0  0  0  0  0  0
   36.2810   28.1900   40.6540 H   0  0  0  0  0  0  0  0  0  0  0  0
   35.3590   31.0410   40.7920 H   0  0  0  0  0  0  0  0  0  0  0  0
   38.2290   34.1600   39.9300 C   0  0  0  0  0  0  0  0  0  0  0  0
   37.3020   33.1120   39.7900 C   0  0  0  0  0  0  0  0  0  0  0  0
   37.8250   31.8080   39.6070 C   0  0  0  0  0  0  0  0  0  0  0  0
   39.1840   31.6840   39.5850 N   0  0  0  0  0  0  0  0  0  0  0  0
   40.0370   32.7180   39.7230 C   0  0  0  0  0  0  0  0  0  0  0  0
   39.5370   33.9700   39.8980 N   0  0  0  0  0  0  0  0  0  0  0  0
   37.7670   35.1330   40.0660 H   0  0  0  0  0  0  0  0  0  0  0  0
   36.2350   33.1910   39.8050 H   0  0  0  0  0  0  0  0  0  0  0  0
   41.0840   32.4600   39.6830 H   0  0  0  0  0  0  0  0  0  0  0  0
   36.9880   30.2230   41.7220 O   0  0  0  0  0  0  0  0  0  0  0  0
   37.7840   29.1340   42.0420 C   0  0  0  0  0  0  0  0  0  0  0  0
   37.4140   28.5490   43.2590 C   0  0  0  0  0  3  0  0  0  0  0  0
   38.1540   27.4390   43.6800 C   0  0  0  0  0  0  0  0  0  0  0  0
   37.8870   26.9630   44.6250 H   0  0  0  0  0  0  0  0  0  0  0  0
   39.1740   26.9600   42.9380 N   0  0  0  0  0  0  0  0  0  0  0  0
   39.4640   27.5830   41.7760 C   0  0  0  0  0  3  0  0  0  0  0  0
   38.8050   28.6430   41.3150 N   0  0  0  0  0  0  0  0  0  0  0  0
  1 18  1  0  0  0  0
  1  6  1  0  0  0  0
  2  7  1  0  0  0  0
  2  1  1  0  0  0  0
  3  2  1  0  0  0  0
  3  4  1  0  0  0  0
  4 11  1  0  0  0  0
  4  5  1  0  0  0  0
  5  6  1  0  0  0  0
  5 14  1  0  0  0  0
  5 13  1  0  0  0  0
  6 15  1  1  0  0  0
  6 25  1  0  0  0  0
  8  2  1  0  0  0  0
  9  3  1  0  0  0  0
 10  3  1  0  0  0  0
 12  4  1  0  0  0  0
 16 22  1  0  0  0  0
 17 23  1  0  0  0  0
 17 16  2  0  0  0  0
 18 17  1  0  0  0  0
 19 18  2  0  0  0  0
 19 20  1  0  0  0  0
 20 21  2  0  0  0  0
 21 16  1  0  0  0  0
 24 20  1  0  0  0  0
 25 26  1  0  0  0  0
 26 27  1  0  0  0  0
 27 28  2  0  0  0  0
 28 29  1  0  0  0  0
 30 28  1  0  0  0  0
 31 30  2  0  0  0  0
 32 31  1  0  0  0  0
 32 26  2  0  0  0  0
M  END
>  <minimizedAffinity>
-5.04233217

$$$$

 OpenBabel03252502253D

 32 34  0  0  1  0  0  0  0  0999 V2000
   36.9100   28.2260   40.9160 N   0  0  0  0  0  0  0  0  0  0  0  0
   36.9990   26.9590   41.6220 C   0  0  0  0  0  0  0  0  0  0  0  0
   36.6060   27.3040   43.0640 C   0  0  0  0  0  0  0  0  0  0  0  0
   37.6110   28.2300   43.6770 C   0  0  0  0  0  0  0  0  0  0  0  0
   38.1740   29.2570   42.7450 C   0  0  0  0  0  0  0  0  0  0  0  0
   37.3820   29.4470   41.4900 C   0  0  1  0  0  0  0  0  0  0  0  0
   38.0670   26.6790   41.6610 H   0  0  0  0  0  0  0  0  0  0  0  0
   36.3250   26.1990   41.2390 H   0  0  0  0  0  0  0  0  0  0  0  0
   35.5820   27.6990   43.0420 H   0  0  0  0  0  0  0  0  0  0  0  0
   36.6630   26.3280   43.6040 H   0  0  0  0  0  0  0  0  0  0  0  0
   37.0510   28.7930   44.4800 H   0  0  0  0  0  0  0  0  0  0  0  0
   38.4250   27.7020   44.2050 H   0  0  0  0  0  0  0  0  0  0  0  0
   38.3090   30.2350   43.2370 H   0  0  0  0  0  0  0  0  0  0  0  0
   39.1980   28.9380   42.4450 H   0  0  0  0  0  0  0  0  0  0  0  0
   36.5600   30.1770   41.7380 H   0  0  0  0  0  0  0  0  0  0  0  0
   34.6390   28.9290   38.0330 C   0  0  0  0  0  0  0  0  0  0  0  0
   35.0930   28.9210   39.3640 C   0  0  0  0  0  0  0  0  0  0  0  0
   36.3420   28.3000   39.6160 C   0  0  0  0  0  0  0  0  0  0  0  0
   36.9940   27.7660   38.5420 N   0  0  0  0  0  0  0  0  0  0  0  0
   36.5200   27.7960   37.2820 C   0  0  0  0  0  0  0  0  0  0  0  0
   35.3220   28.3900   37.0380 N   0  0  0  0  0  0  0  0  0  0  0  0
   33.6780   29.4180   37.9050 H   0  0  0  0  0  0  0  0  0  0  0  0
   34.5960   29.3340   40.2160 H   0  0  0  0  0  0  0  0  0  0  0  0
   37.1520   27.3300   36.5400 H   0  0  0  0  0  0  0  0  0  0  0  0
   38.2360   30.0870   40.5670 O   0  0  0  0  0  0  0  0  0  0  0  0
   38.3400   31.4630   40.4310 C   0  0  0  0  0  0  0  0  0  0  0  0
   37.2400   32.0120   39.7620 C   0  0  0  0  0  3  0  0  0  0  0  0
   37.2420   33.3980   39.5690 C   0  0  0  0  0  0  0  0  0  0  0  0
   36.3970   33.8520   39.0500 H   0  0  0  0  0  0  0  0  0  0  0  0
   38.2620   34.1610   40.0120 N   0  0  0  0  0  0  0  0  0  0  0  0
   39.2850   33.5500   40.6480 C   0  0  0  0  0  3  0  0  0  0  0  0
   39.3500   32.2390   40.8660 N   0  0  0  0  0  0  0  0  0  0  0  0
  1  6  1  0  0  0  0
  1  2  1  0  0  0  0
  2  7  1  0  0  0  0
  2  3  1  0  0  0  0
  3 10  1  0  0  0  0
  3  4  1  0  0  0  0
  4 12  1  0  0  0  0
  4 11  1  0  0  0  0
  5 13  1  0  0  0  0
  5  4  1  0  0  0  0
  6 15  1  1  0  0  0
  6  5  1  0  0  0  0
  8  2  1  0  0  0  0
  9  3  1  0  0  0  0
 14  5  1  0  0  0  0
 16 17  1  0  0  0  0
 17 18  2  0  0  0  0
 17 23  1  0  0  0  0
 18  1  1  0  0  0  0
 19 18  1  0  0  0  0
 20 19  2  0  0  0  0
 21 20  1  0  0  0  0
 21 16  2  0  0  0  0
 22 16  1  0  0  0  0
 24 20  1  0  0  0  0
 25  6  1  0  0  0  0
 26 25  1  0  0  0  0
 26 32  1  0  0  0  0
 27 26  2  0  0  0  0
 28 27  1  0  0  0  0
 28 30  2  0  0  0  0
 29 28  1  0  0  0  0
 30 31  1  0  0  0  0
 31 32  2  0  0  0  0
M  END
>  <minimizedAffinity>
-4.97598791

$$$$

 OpenBabel03252502253D

 32 34  0  0  1  0  0  0  0  0999 V2000
   37.8900   29.5260   41.6430 N   0  0  0  0  0  0  0  0  0  0  0  0
   38.6600   29.7080   42.8620 C   0  0  0  0  0  0  0  0  0  0  0  0
   39.2000   28.3060   43.1760 C   0  0  0  0  0  0  0  0  0  0  0  0
   38.0770   27.3670   43.4920 C   0  0  0  0  0  0  0  0  0  0  0  0
   36.8360   27.5710   42.6790 C   0  0  0  0  0  0  0  0  0  0  0  0
   37.0390   28.3960   41.4470 C   0  0  1  0  0  0  0  0  0  0  0  0
   37.9460   29.9420   43.6710 H   0  0  0  0  0  0  0  0  0  0  0  0
   39.4920   30.3960   42.7530 H   0  0  0  0  0  0  0  0  0  0  0  0
   39.8260   27.9960   42.3300 H   0  0  0  0  0  0  0  0  0  0  0  0
   39.8030   28.4480   44.1070 H   0  0  0  0  0  0  0  0  0  0  0  0
   38.4660   26.3380   43.2380 H   0  0  0  0  0  0  0  0  0  0  0  0
   37.8310   27.3290   44.5680 H   0  0  0  0  0  0  0  0  0  0  0  0
   36.3610   26.6160   42.4000 H   0  0  0  0  0  0  0  0  0  0  0  0
   36.0850   28.0980   43.3090 H   0  0  0  0  0  0  0  0  0  0  0  0
   37.4020   27.6900   40.6460 H   0  0  0  0  0  0  0  0  0  0  0  0
   38.6090   31.2300   38.3960 C   0  0  0  0  0  0  0  0  0  0  0  0
   38.6120   30.2070   39.3610 C   0  0  0  0  0  0  0  0  0  0  0  0
   37.9570   30.4760   40.5880 C   0  0  0  0  0  0  0  0  0  0  0  0
   37.3780   31.7050   40.7240 N   0  0  0  0  0  0  0  0  0  0  0  0
   37.4000   32.6570   39.7700 C   0  0  0  0  0  0  0  0  0  0  0  0
   38.0290   32.4010   38.5930 N   0  0  0  0  0  0  0  0  0  0  0  0
   39.1260   30.9640   37.4800 H   0  0  0  0  0  0  0  0  0  0  0  0
   39.0600   29.2400   39.2720 H   0  0  0  0  0  0  0  0  0  0  0  0
   36.8980   33.5780   40.0270 H   0  0  0  0  0  0  0  0  0  0  0  0
   35.7620   28.8460   41.0490 O   0  0  0  0  0  0  0  0  0  0  0  0
   35.2040   28.5960   39.8050 C   0  0  0  0  0  0  0  0  0  0  0  0
   35.9180   27.6280   39.0910 C   0  0  0  0  0  3  0  0  0  0  0  0
   35.4410   27.2970   37.8180 C   0  0  0  0  0  0  0  0  0  0  0  0
   35.9790   26.5450   37.2390 H   0  0  0  0  0  0  0  0  0  0  0  0
   34.3400   27.8900   37.3120 N   0  0  0  0  0  0  0  0  0  0  0  0
   33.7100   28.8140   38.0680 C   0  0  0  0  0  3  0  0  0  0  0  0
   34.1070   29.1780   39.2840 N   0  0  0  0  0  0  0  0  0  0  0  0
  1  2  1  0  0  0  0
  2  3  1  0  0  0  0
  2  7  1  0  0  0  0
  3  4  1  0  0  0  0
  3 10  1  0  0  0  0
  4 12  1  0  0  0  0
  5 14  1  0  0  0  0
  5  4  1  0  0  0  0
  6 15  1  6  0  0  0
  6  1  1  0  0  0  0
  6  5  1  0  0  0  0
  8  2  1  0  0  0  0
  9  3  1  0  0  0  0
 11  4  1  0  0  0  0
 13  5  1  0  0  0  0
 16 21  2  0  0  0  0
 16 17  1  0  0  0  0
 17 18  2  0  0  0  0
 18 19  1  0  0  0  0
 18  1  1  0  0  0  0
 20 24  1  0  0  0  0
 20 19  2  0  0  0  0
 21 20  1  0  0  0  0
 22 16  1  0  0  0  0
 23 17  1  0  0  0  0
 25  6  1  0  0  0  0
 26 25  1  0  0  0  0
 27 26  2  0  0  0  0
 28 27  1  0  0  0  0
 29 28  1  0  0  0  0
 30 28  2  0  0  0  0
 30 31  1  0  0  0  0
 31 32  2  0  0  0  0
 32 26  1  0  0  0  0
M  END
>  <minimizedAffinity>
-4.62624884

$$$$

 OpenBabel03252502253D

 32 34  0  0  1  0  0  0  0  0999 V2000
   38.4630   31.0040   41.0150 N   0  0  0  0  0  0  0  0  0  0  0  0
   39.4490   32.0720   41.0330 C   0  0  0  0  0  0  0  0  0  0  0  0
   38.6110   33.3570   40.9880 C   0  0  0  0  0  0  0  0  0  0  0  0
   37.8690   33.4560   39.6910 C   0  0  0  0  0  0  0  0  0  0  0  0
   37.3490   32.1560   39.1600 C   0  0  0  0  0  0  0  0  0  0  0  0
   37.3120   31.0520   40.1690 C   0  0  1  0  0  0  0  0  0  0  0  0
   39.9930   32.0350   40.0720 H   0  0  0  0  0  0  0  0  0  0  0  0
   40.0670   32.0780   41.9250 H   0  0  0  0  0  0  0  0  0  0  0  0
   37.9700   33.3650   41.8790 H   0  0  0  0  0  0  0  0  0  0  0  0
   39.3680   34.1780   41.0140 H   0  0  0  0  0  0  0  0  0  0  0  0
   36.9670   34.1000   39.9100 H   0  0  0  0  0  0  0  0  0  0  0  0
   38.4290   33.9950   38.9080 H   0  0  0  0  0  0  0  0  0  0  0  0
   36.3500   32.2620   38.7060 H   0  0  0  0  0  0  0  0  0  0  0  0
   38.0130   31.8240   38.3310 H   0  0  0  0  0  0  0  0  0  0  0  0
   36.3420   31.1650   40.7330 H   0  0  0  0  0  0  0  0  0  0  0  0
   39.8100   27.9750   42.7390 C   0  0  0  0  0  0  0  0  0  0  0  0
   39.7910   29.0820   41.8720 C   0  0  0  0  0  0  0  0  0  0  0  0
   38.6080   29.8610   41.8470 C   0  0  0  0  0  0  0  0  0  0  0  0
   37.5910   29.4690   42.6690 N   0  0  0  0  0  0  0  0  0  0  0  0
   37.6530   28.3990   43.4850 C   0  0  0  0  0  0  0  0  0  0  0  0
   38.7870   27.6490   43.5100 N   0  0  0  0  0  0  0  0  0  0  0  0
   40.7410   27.4180   42.7120 H   0  0  0  0  0  0  0  0  0  0  0  0
   40.5770   29.4030   41.2220 H   0  0  0  0  0  0  0  0  0  0  0  0
   36.7670   28.2170   44.0750 H   0  0  0  0  0  0  0  0  0  0  0  0
   37.2260   29.8440   39.4440 O   0  0  0  0  0  0  0  0  0  0  0  0
   36.1550   29.4990   38.6350 C   0  0  0  0  0  0  0  0  0  0  0  0
   34.9900   29.2630   39.3750 C   0  0  0  0  0  3  0  0  0  0  0  0
   33.8440   28.9060   38.6570 C   0  0  0  0  0  0  0  0  0  0  0  0
   32.9210   28.7160   39.2090 H   0  0  0  0  0  0  0  0  0  0  0  0
   33.8700   28.7970   37.3130 N   0  0  0  0  0  0  0  0  0  0  0  0
   35.0350   29.0420   36.6760 C   0  0  0  0  0  3  0  0  0  0  0  0
   36.1630   29.3850   37.2940 N   0  0  0  0  0  0  0  0  0  0  0  0
  1  2  1  0  0  0  0
  1 18  1  0  0  0  0
  2  8  1  0  0  0  0
  3 10  1  0  0  0  0
  3  2  1  0  0  0  0
  3  9  1  0  0  0  0
  4 11  1  0  0  0  0
  4  3  1  0  0  0  0
  5  4  1  0  0  0  0
  5  6  1  0  0  0  0
  6 15  1  1  0  0  0
  6  1  1  0  0  0  0
  7  2  1  0  0  0  0
 12  4  1  0  0  0  0
 13  5  1  0  0  0  0
 14  5  1  0  0  0  0
 16 21  1  0  0  0  0
 17 16  2  0  0  0  0
 18 17  1  0  0  0  0
 18 19  2  0  0  0  0
 19 20  1  0  0  0  0
 20 21  2  0  0  0  0
 20 24  1  0  0  0  0
 22 16  1  0  0  0  0
 23 17  1  0  0  0  0
 25  6  1  0  0  0  0
 26 27  1  0  0  0  0
 26 25  1  0  0  0  0
 28 29  1  0  0  0  0
 28 27  2  0  0  0  0
 30 28  1  0  0  0  0
 31 32  1  0  0  0  0
 31 30  2  0  0  0  0
 32 26  2  0  0  0  0
M  END
>  <minimizedAffinity>
-4.60229492

$$$$

 OpenBabel03252502253D

 32 34  0  0  1  0  0  0  0  0999 V2000
   36.8190   28.4420   39.8170 N   0  0  0  0  0  0  0  0  0  0  0  0
   35.9360   27.5040   39.1440 C   0  0  0  0  0  0  0  0  0  0  0  0
   36.4020   27.5340   37.6820 C   0  0  0  0  0  0  0  0  0  0  0  0
   36.1620   28.8850   37.0800 C   0  0  0  0  0  0  0  0  0  0  0  0
   36.3940   30.0390   38.0070 C   0  0  0  0  0  0  0  0  0  0  0  0
   37.1820   29.6940   39.2310 C   0  0  1  0  0  0  0  0  0  0  0  0
   34.9240   27.9460   39.1450 H   0  0  0  0  0  0  0  0  0  0  0  0
   36.0090   26.4900   39.5220 H   0  0  0  0  0  0  0  0  0  0  0  0
   37.4500   27.2090   37.6620 H   0  0  0  0  0  0  0  0  0  0  0  0
   35.7310   26.8050   37.1670 H   0  0  0  0  0  0  0  0  0  0  0  0
   36.9190   28.9810   36.2480 H   0  0  0  0  0  0  0  0  0  0  0  0
   35.1770   28.9760   36.5920 H   0  0  0  0  0  0  0  0  0  0  0  0
   36.8750   30.8910   37.4970 H   0  0  0  0  0  0  0  0  0  0  0  0
   35.4060   30.4210   38.3460 H   0  0  0  0  0  0  0  0  0  0  0  0
   38.2700   29.7580   38.9400 H   0  0  0  0  0  0  0  0  0  0  0  0
   37.2060   27.6430   43.4470 C   0  0  0  0  0  0  0  0  0  0  0  0
   36.5480   27.9290   42.2370 C   0  0  0  0  0  0  0  0  0  0  0  0
   37.3610   28.1460   41.0970 C   0  0  0  0  0  0  0  0  0  0  0  0
   38.7120   28.0570   41.2740 N   0  0  0  0  0  0  0  0  0  0  0  0
   39.3000   27.7800   42.4540 C   0  0  0  0  0  0  0  0  0  0  0  0
   38.5220   27.5720   43.5490 N   0  0  0  0  0  0  0  0  0  0  0  0
   36.5300   27.4880   44.2820 H   0  0  0  0  0  0  0  0  0  0  0  0
   35.4930   28.0030   42.0800 H   0  0  0  0  0  0  0  0  0  0  0  0
   40.3790   27.7440   42.4340 H   0  0  0  0  0  0  0  0  0  0  0  0
   36.9460   30.7240   40.1660 O   0  0  0  0  0  0  0  0  0  0  0  0
   37.7010   31.8830   40.2520 C   0  0  0  0  0  0  0  0  0  0  0  0
   38.9610   31.6510   40.8160 C   0  0  0  0  0  3  0  0  0  0  0  0
   39.8090   32.7560   40.9510 C   0  0  0  0  0  0  0  0  0  0  0  0
   40.7970   32.6040   41.3870 H   0  0  0  0  0  0  0  0  0  0  0  0
   39.4200   33.9840   40.5510 N   0  0  0  0  0  0  0  0  0  0  0  0
   38.1880   34.1200   40.0170 C   0  0  0  0  0  3  0  0  0  0  0  0
   37.3290   33.1160   39.8590 N   0  0  0  0  0  0  0  0  0  0  0  0
  1 18  1  0  0  0  0
  2  7  1  0  0  0  0
  2  8  1  0  0  0  0
  2  1  1  0  0  0  0
  3  2  1  0  0  0  0
  4  3  1  0  0  0  0
  4  5  1  0  0  0  0
  5 14  1  0  0  0  0
  5  6  1  0  0  0  0
  6 15  1  6  0  0  0
  6  1  1  0  0  0  0
  6 25  1  0  0  0  0
  9  3  1  0  0  0  0
 10  3  1  0  0  0  0
 11  4  1  0  0  0  0
 12  4  1  0  0  0  0
 13  5  1  0  0  0  0
 16 21  1  0  0  0  0
 16 22  1  0  0  0  0
 17 16  2  0  0  0  0
 18 19  2  0  0  0  0
 18 17  1  0  0  0  0
 19 20  1  0  0  0  0
 20 21  2  0  0  0  0
 23 17  1  0  0  0  0
 24 20  1  0  0  0  0
 25 26  1  0  0  0  0
 26 27  1  0  0  0  0
 27 28  2  0  0  0  0
 28 29  1  0  0  0  0
 30 28  1  0  0  0  0
 31 30  2  0  0  0  0
 32 31  1  0  0  0  0
 32 26  2  0  0  0  0
M  END
>  <minimizedAffinity>
-4.53098536

$$$$

 OpenBabel03252502253D

 32 34  0  0  1  0  0  0  0  0999 V2000
   37.6940   30.6250   40.2430 N   0  0  0  0  0  0  0  0  0  0  0  0
   37.3180   29.9630   39.0040 C   0  0  0  0  0  0  0  0  0  0  0  0
   35.8210   29.6710   39.1740 C   0  0  0  0  0  0  0  0  0  0  0  0
   35.5980   28.6950   40.2880 C   0  0  0  0  0  0  0  0  0  0  0  0
   36.5090   28.8620   41.4650 C   0  0  0  0  0  0  0  0  0  0  0  0
   37.2150   30.1800   41.5130 C   0  0  1  0  0  0  0  0  0  0  0  0
   37.8160   28.9780   38.9920 H   0  0  0  0  0  0  0  0  0  0  0  0
   37.4660   30.5780   38.1210 H   0  0  0  0  0  0  0  0  0  0  0  0
   35.3100   30.6330   39.3060 H   0  0  0  0  0  0  0  0  0  0  0  0
   35.5290   29.1740   38.2170 H   0  0  0  0  0  0  0  0  0  0  0  0
   34.5500   28.8970   40.6580 H   0  0  0  0  0  0  0  0  0  0  0  0
   35.5920   27.6440   39.9510 H   0  0  0  0  0  0  0  0  0  0  0  0
   35.9850   28.6980   42.4220 H   0  0  0  0  0  0  0  0  0  0  0  0
   37.2900   28.0700   41.4200 H   0  0  0  0  0  0  0  0  0  0  0  0
   36.5060   30.9040   42.0070 H   0  0  0  0  0  0  0  0  0  0  0  0
   39.0650   34.0910   40.4970 C   0  0  0  0  0  0  0  0  0  0  0  0
   38.1100   33.0600   40.5380 C   0  0  0  0  0  0  0  0  0  0  0  0
   38.5610   31.7510   40.2360 C   0  0  0  0  0  0  0  0  0  0  0  0
   39.8840   31.6060   39.9340 N   0  0  0  0  0  0  0  0  0  0  0  0
   40.7660   32.6250   39.9080 C   0  0  0  0  0  0  0  0  0  0  0  0
   40.3350   33.8810   40.1960 N   0  0  0  0  0  0  0  0  0  0  0  0
   38.6600   35.0690   40.7370 H   0  0  0  0  0  0  0  0  0  0  0  0
   37.0710   33.1550   40.7710 H   0  0  0  0  0  0  0  0  0  0  0  0
   41.7780   32.3510   39.6510 H   0  0  0  0  0  0  0  0  0  0  0  0
   38.3120   30.0190   42.3860 O   0  0  0  0  0  0  0  0  0  0  0  0
   38.9320   28.8050   42.6380 C   0  0  0  0  0  0  0  0  0  0  0  0
   40.0190   28.5810   41.7860 C   0  0  0  0  0  3  0  0  0  0  0  0
   40.7200   27.3810   41.9530 C   0  0  0  0  0  0  0  0  0  0  0  0
   41.5720   27.1810   41.3010 H   0  0  0  0  0  0  0  0  0  0  0  0
   40.3560   26.4880   42.8960 N   0  0  0  0  0  0  0  0  0  0  0  0
   39.2950   26.7830   43.6770 C   0  0  0  0  0  3  0  0  0  0  0  0
   38.5820   27.9020   43.5740 N   0  0  0  0  0  0  0  0  0  0  0  0
  1  6  1  0  0  0  0
  2  3  1  0  0  0  0
  2  1  1  0  0  0  0
  3  9  1  0  0  0  0
  3  4  1  0  0  0  0
  4 11  1  0  0  0  0
  4  5  1  0  0  0  0
  5  6  1  0  0  0  0
  5 13  1  0  0  0  0
  6 15  1  1  0  0  0
  6 25  1  0  0  0  0
  7  2  1  0  0  0  0
  8  2  1  0  0  0  0
 10  3  1  0  0  0  0
 12  4  1  0  0  0  0
 14  5  1  0  0  0  0
 16 17  1  0  0  0  0
 16 22  1  0  0  0  0
 17 23  1  0  0  0  0
 18  1  1  0  0  0  0
 18 17  2  0  0  0  0
 19 18  1  0  0  0  0
 20 19  2  0  0  0  0
 20 21  1  0  0  0  0
 21 16  2  0  0  0  0
 24 20  1  0  0  0  0
 25 26  1  0  0  0  0
 26 32  1  0  0  0  0
 27 28  1  0  0  0  0
 27 26  2  0  0  0  0
 28 30  2  0  0  0  0
 29 28  1  0  0  0  0
 30 31  1  0  0  0  0
 32 31  2  0  0  0  0
M  END
>  <minimizedAffinity>
-4.52304935

$$$$

 OpenBabel03252502253D

 32 34  0  0  1  0  0  0  0  0999 V2000
   39.3880   26.3660   42.4320 N   0  0  0  0  0  0  0  0  0  0  0  0
   39.4000   25.0100   42.9550 C   0  0  0  0  0  0  0  0  0  0  0  0
   38.4610   24.2390   42.0180 C   0  0  0  0  0  0  0  0  0  0  0  0
   37.0590   24.7510   42.1370 C   0  0  0  0  0  0  0  0  0  0  0  0
   36.9430   26.2320   42.3270 C   0  0  0  0  0  0  0  0  0  0  0  0
   38.1840   26.9940   41.9860 C   0  0  1  0  0  0  0  0  0  0  0  0
   38.8930   25.0310   43.9360 H   0  0  0  0  0  0  0  0  0  0  0  0
   40.3810   24.5470   42.9400 H   0  0  0  0  0  0  0  0  0  0  0  0
   38.8810   24.3000   41.0060 H   0  0  0  0  0  0  0  0  0  0  0  0
   38.4800   23.1930   42.4120 H   0  0  0  0  0  0  0  0  0  0  0  0
   36.5670   24.5120   41.1490 H   0  0  0  0  0  0  0  0  0  0  0  0
   36.4630   24.2180   42.8980 H   0  0  0  0  0  0  0  0  0  0  0  0
   36.0930   26.6570   41.7670 H   0  0  0  0  0  0  0  0  0  0  0  0
   36.7160   26.4330   43.3980 H   0  0  0  0  0  0  0  0  0  0  0  0
   38.1540   27.1730   40.8730 H   0  0  0  0  0  0  0  0  0  0  0  0
   42.4760   28.2970   43.2680 C   0  0  0  0  0  0  0  0  0  0  0  0
   41.3050   27.5500   43.4880 C   0  0  0  0  0  0  0  0  0  0  0  0
   40.5850   27.1260   42.3440 C   0  0  0  0  0  0  0  0  0  0  0  0
   41.0940   27.4800   41.1270 N   0  0  0  0  0  0  0  0  0  0  0  0
   42.2220   28.1980   40.9620 C   0  0  0  0  0  0  0  0  0  0  0  0
   42.9130   28.6060   42.0590 N   0  0  0  0  0  0  0  0  0  0  0  0
   42.9820   28.5910   44.1820 H   0  0  0  0  0  0  0  0  0  0  0  0
   40.8930   27.2640   44.4320 H   0  0  0  0  0  0  0  0  0  0  0  0
   42.4950   28.3980   39.9370 H   0  0  0  0  0  0  0  0  0  0  0  0
   38.0670   28.2560   42.6080 O   0  0  0  0  0  0  0  0  0  0  0  0
   37.7210   29.4210   41.9410 C   0  0  0  0  0  0  0  0  0  0  0  0
   38.8130   30.2800   41.7770 C   0  0  0  0  0  3  0  0  0  0  0  0
   38.5750   31.4900   41.1160 C   0  0  0  0  0  0  0  0  0  0  0  0
   39.4100   32.1790   40.9750 H   0  0  0  0  0  0  0  0  0  0  0  0
   37.3460   31.8030   40.6590 N   0  0  0  0  0  0  0  0  0  0  0  0
   36.3470   30.9170   40.8590 C   0  0  0  0  0  3  0  0  0  0  0  0
   36.5000   29.7500   41.4790 N   0  0  0  0  0  0  0  0  0  0  0  0
  1  2  1  0  0  0  0
  2  7  1  0  0  0  0
  3  4  1  0  0  0  0
  3 10  1  0  0  0  0
  3  2  1  0  0  0  0
  4  5  1  0  0  0  0
  4 12  1  0  0  0  0
  5 14  1  0  0  0  0
  6 15  1  6  0  0  0
  6  5  1  0  0  0  0
  6  1  1  0  0  0  0
  6 25  1  0  0  0  0
  8  2  1  0  0  0  0
  9  3  1  0  0  0  0
 11  4  1  0  0  0  0
 13  5  1  0  0  0  0
 16 17  1  0  0  0  0
 16 22  1  0  0  0  0
 17 23  1  0  0  0  0
 18  1  1  0  0  0  0
 18 17  2  0  0  0  0
 19 18  1  0  0  0  0
 20 19  2  0  0  0  0
 20 21  1  0  0  0  0
 21 16  2  0  0  0  0
 24 20  1  0  0  0  0
 26 25  1  0  0  0  0
 27 26  1  0  0  0  0
 28 27  2  0  0  0  0
 29 28  1  0  0  0  0
 30 31  2  0  0  0  0
 30 28  1  0  0  0  0
 31 32  1  0  0  0  0
 32 26  2  0  0  0  0
M  END
>  <minimizedAffinity>
-4.49728251

$$$$

 OpenBabel03252502253D

 32 34  0  0  1  0  0  0  0  0999 V2000
   37.1240   25.7970   41.2410 N   0  0  0  0  0  0  0  0  0  0  0  0
   36.8940   24.5420   41.9380 C   0  0  0  0  0  0  0  0  0  0  0  0
   37.4640   23.4780   40.9900 C   0  0  0  0  0  0  0  0  0  0  0  0
   36.6790   23.4320   39.7160 C   0  0  0  0  0  0  0  0  0  0  0  0
   36.2080   24.7630   39.2170 C   0  0  0  0  0  0  0  0  0  0  0  0
   36.9060   25.9330   39.8350 C   0  0  1  0  0  0  0  0  0  0  0  0
   35.8030   24.3710   41.9580 H   0  0  0  0  0  0  0  0  0  0  0  0
   37.4010   24.4770   42.8960 H   0  0  0  0  0  0  0  0  0  0  0  0
   38.5320   23.6920   40.8570 H   0  0  0  0  0  0  0  0  0  0  0  0
   37.2990   22.5140   41.5310 H   0  0  0  0  0  0  0  0  0  0  0  0
   37.3920   23.0280   38.9390 H   0  0  0  0  0  0  0  0  0  0  0  0
   35.8410   22.7140   39.7460 H   0  0  0  0  0  0  0  0  0  0  0  0
   36.2760   24.8420   38.1180 H   0  0  0  0  0  0  0  0  0  0  0  0
   35.1240   24.8630   39.4500 H   0  0  0  0  0  0  0  0  0  0  0  0
   37.8540   26.0890   39.2450 H   0  0  0  0  0  0  0  0  0  0  0  0
   37.4400   28.6290   43.6580 C   0  0  0  0  0  0  0  0  0  0  0  0
   36.8870   27.4870   43.0530 C   0  0  0  0  0  0  0  0  0  0  0  0
   37.5790   26.9480   41.9400 C   0  0  0  0  0  0  0  0  0  0  0  0
   38.7230   27.5850   41.5550 N   0  0  0  0  0  0  0  0  0  0  0  0
   39.2170   28.6800   42.1650 C   0  0  0  0  0  0  0  0  0  0  0  0
   38.5540   29.1990   43.2320 N   0  0  0  0  0  0  0  0  0  0  0  0
   36.8650   28.9940   44.5030 H   0  0  0  0  0  0  0  0  0  0  0  0
   35.9930   26.9750   43.3400 H   0  0  0  0  0  0  0  0  0  0  0  0
   40.1310   29.0700   41.7440 H   0  0  0  0  0  0  0  0  0  0  0  0
   36.0890   27.0590   39.6050 O   0  0  0  0  0  0  0  0  0  0  0  0
   36.3960   28.0710   38.7090 C   0  0  0  0  0  0  0  0  0  0  0  0
   36.2850   29.3400   39.2880 C   0  0  0  0  0  3  0  0  0  0  0  0
   36.5720   30.4390   38.4700 C   0  0  0  0  0  0  0  0  0  0  0  0
   36.4930   31.4400   38.8960 H   0  0  0  0  0  0  0  0  0  0  0  0
   36.9410   30.2700   37.1840 N   0  0  0  0  0  0  0  0  0  0  0  0
   37.0250   29.0110   36.7040 C   0  0  0  0  0  3  0  0  0  0  0  0
   36.7650   27.9220   37.4230 N   0  0  0  0  0  0  0  0  0  0  0  0
  1  2  1  0  0  0  0
  1 18  1  0  0  0  0
  2  7  1  0  0  0  0
  2  8  1  0  0  0  0
  3 10  1  0  0  0  0
  3  2  1  0  0  0  0
  4 12  1  0  0  0  0
  4  3  1  0  0  0  0
  5 14  1  0  0  0  0
  5  4  1  0  0  0  0
  5  6  1  0  0  0  0
  6 15  1  6  0  0  0
  6  1  1  0  0  0  0
  9  3  1  0  0  0  0
 11  4  1  0  0  0  0
 13  5  1  0  0  0  0
 16 22  1  0  0  0  0
 17 23  1  0  0  0  0
 17 16  2  0  0  0  0
 18 17  1  0  0  0  0
 19 18  2  0  0  0  0
 19 20  1  0  0  0  0
 20 21  2  0  0  0  0
 21 16  1  0  0  0  0
 24 20  1  0  0  0  0
 25  6  1  0  0  0  0
 26 27  1  0  0  0  0
 26 25  1  0  0  0  0
 28 29  1  0  0  0  0
 28 27  2  0  0  0  0
 30 28  1  0  0  0  0
 31 30  2  0  0  0  0
 31 32  1  0  0  0  0
 32 26  2  0  0  0  0
M  END
>  <minimizedAffinity>
-4.49384356

$$$$

 OpenBabel03252502253D

 32 34  0  0  1  0  0  0  0  0999 V2000
   38.3610   27.9390   40.9740 N   0  0  0  0  0  0  0  0  0  0  0  0
   38.4720   26.6600   41.6570 C   0  0  0  0  0  0  0  0  0  0  0  0
   37.1330   26.5090   42.3910 C   0  0  0  0  0  0  0  0  0  0  0  0
   36.9860   27.5660   43.4420 C   0  0  0  0  0  0  0  0  0  0  0  0
   37.5350   28.9080   43.0680 C   0  0  0  0  0  0  0  0  0  0  0  0
   37.7830   29.0840   41.6030 C   0  0  1  0  0  0  0  0  0  0  0  0
   39.2360   26.7740   42.4470 H   0  0  0  0  0  0  0  0  0  0  0  0
   38.6090   25.8190   40.9850 H   0  0  0  0  0  0  0  0  0  0  0  0
   36.3390   26.5110   41.6330 H   0  0  0  0  0  0  0  0  0  0  0  0
   37.2130   25.5210   42.9050 H   0  0  0  0  0  0  0  0  0  0  0  0
   35.8730   27.6980   43.5810 H   0  0  0  0  0  0  0  0  0  0  0  0
   37.3690   27.2550   44.4290 H   0  0  0  0  0  0  0  0  0  0  0  0
   36.8960   29.7330   43.4270 H   0  0  0  0  0  0  0  0  0  0  0  0
   38.5100   29.0470   43.5870 H   0  0  0  0  0  0  0  0  0  0  0  0
   36.8010   29.4010   41.1480 H   0  0  0  0  0  0  0  0  0  0  0  0
   40.5220   28.1040   37.9300 C   0  0  0  0  0  0  0  0  0  0  0  0
   40.1860   27.9160   39.2830 C   0  0  0  0  0  0  0  0  0  0  0  0
   38.8280   28.0990   39.6420 C   0  0  0  0  0  0  0  0  0  0  0  0
   37.9640   28.4390   38.6410 N   0  0  0  0  0  0  0  0  0  0  0  0
   38.3300   28.6090   37.3550 C   0  0  0  0  0  0  0  0  0  0  0  0
   39.6330   28.4350   37.0100 N   0  0  0  0  0  0  0  0  0  0  0  0
   41.5760   27.9510   37.7190 H   0  0  0  0  0  0  0  0  0  0  0  0
   40.8490   27.6500   40.0790 H   0  0  0  0  0  0  0  0  0  0  0  0
   37.5320   28.8780   36.6800 H   0  0  0  0  0  0  0  0  0  0  0  0
   38.6680   30.1750   41.4710 O   0  0  0  0  0  0  0  0  0  0  0  0
   38.3240   31.3880   40.8950 C   0  0  0  0  0  0  0  0  0  0  0  0
   39.2260   32.4050   41.2280 C   0  0  0  0  0  3  0  0  0  0  0  0
   38.9740   33.6750   40.6990 C   0  0  0  0  0  0  0  0  0  0  0  0
   39.6620   34.4870   40.9420 H   0  0  0  0  0  0  0  0  0  0  0  0
   37.9080   33.8990   39.9040 N   0  0  0  0  0  0  0  0  0  0  0  0
   37.0870   32.8620   39.6320 C   0  0  0  0  0  3  0  0  0  0  0  0
   37.2640   31.6290   40.1000 N   0  0  0  0  0  0  0  0  0  0  0  0
  1  6  1  0  0  0  0
  1  2  1  0  0  0  0
  2  3  1  0  0  0  0
  2  7  1  0  0  0  0
  3 10  1  0  0  0  0
  3  4  1  0  0  0  0
  4 11  1  0  0  0  0
  4 12  1  0  0  0  0
  5 13  1  0  0  0  0
  5  4  1  0  0  0  0
  5 14  1  0  0  0  0
  6 15  1  6  0  0  0
  6  5  1  0  0  0  0
  8  2  1  0  0  0  0
  9  3  1  0  0  0  0
 16 17  1  0  0  0  0
 17 18  2  0  0  0  0
 17 23  1  0  0  0  0
 18  1  1  0  0  0  0
 19 18  1  0  0  0  0
 20 19  2  0  0  0  0
 21 20  1  0  0  0  0
 21 16  2  0  0  0  0
 22 16  1  0  0  0  0
 24 20  1  0  0  0  0
 25  6  1  0  0  0  0
 26 27  1  0  0  0  0
 26 25  1  0  0  0  0
 28 29  1  0  0  0  0
 28 27  2  0  0  0  0
 30 28  1  0  0  0  0
 31 30  2  0  0  0  0
 31 32  1  0  0  0  0
 32 26  2  0  0  0  0
M  END
>  <minimizedAffinity>
-4.39619398

$$$$
