
 OpenBabel03252507583D

 25 27  0  0  1  0  0  0  0  0999 V2000
   46.5170   32.4330   46.1320 C   0  0  1  0  0  0  0  0  0  0  0  0
   46.9710   32.6730   47.5300 C   0  0  0  0  0  0  0  0  0  0  0  0
   45.6050   32.1390   47.2850 C   0  0  2  0  0  0  0  0  0  0  0  0
   47.0600   31.6810   45.5560 H   0  0  0  0  0  0  0  0  0  0  0  0
   47.0170   33.7390   47.8570 H   0  0  0  0  0  0  0  0  0  0  0  0
   47.7870   32.0530   47.8950 H   0  0  0  0  0  0  0  0  0  0  0  0
   44.7400   32.7790   47.4790 H   0  0  0  0  0  0  0  0  0  0  0  0
   46.2030   34.7820   43.3340 C   0  0  0  0  0  0  0  0  0  0  0  0
   45.2090   35.6870   43.7680 C   0  0  0  0  0  0  0  0  0  0  0  0
   44.6450   35.4720   45.0380 C   0  0  0  0  0  0  0  0  0  0  0  0
   45.0870   34.4140   45.7670 N   0  0  0  0  0  0  0  0  0  0  0  0
   46.0520   33.5780   45.2850 C   0  0  0  0  0  0  0  0  0  0  0  0
   46.6150   33.7410   44.0890 N   0  0  0  0  0  0  0  0  0  0  0  0
   44.8710   36.5100   43.1900 H   0  0  0  0  0  0  0  0  0  0  0  0
   43.8830   36.1270   45.4240 H   0  0  0  0  0  0  0  0  0  0  0  0
   46.7350   35.0680   42.0360 C   0  0  0  0  0  0  0  0  0  0  0  0
   47.9290   35.4140   41.7890 O   0  0  0  0  0  0  0  0  0  0  0  0
   45.9600   34.9460   41.2760 H   0  0  0  0  0  0  0  0  0  0  0  0
   45.3500   30.6700   47.4670 C   0  0  0  0  0  0  0  0  0  0  0  0
   45.1910   30.1240   48.7330 C   0  0  0  0  0  3  0  0  0  0  0  0
   44.9610   28.7660   48.7970 C   0  0  0  0  0  0  0  0  0  0  0  0
   44.8380   28.3450   49.7910 H   0  0  0  0  0  0  0  0  0  0  0  0
   44.8820   27.9550   47.7280 N   0  0  0  0  0  0  0  0  0  0  0  0
   45.0400   28.5200   46.5170 C   0  0  0  0  0  3  0  0  0  0  0  0
   45.2670   29.8410   46.4060 N   0  0  0  0  0  0  0  0  0  0  0  0
  1  4  1  6  0  0  0
  1  3  1  0  0  0  0
  1  2  1  0  0  0  0
  2  5  1  0  0  0  0
  2  6  1  0  0  0  0
  3 19  1  0  0  0  0
  3  7  1  1  0  0  0
  3  2  1  0  0  0  0
  8  9  2  0  0  0  0
  8 13  1  0  0  0  0
  9 10  1  0  0  0  0
 10 15  1  0  0  0  0
 10 11  2  0  0  0  0
 12 11  1  0  0  0  0
 12  1  1  0  0  0  0
 13 12  2  0  0  0  0
 14  9  1  0  0  0  0
 16  8  1  0  0  0  0
 17 16  2  0  0  0  0
 18 16  1  0  0  0  0
 19 20  1  0  0  0  0
 20 21  2  0  0  0  0
 21 22  1  0  0  0  0
 23 21  1  0  0  0  0
 24 23  2  0  0  0  0
 25 24  1  0  0  0  0
 25 19  2  0  0  0  0
M  END
>  <minimizedAffinity>
-4.49217033

>  <minimizedRMSD>
0.879218042

$$$$
