
 OpenBabel03252503503D

 19 20  0  0  0  0  0  0  0  0999 V2000
   47.5970   34.9650   42.3180 C   0  0  0  0  0  0  0  0  0  0  0  0
   47.8070   33.9750   43.2980 C   0  0  0  0  0  0  0  0  0  0  0  0
   46.7520   33.6570   44.1550 C   0  0  0  0  0  0  0  0  0  0  0  0
   45.5830   34.3090   44.0060 N   0  0  0  0  0  0  0  0  0  0  0  0
   45.3930   35.2600   43.0590 C   0  0  0  0  0  0  0  0  0  0  0  0
   46.4020   35.5820   42.2210 N   0  0  0  0  0  0  0  0  0  0  0  0
   48.7350   33.4350   43.4400 H   0  0  0  0  0  0  0  0  0  0  0  0
   44.4590   35.7970   42.9230 H   0  0  0  0  0  0  0  0  0  0  0  0
   46.9210   32.6540   45.1700 C   0  0  0  0  0  0  0  0  0  0  0  0
   46.6060   32.9440   46.4800 C   0  0  0  0  0  3  0  0  0  0  0  0
   46.7820   31.9430   47.4400 C   0  0  0  0  0  0  0  0  0  0  0  0
   46.5540   32.0940   48.5030 H   0  0  0  0  0  0  0  0  0  0  0  0
   47.2540   30.7090   47.0960 N   0  0  0  0  0  0  0  0  0  0  0  0
   47.5450   30.4790   45.8100 C   0  0  0  0  0  3  0  0  0  0  0  0
   47.3820   31.4310   44.8660 N   0  0  0  0  0  0  0  0  0  0  0  0
   48.7450   35.2860   41.4140 C   0  0  0  0  0  0  0  0  0  0  0  0
   48.3960   35.1990   40.0960 F   0  0  0  0  0  0  0  0  0  0  0  0
   49.1990   36.5590   41.7570 F   0  0  0  0  0  0  0  0  0  0  0  0
   49.8100   34.4160   41.7120 F   0  0  0  0  0  0  0  0  0  0  0  0
  1  2  1  0  0  0  0
  2  7  1  0  0  0  0
  2  3  2  0  0  0  0
  3  9  1  0  0  0  0
  4  3  1  0  0  0  0
  5  4  2  0  0  0  0
  6  1  2  0  0  0  0
  6  5  1  0  0  0  0
  8  5  1  0  0  0  0
  9 10  1  0  0  0  0
 10 11  2  0  0  0  0
 11 12  1  0  0  0  0
 13 11  1  0  0  0  0
 14 13  2  0  0  0  0
 15  9  2  0  0  0  0
 15 14  1  0  0  0  0
 16 19  1  0  0  0  0
 16 18  1  0  0  0  0
 16  1  1  0  0  0  0
 17 16  1  0  0  0  0
M  END
>  <minimizedAffinity>
-4.97885466

>  <minimizedRMSD>
0.26300627

$$$$
