
 OpenBabel03252509313D

 25 26  0  0  0  0  0  0  0  0999 V2000
   47.9400   33.4810   42.9340 O   0  0  0  0  0  0  0  0  0  0  0  0
   46.8740   34.3830   42.8700 C   0  0  0  0  0  0  0  0  0  0  0  0
   47.1780   35.4080   42.5920 H   0  0  0  0  0  0  0  0  0  0  0  0
   46.1440   34.0700   42.0660 H   0  0  0  0  0  0  0  0  0  0  0  0
   45.6390   33.4810   46.2840 C   0  0  0  0  0  0  0  0  0  0  0  0
   46.3700   33.4340   45.0870 C   0  0  0  0  0  0  0  0  0  0  0  0
   46.1240   34.4070   44.1290 C   0  0  0  0  0  0  0  0  0  0  0  0
   45.1860   35.3600   44.3970 N   0  0  0  0  0  0  0  0  0  0  0  0
   44.4900   35.3820   45.5700 C   0  0  0  0  0  0  0  0  0  0  0  0
   44.7260   34.4430   46.4940 N   0  0  0  0  0  0  0  0  0  0  0  0
   45.8830   32.6830   46.9960 H   0  0  0  0  0  0  0  0  0  0  0  0
   47.1090   32.6430   44.9320 H   0  0  0  0  0  0  0  0  0  0  0  0
   43.7490   36.1290   45.7890 H   0  0  0  0  0  0  0  0  0  0  0  0
   49.9990   33.0380   41.3840 O   0  0  0  0  0  0  0  0  0  0  0  0
   49.1890   34.1440   42.0190 P   0  0  2  0  0  0  0  0  0  0  0  0
   50.1190   35.1160   43.0290 O   0  0  0  0  0  0  0  0  0  0  0  0
   51.0670   34.9410   42.8780 H   0  0  0  0  0  0  0  0  0  0  0  0
   48.5070   35.0470   40.7750 O   0  0  0  0  0  0  0  0  0  0  0  0
   48.0780   34.4050   39.6220 C   0  0  0  0  0  0  0  0  0  0  0  0
   48.6810   34.8080   38.4260 C   0  0  0  0  0  3  0  0  0  0  0  0
   48.3160   34.2220   37.2210 C   0  0  0  0  0  0  0  0  0  0  0  0
   48.7760   34.5220   36.2680 H   0  0  0  0  0  0  0  0  0  0  0  0
   47.3670   33.2610   37.2600 N   0  0  0  0  0  0  0  0  0  0  0  0
   46.8080   32.8980   38.4270 C   0  0  0  0  0  3  0  0  0  0  0  0
   47.1450   33.4480   39.5850 N   0  0  0  0  0  0  0  0  0  0  0  0
  2  1  1  0  0  0  0
  2  7  1  0  0  0  0
  3  2  1  0  0  0  0
  4  2  1  0  0  0  0
  5 10  1  0  0  0  0
  5 11  1  0  0  0  0
  6  5  2  0  0  0  0
  7  8  2  0  0  0  0
  7  6  1  0  0  0  0
  8  9  1  0  0  0  0
  9 13  1  0  0  0  0
  9 10  2  0  0  0  0
 12  6  1  0  0  0  0
 15 14  2  6  0  0  0
 15  1  1  0  0  0  0
 15 16  1  0  0  0  0
 17 16  1  0  0  0  0
 18 15  1  0  0  0  0
 19 18  1  0  0  0  0
 20 19  2  0  0  0  0
 21 23  2  0  0  0  0
 21 20  1  0  0  0  0
 22 21  1  0  0  0  0
 23 24  1  0  0  0  0
 24 25  2  0  0  0  0
 25 19  1  0  0  0  0
M  END
>  <minimizedAffinity>
-4.69912624

>  <minimizedRMSD>
1.25343633

$$$$
