
 OpenBabel03242522303D

 37 40  0  0  0  0  0  0  0  0999 V2000
   45.3130   33.2060   41.1660 F   0  0  0  0  0  0  0  0  0  0  0  0
   46.4620   33.9090   40.9980 C   0  0  0  0  0  0  0  0  0  0  0  0
   46.9260   34.7290   41.9720 C   0  0  0  0  0  0  0  0  0  0  0  0
   48.0950   35.4030   41.7180 C   0  0  0  0  0  0  0  0  0  0  0  0
   48.7820   35.2710   40.5390 C   0  0  0  0  0  0  0  0  0  0  0  0
   48.2470   34.4250   39.6080 C   0  0  0  0  0  0  0  0  0  0  0  0
   47.0960   33.7300   39.7970 C   0  0  0  0  0  0  0  0  0  0  0  0
   48.4740   36.0650   42.4980 H   0  0  0  0  0  0  0  0  0  0  0  0
   49.7050   35.8290   40.3860 H   0  0  0  0  0  0  0  0  0  0  0  0
   48.7950   34.3210   38.6680 H   0  0  0  0  0  0  0  0  0  0  0  0
   46.6310   32.8660   38.7390 C   0  0  0  0  0  0  0  0  0  0  0  0
   46.1890   31.5970   39.0210 C   0  0  0  0  0  0  0  0  0  0  0  0
   45.7510   30.7970   38.0130 C   0  0  0  0  0  0  0  0  0  0  0  0
   45.7440   31.2500   36.6910 C   0  0  0  0  0  0  0  0  0  0  0  0
   46.2020   32.5470   36.4510 C   0  0  0  0  0  0  0  0  0  0  0  0
   46.6430   33.3520   37.4640 C   0  0  0  0  0  0  0  0  0  0  0  0
   46.2140   31.2900   40.0780 H   0  0  0  0  0  0  0  0  0  0  0  0
   45.4190   29.8120   38.3150 H   0  0  0  0  0  0  0  0  0  0  0  0
   45.3850   30.5670   35.9430 H   0  0  0  0  0  0  0  0  0  0  0  0
   46.1460   32.7760   35.3940 H   0  0  0  0  0  0  0  0  0  0  0  0
   47.0390   34.5730   36.9690 O   0  0  0  0  0  0  0  0  0  0  0  0
   47.7030   34.6940   36.2190 H   0  0  0  0  0  0  0  0  0  0  0  0
   44.4860   35.8790   44.6310 C   0  0  0  0  0  0  0  0  0  0  0  0
   45.1970   35.8110   43.4300 C   0  0  0  0  0  0  0  0  0  0  0  0
   46.1520   34.8370   43.2250 C   0  0  0  0  0  0  0  0  0  0  0  0
   46.3390   33.9750   44.2530 N   0  0  0  0  0  0  0  0  0  0  0  0
   45.6550   34.0530   45.3900 C   0  0  0  0  0  0  0  0  0  0  0  0
   44.7320   34.9970   45.5840 N   0  0  0  0  0  0  0  0  0  0  0  0
   43.7480   36.6850   44.7050 H   0  0  0  0  0  0  0  0  0  0  0  0
   44.9990   36.5320   42.6450 H   0  0  0  0  0  0  0  0  0  0  0  0
   45.9230   33.0790   46.4470 C   0  0  0  0  0  0  0  0  0  0  0  0
   46.9720   32.1870   46.3460 C   0  0  0  0  0  0  0  0  0  0  0  0
   47.2870   31.2380   47.3060 C   0  0  0  0  0  0  0  0  0  0  0  0
   48.1260   30.5800   47.1430 H   0  0  0  0  0  0  0  0  0  0  0  0
   46.4780   31.2240   48.4000 N   0  0  0  0  0  0  0  0  0  0  0  0
   45.4450   32.0850   48.5250 C   0  0  0  0  0  0  0  0  0  0  0  0
   45.1660   33.0070   47.5570 N   0  0  0  0  0  0  0  0  0  0  0  0
  2  1  1  0  0  0  0
  2  3  1  0  0  0  0
  3 25  1  0  0  0  0
  4  3  2  0  0  0  0
  4  8  1  0  0  0  0
  5  4  1  0  0  0  0
  6  7  1  0  0  0  0
  6  5  2  0  0  0  0
  7  2  2  0  0  0  0
  9  5  1  0  0  0  0
 10  6  1  0  0  0  0
 11 12  1  0  0  0  0
 11  7  1  0  0  0  0
 12 17  1  0  0  0  0
 13 18  1  0  0  0  0
 13 12  2  0  0  0  0
 14 13  1  0  0  0  0
 15 14  2  0  0  0  0
 15 16  1  0  0  0  0
 16 11  2  0  0  0  0
 19 14  1  0  0  0  0
 20 15  1  0  0  0  0
 21 16  1  0  0  0  0
 22 21  1  0  0  0  0
 23 29  1  0  0  0  0
 23 28  1  0  0  0  0
 24 23  2  0  0  0  0
 25 24  1  0  0  0  0
 25 26  2  0  0  0  0
 26 27  1  0  0  0  0
 27 28  2  0  0  0  0
 27 31  1  0  0  0  0
 30 24  1  0  0  0  0
 31 37  1  0  0  0  0
 32 31  2  0  0  0  0
 32 33  1  0  0  0  0
 33 35  2  0  0  0  0
 34 33  1  0  0  0  0
 35 36  1  0  0  0  0
 37 36  2  0  0  0  0
M  END
>  <minimizedAffinity>
-7.57341623

>  <minimizedRMSD>
0.244058713

$$$$
