
 OpenBabel03252500473D

 24 26  0  0  0  0  0  0  0  0999 V2000
   45.5480   34.0040   44.8520 C   0  0  0  0  0  0  0  0  0  0  0  0
   45.1550   33.2200   43.7650 C   0  0  0  0  0  0  0  0  0  0  0  0
   45.4620   31.8640   43.7210 C   0  0  0  0  0  0  0  0  0  0  0  0
   46.1580   31.3580   44.7880 N   0  0  0  0  0  0  0  0  0  0  0  0
   46.5310   32.1260   45.8310 C   0  0  0  0  0  0  0  0  0  0  0  0
   46.2380   33.4400   45.8820 N   0  0  0  0  0  0  0  0  0  0  0  0
   45.3380   35.0580   44.9400 H   0  0  0  0  0  0  0  0  0  0  0  0
   45.1620   31.2700   42.8950 H   0  0  0  0  0  0  0  0  0  0  0  0
   47.2710   31.5490   46.9470 C   0  0  0  0  0  0  0  0  0  0  0  0
   47.5820   30.2180   46.9840 C   0  0  0  0  0  0  0  0  0  0  0  0
   48.2780   29.6230   48.0130 C   0  0  0  0  0  0  0  0  0  0  0  0
   48.6590   30.4470   49.0340 N   0  0  0  0  0  0  0  0  0  0  0  0
   48.3500   31.7530   48.9900 C   0  0  0  0  0  0  0  0  0  0  0  0
   47.6670   32.3560   47.9880 N   0  0  0  0  0  0  0  0  0  0  0  0
   47.2480   29.6120   46.1380 H   0  0  0  0  0  0  0  0  0  0  0  0
   48.4620   28.5590   47.9270 H   0  0  0  0  0  0  0  0  0  0  0  0
   48.7060   32.3130   49.8590 H   0  0  0  0  0  0  0  0  0  0  0  0
   44.4220   33.8950   42.7070 C   0  0  0  0  0  0  0  0  0  0  0  0
   44.4590   35.2500   42.4710 C   0  0  0  0  0  0  0  0  0  0  0  0
   43.7470   35.8570   41.4530 C   0  0  0  0  0  0  0  0  0  0  0  0
   43.8050   36.9400   41.3000 H   0  0  0  0  0  0  0  0  0  0  0  0
   43.0000   35.0810   40.6790 N   0  0  0  0  0  0  0  0  0  0  0  0
   42.9430   33.7510   40.8850 C   0  0  0  0  0  0  0  0  0  0  0  0
   43.6500   33.1620   41.8930 N   0  0  0  0  0  0  0  0  0  0  0  0
  1  7  1  0  0  0  0
  1  6  1  0  0  0  0
  2  1  2  0  0  0  0
  3  2  1  0  0  0  0
  3  4  2  0  0  0  0
  4  5  1  0  0  0  0
  5  6  2  0  0  0  0
  5  9  1  0  0  0  0
  8  3  1  0  0  0  0
  9 10  2  0  0  0  0
  9 14  1  0  0  0  0
 10 11  1  0  0  0  0
 11 12  2  0  0  0  0
 13 12  1  0  0  0  0
 13 17  1  0  0  0  0
 14 13  2  0  0  0  0
 15 10  1  0  0  0  0
 16 11  1  0  0  0  0
 18  2  1  0  0  0  0
 19 18  1  0  0  0  0
 20 19  2  0  0  0  0
 21 20  1  0  0  0  0
 22 23  2  0  0  0  0
 22 20  1  0  0  0  0
 23 24  1  0  0  0  0
 24 18  2  0  0  0  0
M  END
>  <minimizedAffinity>
-4.3596487

>  <minimizedRMSD>
2.72581458

$$$$
