
 OpenBabel03242520383D

 33 36  0  0  1  0  0  0  0  0999 V2000
   38.6860   28.4820   40.2650 C   0  0  0  0  0  0  0  0  0  0  0  0
   38.7730   28.3450   41.6940 C   0  0  0  0  0  0  0  0  0  0  0  0
   38.2430   29.3610   42.4420 C   0  0  0  0  0  0  0  0  0  0  0  0
   37.6800   30.4140   41.7970 N   0  0  0  0  0  0  0  0  0  0  0  0
   37.6100   30.5220   40.4720 C   0  0  0  0  0  0  0  0  0  0  0  0
   38.1190   29.5430   39.7110 N   0  0  0  0  0  0  0  0  0  0  0  0
   39.0750   27.7290   39.6140 H   0  0  0  0  0  0  0  0  0  0  0  0
   38.3010   29.2710   43.5110 H   0  0  0  0  0  0  0  0  0  0  0  0
   39.4220   27.1650   42.3120 C   0  0  1  0  0  0  0  0  0  0  0  0
   39.1880   26.8030   43.6800 C   0  0  0  0  0  0  0  0  0  0  0  0
   38.5270   25.9640   42.6610 C   0  0  1  0  0  0  0  0  0  0  0  0
   40.2580   26.7900   41.6480 H   0  0  0  0  0  0  0  0  0  0  0  0
   38.6040   27.4900   44.3260 H   0  0  0  0  0  0  0  0  0  0  0  0
   40.0560   26.3830   44.2770 H   0  0  0  0  0  0  0  0  0  0  0  0
   38.9670   24.9350   42.5950 H   0  0  0  0  0  0  0  0  0  0  0  0
   37.0740   26.0000   42.3840 C   0  0  0  0  0  0  0  0  0  0  0  0
   36.8100   26.2860   41.0560 F   0  0  0  0  0  0  0  0  0  0  0  0
   36.4110   26.9350   43.1850 F   0  0  0  0  0  0  0  0  0  0  0  0
   36.5780   24.7430   42.6360 F   0  0  0  0  0  0  0  0  0  0  0  0
   36.9650   31.7240   39.8960 C   0  0  2  0  0  0  0  0  0  0  0  0
   37.1360   31.8550   38.3930 C   0  0  0  0  0  0  0  0  0  0  0  0
   37.7830   32.8190   39.2990 C   0  0  2  0  0  0  0  0  0  0  0  0
   35.9800   32.0210   40.3390 H   0  0  0  0  0  0  0  0  0  0  0  0
   36.2580   32.1730   37.7790 H   0  0  0  0  0  0  0  0  0  0  0  0
   37.7830   31.1420   37.8620 H   0  0  0  0  0  0  0  0  0  0  0  0
   37.2530   33.8210   39.3930 H   0  0  0  0  0  0  0  0  0  0  0  0
   39.2320   32.9200   39.5090 C   0  0  0  0  0  0  0  0  0  0  0  0
   39.9360   33.5040   40.5380 C   0  0  0  0  0  3  0  0  0  0  0  0
   41.3060   33.5460   40.6030 C   0  0  0  0  0  0  0  0  0  0  0  0
   41.7390   34.0400   41.4750 H   0  0  0  0  0  0  0  0  0  0  0  0
   42.0630   33.0000   39.6340 N   0  0  0  0  0  0  0  0  0  0  0  0
   41.3720   32.4190   38.6140 C   0  0  0  0  0  3  0  0  0  0  0  0
   40.0290   32.3740   38.5400 N   0  0  0  0  0  0  0  0  0  0  0  0
  1  2  1  0  0  0  0
  2  9  1  0  0  0  0
  2  3  2  0  0  0  0
  3  8  1  0  0  0  0
  4  3  1  0  0  0  0
  5  4  2  0  0  0  0
  6  1  2  0  0  0  0
  6  5  1  0  0  0  0
  7  1  1  0  0  0  0
  9 12  1  6  0  0  0
  9 11  1  0  0  0  0
  9 10  1  0  0  0  0
 10 14  1  0  0  0  0
 10 13  1  0  0  0  0
 11 15  1  6  0  0  0
 11 10  1  0  0  0  0
 16 19  1  0  0  0  0
 16 11  1  0  0  0  0
 16 18  1  0  0  0  0
 17 16  1  0  0  0  0
 20 23  1  1  0  0  0
 20  5  1  0  0  0  0
 21 22  1  0  0  0  0
 21 20  1  0  0  0  0
 22 26  1  1  0  0  0
 22 27  1  0  0  0  0
 22 20  1  0  0  0  0
 24 21  1  0  0  0  0
 25 21  1  0  0  0  0
 27 28  1  0  0  0  0
 28 29  2  0  0  0  0
 29 30  1  0  0  0  0
 31 29  1  0  0  0  0
 32 31  2  0  0  0  0
 33 32  1  0  0  0  0
 33 27  2  0  0  0  0
M  END
>  <minimizedAffinity>
-5.54459429

$$$$

 OpenBabel03242520383D

 33 36  0  0  1  0  0  0  0  0999 V2000
   39.1430   28.7340   41.3150 C   0  0  0  0  0  0  0  0  0  0  0  0
   38.0940   29.4370   42.0040 C   0  0  0  0  0  0  0  0  0  0  0  0
   37.7080   28.9310   43.2160 C   0  0  0  0  0  0  0  0  0  0  0  0
   38.3290   27.8180   43.6800 N   0  0  0  0  0  0  0  0  0  0  0  0
   39.2990   27.1810   43.0260 C   0  0  0  0  0  0  0  0  0  0  0  0
   39.7010   27.6510   41.8370 N   0  0  0  0  0  0  0  0  0  0  0  0
   39.5000   29.0690   40.3660 H   0  0  0  0  0  0  0  0  0  0  0  0
   36.9260   29.4470   43.7410 H   0  0  0  0  0  0  0  0  0  0  0  0
   37.4600   30.6390   41.4120 C   0  0  1  0  0  0  0  0  0  0  0  0
   37.4860   30.8880   40.0000 C   0  0  0  0  0  0  0  0  0  0  0  0
   36.1990   30.4270   40.5570 C   0  0  1  0  0  0  0  0  0  0  0  0
   37.2050   31.3830   42.2250 H   0  0  0  0  0  0  0  0  0  0  0  0
   38.0980   30.2320   39.3480 H   0  0  0  0  0  0  0  0  0  0  0  0
   37.5940   31.9610   39.6490 H   0  0  0  0  0  0  0  0  0  0  0  0
   35.4150   31.2280   40.5590 H   0  0  0  0  0  0  0  0  0  0  0  0
   35.6510   29.0700   40.3440 C   0  0  0  0  0  0  0  0  0  0  0  0
   35.4250   28.4110   41.5410 F   0  0  0  0  0  0  0  0  0  0  0  0
   36.4920   28.2830   39.5510 F   0  0  0  0  0  0  0  0  0  0  0  0
   34.4330   29.2130   39.7220 F   0  0  0  0  0  0  0  0  0  0  0  0
   39.8960   25.9770   43.6480 C   0  0  2  0  0  0  0  0  0  0  0  0
   40.9760   25.3200   42.8070 C   0  0  0  0  0  0  0  0  0  0  0  0
   39.6980   24.6270   43.0450 C   0  0  2  0  0  0  0  0  0  0  0  0
   40.0440   26.0110   44.7580 H   0  0  0  0  0  0  0  0  0  0  0  0
   41.9050   24.9600   43.3130 H   0  0  0  0  0  0  0  0  0  0  0  0
   41.1690   25.6960   41.7920 H   0  0  0  0  0  0  0  0  0  0  0  0
   39.7320   23.8160   43.8420 H   0  0  0  0  0  0  0  0  0  0  0  0
   38.6870   24.3690   42.0130 C   0  0  0  0  0  0  0  0  0  0  0  0
   37.3130   24.3820   42.1010 C   0  0  0  0  0  3  0  0  0  0  0  0
   36.4750   24.1000   41.0520 C   0  0  0  0  0  0  0  0  0  0  0  0
   35.4030   24.1450   41.2560 H   0  0  0  0  0  0  0  0  0  0  0  0
   36.9640   23.7860   39.8390 N   0  0  0  0  0  0  0  0  0  0  0  0
   38.3230   23.7730   39.7450 C   0  0  0  0  0  3  0  0  0  0  0  0
   39.1530   24.0460   40.7680 N   0  0  0  0  0  0  0  0  0  0  0  0
  1  6  2  0  0  0  0
  1  2  1  0  0  0  0
  2  3  2  0  0  0  0
  3  4  1  0  0  0  0
  3  8  1  0  0  0  0
  5 20  1  0  0  0  0
  5  4  2  0  0  0  0
  6  5  1  0  0  0  0
  7  1  1  0  0  0  0
  9  2  1  0  0  0  0
  9 12  1  1  0  0  0
 10 11  1  0  0  0  0
 10  9  1  0  0  0  0
 11 15  1  1  0  0  0
 11  9  1  0  0  0  0
 13 10  1  0  0  0  0
 14 10  1  0  0  0  0
 16 11  1  0  0  0  0
 16 17  1  0  0  0  0
 18 16  1  0  0  0  0
 19 16  1  0  0  0  0
 20 23  1  1  0  0  0
 21 22  1  0  0  0  0
 21 24  1  0  0  0  0
 21 20  1  0  0  0  0
 22 20  1  0  0  0  0
 22 26  1  1  0  0  0
 25 21  1  0  0  0  0
 27 28  1  0  0  0  0
 27 22  1  0  0  0  0
 29 30  1  0  0  0  0
 29 28  2  0  0  0  0
 31 29  1  0  0  0  0
 32 31  2  0  0  0  0
 32 33  1  0  0  0  0
 33 27  2  0  0  0  0
M  END
>  <minimizedAffinity>
-5.52220011

$$$$

 OpenBabel03242520383D

 33 36  0  0  1  0  0  0  0  0999 V2000
   38.9220   28.1060   39.9710 C   0  0  0  0  0  0  0  0  0  0  0  0
   38.7100   28.1810   41.3910 C   0  0  0  0  0  0  0  0  0  0  0  0
   37.8290   29.1300   41.8320 C   0  0  0  0  0  0  0  0  0  0  0  0
   37.2230   29.9260   40.9160 N   0  0  0  0  0  0  0  0  0  0  0  0
   37.4320   29.8410   39.6050 C   0  0  0  0  0  0  0  0  0  0  0  0
   38.2900   28.9220   39.1390 N   0  0  0  0  0  0  0  0  0  0  0  0
   39.5930   27.3900   39.5500 H   0  0  0  0  0  0  0  0  0  0  0  0
   37.6620   29.1960   42.8920 H   0  0  0  0  0  0  0  0  0  0  0  0
   39.4310   27.2790   42.3210 C   0  0  1  0  0  0  0  0  0  0  0  0
   39.0080   27.0990   43.6790 C   0  0  0  0  0  0  0  0  0  0  0  0
   38.7170   25.9870   42.7530 C   0  0  1  0  0  0  0  0  0  0  0  0
   40.4320   26.9890   41.8810 H   0  0  0  0  0  0  0  0  0  0  0  0
   38.1960   27.7400   44.0800 H   0  0  0  0  0  0  0  0  0  0  0  0
   39.8060   26.9740   44.4750 H   0  0  0  0  0  0  0  0  0  0  0  0
   39.3400   25.0780   42.9570 H   0  0  0  0  0  0  0  0  0  0  0  0
   37.3630   25.6700   42.2510 C   0  0  0  0  0  0  0  0  0  0  0  0
   36.9770   24.3830   42.5860 F   0  0  0  0  0  0  0  0  0  0  0  0
   37.2690   25.8200   40.8640 F   0  0  0  0  0  0  0  0  0  0  0  0
   36.4850   26.5310   42.8670 F   0  0  0  0  0  0  0  0  0  0  0  0
   36.7010   30.7710   38.7120 C   0  0  2  0  0  0  0  0  0  0  0  0
   37.3710   30.9860   37.3660 C   0  0  0  0  0  0  0  0  0  0  0  0
   37.2870   32.0900   38.3370 C   0  0  2  0  0  0  0  0  0  0  0  0
   35.5830   30.7090   38.7380 H   0  0  0  0  0  0  0  0  0  0  0  0
   36.7340   31.0060   36.4480 H   0  0  0  0  0  0  0  0  0  0  0  0
   38.3600   30.5450   37.1820 H   0  0  0  0  0  0  0  0  0  0  0  0
   36.4700   32.8540   38.1290 H   0  0  0  0  0  0  0  0  0  0  0  0
   38.4380   32.6670   39.0430 C   0  0  0  0  0  0  0  0  0  0  0  0
   39.7850   32.4340   38.8720 C   0  0  0  0  0  3  0  0  0  0  0  0
   40.7670   33.0310   39.6200 C   0  0  0  0  0  0  0  0  0  0  0  0
   41.7970   32.7580   39.3820 H   0  0  0  0  0  0  0  0  0  0  0  0
   40.4610   33.9080   40.5930 N   0  0  0  0  0  0  0  0  0  0  0  0
   39.1300   34.1440   40.7650 C   0  0  0  0  0  3  0  0  0  0  0  0
   38.1590   33.5620   40.0380 N   0  0  0  0  0  0  0  0  0  0  0  0
  1  2  1  0  0  0  0
  2  3  2  0  0  0  0
  2  9  1  0  0  0  0
  3  8  1  0  0  0  0
  4  3  1  0  0  0  0
  5  4  2  0  0  0  0
  6  5  1  0  0  0  0
  6  1  2  0  0  0  0
  7  1  1  0  0  0  0
  9 12  1  6  0  0  0
  9 11  1  0  0  0  0
  9 10  1  0  0  0  0
 10 13  1  0  0  0  0
 10 14  1  0  0  0  0
 11 15  1  1  0  0  0
 11 10  1  0  0  0  0
 16 17  1  0  0  0  0
 16 11  1  0  0  0  0
 16 19  1  0  0  0  0
 18 16  1  0  0  0  0
 20 23  1  1  0  0  0
 20  5  1  0  0  0  0
 21 22  1  0  0  0  0
 21 20  1  0  0  0  0
 22 26  1  6  0  0  0
 22 20  1  0  0  0  0
 22 27  1  0  0  0  0
 24 21  1  0  0  0  0
 25 21  1  0  0  0  0
 27 33  1  0  0  0  0
 28 27  2  0  0  0  0
 28 29  1  0  0  0  0
 29 31  2  0  0  0  0
 30 29  1  0  0  0  0
 31 32  1  0  0  0  0
 33 32  2  0  0  0  0
M  END
>  <minimizedAffinity>
-5.42049837

$$$$

 OpenBabel03242520383D

 33 36  0  0  1  0  0  0  0  0999 V2000
   36.5800   29.9990   41.7120 C   0  0  0  0  0  0  0  0  0  0  0  0
   36.6030   28.5610   41.6680 C   0  0  0  0  0  0  0  0  0  0  0  0
   36.6220   27.9850   40.4270 C   0  0  0  0  0  0  0  0  0  0  0  0
   36.6180   28.7930   39.3380 N   0  0  0  0  0  0  0  0  0  0  0  0
   36.5960   30.1220   39.4000 C   0  0  0  0  0  0  0  0  0  0  0  0
   36.5770   30.7190   40.6000 N   0  0  0  0  0  0  0  0  0  0  0  0
   36.5660   30.5220   42.6430 H   0  0  0  0  0  0  0  0  0  0  0  0
   36.6400   26.9110   40.3800 H   0  0  0  0  0  0  0  0  0  0  0  0
   36.5890   27.7570   42.9130 C   0  0  1  0  0  0  0  0  0  0  0  0
   37.0480   26.3990   42.9400 C   0  0  0  0  0  0  0  0  0  0  0  0
   37.9470   27.4020   43.5430 C   0  0  1  0  0  0  0  0  0  0  0  0
   35.9680   28.2760   43.7030 H   0  0  0  0  0  0  0  0  0  0  0  0
   37.3050   25.8980   41.9840 H   0  0  0  0  0  0  0  0  0  0  0  0
   36.4990   25.6630   43.6060 H   0  0  0  0  0  0  0  0  0  0  0  0
   38.0080   27.3140   44.6590 H   0  0  0  0  0  0  0  0  0  0  0  0
   39.2090   27.8530   42.9190 C   0  0  0  0  0  0  0  0  0  0  0  0
   39.3230   29.2330   42.9260 F   0  0  0  0  0  0  0  0  0  0  0  0
   39.3360   27.3990   41.6030 F   0  0  0  0  0  0  0  0  0  0  0  0
   40.2420   27.3570   43.6800 F   0  0  0  0  0  0  0  0  0  0  0  0
   36.5970   30.8880   38.1310 C   0  0  2  0  0  0  0  0  0  0  0  0
   37.7330   30.5230   37.1920 C   0  0  0  0  0  0  0  0  0  0  0  0
   37.6900   31.8530   37.8210 C   0  0  2  0  0  0  0  0  0  0  0  0
   35.5940   31.1070   37.6820 H   0  0  0  0  0  0  0  0  0  0  0  0
   37.5140   30.4180   36.1010 H   0  0  0  0  0  0  0  0  0  0  0  0
   38.5080   29.8220   37.5340 H   0  0  0  0  0  0  0  0  0  0  0  0
   37.3150   32.6920   37.1500 H   0  0  0  0  0  0  0  0  0  0  0  0
   38.6370   32.3220   38.8420 C   0  0  0  0  0  0  0  0  0  0  0  0
   38.5550   33.4020   39.6910 C   0  0  0  0  0  3  0  0  0  0  0  0
   39.5300   33.7430   40.5940 C   0  0  0  0  0  0  0  0  0  0  0  0
   39.3410   34.6250   41.2090 H   0  0  0  0  0  0  0  0  0  0  0  0
   40.6570   33.0160   40.7050 N   0  0  0  0  0  0  0  0  0  0  0  0
   40.7420   31.9450   39.8680 C   0  0  0  0  0  3  0  0  0  0  0  0
   39.7920   31.6030   38.9780 N   0  0  0  0  0  0  0  0  0  0  0  0
  1  7  1  0  0  0  0
  2  1  1  0  0  0  0
  2  9  1  0  0  0  0
  3  2  2  0  0  0  0
  4  5  2  0  0  0  0
  4  3  1  0  0  0  0
  5  6  1  0  0  0  0
  6  1  2  0  0  0  0
  8  3  1  0  0  0  0
  9 10  1  0  0  0  0
  9 11  1  0  0  0  0
  9 12  1  1  0  0  0
 10 11  1  0  0  0  0
 10 14  1  0  0  0  0
 11 15  1  1  0  0  0
 13 10  1  0  0  0  0
 16 17  1  0  0  0  0
 16 11  1  0  0  0  0
 16 19  1  0  0  0  0
 18 16  1  0  0  0  0
 20 23  1  6  0  0  0
 20  5  1  0  0  0  0
 21 25  1  0  0  0  0
 21 22  1  0  0  0  0
 21 20  1  0  0  0  0
 22 26  1  6  0  0  0
 22 20  1  0  0  0  0
 22 27  1  0  0  0  0
 24 21  1  0  0  0  0
 27 33  2  0  0  0  0
 27 28  1  0  0  0  0
 28 29  2  0  0  0  0
 29 31  1  0  0  0  0
 29 30  1  0  0  0  0
 32 31  2  0  0  0  0
 33 32  1  0  0  0  0
M  END
>  <minimizedAffinity>
-5.35463476

$$$$

 OpenBabel03242520383D

 33 36  0  0  1  0  0  0  0  0999 V2000
   37.4380   27.2070   40.0420 C   0  0  0  0  0  0  0  0  0  0  0  0
   36.9620   27.5420   41.3570 C   0  0  0  0  0  0  0  0  0  0  0  0
   36.2540   28.7060   41.4760 C   0  0  0  0  0  0  0  0  0  0  0  0
   36.0500   29.4570   40.3650 N   0  0  0  0  0  0  0  0  0  0  0  0
   36.4990   29.1290   39.1550 C   0  0  0  0  0  0  0  0  0  0  0  0
   37.1960   27.9950   39.0040 N   0  0  0  0  0  0  0  0  0  0  0  0
   37.9960   26.3140   39.8680 H   0  0  0  0  0  0  0  0  0  0  0  0
   35.8920   28.9680   42.4540 H   0  0  0  0  0  0  0  0  0  0  0  0
   37.2470   26.6680   42.5200 C   0  0  1  0  0  0  0  0  0  0  0  0
   38.3430   25.7430   42.5190 C   0  0  0  0  0  0  0  0  0  0  0  0
   38.5190   26.9610   43.3330 C   0  0  1  0  0  0  0  0  0  0  0  0
   36.3710   26.6770   43.2350 H   0  0  0  0  0  0  0  0  0  0  0  0
   38.9170   25.5890   41.5830 H   0  0  0  0  0  0  0  0  0  0  0  0
   38.1960   24.7410   43.0310 H   0  0  0  0  0  0  0  0  0  0  0  0
   38.5060   26.7530   44.4350 H   0  0  0  0  0  0  0  0  0  0  0  0
   39.4140   28.0770   42.9570 C   0  0  0  0  0  0  0  0  0  0  0  0
   38.8740   29.3070   43.2940 F   0  0  0  0  0  0  0  0  0  0  0  0
   39.7090   28.0760   41.5910 F   0  0  0  0  0  0  0  0  0  0  0  0
   40.5750   27.9320   43.6800 F   0  0  0  0  0  0  0  0  0  0  0  0
   36.2030   30.0380   38.0230 C   0  0  2  0  0  0  0  0  0  0  0  0
   37.2960   30.0860   36.9700 C   0  0  0  0  0  0  0  0  0  0  0  0
   37.0130   31.2700   37.7990 C   0  0  2  0  0  0  0  0  0  0  0  0
   35.1380   30.0700   37.6760 H   0  0  0  0  0  0  0  0  0  0  0  0
   37.0020   30.0810   35.8910 H   0  0  0  0  0  0  0  0  0  0  0  0
   38.2390   29.5510   37.1500 H   0  0  0  0  0  0  0  0  0  0  0  0
   36.3950   32.0780   37.2900 H   0  0  0  0  0  0  0  0  0  0  0  0
   37.9230   31.8070   38.8180 C   0  0  0  0  0  0  0  0  0  0  0  0
   37.6890   32.7330   39.8100 C   0  0  0  0  0  3  0  0  0  0  0  0
   38.6440   33.1670   40.6950 C   0  0  0  0  0  0  0  0  0  0  0  0
   38.3270   33.9050   41.4330 H   0  0  0  0  0  0  0  0  0  0  0  0
   39.9030   32.6970   40.6420 N   0  0  0  0  0  0  0  0  0  0  0  0
   40.1400   31.7790   39.6630 C   0  0  0  0  0  3  0  0  0  0  0  0
   39.2110   31.3480   38.7900 N   0  0  0  0  0  0  0  0  0  0  0  0
  1  2  1  0  0  0  0
  2  3  2  0  0  0  0
  2  9  1  0  0  0  0
  3  8  1  0  0  0  0
  4  3  1  0  0  0  0
  5  4  2  0  0  0  0
  6  5  1  0  0  0  0
  6  1  2  0  0  0  0
  7  1  1  0  0  0  0
  9 12  1  1  0  0  0
  9 11  1  0  0  0  0
 10  9  1  0  0  0  0
 10 14  1  0  0  0  0
 10 11  1  0  0  0  0
 11 15  1  1  0  0  0
 13 10  1  0  0  0  0
 16 17  1  0  0  0  0
 16 11  1  0  0  0  0
 16 19  1  0  0  0  0
 18 16  1  0  0  0  0
 20 23  1  6  0  0  0
 20  5  1  0  0  0  0
 21 25  1  0  0  0  0
 21 22  1  0  0  0  0
 21 20  1  0  0  0  0
 22 26  1  6  0  0  0
 22 20  1  0  0  0  0
 22 27  1  0  0  0  0
 24 21  1  0  0  0  0
 27 28  1  0  0  0  0
 28 29  2  0  0  0  0
 29 30  1  0  0  0  0
 31 29  1  0  0  0  0
 32 31  2  0  0  0  0
 33 27  2  0  0  0  0
 33 32  1  0  0  0  0
M  END
>  <minimizedAffinity>
-5.26501608

$$$$

 OpenBabel03242520383D

 33 36  0  0  1  0  0  0  0  0999 V2000
   37.6120   29.6400   39.3750 C   0  0  0  0  0  0  0  0  0  0  0  0
   37.1400   30.9260   39.8130 C   0  0  0  0  0  0  0  0  0  0  0  0
   36.5180   30.9700   41.0310 C   0  0  0  0  0  0  0  0  0  0  0  0
   36.3890   29.8170   41.7340 N   0  0  0  0  0  0  0  0  0  0  0  0
   36.8330   28.6360   41.3110 C   0  0  0  0  0  0  0  0  0  0  0  0
   37.4480   28.5580   40.1220 N   0  0  0  0  0  0  0  0  0  0  0  0
   38.1100   29.5250   38.4370 H   0  0  0  0  0  0  0  0  0  0  0  0
   36.1600   31.9250   41.3690 H   0  0  0  0  0  0  0  0  0  0  0  0
   37.3100   32.1320   38.9680 C   0  0  1  0  0  0  0  0  0  0  0  0
   37.2100   33.4550   39.5110 C   0  0  0  0  0  0  0  0  0  0  0  0
   38.5710   32.9830   39.1930 C   0  0  1  0  0  0  0  0  0  0  0  0
   37.2780   31.8470   37.8740 H   0  0  0  0  0  0  0  0  0  0  0  0
   36.8760   33.5820   40.5620 H   0  0  0  0  0  0  0  0  0  0  0  0
   36.7300   34.2600   38.8720 H   0  0  0  0  0  0  0  0  0  0  0  0
   39.0190   33.5130   38.3130 H   0  0  0  0  0  0  0  0  0  0  0  0
   39.5680   32.6000   40.2170 C   0  0  0  0  0  0  0  0  0  0  0  0
   40.1030   31.3460   39.9720 F   0  0  0  0  0  0  0  0  0  0  0  0
   39.0260   32.6120   41.5060 F   0  0  0  0  0  0  0  0  0  0  0  0
   40.6010   33.5040   40.1420 F   0  0  0  0  0  0  0  0  0  0  0  0
   36.6300   27.4530   42.1800 C   0  0  2  0  0  0  0  0  0  0  0  0
   36.8530   27.7290   43.6570 C   0  0  0  0  0  0  0  0  0  0  0  0
   37.7710   26.8430   42.9200 C   0  0  2  0  0  0  0  0  0  0  0  0
   35.7930   26.7650   41.8960 H   0  0  0  0  0  0  0  0  0  0  0  0
   36.1390   27.2940   44.3980 H   0  0  0  0  0  0  0  0  0  0  0  0
   37.2350   28.7120   43.9680 H   0  0  0  0  0  0  0  0  0  0  0  0
   37.6020   25.7300   43.0850 H   0  0  0  0  0  0  0  0  0  0  0  0
   39.1700   27.1670   42.6110 C   0  0  0  0  0  0  0  0  0  0  0  0
   39.9620   28.1930   43.0770 C   0  0  0  0  0  3  0  0  0  0  0  0
   41.2620   28.3950   42.6880 C   0  0  0  0  0  0  0  0  0  0  0  0
   41.7790   29.2470   43.1330 H   0  0  0  0  0  0  0  0  0  0  0  0
   41.8560   27.5750   41.8020 N   0  0  0  0  0  0  0  0  0  0  0  0
   41.0780   26.5570   41.3400 C   0  0  0  0  0  3  0  0  0  0  0  0
   39.8020   26.3510   41.7140 N   0  0  0  0  0  0  0  0  0  0  0  0
  1  2  2  0  0  0  0
  1  6  1  0  0  0  0
  2  3  1  0  0  0  0
  3  8  1  0  0  0  0
  3  4  2  0  0  0  0
  5  4  1  0  0  0  0
  5 20  1  0  0  0  0
  6  5  2  0  0  0  0
  7  1  1  0  0  0  0
  9 12  1  6  0  0  0
  9 11  1  0  0  0  0
  9 10  1  0  0  0  0
  9  2  1  0  0  0  0
 10 13  1  0  0  0  0
 11 15  1  6  0  0  0
 11 10  1  0  0  0  0
 11 16  1  0  0  0  0
 14 10  1  0  0  0  0
 16 18  1  0  0  0  0
 17 16  1  0  0  0  0
 19 16  1  0  0  0  0
 20 23  1  6  0  0  0
 20 22  1  0  0  0  0
 20 21  1  0  0  0  0
 21 25  1  0  0  0  0
 21 24  1  0  0  0  0
 22 26  1  1  0  0  0
 22 21  1  0  0  0  0
 27 22  1  0  0  0  0
 27 28  1  0  0  0  0
 29 28  2  0  0  0  0
 29 30  1  0  0  0  0
 31 29  1  0  0  0  0
 32 33  1  0  0  0  0
 32 31  2  0  0  0  0
 33 27  2  0  0  0  0
M  END
>  <minimizedAffinity>
-5.24296093

$$$$

 OpenBabel03242520383D

 33 36  0  0  1  0  0  0  0  0999 V2000
   38.8120   29.5240   39.6480 C   0  0  0  0  0  0  0  0  0  0  0  0
   39.0200   30.6040   40.5740 C   0  0  0  0  0  0  0  0  0  0  0  0
   38.4970   30.4460   41.8290 C   0  0  0  0  0  0  0  0  0  0  0  0
   37.8280   29.3010   42.1120 N   0  0  0  0  0  0  0  0  0  0  0  0
   37.6460   28.3120   41.2400 C   0  0  0  0  0  0  0  0  0  0  0  0
   38.1460   28.4350   40.0020 N   0  0  0  0  0  0  0  0  0  0  0  0
   39.1920   29.5720   38.6510 H   0  0  0  0  0  0  0  0  0  0  0  0
   38.6450   31.2460   42.5310 H   0  0  0  0  0  0  0  0  0  0  0  0
   39.7510   31.8290   40.1710 C   0  0  1  0  0  0  0  0  0  0  0  0
   39.8840   32.2120   38.7960 C   0  0  0  0  0  0  0  0  0  0  0  0
   38.9240   32.9930   39.6000 C   0  0  1  0  0  0  0  0  0  0  0  0
   40.3500   32.2280   41.0440 H   0  0  0  0  0  0  0  0  0  0  0  0
   39.5380   31.5130   38.0070 H   0  0  0  0  0  0  0  0  0  0  0  0
   40.8590   32.6870   38.4660 H   0  0  0  0  0  0  0  0  0  0  0  0
   39.2740   34.0400   39.7960 H   0  0  0  0  0  0  0  0  0  0  0  0
   37.4560   32.8810   39.4640 C   0  0  0  0  0  0  0  0  0  0  0  0
   36.8720   34.0970   39.1550 F   0  0  0  0  0  0  0  0  0  0  0  0
   36.8590   32.3790   40.6250 F   0  0  0  0  0  0  0  0  0  0  0  0
   37.2060   32.0300   38.4130 F   0  0  0  0  0  0  0  0  0  0  0  0
   36.8980   27.1120   41.6800 C   0  0  2  0  0  0  0  0  0  0  0  0
   36.8420   26.9390   43.1870 C   0  0  0  0  0  0  0  0  0  0  0  0
   37.5960   25.9820   42.3590 C   0  0  2  0  0  0  0  0  0  0  0  0
   35.9830   26.8510   41.0870 H   0  0  0  0  0  0  0  0  0  0  0  0
   35.8770   26.6260   43.6560 H   0  0  0  0  0  0  0  0  0  0  0  0
   37.4190   27.6220   43.8280 H   0  0  0  0  0  0  0  0  0  0  0  0
   37.0650   24.9960   42.1590 H   0  0  0  0  0  0  0  0  0  0  0  0
   39.0580   25.8510   42.3620 C   0  0  0  0  0  0  0  0  0  0  0  0
   39.9140   25.4910   41.3450 C   0  0  0  0  0  3  0  0  0  0  0  0
   41.2740   25.3860   41.4880 C   0  0  0  0  0  0  0  0  0  0  0  0
   41.8380   25.0910   40.6020 H   0  0  0  0  0  0  0  0  0  0  0  0
   41.8680   25.6390   42.6680 N   0  0  0  0  0  0  0  0  0  0  0  0
   41.0270   25.9970   43.6780 C   0  0  0  0  0  3  0  0  0  0  0  0
   39.6920   26.1010   43.5480 N   0  0  0  0  0  0  0  0  0  0  0  0
  1  6  2  0  0  0  0
  1  2  1  0  0  0  0
  2  3  2  0  0  0  0
  3  4  1  0  0  0  0
  3  8  1  0  0  0  0
  5 20  1  0  0  0  0
  5  4  2  0  0  0  0
  6  5  1  0  0  0  0
  7  1  1  0  0  0  0
  9  2  1  0  0  0  0
  9 12  1  1  0  0  0
 10 11  1  0  0  0  0
 10  9  1  0  0  0  0
 11 15  1  1  0  0  0
 11  9  1  0  0  0  0
 13 10  1  0  0  0  0
 14 10  1  0  0  0  0
 16 11  1  0  0  0  0
 16 18  1  0  0  0  0
 17 16  1  0  0  0  0
 19 16  1  0  0  0  0
 20 23  1  6  0  0  0
 20 22  1  0  0  0  0
 20 21  1  0  0  0  0
 21 24  1  0  0  0  0
 21 25  1  0  0  0  0
 22 26  1  6  0  0  0
 22 27  1  0  0  0  0
 22 21  1  0  0  0  0
 27 33  1  0  0  0  0
 28 29  1  0  0  0  0
 28 27  2  0  0  0  0
 29 31  2  0  0  0  0
 30 29  1  0  0  0  0
 31 32  1  0  0  0  0
 33 32  2  0  0  0  0
M  END
>  <minimizedAffinity>
-5.2424984

$$$$

 OpenBabel03242520383D

 33 36  0  0  1  0  0  0  0  0999 V2000
   37.3190   29.0280   40.3340 C   0  0  0  0  0  0  0  0  0  0  0  0
   38.4060   29.7620   39.7450 C   0  0  0  0  0  0  0  0  0  0  0  0
   39.5810   29.7880   40.4460 C   0  0  0  0  0  0  0  0  0  0  0  0
   39.6430   29.1300   41.6310 N   0  0  0  0  0  0  0  0  0  0  0  0
   38.6250   28.4560   42.1590 C   0  0  0  0  0  0  0  0  0  0  0  0
   37.4590   28.4100   41.4980 N   0  0  0  0  0  0  0  0  0  0  0  0
   36.3720   28.9600   39.8470 H   0  0  0  0  0  0  0  0  0  0  0  0
   40.4020   30.3330   40.0160 H   0  0  0  0  0  0  0  0  0  0  0  0
   38.2430   30.4660   38.4510 C   0  0  1  0  0  0  0  0  0  0  0  0
   36.9490   30.7990   37.9300 C   0  0  0  0  0  0  0  0  0  0  0  0
   37.7330   31.9170   38.4910 C   0  0  1  0  0  0  0  0  0  0  0  0
   39.2200   30.4600   37.8800 H   0  0  0  0  0  0  0  0  0  0  0  0
   36.0460   30.4150   38.4460 H   0  0  0  0  0  0  0  0  0  0  0  0
   36.7910   30.7310   36.8090 H   0  0  0  0  0  0  0  0  0  0  0  0
   38.0960   32.6300   37.7060 H   0  0  0  0  0  0  0  0  0  0  0  0
   37.4230   32.5710   39.7810 C   0  0  0  0  0  0  0  0  0  0  0  0
   38.5530   32.7270   40.5650 F   0  0  0  0  0  0  0  0  0  0  0  0
   36.4640   31.8640   40.5110 F   0  0  0  0  0  0  0  0  0  0  0  0
   36.9490   33.8310   39.4970 F   0  0  0  0  0  0  0  0  0  0  0  0
   38.8270   27.7780   43.4610 C   0  0  2  0  0  0  0  0  0  0  0  0
   40.1500   27.0420   43.5730 C   0  0  0  0  0  0  0  0  0  0  0  0
   38.8840   26.2900   43.5480 C   0  0  2  0  0  0  0  0  0  0  0  0
   38.4490   28.3180   44.3670 H   0  0  0  0  0  0  0  0  0  0  0  0
   40.7300   27.1210   44.5250 H   0  0  0  0  0  0  0  0  0  0  0  0
   40.8020   26.9710   42.6900 H   0  0  0  0  0  0  0  0  0  0  0  0
   38.5200   25.9270   44.5630 H   0  0  0  0  0  0  0  0  0  0  0  0
   38.4530   25.4220   42.4450 C   0  0  0  0  0  0  0  0  0  0  0  0
   37.2150   24.8820   42.1800 C   0  0  0  0  0  3  0  0  0  0  0  0
   36.9490   24.0610   41.1130 C   0  0  0  0  0  0  0  0  0  0  0  0
   35.9240   23.6990   41.0170 H   0  0  0  0  0  0  0  0  0  0  0  0
   37.9150   23.7290   40.2370 N   0  0  0  0  0  0  0  0  0  0  0  0
   39.1420   24.2620   40.4930 C   0  0  0  0  0  3  0  0  0  0  0  0
   39.4120   25.0660   41.5380 N   0  0  0  0  0  0  0  0  0  0  0  0
  1  6  1  0  0  0  0
  2  1  2  0  0  0  0
  2  3  1  0  0  0  0
  3  4  2  0  0  0  0
  4  5  1  0  0  0  0
  5 20  1  0  0  0  0
  6  5  2  0  0  0  0
  7  1  1  0  0  0  0
  8  3  1  0  0  0  0
  9 12  1  6  0  0  0
  9 11  1  0  0  0  0
  9  2  1  0  0  0  0
 10 13  1  0  0  0  0
 10  9  1  0  0  0  0
 10 11  1  0  0  0  0
 11 15  1  6  0  0  0
 11 16  1  0  0  0  0
 14 10  1  0  0  0  0
 16 18  1  0  0  0  0
 16 17  1  0  0  0  0
 19 16  1  0  0  0  0
 20 22  1  0  0  0  0
 20 21  1  0  0  0  0
 20 23  1  1  0  0  0
 21 24  1  0  0  0  0
 22 21  1  0  0  0  0
 22 26  1  1  0  0  0
 25 21  1  0  0  0  0
 27 22  1  0  0  0  0
 28 27  1  0  0  0  0
 29 28  2  0  0  0  0
 30 29  1  0  0  0  0
 31 32  2  0  0  0  0
 31 29  1  0  0  0  0
 32 33  1  0  0  0  0
 33 27  2  0  0  0  0
M  END
>  <minimizedAffinity>
-5.22964573

$$$$

 OpenBabel03242520383D

 33 36  0  0  1  0  0  0  0  0999 V2000
   38.0940   30.4640   41.4660 C   0  0  0  0  0  0  0  0  0  0  0  0
   36.9560   31.0110   40.7760 C   0  0  0  0  0  0  0  0  0  0  0  0
   35.8420   30.2190   40.7060 C   0  0  0  0  0  0  0  0  0  0  0  0
   35.8820   28.9920   41.2820 N   0  0  0  0  0  0  0  0  0  0  0  0
   36.9460   28.5040   41.9160 C   0  0  0  0  0  0  0  0  0  0  0  0
   38.0540   29.2540   42.0030 N   0  0  0  0  0  0  0  0  0  0  0  0
   38.9990   31.0220   41.5650 H   0  0  0  0  0  0  0  0  0  0  0  0
   34.9850   30.6160   40.1930 H   0  0  0  0  0  0  0  0  0  0  0  0
   37.0090   32.3580   40.1610 C   0  0  1  0  0  0  0  0  0  0  0  0
   38.2350   32.9220   39.6780 C   0  0  0  0  0  0  0  0  0  0  0  0
   37.2910   32.4390   38.6520 C   0  0  1  0  0  0  0  0  0  0  0  0
   36.0430   32.9130   40.3610 H   0  0  0  0  0  0  0  0  0  0  0  0
   39.1880   32.3900   39.8780 H   0  0  0  0  0  0  0  0  0  0  0  0
   38.4000   34.0360   39.8110 H   0  0  0  0  0  0  0  0  0  0  0  0
   36.8230   33.2730   38.0670 H   0  0  0  0  0  0  0  0  0  0  0  0
   37.5000   31.2100   37.8560 C   0  0  0  0  0  0  0  0  0  0  0  0
   36.3630   30.4200   37.8190 F   0  0  0  0  0  0  0  0  0  0  0  0
   38.5630   30.4440   38.3450 F   0  0  0  0  0  0  0  0  0  0  0  0
   37.7680   31.5990   36.5650 F   0  0  0  0  0  0  0  0  0  0  0  0
   36.8560   27.1470   42.5040 C   0  0  2  0  0  0  0  0  0  0  0  0
   38.1980   26.4590   42.6740 C   0  0  0  0  0  0  0  0  0  0  0  0
   37.2170   25.9420   41.7050 C   0  0  2  0  0  0  0  0  0  0  0  0
   36.0870   27.0030   43.3070 H   0  0  0  0  0  0  0  0  0  0  0  0
   38.3960   25.8940   43.6180 H   0  0  0  0  0  0  0  0  0  0  0  0
   39.1030   26.9400   42.2750 H   0  0  0  0  0  0  0  0  0  0  0  0
   36.6310   25.0310   42.0530 H   0  0  0  0  0  0  0  0  0  0  0  0
   37.3850   25.9880   40.2470 C   0  0  0  0  0  0  0  0  0  0  0  0
   36.4410   25.9140   39.2480 C   0  0  0  0  0  3  0  0  0  0  0  0
   36.7370   25.9500   37.9090 C   0  0  0  0  0  0  0  0  0  0  0  0
   35.8940   25.8820   37.2190 H   0  0  0  0  0  0  0  0  0  0  0  0
   38.0080   26.0640   37.4830 N   0  0  0  0  0  0  0  0  0  0  0  0
   38.9460   26.1400   38.4670 C   0  0  0  0  0  3  0  0  0  0  0  0
   38.6660   26.1040   39.7830 N   0  0  0  0  0  0  0  0  0  0  0  0
  1  7  1  0  0  0  0
  1  6  1  0  0  0  0
  2  1  2  0  0  0  0
  3  2  1  0  0  0  0
  3  4  2  0  0  0  0
  4  5  1  0  0  0  0
  5  6  2  0  0  0  0
  5 20  1  0  0  0  0
  8  3  1  0  0  0  0
  9 12  1  1  0  0  0
  9  2  1  0  0  0  0
 10 14  1  0  0  0  0
 10 13  1  0  0  0  0
 10  9  1  0  0  0  0
 11 15  1  6  0  0  0
 11 10  1  0  0  0  0
 11  9  1  0  0  0  0
 16 18  1  0  0  0  0
 16 11  1  0  0  0  0
 17 16  1  0  0  0  0
 19 16  1  0  0  0  0
 20 21  1  0  0  0  0
 20 23  1  1  0  0  0
 21 24  1  0  0  0  0
 22 26  1  1  0  0  0
 22 20  1  0  0  0  0
 22 21  1  0  0  0  0
 25 21  1  0  0  0  0
 27 22  1  0  0  0  0
 28 27  2  0  0  0  0
 29 28  1  0  0  0  0
 30 29  1  0  0  0  0
 31 29  2  0  0  0  0
 31 32  1  0  0  0  0
 32 33  2  0  0  0  0
 33 27  1  0  0  0  0
M  END
>  <minimizedAffinity>
-5.19855261

$$$$
