
 OpenBabel03242516473D

 40 44  0  0  1  0  0  0  0  0999 V2000
   37.3800   29.5350   42.1090 C   0  0  0  0  0  0  0  0  0  0  0  0
   36.1680   29.3890   41.5420 N   0  0  0  0  0  0  0  0  0  0  0  0
   36.0660   30.1160   40.4270 C   0  0  0  0  0  0  0  0  0  0  0  0
   37.2600   30.7500   40.2800 N   0  0  0  0  0  0  0  0  0  0  0  0
   38.0590   30.4150   41.2760 N   0  0  0  0  0  0  0  0  0  0  0  0
   35.2170   30.2130   39.7440 H   0  0  0  0  0  0  0  0  0  0  0  0
   39.6660   30.5860   38.3380 O   0  0  0  0  0  0  0  0  0  0  0  0
   39.1120   31.5640   38.9340 C   0  0  0  0  0  0  0  0  0  0  0  0
   37.6560   31.6600   39.2150 C   0  0  2  0  0  0  0  0  0  0  0  0
   37.4820   33.1060   39.6430 C   0  0  0  0  0  0  0  0  0  0  0  0
   38.8070   33.3620   40.3720 C   0  0  0  0  0  0  0  0  0  0  0  0
   39.7430   32.7480   39.4480 N   0  0  0  0  0  0  0  0  0  0  0  0
   37.0290   31.5250   38.3060 H   0  0  0  0  0  0  0  0  0  0  0  0
   36.6770   33.1530   40.3780 H   0  0  0  0  0  0  0  0  0  0  0  0
   37.3530   33.7770   38.7780 H   0  0  0  0  0  0  0  0  0  0  0  0
   38.7620   32.7900   41.3080 H   0  0  0  0  0  0  0  0  0  0  0  0
   38.9830   34.4440   40.5090 H   0  0  0  0  0  0  0  0  0  0  0  0
   41.0330   33.2370   39.1250 C   0  0  0  0  0  0  0  0  0  0  0  0
   41.4560   33.4670   37.8460 C   0  0  0  0  0  3  0  0  0  0  0  0
   42.7160   33.9460   37.5260 C   0  0  0  0  0  0  0  0  0  0  0  0
   43.0470   34.1250   36.5250 H   0  0  0  0  0  0  0  0  0  0  0  0
   43.5650   34.1960   38.5530 N   0  0  0  0  0  0  0  0  0  0  0  0
   43.1390   33.9650   39.8180 C   0  0  0  0  0  3  0  0  0  0  0  0
   41.9090   33.5010   40.0920 N   0  0  0  0  0  0  0  0  0  0  0  0
   38.3860   27.5270   43.4730 C   0  0  1  0  0  0  0  0  0  0  0  0
   37.9700   28.9480   43.3160 C   0  0  2  0  0  0  0  0  0  0  0  0
   37.1600   28.0500   44.1090 C   0  0  0  0  0  0  0  0  0  0  0  0
   39.2950   27.3880   44.0880 H   0  0  0  0  0  0  0  0  0  0  0  0
   38.5830   29.7150   43.8770 H   0  0  0  0  0  0  0  0  0  0  0  0
   37.1770   28.1650   45.2320 H   0  0  0  0  0  0  0  0  0  0  0  0
   36.1460   27.7260   43.7790 H   0  0  0  0  0  0  0  0  0  0  0  0
   37.1960   25.7560   42.2060 C   0  0  0  0  0  0  0  0  0  0  0  0
   38.3250   26.5620   42.3470 C   0  0  0  0  0  0  0  0  0  0  0  0
   39.3280   26.4280   41.4170 C   0  0  0  0  0  0  0  0  0  0  0  0
   39.1590   25.5200   40.4190 N   0  0  0  0  0  0  0  0  0  0  0  0
   38.0790   24.7640   40.3030 C   0  0  0  0  0  0  0  0  0  0  0  0
   37.0890   24.8850   41.2050 N   0  0  0  0  0  0  0  0  0  0  0  0
   36.3500   25.7940   42.8960 H   0  0  0  0  0  0  0  0  0  0  0  0
   40.2270   27.0400   41.4940 H   0  0  0  0  0  0  0  0  0  0  0  0
   38.1570   24.1130   39.4360 H   0  0  0  0  0  0  0  0  0  0  0  0
  1 26  1  0  0  0  0
  2  1  1  0  0  0  0
  3  2  2  0  0  0  0
  4  3  1  0  0  0  0
  4  5  1  0  0  0  0
  5  1  2  0  0  0  0
  6  3  1  0  0  0  0
  7  8  2  0  0  0  0
  8  9  1  0  0  0  0
  8 12  1  0  0  0  0
  9 13  1  6  0  0  0
  9 10  1  0  0  0  0
  9  4  1  0  0  0  0
 10 11  1  0  0  0  0
 10 14  1  0  0  0  0
 11 17  1  0  0  0  0
 11 16  1  0  0  0  0
 12 11  1  0  0  0  0
 15 10  1  0  0  0  0
 18 12  1  0  0  0  0
 18 24  1  0  0  0  0
 19 18  2  0  0  0  0
 20 19  1  0  0  0  0
 20 22  2  0  0  0  0
 21 20  1  0  0  0  0
 22 23  1  0  0  0  0
 23 24  2  0  0  0  0
 25 28  1  1  0  0  0
 25 27  1  0  0  0  0
 26 25  1  0  0  0  0
 26 29  1  1  0  0  0
 26 27  1  0  0  0  0
 27 30  1  0  0  0  0
 31 27  1  0  0  0  0
 32 33  1  0  0  0  0
 32 38  1  0  0  0  0
 33 25  1  0  0  0  0
 34 39  1  0  0  0  0
 34 33  2  0  0  0  0
 35 34  1  0  0  0  0
 36 35  2  0  0  0  0
 36 37  1  0  0  0  0
 37 32  2  0  0  0  0
 40 36  1  0  0  0  0
M  END
>  <minimizedAffinity>
-6.31729889

$$$$

 OpenBabel03242516473D

 40 44  0  0  1  0  0  0  0  0999 V2000
   36.8960   26.1870   41.2910 C   0  0  0  0  0  0  0  0  0  0  0  0
   36.7580   26.8090   40.1050 N   0  0  0  0  0  0  0  0  0  0  0  0
   36.8800   28.1320   40.2380 C   0  0  0  0  0  0  0  0  0  0  0  0
   37.1030   28.3590   41.5590 N   0  0  0  0  0  0  0  0  0  0  0  0
   37.1170   27.2080   42.2060 N   0  0  0  0  0  0  0  0  0  0  0  0
   36.8180   28.9080   39.4700 H   0  0  0  0  0  0  0  0  0  0  0  0
   36.4410   31.2160   40.5640 O   0  0  0  0  0  0  0  0  0  0  0  0
   37.4190   30.7460   41.2300 C   0  0  0  0  0  0  0  0  0  0  0  0
   37.3080   29.6420   42.2170 C   0  0  2  0  0  0  0  0  0  0  0  0
   38.6480   29.6800   42.9290 C   0  0  0  0  0  0  0  0  0  0  0  0
   39.5800   30.1040   41.7860 C   0  0  0  0  0  0  0  0  0  0  0  0
   38.7930   31.1610   41.1780 N   0  0  0  0  0  0  0  0  0  0  0  0
   36.5350   29.8320   42.9950 H   0  0  0  0  0  0  0  0  0  0  0  0
   38.9130   28.6630   43.2200 H   0  0  0  0  0  0  0  0  0  0  0  0
   38.6540   30.4100   43.7550 H   0  0  0  0  0  0  0  0  0  0  0  0
   39.6510   29.2420   41.1090 H   0  0  0  0  0  0  0  0  0  0  0  0
   40.5510   30.4570   42.1750 H   0  0  0  0  0  0  0  0  0  0  0  0
   39.3010   32.3700   40.6410 C   0  0  0  0  0  0  0  0  0  0  0  0
   40.3510   32.4270   39.7680 C   0  0  0  0  0  3  0  0  0  0  0  0
   40.8510   33.6060   39.2400 C   0  0  0  0  0  0  0  0  0  0  0  0
   41.6730   33.6510   38.5570 H   0  0  0  0  0  0  0  0  0  0  0  0
   40.2520   34.7610   39.6230 N   0  0  0  0  0  0  0  0  0  0  0  0
   39.2120   34.6970   40.4890 C   0  0  0  0  0  3  0  0  0  0  0  0
   38.7530   33.5350   40.9810 N   0  0  0  0  0  0  0  0  0  0  0  0
   38.0430   23.8930   41.8630 C   0  0  1  0  0  0  0  0  0  0  0  0
   36.8560   24.7680   41.6600 C   0  0  2  0  0  0  0  0  0  0  0  0
   37.2010   23.7880   40.6540 C   0  0  0  0  0  0  0  0  0  0  0  0
   37.9210   23.1470   42.6710 H   0  0  0  0  0  0  0  0  0  0  0  0
   35.9510   24.5460   42.3030 H   0  0  0  0  0  0  0  0  0  0  0  0
   36.5540   22.8670   40.5600 H   0  0  0  0  0  0  0  0  0  0  0  0
   37.5810   24.0850   39.6490 H   0  0  0  0  0  0  0  0  0  0  0  0
   40.1320   24.6150   42.9890 C   0  0  0  0  0  0  0  0  0  0  0  0
   39.4280   24.4210   41.8010 C   0  0  0  0  0  0  0  0  0  0  0  0
   40.0660   24.7200   40.6210 C   0  0  0  0  0  0  0  0  0  0  0  0
   41.3410   25.1860   40.6830 N   0  0  0  0  0  0  0  0  0  0  0  0
   41.9940   25.3640   41.8210 C   0  0  0  0  0  0  0  0  0  0  0  0
   41.3820   25.0750   42.9840 N   0  0  0  0  0  0  0  0  0  0  0  0
   39.7070   24.4050   43.9730 H   0  0  0  0  0  0  0  0  0  0  0  0
   39.5470   24.5810   39.6720 H   0  0  0  0  0  0  0  0  0  0  0  0
   42.9950   25.7430   41.6360 H   0  0  0  0  0  0  0  0  0  0  0  0
  1 26  1  0  0  0  0
  1  5  2  0  0  0  0
  2  3  2  0  0  0  0
  2  1  1  0  0  0  0
  3  4  1  0  0  0  0
  4  5  1  0  0  0  0
  4  9  1  0  0  0  0
  6  3  1  0  0  0  0
  7  8  2  0  0  0  0
  8  9  1  0  0  0  0
  9 10  1  0  0  0  0
  9 13  1  1  0  0  0
 10 14  1  0  0  0  0
 10 15  1  0  0  0  0
 11 17  1  0  0  0  0
 11 10  1  0  0  0  0
 12  8  1  0  0  0  0
 12 11  1  0  0  0  0
 16 11  1  0  0  0  0
 18 24  1  0  0  0  0
 18 12  1  0  0  0  0
 19 18  2  0  0  0  0
 20 22  2  0  0  0  0
 20 19  1  0  0  0  0
 21 20  1  0  0  0  0
 22 23  1  0  0  0  0
 23 24  2  0  0  0  0
 25 28  1  1  0  0  0
 26 25  1  0  0  0  0
 26 29  1  1  0  0  0
 27 26  1  0  0  0  0
 27 25  1  0  0  0  0
 30 27  1  0  0  0  0
 31 27  1  0  0  0  0
 32 38  1  0  0  0  0
 33 25  1  0  0  0  0
 33 32  2  0  0  0  0
 34 35  2  0  0  0  0
 34 33  1  0  0  0  0
 35 36  1  0  0  0  0
 36 37  2  0  0  0  0
 37 32  1  0  0  0  0
 39 34  1  0  0  0  0
 40 36  1  0  0  0  0
M  END
>  <minimizedAffinity>
-6.20956039

$$$$

 OpenBabel03242516473D

 40 44  0  0  1  0  0  0  0  0999 V2000
   36.3050   29.0300   39.9520 C   0  0  0  0  0  0  0  0  0  0  0  0
   35.9590   29.8380   40.9710 N   0  0  0  0  0  0  0  0  0  0  0  0
   36.3110   31.1020   40.7240 C   0  0  0  0  0  0  0  0  0  0  0  0
   36.9040   31.0960   39.5010 N   0  0  0  0  0  0  0  0  0  0  0  0
   36.9100   29.8650   39.0220 N   0  0  0  0  0  0  0  0  0  0  0  0
   36.1720   31.9880   41.3490 H   0  0  0  0  0  0  0  0  0  0  0  0
   39.3580   31.2290   37.6170 O   0  0  0  0  0  0  0  0  0  0  0  0
   38.9030   32.0360   38.4880 C   0  0  0  0  0  0  0  0  0  0  0  0
   37.4600   32.2320   38.7790 C   0  0  2  0  0  0  0  0  0  0  0  0
   37.4480   33.4820   39.6400 C   0  0  0  0  0  0  0  0  0  0  0  0
   38.7600   33.3190   40.4190 C   0  0  0  0  0  0  0  0  0  0  0  0
   39.6540   32.9050   39.3520 N   0  0  0  0  0  0  0  0  0  0  0  0
   36.8630   32.4720   37.8710 H   0  0  0  0  0  0  0  0  0  0  0  0
   36.6230   33.4040   40.3500 H   0  0  0  0  0  0  0  0  0  0  0  0
   37.4440   34.4000   39.0310 H   0  0  0  0  0  0  0  0  0  0  0  0
   38.6010   32.4950   41.1260 H   0  0  0  0  0  0  0  0  0  0  0  0
   39.0630   34.2710   40.8900 H   0  0  0  0  0  0  0  0  0  0  0  0
   41.0080   33.2950   39.2050 C   0  0  0  0  0  0  0  0  0  0  0  0
   41.9300   33.2160   40.2110 C   0  0  0  0  0  3  0  0  0  0  0  0
   43.2550   33.5960   40.0710 C   0  0  0  0  0  0  0  0  0  0  0  0
   43.9780   33.5350   40.8580 H   0  0  0  0  0  0  0  0  0  0  0  0
   43.6420   34.0710   38.8610 N   0  0  0  0  0  0  0  0  0  0  0  0
   42.7210   34.1470   37.8700 C   0  0  0  0  0  3  0  0  0  0  0  0
   41.4440   33.7690   38.0400 N   0  0  0  0  0  0  0  0  0  0  0  0
   36.8920   26.5140   40.4380 C   0  0  1  0  0  0  0  0  0  0  0  0
   36.1280   27.5880   39.7450 C   0  0  2  0  0  0  0  0  0  0  0  0
   37.1550   26.8670   39.0270 C   0  0  0  0  0  0  0  0  0  0  0  0
   36.2960   25.6110   40.6660 H   0  0  0  0  0  0  0  0  0  0  0  0
   35.0540   27.3500   39.4810 H   0  0  0  0  0  0  0  0  0  0  0  0
   36.8350   26.1170   38.2460 H   0  0  0  0  0  0  0  0  0  0  0  0
   38.1070   27.3550   38.7130 H   0  0  0  0  0  0  0  0  0  0  0  0
   39.2210   26.9540   41.1720 C   0  0  0  0  0  0  0  0  0  0  0  0
   37.8750   26.8160   41.5080 C   0  0  0  0  0  0  0  0  0  0  0  0
   37.5230   26.9800   42.8260 C   0  0  0  0  0  0  0  0  0  0  0  0
   38.5060   27.2670   43.7200 N   0  0  0  0  0  0  0  0  0  0  0  0
   39.7790   27.3950   43.3820 C   0  0  0  0  0  0  0  0  0  0  0  0
   40.1380   27.2370   42.0950 N   0  0  0  0  0  0  0  0  0  0  0  0
   39.5930   26.8410   40.1510 H   0  0  0  0  0  0  0  0  0  0  0  0
   36.4800   26.8790   43.1270 H   0  0  0  0  0  0  0  0  0  0  0  0
   40.3880   27.6240   44.2520 H   0  0  0  0  0  0  0  0  0  0  0  0
  1  2  1  0  0  0  0
  3  2  2  0  0  0  0
  3  6  1  0  0  0  0
  4  3  1  0  0  0  0
  5  4  1  0  0  0  0
  5  1  2  0  0  0  0
  7  8  2  0  0  0  0
  8  9  1  0  0  0  0
  8 12  1  0  0  0  0
  9 13  1  6  0  0  0
  9  4  1  0  0  0  0
  9 10  1  0  0  0  0
 10 14  1  0  0  0  0
 10 11  1  0  0  0  0
 11 17  1  0  0  0  0
 11 16  1  0  0  0  0
 12 11  1  0  0  0  0
 15 10  1  0  0  0  0
 18 12  1  0  0  0  0
 18 19  1  0  0  0  0
 20 19  2  0  0  0  0
 20 21  1  0  0  0  0
 22 20  1  0  0  0  0
 23 24  1  0  0  0  0
 23 22  2  0  0  0  0
 24 18  2  0  0  0  0
 25 28  1  1  0  0  0
 25 33  1  0  0  0  0
 26 29  1  6  0  0  0
 26  1  1  0  0  0  0
 26 25  1  0  0  0  0
 27 26  1  0  0  0  0
 27 25  1  0  0  0  0
 30 27  1  0  0  0  0
 31 27  1  0  0  0  0
 32 33  2  0  0  0  0
 32 37  1  0  0  0  0
 33 34  1  0  0  0  0
 34 39  1  0  0  0  0
 34 35  2  0  0  0  0
 36 35  1  0  0  0  0
 36 40  1  0  0  0  0
 37 36  2  0  0  0  0
 38 32  1  0  0  0  0
M  END
>  <minimizedAffinity>
-5.93839788

$$$$

 OpenBabel03242516473D

 40 44  0  0  1  0  0  0  0  0999 V2000
   37.5930   32.8590   39.5820 C   0  0  0  0  0  0  0  0  0  0  0  0
   37.3480   32.1660   38.4550 N   0  0  0  0  0  0  0  0  0  0  0  0
   36.7440   31.0060   38.7240 C   0  0  0  0  0  0  0  0  0  0  0  0
   36.6000   30.9600   40.0750 N   0  0  0  0  0  0  0  0  0  0  0  0
   37.1020   32.0610   40.6070 N   0  0  0  0  0  0  0  0  0  0  0  0
   36.4180   30.2240   38.0330 H   0  0  0  0  0  0  0  0  0  0  0  0
   37.6710   29.5300   42.6040 O   0  0  0  0  0  0  0  0  0  0  0  0
   37.0240   29.1100   41.5930 C   0  0  0  0  0  0  0  0  0  0  0  0
   35.9950   29.9000   40.8680 C   0  0  2  0  0  0  0  0  0  0  0  0
   35.3320   28.8660   39.9770 C   0  0  0  0  0  0  0  0  0  0  0  0
   36.5200   27.9540   39.6410 C   0  0  0  0  0  0  0  0  0  0  0  0
   37.1370   27.8300   40.9500 N   0  0  0  0  0  0  0  0  0  0  0  0
   35.1980   30.2930   41.5380 H   0  0  0  0  0  0  0  0  0  0  0  0
   35.0140   29.3580   39.0560 H   0  0  0  0  0  0  0  0  0  0  0  0
   34.5320   28.3210   40.5050 H   0  0  0  0  0  0  0  0  0  0  0  0
   37.1680   28.5270   38.9660 H   0  0  0  0  0  0  0  0  0  0  0  0
   36.1760   26.9880   39.2320 H   0  0  0  0  0  0  0  0  0  0  0  0
   37.7330   26.6580   41.4780 C   0  0  0  0  0  0  0  0  0  0  0  0
   37.0560   25.4860   41.6690 C   0  0  0  0  0  3  0  0  0  0  0  0
   37.6350   24.3380   42.1850 C   0  0  0  0  0  0  0  0  0  0  0  0
   37.1050   23.4210   42.3360 H   0  0  0  0  0  0  0  0  0  0  0  0
   38.9490   24.3980   42.5140 N   0  0  0  0  0  0  0  0  0  0  0  0
   39.6130   25.5630   42.3210 C   0  0  0  0  0  3  0  0  0  0  0  0
   39.0200   26.6580   41.8180 N   0  0  0  0  0  0  0  0  0  0  0  0
   39.6790   34.4340   39.8560 C   0  0  1  0  0  0  0  0  0  0  0  0
   38.2140   34.1690   39.8070 C   0  0  2  0  0  0  0  0  0  0  0  0
   38.8530   34.4140   41.0810 C   0  0  0  0  0  0  0  0  0  0  0  0
   39.9760   35.4080   39.4220 H   0  0  0  0  0  0  0  0  0  0  0  0
   37.5670   34.9970   39.3900 H   0  0  0  0  0  0  0  0  0  0  0  0
   38.6700   35.4060   41.5890 H   0  0  0  0  0  0  0  0  0  0  0  0
   38.9640   33.6130   41.8480 H   0  0  0  0  0  0  0  0  0  0  0  0
   41.1250   33.1920   38.2680 C   0  0  0  0  0  0  0  0  0  0  0  0
   40.6790   33.3740   39.5770 C   0  0  0  0  0  0  0  0  0  0  0  0
   41.2050   32.5620   40.5520 C   0  0  0  0  0  0  0  0  0  0  0  0
   42.1260   31.6330   40.1830 N   0  0  0  0  0  0  0  0  0  0  0  0
   42.5370   31.4750   38.9350 C   0  0  0  0  0  0  0  0  0  0  0  0
   42.0310   32.2630   37.9700 N   0  0  0  0  0  0  0  0  0  0  0  0
   40.7630   33.7910   37.4290 H   0  0  0  0  0  0  0  0  0  0  0  0
   40.8810   32.6750   41.5870 H   0  0  0  0  0  0  0  0  0  0  0  0
   43.2720   30.6780   38.8700 H   0  0  0  0  0  0  0  0  0  0  0  0
  1 26  1  0  0  0  0
  1  5  2  0  0  0  0
  2  3  2  0  0  0  0
  2  1  1  0  0  0  0
  3  4  1  0  0  0  0
  4  5  1  0  0  0  0
  4  9  1  0  0  0  0
  6  3  1  0  0  0  0
  8  7  2  0  0  0  0
  9 13  1  1  0  0  0
  9  8  1  0  0  0  0
 10 15  1  0  0  0  0
 10  9  1  0  0  0  0
 11 10  1  0  0  0  0
 11 12  1  0  0  0  0
 12 18  1  0  0  0  0
 12  8  1  0  0  0  0
 14 10  1  0  0  0  0
 16 11  1  0  0  0  0
 17 11  1  0  0  0  0
 18 19  2  0  0  0  0
 18 24  1  0  0  0  0
 19 20  1  0  0  0  0
 20 21  1  0  0  0  0
 20 22  2  0  0  0  0
 23 22  1  0  0  0  0
 24 23  2  0  0  0  0
 25 28  1  6  0  0  0
 25 27  1  0  0  0  0
 26 29  1  6  0  0  0
 26 25  1  0  0  0  0
 26 27  1  0  0  0  0
 27 30  1  0  0  0  0
 27 31  1  0  0  0  0
 32 33  1  0  0  0  0
 33 25  1  0  0  0  0
 33 34  2  0  0  0  0
 34 39  1  0  0  0  0
 35 34  1  0  0  0  0
 36 35  2  0  0  0  0
 37 32  2  0  0  0  0
 37 36  1  0  0  0  0
 38 32  1  0  0  0  0
 40 36  1  0  0  0  0
M  END
>  <minimizedAffinity>
-5.91592264

$$$$

 OpenBabel03242516473D

 40 44  0  0  1  0  0  0  0  0999 V2000
   36.6150   30.7030   40.0240 C   0  0  0  0  0  0  0  0  0  0  0  0
   35.6220   29.8000   40.1240 N   0  0  0  0  0  0  0  0  0  0  0  0
   35.7750   29.0350   41.2080 C   0  0  0  0  0  0  0  0  0  0  0  0
   36.9090   29.4680   41.8190 N   0  0  0  0  0  0  0  0  0  0  0  0
   37.4260   30.4670   41.1270 N   0  0  0  0  0  0  0  0  0  0  0  0
   35.1430   28.2160   41.5650 H   0  0  0  0  0  0  0  0  0  0  0  0
   39.8280   29.6790   42.8290 O   0  0  0  0  0  0  0  0  0  0  0  0
   38.9670   28.7450   42.8890 C   0  0  0  0  0  0  0  0  0  0  0  0
   37.5060   28.9590   43.0460 C   0  0  2  0  0  0  0  0  0  0  0  0
   36.9860   27.5700   43.3670 C   0  0  0  0  0  0  0  0  0  0  0  0
   37.9310   26.6970   42.5290 C   0  0  0  0  0  0  0  0  0  0  0  0
   39.2050   27.3290   42.8210 N   0  0  0  0  0  0  0  0  0  0  0  0
   37.2520   29.5980   43.9210 H   0  0  0  0  0  0  0  0  0  0  0  0
   35.9810   27.4730   42.9520 H   0  0  0  0  0  0  0  0  0  0  0  0
   37.0620   27.3410   44.4430 H   0  0  0  0  0  0  0  0  0  0  0  0
   37.6540   26.8600   41.4800 H   0  0  0  0  0  0  0  0  0  0  0  0
   37.8890   25.6420   42.8530 H   0  0  0  0  0  0  0  0  0  0  0  0
   40.4410   26.6610   43.0020 C   0  0  0  0  0  0  0  0  0  0  0  0
   41.2780   26.8930   44.0570 C   0  0  0  0  0  3  0  0  0  0  0  0
   42.4870   26.2410   44.2380 C   0  0  0  0  0  0  0  0  0  0  0  0
   43.1430   26.4230   45.0640 H   0  0  0  0  0  0  0  0  0  0  0  0
   42.8450   25.3230   43.3060 N   0  0  0  0  0  0  0  0  0  0  0  0
   42.0100   25.0990   42.2630 C   0  0  0  0  0  3  0  0  0  0  0  0
   40.8430   25.7490   42.1190 N   0  0  0  0  0  0  0  0  0  0  0  0
   37.6030   31.5660   37.7470 C   0  0  1  0  0  0  0  0  0  0  0  0
   36.8830   31.7540   39.0360 C   0  0  2  0  0  0  0  0  0  0  0  0
   38.2390   32.2360   38.8990 C   0  0  0  0  0  0  0  0  0  0  0  0
   37.2090   32.1810   36.9160 H   0  0  0  0  0  0  0  0  0  0  0  0
   36.0610   32.5310   39.0440 H   0  0  0  0  0  0  0  0  0  0  0  0
   38.4050   33.3500   38.8140 H   0  0  0  0  0  0  0  0  0  0  0  0
   39.0890   31.7700   39.4510 H   0  0  0  0  0  0  0  0  0  0  0  0
   37.2230   29.4970   36.4320 C   0  0  0  0  0  0  0  0  0  0  0  0
   38.0490   30.2280   37.2840 C   0  0  0  0  0  0  0  0  0  0  0  0
   39.2520   29.6710   37.6440 C   0  0  0  0  0  0  0  0  0  0  0  0
   39.5630   28.4440   37.1490 N   0  0  0  0  0  0  0  0  0  0  0  0
   38.7650   27.7650   36.3410 C   0  0  0  0  0  0  0  0  0  0  0  0
   37.5840   28.2980   35.9790 N   0  0  0  0  0  0  0  0  0  0  0  0
   36.2490   29.8600   36.0920 H   0  0  0  0  0  0  0  0  0  0  0  0
   39.9250   30.2130   38.3100 H   0  0  0  0  0  0  0  0  0  0  0  0
   39.2120   26.8120   36.0700 H   0  0  0  0  0  0  0  0  0  0  0  0
  1  2  1  0  0  0  0
  1  5  2  0  0  0  0
  2  3  2  0  0  0  0
  3  6  1  0  0  0  0
  3  4  1  0  0  0  0
  4  9  1  0  0  0  0
  5  4  1  0  0  0  0
  7  8  2  0  0  0  0
  8  9  1  0  0  0  0
  9 10  1  0  0  0  0
  9 13  1  1  0  0  0
 10 15  1  0  0  0  0
 11 12  1  0  0  0  0
 11 17  1  0  0  0  0
 11 10  1  0  0  0  0
 12  8  1  0  0  0  0
 12 18  1  0  0  0  0
 14 10  1  0  0  0  0
 16 11  1  0  0  0  0
 18 19  1  0  0  0  0
 19 20  2  0  0  0  0
 20 21  1  0  0  0  0
 22 20  1  0  0  0  0
 23 22  2  0  0  0  0
 24 23  1  0  0  0  0
 24 18  2  0  0  0  0
 25 28  1  6  0  0  0
 25 27  1  0  0  0  0
 25 26  1  0  0  0  0
 26 29  1  6  0  0  0
 26  1  1  0  0  0  0
 27 26  1  0  0  0  0
 27 31  1  0  0  0  0
 30 27  1  0  0  0  0
 32 33  1  0  0  0  0
 33 34  2  0  0  0  0
 33 25  1  0  0  0  0
 34 39  1  0  0  0  0
 35 34  1  0  0  0  0
 36 35  2  0  0  0  0
 37 36  1  0  0  0  0
 37 32  2  0  0  0  0
 38 32  1  0  0  0  0
 40 36  1  0  0  0  0
M  END
>  <minimizedAffinity>
-5.82999277

$$$$

 OpenBabel03242516473D

 40 44  0  0  1  0  0  0  0  0999 V2000
   36.7220   26.4050   39.1390 C   0  0  0  0  0  0  0  0  0  0  0  0
   37.5350   26.7210   38.1140 N   0  0  0  0  0  0  0  0  0  0  0  0
   37.4930   28.0290   37.8520 C   0  0  0  0  0  0  0  0  0  0  0  0
   36.6190   28.5660   38.7440 N   0  0  0  0  0  0  0  0  0  0  0  0
   36.1470   27.6090   39.5240 N   0  0  0  0  0  0  0  0  0  0  0  0
   38.0320   28.5940   37.0860 H   0  0  0  0  0  0  0  0  0  0  0  0
   37.7100   31.0660   37.2790 O   0  0  0  0  0  0  0  0  0  0  0  0
   37.3320   30.8730   38.4780 C   0  0  0  0  0  0  0  0  0  0  0  0
   36.2280   29.9620   38.8740 C   0  0  2  0  0  0  0  0  0  0  0  0
   35.9850   30.3250   40.3280 C   0  0  0  0  0  0  0  0  0  0  0  0
   37.4080   30.6680   40.7910 C   0  0  0  0  0  0  0  0  0  0  0  0
   37.8660   31.4710   39.6710 N   0  0  0  0  0  0  0  0  0  0  0  0
   35.2770   30.1730   38.3360 H   0  0  0  0  0  0  0  0  0  0  0  0
   35.6650   29.4270   40.8590 H   0  0  0  0  0  0  0  0  0  0  0  0
   35.3030   31.1850   40.4280 H   0  0  0  0  0  0  0  0  0  0  0  0
   37.9570   29.7180   40.8310 H   0  0  0  0  0  0  0  0  0  0  0  0
   37.3920   31.2250   41.7440 H   0  0  0  0  0  0  0  0  0  0  0  0
   38.6840   32.6240   39.7570 C   0  0  0  0  0  0  0  0  0  0  0  0
   40.0030   32.6420   39.4000 C   0  0  0  0  0  3  0  0  0  0  0  0
   40.8070   33.7680   39.4820 C   0  0  0  0  0  0  0  0  0  0  0  0
   41.8400   33.7830   39.2030 H   0  0  0  0  0  0  0  0  0  0  0  0
   40.2360   34.9070   39.9460 N   0  0  0  0  0  0  0  0  0  0  0  0
   38.9280   34.8810   40.2980 C   0  0  0  0  0  3  0  0  0  0  0  0
   38.1780   33.7710   40.2050 N   0  0  0  0  0  0  0  0  0  0  0  0
   36.9370   24.7080   41.1350 C   0  0  1  0  0  0  0  0  0  0  0  0
   36.4320   25.1270   39.7980 C   0  0  2  0  0  0  0  0  0  0  0  0
   37.4910   24.1460   39.8860 C   0  0  0  0  0  0  0  0  0  0  0  0
   36.2160   24.1090   41.7220 H   0  0  0  0  0  0  0  0  0  0  0  0
   35.4060   24.7490   39.5070 H   0  0  0  0  0  0  0  0  0  0  0  0
   37.2420   23.0680   39.6570 H   0  0  0  0  0  0  0  0  0  0  0  0
   38.5310   24.3700   39.5540 H   0  0  0  0  0  0  0  0  0  0  0  0
   39.1200   25.4890   42.0170 C   0  0  0  0  0  0  0  0  0  0  0  0
   37.7320   25.6190   41.9950 C   0  0  0  0  0  0  0  0  0  0  0  0
   37.1680   26.6040   42.7690 C   0  0  0  0  0  0  0  0  0  0  0  0
   37.9950   27.3910   43.5080 N   0  0  0  0  0  0  0  0  0  0  0  0
   39.3110   27.2510   43.5160 C   0  0  0  0  0  0  0  0  0  0  0  0
   39.8780   26.2920   42.7630 N   0  0  0  0  0  0  0  0  0  0  0  0
   39.6560   24.7360   41.4350 H   0  0  0  0  0  0  0  0  0  0  0  0
   36.0850   26.7370   42.7770 H   0  0  0  0  0  0  0  0  0  0  0  0
   39.7710   27.9830   44.1750 H   0  0  0  0  0  0  0  0  0  0  0  0
  1  5  2  0  0  0  0
  1 26  1  0  0  0  0
  2  1  1  0  0  0  0
  3  2  2  0  0  0  0
  3  4  1  0  0  0  0
  4  9  1  0  0  0  0
  4  5  1  0  0  0  0
  6  3  1  0  0  0  0
  7  8  2  0  0  0  0
  8  9  1  0  0  0  0
  8 12  1  0  0  0  0
  9 13  1  6  0  0  0
  9 10  1  0  0  0  0
 10 15  1  0  0  0  0
 10 11  1  0  0  0  0
 10 14  1  0  0  0  0
 11 16  1  0  0  0  0
 11 17  1  0  0  0  0
 12 18  1  0  0  0  0
 12 11  1  0  0  0  0
 18 24  1  0  0  0  0
 19 20  1  0  0  0  0
 19 18  2  0  0  0  0
 20 22  2  0  0  0  0
 21 20  1  0  0  0  0
 22 23  1  0  0  0  0
 24 23  2  0  0  0  0
 25 28  1  1  0  0  0
 25 33  1  0  0  0  0
 26 29  1  6  0  0  0
 26 27  1  0  0  0  0
 26 25  1  0  0  0  0
 27 25  1  0  0  0  0
 30 27  1  0  0  0  0
 31 27  1  0  0  0  0
 32 37  1  0  0  0  0
 33 32  2  0  0  0  0
 33 34  1  0  0  0  0
 34 39  1  0  0  0  0
 34 35  2  0  0  0  0
 35 36  1  0  0  0  0
 36 40  1  0  0  0  0
 37 36  2  0  0  0  0
 38 32  1  0  0  0  0
M  END
>  <minimizedAffinity>
-5.77899027

$$$$

 OpenBabel03242516473D

 40 44  0  0  1  0  0  0  0  0999 V2000
   38.5510   29.5680   42.5140 C   0  0  0  0  0  0  0  0  0  0  0  0
   39.7710   30.1290   42.6120 N   0  0  0  0  0  0  0  0  0  0  0  0
   40.1320   30.7000   41.4600 C   0  0  0  0  0  0  0  0  0  0  0  0
   39.1020   30.4940   40.5970 N   0  0  0  0  0  0  0  0  0  0  0  0
   38.1460   29.8180   41.2100 N   0  0  0  0  0  0  0  0  0  0  0  0
   41.0560   31.2330   41.2170 H   0  0  0  0  0  0  0  0  0  0  0  0
   36.7090   31.7440   39.0820 O   0  0  0  0  0  0  0  0  0  0  0  0
   37.5990   30.9050   38.7330 C   0  0  0  0  0  0  0  0  0  0  0  0
   39.0050   30.9260   39.2100 C   0  0  2  0  0  0  0  0  0  0  0  0
   39.6980   29.9430   38.2850 C   0  0  0  0  0  0  0  0  0  0  0  0
   38.5840   28.9140   38.0550 C   0  0  0  0  0  0  0  0  0  0  0  0
   37.4500   29.7940   37.8340 N   0  0  0  0  0  0  0  0  0  0  0  0
   39.5030   31.9090   39.0520 H   0  0  0  0  0  0  0  0  0  0  0  0
   40.5000   29.4530   38.8400 H   0  0  0  0  0  0  0  0  0  0  0  0
   40.0170   30.4200   37.3440 H   0  0  0  0  0  0  0  0  0  0  0  0
   38.4660   28.3680   39.0000 H   0  0  0  0  0  0  0  0  0  0  0  0
   38.8080   28.2730   37.1840 H   0  0  0  0  0  0  0  0  0  0  0  0
   36.4040   29.5820   36.9030 C   0  0  0  0  0  0  0  0  0  0  0  0
   35.1630   29.1260   37.2510 C   0  0  0  0  0  3  0  0  0  0  0  0
   34.1380   28.9180   36.3430 C   0  0  0  0  0  0  0  0  0  0  0  0
   33.1660   28.5600   36.6150 H   0  0  0  0  0  0  0  0  0  0  0  0
   34.3960   29.1860   35.0390 N   0  0  0  0  0  0  0  0  0  0  0  0
   35.6290   29.6380   34.7020 C   0  0  0  0  0  3  0  0  0  0  0  0
   36.6000   29.8290   35.6090 N   0  0  0  0  0  0  0  0  0  0  0  0
   37.9400   27.4370   43.9250 C   0  0  1  0  0  0  0  0  0  0  0  0
   37.7290   28.8450   43.4900 C   0  0  2  0  0  0  0  0  0  0  0  0
   36.8440   27.8080   43.0060 C   0  0  0  0  0  0  0  0  0  0  0  0
   37.7100   27.2550   44.9920 H   0  0  0  0  0  0  0  0  0  0  0  0
   37.3110   29.5540   44.2670 H   0  0  0  0  0  0  0  0  0  0  0  0
   35.7940   27.7650   43.4200 H   0  0  0  0  0  0  0  0  0  0  0  0
   36.8410   27.4870   41.9390 H   0  0  0  0  0  0  0  0  0  0  0  0
   38.9620   25.8280   42.3370 C   0  0  0  0  0  0  0  0  0  0  0  0
   39.1020   26.6380   43.4630 C   0  0  0  0  0  0  0  0  0  0  0  0
   40.3270   26.6650   44.0860 C   0  0  0  0  0  0  0  0  0  0  0  0
   41.3250   25.9020   43.5670 N   0  0  0  0  0  0  0  0  0  0  0  0
   41.1730   25.1380   42.4960 C   0  0  0  0  0  0  0  0  0  0  0  0
   39.9800   25.1030   41.8760 N   0  0  0  0  0  0  0  0  0  0  0  0
   38.0270   25.7440   41.7780 H   0  0  0  0  0  0  0  0  0  0  0  0
   40.4740   27.2860   44.9690 H   0  0  0  0  0  0  0  0  0  0  0  0
   42.0970   24.6180   42.2600 H   0  0  0  0  0  0  0  0  0  0  0  0
  1  2  1  0  0  0  0
  1 26  1  0  0  0  0
  3  2  2  0  0  0  0
  4  5  1  0  0  0  0
  4  3  1  0  0  0  0
  5  1  2  0  0  0  0
  6  3  1  0  0  0  0
  8  7  2  0  0  0  0
  8  9  1  0  0  0  0
  9 13  1  6  0  0  0
  9  4  1  0  0  0  0
 10 14  1  0  0  0  0
 10  9  1  0  0  0  0
 11 10  1  0  0  0  0
 11 16  1  0  0  0  0
 12 11  1  0  0  0  0
 12  8  1  0  0  0  0
 15 10  1  0  0  0  0
 17 11  1  0  0  0  0
 18 19  1  0  0  0  0
 18 12  1  0  0  0  0
 20 21  1  0  0  0  0
 20 19  2  0  0  0  0
 22 20  1  0  0  0  0
 23 22  2  0  0  0  0
 23 24  1  0  0  0  0
 24 18  2  0  0  0  0
 25 28  1  1  0  0  0
 26 25  1  0  0  0  0
 26 29  1  1  0  0  0
 27 30  1  0  0  0  0
 27 26  1  0  0  0  0
 27 25  1  0  0  0  0
 31 27  1  0  0  0  0
 32 33  1  0  0  0  0
 33 25  1  0  0  0  0
 33 34  2  0  0  0  0
 34 39  1  0  0  0  0
 35 34  1  0  0  0  0
 36 35  2  0  0  0  0
 37 32  2  0  0  0  0
 37 36  1  0  0  0  0
 38 32  1  0  0  0  0
 40 36  1  0  0  0  0
M  END
>  <minimizedAffinity>
-5.69368124

$$$$

 OpenBabel03242516473D

 40 44  0  0  1  0  0  0  0  0999 V2000
   37.0430   27.0830   41.4760 C   0  0  0  0  0  0  0  0  0  0  0  0
   36.5330   28.1650   42.0940 N   0  0  0  0  0  0  0  0  0  0  0  0
   36.6480   29.2540   41.3310 C   0  0  0  0  0  0  0  0  0  0  0  0
   37.2560   28.8490   40.1840 N   0  0  0  0  0  0  0  0  0  0  0  0
   37.5000   27.5530   40.2520 N   0  0  0  0  0  0  0  0  0  0  0  0
   36.3330   30.2790   41.5450 H   0  0  0  0  0  0  0  0  0  0  0  0
   40.0390   29.7560   39.1740 O   0  0  0  0  0  0  0  0  0  0  0  0
   38.9110   30.3430   39.2180 C   0  0  0  0  0  0  0  0  0  0  0  0
   37.6040   29.6640   39.0290 C   0  0  2  0  0  0  0  0  0  0  0  0
   36.6340   30.8210   38.8680 C   0  0  0  0  0  0  0  0  0  0  0  0
   37.2570   31.8640   39.8060 C   0  0  0  0  0  0  0  0  0  0  0  0
   38.6590   31.7380   39.4510 N   0  0  0  0  0  0  0  0  0  0  0  0
   37.5510   29.0790   38.0840 H   0  0  0  0  0  0  0  0  0  0  0  0
   35.6710   30.5240   39.2860 H   0  0  0  0  0  0  0  0  0  0  0  0
   36.5920   31.1790   37.8260 H   0  0  0  0  0  0  0  0  0  0  0  0
   37.0870   31.5010   40.8280 H   0  0  0  0  0  0  0  0  0  0  0  0
   36.8490   32.8700   39.6070 H   0  0  0  0  0  0  0  0  0  0  0  0
   39.5890   32.8030   39.3550 C   0  0  0  0  0  0  0  0  0  0  0  0
   40.6420   32.8100   38.4840 C   0  0  0  0  0  3  0  0  0  0  0  0
   41.5540   33.8490   38.3880 C   0  0  0  0  0  0  0  0  0  0  0  0
   42.3790   33.8550   37.7060 H   0  0  0  0  0  0  0  0  0  0  0  0
   41.3760   34.9110   39.2120 N   0  0  0  0  0  0  0  0  0  0  0  0
   40.3300   34.8960   40.0730 C   0  0  0  0  0  3  0  0  0  0  0  0
   39.4640   33.8710   40.1390 N   0  0  0  0  0  0  0  0  0  0  0  0
   38.3730   25.0120   42.3980 C   0  0  1  0  0  0  0  0  0  0  0  0
   37.1430   25.6790   41.8890 C   0  0  2  0  0  0  0  0  0  0  0  0
   37.8630   24.7620   41.0340 C   0  0  0  0  0  0  0  0  0  0  0  0
   38.1840   24.2620   43.1890 H   0  0  0  0  0  0  0  0  0  0  0  0
   36.1600   25.3160   42.3170 H   0  0  0  0  0  0  0  0  0  0  0  0
   37.4100   23.7470   40.8360 H   0  0  0  0  0  0  0  0  0  0  0  0
   38.4160   25.1100   40.1310 H   0  0  0  0  0  0  0  0  0  0  0  0
   39.8700   26.3100   43.8900 C   0  0  0  0  0  0  0  0  0  0  0  0
   39.6330   25.7600   42.6310 C   0  0  0  0  0  0  0  0  0  0  0  0
   40.5950   25.9290   41.6660 C   0  0  0  0  0  0  0  0  0  0  0  0
   41.7180   26.6220   41.9950 N   0  0  0  0  0  0  0  0  0  0  0  0
   41.9250   27.1370   43.1970 C   0  0  0  0  0  0  0  0  0  0  0  0
   40.9920   26.9780   44.1520 N   0  0  0  0  0  0  0  0  0  0  0  0
   39.1620   26.2250   44.7190 H   0  0  0  0  0  0  0  0  0  0  0  0
   40.4450   25.5130   40.6690 H   0  0  0  0  0  0  0  0  0  0  0  0
   42.8840   27.6470   43.2370 H   0  0  0  0  0  0  0  0  0  0  0  0
  1 26  1  0  0  0  0
  1  2  1  0  0  0  0
  3  6  1  0  0  0  0
  3  2  2  0  0  0  0
  4  5  1  0  0  0  0
  4  3  1  0  0  0  0
  5  1  2  0  0  0  0
  7  8  2  0  0  0  0
  8 12  1  0  0  0  0
  9 13  1  6  0  0  0
  9  8  1  0  0  0  0
  9  4  1  0  0  0  0
 10  9  1  0  0  0  0
 10 14  1  0  0  0  0
 10 11  1  0  0  0  0
 11 16  1  0  0  0  0
 12 11  1  0  0  0  0
 15 10  1  0  0  0  0
 17 11  1  0  0  0  0
 18 12  1  0  0  0  0
 18 24  1  0  0  0  0
 19 18  2  0  0  0  0
 20 19  1  0  0  0  0
 20 22  2  0  0  0  0
 21 20  1  0  0  0  0
 22 23  1  0  0  0  0
 23 24  2  0  0  0  0
 25 33  1  0  0  0  0
 25 28  1  1  0  0  0
 26 29  1  1  0  0  0
 26 25  1  0  0  0  0
 27 26  1  0  0  0  0
 27 25  1  0  0  0  0
 30 27  1  0  0  0  0
 31 27  1  0  0  0  0
 32 37  1  0  0  0  0
 32 38  1  0  0  0  0
 33 32  2  0  0  0  0
 34 35  2  0  0  0  0
 34 33  1  0  0  0  0
 35 36  1  0  0  0  0
 36 40  1  0  0  0  0
 36 37  2  0  0  0  0
 39 34  1  0  0  0  0
M  END
>  <minimizedAffinity>
-5.65758371

$$$$

 OpenBabel03242516473D

 40 44  0  0  1  0  0  0  0  0999 V2000
   39.4730   31.7290   41.3700 C   0  0  0  0  0  0  0  0  0  0  0  0
   40.7430   31.3310   41.1670 N   0  0  0  0  0  0  0  0  0  0  0  0
   40.9490   30.1080   41.6600 C   0  0  0  0  0  0  0  0  0  0  0  0
   39.7640   29.7140   42.2000 N   0  0  0  0  0  0  0  0  0  0  0  0
   38.8690   30.6710   42.0360 N   0  0  0  0  0  0  0  0  0  0  0  0
   41.8640   29.5100   41.6560 H   0  0  0  0  0  0  0  0  0  0  0  0
   40.4810   26.8240   41.3510 O   0  0  0  0  0  0  0  0  0  0  0  0
   39.4450   27.3250   41.8930 C   0  0  0  0  0  0  0  0  0  0  0  0
   39.4660   28.4510   42.8610 C   0  0  2  0  0  0  0  0  0  0  0  0
   38.0550   28.4520   43.4200 C   0  0  0  0  0  0  0  0  0  0  0  0
   37.2470   28.0140   42.1920 C   0  0  0  0  0  0  0  0  0  0  0  0
   38.0770   26.9290   41.7000 N   0  0  0  0  0  0  0  0  0  0  0  0
   40.1450   28.2700   43.7240 H   0  0  0  0  0  0  0  0  0  0  0  0
   37.7780   29.4800   43.6570 H   0  0  0  0  0  0  0  0  0  0  0  0
   37.9450   27.7430   44.2580 H   0  0  0  0  0  0  0  0  0  0  0  0
   37.2660   28.8590   41.4910 H   0  0  0  0  0  0  0  0  0  0  0  0
   36.2330   27.6850   42.4800 H   0  0  0  0  0  0  0  0  0  0  0  0
   37.6090   25.7150   41.1380 C   0  0  0  0  0  0  0  0  0  0  0  0
   38.0070   24.4810   41.5690 C   0  0  0  0  0  3  0  0  0  0  0  0
   37.5520   23.2920   41.0230 C   0  0  0  0  0  0  0  0  0  0  0  0
   37.8640   22.3250   41.3600 H   0  0  0  0  0  0  0  0  0  0  0  0
   36.6620   23.3760   40.0040 N   0  0  0  0  0  0  0  0  0  0  0  0
   36.2720   24.6030   39.5820 C   0  0  0  0  0  3  0  0  0  0  0  0
   36.7340   25.7370   40.1350 N   0  0  0  0  0  0  0  0  0  0  0  0
   37.8410   33.1270   39.8570 C   0  0  1  0  0  0  0  0  0  0  0  0
   38.7680   32.9640   41.0110 C   0  0  2  0  0  0  0  0  0  0  0  0
   39.2070   33.6880   39.8390 C   0  0  0  0  0  0  0  0  0  0  0  0
   36.9850   33.7990   40.0580 H   0  0  0  0  0  0  0  0  0  0  0  0
   38.5350   33.5760   41.9340 H   0  0  0  0  0  0  0  0  0  0  0  0
   39.2980   34.8120   39.9070 H   0  0  0  0  0  0  0  0  0  0  0  0
   39.9950   33.2870   39.1600 H   0  0  0  0  0  0  0  0  0  0  0  0
   36.4670   31.1070   39.4250 C   0  0  0  0  0  0  0  0  0  0  0  0
   37.4590   31.9850   38.9900 C   0  0  0  0  0  0  0  0  0  0  0  0
   38.0270   31.7530   37.7610 C   0  0  0  0  0  0  0  0  0  0  0  0
   37.5890   30.6830   37.0450 N   0  0  0  0  0  0  0  0  0  0  0  0
   36.6470   29.8590   37.4760 C   0  0  0  0  0  0  0  0  0  0  0  0
   36.0810   30.0750   38.6770 N   0  0  0  0  0  0  0  0  0  0  0  0
   35.9600   31.2130   40.3870 H   0  0  0  0  0  0  0  0  0  0  0  0
   38.8060   32.4190   37.3870 H   0  0  0  0  0  0  0  0  0  0  0  0
   36.4560   29.0780   36.7450 H   0  0  0  0  0  0  0  0  0  0  0  0
  1  5  2  0  0  0  0
  2  1  1  0  0  0  0
  2  3  2  0  0  0  0
  3  4  1  0  0  0  0
  4  9  1  0  0  0  0
  5  4  1  0  0  0  0
  6  3  1  0  0  0  0
  7  8  2  0  0  0  0
  8  9  1  0  0  0  0
  9 10  1  0  0  0  0
  9 13  1  1  0  0  0
 10 14  1  0  0  0  0
 10 15  1  0  0  0  0
 11 17  1  0  0  0  0
 11 10  1  0  0  0  0
 12  8  1  0  0  0  0
 12 11  1  0  0  0  0
 16 11  1  0  0  0  0
 18 19  1  0  0  0  0
 18 12  1  0  0  0  0
 20 21  1  0  0  0  0
 20 19  2  0  0  0  0
 22 20  1  0  0  0  0
 23 22  2  0  0  0  0
 23 24  1  0  0  0  0
 24 18  2  0  0  0  0
 25 28  1  1  0  0  0
 25 26  1  0  0  0  0
 26  1  1  0  0  0  0
 26 29  1  1  0  0  0
 27 25  1  0  0  0  0
 27 30  1  0  0  0  0
 27 26  1  0  0  0  0
 31 27  1  0  0  0  0
 32 38  1  0  0  0  0
 33 32  1  0  0  0  0
 33 25  1  0  0  0  0
 34 33  2  0  0  0  0
 35 36  2  0  0  0  0
 35 34  1  0  0  0  0
 36 37  1  0  0  0  0
 37 32  2  0  0  0  0
 39 34  1  0  0  0  0
 40 36  1  0  0  0  0
M  END
>  <minimizedAffinity>
-5.61707163

$$$$
