
 OpenBabel03252507583D

 25 27  0  0  1  0  0  0  0  0999 V2000
   46.6470   32.3960   46.1010 C   0  0  1  0  0  0  0  0  0  0  0  0
   46.7910   32.5430   47.5760 C   0  0  0  0  0  0  0  0  0  0  0  0
   45.6190   31.8150   47.0230 C   0  0  2  0  0  0  0  0  0  0  0  0
   47.4180   31.8230   45.5820 H   0  0  0  0  0  0  0  0  0  0  0  0
   46.5730   33.5550   47.9940 H   0  0  0  0  0  0  0  0  0  0  0  0
   47.6320   32.0340   48.0410 H   0  0  0  0  0  0  0  0  0  0  0  0
   44.6270   32.2680   47.0970 H   0  0  0  0  0  0  0  0  0  0  0  0
   46.1910   34.7580   43.3330 C   0  0  0  0  0  0  0  0  0  0  0  0
   45.1910   35.6360   43.8050 C   0  0  0  0  0  0  0  0  0  0  0  0
   44.6730   35.3990   45.0910 C   0  0  0  0  0  0  0  0  0  0  0  0
   45.1620   34.3460   45.7980 N   0  0  0  0  0  0  0  0  0  0  0  0
   46.1300   33.5360   45.2780 C   0  0  0  0  0  0  0  0  0  0  0  0
   46.6510   33.7210   44.0660 N   0  0  0  0  0  0  0  0  0  0  0  0
   44.8160   36.4550   43.2450 H   0  0  0  0  0  0  0  0  0  0  0  0
   43.9090   36.0340   45.5070 H   0  0  0  0  0  0  0  0  0  0  0  0
   46.6750   35.0650   42.0210 C   0  0  0  0  0  0  0  0  0  0  0  0
   47.8810   35.3120   41.7190 O   0  0  0  0  0  0  0  0  0  0  0  0
   45.8500   35.0570   41.3040 H   0  0  0  0  0  0  0  0  0  0  0  0
   45.6220   30.3130   47.0270 C   0  0  0  0  0  0  0  0  0  0  0  0
   45.1120   29.6010   48.1030 C   0  0  0  0  0  3  0  0  0  0  0  0
   45.1580   28.2260   48.0150 C   0  0  0  0  0  0  0  0  0  0  0  0
   44.7580   27.6740   48.8600 H   0  0  0  0  0  0  0  0  0  0  0  0
   45.6590   27.5460   46.9680 N   0  0  0  0  0  0  0  0  0  0  0  0
   46.1440   28.2700   45.9420 C   0  0  0  0  0  3  0  0  0  0  0  0
   46.1190   29.6140   45.9860 N   0  0  0  0  0  0  0  0  0  0  0  0
  1  4  1  6  0  0  0
  1  3  1  0  0  0  0
  1  2  1  0  0  0  0
  2  5  1  0  0  0  0
  2  6  1  0  0  0  0
  3 19  1  0  0  0  0
  3  7  1  1  0  0  0
  3  2  1  0  0  0  0
  8  9  2  0  0  0  0
  8 13  1  0  0  0  0
  9 10  1  0  0  0  0
 10 15  1  0  0  0  0
 10 11  2  0  0  0  0
 12 11  1  0  0  0  0
 12  1  1  0  0  0  0
 13 12  2  0  0  0  0
 14  9  1  0  0  0  0
 16  8  1  0  0  0  0
 17 16  2  0  0  0  0
 18 16  1  0  0  0  0
 19 20  1  0  0  0  0
 21 20  2  0  0  0  0
 21 22  1  0  0  0  0
 23 21  1  0  0  0  0
 24 25  1  0  0  0  0
 24 23  2  0  0  0  0
 25 19  2  0  0  0  0
M  END
>  <minimizedAffinity>
-4.4638505

>  <minimizedRMSD>
1.44021237

$$$$
