
 OpenBabel03252505443D

 40 43  0  0  1  0  0  0  0  0999 V2000
   37.6230   30.5890   40.7320 C   0  0  0  0  0  0  0  0  0  0  0  0
   38.7890   31.2710   40.9880 C   0  0  0  0  0  0  0  0  0  0  0  0
   39.5640   31.0350   42.1110 C   0  0  0  0  0  0  0  0  0  0  0  0
   39.1230   30.0850   42.9720 N   0  0  0  0  0  0  0  0  0  0  0  0
   37.9760   29.4100   42.7250 C   0  0  0  0  0  0  0  0  0  0  0  0
   37.2290   29.6460   41.6300 N   0  0  0  0  0  0  0  0  0  0  0  0
   39.0990   32.0230   40.2700 H   0  0  0  0  0  0  0  0  0  0  0  0
   40.4760   31.5940   42.2780 H   0  0  0  0  0  0  0  0  0  0  0  0
   37.4360   30.5870   38.2610 C   0  0  1  0  0  0  0  0  0  0  0  0
   37.2150   32.0850   38.6610 C   0  0  0  0  0  0  0  0  0  0  0  0
   36.7900   30.8860   39.5040 C   0  0  2  0  0  0  0  0  0  0  0  0
   38.5390   30.3400   38.2370 H   0  0  0  0  0  0  0  0  0  0  0  0
   38.0770   32.6280   39.0460 H   0  0  0  0  0  0  0  0  0  0  0  0
   36.4400   32.6310   38.1190 H   0  0  0  0  0  0  0  0  0  0  0  0
   35.7240   30.8660   39.7300 H   0  0  0  0  0  0  0  0  0  0  0  0
   36.7350   30.1900   37.0240 C   0  0  0  0  0  0  0  0  0  0  0  0
   35.8070   29.1300   37.1160 C   0  0  0  0  0  0  0  0  0  0  0  0
   35.1310   28.7390   35.9650 C   0  0  0  0  0  0  0  0  0  0  0  0
   35.4030   29.4030   34.8110 N   0  0  0  0  0  0  0  0  0  0  0  0
   36.2940   30.4100   34.7590 C   0  0  0  0  0  0  0  0  0  0  0  0
   36.9320   30.7700   35.8740 N   0  0  0  0  0  0  0  0  0  0  0  0
   35.6210   28.6270   38.0620 H   0  0  0  0  0  0  0  0  0  0  0  0
   34.4030   27.9230   35.9850 H   0  0  0  0  0  0  0  0  0  0  0  0
   36.4380   31.0050   33.3960 C   0  0  0  0  0  0  0  0  0  0  0  0
   37.4160   31.9870   33.3830 F   0  0  0  0  0  0  0  0  0  0  0  0
   35.2390   31.6630   33.0470 F   0  0  0  0  0  0  0  0  0  0  0  0
   36.6370   30.0190   32.4700 F   0  0  0  0  0  0  0  0  0  0  0  0
   37.4820   28.3820   43.6550 C   0  0  0  0  0  0  0  0  0  0  0  0
   38.3650   27.8160   44.0770 H   0  0  0  0  0  0  0  0  0  0  0  0
   36.9780   28.7870   44.5530 H   0  0  0  0  0  0  0  0  0  0  0  0
   36.6480   27.3360   42.9630 C   0  0  0  0  0  0  0  0  0  0  0  0
   35.8320   27.0800   43.6690 H   0  0  0  0  0  0  0  0  0  0  0  0
   36.1100   27.8330   42.0950 H   0  0  0  0  0  0  0  0  0  0  0  0
   37.3400   26.1350   42.5360 C   0  0  0  0  0  0  0  0  0  0  0  0
   36.9490   25.0080   41.8530 C   0  0  0  0  0  3  0  0  0  0  0  0
   37.7390   23.9280   41.5360 C   0  0  0  0  0  0  0  0  0  0  0  0
   37.2890   23.1090   40.9920 H   0  0  0  0  0  0  0  0  0  0  0  0
   39.0140   23.9870   41.9380 N   0  0  0  0  0  0  0  0  0  0  0  0
   39.4640   25.0770   42.6200 C   0  0  0  0  0  3  0  0  0  0  0  0
   38.6540   26.0880   42.8950 N   0  0  0  0  0  0  0  0  0  0  0  0
  1  2  2  0  0  0  0
  1  6  1  0  0  0  0
  2  3  1  0  0  0  0
  3  8  1  0  0  0  0
  3  4  2  0  0  0  0
  5  4  1  0  0  0  0
  5 28  1  0  0  0  0
  6  5  2  0  0  0  0
  7  2  1  0  0  0  0
  9 12  1  1  0  0  0
  9 10  1  0  0  0  0
  9 11  1  0  0  0  0
 10 13  1  0  0  0  0
 10 11  1  0  0  0  0
 11 15  1  1  0  0  0
 11  1  1  0  0  0  0
 14 10  1  0  0  0  0
 16 17  1  0  0  0  0
 16  9  1  0  0  0  0
 17 22  1  0  0  0  0
 18 23  1  0  0  0  0
 18 17  2  0  0  0  0
 19 18  1  0  0  0  0
 20 19  2  0  0  0  0
 20 21  1  0  0  0  0
 21 16  2  0  0  0  0
 24 20  1  0  0  0  0
 25 24  1  0  0  0  0
 26 24  1  0  0  0  0
 27 24  1  0  0  0  0
 28 29  1  0  0  0  0
 28 30  1  0  0  0  0
 31 28  1  0  0  0  0
 31 32  1  0  0  0  0
 33 31  1  0  0  0  0
 34 40  1  0  0  0  0
 34 31  1  0  0  0  0
 35 34  2  0  0  0  0
 36 35  1  0  0  0  0
 36 38  2  0  0  0  0
 37 36  1  0  0  0  0
 38 39  1  0  0  0  0
 39 40  2  0  0  0  0
M  END
>  <minimizedAffinity>
-6.24676466

$$$$

 OpenBabel03252505443D

 40 43  0  0  1  0  0  0  0  0999 V2000
   35.8620   29.4680   37.8940 C   0  0  0  0  0  0  0  0  0  0  0  0
   36.8350   29.8260   36.9900 C   0  0  0  0  0  0  0  0  0  0  0  0
   36.6330   29.7930   35.6210 C   0  0  0  0  0  0  0  0  0  0  0  0
   35.4160   29.3840   35.1890 N   0  0  0  0  0  0  0  0  0  0  0  0
   34.4540   29.0290   36.0730 C   0  0  0  0  0  0  0  0  0  0  0  0
   34.6590   29.0650   37.4040 N   0  0  0  0  0  0  0  0  0  0  0  0
   37.7940   30.1460   37.3850 H   0  0  0  0  0  0  0  0  0  0  0  0
   37.4250   30.0830   34.9410 H   0  0  0  0  0  0  0  0  0  0  0  0
   36.2350   28.2070   39.9940 C   0  0  1  0  0  0  0  0  0  0  0  0
   34.9670   29.0780   40.2890 C   0  0  0  0  0  0  0  0  0  0  0  0
   36.1220   29.4980   39.3840 C   0  0  2  0  0  0  0  0  0  0  0  0
   35.9520   27.2770   39.4160 H   0  0  0  0  0  0  0  0  0  0  0  0
   34.0500   28.8150   39.7630 H   0  0  0  0  0  0  0  0  0  0  0  0
   34.9010   29.5330   41.2800 H   0  0  0  0  0  0  0  0  0  0  0  0
   36.5990   30.4290   39.6870 H   0  0  0  0  0  0  0  0  0  0  0  0
   37.0470   27.9100   41.1900 C   0  0  0  0  0  0  0  0  0  0  0  0
   37.1200   28.9070   42.1870 C   0  0  0  0  0  0  0  0  0  0  0  0
   37.8760   28.6510   43.3270 C   0  0  0  0  0  0  0  0  0  0  0  0
   38.5060   27.4500   43.4150 N   0  0  0  0  0  0  0  0  0  0  0  0
   38.4150   26.5220   42.4450 C   0  0  0  0  0  0  0  0  0  0  0  0
   37.6850   26.7870   41.3600 N   0  0  0  0  0  0  0  0  0  0  0  0
   36.5980   29.8540   42.0740 H   0  0  0  0  0  0  0  0  0  0  0  0
   37.9640   29.3910   44.1270 H   0  0  0  0  0  0  0  0  0  0  0  0
   39.1790   25.2730   42.7440 C   0  0  0  0  0  0  0  0  0  0  0  0
   38.3310   24.1800   42.8300 F   0  0  0  0  0  0  0  0  0  0  0  0
   39.7760   25.3880   44.0180 F   0  0  0  0  0  0  0  0  0  0  0  0
   40.1920   25.1130   41.8410 F   0  0  0  0  0  0  0  0  0  0  0  0
   33.1300   28.5760   35.6180 C   0  0  0  0  0  0  0  0  0  0  0  0
   33.2560   27.9710   34.6720 H   0  0  0  0  0  0  0  0  0  0  0  0
   32.6270   27.8740   36.3120 H   0  0  0  0  0  0  0  0  0  0  0  0
   32.2340   29.7210   35.2280 C   0  0  0  0  0  0  0  0  0  0  0  0
   32.9010   30.5030   34.8110 H   0  0  0  0  0  0  0  0  0  0  0  0
   31.6100   29.3930   34.3370 H   0  0  0  0  0  0  0  0  0  0  0  0
   31.4010   30.2770   36.2770 C   0  0  0  0  0  0  0  0  0  0  0  0
   30.9940   29.8190   37.5080 C   0  0  0  0  0  3  0  0  0  0  0  0
   30.1720   30.4750   38.3950 C   0  0  0  0  0  0  0  0  0  0  0  0
   29.9380   29.9860   39.3300 H   0  0  0  0  0  0  0  0  0  0  0  0
   29.7260   31.6770   38.0120 N   0  0  0  0  0  0  0  0  0  0  0  0
   30.0930   32.1880   36.8040 C   0  0  0  0  0  3  0  0  0  0  0  0
   30.8890   31.5080   35.9930 N   0  0  0  0  0  0  0  0  0  0  0  0
  1 11  1  0  0  0  0
  2  7  1  0  0  0  0
  2  1  2  0  0  0  0
  3  2  1  0  0  0  0
  4  3  2  0  0  0  0
  4  5  1  0  0  0  0
  5  6  2  0  0  0  0
  6  1  1  0  0  0  0
  8  3  1  0  0  0  0
  9 12  1  6  0  0  0
  9 10  1  0  0  0  0
  9 16  1  0  0  0  0
 10 14  1  0  0  0  0
 11 15  1  1  0  0  0
 11  9  1  0  0  0  0
 11 10  1  0  0  0  0
 13 10  1  0  0  0  0
 16 21  2  0  0  0  0
 16 17  1  0  0  0  0
 17 18  2  0  0  0  0
 18 19  1  0  0  0  0
 18 23  1  0  0  0  0
 20 24  1  0  0  0  0
 20 19  2  0  0  0  0
 21 20  1  0  0  0  0
 22 17  1  0  0  0  0
 24 25  1  0  0  0  0
 24 26  1  0  0  0  0
 27 24  1  0  0  0  0
 28  5  1  0  0  0  0
 28 30  1  0  0  0  0
 29 28  1  0  0  0  0
 31 28  1  0  0  0  0
 31 34  1  0  0  0  0
 32 31  1  0  0  0  0
 33 31  1  0  0  0  0
 34 35  1  0  0  0  0
 35 36  2  0  0  0  0
 36 37  1  0  0  0  0
 38 36  1  0  0  0  0
 39 38  2  0  0  0  0
 40 34  2  0  0  0  0
 40 39  1  0  0  0  0
M  END
>  <minimizedAffinity>
-5.93092155

$$$$

 OpenBabel03252505443D

 40 43  0  0  1  0  0  0  0  0999 V2000
   37.3150   29.8640   38.9750 C   0  0  0  0  0  0  0  0  0  0  0  0
   35.9960   29.6170   38.6750 C   0  0  0  0  0  0  0  0  0  0  0  0
   35.0770   29.2060   39.6260 C   0  0  0  0  0  0  0  0  0  0  0  0
   35.5310   29.0510   40.8930 N   0  0  0  0  0  0  0  0  0  0  0  0
   36.8280   29.2930   41.1940 C   0  0  0  0  0  0  0  0  0  0  0  0
   37.7160   29.6930   40.2630 N   0  0  0  0  0  0  0  0  0  0  0  0
   35.6810   29.7540   37.6460 H   0  0  0  0  0  0  0  0  0  0  0  0
   34.0460   29.0210   39.3500 H   0  0  0  0  0  0  0  0  0  0  0  0
   39.1340   31.3950   38.2780 C   0  0  1  0  0  0  0  0  0  0  0  0
   38.0130   31.6190   37.2070 C   0  0  0  0  0  0  0  0  0  0  0  0
   38.2980   30.2930   37.9080 C   0  0  2  0  0  0  0  0  0  0  0  0
   38.9120   31.9890   39.2150 H   0  0  0  0  0  0  0  0  0  0  0  0
   37.1040   32.1200   37.5360 H   0  0  0  0  0  0  0  0  0  0  0  0
   38.3370   31.7300   36.1700 H   0  0  0  0  0  0  0  0  0  0  0  0
   38.5260   29.4760   37.2230 H   0  0  0  0  0  0  0  0  0  0  0  0
   40.5010   31.6230   37.7690 C   0  0  0  0  0  0  0  0  0  0  0  0
   41.0320   32.9240   37.8970 C   0  0  0  0  0  0  0  0  0  0  0  0
   42.3200   33.1630   37.4270 C   0  0  0  0  0  0  0  0  0  0  0  0
   42.9960   32.1260   36.8680 N   0  0  0  0  0  0  0  0  0  0  0  0
   42.4590   30.8970   36.7620 C   0  0  0  0  0  0  0  0  0  0  0  0
   41.2220   30.6880   37.2190 N   0  0  0  0  0  0  0  0  0  0  0  0
   40.4540   33.7250   38.3520 H   0  0  0  0  0  0  0  0  0  0  0  0
   42.7750   34.1550   37.5040 H   0  0  0  0  0  0  0  0  0  0  0  0
   43.3720   29.9030   36.1230 C   0  0  0  0  0  0  0  0  0  0  0  0
   44.6990   30.2660   36.2900 F   0  0  0  0  0  0  0  0  0  0  0  0
   43.1550   29.9020   34.7280 F   0  0  0  0  0  0  0  0  0  0  0  0
   43.0860   28.6440   36.5730 F   0  0  0  0  0  0  0  0  0  0  0  0
   37.3380   29.1210   42.5650 C   0  0  0  0  0  0  0  0  0  0  0  0
   38.4660   29.1800   42.5450 H   0  0  0  0  0  0  0  0  0  0  0  0
   37.0450   29.9300   43.2620 H   0  0  0  0  0  0  0  0  0  0  0  0
   37.0320   27.7570   43.1240 C   0  0  0  0  0  0  0  0  0  0  0  0
   36.6310   27.9270   44.1430 H   0  0  0  0  0  0  0  0  0  0  0  0
   36.1460   27.3330   42.5520 H   0  0  0  0  0  0  0  0  0  0  0  0
   38.1320   26.8140   43.1660 C   0  0  0  0  0  0  0  0  0  0  0  0
   39.3590   26.8140   43.7880 C   0  0  0  0  0  3  0  0  0  0  0  0
   40.3150   25.8290   43.7120 C   0  0  0  0  0  0  0  0  0  0  0  0
   41.2370   25.9710   44.2580 H   0  0  0  0  0  0  0  0  0  0  0  0
   40.0150   24.7680   42.9530 N   0  0  0  0  0  0  0  0  0  0  0  0
   38.8160   24.7070   42.3100 C   0  0  0  0  0  3  0  0  0  0  0  0
   37.9330   25.6880   42.4230 N   0  0  0  0  0  0  0  0  0  0  0  0
  1  6  1  0  0  0  0
  2  1  2  0  0  0  0
  2  3  1  0  0  0  0
  3  4  2  0  0  0  0
  4  5  1  0  0  0  0
  5 28  1  0  0  0  0
  6  5  2  0  0  0  0
  7  2  1  0  0  0  0
  8  3  1  0  0  0  0
  9 12  1  1  0  0  0
 10 13  1  0  0  0  0
 10 11  1  0  0  0  0
 10  9  1  0  0  0  0
 11 15  1  6  0  0  0
 11  9  1  0  0  0  0
 11  1  1  0  0  0  0
 14 10  1  0  0  0  0
 16 17  1  0  0  0  0
 16  9  1  0  0  0  0
 17 22  1  0  0  0  0
 18 23  1  0  0  0  0
 18 17  2  0  0  0  0
 19 18  1  0  0  0  0
 20 19  2  0  0  0  0
 20 21  1  0  0  0  0
 21 16  2  0  0  0  0
 24 25  1  0  0  0  0
 24 27  1  0  0  0  0
 24 20  1  0  0  0  0
 26 24  1  0  0  0  0
 28 31  1  0  0  0  0
 28 30  1  0  0  0  0
 29 28  1  0  0  0  0
 31 34  1  0  0  0  0
 31 32  1  0  0  0  0
 33 31  1  0  0  0  0
 34 35  1  0  0  0  0
 36 35  2  0  0  0  0
 36 37  1  0  0  0  0
 38 36  1  0  0  0  0
 39 40  1  0  0  0  0
 39 38  2  0  0  0  0
 40 34  2  0  0  0  0
M  END
>  <minimizedAffinity>
-5.80848789

$$$$

 OpenBabel03252505443D

 40 43  0  0  1  0  0  0  0  0999 V2000
   35.8830   27.6570   38.8190 C   0  0  0  0  0  0  0  0  0  0  0  0
   35.0440   27.4120   37.7580 C   0  0  0  0  0  0  0  0  0  0  0  0
   34.7590   26.1330   37.3080 C   0  0  0  0  0  0  0  0  0  0  0  0
   35.3490   25.1060   37.9660 N   0  0  0  0  0  0  0  0  0  0  0  0
   36.1760   25.3400   39.0110 C   0  0  0  0  0  0  0  0  0  0  0  0
   36.4470   26.5880   39.4420 N   0  0  0  0  0  0  0  0  0  0  0  0
   34.5970   28.2680   37.2630 H   0  0  0  0  0  0  0  0  0  0  0  0
   34.0930   25.9820   36.4680 H   0  0  0  0  0  0  0  0  0  0  0  0
   36.8600   29.1540   40.5350 C   0  0  1  0  0  0  0  0  0  0  0  0
   35.3630   29.6060   40.4390 C   0  0  0  0  0  0  0  0  0  0  0  0
   36.1880   29.0680   39.2730 C   0  0  2  0  0  0  0  0  0  0  0  0
   36.9580   28.2400   41.1920 H   0  0  0  0  0  0  0  0  0  0  0  0
   34.6110   28.9170   40.8200 H   0  0  0  0  0  0  0  0  0  0  0  0
   35.1690   30.6800   40.4760 H   0  0  0  0  0  0  0  0  0  0  0  0
   36.2510   29.7530   38.4280 H   0  0  0  0  0  0  0  0  0  0  0  0
   37.7870   30.2370   40.9210 C   0  0  0  0  0  0  0  0  0  0  0  0
   38.7570   29.9400   41.9030 C   0  0  0  0  0  0  0  0  0  0  0  0
   39.6440   30.9420   42.2810 C   0  0  0  0  0  0  0  0  0  0  0  0
   39.5260   32.1560   41.6830 N   0  0  0  0  0  0  0  0  0  0  0  0
   38.5900   32.4050   40.7500 C   0  0  0  0  0  0  0  0  0  0  0  0
   37.7470   31.4300   40.4000 N   0  0  0  0  0  0  0  0  0  0  0  0
   38.8150   28.9530   42.3550 H   0  0  0  0  0  0  0  0  0  0  0  0
   40.4130   30.7610   43.0380 H   0  0  0  0  0  0  0  0  0  0  0  0
   38.6370   33.8000   40.2170 C   0  0  0  0  0  0  0  0  0  0  0  0
   38.7310   34.7230   41.2470 F   0  0  0  0  0  0  0  0  0  0  0  0
   37.4210   34.0890   39.5610 F   0  0  0  0  0  0  0  0  0  0  0  0
   39.6310   33.9140   39.2850 F   0  0  0  0  0  0  0  0  0  0  0  0
   36.8300   24.2340   39.7290 C   0  0  0  0  0  0  0  0  0  0  0  0
   36.3140   23.2660   39.4570 H   0  0  0  0  0  0  0  0  0  0  0  0
   37.8830   24.0620   39.4350 H   0  0  0  0  0  0  0  0  0  0  0  0
   36.6740   24.3480   41.2230 C   0  0  0  0  0  0  0  0  0  0  0  0
   35.8690   25.0920   41.3900 H   0  0  0  0  0  0  0  0  0  0  0  0
   36.2270   23.3760   41.6050 H   0  0  0  0  0  0  0  0  0  0  0  0
   37.8610   24.7120   41.9710 C   0  0  0  0  0  0  0  0  0  0  0  0
   39.0150   24.0430   42.3050 C   0  0  0  0  0  3  0  0  0  0  0  0
   40.0600   24.5340   43.0520 C   0  0  0  0  0  0  0  0  0  0  0  0
   40.9060   23.8860   43.2330 H   0  0  0  0  0  0  0  0  0  0  0  0
   39.9320   25.7900   43.4960 N   0  0  0  0  0  0  0  0  0  0  0  0
   38.8120   26.5070   43.2010 C   0  0  0  0  0  3  0  0  0  0  0  0
   37.8390   25.9790   42.4750 N   0  0  0  0  0  0  0  0  0  0  0  0
  1 11  1  0  0  0  0
  1  6  1  0  0  0  0
  2  1  2  0  0  0  0
  3  2  1  0  0  0  0
  3  4  2  0  0  0  0
  4  5  1  0  0  0  0
  5  6  2  0  0  0  0
  5 28  1  0  0  0  0
  7  2  1  0  0  0  0
  8  3  1  0  0  0  0
  9 16  1  0  0  0  0
  9 12  1  1  0  0  0
 10 14  1  0  0  0  0
 10  9  1  0  0  0  0
 10 13  1  0  0  0  0
 11 15  1  6  0  0  0
 11 10  1  0  0  0  0
 11  9  1  0  0  0  0
 16 17  1  0  0  0  0
 17 18  2  0  0  0  0
 17 22  1  0  0  0  0
 18 23  1  0  0  0  0
 19 18  1  0  0  0  0
 20 19  2  0  0  0  0
 21 20  1  0  0  0  0
 21 16  2  0  0  0  0
 24 20  1  0  0  0  0
 24 25  1  0  0  0  0
 26 24  1  0  0  0  0
 27 24  1  0  0  0  0
 28 31  1  0  0  0  0
 29 28  1  0  0  0  0
 30 28  1  0  0  0  0
 31 32  1  0  0  0  0
 31 33  1  0  0  0  0
 31 34  1  0  0  0  0
 34 35  2  0  0  0  0
 34 40  1  0  0  0  0
 35 36  1  0  0  0  0
 36 37  1  0  0  0  0
 36 38  2  0  0  0  0
 39 38  1  0  0  0  0
 40 39  2  0  0  0  0
M  END
>  <minimizedAffinity>
-5.7456727

$$$$

 OpenBabel03252505443D

 40 43  0  0  1  0  0  0  0  0999 V2000
   37.5150   30.4780   40.6940 C   0  0  0  0  0  0  0  0  0  0  0  0
   38.6300   31.2510   40.9140 C   0  0  0  0  0  0  0  0  0  0  0  0
   39.4400   31.0990   42.0270 C   0  0  0  0  0  0  0  0  0  0  0  0
   39.0880   30.1380   42.9160 N   0  0  0  0  0  0  0  0  0  0  0  0
   37.9910   29.3740   42.7060 C   0  0  0  0  0  0  0  0  0  0  0  0
   37.2090   29.5290   41.6190 N   0  0  0  0  0  0  0  0  0  0  0  0
   38.8700   32.0080   40.1740 H   0  0  0  0  0  0  0  0  0  0  0  0
   40.3110   31.7280   42.1650 H   0  0  0  0  0  0  0  0  0  0  0  0
   36.9980   29.8800   38.3460 C   0  0  1  0  0  0  0  0  0  0  0  0
   37.2710   31.4220   38.2980 C   0  0  0  0  0  0  0  0  0  0  0  0
   36.6410   30.6840   39.4770 C   0  0  2  0  0  0  0  0  0  0  0  0
   37.9710   29.3040   38.3410 H   0  0  0  0  0  0  0  0  0  0  0  0
   38.2960   31.7500   38.4640 H   0  0  0  0  0  0  0  0  0  0  0  0
   36.6170   32.0190   37.6590 H   0  0  0  0  0  0  0  0  0  0  0  0
   35.6560   31.0590   39.7520 H   0  0  0  0  0  0  0  0  0  0  0  0
   36.0500   29.4090   37.3170 C   0  0  0  0  0  0  0  0  0  0  0  0
   36.5960   28.8850   36.1250 C   0  0  0  0  0  0  0  0  0  0  0  0
   35.7240   28.4310   35.1410 C   0  0  0  0  0  0  0  0  0  0  0  0
   34.3890   28.5200   35.3830 N   0  0  0  0  0  0  0  0  0  0  0  0
   33.9030   29.0260   36.5300 C   0  0  0  0  0  0  0  0  0  0  0  0
   34.7560   29.4560   37.4630 N   0  0  0  0  0  0  0  0  0  0  0  0
   37.6710   28.8320   35.9750 H   0  0  0  0  0  0  0  0  0  0  0  0
   36.0970   28.0160   34.2010 H   0  0  0  0  0  0  0  0  0  0  0  0
   32.4110   29.0270   36.5940 C   0  0  0  0  0  0  0  0  0  0  0  0
   31.8920   27.8260   36.1370 F   0  0  0  0  0  0  0  0  0  0  0  0
   31.9090   30.0130   35.7170 F   0  0  0  0  0  0  0  0  0  0  0  0
   31.9940   29.3620   37.8520 F   0  0  0  0  0  0  0  0  0  0  0  0
   37.5920   28.3320   43.6660 C   0  0  0  0  0  0  0  0  0  0  0  0
   38.5150   27.7740   44.0050 H   0  0  0  0  0  0  0  0  0  0  0  0
   37.1620   28.7240   44.6080 H   0  0  0  0  0  0  0  0  0  0  0  0
   36.7130   27.2810   43.0400 C   0  0  0  0  0  0  0  0  0  0  0  0
   35.9580   27.0180   43.8080 H   0  0  0  0  0  0  0  0  0  0  0  0
   36.1040   27.7760   42.2190 H   0  0  0  0  0  0  0  0  0  0  0  0
   37.3780   26.0870   42.5570 C   0  0  0  0  0  0  0  0  0  0  0  0
   36.9520   24.9800   41.8610 C   0  0  0  0  0  3  0  0  0  0  0  0
   37.7200   23.9030   41.4860 C   0  0  0  0  0  0  0  0  0  0  0  0
   37.2430   23.1020   40.9400 H   0  0  0  0  0  0  0  0  0  0  0  0
   39.0100   23.9430   41.8400 N   0  0  0  0  0  0  0  0  0  0  0  0
   39.4950   25.0120   42.5310 C   0  0  0  0  0  3  0  0  0  0  0  0
   38.7040   26.0210   42.8630 N   0  0  0  0  0  0  0  0  0  0  0  0
  1  2  2  0  0  0  0
  1  6  1  0  0  0  0
  2  3  1  0  0  0  0
  3  8  1  0  0  0  0
  3  4  2  0  0  0  0
  5  4  1  0  0  0  0
  5 28  1  0  0  0  0
  6  5  2  0  0  0  0
  7  2  1  0  0  0  0
  9 12  1  1  0  0  0
  9 11  1  0  0  0  0
 10  9  1  0  0  0  0
 10 13  1  0  0  0  0
 10 11  1  0  0  0  0
 11 15  1  1  0  0  0
 11  1  1  0  0  0  0
 14 10  1  0  0  0  0
 16 21  1  0  0  0  0
 16  9  1  0  0  0  0
 17 16  2  0  0  0  0
 18 19  2  0  0  0  0
 18 17  1  0  0  0  0
 19 20  1  0  0  0  0
 20 24  1  0  0  0  0
 20 21  2  0  0  0  0
 22 17  1  0  0  0  0
 23 18  1  0  0  0  0
 24 27  1  0  0  0  0
 25 24  1  0  0  0  0
 26 24  1  0  0  0  0
 28 29  1  0  0  0  0
 28 30  1  0  0  0  0
 31 28  1  0  0  0  0
 31 32  1  0  0  0  0
 33 31  1  0  0  0  0
 34 40  1  0  0  0  0
 34 31  1  0  0  0  0
 35 34  2  0  0  0  0
 36 38  2  0  0  0  0
 36 35  1  0  0  0  0
 37 36  1  0  0  0  0
 38 39  1  0  0  0  0
 39 40  2  0  0  0  0
M  END
>  <minimizedAffinity>
-5.7430892

$$$$

 OpenBabel03252505443D

 40 43  0  0  1  0  0  0  0  0999 V2000
   38.6450   32.3720   40.4130 C   0  0  0  0  0  0  0  0  0  0  0  0
   38.3020   33.7000   40.5090 C   0  0  0  0  0  0  0  0  0  0  0  0
   39.1440   34.7230   40.1040 C   0  0  0  0  0  0  0  0  0  0  0  0
   40.3480   34.3620   39.5980 N   0  0  0  0  0  0  0  0  0  0  0  0
   40.6920   33.0570   39.5010 C   0  0  0  0  0  0  0  0  0  0  0  0
   39.8660   32.0690   39.8970 N   0  0  0  0  0  0  0  0  0  0  0  0
   37.3270   33.9380   40.9220 H   0  0  0  0  0  0  0  0  0  0  0  0
   38.8370   35.7570   40.1970 H   0  0  0  0  0  0  0  0  0  0  0  0
   38.2350   29.9540   40.7620 C   0  0  1  0  0  0  0  0  0  0  0  0
   37.0820   30.4040   39.8010 C   0  0  0  0  0  0  0  0  0  0  0  0
   37.7080   31.2800   40.8820 C   0  0  2  0  0  0  0  0  0  0  0  0
   39.1870   29.7690   40.1820 H   0  0  0  0  0  0  0  0  0  0  0  0
   37.3610   30.6700   38.7830 H   0  0  0  0  0  0  0  0  0  0  0  0
   36.0910   29.9860   39.9910 H   0  0  0  0  0  0  0  0  0  0  0  0
   36.9910   31.6570   41.6110 H   0  0  0  0  0  0  0  0  0  0  0  0
   37.8730   28.8240   41.6400 C   0  0  0  0  0  0  0  0  0  0  0  0
   37.5930   29.1170   42.9920 C   0  0  0  0  0  0  0  0  0  0  0  0
   37.2460   28.0700   43.8400 C   0  0  0  0  0  0  0  0  0  0  0  0
   37.1960   26.8170   43.3160 N   0  0  0  0  0  0  0  0  0  0  0  0
   37.4690   26.5730   42.0210 C   0  0  0  0  0  0  0  0  0  0  0  0
   37.8000   27.5910   41.2240 N   0  0  0  0  0  0  0  0  0  0  0  0
   37.6450   30.1360   43.3690 H   0  0  0  0  0  0  0  0  0  0  0  0
   37.0210   28.2460   44.8950 H   0  0  0  0  0  0  0  0  0  0  0  0
   37.3510   25.1300   41.6510 C   0  0  0  0  0  0  0  0  0  0  0  0
   36.2550   24.5470   42.2660 F   0  0  0  0  0  0  0  0  0  0  0  0
   38.4750   24.4310   42.1410 F   0  0  0  0  0  0  0  0  0  0  0  0
   37.3560   24.9920   40.2910 F   0  0  0  0  0  0  0  0  0  0  0  0
   42.0000   32.6510   38.9610 C   0  0  0  0  0  0  0  0  0  0  0  0
   42.2150   33.2570   38.0310 H   0  0  0  0  0  0  0  0  0  0  0  0
   42.8560   32.8780   39.6250 H   0  0  0  0  0  0  0  0  0  0  0  0
   42.0090   31.2180   38.4990 C   0  0  0  0  0  0  0  0  0  0  0  0
   42.3350   30.6170   39.3720 H   0  0  0  0  0  0  0  0  0  0  0  0
   40.9330   30.8940   38.3330 H   0  0  0  0  0  0  0  0  0  0  0  0
   42.8340   30.9160   37.3440 C   0  0  0  0  0  0  0  0  0  0  0  0
   42.6530   30.1340   36.2280 C   0  0  0  0  0  3  0  0  0  0  0  0
   43.5590   29.9350   35.2120 C   0  0  0  0  0  0  0  0  0  0  0  0
   43.2730   29.2880   34.3950 H   0  0  0  0  0  0  0  0  0  0  0  0
   44.7320   30.5680   35.3310 N   0  0  0  0  0  0  0  0  0  0  0  0
   44.9730   31.3590   36.4140 C   0  0  0  0  0  3  0  0  0  0  0  0
   44.0590   31.5120   37.3610 N   0  0  0  0  0  0  0  0  0  0  0  0
  1  2  1  0  0  0  0
  1 11  1  0  0  0  0
  2  7  1  0  0  0  0
  3  8  1  0  0  0  0
  3  2  2  0  0  0  0
  4  3  1  0  0  0  0
  5  4  2  0  0  0  0
  5  6  1  0  0  0  0
  6  1  2  0  0  0  0
  9 12  1  6  0  0  0
  9 11  1  0  0  0  0
  9 16  1  0  0  0  0
 10 14  1  0  0  0  0
 10  9  1  0  0  0  0
 10 11  1  0  0  0  0
 11 15  1  1  0  0  0
 13 10  1  0  0  0  0
 16 17  1  0  0  0  0
 17 22  1  0  0  0  0
 17 18  2  0  0  0  0
 18 23  1  0  0  0  0
 19 18  1  0  0  0  0
 20 19  2  0  0  0  0
 21 16  2  0  0  0  0
 21 20  1  0  0  0  0
 24 20  1  0  0  0  0
 24 26  1  0  0  0  0
 24 25  1  0  0  0  0
 27 24  1  0  0  0  0
 28  5  1  0  0  0  0
 28 30  1  0  0  0  0
 29 28  1  0  0  0  0
 31 28  1  0  0  0  0
 31 32  1  0  0  0  0
 33 31  1  0  0  0  0
 34 40  1  0  0  0  0
 34 31  1  0  0  0  0
 35 34  2  0  0  0  0
 36 38  2  0  0  0  0
 36 35  1  0  0  0  0
 37 36  1  0  0  0  0
 38 39  1  0  0  0  0
 39 40  2  0  0  0  0
M  END
>  <minimizedAffinity>
-5.65510654

$$$$

 OpenBabel03252505443D

 40 43  0  0  1  0  0  0  0  0999 V2000
   35.9330   25.9150   38.5840 C   0  0  0  0  0  0  0  0  0  0  0  0
   35.4130   24.7730   38.0230 C   0  0  0  0  0  0  0  0  0  0  0  0
   35.4790   23.5360   38.6440 C   0  0  0  0  0  0  0  0  0  0  0  0
   36.0890   23.4880   39.8530 N   0  0  0  0  0  0  0  0  0  0  0  0
   36.6040   24.6090   40.4100 C   0  0  0  0  0  0  0  0  0  0  0  0
   36.5340   25.8080   39.7990 N   0  0  0  0  0  0  0  0  0  0  0  0
   34.9350   24.8620   37.0530 H   0  0  0  0  0  0  0  0  0  0  0  0
   35.0580   22.6590   38.1690 H   0  0  0  0  0  0  0  0  0  0  0  0
   36.0140   28.3870   38.7220 C   0  0  1  0  0  0  0  0  0  0  0  0
   34.6060   28.0830   38.1060 C   0  0  0  0  0  0  0  0  0  0  0  0
   35.8610   27.2470   37.8700 C   0  0  2  0  0  0  0  0  0  0  0  0
   35.9900   28.2670   39.8460 H   0  0  0  0  0  0  0  0  0  0  0  0
   33.8680   27.6200   38.7590 H   0  0  0  0  0  0  0  0  0  0  0  0
   34.2680   28.7390   37.3000 H   0  0  0  0  0  0  0  0  0  0  0  0
   36.1310   27.1510   36.8190 H   0  0  0  0  0  0  0  0  0  0  0  0
   36.5830   29.6820   38.2990 C   0  0  0  0  0  0  0  0  0  0  0  0
   36.9270   29.8250   36.9380 C   0  0  0  0  0  0  0  0  0  0  0  0
   37.4620   31.0370   36.5130 C   0  0  0  0  0  0  0  0  0  0  0  0
   37.6260   32.0190   37.4380 N   0  0  0  0  0  0  0  0  0  0  0  0
   37.2870   31.8490   38.7290 C   0  0  0  0  0  0  0  0  0  0  0  0
   36.7750   30.6790   39.1160 N   0  0  0  0  0  0  0  0  0  0  0  0
   36.7780   29.0110   36.2320 H   0  0  0  0  0  0  0  0  0  0  0  0
   37.7440   31.1970   35.4690 H   0  0  0  0  0  0  0  0  0  0  0  0
   37.5430   33.0540   39.5740 C   0  0  0  0  0  0  0  0  0  0  0  0
   36.7490   34.1180   39.1780 F   0  0  0  0  0  0  0  0  0  0  0  0
   38.8740   33.4830   39.3800 F   0  0  0  0  0  0  0  0  0  0  0  0
   37.4150   32.7360   40.8980 F   0  0  0  0  0  0  0  0  0  0  0  0
   37.2760   24.5710   41.7190 C   0  0  0  0  0  0  0  0  0  0  0  0
   36.9830   23.6180   42.2520 H   0  0  0  0  0  0  0  0  0  0  0  0
   38.3800   24.5090   41.6610 H   0  0  0  0  0  0  0  0  0  0  0  0
   36.8200   25.6790   42.6310 C   0  0  0  0  0  0  0  0  0  0  0  0
   35.8150   25.9770   42.2710 H   0  0  0  0  0  0  0  0  0  0  0  0
   36.6190   25.2320   43.6560 H   0  0  0  0  0  0  0  0  0  0  0  0
   37.6870   26.8380   42.7230 C   0  0  0  0  0  0  0  0  0  0  0  0
   39.0230   27.0040   43.0050 C   0  0  0  0  0  3  0  0  0  0  0  0
   39.7040   28.1970   43.0720 C   0  0  0  0  0  0  0  0  0  0  0  0
   40.7580   28.1690   43.3060 H   0  0  0  0  0  0  0  0  0  0  0  0
   38.9860   29.3030   42.8400 N   0  0  0  0  0  0  0  0  0  0  0  0
   37.6580   29.2060   42.5550 C   0  0  0  0  0  3  0  0  0  0  0  0
   37.0570   28.0270   42.5040 N   0  0  0  0  0  0  0  0  0  0  0  0
  1  6  1  0  0  0  0
  2  1  2  0  0  0  0
  2  3  1  0  0  0  0
  3  4  2  0  0  0  0
  4  5  1  0  0  0  0
  5 28  1  0  0  0  0
  6  5  2  0  0  0  0
  7  2  1  0  0  0  0
  8  3  1  0  0  0  0
  9 12  1  1  0  0  0
 10  9  1  0  0  0  0
 10 13  1  0  0  0  0
 11 15  1  6  0  0  0
 11 10  1  0  0  0  0
 11  1  1  0  0  0  0
 11  9  1  0  0  0  0
 14 10  1  0  0  0  0
 16  9  1  0  0  0  0
 16 21  1  0  0  0  0
 17 16  2  0  0  0  0
 18 17  1  0  0  0  0
 18 19  2  0  0  0  0
 19 20  1  0  0  0  0
 20 21  2  0  0  0  0
 20 24  1  0  0  0  0
 22 17  1  0  0  0  0
 23 18  1  0  0  0  0
 24 27  1  0  0  0  0
 25 24  1  0  0  0  0
 26 24  1  0  0  0  0
 28 29  1  0  0  0  0
 28 31  1  0  0  0  0
 30 28  1  0  0  0  0
 31 34  1  0  0  0  0
 31 33  1  0  0  0  0
 32 31  1  0  0  0  0
 34 35  1  0  0  0  0
 35 36  2  0  0  0  0
 36 37  1  0  0  0  0
 38 36  1  0  0  0  0
 39 38  2  0  0  0  0
 40 39  1  0  0  0  0
 40 34  2  0  0  0  0
M  END
>  <minimizedAffinity>
-5.6303668

$$$$

 OpenBabel03252505443D

 40 43  0  0  1  0  0  0  0  0999 V2000
   37.5410   30.6520   40.0630 C   0  0  0  0  0  0  0  0  0  0  0  0
   38.5150   31.6210   40.1100 C   0  0  0  0  0  0  0  0  0  0  0  0
   39.3830   31.7600   41.1800 C   0  0  0  0  0  0  0  0  0  0  0  0
   39.2380   30.8870   42.2060 N   0  0  0  0  0  0  0  0  0  0  0  0
   38.2810   29.9300   42.1660 C   0  0  0  0  0  0  0  0  0  0  0  0
   37.4410   29.8030   41.1210 N   0  0  0  0  0  0  0  0  0  0  0  0
   38.5910   32.2980   39.2650 H   0  0  0  0  0  0  0  0  0  0  0  0
   40.1380   32.5370   41.1790 H   0  0  0  0  0  0  0  0  0  0  0  0
   36.4330   29.2120   38.3800 C   0  0  1  0  0  0  0  0  0  0  0  0
   37.2270   30.2590   37.5260 C   0  0  0  0  0  0  0  0  0  0  0  0
   36.5960   30.5410   38.8870 C   0  0  2  0  0  0  0  0  0  0  0  0
   37.1180   28.3810   38.7260 H   0  0  0  0  0  0  0  0  0  0  0  0
   38.3130   30.1860   37.5350 H   0  0  0  0  0  0  0  0  0  0  0  0
   36.7260   30.6520   36.6380 H   0  0  0  0  0  0  0  0  0  0  0  0
   35.8760   31.3590   38.8750 H   0  0  0  0  0  0  0  0  0  0  0  0
   35.2120   28.7070   37.7210 C   0  0  0  0  0  0  0  0  0  0  0  0
   35.3050   27.4730   37.0420 C   0  0  0  0  0  0  0  0  0  0  0  0
   34.1670   26.9740   36.4160 C   0  0  0  0  0  0  0  0  0  0  0  0
   33.0250   27.7070   36.4930 N   0  0  0  0  0  0  0  0  0  0  0  0
   32.9720   28.8800   37.1490 C   0  0  0  0  0  0  0  0  0  0  0  0
   34.0740   29.3410   37.7430 N   0  0  0  0  0  0  0  0  0  0  0  0
   36.2410   26.9200   37.0060 H   0  0  0  0  0  0  0  0  0  0  0  0
   34.1880   26.0230   35.8770 H   0  0  0  0  0  0  0  0  0  0  0  0
   31.6220   29.5180   37.1170 C   0  0  0  0  0  0  0  0  0  0  0  0
   31.6540   30.7160   36.4200 F   0  0  0  0  0  0  0  0  0  0  0  0
   31.2360   29.8570   38.4320 F   0  0  0  0  0  0  0  0  0  0  0  0
   30.6940   28.6320   36.6440 F   0  0  0  0  0  0  0  0  0  0  0  0
   38.1060   28.9800   43.2770 C   0  0  0  0  0  0  0  0  0  0  0  0
   39.0840   28.4420   43.4540 H   0  0  0  0  0  0  0  0  0  0  0  0
   37.8890   29.4570   44.2520 H   0  0  0  0  0  0  0  0  0  0  0  0
   37.1190   27.8920   42.9500 C   0  0  0  0  0  0  0  0  0  0  0  0
   36.3990   27.8680   43.7940 H   0  0  0  0  0  0  0  0  0  0  0  0
   36.4910   28.2380   42.0690 H   0  0  0  0  0  0  0  0  0  0  0  0
   37.6670   26.5690   42.7180 C   0  0  0  0  0  0  0  0  0  0  0  0
   37.1680   25.4220   42.1470 C   0  0  0  0  0  3  0  0  0  0  0  0
   37.8240   24.2210   42.0160 C   0  0  0  0  0  0  0  0  0  0  0  0
   37.3000   23.4030   41.5430 H   0  0  0  0  0  0  0  0  0  0  0  0
   39.0720   24.1710   42.4970 N   0  0  0  0  0  0  0  0  0  0  0  0
   39.6250   25.2740   43.0750 C   0  0  0  0  0  3  0  0  0  0  0  0
   38.9420   26.4050   43.1710 N   0  0  0  0  0  0  0  0  0  0  0  0
  1  2  2  0  0  0  0
  1  6  1  0  0  0  0
  2  3  1  0  0  0  0
  3  4  2  0  0  0  0
  5  4  1  0  0  0  0
  5 28  1  0  0  0  0
  6  5  2  0  0  0  0
  7  2  1  0  0  0  0
  8  3  1  0  0  0  0
  9 12  1  1  0  0  0
  9 11  1  0  0  0  0
 10 13  1  0  0  0  0
 10  9  1  0  0  0  0
 10 11  1  0  0  0  0
 11 15  1  1  0  0  0
 11  1  1  0  0  0  0
 14 10  1  0  0  0  0
 16 21  1  0  0  0  0
 16  9  1  0  0  0  0
 17 16  2  0  0  0  0
 18 19  2  0  0  0  0
 18 17  1  0  0  0  0
 19 20  1  0  0  0  0
 20 21  2  0  0  0  0
 22 17  1  0  0  0  0
 23 18  1  0  0  0  0
 24 20  1  0  0  0  0
 24 26  1  0  0  0  0
 25 24  1  0  0  0  0
 27 24  1  0  0  0  0
 28 29  1  0  0  0  0
 28 30  1  0  0  0  0
 31 28  1  0  0  0  0
 31 32  1  0  0  0  0
 33 31  1  0  0  0  0
 34 31  1  0  0  0  0
 34 40  1  0  0  0  0
 35 34  2  0  0  0  0
 36 35  1  0  0  0  0
 36 38  2  0  0  0  0
 37 36  1  0  0  0  0
 38 39  1  0  0  0  0
 39 40  2  0  0  0  0
M  END
>  <minimizedAffinity>
-5.56941319

$$$$

 OpenBabel03252505443D

 40 43  0  0  1  0  0  0  0  0999 V2000
   37.1840   29.2560   38.0690 C   0  0  0  0  0  0  0  0  0  0  0  0
   36.1990   29.0900   37.1250 C   0  0  0  0  0  0  0  0  0  0  0  0
   35.3320   28.0100   37.1280 C   0  0  0  0  0  0  0  0  0  0  0  0
   35.4920   27.0980   38.1180 N   0  0  0  0  0  0  0  0  0  0  0  0
   36.4610   27.2550   39.0500 C   0  0  0  0  0  0  0  0  0  0  0  0
   37.2990   28.3100   39.0390 N   0  0  0  0  0  0  0  0  0  0  0  0
   36.1110   29.8470   36.3520 H   0  0  0  0  0  0  0  0  0  0  0  0
   34.5690   27.9150   36.3660 H   0  0  0  0  0  0  0  0  0  0  0  0
   37.6700   31.5900   38.7450 C   0  0  1  0  0  0  0  0  0  0  0  0
   37.6890   31.6320   37.1790 C   0  0  0  0  0  0  0  0  0  0  0  0
   38.1270   30.4390   38.0250 C   0  0  2  0  0  0  0  0  0  0  0  0
   36.6080   31.6370   39.1310 H   0  0  0  0  0  0  0  0  0  0  0  0
   36.7370   31.5010   36.6670 H   0  0  0  0  0  0  0  0  0  0  0  0
   38.4660   32.2410   36.7120 H   0  0  0  0  0  0  0  0  0  0  0  0
   39.1530   30.1250   37.8410 H   0  0  0  0  0  0  0  0  0  0  0  0
   38.5520   32.5890   39.3800 C   0  0  0  0  0  0  0  0  0  0  0  0
   37.9490   33.7680   39.8690 C   0  0  0  0  0  0  0  0  0  0  0  0
   38.7580   34.7240   40.4760 C   0  0  0  0  0  0  0  0  0  0  0  0
   40.0900   34.4670   40.5620 N   0  0  0  0  0  0  0  0  0  0  0  0
   40.6320   33.3320   40.0850 C   0  0  0  0  0  0  0  0  0  0  0  0
   39.8380   32.4270   39.5070 N   0  0  0  0  0  0  0  0  0  0  0  0
   36.8780   33.9310   39.7790 H   0  0  0  0  0  0  0  0  0  0  0  0
   38.3390   35.6530   40.8700 H   0  0  0  0  0  0  0  0  0  0  0  0
   42.1090   33.2480   40.2870 C   0  0  0  0  0  0  0  0  0  0  0  0
   42.7810   34.0800   39.4050 F   0  0  0  0  0  0  0  0  0  0  0  0
   42.5470   31.9420   39.9800 F   0  0  0  0  0  0  0  0  0  0  0  0
   42.4190   33.4750   41.5990 F   0  0  0  0  0  0  0  0  0  0  0  0
   36.6510   26.2680   40.1260 C   0  0  0  0  0  0  0  0  0  0  0  0
   35.6620   25.7630   40.3380 H   0  0  0  0  0  0  0  0  0  0  0  0
   37.3220   25.4290   39.8580 H   0  0  0  0  0  0  0  0  0  0  0  0
   37.0440   26.9100   41.4300 C   0  0  0  0  0  0  0  0  0  0  0  0
   37.3070   27.9600   41.1870 H   0  0  0  0  0  0  0  0  0  0  0  0
   36.1110   27.0050   42.0710 H   0  0  0  0  0  0  0  0  0  0  0  0
   38.1240   26.2770   42.1620 C   0  0  0  0  0  0  0  0  0  0  0  0
   38.7060   25.0320   42.1080 C   0  0  0  0  0  3  0  0  0  0  0  0
   39.7310   24.5720   42.9010 C   0  0  0  0  0  0  0  0  0  0  0  0
   40.0850   23.5640   42.7410 H   0  0  0  0  0  0  0  0  0  0  0  0
   40.2030   25.4280   43.8160 N   0  0  0  0  0  0  0  0  0  0  0  0
   39.6700   26.6770   43.9200 C   0  0  0  0  0  3  0  0  0  0  0  0
   38.6820   27.0630   43.1260 N   0  0  0  0  0  0  0  0  0  0  0  0
  1  6  1  0  0  0  0
  2  3  1  0  0  0  0
  2  1  2  0  0  0  0
  3  4  2  0  0  0  0
  4  5  1  0  0  0  0
  5 28  1  0  0  0  0
  6  5  2  0  0  0  0
  7  2  1  0  0  0  0
  8  3  1  0  0  0  0
  9 12  1  1  0  0  0
  9 16  1  0  0  0  0
 10 11  1  0  0  0  0
 10  9  1  0  0  0  0
 11 15  1  1  0  0  0
 11  1  1  0  0  0  0
 11  9  1  0  0  0  0
 13 10  1  0  0  0  0
 14 10  1  0  0  0  0
 16 21  2  0  0  0  0
 16 17  1  0  0  0  0
 17 18  2  0  0  0  0
 18 19  1  0  0  0  0
 18 23  1  0  0  0  0
 20 24  1  0  0  0  0
 20 19  2  0  0  0  0
 21 20  1  0  0  0  0
 22 17  1  0  0  0  0
 24 27  1  0  0  0  0
 25 24  1  0  0  0  0
 26 24  1  0  0  0  0
 28 29  1  0  0  0  0
 28 31  1  0  0  0  0
 30 28  1  0  0  0  0
 31 33  1  0  0  0  0
 31 34  1  0  0  0  0
 32 31  1  0  0  0  0
 34 40  1  0  0  0  0
 35 34  2  0  0  0  0
 35 36  1  0  0  0  0
 36 38  2  0  0  0  0
 37 36  1  0  0  0  0
 38 39  1  0  0  0  0
 40 39  2  0  0  0  0
M  END
>  <minimizedAffinity>
-5.5488596

$$$$
