
 OpenBabel03242517513D

 17 18  0  0  0  0  0  0  0  0999 V2000
   39.0250   28.7780   42.9540 C   0  0  0  0  0  0  0  0  0  0  0  0
   38.6050   27.4250   43.0750 C   0  0  0  0  0  0  0  0  0  0  0  0
   37.3050   27.1200   42.6430 C   0  0  0  0  0  0  0  0  0  0  0  0
   36.5460   28.1400   42.1430 N   0  0  0  0  0  0  0  0  0  0  0  0
   36.9830   29.4010   42.0480 C   0  0  0  0  0  0  0  0  0  0  0  0
   38.2190   29.7180   42.4530 N   0  0  0  0  0  0  0  0  0  0  0  0
   40.0440   28.9990   43.2970 H   0  0  0  0  0  0  0  0  0  0  0  0
   39.2320   26.6410   43.4760 H   0  0  0  0  0  0  0  0  0  0  0  0
   36.8910   26.1400   42.6890 H   0  0  0  0  0  0  0  0  0  0  0  0
   36.1940   30.4280   41.5350 O   0  0  0  0  0  0  0  0  0  0  0  0
   36.6630   31.0700   40.4020 C   0  0  0  0  0  0  0  0  0  0  0  0
   36.5520   30.2840   39.2490 C   0  0  0  0  0  3  0  0  0  0  0  0
   36.9640   30.7480   38.0360 C   0  0  0  0  0  0  0  0  0  0  0  0
   36.9080   30.1950   37.0990 H   0  0  0  0  0  0  0  0  0  0  0  0
   37.4890   32.0070   37.9700 N   0  0  0  0  0  0  0  0  0  0  0  0
   37.5960   32.7700   39.0980 C   0  0  0  0  0  3  0  0  0  0  0  0
   37.1880   32.3040   40.2930 N   0  0  0  0  0  0  0  0  0  0  0  0
  1  2  1  0  0  0  0
  1  7  1  0  0  0  0
  2  8  1  0  0  0  0
  3  9  1  0  0  0  0
  3  2  2  0  0  0  0
  4  3  1  0  0  0  0
  5  4  2  0  0  0  0
  5  6  1  0  0  0  0
  6  1  2  0  0  0  0
 10  5  1  0  0  0  0
 11 10  1  0  0  0  0
 12 11  2  0  0  0  0
 13 12  1  0  0  0  0
 14 13  1  0  0  0  0
 15 13  2  0  0  0  0
 15 16  1  0  0  0  0
 16 17  2  0  0  0  0
 17 11  1  0  0  0  0
M  END
>  <minimizedAffinity>
-3.90978646

$$$$

 OpenBabel03242517513D

 17 18  0  0  0  0  0  0  0  0999 V2000
   37.0980   30.6320   38.0190 C   0  0  0  0  0  0  0  0  0  0  0  0
   37.5100   31.9920   37.9770 C   0  0  0  0  0  0  0  0  0  0  0  0
   37.4560   32.7120   39.1810 C   0  0  0  0  0  0  0  0  0  0  0  0
   37.0150   32.0540   40.2940 N   0  0  0  0  0  0  0  0  0  0  0  0
   36.6370   30.7710   40.2870 C   0  0  0  0  0  0  0  0  0  0  0  0
   36.6790   30.0630   39.1520 N   0  0  0  0  0  0  0  0  0  0  0  0
   37.1460   30.0840   37.0690 H   0  0  0  0  0  0  0  0  0  0  0  0
   37.8540   32.4820   37.0770 H   0  0  0  0  0  0  0  0  0  0  0  0
   37.7410   33.7340   39.2610 H   0  0  0  0  0  0  0  0  0  0  0  0
   36.1900   30.1180   41.4340 O   0  0  0  0  0  0  0  0  0  0  0  0
   37.0800   29.2540   42.0480 C   0  0  0  0  0  0  0  0  0  0  0  0
   36.5600   27.9650   42.2110 C   0  0  0  0  0  3  0  0  0  0  0  0
   37.2920   26.9770   42.7980 C   0  0  0  0  0  0  0  0  0  0  0  0
   36.9540   25.9540   42.9570 H   0  0  0  0  0  0  0  0  0  0  0  0
   38.5540   27.2760   43.2250 N   0  0  0  0  0  0  0  0  0  0  0  0
   39.0580   28.5350   43.0650 C   0  0  0  0  0  3  0  0  0  0  0  0
   38.3280   29.5060   42.4850 N   0  0  0  0  0  0  0  0  0  0  0  0
  1  6  1  0  0  0  0
  2  1  2  0  0  0  0
  2  3  1  0  0  0  0
  3  9  1  0  0  0  0
  3  4  2  0  0  0  0
  5  4  1  0  0  0  0
  5 10  1  0  0  0  0
  6  5  2  0  0  0  0
  7  1  1  0  0  0  0
  8  2  1  0  0  0  0
 10 11  1  0  0  0  0
 11 12  2  0  0  0  0
 11 17  1  0  0  0  0
 12 13  1  0  0  0  0
 13 14  1  0  0  0  0
 13 15  2  0  0  0  0
 16 15  1  0  0  0  0
 17 16  2  0  0  0  0
M  END
>  <minimizedAffinity>
-3.85761404

$$$$

 OpenBabel03242517513D

 17 18  0  0  0  0  0  0  0  0999 V2000
   37.0040   27.1660   42.4090 C   0  0  0  0  0  0  0  0  0  0  0  0
   38.1390   27.5070   43.1940 C   0  0  0  0  0  0  0  0  0  0  0  0
   38.5240   28.8570   43.2040 C   0  0  0  0  0  0  0  0  0  0  0  0
   37.7830   29.7340   42.4630 N   0  0  0  0  0  0  0  0  0  0  0  0
   36.7210   29.3680   41.7380 C   0  0  0  0  0  0  0  0  0  0  0  0
   36.3330   28.0860   41.7120 N   0  0  0  0  0  0  0  0  0  0  0  0
   36.7160   26.1060   42.4120 H   0  0  0  0  0  0  0  0  0  0  0  0
   38.7030   26.7860   43.7690 H   0  0  0  0  0  0  0  0  0  0  0  0
   39.3580   29.2200   43.7570 H   0  0  0  0  0  0  0  0  0  0  0  0
   35.9770   30.2770   40.9890 O   0  0  0  0  0  0  0  0  0  0  0  0
   36.4760   30.6170   39.7440 C   0  0  0  0  0  0  0  0  0  0  0  0
   37.0040   31.9130   39.7060 C   0  0  0  0  0  3  0  0  0  0  0  0
   37.5410   32.4250   38.5630 C   0  0  0  0  0  0  0  0  0  0  0  0
   37.9690   33.4210   38.4610 H   0  0  0  0  0  0  0  0  0  0  0  0
   37.5530   31.6380   37.4470 N   0  0  0  0  0  0  0  0  0  0  0  0
   37.0370   30.3740   37.4880 C   0  0  0  0  0  3  0  0  0  0  0  0
   36.5070   29.8760   38.6210 N   0  0  0  0  0  0  0  0  0  0  0  0
  1  7  1  0  0  0  0
  1  2  1  0  0  0  0
  2  3  2  0  0  0  0
  2  8  1  0  0  0  0
  3  9  1  0  0  0  0
  4  3  1  0  0  0  0
  5  4  2  0  0  0  0
  6  5  1  0  0  0  0
  6  1  2  0  0  0  0
 10  5  1  0  0  0  0
 11 10  1  0  0  0  0
 12 11  1  0  0  0  0
 13 12  2  0  0  0  0
 14 13  1  0  0  0  0
 15 16  2  0  0  0  0
 15 13  1  0  0  0  0
 16 17  1  0  0  0  0
 17 11  2  0  0  0  0
M  END
>  <minimizedAffinity>
-3.837605

$$$$

 OpenBabel03242517513D

 17 18  0  0  0  0  0  0  0  0999 V2000
   39.8150   25.3460   43.2770 C   0  0  0  0  0  0  0  0  0  0  0  0
   38.9520   24.5190   42.5070 C   0  0  0  0  0  0  0  0  0  0  0  0
   37.7090   25.0610   42.1410 C   0  0  0  0  0  0  0  0  0  0  0  0
   37.4270   26.3330   42.5490 N   0  0  0  0  0  0  0  0  0  0  0  0
   38.2700   27.0760   43.2730 C   0  0  0  0  0  0  0  0  0  0  0  0
   39.4610   26.5820   43.6360 N   0  0  0  0  0  0  0  0  0  0  0  0
   40.7820   24.9070   43.5550 H   0  0  0  0  0  0  0  0  0  0  0  0
   39.2080   23.5140   42.2010 H   0  0  0  0  0  0  0  0  0  0  0  0
   36.9890   24.5280   41.5660 H   0  0  0  0  0  0  0  0  0  0  0  0
   37.9640   28.3730   43.6800 O   0  0  0  0  0  0  0  0  0  0  0  0
   37.9590   29.3500   42.7000 C   0  0  0  0  0  0  0  0  0  0  0  0
   39.1810   30.0260   42.6020 C   0  0  0  0  0  3  0  0  0  0  0  0
   39.3660   31.0240   41.6920 C   0  0  0  0  0  0  0  0  0  0  0  0
   40.2860   31.5900   41.5590 H   0  0  0  0  0  0  0  0  0  0  0  0
   38.3240   31.3510   40.8720 N   0  0  0  0  0  0  0  0  0  0  0  0
   37.1330   30.6900   40.9720 C   0  0  0  0  0  3  0  0  0  0  0  0
   36.9580   29.7060   41.8740 N   0  0  0  0  0  0  0  0  0  0  0  0
  1  7  1  0  0  0  0
  1  6  1  0  0  0  0
  2  1  2  0  0  0  0
  3  2  1  0  0  0  0
  3  4  2  0  0  0  0
  4  5  1  0  0  0  0
  5  6  2  0  0  0  0
  5 10  1  0  0  0  0
  8  2  1  0  0  0  0
  9  3  1  0  0  0  0
 11 10  1  0  0  0  0
 12 11  1  0  0  0  0
 13 12  2  0  0  0  0
 14 13  1  0  0  0  0
 15 16  2  0  0  0  0
 15 13  1  0  0  0  0
 16 17  1  0  0  0  0
 17 11  2  0  0  0  0
M  END
>  <minimizedAffinity>
-3.80718899

$$$$

 OpenBabel03242517513D

 17 18  0  0  0  0  0  0  0  0999 V2000
   36.8760   29.3360   38.9530 C   0  0  0  0  0  0  0  0  0  0  0  0
   36.8880   30.7420   39.1640 C   0  0  0  0  0  0  0  0  0  0  0  0
   36.6620   31.1920   40.4740 C   0  0  0  0  0  0  0  0  0  0  0  0
   36.4500   30.2510   41.4410 N   0  0  0  0  0  0  0  0  0  0  0  0
   36.4470   28.9350   41.1970 C   0  0  0  0  0  0  0  0  0  0  0  0
   36.6600   28.4810   39.9550 N   0  0  0  0  0  0  0  0  0  0  0  0
   37.0530   29.0010   37.9230 H   0  0  0  0  0  0  0  0  0  0  0  0
   37.0590   31.4600   38.3750 H   0  0  0  0  0  0  0  0  0  0  0  0
   36.6500   32.2230   40.7410 H   0  0  0  0  0  0  0  0  0  0  0  0
   36.2290   27.9900   42.1970 O   0  0  0  0  0  0  0  0  0  0  0  0
   37.2750   27.1320   42.4850 C   0  0  0  0  0  0  0  0  0  0  0  0
   38.2550   27.7230   43.2910 C   0  0  0  0  0  3  0  0  0  0  0  0
   39.3630   27.0310   43.6790 C   0  0  0  0  0  0  0  0  0  0  0  0
   40.1630   27.4240   44.3050 H   0  0  0  0  0  0  0  0  0  0  0  0
   39.4960   25.7380   43.2600 N   0  0  0  0  0  0  0  0  0  0  0  0
   38.5380   25.1650   42.4730 C   0  0  0  0  0  3  0  0  0  0  0  0
   37.4460   25.8560   42.0940 N   0  0  0  0  0  0  0  0  0  0  0  0
  1  2  2  0  0  0  0
  1  6  1  0  0  0  0
  2  3  1  0  0  0  0
  3  9  1  0  0  0  0
  3  4  2  0  0  0  0
  5  4  1  0  0  0  0
  5 10  1  0  0  0  0
  6  5  2  0  0  0  0
  7  1  1  0  0  0  0
  8  2  1  0  0  0  0
 10 11  1  0  0  0  0
 11 12  1  0  0  0  0
 12 13  2  0  0  0  0
 13 14  1  0  0  0  0
 15 13  1  0  0  0  0
 16 15  2  0  0  0  0
 17 16  1  0  0  0  0
 17 11  2  0  0  0  0
M  END
>  <minimizedAffinity>
-3.72685361

$$$$

 OpenBabel03242517513D

 17 18  0  0  0  0  0  0  0  0999 V2000
   39.9010   26.2860   43.6750 C   0  0  0  0  0  0  0  0  0  0  0  0
   39.7930   25.0880   42.9180 C   0  0  0  0  0  0  0  0  0  0  0  0
   38.6190   24.9110   42.1680 C   0  0  0  0  0  0  0  0  0  0  0  0
   37.6770   25.8990   42.2220 N   0  0  0  0  0  0  0  0  0  0  0  0
   37.8210   27.0120   42.9490 C   0  0  0  0  0  0  0  0  0  0  0  0
   38.9310   27.2040   43.6740 N   0  0  0  0  0  0  0  0  0  0  0  0
   40.8240   26.4080   44.2560 H   0  0  0  0  0  0  0  0  0  0  0  0
   40.5590   24.3260   42.8980 H   0  0  0  0  0  0  0  0  0  0  0  0
   38.4370   24.0520   41.5670 H   0  0  0  0  0  0  0  0  0  0  0  0
   36.8480   28.0080   42.9910 O   0  0  0  0  0  0  0  0  0  0  0  0
   36.8580   28.9350   41.9640 C   0  0  0  0  0  0  0  0  0  0  0  0
   35.7890   28.7720   41.0760 C   0  0  0  0  0  3  0  0  0  0  0  0
   35.6320   29.5930   40.0000 C   0  0  0  0  0  0  0  0  0  0  0  0
   34.8270   29.5250   39.2690 H   0  0  0  0  0  0  0  0  0  0  0  0
   36.5490   30.5870   39.8070 N   0  0  0  0  0  0  0  0  0  0  0  0
   37.5900   30.7430   40.6770 C   0  0  0  0  0  3  0  0  0  0  0  0
   37.7390   29.9270   41.7370 N   0  0  0  0  0  0  0  0  0  0  0  0
  1  7  1  0  0  0  0
  2  1  2  0  0  0  0
  3  4  2  0  0  0  0
  3  2  1  0  0  0  0
  4  5  1  0  0  0  0
  5 10  1  0  0  0  0
  5  6  2  0  0  0  0
  6  1  1  0  0  0  0
  8  2  1  0  0  0  0
  9  3  1  0  0  0  0
 11 10  1  0  0  0  0
 12 11  2  0  0  0  0
 13 12  1  0  0  0  0
 14 13  1  0  0  0  0
 15 13  2  0  0  0  0
 15 16  1  0  0  0  0
 16 17  2  0  0  0  0
 17 11  1  0  0  0  0
M  END
>  <minimizedAffinity>
-3.67340755

$$$$

 OpenBabel03242517513D

 17 18  0  0  0  0  0  0  0  0999 V2000
   38.4580   30.8370   38.4910 C   0  0  0  0  0  0  0  0  0  0  0  0
   37.5150   31.8850   38.3100 C   0  0  0  0  0  0  0  0  0  0  0  0
   37.1810   32.6450   39.4420 C   0  0  0  0  0  0  0  0  0  0  0  0
   37.7840   32.3200   40.6240 N   0  0  0  0  0  0  0  0  0  0  0  0
   38.6670   31.3230   40.7490 C   0  0  0  0  0  0  0  0  0  0  0  0
   39.0020   30.5840   39.6830 N   0  0  0  0  0  0  0  0  0  0  0  0
   38.7080   30.2530   37.5950 H   0  0  0  0  0  0  0  0  0  0  0  0
   37.0570   32.1150   37.3580 H   0  0  0  0  0  0  0  0  0  0  0  0
   36.4870   33.4520   39.4170 H   0  0  0  0  0  0  0  0  0  0  0  0
   39.2720   31.0080   41.9640 O   0  0  0  0  0  0  0  0  0  0  0  0
   38.9300   29.7950   42.5360 C   0  0  0  0  0  0  0  0  0  0  0  0
   40.0290   28.9460   42.7050 C   0  0  0  0  0  3  0  0  0  0  0  0
   39.8880   27.7070   43.2540 C   0  0  0  0  0  0  0  0  0  0  0  0
   40.6960   26.9950   43.4160 H   0  0  0  0  0  0  0  0  0  0  0  0
   38.6390   27.3100   43.6380 N   0  0  0  0  0  0  0  0  0  0  0  0
   37.5680   28.1420   43.4710 C   0  0  0  0  0  3  0  0  0  0  0  0
   37.7160   29.3640   42.9280 N   0  0  0  0  0  0  0  0  0  0  0  0
  1  6  1  0  0  0  0
  2  1  2  0  0  0  0
  2  3  1  0  0  0  0
  3  4  2  0  0  0  0
  4  5  1  0  0  0  0
  5 10  1  0  0  0  0
  6  5  2  0  0  0  0
  7  1  1  0  0  0  0
  8  2  1  0  0  0  0
  9  3  1  0  0  0  0
 10 11  1  0  0  0  0
 11 12  2  0  0  0  0
 11 17  1  0  0  0  0
 12 13  1  0  0  0  0
 13 14  1  0  0  0  0
 13 15  2  0  0  0  0
 16 15  1  0  0  0  0
 17 16  2  0  0  0  0
M  END
>  <minimizedAffinity>
-3.66980004

$$$$

 OpenBabel03242517513D

 17 18  0  0  0  0  0  0  0  0999 V2000
   38.3930   24.6360   42.2680 C   0  0  0  0  0  0  0  0  0  0  0  0
   39.6080   24.8800   42.9650 C   0  0  0  0  0  0  0  0  0  0  0  0
   39.7350   26.1210   43.6090 C   0  0  0  0  0  0  0  0  0  0  0  0
   38.6880   26.9940   43.5180 N   0  0  0  0  0  0  0  0  0  0  0  0
   37.5620   26.7220   42.8490 C   0  0  0  0  0  0  0  0  0  0  0  0
   37.4160   25.5450   42.2270 N   0  0  0  0  0  0  0  0  0  0  0  0
   38.3100   23.6620   41.7700 H   0  0  0  0  0  0  0  0  0  0  0  0
   40.4170   24.1660   43.0170 H   0  0  0  0  0  0  0  0  0  0  0  0
   40.6020   26.4050   44.1580 H   0  0  0  0  0  0  0  0  0  0  0  0
   36.5050   27.6260   42.7680 O   0  0  0  0  0  0  0  0  0  0  0  0
   36.4690   28.4470   41.6550 C   0  0  0  0  0  0  0  0  0  0  0  0
   37.0450   29.7010   41.8870 C   0  0  0  0  0  3  0  0  0  0  0  0
   37.1020   30.6460   40.9070 C   0  0  0  0  0  0  0  0  0  0  0  0
   37.5350   31.6390   41.0150 H   0  0  0  0  0  0  0  0  0  0  0  0
   36.5790   30.3370   39.6830 N   0  0  0  0  0  0  0  0  0  0  0  0
   36.0170   29.1130   39.4610 C   0  0  0  0  0  3  0  0  0  0  0  0
   35.9650   28.1850   40.4350 N   0  0  0  0  0  0  0  0  0  0  0  0
  1  2  1  0  0  0  0
  2  8  1  0  0  0  0
  2  3  2  0  0  0  0
  3  9  1  0  0  0  0
  4  3  1  0  0  0  0
  5  4  2  0  0  0  0
  6  1  2  0  0  0  0
  6  5  1  0  0  0  0
  7  1  1  0  0  0  0
 10  5  1  0  0  0  0
 11 12  1  0  0  0  0
 11 10  1  0  0  0  0
 13 14  1  0  0  0  0
 13 12  2  0  0  0  0
 15 13  1  0  0  0  0
 16 15  2  0  0  0  0
 16 17  1  0  0  0  0
 17 11  2  0  0  0  0
M  END
>  <minimizedAffinity>
-3.6078701

$$$$

 OpenBabel03242517513D

 17 18  0  0  0  0  0  0  0  0999 V2000
   36.1830   29.8850   38.4100 C   0  0  0  0  0  0  0  0  0  0  0  0
   35.5810   28.9440   39.2890 C   0  0  0  0  0  0  0  0  0  0  0  0
   35.5600   29.2700   40.6540 C   0  0  0  0  0  0  0  0  0  0  0  0
   36.1150   30.4600   41.0310 N   0  0  0  0  0  0  0  0  0  0  0  0
   36.6720   31.3160   40.1680 C   0  0  0  0  0  0  0  0  0  0  0  0
   36.7050   31.0280   38.8610 N   0  0  0  0  0  0  0  0  0  0  0  0
   36.1920   29.6140   37.3460 H   0  0  0  0  0  0  0  0  0  0  0  0
   35.1500   28.0100   38.9560 H   0  0  0  0  0  0  0  0  0  0  0  0
   35.1340   28.6370   41.3970 H   0  0  0  0  0  0  0  0  0  0  0  0
   37.2340   32.5260   40.5720 O   0  0  0  0  0  0  0  0  0  0  0  0
   38.6140   32.5800   40.6470 C   0  0  0  0  0  0  0  0  0  0  0  0
   39.1510   33.6830   39.9720 C   0  0  0  0  0  3  0  0  0  0  0  0
   40.4950   33.9030   39.9350 C   0  0  0  0  0  0  0  0  0  0  0  0
   40.9820   34.7380   39.4310 H   0  0  0  0  0  0  0  0  0  0  0  0
   41.3120   33.0170   40.5770 N   0  0  0  0  0  0  0  0  0  0  0  0
   40.7850   31.9430   41.2340 C   0  0  0  0  0  3  0  0  0  0  0  0
   39.4560   31.7310   41.2650 N   0  0  0  0  0  0  0  0  0  0  0  0
  1  6  2  0  0  0  0
  1  2  1  0  0  0  0
  2  3  2  0  0  0  0
  3  4  1  0  0  0  0
  3  9  1  0  0  0  0
  5 10  1  0  0  0  0
  5  4  2  0  0  0  0
  6  5  1  0  0  0  0
  7  1  1  0  0  0  0
  8  2  1  0  0  0  0
 10 11  1  0  0  0  0
 11 17  1  0  0  0  0
 12 11  2  0  0  0  0
 13 12  1  0  0  0  0
 13 15  2  0  0  0  0
 14 13  1  0  0  0  0
 15 16  1  0  0  0  0
 16 17  2  0  0  0  0
M  END
>  <minimizedAffinity>
-3.55797434

$$$$
