
 OpenBabel03242513383D

 32 35  0  0  0  0  0  0  0  0999 V2000
   47.8050   31.2960   46.2110 C   0  0  0  0  0  0  0  0  0  0  0  0
   46.9520   32.1930   45.6210 C   0  0  0  0  0  0  0  0  0  0  0  0
   45.8060   32.5590   46.3080 C   0  0  0  0  0  0  0  0  0  0  0  0
   45.5170   32.0460   47.5510 C   0  0  0  0  0  0  0  0  0  0  0  0
   44.5230   32.1830   48.4650 N   0  0  0  0  0  0  0  0  0  0  0  0
   44.7620   31.4140   49.5460 C   0  0  0  0  0  0  0  0  0  0  0  0
   45.9220   30.7850   49.3050 N   0  0  0  0  0  0  0  0  0  0  0  0
   46.4080   31.1510   48.0950 C   0  0  0  0  0  0  0  0  0  0  0  0
   47.5450   30.7620   47.4570 C   0  0  0  0  0  0  0  0  0  0  0  0
   48.6890   31.0230   45.6640 H   0  0  0  0  0  0  0  0  0  0  0  0
   45.1050   33.2580   45.8900 H   0  0  0  0  0  0  0  0  0  0  0  0
   43.7030   32.8080   48.3160 H   0  0  0  0  0  0  0  0  0  0  0  0
   44.1620   31.3030   50.4410 H   0  0  0  0  0  0  0  0  0  0  0  0
   47.0560   34.4310   42.7260 C   0  0  0  0  0  0  0  0  0  0  0  0
   47.8420   33.7260   41.8190 C   0  0  0  0  0  0  0  0  0  0  0  0
   48.3220   32.4910   42.2200 C   0  0  0  0  0  0  0  0  0  0  0  0
   48.0100   32.0330   43.4560 N   0  0  0  0  0  0  0  0  0  0  0  0
   47.2500   32.7410   44.3050 C   0  0  0  0  0  0  0  0  0  0  0  0
   46.7670   33.9400   43.9540 N   0  0  0  0  0  0  0  0  0  0  0  0
   46.6140   35.4140   42.5410 H   0  0  0  0  0  0  0  0  0  0  0  0
   48.9250   31.9560   41.5140 H   0  0  0  0  0  0  0  0  0  0  0  0
   48.0940   34.3660   40.4930 C   0  0  0  0  0  0  0  0  0  0  0  0
   48.6100   35.6260   40.7840 F   0  0  0  0  0  0  0  0  0  0  0  0
   46.9110   34.4720   39.8250 F   0  0  0  0  0  0  0  0  0  0  0  0
   48.9900   33.5680   39.8110 F   0  0  0  0  0  0  0  0  0  0  0  0
   48.4370   29.8070   48.1050 C   0  0  0  0  0  0  0  0  0  0  0  0
   49.3120   30.1180   49.1230 C   0  0  0  0  0  0  0  0  0  0  0  0
   50.1280   29.1610   49.6910 C   0  0  0  0  0  0  0  0  0  0  0  0
   50.7860   29.4630   50.4760 H   0  0  0  0  0  0  0  0  0  0  0  0
   50.1020   27.8900   49.2770 N   0  0  0  0  0  0  0  0  0  0  0  0
   49.2490   27.5790   48.2820 C   0  0  0  0  0  0  0  0  0  0  0  0
   48.4550   28.5160   47.7310 N   0  0  0  0  0  0  0  0  0  0  0  0
  1  9  1  0  0  0  0
  2  1  2  0  0  0  0
  2  3  1  0  0  0  0
  3  4  2  0  0  0  0
  4  8  1  0  0  0  0
  4  5  1  0  0  0  0
  5  6  1  0  0  0  0
  6 13  1  0  0  0  0
  7  6  2  0  0  0  0
  8  7  1  0  0  0  0
  9  8  2  0  0  0  0
  9 26  1  0  0  0  0
 10  1  1  0  0  0  0
 11  3  1  0  0  0  0
 12  5  1  0  0  0  0
 14 19  1  0  0  0  0
 15 16  1  0  0  0  0
 15 14  2  0  0  0  0
 16 17  2  0  0  0  0
 17 18  1  0  0  0  0
 18  2  1  0  0  0  0
 19 18  2  0  0  0  0
 20 14  1  0  0  0  0
 21 16  1  0  0  0  0
 22 23  1  0  0  0  0
 22 15  1  0  0  0  0
 24 22  1  0  0  0  0
 25 22  1  0  0  0  0
 26 27  1  0  0  0  0
 27 28  2  0  0  0  0
 28 29  1  0  0  0  0
 30 28  1  0  0  0  0
 31 30  2  0  0  0  0
 32 26  2  0  0  0  0
 32 31  1  0  0  0  0
M  END
>  <minimizedAffinity>
-5.81281328

>  <minimizedRMSD>
0.766663313

$$$$
