
 OpenBabel03242516573D

 26 28  0  0  0  0  0  0  0  0999 V2000
   46.6660   34.7910   42.0450 C   0  0  0  0  0  0  0  0  0  0  0  0
   47.9630   35.2580   42.0110 C   0  0  0  0  0  0  0  0  0  0  0  0
   48.7210   35.1200   40.8710 C   0  0  0  0  0  0  0  0  0  0  0  0
   48.1560   34.5100   39.7800 C   0  0  0  0  0  0  0  0  0  0  0  0
   46.8700   34.0300   39.7650 C   0  0  0  0  0  0  0  0  0  0  0  0
   46.1180   34.1840   40.9420 C   0  0  0  0  0  0  0  0  0  0  0  0
   48.4100   35.7410   42.8790 H   0  0  0  0  0  0  0  0  0  0  0  0
   49.7340   35.4880   40.8540 H   0  0  0  0  0  0  0  0  0  0  0  0
   48.7870   34.4130   38.8880 H   0  0  0  0  0  0  0  0  0  0  0  0
   46.4350   33.5570   38.9160 H   0  0  0  0  0  0  0  0  0  0  0  0
   44.4580   36.1410   44.8040 C   0  0  0  0  0  0  0  0  0  0  0  0
   45.1140   36.0560   43.5610 C   0  0  0  0  0  0  0  0  0  0  0  0
   45.9410   34.9800   43.2910 C   0  0  0  0  0  0  0  0  0  0  0  0
   46.0660   34.0460   44.2760 N   0  0  0  0  0  0  0  0  0  0  0  0
   45.4360   34.1260   45.4680 C   0  0  0  0  0  0  0  0  0  0  0  0
   44.6250   35.1830   45.7360 N   0  0  0  0  0  0  0  0  0  0  0  0
   43.8130   36.9760   45.0260 H   0  0  0  0  0  0  0  0  0  0  0  0
   44.9950   36.8110   42.8040 H   0  0  0  0  0  0  0  0  0  0  0  0
   45.6640   33.2830   46.1170 H   0  0  0  0  0  0  0  0  0  0  0  0
   44.7430   33.6920   40.9740 C   0  0  0  0  0  0  0  0  0  0  0  0
   43.6770   34.4110   40.4930 C   0  0  0  0  0  0  0  0  0  0  0  0
   42.3790   33.9570   40.5220 C   0  0  0  0  0  0  0  0  0  0  0  0
   41.5600   34.5600   40.1290 H   0  0  0  0  0  0  0  0  0  0  0  0
   42.1220   32.7440   41.0490 N   0  0  0  0  0  0  0  0  0  0  0  0
   43.1570   32.0110   41.5320 C   0  0  0  0  0  0  0  0  0  0  0  0
   44.4150   32.4720   41.4940 N   0  0  0  0  0  0  0  0  0  0  0  0
  1 13  1  0  0  0  0
  2  1  1  0  0  0  0
  2  7  1  0  0  0  0
  3  2  2  0  0  0  0
  4  3  1  0  0  0  0
  5  4  2  0  0  0  0
  5  6  1  0  0  0  0
  6 20  1  0  0  0  0
  6  1  2  0  0  0  0
  8  3  1  0  0  0  0
  9  4  1  0  0  0  0
 10  5  1  0  0  0  0
 11 17  1  0  0  0  0
 11 16  1  0  0  0  0
 12 11  2  0  0  0  0
 13 12  1  0  0  0  0
 13 14  2  0  0  0  0
 14 15  1  0  0  0  0
 15 16  2  0  0  0  0
 15 19  1  0  0  0  0
 18 12  1  0  0  0  0
 20 26  1  0  0  0  0
 21 22  1  0  0  0  0
 21 20  2  0  0  0  0
 22 24  2  0  0  0  0
 23 22  1  0  0  0  0
 24 25  1  0  0  0  0
 26 25  2  0  0  0  0
M  END
>  <minimizedAffinity>
-5.72054338

>  <minimizedRMSD>
0.710853159

$$$$
