
 OpenBabel03252504123D

 23 24  0  0  0  0  0  0  0  0999 V2000
   38.1010   29.4030   42.3320 C   0  0  0  0  0  0  0  0  0  0  0  0
   38.4170   28.0810   42.6650 C   0  0  0  0  0  0  0  0  0  0  0  0
   39.7640   27.7680   42.9030 C   0  0  0  0  0  0  0  0  0  0  0  0
   40.6890   28.7560   42.7990 N   0  0  0  0  0  0  0  0  0  0  0  0
   40.3410   30.0150   42.4770 C   0  0  0  0  0  0  0  0  0  0  0  0
   39.0670   30.3360   42.2460 N   0  0  0  0  0  0  0  0  0  0  0  0
   39.9890   26.7460   43.1590 H   0  0  0  0  0  0  0  0  0  0  0  0
   41.3830   31.0370   42.3800 C   0  0  0  0  0  0  0  0  0  0  0  0
   42.4480   31.0250   43.2590 C   0  0  0  0  0  3  0  0  0  0  0  0
   43.3760   32.0290   43.0880 C   0  0  0  0  0  0  0  0  0  0  0  0
   44.2270   32.0410   43.7720 H   0  0  0  0  0  0  0  0  0  0  0  0
   43.2830   32.9830   42.1290 N   0  0  0  0  0  0  0  0  0  0  0  0
   42.2300   32.9670   41.2840 C   0  0  0  0  0  3  0  0  0  0  0  0
   41.3170   31.9960   41.4380 N   0  0  0  0  0  0  0  0  0  0  0  0
   37.3290   27.0760   42.7520 C   0  0  0  0  0  0  0  0  0  0  0  0
   36.7010   26.9530   41.5260 F   0  0  0  0  0  0  0  0  0  0  0  0
   37.9080   25.8430   43.0210 F   0  0  0  0  0  0  0  0  0  0  0  0
   36.3810   27.3430   43.6790 F   0  0  0  0  0  0  0  0  0  0  0  0
   36.8090   29.6990   42.1040 O   0  0  0  0  0  0  0  0  0  0  0  0
   36.2250   30.1230   40.9020 C   0  0  0  0  0  0  0  0  0  0  0  0
   35.0090   29.4260   40.7740 F   0  0  0  0  0  0  0  0  0  0  0  0
   36.0480   31.4850   40.9180 F   0  0  0  0  0  0  0  0  0  0  0  0
   36.9790   29.7070   39.8250 F   0  0  0  0  0  0  0  0  0  0  0  0
  1  2  1  0  0  0  0
  2 15  1  0  0  0  0
  2  3  2  0  0  0  0
  3  7  1  0  0  0  0
  4  3  1  0  0  0  0
  5  4  2  0  0  0  0
  6  1  2  0  0  0  0
  6  5  1  0  0  0  0
  8  5  1  0  0  0  0
  8  9  1  0  0  0  0
 10  9  2  0  0  0  0
 10 11  1  0  0  0  0
 12 10  1  0  0  0  0
 13 14  1  0  0  0  0
 13 12  2  0  0  0  0
 14  8  2  0  0  0  0
 15 17  1  0  0  0  0
 15 18  1  0  0  0  0
 16 15  1  0  0  0  0
 19  1  1  0  0  0  0
 20 22  1  0  0  0  0
 20 19  1  0  0  0  0
 21 20  1  0  0  0  0
 23 20  1  0  0  0  0
M  END
>  <minimizedAffinity>
-5.09717417

$$$$

 OpenBabel03252504123D

 23 24  0  0  0  0  0  0  0  0999 V2000
   36.9480   30.1830   40.2480 C   0  0  0  0  0  0  0  0  0  0  0  0
   36.2120   29.7380   39.1450 C   0  0  0  0  0  0  0  0  0  0  0  0
   36.6110   30.1690   37.8710 C   0  0  0  0  0  0  0  0  0  0  0  0
   37.6860   30.9930   37.7720 N   0  0  0  0  0  0  0  0  0  0  0  0
   38.3660   31.3970   38.8590 C   0  0  0  0  0  0  0  0  0  0  0  0
   38.0050   30.9990   40.0810 N   0  0  0  0  0  0  0  0  0  0  0  0
   36.0330   29.8170   37.0340 H   0  0  0  0  0  0  0  0  0  0  0  0
   39.5160   32.2850   38.6880 C   0  0  0  0  0  0  0  0  0  0  0  0
   40.3910   32.0890   37.6380 C   0  0  0  0  0  3  0  0  0  0  0  0
   41.4430   32.9770   37.5620 C   0  0  0  0  0  0  0  0  0  0  0  0
   42.1480   32.8420   36.7400 H   0  0  0  0  0  0  0  0  0  0  0  0
   41.6370   33.9880   38.4440 N   0  0  0  0  0  0  0  0  0  0  0  0
   40.7640   34.1530   39.4610 C   0  0  0  0  0  3  0  0  0  0  0  0
   39.7350   33.2970   39.5480 N   0  0  0  0  0  0  0  0  0  0  0  0
   35.0520   28.8380   39.3640 C   0  0  0  0  0  0  0  0  0  0  0  0
   34.3210   28.7180   38.1960 F   0  0  0  0  0  0  0  0  0  0  0  0
   35.5430   27.5710   39.6490 F   0  0  0  0  0  0  0  0  0  0  0  0
   34.2070   29.2280   40.3440 F   0  0  0  0  0  0  0  0  0  0  0  0
   36.5630   29.7670   41.4680 O   0  0  0  0  0  0  0  0  0  0  0  0
   37.1600   28.7820   42.2670 C   0  0  0  0  0  0  0  0  0  0  0  0
   37.8090   29.4530   43.3210 F   0  0  0  0  0  0  0  0  0  0  0  0
   36.2090   27.8990   42.7180 F   0  0  0  0  0  0  0  0  0  0  0  0
   38.1750   28.1500   41.5800 F   0  0  0  0  0  0  0  0  0  0  0  0
  1 19  1  0  0  0  0
  2 15  1  0  0  0  0
  2  1  2  0  0  0  0
  3  2  1  0  0  0  0
  4  3  2  0  0  0  0
  4  5  1  0  0  0  0
  5  6  2  0  0  0  0
  6  1  1  0  0  0  0
  7  3  1  0  0  0  0
  8  5  1  0  0  0  0
  8 14  1  0  0  0  0
  9  8  2  0  0  0  0
 10  9  1  0  0  0  0
 10 12  2  0  0  0  0
 11 10  1  0  0  0  0
 12 13  1  0  0  0  0
 13 14  2  0  0  0  0
 15 17  1  0  0  0  0
 15 18  1  0  0  0  0
 16 15  1  0  0  0  0
 19 20  1  0  0  0  0
 20 22  1  0  0  0  0
 20 21  1  0  0  0  0
 23 20  1  0  0  0  0
M  END
>  <minimizedAffinity>
-5.01159334

$$$$

 OpenBabel03252504123D

 23 24  0  0  0  0  0  0  0  0999 V2000
   36.8320   26.8480   40.6560 C   0  0  0  0  0  0  0  0  0  0  0  0
   36.6050   27.8770   41.5770 C   0  0  0  0  0  0  0  0  0  0  0  0
   35.9150   29.0140   41.1340 C   0  0  0  0  0  0  0  0  0  0  0  0
   35.5020   29.0610   39.8410 N   0  0  0  0  0  0  0  0  0  0  0  0
   35.7410   28.0490   38.9890 C   0  0  0  0  0  0  0  0  0  0  0  0
   36.3960   26.9570   39.3880 N   0  0  0  0  0  0  0  0  0  0  0  0
   35.7490   29.7960   41.8560 H   0  0  0  0  0  0  0  0  0  0  0  0
   35.2710   28.1570   37.6070 C   0  0  0  0  0  0  0  0  0  0  0  0
   35.6950   29.2040   36.8130 C   0  0  0  0  0  3  0  0  0  0  0  0
   35.1970   29.2200   35.5280 C   0  0  0  0  0  0  0  0  0  0  0  0
   35.5170   30.0380   34.8810 H   0  0  0  0  0  0  0  0  0  0  0  0
   34.3460   28.2830   35.0410 N   0  0  0  0  0  0  0  0  0  0  0  0
   33.9510   27.2710   35.8430 C   0  0  0  0  0  3  0  0  0  0  0  0
   34.4260   27.2430   37.0960 N   0  0  0  0  0  0  0  0  0  0  0  0
   37.0990   27.7250   42.9690 C   0  0  0  0  0  0  0  0  0  0  0  0
   37.1790   28.9640   43.5780 F   0  0  0  0  0  0  0  0  0  0  0  0
   36.1530   27.0000   43.6800 F   0  0  0  0  0  0  0  0  0  0  0  0
   38.3070   27.1280   43.0820 F   0  0  0  0  0  0  0  0  0  0  0  0
   37.4950   25.7590   41.0850 O   0  0  0  0  0  0  0  0  0  0  0  0
   36.9790   24.4750   41.3110 C   0  0  0  0  0  0  0  0  0  0  0  0
   36.3790   24.4970   42.5840 F   0  0  0  0  0  0  0  0  0  0  0  0
   36.0890   24.1410   40.3200 F   0  0  0  0  0  0  0  0  0  0  0  0
   38.0010   23.5560   41.4260 F   0  0  0  0  0  0  0  0  0  0  0  0
  1 19  1  0  0  0  0
  1  2  1  0  0  0  0
  2 15  1  0  0  0  0
  3  2  2  0  0  0  0
  3  7  1  0  0  0  0
  4  3  1  0  0  0  0
  5  6  1  0  0  0  0
  5  4  2  0  0  0  0
  6  1  2  0  0  0  0
  8  5  1  0  0  0  0
  9  8  2  0  0  0  0
 10  9  1  0  0  0  0
 11 10  1  0  0  0  0
 12 10  2  0  0  0  0
 12 13  1  0  0  0  0
 13 14  2  0  0  0  0
 14  8  1  0  0  0  0
 15 18  1  0  0  0  0
 15 16  1  0  0  0  0
 15 17  1  0  0  0  0
 19 20  1  0  0  0  0
 20 23  1  0  0  0  0
 20 21  1  0  0  0  0
 22 20  1  0  0  0  0
M  END
>  <minimizedAffinity>
-5.00855732

$$$$

 OpenBabel03252504123D

 23 24  0  0  0  0  0  0  0  0999 V2000
   38.0420   29.7930   40.4450 C   0  0  0  0  0  0  0  0  0  0  0  0
   37.4670   29.1870   41.5670 C   0  0  0  0  0  0  0  0  0  0  0  0
   38.0990   29.3650   42.8070 C   0  0  0  0  0  0  0  0  0  0  0  0
   39.2310   30.1130   42.8570 N   0  0  0  0  0  0  0  0  0  0  0  0
   39.7510   30.6790   41.7530 C   0  0  0  0  0  0  0  0  0  0  0  0
   39.1670   30.5230   40.5630 N   0  0  0  0  0  0  0  0  0  0  0  0
   37.6430   28.8920   43.6600 H   0  0  0  0  0  0  0  0  0  0  0  0
   40.9730   31.4740   41.8690 C   0  0  0  0  0  0  0  0  0  0  0  0
   41.9060   31.1690   42.8400 C   0  0  0  0  0  3  0  0  0  0  0  0
   43.0240   31.9750   42.8710 C   0  0  0  0  0  0  0  0  0  0  0  0
   43.7750   31.7540   43.6300 H   0  0  0  0  0  0  0  0  0  0  0  0
   43.2270   33.0090   42.0170 N   0  0  0  0  0  0  0  0  0  0  0  0
   42.2960   33.2810   41.0780 C   0  0  0  0  0  3  0  0  0  0  0  0
   41.2020   32.5060   41.0370 N   0  0  0  0  0  0  0  0  0  0  0  0
   36.2260   28.3890   41.4040 C   0  0  0  0  0  0  0  0  0  0  0  0
   36.4340   27.3770   40.4840 F   0  0  0  0  0  0  0  0  0  0  0  0
   35.9560   27.7680   42.6150 F   0  0  0  0  0  0  0  0  0  0  0  0
   35.1440   29.0960   41.0050 F   0  0  0  0  0  0  0  0  0  0  0  0
   37.4330   29.6200   39.2590 O   0  0  0  0  0  0  0  0  0  0  0  0
   36.7140   30.5680   38.5170 C   0  0  0  0  0  0  0  0  0  0  0  0
   35.5200   29.9440   38.1090 F   0  0  0  0  0  0  0  0  0  0  0  0
   36.4850   31.6880   39.2780 F   0  0  0  0  0  0  0  0  0  0  0  0
   37.3710   30.8620   37.3400 F   0  0  0  0  0  0  0  0  0  0  0  0
  1  6  2  0  0  0  0
  1  2  1  0  0  0  0
  2  3  2  0  0  0  0
  3  4  1  0  0  0  0
  3  7  1  0  0  0  0
  5  8  1  0  0  0  0
  5  4  2  0  0  0  0
  6  5  1  0  0  0  0
  8  9  1  0  0  0  0
  9 10  2  0  0  0  0
 10 11  1  0  0  0  0
 12 10  1  0  0  0  0
 13 12  2  0  0  0  0
 14 13  1  0  0  0  0
 14  8  2  0  0  0  0
 15  2  1  0  0  0  0
 15 17  1  0  0  0  0
 16 15  1  0  0  0  0
 18 15  1  0  0  0  0
 19  1  1  0  0  0  0
 20 19  1  0  0  0  0
 20 22  1  0  0  0  0
 21 20  1  0  0  0  0
 23 20  1  0  0  0  0
M  END
>  <minimizedAffinity>
-4.9499383

$$$$

 OpenBabel03252504123D

 23 24  0  0  0  0  0  0  0  0999 V2000
   37.9080   29.3500   40.9700 C   0  0  0  0  0  0  0  0  0  0  0  0
   38.1900   28.5320   42.0700 C   0  0  0  0  0  0  0  0  0  0  0  0
   39.2600   28.8950   42.9020 C   0  0  0  0  0  0  0  0  0  0  0  0
   39.9660   30.0150   42.6000 N   0  0  0  0  0  0  0  0  0  0  0  0
   39.6610   30.7740   41.5320 C   0  0  0  0  0  0  0  0  0  0  0  0
   38.6480   30.4480   40.7270 N   0  0  0  0  0  0  0  0  0  0  0  0
   39.4630   28.2550   43.7430 H   0  0  0  0  0  0  0  0  0  0  0  0
   40.4580   31.9700   41.2590 C   0  0  0  0  0  0  0  0  0  0  0  0
   39.8860   33.0500   40.6170 C   0  0  0  0  0  3  0  0  0  0  0  0
   40.7180   34.1280   40.4040 C   0  0  0  0  0  0  0  0  0  0  0  0
   40.2880   34.9950   39.8990 H   0  0  0  0  0  0  0  0  0  0  0  0
   42.0180   34.1610   40.7880 N   0  0  0  0  0  0  0  0  0  0  0  0
   42.5480   33.0880   41.4140 C   0  0  0  0  0  3  0  0  0  0  0  0
   41.7510   32.0310   41.6270 N   0  0  0  0  0  0  0  0  0  0  0  0
   37.3560   27.3290   42.3100 C   0  0  0  0  0  0  0  0  0  0  0  0
   37.9720   26.5030   43.2330 F   0  0  0  0  0  0  0  0  0  0  0  0
   36.1650   27.7440   42.8900 F   0  0  0  0  0  0  0  0  0  0  0  0
   37.0900   26.5920   41.2080 F   0  0  0  0  0  0  0  0  0  0  0  0
   36.8820   28.9990   40.1750 O   0  0  0  0  0  0  0  0  0  0  0  0
   35.6440   29.6430   40.0380 C   0  0  0  0  0  0  0  0  0  0  0  0
   35.4160   29.7950   38.6570 F   0  0  0  0  0  0  0  0  0  0  0  0
   34.6590   28.9080   40.6520 F   0  0  0  0  0  0  0  0  0  0  0  0
   35.7120   30.9320   40.5220 F   0  0  0  0  0  0  0  0  0  0  0  0
  1  2  1  0  0  0  0
  2 15  1  0  0  0  0
  2  3  2  0  0  0  0
  3  7  1  0  0  0  0
  4  3  1  0  0  0  0
  5  4  2  0  0  0  0
  6  1  2  0  0  0  0
  6  5  1  0  0  0  0
  8  5  1  0  0  0  0
  8 14  1  0  0  0  0
  9  8  2  0  0  0  0
 10  9  1  0  0  0  0
 10 12  2  0  0  0  0
 11 10  1  0  0  0  0
 12 13  1  0  0  0  0
 13 14  2  0  0  0  0
 15 17  1  0  0  0  0
 15 16  1  0  0  0  0
 18 15  1  0  0  0  0
 19  1  1  0  0  0  0
 20 19  1  0  0  0  0
 20 23  1  0  0  0  0
 20 22  1  0  0  0  0
 21 20  1  0  0  0  0
M  END
>  <minimizedAffinity>
-4.91065598

$$$$

 OpenBabel03252504123D

 23 24  0  0  0  0  0  0  0  0999 V2000
   37.8190   26.9330   41.6850 C   0  0  0  0  0  0  0  0  0  0  0  0
   37.0840   26.0980   40.8370 C   0  0  0  0  0  0  0  0  0  0  0  0
   36.5120   26.6660   39.6890 C   0  0  0  0  0  0  0  0  0  0  0  0
   36.6970   27.9910   39.4590 N   0  0  0  0  0  0  0  0  0  0  0  0
   37.4110   28.7590   40.3010 C   0  0  0  0  0  0  0  0  0  0  0  0
   37.9650   28.2400   41.3990 N   0  0  0  0  0  0  0  0  0  0  0  0
   35.9500   26.0080   39.0470 H   0  0  0  0  0  0  0  0  0  0  0  0
   37.5760   30.1810   39.9990 C   0  0  0  0  0  0  0  0  0  0  0  0
   37.1190   30.6910   38.8000 C   0  0  0  0  0  3  0  0  0  0  0  0
   37.3210   32.0410   38.6090 C   0  0  0  0  0  0  0  0  0  0  0  0
   36.9680   32.4670   37.6680 H   0  0  0  0  0  0  0  0  0  0  0  0
   37.9240   32.8460   39.5180 N   0  0  0  0  0  0  0  0  0  0  0  0
   38.3600   32.3170   40.6810 C   0  0  0  0  0  3  0  0  0  0  0  0
   38.1710   31.0050   40.8820 N   0  0  0  0  0  0  0  0  0  0  0  0
   36.9420   24.6610   41.1810 C   0  0  0  0  0  0  0  0  0  0  0  0
   35.9890   24.0730   40.3690 F   0  0  0  0  0  0  0  0  0  0  0  0
   38.1450   24.0320   40.8900 F   0  0  0  0  0  0  0  0  0  0  0  0
   36.6020   24.4150   42.4660 F   0  0  0  0  0  0  0  0  0  0  0  0
   38.3660   26.3850   42.7850 O   0  0  0  0  0  0  0  0  0  0  0  0
   39.7160   26.0810   43.0100 C   0  0  0  0  0  0  0  0  0  0  0  0
   40.2950   25.8430   41.7500 F   0  0  0  0  0  0  0  0  0  0  0  0
   40.3270   27.1130   43.6800 F   0  0  0  0  0  0  0  0  0  0  0  0
   39.8360   24.8810   43.6790 F   0  0  0  0  0  0  0  0  0  0  0  0
  1 19  1  0  0  0  0
  2 15  1  0  0  0  0
  2  1  2  0  0  0  0
  3  2  1  0  0  0  0
  4  3  2  0  0  0  0
  4  5  1  0  0  0  0
  5  6  2  0  0  0  0
  6  1  1  0  0  0  0
  7  3  1  0  0  0  0
  8  5  1  0  0  0  0
  8 14  1  0  0  0  0
  9  8  2  0  0  0  0
 10  9  1  0  0  0  0
 10 12  2  0  0  0  0
 11 10  1  0  0  0  0
 12 13  1  0  0  0  0
 13 14  2  0  0  0  0
 15 18  1  0  0  0  0
 16 15  1  0  0  0  0
 17 15  1  0  0  0  0
 19 20  1  0  0  0  0
 20 23  1  0  0  0  0
 20 22  1  0  0  0  0
 21 20  1  0  0  0  0
M  END
>  <minimizedAffinity>
-4.83890629

$$$$

 OpenBabel03252504123D

 23 24  0  0  0  0  0  0  0  0999 V2000
   37.9070   29.3130   40.9180 C   0  0  0  0  0  0  0  0  0  0  0  0
   36.8580   29.7220   40.0870 C   0  0  0  0  0  0  0  0  0  0  0  0
   36.9710   30.9670   39.4500 C   0  0  0  0  0  0  0  0  0  0  0  0
   38.0860   31.7090   39.6700 N   0  0  0  0  0  0  0  0  0  0  0  0
   39.0720   31.2780   40.4770 C   0  0  0  0  0  0  0  0  0  0  0  0
   38.9860   30.0970   41.0930 N   0  0  0  0  0  0  0  0  0  0  0  0
   36.1550   31.2650   38.8150 H   0  0  0  0  0  0  0  0  0  0  0  0
   40.2500   32.1230   40.6740 C   0  0  0  0  0  0  0  0  0  0  0  0
   41.2510   31.7220   41.5360 C   0  0  0  0  0  3  0  0  0  0  0  0
   42.3190   32.5860   41.6550 C   0  0  0  0  0  0  0  0  0  0  0  0
   43.1230   32.2910   42.3310 H   0  0  0  0  0  0  0  0  0  0  0  0
   42.4130   33.7600   40.9830 N   0  0  0  0  0  0  0  0  0  0  0  0
   41.4170   34.1230   40.1470 C   0  0  0  0  0  3  0  0  0  0  0  0
   40.3710   33.2930   40.0210 N   0  0  0  0  0  0  0  0  0  0  0  0
   35.6810   28.8330   39.9150 C   0  0  0  0  0  0  0  0  0  0  0  0
   34.9060   28.8490   41.0600 F   0  0  0  0  0  0  0  0  0  0  0  0
   34.8930   29.3610   38.9020 F   0  0  0  0  0  0  0  0  0  0  0  0
   35.9790   27.5450   39.6340 F   0  0  0  0  0  0  0  0  0  0  0  0
   37.7950   28.1190   41.5270 O   0  0  0  0  0  0  0  0  0  0  0  0
   37.5370   27.8680   42.8820 C   0  0  0  0  0  0  0  0  0  0  0  0
   36.3800   27.0680   42.9340 F   0  0  0  0  0  0  0  0  0  0  0  0
   38.6210   27.2580   43.4640 F   0  0  0  0  0  0  0  0  0  0  0  0
   37.1830   29.0320   43.5310 F   0  0  0  0  0  0  0  0  0  0  0  0
  1  6  1  0  0  0  0
  1 19  1  0  0  0  0
  2  1  2  0  0  0  0
  3  4  2  0  0  0  0
  3  2  1  0  0  0  0
  4  5  1  0  0  0  0
  5  8  1  0  0  0  0
  5  6  2  0  0  0  0
  7  3  1  0  0  0  0
  8  9  1  0  0  0  0
  9 10  2  0  0  0  0
 10 11  1  0  0  0  0
 12 10  1  0  0  0  0
 13 12  2  0  0  0  0
 14 13  1  0  0  0  0
 14  8  2  0  0  0  0
 15  2  1  0  0  0  0
 15 16  1  0  0  0  0
 17 15  1  0  0  0  0
 18 15  1  0  0  0  0
 19 20  1  0  0  0  0
 20 21  1  0  0  0  0
 20 22  1  0  0  0  0
 20 23  1  0  0  0  0
M  END
>  <minimizedAffinity>
-4.74793386

$$$$

 OpenBabel03252504123D

 23 24  0  0  0  0  0  0  0  0999 V2000
   39.1280   28.1030   41.4990 C   0  0  0  0  0  0  0  0  0  0  0  0
   37.9420   27.4940   41.9210 C   0  0  0  0  0  0  0  0  0  0  0  0
   36.7710   28.2660   41.9220 C   0  0  0  0  0  0  0  0  0  0  0  0
   36.8460   29.5600   41.5160 N   0  0  0  0  0  0  0  0  0  0  0  0
   38.0080   30.1070   41.1170 C   0  0  0  0  0  0  0  0  0  0  0  0
   39.1340   29.3910   41.1080 N   0  0  0  0  0  0  0  0  0  0  0  0
   35.8670   27.7810   42.2500 H   0  0  0  0  0  0  0  0  0  0  0  0
   38.0250   31.5060   40.6900 C   0  0  0  0  0  0  0  0  0  0  0  0
   37.0740   31.9700   39.8040 C   0  0  0  0  0  3  0  0  0  0  0  0
   37.1740   33.3020   39.4610 C   0  0  0  0  0  0  0  0  0  0  0  0
   36.4340   33.6920   38.7620 H   0  0  0  0  0  0  0  0  0  0  0  0
   38.1320   34.1310   39.9460 N   0  0  0  0  0  0  0  0  0  0  0  0
   39.0470   33.6470   40.8120 C   0  0  0  0  0  3  0  0  0  0  0  0
   38.9630   32.3520   41.1540 N   0  0  0  0  0  0  0  0  0  0  0  0
   37.9690   26.0720   42.3460 C   0  0  0  0  0  0  0  0  0  0  0  0
   38.7820   25.9260   43.4560 F   0  0  0  0  0  0  0  0  0  0  0  0
   36.6880   25.7230   42.7500 F   0  0  0  0  0  0  0  0  0  0  0  0
   38.3980   25.2050   41.4010 F   0  0  0  0  0  0  0  0  0  0  0  0
   40.2490   27.3600   41.4990 O   0  0  0  0  0  0  0  0  0  0  0  0
   41.3800   27.5130   42.3140 C   0  0  0  0  0  0  0  0  0  0  0  0
   40.9390   28.1020   43.5140 F   0  0  0  0  0  0  0  0  0  0  0  0
   41.9820   26.2960   42.5200 F   0  0  0  0  0  0  0  0  0  0  0  0
   42.2460   28.4390   41.7710 F   0  0  0  0  0  0  0  0  0  0  0  0
  1 19  1  0  0  0  0
  1  2  1  0  0  0  0
  2  3  2  0  0  0  0
  2 15  1  0  0  0  0
  3  7  1  0  0  0  0
  4  3  1  0  0  0  0
  5  4  2  0  0  0  0
  6  5  1  0  0  0  0
  6  1  2  0  0  0  0
  8  5  1  0  0  0  0
  8 14  1  0  0  0  0
  9  8  2  0  0  0  0
 10  9  1  0  0  0  0
 10 12  2  0  0  0  0
 11 10  1  0  0  0  0
 12 13  1  0  0  0  0
 13 14  2  0  0  0  0
 15 17  1  0  0  0  0
 15 16  1  0  0  0  0
 18 15  1  0  0  0  0
 19 20  1  0  0  0  0
 20 22  1  0  0  0  0
 20 21  1  0  0  0  0
 23 20  1  0  0  0  0
M  END
>  <minimizedAffinity>
-4.71945286

$$$$

 OpenBabel03252504123D

 23 24  0  0  0  0  0  0  0  0999 V2000
   37.7030   28.6600   40.8080 C   0  0  0  0  0  0  0  0  0  0  0  0
   38.1510   29.9430   41.1430 C   0  0  0  0  0  0  0  0  0  0  0  0
   37.7430   31.0140   40.3340 C   0  0  0  0  0  0  0  0  0  0  0  0
   36.9370   30.7540   39.2720 N   0  0  0  0  0  0  0  0  0  0  0  0
   36.5290   29.5050   38.9850 C   0  0  0  0  0  0  0  0  0  0  0  0
   36.9050   28.4720   39.7410 N   0  0  0  0  0  0  0  0  0  0  0  0
   38.0960   31.9940   40.6060 H   0  0  0  0  0  0  0  0  0  0  0  0
   35.6620   29.2890   37.8270 C   0  0  0  0  0  0  0  0  0  0  0  0
   34.3450   28.9180   38.0100 C   0  0  0  0  0  3  0  0  0  0  0  0
   33.6090   28.7370   36.8580 C   0  0  0  0  0  0  0  0  0  0  0  0
   32.5650   28.4430   36.9770 H   0  0  0  0  0  0  0  0  0  0  0  0
   34.1130   28.9060   35.6110 N   0  0  0  0  0  0  0  0  0  0  0  0
   35.4050   29.2690   35.4660 C   0  0  0  0  0  3  0  0  0  0  0  0
   36.1340   29.4480   36.5770 N   0  0  0  0  0  0  0  0  0  0  0  0
   39.0290   30.1170   42.3260 C   0  0  0  0  0  0  0  0  0  0  0  0
   40.1670   29.3430   42.1880 F   0  0  0  0  0  0  0  0  0  0  0  0
   39.4560   31.4380   42.3500 F   0  0  0  0  0  0  0  0  0  0  0  0
   38.4570   29.8040   43.5100 F   0  0  0  0  0  0  0  0  0  0  0  0
   38.0970   27.6360   41.5860 O   0  0  0  0  0  0  0  0  0  0  0  0
   37.3450   26.9570   42.5550 C   0  0  0  0  0  0  0  0  0  0  0  0
   38.1870   26.7760   43.6680 F   0  0  0  0  0  0  0  0  0  0  0  0
   36.2160   27.6740   42.8650 F   0  0  0  0  0  0  0  0  0  0  0  0
   37.0510   25.6780   42.1310 F   0  0  0  0  0  0  0  0  0  0  0  0
  1  2  1  0  0  0  0
  1 19  1  0  0  0  0
  2 15  1  0  0  0  0
  3  7  1  0  0  0  0
  3  2  2  0  0  0  0
  4  3  1  0  0  0  0
  5  4  2  0  0  0  0
  5  6  1  0  0  0  0
  6  1  2  0  0  0  0
  8  9  1  0  0  0  0
  8  5  1  0  0  0  0
 10 11  1  0  0  0  0
 10  9  2  0  0  0  0
 12 10  1  0  0  0  0
 13 12  2  0  0  0  0
 13 14  1  0  0  0  0
 14  8  2  0  0  0  0
 15 17  1  0  0  0  0
 15 18  1  0  0  0  0
 16 15  1  0  0  0  0
 19 20  1  0  0  0  0
 20 22  1  0  0  0  0
 20 21  1  0  0  0  0
 23 20  1  0  0  0  0
M  END
>  <minimizedAffinity>
-4.68185997

$$$$
