
 OpenBabel03252504533D

 19 20  0  0  0  0  0  0  0  0999 V2000
   47.0020   34.9460   41.9240 C   0  0  0  0  0  0  0  0  0  0  0  0
   47.9820   34.4690   42.1330 H   0  0  0  0  0  0  0  0  0  0  0  0
   47.2750   36.0000   41.6300 H   0  0  0  0  0  0  0  0  0  0  0  0
   44.5900   36.0360   44.5440 C   0  0  0  0  0  0  0  0  0  0  0  0
   45.3590   36.0150   43.3510 C   0  0  0  0  0  0  0  0  0  0  0  0
   46.2220   34.9460   43.1590 C   0  0  0  0  0  0  0  0  0  0  0  0
   46.2960   33.9720   44.1140 N   0  0  0  0  0  0  0  0  0  0  0  0
   45.5450   34.0350   45.2340 C   0  0  0  0  0  0  0  0  0  0  0  0
   44.7010   35.0570   45.4470 N   0  0  0  0  0  0  0  0  0  0  0  0
   43.9320   36.8890   44.6480 H   0  0  0  0  0  0  0  0  0  0  0  0
   45.2600   36.8050   42.6370 H   0  0  0  0  0  0  0  0  0  0  0  0
   45.6760   33.2040   45.9400 H   0  0  0  0  0  0  0  0  0  0  0  0
   46.3960   34.2240   40.7900 C   0  0  0  0  0  0  0  0  0  0  0  0
   45.0230   34.0630   40.7550 C   0  0  0  0  0  3  0  0  0  0  0  0
   44.3630   33.3940   39.7220 C   0  0  0  0  0  0  0  0  0  0  0  0
   43.3120   33.2470   39.6550 H   0  0  0  0  0  0  0  0  0  0  0  0
   45.1070   32.8900   38.7260 N   0  0  0  0  0  0  0  0  0  0  0  0
   46.4390   33.0430   38.7570 C   0  0  0  0  0  3  0  0  0  0  0  0
   47.1080   33.6920   39.7530 N   0  0  0  0  0  0  0  0  0  0  0  0
  1  2  1  0  0  0  0
  1  6  1  0  0  0  0
  3  1  1  0  0  0  0
  4 10  1  0  0  0  0
  4  9  1  0  0  0  0
  5  4  2  0  0  0  0
  6  5  1  0  0  0  0
  6  7  2  0  0  0  0
  7  8  1  0  0  0  0
  8  9  2  0  0  0  0
  8 12  1  0  0  0  0
 11  5  1  0  0  0  0
 13  1  1  0  0  0  0
 14 13  1  0  0  0  0
 15 14  2  0  0  0  0
 16 15  1  0  0  0  0
 17 18  2  0  0  0  0
 17 15  1  0  0  0  0
 18 19  1  0  0  0  0
 19 13  2  0  0  0  0
M  END
>  <minimizedAffinity>
-3.93368578

>  <minimizedRMSD>
0.246410683

$$$$
