
 OpenBabel03242521273D

 33 35  0  0  1  0  0  0  0  0999 V2000
   47.7780   33.2230   42.5670 C   0  0  1  0  0  0  0  0  0  0  0  0
   46.3640   33.6620   42.2650 C   0  0  2  0  0  0  0  0  0  0  0  0
   46.3160   34.5690   41.2260 O   0  0  0  0  0  0  0  0  0  0  0  0
   46.6240   33.8590   40.0750 C   0  0  0  0  0  0  0  0  0  0  0  0
   48.1020   33.5560   40.0910 C   0  0  2  0  0  0  0  0  0  0  0  0
   48.5990   32.9500   41.3540 C   0  0  2  0  0  0  0  0  0  0  0  0
   47.6710   32.2540   43.1420 H   0  0  0  0  0  0  0  0  0  0  0  0
   45.8200   32.7390   41.9670 H   0  0  0  0  0  0  0  0  0  0  0  0
   46.0930   32.8760   40.0440 H   0  0  0  0  0  0  0  0  0  0  0  0
   46.4310   34.4500   39.1470 H   0  0  0  0  0  0  0  0  0  0  0  0
   48.3270   32.8900   39.2310 H   0  0  0  0  0  0  0  0  0  0  0  0
   49.6160   33.3930   41.5470 H   0  0  0  0  0  0  0  0  0  0  0  0
   44.5150   36.0480   44.5570 C   0  0  0  0  0  0  0  0  0  0  0  0
   45.0820   35.5100   43.3920 C   0  0  0  0  0  0  0  0  0  0  0  0
   45.7440   34.2500   43.4610 C   0  0  0  0  0  0  0  0  0  0  0  0
   45.7870   33.6370   44.6650 N   0  0  0  0  0  0  0  0  0  0  0  0
   45.2310   34.1790   45.7740 C   0  0  0  0  0  0  0  0  0  0  0  0
   44.5970   35.3790   45.7220 N   0  0  0  0  0  0  0  0  0  0  0  0
   44.0430   37.0040   44.3700 H   0  0  0  0  0  0  0  0  0  0  0  0
   45.0700   35.9650   42.4120 H   0  0  0  0  0  0  0  0  0  0  0  0
   45.2770   33.6720   46.7300 H   0  0  0  0  0  0  0  0  0  0  0  0
   48.4170   34.0910   43.4630 O   0  0  0  0  0  0  0  0  0  0  0  0
   49.1310   33.6670   43.9630 H   0  0  0  0  0  0  0  0  0  0  0  0
   48.7360   34.7750   39.8250 O   0  0  0  0  0  0  0  0  0  0  0  0
   49.3650   34.7070   39.0650 H   0  0  0  0  0  0  0  0  0  0  0  0
   48.8650   31.5690   41.2120 O   0  0  0  0  0  0  0  0  0  0  0  0
   50.1350   31.0790   40.9210 C   0  0  0  0  0  0  0  0  0  0  0  0
   50.4320   29.7470   40.7210 C   0  0  0  0  0  3  0  0  0  0  0  0
   51.7370   29.3890   40.4360 C   0  0  0  0  0  0  0  0  0  0  0  0
   51.9700   28.3490   40.2800 H   0  0  0  0  0  0  0  0  0  0  0  0
   52.7340   30.3060   40.3490 N   0  0  0  0  0  0  0  0  0  0  0  0
   52.4080   31.5970   40.5520 C   0  0  0  0  0  3  0  0  0  0  0  0
   51.1570   31.9790   40.8270 N   0  0  0  0  0  0  0  0  0  0  0  0
  1  7  1  1  0  0  0
  1 22  1  0  0  0  0
  2  8  1  6  0  0  0
  2  1  1  0  0  0  0
  2 15  1  0  0  0  0
  3  2  1  0  0  0  0
  4  5  1  0  0  0  0
  4  3  1  0  0  0  0
  5 11  1  6  0  0  0
  5  6  1  0  0  0  0
  6 12  1  1  0  0  0
  6  1  1  0  0  0  0
  9  4  1  0  0  0  0
 10  4  1  0  0  0  0
 13 18  1  0  0  0  0
 14 15  1  0  0  0  0
 14 13  2  0  0  0  0
 15 16  2  0  0  0  0
 16 17  1  0  0  0  0
 17 21  1  0  0  0  0
 18 17  2  0  0  0  0
 19 13  1  0  0  0  0
 20 14  1  0  0  0  0
 22 23  1  0  0  0  0
 24  5  1  0  0  0  0
 25 24  1  0  0  0  0
 26  6  1  0  0  0  0
 27 26  1  0  0  0  0
 28 27  2  0  0  0  0
 29 28  1  0  0  0  0
 30 29  1  0  0  0  0
 31 29  2  0  0  0  0
 31 32  1  0  0  0  0
 32 33  2  0  0  0  0
 33 27  1  0  0  0  0
M  END
>  <minimizedAffinity>
-5.12291241

>  <minimizedRMSD>
0.817075253

$$$$
