
 OpenBabel03252502203D

 31 33  0  0  1  0  0  0  0  0999 V2000
   46.8370   34.5940   42.3150 N   0  0  0  0  0  0  0  0  0  0  0  0
   48.2940   34.6220   42.3600 C   0  0  0  0  0  0  0  0  0  0  0  0
   48.7150   35.4040   41.1020 C   0  0  0  0  0  0  0  0  0  0  0  0
   48.2920   34.7210   39.8460 C   0  0  0  0  0  0  0  0  0  0  0  0
   47.0340   33.9390   39.9560 C   0  0  0  0  0  0  0  0  0  0  0  0
   46.1380   34.3550   41.0860 C   0  0  1  0  0  0  0  0  0  0  0  0
   48.6230   33.5690   42.2910 H   0  0  0  0  0  0  0  0  0  0  0  0
   48.6640   35.1620   43.2360 H   0  0  0  0  0  0  0  0  0  0  0  0
   48.3100   36.4290   41.2140 H   0  0  0  0  0  0  0  0  0  0  0  0
   49.8240   35.4360   41.1470 H   0  0  0  0  0  0  0  0  0  0  0  0
   48.1250   35.4930   39.0560 H   0  0  0  0  0  0  0  0  0  0  0  0
   49.1260   34.0850   39.4620 H   0  0  0  0  0  0  0  0  0  0  0  0
   46.4560   33.9610   39.0160 H   0  0  0  0  0  0  0  0  0  0  0  0
   47.3030   32.8710   40.1440 H   0  0  0  0  0  0  0  0  0  0  0  0
   45.6850   35.3520   40.8040 H   0  0  0  0  0  0  0  0  0  0  0  0
   44.4710   36.0170   44.8280 C   0  0  0  0  0  0  0  0  0  0  0  0
   45.1890   35.9030   43.6300 C   0  0  0  0  0  0  0  0  0  0  0  0
   46.0650   34.8000   43.4860 C   0  0  0  0  0  0  0  0  0  0  0  0
   46.1560   33.9210   44.5230 N   0  0  0  0  0  0  0  0  0  0  0  0
   45.4340   34.0760   45.6730 C   0  0  0  0  0  0  0  0  0  0  0  0
   44.6030   35.1200   45.8080 N   0  0  0  0  0  0  0  0  0  0  0  0
   43.7930   36.8480   44.9680 H   0  0  0  0  0  0  0  0  0  0  0  0
   45.1040   36.6010   42.8330 H   0  0  0  0  0  0  0  0  0  0  0  0
   45.5490   33.3300   46.4750 H   0  0  0  0  0  0  0  0  0  0  0  0
   45.0270   33.4020   41.1750 C   0  0  0  0  0  0  0  0  0  0  0  0
   43.7080   33.7790   40.9180 C   0  0  0  0  0  0  0  0  0  0  0  0
   42.6110   32.9360   40.9820 C   0  0  0  0  0  0  0  0  0  0  0  0
   41.6400   33.3900   40.7520 H   0  0  0  0  0  0  0  0  0  0  0  0
   42.8270   31.6640   41.3130 N   0  0  0  0  0  0  0  0  0  0  0  0
   44.0890   31.2720   41.5650 C   0  0  0  0  0  0  0  0  0  0  0  0
   45.1740   32.0900   41.5060 N   0  0  0  0  0  0  0  0  0  0  0  0
  1  2  1  0  0  0  0
  1 18  1  0  0  0  0
  2  8  1  0  0  0  0
  3 10  1  0  0  0  0
  3  9  1  0  0  0  0
  3  2  1  0  0  0  0
  4  5  1  0  0  0  0
  4  3  1  0  0  0  0
  5 14  1  0  0  0  0
  5  6  1  0  0  0  0
  6 15  1  6  0  0  0
  6 25  1  0  0  0  0
  6  1  1  0  0  0  0
  7  2  1  0  0  0  0
 11  4  1  0  0  0  0
 12  4  1  0  0  0  0
 13  5  1  0  0  0  0
 16 22  1  0  0  0  0
 16 21  1  0  0  0  0
 17 16  2  0  0  0  0
 18 17  1  0  0  0  0
 18 19  2  0  0  0  0
 19 20  1  0  0  0  0
 20 21  2  0  0  0  0
 20 24  1  0  0  0  0
 23 17  1  0  0  0  0
 25 31  1  0  0  0  0
 26 27  1  0  0  0  0
 26 25  2  0  0  0  0
 27 29  2  0  0  0  0
 28 27  1  0  0  0  0
 29 30  1  0  0  0  0
 31 30  2  0  0  0  0
M  END
>  <minimizedAffinity>
-5.20417643

>  <minimizedRMSD>
0.540290117

$$$$
