
 OpenBabel03242517503D

 17 18  0  0  0  0  0  0  0  0999 V2000
   44.7110   35.9370   44.4430 C   0  0  0  0  0  0  0  0  0  0  0  0
   45.4740   35.2680   43.4480 C   0  0  0  0  0  0  0  0  0  0  0  0
   46.0300   34.0280   43.7980 C   0  0  0  0  0  0  0  0  0  0  0  0
   45.7970   33.5610   45.0610 N   0  0  0  0  0  0  0  0  0  0  0  0
   45.0710   34.2260   45.9670 C   0  0  0  0  0  0  0  0  0  0  0  0
   44.5290   35.4110   45.6570 N   0  0  0  0  0  0  0  0  0  0  0  0
   44.2830   36.9060   44.1530 H   0  0  0  0  0  0  0  0  0  0  0  0
   45.6400   35.6670   42.4580 H   0  0  0  0  0  0  0  0  0  0  0  0
   46.6180   33.4440   43.1300 H   0  0  0  0  0  0  0  0  0  0  0  0
   44.8430   33.7330   47.2500 O   0  0  0  0  0  0  0  0  0  0  0  0
   45.6980   32.7420   47.6990 C   0  0  0  0  0  0  0  0  0  0  0  0
   45.0190   31.6440   48.2390 C   0  0  0  0  0  0  0  0  0  0  0  0
   45.6940   30.5690   48.7340 C   0  0  0  0  0  0  0  0  0  0  0  0
   45.2330   29.6820   49.1670 H   0  0  0  0  0  0  0  0  0  0  0  0
   47.0590   30.5880   48.6900 N   0  0  0  0  0  0  0  0  0  0  0  0
   47.7170   31.6610   48.1630 C   0  0  0  0  0  0  0  0  0  0  0  0
   47.0430   32.7200   47.6770 N   0  0  0  0  0  0  0  0  0  0  0  0
  1  6  1  0  0  0  0
  2  3  1  0  0  0  0
  2  1  2  0  0  0  0
  3  4  2  0  0  0  0
  4  5  1  0  0  0  0
  5 10  1  0  0  0  0
  6  5  2  0  0  0  0
  7  1  1  0  0  0  0
  8  2  1  0  0  0  0
  9  3  1  0  0  0  0
 10 11  1  0  0  0  0
 11 12  1  0  0  0  0
 12 13  2  0  0  0  0
 13 14  1  0  0  0  0
 15 13  1  0  0  0  0
 16 15  2  0  0  0  0
 17 11  2  0  0  0  0
 17 16  1  0  0  0  0
M  END
>  <minimizedAffinity>
-4.25997639

>  <minimizedRMSD>
0.675019562

$$$$
