
 OpenBabel03252509303D

 19 20  0  0  0  0  0  0  0  0999 V2000
   37.6800   28.4170   43.6650 C   0  0  0  0  0  0  0  0  0  0  0  0
   36.5900   28.3150   43.8470 H   0  0  0  0  0  0  0  0  0  0  0  0
   38.0910   28.7280   44.6690 H   0  0  0  0  0  0  0  0  0  0  0  0
   39.3440   31.1220   41.7210 C   0  0  0  0  0  0  0  0  0  0  0  0
   39.1260   30.0890   42.6700 C   0  0  0  0  0  0  0  0  0  0  0  0
   37.8820   29.4770   42.6810 C   0  0  0  0  0  0  0  0  0  0  0  0
   36.9310   29.8890   41.7910 N   0  0  0  0  0  0  0  0  0  0  0  0
   37.1840   30.8770   40.9060 C   0  0  0  0  0  0  0  0  0  0  0  0
   38.3790   31.4870   40.8720 N   0  0  0  0  0  0  0  0  0  0  0  0
   40.3310   31.5680   41.7510 H   0  0  0  0  0  0  0  0  0  0  0  0
   39.9080   29.8070   43.3430 H   0  0  0  0  0  0  0  0  0  0  0  0
   36.3560   31.1340   40.2330 H   0  0  0  0  0  0  0  0  0  0  0  0
   38.1860   27.0870   43.2790 C   0  0  0  0  0  0  0  0  0  0  0  0
   37.4100   26.2870   42.4610 C   0  0  0  0  0  3  0  0  0  0  0  0
   37.8070   25.0150   42.0440 C   0  0  0  0  0  0  0  0  0  0  0  0
   37.2440   24.3670   41.4170 H   0  0  0  0  0  0  0  0  0  0  0  0
   38.9980   24.5600   42.4650 N   0  0  0  0  0  0  0  0  0  0  0  0
   39.7530   25.3330   43.2580 C   0  0  0  0  0  3  0  0  0  0  0  0
   39.3880   26.5790   43.6790 N   0  0  0  0  0  0  0  0  0  0  0  0
  1  2  1  0  0  0  0
  1  3  1  0  0  0  0
  4 10  1  0  0  0  0
  4  5  1  0  0  0  0
  5  6  2  0  0  0  0
  5 11  1  0  0  0  0
  6  1  1  0  0  0  0
  7  6  1  0  0  0  0
  8  7  2  0  0  0  0
  9  8  1  0  0  0  0
  9  4  2  0  0  0  0
 12  8  1  0  0  0  0
 13  1  1  0  0  0  0
 13 19  1  0  0  0  0
 14 13  2  0  0  0  0
 15 14  1  0  0  0  0
 15 17  2  0  0  0  0
 16 15  1  0  0  0  0
 17 18  1  0  0  0  0
 18 19  2  0  0  0  0
M  END
>  <minimizedAffinity>
-4.02581787

$$$$

 OpenBabel03252509303D

 19 20  0  0  0  0  0  0  0  0999 V2000
   37.6930   28.3660   43.6800 C   0  0  0  0  0  0  0  0  0  0  0  0
   38.2030   28.6780   44.6150 H   0  0  0  0  0  0  0  0  0  0  0  0
   36.6070   28.3010   43.9770 H   0  0  0  0  0  0  0  0  0  0  0  0
   37.8450   24.9860   42.1260 C   0  0  0  0  0  0  0  0  0  0  0  0
   37.3720   26.2690   42.5080 C   0  0  0  0  0  0  0  0  0  0  0  0
   38.2000   27.0510   43.3000 C   0  0  0  0  0  0  0  0  0  0  0  0
   39.4180   26.5590   43.6750 N   0  0  0  0  0  0  0  0  0  0  0  0
   39.8250   25.3320   43.2890 C   0  0  0  0  0  0  0  0  0  0  0  0
   39.0450   24.5530   42.5210 N   0  0  0  0  0  0  0  0  0  0  0  0
   37.1630   24.4140   41.5080 H   0  0  0  0  0  0  0  0  0  0  0  0
   36.4090   26.6020   42.1840 H   0  0  0  0  0  0  0  0  0  0  0  0
   40.8190   25.0280   43.6410 H   0  0  0  0  0  0  0  0  0  0  0  0
   37.9020   29.4380   42.6890 C   0  0  0  0  0  0  0  0  0  0  0  0
   39.1370   30.0560   42.6210 C   0  0  0  0  0  3  0  0  0  0  0  0
   39.4270   31.0790   41.7160 C   0  0  0  0  0  0  0  0  0  0  0  0
   40.3610   31.5810   41.6300 H   0  0  0  0  0  0  0  0  0  0  0  0
   38.4520   31.4700   40.8790 N   0  0  0  0  0  0  0  0  0  0  0  0
   37.2540   30.8730   40.9420 C   0  0  0  0  0  3  0  0  0  0  0  0
   36.9460   29.8730   41.8170 N   0  0  0  0  0  0  0  0  0  0  0  0
  1  3  1  0  0  0  0
  1  2  1  0  0  0  0
  4  5  2  0  0  0  0
  4  9  1  0  0  0  0
  5  6  1  0  0  0  0
  6  7  2  0  0  0  0
  6  1  1  0  0  0  0
  8 12  1  0  0  0  0
  8  7  1  0  0  0  0
  9  8  2  0  0  0  0
 10  4  1  0  0  0  0
 11  5  1  0  0  0  0
 13  1  1  0  0  0  0
 14 13  1  0  0  0  0
 15 14  2  0  0  0  0
 16 15  1  0  0  0  0
 17 18  2  0  0  0  0
 17 15  1  0  0  0  0
 18 19  1  0  0  0  0
 19 13  2  0  0  0  0
M  END
>  <minimizedAffinity>
-4.01456404

$$$$

 OpenBabel03252509303D

 19 20  0  0  0  0  0  0  0  0999 V2000
   35.7030   29.2200   40.8470 C   0  0  0  0  0  0  0  0  0  0  0  0
   35.2080   28.5480   40.1140 H   0  0  0  0  0  0  0  0  0  0  0  0
   34.8500   29.6030   41.4780 H   0  0  0  0  0  0  0  0  0  0  0  0
   37.1640   31.1600   38.0250 C   0  0  0  0  0  0  0  0  0  0  0  0
   36.5600   30.1080   38.7610 C   0  0  0  0  0  0  0  0  0  0  0  0
   36.3250   30.3170   40.1110 C   0  0  0  0  0  0  0  0  0  0  0  0
   36.6810   31.5120   40.6690 N   0  0  0  0  0  0  0  0  0  0  0  0
   37.2540   32.4850   39.9300 C   0  0  0  0  0  0  0  0  0  0  0  0
   37.4930   32.3110   38.6200 N   0  0  0  0  0  0  0  0  0  0  0  0
   37.3270   30.9490   36.9750 H   0  0  0  0  0  0  0  0  0  0  0  0
   36.3030   29.1920   38.2710 H   0  0  0  0  0  0  0  0  0  0  0  0
   37.5020   33.4080   40.4700 H   0  0  0  0  0  0  0  0  0  0  0  0
   36.6210   28.3920   41.6500 C   0  0  0  0  0  0  0  0  0  0  0  0
   36.9050   27.1060   41.2300 C   0  0  0  0  0  3  0  0  0  0  0  0
   37.7610   26.2510   41.9250 C   0  0  0  0  0  0  0  0  0  0  0  0
   38.0070   25.2570   41.6390 H   0  0  0  0  0  0  0  0  0  0  0  0
   38.3280   26.7110   43.0520 N   0  0  0  0  0  0  0  0  0  0  0  0
   38.0550   27.9570   43.4620 C   0  0  0  0  0  3  0  0  0  0  0  0
   37.2220   28.8120   42.8010 N   0  0  0  0  0  0  0  0  0  0  0  0
  1  3  1  0  0  0  0
  1 13  1  0  0  0  0
  2  1  1  0  0  0  0
  4  9  2  0  0  0  0
  4  5  1  0  0  0  0
  5  6  2  0  0  0  0
  6  7  1  0  0  0  0
  6  1  1  0  0  0  0
  8 12  1  0  0  0  0
  8  7  2  0  0  0  0
  9  8  1  0  0  0  0
 10  4  1  0  0  0  0
 11  5  1  0  0  0  0
 13 19  1  0  0  0  0
 14 13  2  0  0  0  0
 14 15  1  0  0  0  0
 15 17  2  0  0  0  0
 16 15  1  0  0  0  0
 17 18  1  0  0  0  0
 19 18  2  0  0  0  0
M  END
>  <minimizedAffinity>
-3.92787337

$$$$

 OpenBabel03252509303D

 19 20  0  0  0  0  0  0  0  0999 V2000
   35.6910   29.1550   40.8400 C   0  0  0  0  0  0  0  0  0  0  0  0
   34.9330   29.5830   41.5300 H   0  0  0  0  0  0  0  0  0  0  0  0
   35.0820   28.5190   40.1360 H   0  0  0  0  0  0  0  0  0  0  0  0
   37.7920   26.2500   41.8440 C   0  0  0  0  0  0  0  0  0  0  0  0
   36.9070   27.0760   41.1010 C   0  0  0  0  0  0  0  0  0  0  0  0
   36.6020   28.3240   41.6220 C   0  0  0  0  0  0  0  0  0  0  0  0
   37.1560   28.7010   42.8120 N   0  0  0  0  0  0  0  0  0  0  0  0
   37.9920   27.8820   43.4840 C   0  0  0  0  0  0  0  0  0  0  0  0
   38.3070   26.6680   43.0040 N   0  0  0  0  0  0  0  0  0  0  0  0
   38.0000   25.2860   41.3970 H   0  0  0  0  0  0  0  0  0  0  0  0
   36.5030   26.7280   40.1750 H   0  0  0  0  0  0  0  0  0  0  0  0
   38.3850   28.2770   44.4300 H   0  0  0  0  0  0  0  0  0  0  0  0
   36.3160   30.2820   40.1240 C   0  0  0  0  0  0  0  0  0  0  0  0
   36.5750   30.1550   38.7710 C   0  0  0  0  0  3  0  0  0  0  0  0
   37.1630   31.1680   38.0120 C   0  0  0  0  0  0  0  0  0  0  0  0
   37.3790   31.1130   36.9720 H   0  0  0  0  0  0  0  0  0  0  0  0
   37.4880   32.3120   38.6360 N   0  0  0  0  0  0  0  0  0  0  0  0
   37.2390   32.4380   39.9460 C   0  0  0  0  0  3  0  0  0  0  0  0
   36.6650   31.4640   40.7110 N   0  0  0  0  0  0  0  0  0  0  0  0
  1  2  1  0  0  0  0
  1  6  1  0  0  0  0
  3  1  1  0  0  0  0
  4  9  1  0  0  0  0
  5  6  1  0  0  0  0
  5  4  2  0  0  0  0
  6  7  2  0  0  0  0
  7  8  1  0  0  0  0
  8 12  1  0  0  0  0
  9  8  2  0  0  0  0
 10  4  1  0  0  0  0
 11  5  1  0  0  0  0
 13 19  1  0  0  0  0
 13  1  1  0  0  0  0
 14 13  2  0  0  0  0
 15 17  2  0  0  0  0
 15 14  1  0  0  0  0
 16 15  1  0  0  0  0
 17 18  1  0  0  0  0
 18 19  2  0  0  0  0
M  END
>  <minimizedAffinity>
-3.92459965

$$$$

 OpenBabel03252509303D

 19 20  0  0  0  0  0  0  0  0999 V2000
   36.6800   27.3930   42.9030 C   0  0  0  0  0  0  0  0  0  0  0  0
   37.0170   27.7520   43.8980 H   0  0  0  0  0  0  0  0  0  0  0  0
   35.6360   27.0130   43.0940 H   0  0  0  0  0  0  0  0  0  0  0  0
   37.7690   24.0350   41.7170 C   0  0  0  0  0  0  0  0  0  0  0  0
   36.9380   25.1140   42.1190 C   0  0  0  0  0  0  0  0  0  0  0  0
   37.5550   26.2980   42.4940 C   0  0  0  0  0  0  0  0  0  0  0  0
   38.9190   26.3750   42.4610 N   0  0  0  0  0  0  0  0  0  0  0  0
   39.6690   25.3220   42.0720 C   0  0  0  0  0  0  0  0  0  0  0  0
   39.0990   24.1640   41.7040 N   0  0  0  0  0  0  0  0  0  0  0  0
   37.2410   23.1330   41.4340 H   0  0  0  0  0  0  0  0  0  0  0  0
   35.8750   24.9960   42.1250 H   0  0  0  0  0  0  0  0  0  0  0  0
   40.7550   25.4850   42.0800 H   0  0  0  0  0  0  0  0  0  0  0  0
   36.6580   28.5590   42.0010 C   0  0  0  0  0  0  0  0  0  0  0  0
   35.6920   28.6250   41.0130 C   0  0  0  0  0  3  0  0  0  0  0  0
   35.5940   29.6880   40.1150 C   0  0  0  0  0  0  0  0  0  0  0  0
   34.8690   29.7790   39.3430 H   0  0  0  0  0  0  0  0  0  0  0  0
   36.4850   30.6860   40.2260 N   0  0  0  0  0  0  0  0  0  0  0  0
   37.4230   30.6260   41.1810 C   0  0  0  0  0  3  0  0  0  0  0  0
   37.5400   29.5980   42.0710 N   0  0  0  0  0  0  0  0  0  0  0  0
  1  3  1  0  0  0  0
  1  2  1  0  0  0  0
  4  5  1  0  0  0  0
  5 11  1  0  0  0  0
  5  6  2  0  0  0  0
  6  1  1  0  0  0  0
  7  6  1  0  0  0  0
  8 12  1  0  0  0  0
  8  7  2  0  0  0  0
  9  4  2  0  0  0  0
  9  8  1  0  0  0  0
 10  4  1  0  0  0  0
 13 19  1  0  0  0  0
 13  1  1  0  0  0  0
 14 13  2  0  0  0  0
 15 17  2  0  0  0  0
 15 14  1  0  0  0  0
 16 15  1  0  0  0  0
 17 18  1  0  0  0  0
 18 19  2  0  0  0  0
M  END
>  <minimizedAffinity>
-3.91717434

$$$$

 OpenBabel03252509303D

 19 20  0  0  0  0  0  0  0  0999 V2000
   36.7090   27.5170   42.9010 C   0  0  0  0  0  0  0  0  0  0  0  0
   35.6820   27.1190   43.0380 H   0  0  0  0  0  0  0  0  0  0  0  0
   37.0050   27.8550   43.9350 H   0  0  0  0  0  0  0  0  0  0  0  0
   35.5870   29.7000   40.1010 C   0  0  0  0  0  0  0  0  0  0  0  0
   35.6740   28.6020   40.9970 C   0  0  0  0  0  0  0  0  0  0  0  0
   36.6390   28.6570   41.9910 C   0  0  0  0  0  0  0  0  0  0  0  0
   37.4550   29.7500   42.0650 N   0  0  0  0  0  0  0  0  0  0  0  0
   37.3360   30.7710   41.1900 C   0  0  0  0  0  0  0  0  0  0  0  0
   36.4110   30.7460   40.2170 N   0  0  0  0  0  0  0  0  0  0  0  0
   34.8180   29.6110   39.3430 H   0  0  0  0  0  0  0  0  0  0  0  0
   35.0080   27.7720   40.8910 H   0  0  0  0  0  0  0  0  0  0  0  0
   38.0380   31.6030   41.3330 H   0  0  0  0  0  0  0  0  0  0  0  0
   37.5560   26.3960   42.4510 C   0  0  0  0  0  0  0  0  0  0  0  0
   36.9660   25.1730   42.1910 C   0  0  0  0  0  3  0  0  0  0  0  0
   37.6870   24.0580   41.7620 C   0  0  0  0  0  0  0  0  0  0  0  0
   37.2760   23.1000   41.5510 H   0  0  0  0  0  0  0  0  0  0  0  0
   39.0130   24.1930   41.5990 N   0  0  0  0  0  0  0  0  0  0  0  0
   39.5880   25.3770   41.8500 C   0  0  0  0  0  3  0  0  0  0  0  0
   38.9060   26.4820   42.2690 N   0  0  0  0  0  0  0  0  0  0  0  0
  1  2  1  0  0  0  0
  1  3  1  0  0  0  0
  4  9  2  0  0  0  0
  4  5  1  0  0  0  0
  5  6  2  0  0  0  0
  6  7  1  0  0  0  0
  6  1  1  0  0  0  0
  8 12  1  0  0  0  0
  8  7  2  0  0  0  0
  9  8  1  0  0  0  0
 10  4  1  0  0  0  0
 11  5  1  0  0  0  0
 13  1  1  0  0  0  0
 14 13  2  0  0  0  0
 15 14  1  0  0  0  0
 16 15  1  0  0  0  0
 17 15  2  0  0  0  0
 17 18  1  0  0  0  0
 18 19  2  0  0  0  0
 19 13  1  0  0  0  0
M  END
>  <minimizedAffinity>
-3.89675641

$$$$

 OpenBabel03252509303D

 19 20  0  0  0  0  0  0  0  0999 V2000
   35.4130   29.2090   40.5440 C   0  0  0  0  0  0  0  0  0  0  0  0
   34.8410   29.5780   41.4210 H   0  0  0  0  0  0  0  0  0  0  0  0
   34.6120   28.9140   39.8060 H   0  0  0  0  0  0  0  0  0  0  0  0
   37.3240   26.8630   42.7150 C   0  0  0  0  0  0  0  0  0  0  0  0
   36.5770   27.9930   42.2870 C   0  0  0  0  0  0  0  0  0  0  0  0
   36.1800   28.0380   40.9600 C   0  0  0  0  0  0  0  0  0  0  0  0
   36.5190   27.0080   40.1300 N   0  0  0  0  0  0  0  0  0  0  0  0
   37.2320   25.9530   40.5810 C   0  0  0  0  0  0  0  0  0  0  0  0
   37.6300   25.8820   41.8610 N   0  0  0  0  0  0  0  0  0  0  0  0
   37.6100   26.8740   43.7590 H   0  0  0  0  0  0  0  0  0  0  0  0
   36.3400   28.7700   42.9820 H   0  0  0  0  0  0  0  0  0  0  0  0
   37.4530   25.1770   39.8360 H   0  0  0  0  0  0  0  0  0  0  0  0
   36.2080   30.3400   40.0320 C   0  0  0  0  0  0  0  0  0  0  0  0
   36.5410   30.3730   38.6910 C   0  0  0  0  0  3  0  0  0  0  0  0
   37.2900   31.4030   38.1180 C   0  0  0  0  0  0  0  0  0  0  0  0
   37.5680   31.4680   37.0940 H   0  0  0  0  0  0  0  0  0  0  0  0
   37.7000   32.4000   38.9190 N   0  0  0  0  0  0  0  0  0  0  0  0
   37.3790   32.3710   40.2200 C   0  0  0  0  0  3  0  0  0  0  0  0
   36.6490   31.3770   40.8030 N   0  0  0  0  0  0  0  0  0  0  0  0
  1  6  1  0  0  0  0
  1  2  1  0  0  0  0
  3  1  1  0  0  0  0
  4 10  1  0  0  0  0
  5  4  1  0  0  0  0
  5 11  1  0  0  0  0
  6  5  2  0  0  0  0
  7  8  2  0  0  0  0
  7  6  1  0  0  0  0
  8  9  1  0  0  0  0
  9  4  2  0  0  0  0
 12  8  1  0  0  0  0
 13  1  1  0  0  0  0
 13 19  1  0  0  0  0
 14 13  2  0  0  0  0
 15 14  1  0  0  0  0
 15 17  2  0  0  0  0
 16 15  1  0  0  0  0
 17 18  1  0  0  0  0
 18 19  2  0  0  0  0
M  END
>  <minimizedAffinity>
-3.85556817

$$$$

 OpenBabel03252509303D

 19 20  0  0  0  0  0  0  0  0999 V2000
   36.7060   27.5470   42.8440 C   0  0  0  0  0  0  0  0  0  0  0  0
   36.6340   28.0360   43.8380 H   0  0  0  0  0  0  0  0  0  0  0  0
   35.7700   26.9200   42.7860 H   0  0  0  0  0  0  0  0  0  0  0  0
   40.1000   26.2650   43.6790 C   0  0  0  0  0  0  0  0  0  0  0  0
   38.9370   27.0770   43.6670 C   0  0  0  0  0  0  0  0  0  0  0  0
   37.8920   26.6960   42.8390 C   0  0  0  0  0  0  0  0  0  0  0  0
   38.0260   25.5690   42.0780 N   0  0  0  0  0  0  0  0  0  0  0  0
   39.1520   24.8270   42.1210 C   0  0  0  0  0  0  0  0  0  0  0  0
   40.1800   25.1720   42.9140 N   0  0  0  0  0  0  0  0  0  0  0  0
   40.8870   26.6040   44.3410 H   0  0  0  0  0  0  0  0  0  0  0  0
   38.8880   27.9490   44.2840 H   0  0  0  0  0  0  0  0  0  0  0  0
   39.1620   23.9400   41.4730 H   0  0  0  0  0  0  0  0  0  0  0  0
   36.6860   28.6160   41.8290 C   0  0  0  0  0  0  0  0  0  0  0  0
   36.0080   28.4010   40.6430 C   0  0  0  0  0  3  0  0  0  0  0  0
   35.9350   29.3540   39.6260 C   0  0  0  0  0  0  0  0  0  0  0  0
   35.4260   29.2310   38.7000 H   0  0  0  0  0  0  0  0  0  0  0  0
   36.5580   30.5280   39.8200 N   0  0  0  0  0  0  0  0  0  0  0  0
   37.2160   30.7390   40.9680 C   0  0  0  0  0  3  0  0  0  0  0  0
   37.3010   29.8250   41.9780 N   0  0  0  0  0  0  0  0  0  0  0  0
  1  2  1  0  0  0  0
  3  1  1  0  0  0  0
  4 10  1  0  0  0  0
  5  4  1  0  0  0  0
  5 11  1  0  0  0  0
  6  1  1  0  0  0  0
  6  5  2  0  0  0  0
  7  8  2  0  0  0  0
  7  6  1  0  0  0  0
  8  9  1  0  0  0  0
  9  4  2  0  0  0  0
 12  8  1  0  0  0  0
 13 19  1  0  0  0  0
 13  1  1  0  0  0  0
 14 13  2  0  0  0  0
 15 17  2  0  0  0  0
 15 14  1  0  0  0  0
 16 15  1  0  0  0  0
 17 18  1  0  0  0  0
 18 19  2  0  0  0  0
M  END
>  <minimizedAffinity>
-3.83780909

$$$$

 OpenBabel03252509303D

 19 20  0  0  0  0  0  0  0  0999 V2000
   35.5800   29.0530   40.8900 C   0  0  0  0  0  0  0  0  0  0  0  0
   34.7970   28.5100   40.3210 H   0  0  0  0  0  0  0  0  0  0  0  0
   35.0040   29.5720   41.7090 H   0  0  0  0  0  0  0  0  0  0  0  0
   37.1310   32.2240   39.7060 C   0  0  0  0  0  0  0  0  0  0  0  0
   36.5310   31.2570   40.5540 C   0  0  0  0  0  0  0  0  0  0  0  0
   36.1950   30.0320   39.9980 C   0  0  0  0  0  0  0  0  0  0  0  0
   36.4520   29.8100   38.6750 N   0  0  0  0  0  0  0  0  0  0  0  0
   37.0240   30.7610   37.9060 C   0  0  0  0  0  0  0  0  0  0  0  0
   37.3600   31.9560   38.4170 N   0  0  0  0  0  0  0  0  0  0  0  0
   37.3750   33.1640   40.1860 H   0  0  0  0  0  0  0  0  0  0  0  0
   36.3540   31.4850   41.5840 H   0  0  0  0  0  0  0  0  0  0  0  0
   37.1890   30.4860   36.8560 H   0  0  0  0  0  0  0  0  0  0  0  0
   36.4940   28.0420   41.4510 C   0  0  0  0  0  0  0  0  0  0  0  0
   37.0030   28.2300   42.7230 C   0  0  0  0  0  3  0  0  0  0  0  0
   37.8730   27.3270   43.3350 C   0  0  0  0  0  0  0  0  0  0  0  0
   38.2870   27.4320   44.3090 H   0  0  0  0  0  0  0  0  0  0  0  0
   38.2260   26.2300   42.6450 N   0  0  0  0  0  0  0  0  0  0  0  0
   37.7360   26.0450   41.4120 C   0  0  0  0  0  3  0  0  0  0  0  0
   36.8840   26.9110   40.7920 N   0  0  0  0  0  0  0  0  0  0  0  0
  1 13  1  0  0  0  0
  1  3  1  0  0  0  0
  2  1  1  0  0  0  0
  4 10  1  0  0  0  0
  4  5  1  0  0  0  0
  5 11  1  0  0  0  0
  6  5  2  0  0  0  0
  6  1  1  0  0  0  0
  7  6  1  0  0  0  0
  8  9  1  0  0  0  0
  8  7  2  0  0  0  0
  9  4  2  0  0  0  0
 12  8  1  0  0  0  0
 13 14  1  0  0  0  0
 14 15  2  0  0  0  0
 15 16  1  0  0  0  0
 17 15  1  0  0  0  0
 18 17  2  0  0  0  0
 19 18  1  0  0  0  0
 19 13  2  0  0  0  0
M  END
>  <minimizedAffinity>
-3.76461673

$$$$
