
 OpenBabel03252509313D

 25 26  0  0  0  0  0  0  0  0999 V2000
   48.0290   33.2540   42.9360 O   0  0  0  0  0  0  0  0  0  0  0  0
   47.1120   34.2740   42.6660 C   0  0  0  0  0  0  0  0  0  0  0  0
   47.5840   35.2230   42.3530 H   0  0  0  0  0  0  0  0  0  0  0  0
   46.4460   33.9840   41.8010 H   0  0  0  0  0  0  0  0  0  0  0  0
   45.4420   33.9090   45.9940 C   0  0  0  0  0  0  0  0  0  0  0  0
   46.2960   33.6620   44.9090 C   0  0  0  0  0  0  0  0  0  0  0  0
   46.2290   34.5090   43.8140 C   0  0  0  0  0  0  0  0  0  0  0  0
   45.3370   35.5400   43.8440 N   0  0  0  0  0  0  0  0  0  0  0  0
   44.5170   35.7580   44.9130 C   0  0  0  0  0  0  0  0  0  0  0  0
   44.5820   34.9400   45.9700 N   0  0  0  0  0  0  0  0  0  0  0  0
   45.5480   33.2010   46.8260 H   0  0  0  0  0  0  0  0  0  0  0  0
   46.9910   32.8170   44.9460 H   0  0  0  0  0  0  0  0  0  0  0  0
   43.8120   36.5670   44.9440 H   0  0  0  0  0  0  0  0  0  0  0  0
   50.4950   32.6070   42.3520 O   0  0  0  0  0  0  0  0  0  0  0  0
   49.4980   33.7400   42.2720 P   0  0  2  0  0  0  0  0  0  0  0  0
   50.0210   35.1080   43.1000 O   0  0  0  0  0  0  0  0  0  0  0  0
   50.9690   35.0230   43.3180 H   0  0  0  0  0  0  0  0  0  0  0  0
   49.2530   34.0800   40.6430 O   0  0  0  0  0  0  0  0  0  0  0  0
   48.6210   33.1430   39.8390 C   0  0  0  0  0  0  0  0  0  0  0  0
   49.3870   32.0390   39.4490 C   0  0  0  0  0  3  0  0  0  0  0  0
   48.8400   31.0500   38.6430 C   0  0  0  0  0  0  0  0  0  0  0  0
   49.4230   30.1740   38.3260 H   0  0  0  0  0  0  0  0  0  0  0  0
   47.5530   31.2030   38.2610 N   0  0  0  0  0  0  0  0  0  0  0  0
   46.8450   32.2760   38.6520 C   0  0  0  0  0  3  0  0  0  0  0  0
   47.3530   33.2280   39.4200 N   0  0  0  0  0  0  0  0  0  0  0  0
  2  1  1  0  0  0  0
  2  7  1  0  0  0  0
  3  2  1  0  0  0  0
  4  2  1  0  0  0  0
  5 11  1  0  0  0  0
  6 12  1  0  0  0  0
  6  5  2  0  0  0  0
  7  8  2  0  0  0  0
  7  6  1  0  0  0  0
  8  9  1  0  0  0  0
  9 13  1  0  0  0  0
  9 10  2  0  0  0  0
 10  5  1  0  0  0  0
 15 14  2  1  0  0  0
 15  1  1  0  0  0  0
 15 16  1  0  0  0  0
 16 17  1  0  0  0  0
 18 15  1  0  0  0  0
 19 18  1  0  0  0  0
 20 19  1  0  0  0  0
 21 20  2  0  0  0  0
 22 21  1  0  0  0  0
 23 21  1  0  0  0  0
 23 24  2  0  0  0  0
 24 25  1  0  0  0  0
 25 19  2  0  0  0  0
M  END
>  <minimizedAffinity>
-4.1514883

>  <minimizedRMSD>
0.713359177

$$$$
