
 OpenBabel03252501563D

 19 20  0  0  0  0  0  0  0  0999 V2000
   35.7210   29.3310   38.0820 C   0  0  0  0  0  0  0  0  0  0  0  0
   36.5690   30.3940   38.3860 C   0  0  0  0  0  0  0  0  0  0  0  0
   36.5980   30.8650   39.6900 C   0  0  0  0  0  0  0  0  0  0  0  0
   35.8000   30.2680   40.6090 N   0  0  0  0  0  0  0  0  0  0  0  0
   34.9930   29.2440   40.2860 C   0  0  0  0  0  0  0  0  0  0  0  0
   34.9400   28.7570   39.0120 N   0  0  0  0  0  0  0  0  0  0  0  0
   35.6770   28.9430   37.0740 H   0  0  0  0  0  0  0  0  0  0  0  0
   34.3610   28.7800   41.0450 H   0  0  0  0  0  0  0  0  0  0  0  0
   37.4840   31.9730   39.9960 C   0  0  0  0  0  0  0  0  0  0  0  0
   38.6470   31.5550   40.6490 C   0  0  0  0  0  3  0  0  0  0  0  0
   39.6170   32.4600   41.0240 C   0  0  0  0  0  0  0  0  0  0  0  0
   40.5370   32.1770   41.5340 H   0  0  0  0  0  0  0  0  0  0  0  0
   39.4150   33.7590   40.7460 N   0  0  0  0  0  0  0  0  0  0  0  0
   38.2760   34.1610   40.1080 C   0  0  0  0  0  3  0  0  0  0  0  0
   37.3060   33.2810   39.7290 N   0  0  0  0  0  0  0  0  0  0  0  0
   37.3770   30.9410   37.2760 C   0  0  0  0  0  0  0  0  0  0  0  0
   38.3460   30.3710   37.1580 H   0  0  0  0  0  0  0  0  0  0  0  0
   37.5830   32.0180   37.4910 H   0  0  0  0  0  0  0  0  0  0  0  0
   36.8310   30.9080   36.3070 H   0  0  0  0  0  0  0  0  0  0  0  0
  1  2  2  0  0  0  0
  1  6  1  0  0  0  0
  2  3  1  0  0  0  0
  3  9  1  0  0  0  0
  3  4  2  0  0  0  0
  5  4  1  0  0  0  0
  5  8  1  0  0  0  0
  6  5  2  0  0  0  0
  7  1  1  0  0  0  0
  9 10  1  0  0  0  0
 10 11  2  0  0  0  0
 11 12  1  0  0  0  0
 13 11  1  0  0  0  0
 14 13  2  0  0  0  0
 15  9  2  0  0  0  0
 15 14  1  0  0  0  0
 16 18  1  0  0  0  0
 16  2  1  0  0  0  0
 17 16  1  0  0  0  0
 19 16  1  0  0  0  0
M  END
>  <minimizedAffinity>
-3.86822844

$$$$

 OpenBabel03252501563D

 19 20  0  0  0  0  0  0  0  0999 V2000
   36.9530   32.1980   40.0800 C   0  0  0  0  0  0  0  0  0  0  0  0
   37.0010   30.8870   40.5500 C   0  0  0  0  0  0  0  0  0  0  0  0
   38.1290   30.4730   41.2420 C   0  0  0  0  0  0  0  0  0  0  0  0
   39.1330   31.3650   41.4300 N   0  0  0  0  0  0  0  0  0  0  0  0
   39.0580   32.6220   40.9660 C   0  0  0  0  0  0  0  0  0  0  0  0
   37.9620   33.0620   40.2800 N   0  0  0  0  0  0  0  0  0  0  0  0
   36.0860   32.5480   39.5370 H   0  0  0  0  0  0  0  0  0  0  0  0
   39.8800   33.3210   41.1310 H   0  0  0  0  0  0  0  0  0  0  0  0
   38.1680   29.1060   41.7270 C   0  0  0  0  0  0  0  0  0  0  0  0
   37.6990   28.9960   43.0380 C   0  0  0  0  0  3  0  0  0  0  0  0
   37.6560   27.7770   43.6800 C   0  0  0  0  0  0  0  0  0  0  0  0
   37.2970   27.6470   44.7000 H   0  0  0  0  0  0  0  0  0  0  0  0
   38.0800   26.6910   43.0090 N   0  0  0  0  0  0  0  0  0  0  0  0
   38.5390   26.8060   41.7280 C   0  0  0  0  0  3  0  0  0  0  0  0
   38.5880   28.0040   41.0770 N   0  0  0  0  0  0  0  0  0  0  0  0
   35.8280   30.0340   40.2660 C   0  0  0  0  0  0  0  0  0  0  0  0
   35.0350   30.1520   41.0610 H   0  0  0  0  0  0  0  0  0  0  0  0
   36.1730   28.9710   40.2150 H   0  0  0  0  0  0  0  0  0  0  0  0
   35.3720   30.2670   39.2780 H   0  0  0  0  0  0  0  0  0  0  0  0
  1  6  2  0  0  0  0
  1  2  1  0  0  0  0
  2  3  2  0  0  0  0
  3  4  1  0  0  0  0
  3  9  1  0  0  0  0
  5  8  1  0  0  0  0
  5  4  2  0  0  0  0
  6  5  1  0  0  0  0
  7  1  1  0  0  0  0
  9 10  1  0  0  0  0
 10 11  2  0  0  0  0
 11 12  1  0  0  0  0
 13 11  1  0  0  0  0
 14 13  2  0  0  0  0
 15  9  2  0  0  0  0
 15 14  1  0  0  0  0
 16  2  1  0  0  0  0
 16 17  1  0  0  0  0
 18 16  1  0  0  0  0
 19 16  1  0  0  0  0
M  END
>  <minimizedAffinity>
-3.8548522

$$$$

 OpenBabel03252501563D

 19 20  0  0  0  0  0  0  0  0999 V2000
   36.5700   27.7780   42.5190 C   0  0  0  0  0  0  0  0  0  0  0  0
   36.5590   28.7610   41.5330 C   0  0  0  0  0  0  0  0  0  0  0  0
   37.6600   29.5960   41.4170 C   0  0  0  0  0  0  0  0  0  0  0  0
   38.6990   29.4150   42.2700 N   0  0  0  0  0  0  0  0  0  0  0  0
   38.6810   28.4580   43.2110 C   0  0  0  0  0  0  0  0  0  0  0  0
   37.6120   27.6190   43.3520 N   0  0  0  0  0  0  0  0  0  0  0  0
   35.7260   27.1140   42.6330 H   0  0  0  0  0  0  0  0  0  0  0  0
   39.5300   28.3320   43.8860 H   0  0  0  0  0  0  0  0  0  0  0  0
   37.6380   30.6170   40.3860 C   0  0  0  0  0  0  0  0  0  0  0  0
   38.2920   30.2060   39.2210 C   0  0  0  0  0  3  0  0  0  0  0  0
   38.3790   31.0360   38.1240 C   0  0  0  0  0  0  0  0  0  0  0  0
   38.8780   30.7560   37.1970 H   0  0  0  0  0  0  0  0  0  0  0  0
   37.8170   32.2550   38.2030 N   0  0  0  0  0  0  0  0  0  0  0  0
   37.1810   32.6500   39.3450 C   0  0  0  0  0  3  0  0  0  0  0  0
   37.0840   31.8430   40.4400 N   0  0  0  0  0  0  0  0  0  0  0  0
   35.3540   28.8360   40.6790 C   0  0  0  0  0  0  0  0  0  0  0  0
   35.4360   28.1340   39.7970 H   0  0  0  0  0  0  0  0  0  0  0  0
   35.2390   29.8910   40.3290 H   0  0  0  0  0  0  0  0  0  0  0  0
   34.4280   28.5850   41.2430 H   0  0  0  0  0  0  0  0  0  0  0  0
  1  7  1  0  0  0  0
  1  6  1  0  0  0  0
  2  1  2  0  0  0  0
  3  2  1  0  0  0  0
  3  4  2  0  0  0  0
  4  5  1  0  0  0  0
  5  6  2  0  0  0  0
  5  8  1  0  0  0  0
  9 15  1  0  0  0  0
  9  3  1  0  0  0  0
 10  9  2  0  0  0  0
 11 13  2  0  0  0  0
 11 10  1  0  0  0  0
 12 11  1  0  0  0  0
 13 14  1  0  0  0  0
 14 15  2  0  0  0  0
 16 19  1  0  0  0  0
 16  2  1  0  0  0  0
 17 16  1  0  0  0  0
 18 16  1  0  0  0  0
M  END
>  <minimizedAffinity>
-3.7653234

$$$$

 OpenBabel03252501563D

 19 20  0  0  0  0  0  0  0  0999 V2000
   36.9400   25.2250   42.4950 C   0  0  0  0  0  0  0  0  0  0  0  0
   36.9910   26.6140   42.3950 C   0  0  0  0  0  0  0  0  0  0  0  0
   37.2860   27.1780   41.1620 C   0  0  0  0  0  0  0  0  0  0  0  0
   37.5090   26.3490   40.1120 N   0  0  0  0  0  0  0  0  0  0  0  0
   37.4520   25.0150   40.2390 C   0  0  0  0  0  0  0  0  0  0  0  0
   37.1660   24.4270   41.4380 N   0  0  0  0  0  0  0  0  0  0  0  0
   36.7130   24.7590   43.4430 H   0  0  0  0  0  0  0  0  0  0  0  0
   37.6360   24.3700   39.3780 H   0  0  0  0  0  0  0  0  0  0  0  0
   37.3370   28.6250   41.0680 C   0  0  0  0  0  0  0  0  0  0  0  0
   36.1150   29.1720   40.6690 C   0  0  0  0  0  3  0  0  0  0  0  0
   35.9590   30.5340   40.5210 C   0  0  0  0  0  0  0  0  0  0  0  0
   35.0240   31.0010   40.2130 H   0  0  0  0  0  0  0  0  0  0  0  0
   37.0170   31.3250   40.7710 N   0  0  0  0  0  0  0  0  0  0  0  0
   38.2090   30.7830   41.1600 C   0  0  0  0  0  3  0  0  0  0  0  0
   38.3820   29.4390   41.3120 N   0  0  0  0  0  0  0  0  0  0  0  0
   36.7260   27.3820   43.6280 C   0  0  0  0  0  0  0  0  0  0  0  0
   35.6190   27.5630   43.7660 H   0  0  0  0  0  0  0  0  0  0  0  0
   37.2730   28.3550   43.5600 H   0  0  0  0  0  0  0  0  0  0  0  0
   37.1110   26.8640   44.5340 H   0  0  0  0  0  0  0  0  0  0  0  0
  1  7  1  0  0  0  0
  2  1  1  0  0  0  0
  2 16  1  0  0  0  0
  3  2  2  0  0  0  0
  4  5  2  0  0  0  0
  4  3  1  0  0  0  0
  5  6  1  0  0  0  0
  6  1  2  0  0  0  0
  8  5  1  0  0  0  0
  9  3  1  0  0  0  0
  9 15  1  0  0  0  0
 10  9  2  0  0  0  0
 11 10  1  0  0  0  0
 11 13  2  0  0  0  0
 12 11  1  0  0  0  0
 13 14  1  0  0  0  0
 14 15  2  0  0  0  0
 16 17  1  0  0  0  0
 16 19  1  0  0  0  0
 18 16  1  0  0  0  0
M  END
>  <minimizedAffinity>
-3.7431612

$$$$

 OpenBabel03252501563D

 19 20  0  0  0  0  0  0  0  0999 V2000
   38.0530   29.1820   43.2910 C   0  0  0  0  0  0  0  0  0  0  0  0
   37.6100   27.9300   42.8700 C   0  0  0  0  0  0  0  0  0  0  0  0
   38.2710   27.3130   41.8180 C   0  0  0  0  0  0  0  0  0  0  0  0
   39.3190   27.9580   41.2490 N   0  0  0  0  0  0  0  0  0  0  0  0
   39.7240   29.1640   41.6770 C   0  0  0  0  0  0  0  0  0  0  0  0
   39.0950   29.7990   42.7100 N   0  0  0  0  0  0  0  0  0  0  0  0
   37.5570   29.6860   44.1080 H   0  0  0  0  0  0  0  0  0  0  0  0
   40.5700   29.6620   41.2020 H   0  0  0  0  0  0  0  0  0  0  0  0
   37.8000   26.0100   41.3870 C   0  0  0  0  0  0  0  0  0  0  0  0
   36.9600   26.0920   40.2740 C   0  0  0  0  0  3  0  0  0  0  0  0
   36.4090   24.9590   39.7130 C   0  0  0  0  0  0  0  0  0  0  0  0
   35.7500   24.9780   38.8450 H   0  0  0  0  0  0  0  0  0  0  0  0
   36.7020   23.7690   40.2670 N   0  0  0  0  0  0  0  0  0  0  0  0
   37.5230   23.6970   41.3550 C   0  0  0  0  0  3  0  0  0  0  0  0
   38.0770   24.8060   41.9240 N   0  0  0  0  0  0  0  0  0  0  0  0
   36.4530   27.3550   43.5890 C   0  0  0  0  0  0  0  0  0  0  0  0
   36.7860   26.7850   44.5060 H   0  0  0  0  0  0  0  0  0  0  0  0
   35.9060   26.6790   42.8870 H   0  0  0  0  0  0  0  0  0  0  0  0
   35.7290   28.1380   43.9060 H   0  0  0  0  0  0  0  0  0  0  0  0
  1  7  1  0  0  0  0
  2  1  1  0  0  0  0
  2 16  1  0  0  0  0
  3  2  2  0  0  0  0
  4  5  2  0  0  0  0
  4  3  1  0  0  0  0
  5  6  1  0  0  0  0
  6  1  2  0  0  0  0
  8  5  1  0  0  0  0
  9  3  1  0  0  0  0
  9 15  1  0  0  0  0
 10  9  2  0  0  0  0
 11 13  2  0  0  0  0
 11 10  1  0  0  0  0
 12 11  1  0  0  0  0
 13 14  1  0  0  0  0
 14 15  2  0  0  0  0
 16 19  1  0  0  0  0
 16 17  1  0  0  0  0
 18 16  1  0  0  0  0
M  END
>  <minimizedAffinity>
-3.70632553

$$$$

 OpenBabel03252501563D

 19 20  0  0  0  0  0  0  0  0999 V2000
   37.8620   23.0960   40.7770 C   0  0  0  0  0  0  0  0  0  0  0  0
   38.1570   24.2670   41.4710 C   0  0  0  0  0  0  0  0  0  0  0  0
   37.5040   25.4350   41.1060 C   0  0  0  0  0  0  0  0  0  0  0  0
   36.6070   25.3810   40.0910 N   0  0  0  0  0  0  0  0  0  0  0  0
   36.3420   24.2370   39.4410 C   0  0  0  0  0  0  0  0  0  0  0  0
   36.9680   23.0700   39.7740 N   0  0  0  0  0  0  0  0  0  0  0  0
   38.3550   22.1710   41.0390 H   0  0  0  0  0  0  0  0  0  0  0  0
   35.6150   24.2210   38.6270 H   0  0  0  0  0  0  0  0  0  0  0  0
   37.8190   26.6490   41.8350 C   0  0  0  0  0  0  0  0  0  0  0  0
   36.9120   26.8960   42.8690 C   0  0  0  0  0  3  0  0  0  0  0  0
   37.0400   28.0030   43.6800 C   0  0  0  0  0  0  0  0  0  0  0  0
   36.3570   28.2330   44.4970 H   0  0  0  0  0  0  0  0  0  0  0  0
   38.0640   28.8440   43.4490 N   0  0  0  0  0  0  0  0  0  0  0  0
   38.9470   28.5970   42.4370 C   0  0  0  0  0  3  0  0  0  0  0  0
   38.8360   27.5070   41.6250 N   0  0  0  0  0  0  0  0  0  0  0  0
   39.1590   24.1660   42.5530 C   0  0  0  0  0  0  0  0  0  0  0  0
   38.6760   23.8640   43.5290 H   0  0  0  0  0  0  0  0  0  0  0  0
   39.6610   25.1600   42.6580 H   0  0  0  0  0  0  0  0  0  0  0  0
   39.9580   23.4300   42.3140 H   0  0  0  0  0  0  0  0  0  0  0  0
  1  7  1  0  0  0  0
  1  2  1  0  0  0  0
  2 16  1  0  0  0  0
  3  2  2  0  0  0  0
  3  9  1  0  0  0  0
  4  3  1  0  0  0  0
  5  6  1  0  0  0  0
  5  4  2  0  0  0  0
  6  1  2  0  0  0  0
  8  5  1  0  0  0  0
  9 10  1  0  0  0  0
 10 11  2  0  0  0  0
 11 12  1  0  0  0  0
 13 11  1  0  0  0  0
 14 13  2  0  0  0  0
 15  9  2  0  0  0  0
 15 14  1  0  0  0  0
 16 18  1  0  0  0  0
 16 17  1  0  0  0  0
 19 16  1  0  0  0  0
M  END
>  <minimizedAffinity>
-3.67666459

$$$$

 OpenBabel03252501563D

 19 20  0  0  0  0  0  0  0  0999 V2000
   37.3930   30.9970   38.1080 C   0  0  0  0  0  0  0  0  0  0  0  0
   37.4290   30.0220   39.1020 C   0  0  0  0  0  0  0  0  0  0  0  0
   37.3520   30.4240   40.4270 C   0  0  0  0  0  0  0  0  0  0  0  0
   37.2430   31.7500   40.6920 N   0  0  0  0  0  0  0  0  0  0  0  0
   37.2100   32.6660   39.7120 C   0  0  0  0  0  0  0  0  0  0  0  0
   37.2840   32.3040   38.3980 N   0  0  0  0  0  0  0  0  0  0  0  0
   37.4510   30.7130   37.0670 H   0  0  0  0  0  0  0  0  0  0  0  0
   37.1220   33.7270   39.9530 H   0  0  0  0  0  0  0  0  0  0  0  0
   37.3900   29.4000   41.4540 C   0  0  0  0  0  0  0  0  0  0  0  0
   38.6200   29.3630   42.1170 C   0  0  0  0  0  3  0  0  0  0  0  0
   38.8550   28.4560   43.1290 C   0  0  0  0  0  0  0  0  0  0  0  0
   39.7980   28.3930   43.6720 H   0  0  0  0  0  0  0  0  0  0  0  0
   37.8680   27.6060   43.4630 N   0  0  0  0  0  0  0  0  0  0  0  0
   36.6700   27.6480   42.8100 C   0  0  0  0  0  3  0  0  0  0  0  0
   36.4180   28.5380   41.8070 N   0  0  0  0  0  0  0  0  0  0  0  0
   37.5500   28.6180   38.6550 C   0  0  0  0  0  0  0  0  0  0  0  0
   36.5360   28.1710   38.4350 H   0  0  0  0  0  0  0  0  0  0  0  0
   38.0650   28.0380   39.4610 H   0  0  0  0  0  0  0  0  0  0  0  0
   38.1810   28.5240   37.7430 H   0  0  0  0  0  0  0  0  0  0  0  0
  1  6  2  0  0  0  0
  1  2  1  0  0  0  0
  2  3  2  0  0  0  0
  3  4  1  0  0  0  0
  3  9  1  0  0  0  0
  5  8  1  0  0  0  0
  5  4  2  0  0  0  0
  6  5  1  0  0  0  0
  7  1  1  0  0  0  0
  9 15  2  0  0  0  0
  9 10  1  0  0  0  0
 10 11  2  0  0  0  0
 11 13  1  0  0  0  0
 11 12  1  0  0  0  0
 14 13  2  0  0  0  0
 15 14  1  0  0  0  0
 16  2  1  0  0  0  0
 16 18  1  0  0  0  0
 17 16  1  0  0  0  0
 19 16  1  0  0  0  0
M  END
>  <minimizedAffinity>
-3.64761353

$$$$

 OpenBabel03252501563D

 19 20  0  0  0  0  0  0  0  0999 V2000
   37.0310   28.9070   42.0630 C   0  0  0  0  0  0  0  0  0  0  0  0
   37.9050   29.9290   41.7000 C   0  0  0  0  0  0  0  0  0  0  0  0
   37.6070   30.6890   40.5790 C   0  0  0  0  0  0  0  0  0  0  0  0
   36.4760   30.4020   39.8880 N   0  0  0  0  0  0  0  0  0  0  0  0
   35.6520   29.4110   40.2620 C   0  0  0  0  0  0  0  0  0  0  0  0
   35.9160   28.6440   41.3610 N   0  0  0  0  0  0  0  0  0  0  0  0
   37.2380   28.2980   42.9310 H   0  0  0  0  0  0  0  0  0  0  0  0
   34.7470   29.2000   39.6890 H   0  0  0  0  0  0  0  0  0  0  0  0
   38.5250   31.7500   40.2100 C   0  0  0  0  0  0  0  0  0  0  0  0
   38.0280   33.0150   40.5350 C   0  0  0  0  0  3  0  0  0  0  0  0
   38.7540   34.1560   40.2650 C   0  0  0  0  0  0  0  0  0  0  0  0
   38.4050   35.1610   40.5020 H   0  0  0  0  0  0  0  0  0  0  0  0
   39.9560   34.0200   39.6780 N   0  0  0  0  0  0  0  0  0  0  0  0
   40.4350   32.7810   39.3620 C   0  0  0  0  0  3  0  0  0  0  0  0
   39.7320   31.6410   39.6220 N   0  0  0  0  0  0  0  0  0  0  0  0
   39.0980   30.1190   42.5520 C   0  0  0  0  0  0  0  0  0  0  0  0
   38.8700   30.8000   43.4250 H   0  0  0  0  0  0  0  0  0  0  0  0
   39.9120   30.5530   41.9220 H   0  0  0  0  0  0  0  0  0  0  0  0
   39.4840   29.1550   42.9510 H   0  0  0  0  0  0  0  0  0  0  0  0
  1  7  1  0  0  0  0
  2  1  1  0  0  0  0
  2 16  1  0  0  0  0
  3  2  2  0  0  0  0
  4  5  2  0  0  0  0
  4  3  1  0  0  0  0
  5  6  1  0  0  0  0
  6  1  2  0  0  0  0
  8  5  1  0  0  0  0
  9 10  1  0  0  0  0
  9  3  1  0  0  0  0
 11 12  1  0  0  0  0
 11 10  2  0  0  0  0
 13 11  1  0  0  0  0
 14 15  1  0  0  0  0
 14 13  2  0  0  0  0
 15  9  2  0  0  0  0
 16 19  1  0  0  0  0
 16 17  1  0  0  0  0
 18 16  1  0  0  0  0
M  END
>  <minimizedAffinity>
-3.61650562

$$$$

 OpenBabel03252501563D

 19 20  0  0  0  0  0  0  0  0999 V2000
   35.8420   29.5860   37.8500 C   0  0  0  0  0  0  0  0  0  0  0  0
   35.9670   29.2370   39.1920 C   0  0  0  0  0  0  0  0  0  0  0  0
   37.2290   28.9350   39.6830 C   0  0  0  0  0  0  0  0  0  0  0  0
   38.2830   28.9950   38.8320 N   0  0  0  0  0  0  0  0  0  0  0  0
   38.1310   29.3360   37.5430 C   0  0  0  0  0  0  0  0  0  0  0  0
   36.9030   29.6390   37.0270 N   0  0  0  0  0  0  0  0  0  0  0  0
   34.8720   29.8270   37.4400 H   0  0  0  0  0  0  0  0  0  0  0  0
   38.9960   29.3770   36.8780 H   0  0  0  0  0  0  0  0  0  0  0  0
   37.3470   28.5720   41.0830 C   0  0  0  0  0  0  0  0  0  0  0  0
   37.2720   27.1910   41.2800 C   0  0  0  0  0  3  0  0  0  0  0  0
   37.3640   26.6460   42.5430 C   0  0  0  0  0  0  0  0  0  0  0  0
   37.3120   25.5750   42.7400 H   0  0  0  0  0  0  0  0  0  0  0  0
   37.5280   27.4800   43.5840 N   0  0  0  0  0  0  0  0  0  0  0  0
   37.5990   28.8290   43.3850 C   0  0  0  0  0  3  0  0  0  0  0  0
   37.5110   29.3860   42.1430 N   0  0  0  0  0  0  0  0  0  0  0  0
   34.7260   29.2150   39.9940 C   0  0  0  0  0  0  0  0  0  0  0  0
   34.4940   30.2380   40.4160 H   0  0  0  0  0  0  0  0  0  0  0  0
   34.8560   28.4740   40.8200 H   0  0  0  0  0  0  0  0  0  0  0  0
   33.8500   28.8760   39.3970 H   0  0  0  0  0  0  0  0  0  0  0  0
  1  2  1  0  0  0  0
  2  3  2  0  0  0  0
  2 16  1  0  0  0  0
  3  9  1  0  0  0  0
  4  3  1  0  0  0  0
  5  4  2  0  0  0  0
  6  5  1  0  0  0  0
  6  1  2  0  0  0  0
  7  1  1  0  0  0  0
  8  5  1  0  0  0  0
  9 10  2  0  0  0  0
  9 15  1  0  0  0  0
 10 11  1  0  0  0  0
 11 12  1  0  0  0  0
 11 13  2  0  0  0  0
 14 13  1  0  0  0  0
 15 14  2  0  0  0  0
 16 17  1  0  0  0  0
 16 18  1  0  0  0  0
 19 16  1  0  0  0  0
M  END
>  <minimizedAffinity>
-3.60554051

$$$$
