
 OpenBabel03252509313D

 25 26  0  0  0  0  0  0  0  0999 V2000
   47.8920   33.5280   42.8560 O   0  0  0  0  0  0  0  0  0  0  0  0
   46.8200   34.4080   42.6850 C   0  0  0  0  0  0  0  0  0  0  0  0
   47.1200   35.4050   42.3140 H   0  0  0  0  0  0  0  0  0  0  0  0
   46.1080   34.0120   41.9020 H   0  0  0  0  0  0  0  0  0  0  0  0
   45.4730   33.7820   46.1180 C   0  0  0  0  0  0  0  0  0  0  0  0
   46.2250   33.6270   44.9450 C   0  0  0  0  0  0  0  0  0  0  0  0
   46.0460   34.5470   43.9220 C   0  0  0  0  0  0  0  0  0  0  0  0
   45.1480   35.5560   44.1070 N   0  0  0  0  0  0  0  0  0  0  0  0
   44.4290   35.6850   45.2600 C   0  0  0  0  0  0  0  0  0  0  0  0
   44.6020   34.7970   46.2460 N   0  0  0  0  0  0  0  0  0  0  0  0
   45.6640   33.0210   46.8850 H   0  0  0  0  0  0  0  0  0  0  0  0
   46.9300   32.7950   44.8570 H   0  0  0  0  0  0  0  0  0  0  0  0
   43.7200   36.4770   45.4140 H   0  0  0  0  0  0  0  0  0  0  0  0
   49.9770   33.0240   41.3600 O   0  0  0  0  0  0  0  0  0  0  0  0
   49.1770   34.1530   41.9650 P   0  0  2  0  0  0  0  0  0  0  0  0
   50.1050   35.1150   42.9860 O   0  0  0  0  0  0  0  0  0  0  0  0
   51.0520   34.9170   42.8600 H   0  0  0  0  0  0  0  0  0  0  0  0
   48.5460   35.0580   40.6960 O   0  0  0  0  0  0  0  0  0  0  0  0
   48.1130   34.4130   39.5460 C   0  0  0  0  0  0  0  0  0  0  0  0
   48.7210   34.8010   38.3480 C   0  0  0  0  0  3  0  0  0  0  0  0
   48.3530   34.2110   37.1460 C   0  0  0  0  0  0  0  0  0  0  0  0
   48.8180   34.5010   36.1930 H   0  0  0  0  0  0  0  0  0  0  0  0
   47.3950   33.2590   37.1900 N   0  0  0  0  0  0  0  0  0  0  0  0
   46.8310   32.9100   38.3590 C   0  0  0  0  0  3  0  0  0  0  0  0
   47.1720   33.4630   39.5140 N   0  0  0  0  0  0  0  0  0  0  0  0
  2  1  1  0  0  0  0
  2  7  1  0  0  0  0
  3  2  1  0  0  0  0
  4  2  1  0  0  0  0
  5 10  1  0  0  0  0
  5 11  1  0  0  0  0
  6  5  2  0  0  0  0
  7  8  2  0  0  0  0
  7  6  1  0  0  0  0
  8  9  1  0  0  0  0
  9 13  1  0  0  0  0
  9 10  2  0  0  0  0
 12  6  1  0  0  0  0
 15 14  2  6  0  0  0
 15  1  1  0  0  0  0
 15 16  1  0  0  0  0
 17 16  1  0  0  0  0
 18 15  1  0  0  0  0
 19 18  1  0  0  0  0
 20 19  2  0  0  0  0
 21 23  2  0  0  0  0
 21 20  1  0  0  0  0
 22 21  1  0  0  0  0
 23 24  1  0  0  0  0
 24 25  2  0  0  0  0
 25 19  1  0  0  0  0
M  END
>  <minimizedAffinity>
-4.7697382

>  <minimizedRMSD>
0.789227486

$$$$
