
 OpenBabel03242517413D

 38 41  0  0  0  0  0  0  0  0999 V2000
   39.8320   34.9210   40.1290 C   0  0  0  0  0  0  0  0  0  0  0  0
   39.5170   35.9050   39.7700 H   0  0  0  0  0  0  0  0  0  0  0  0
   39.3920   34.8070   41.1620 H   0  0  0  0  0  0  0  0  0  0  0  0
   39.2990   33.8800   39.2090 C   0  0  0  0  0  0  0  0  0  0  0  0
   38.5250   34.2600   38.1030 C   0  0  0  0  0  0  0  0  0  0  0  0
   38.0380   33.3450   37.2080 C   0  0  0  0  0  0  0  0  0  0  0  0
   38.3190   31.9870   37.3940 C   0  0  0  0  0  0  0  0  0  0  0  0
   39.0920   31.6130   38.4980 C   0  0  0  0  0  0  0  0  0  0  0  0
   39.5810   32.5580   39.4080 C   0  0  0  0  0  0  0  0  0  0  0  0
   38.3410   35.3370   38.0140 H   0  0  0  0  0  0  0  0  0  0  0  0
   37.4630   33.7830   36.4180 H   0  0  0  0  0  0  0  0  0  0  0  0
   37.8770   31.3840   36.6180 H   0  0  0  0  0  0  0  0  0  0  0  0
   39.1710   30.5470   38.4350 H   0  0  0  0  0  0  0  0  0  0  0  0
   40.3080   31.9430   40.4970 C   0  0  0  0  0  0  0  0  0  0  0  0
   39.7380   31.6780   41.7000 C   0  0  0  0  0  0  0  0  0  0  0  0
   40.3280   31.0790   42.7910 C   0  0  0  0  0  0  0  0  0  0  0  0
   39.8600   30.8750   43.7380 H   0  0  0  0  0  0  0  0  0  0  0  0
   41.6230   30.7120   42.6550 N   0  0  0  0  0  0  0  0  0  0  0  0
   42.2390   30.9450   41.4990 C   0  0  0  0  0  0  0  0  0  0  0  0
   41.5600   31.5280   40.5290 N   0  0  0  0  0  0  0  0  0  0  0  0
   41.9710   34.9980   41.3700 C   0  0  0  0  0  0  0  0  0  0  0  0
   41.3290   34.8830   40.2150 C   0  0  0  0  0  0  0  0  0  0  0  0
   44.0570   35.5270   42.6110 C   0  0  0  0  0  0  0  0  0  0  0  0
   43.4070   34.9170   41.5050 C   0  0  0  0  0  0  0  0  0  0  0  0
   44.1950   34.2540   40.5960 C   0  0  0  0  0  0  0  0  0  0  0  0
   45.5580   34.2130   40.8010 N   0  0  0  0  0  0  0  0  0  0  0  0
   46.1290   34.8020   41.8600 C   0  0  0  0  0  0  0  0  0  0  0  0
   45.3920   35.4570   42.7650 N   0  0  0  0  0  0  0  0  0  0  0  0
   43.5110   36.0630   43.3590 H   0  0  0  0  0  0  0  0  0  0  0  0
   43.7630   33.7750   39.7410 H   0  0  0  0  0  0  0  0  0  0  0  0
   47.5660   34.7480   42.0690 C   0  0  0  0  0  0  0  0  0  0  0  0
   48.5100   35.6660   41.8730 C   0  0  0  0  0  0  0  0  0  0  0  0
   49.8230   35.4090   42.1430 C   0  0  0  0  0  0  0  0  0  0  0  0
   50.0740   34.0910   42.6430 C   0  0  0  0  0  0  0  0  0  0  0  0
   48.4000   33.3080   42.6910 S   0  0  0  0  0  0  0  0  0  0  0  0
   48.2250   36.6420   41.4880 H   0  0  0  0  0  0  0  0  0  0  0  0
   50.6700   36.0660   42.0250 H   0  0  0  0  0  0  0  0  0  0  0  0
   51.0180   33.6740   42.9200 H   0  0  0  0  0  0  0  0  0  0  0  0
  1 22  1  0  0  0  0
  1  3  1  0  0  0  0
  2  1  1  0  0  0  0
  4  9  1  0  0  0  0
  4  1  1  0  0  0  0
  5  4  2  0  0  0  0
  6  7  2  0  0  0  0
  6  5  1  0  0  0  0
  7  8  1  0  0  0  0
  8  9  2  0  0  0  0
  9 14  1  0  0  0  0
 10  5  1  0  0  0  0
 11  6  1  0  0  0  0
 12  7  1  0  0  0  0
 13  8  1  0  0  0  0
 14 20  2  0  0  0  0
 14 15  1  0  0  0  0
 15 16  2  0  0  0  0
 16 17  1  0  0  0  0
 18 16  1  0  0  0  0
 19 18  2  0  0  0  0
 20 19  1  0  0  0  0
 21 24  1  0  0  0  0
 22 21  2  0  0  0  0
 23 28  1  0  0  0  0
 23 29  1  0  0  0  0
 24 23  2  0  0  0  0
 25 26  2  0  0  0  0
 25 24  1  0  0  0  0
 26 27  1  0  0  0  0
 27 31  1  0  0  0  0
 27 28  2  0  0  0  0
 30 25  1  0  0  0  0
 31 35  1  0  0  0  0
 32 31  2  0  0  0  0
 32 33  1  0  0  0  0
 33 34  2  0  0  0  0
 34 35  1  0  0  0  0
 34 38  1  0  0  0  0
 36 32  1  0  0  0  0
 37 33  1  0  0  0  0
M  END
>  <minimizedAffinity>
-6.62172031

>  <minimizedRMSD>
4.52854013

$$$$
