
 OpenBabel03252501183D

 19 20  0  0  0  0  0  0  0  0999 V2000
   40.1070   28.5780   42.4740 C   0  0  0  0  0  0  0  0  0  0  0  0
   38.7510   28.2660   42.1870 C   0  0  0  0  0  0  0  0  0  0  0  0
   38.3200   27.0550   42.7150 C   0  0  0  0  0  0  0  0  0  0  0  0
   39.1950   26.2820   43.4440 N   0  0  0  0  0  0  0  0  0  0  0  0
   40.4700   26.6410   43.6780 C   0  0  0  0  0  0  0  0  0  0  0  0
   40.9180   27.8030   43.1820 N   0  0  0  0  0  0  0  0  0  0  0  0
   40.6400   29.4580   42.1630 H   0  0  0  0  0  0  0  0  0  0  0  0
   40.9210   25.8560   44.2690 H   0  0  0  0  0  0  0  0  0  0  0  0
   37.9920   29.2060   41.3880 C   0  0  0  0  0  0  0  0  0  0  0  0
   38.2180   29.3300   40.0440 C   0  0  0  0  0  3  0  0  0  0  0  0
   37.5470   30.1930   39.2270 C   0  0  0  0  0  0  0  0  0  0  0  0
   37.6880   30.3260   38.1730 H   0  0  0  0  0  0  0  0  0  0  0  0
   36.5780   31.0030   39.7520 N   0  0  0  0  0  0  0  0  0  0  0  0
   36.3380   30.8970   41.0780 C   0  0  0  0  0  3  0  0  0  0  0  0
   37.0340   30.0310   41.8120 N   0  0  0  0  0  0  0  0  0  0  0  0
   36.9250   26.7040   42.4370 C   0  0  0  0  0  0  0  0  0  0  0  0
   36.7040   25.3660   42.7840 F   0  0  0  0  0  0  0  0  0  0  0  0
   36.7800   26.7350   41.0650 F   0  0  0  0  0  0  0  0  0  0  0  0
   36.0300   27.4480   43.1250 F   0  0  0  0  0  0  0  0  0  0  0  0
  1  6  1  0  0  0  0
  2  1  2  0  0  0  0
  2  3  1  0  0  0  0
  3  4  2  0  0  0  0
  4  5  1  0  0  0  0
  5  8  1  0  0  0  0
  6  5  2  0  0  0  0
  7  1  1  0  0  0  0
  9 15  1  0  0  0  0
  9  2  1  0  0  0  0
 10  9  2  0  0  0  0
 11 13  2  0  0  0  0
 11 10  1  0  0  0  0
 12 11  1  0  0  0  0
 13 14  1  0  0  0  0
 14 15  2  0  0  0  0
 16  3  1  0  0  0  0
 16 17  1  0  0  0  0
 16 19  1  0  0  0  0
 18 16  1  0  0  0  0
M  END
>  <minimizedAffinity>
-4.48418522

$$$$

 OpenBabel03252501183D

 19 20  0  0  0  0  0  0  0  0999 V2000
   40.2730   30.8120   41.7490 C   0  0  0  0  0  0  0  0  0  0  0  0
   38.9100   30.6360   41.3940 C   0  0  0  0  0  0  0  0  0  0  0  0
   38.3730   31.6820   40.6540 C   0  0  0  0  0  0  0  0  0  0  0  0
   39.1620   32.7630   40.3320 N   0  0  0  0  0  0  0  0  0  0  0  0
   40.4510   32.8640   40.7030 C   0  0  0  0  0  0  0  0  0  0  0  0
   41.0000   31.8720   41.4180 N   0  0  0  0  0  0  0  0  0  0  0  0
   40.8790   30.1310   42.3180 H   0  0  0  0  0  0  0  0  0  0  0  0
   40.8230   33.8040   40.3190 H   0  0  0  0  0  0  0  0  0  0  0  0
   38.2420   29.4300   41.8400 C   0  0  0  0  0  0  0  0  0  0  0  0
   37.8990   29.2610   43.1540 C   0  0  0  0  0  3  0  0  0  0  0  0
   37.2720   28.1540   43.6490 C   0  0  0  0  0  0  0  0  0  0  0  0
   36.9840   27.9760   44.6660 H   0  0  0  0  0  0  0  0  0  0  0  0
   36.9510   27.1270   42.8060 N   0  0  0  0  0  0  0  0  0  0  0  0
   37.2800   27.2720   41.5030 C   0  0  0  0  0  3  0  0  0  0  0  0
   37.8920   28.3820   41.0930 N   0  0  0  0  0  0  0  0  0  0  0  0
   36.9660   31.5300   40.2710 C   0  0  0  0  0  0  0  0  0  0  0  0
   36.8510   30.5070   39.3210 F   0  0  0  0  0  0  0  0  0  0  0  0
   36.6200   32.6780   39.5890 F   0  0  0  0  0  0  0  0  0  0  0  0
   36.1540   31.2080   41.3030 F   0  0  0  0  0  0  0  0  0  0  0  0
  1  7  1  0  0  0  0
  2  1  2  0  0  0  0
  2  9  1  0  0  0  0
  3  2  1  0  0  0  0
  4  3  2  0  0  0  0
  4  5  1  0  0  0  0
  5  6  2  0  0  0  0
  6  1  1  0  0  0  0
  8  5  1  0  0  0  0
  9 10  1  0  0  0  0
 10 11  2  0  0  0  0
 11 12  1  0  0  0  0
 13 11  1  0  0  0  0
 14 13  2  0  0  0  0
 15 14  1  0  0  0  0
 15  9  2  0  0  0  0
 16  3  1  0  0  0  0
 16 19  1  0  0  0  0
 17 16  1  0  0  0  0
 18 16  1  0  0  0  0
M  END
>  <minimizedAffinity>
-4.35381174

$$$$

 OpenBabel03252501183D

 19 20  0  0  0  0  0  0  0  0999 V2000
   38.9730   30.5500   41.3910 C   0  0  0  0  0  0  0  0  0  0  0  0
   38.1190   29.4150   41.4020 C   0  0  0  0  0  0  0  0  0  0  0  0
   36.8190   29.6750   40.9830 C   0  0  0  0  0  0  0  0  0  0  0  0
   36.4700   30.9510   40.6040 N   0  0  0  0  0  0  0  0  0  0  0  0
   37.3330   31.9820   40.6190 C   0  0  0  0  0  0  0  0  0  0  0  0
   38.5940   31.7660   41.0190 N   0  0  0  0  0  0  0  0  0  0  0  0
   40.0090   30.5740   41.6780 H   0  0  0  0  0  0  0  0  0  0  0  0
   36.7960   32.8560   40.2770 H   0  0  0  0  0  0  0  0  0  0  0  0
   38.6710   28.1520   41.8500 C   0  0  0  0  0  0  0  0  0  0  0  0
   38.8350   27.8890   43.1820 C   0  0  0  0  0  3  0  0  0  0  0  0
   39.3500   26.7270   43.6800 C   0  0  0  0  0  0  0  0  0  0  0  0
   39.4980   26.4750   44.7110 H   0  0  0  0  0  0  0  0  0  0  0  0
   39.7390   25.7390   42.8180 N   0  0  0  0  0  0  0  0  0  0  0  0
   39.5870   25.9780   41.4970 C   0  0  0  0  0  3  0  0  0  0  0  0
   39.0760   27.1370   41.0860 N   0  0  0  0  0  0  0  0  0  0  0  0
   35.9130   28.5240   40.9830 C   0  0  0  0  0  0  0  0  0  0  0  0
   34.6160   28.9530   40.6770 F   0  0  0  0  0  0  0  0  0  0  0  0
   35.8350   28.0870   42.2890 F   0  0  0  0  0  0  0  0  0  0  0  0
   36.2410   27.5740   40.0780 F   0  0  0  0  0  0  0  0  0  0  0  0
  1  2  1  0  0  0  0
  1  7  1  0  0  0  0
  2  9  1  0  0  0  0
  3 16  1  0  0  0  0
  3  2  2  0  0  0  0
  4  5  2  0  0  0  0
  4  3  1  0  0  0  0
  5  6  1  0  0  0  0
  6  1  2  0  0  0  0
  8  5  1  0  0  0  0
  9 10  1  0  0  0  0
 10 11  2  0  0  0  0
 11 12  1  0  0  0  0
 13 11  1  0  0  0  0
 14 13  2  0  0  0  0
 15 14  1  0  0  0  0
 15  9  2  0  0  0  0
 16 18  1  0  0  0  0
 17 16  1  0  0  0  0
 19 16  1  0  0  0  0
M  END
>  <minimizedAffinity>
-4.34799051

$$$$

 OpenBabel03252501183D

 19 20  0  0  0  0  0  0  0  0999 V2000
   37.3540   30.8420   37.2880 C   0  0  0  0  0  0  0  0  0  0  0  0
   37.1890   30.8830   38.6970 C   0  0  0  0  0  0  0  0  0  0  0  0
   36.2790   29.9560   39.1920 C   0  0  0  0  0  0  0  0  0  0  0  0
   35.6350   29.1050   38.3240 N   0  0  0  0  0  0  0  0  0  0  0  0
   35.8410   29.1220   36.9950 C   0  0  0  0  0  0  0  0  0  0  0  0
   36.7110   30.0040   36.4840 N   0  0  0  0  0  0  0  0  0  0  0  0
   38.0010   31.4690   36.7010 H   0  0  0  0  0  0  0  0  0  0  0  0
   35.2110   28.3570   36.5620 H   0  0  0  0  0  0  0  0  0  0  0  0
   37.9500   31.8650   39.4430 C   0  0  0  0  0  0  0  0  0  0  0  0
   37.5690   33.1790   39.4680 C   0  0  0  0  0  3  0  0  0  0  0  0
   38.2350   34.1610   40.1440 C   0  0  0  0  0  0  0  0  0  0  0  0
   37.9770   35.2000   40.1930 H   0  0  0  0  0  0  0  0  0  0  0  0
   39.3610   33.8460   40.8520 N   0  0  0  0  0  0  0  0  0  0  0  0
   39.7560   32.5540   40.8410 C   0  0  0  0  0  3  0  0  0  0  0  0
   39.0540   31.6500   40.1590 N   0  0  0  0  0  0  0  0  0  0  0  0
   36.0860   29.9730   40.6450 C   0  0  0  0  0  0  0  0  0  0  0  0
   37.2300   29.4630   41.2720 F   0  0  0  0  0  0  0  0  0  0  0  0
   35.0990   29.0490   40.9190 F   0  0  0  0  0  0  0  0  0  0  0  0
   35.8720   31.2090   41.1500 F   0  0  0  0  0  0  0  0  0  0  0  0
  1  2  1  0  0  0  0
  2  3  2  0  0  0  0
  2  9  1  0  0  0  0
  3 16  1  0  0  0  0
  4  3  1  0  0  0  0
  5  4  2  0  0  0  0
  6  5  1  0  0  0  0
  6  1  2  0  0  0  0
  7  1  1  0  0  0  0
  8  5  1  0  0  0  0
  9 10  2  0  0  0  0
  9 15  1  0  0  0  0
 10 11  1  0  0  0  0
 11 12  1  0  0  0  0
 11 13  2  0  0  0  0
 14 13  1  0  0  0  0
 15 14  2  0  0  0  0
 16 18  1  0  0  0  0
 16 19  1  0  0  0  0
 16 17  1  0  0  0  0
M  END
>  <minimizedAffinity>
-4.32676172

$$$$

 OpenBabel03252501183D

 19 20  0  0  0  0  0  0  0  0999 V2000
   39.1750   29.0460   42.6560 C   0  0  0  0  0  0  0  0  0  0  0  0
   38.3100   29.7050   41.7430 C   0  0  0  0  0  0  0  0  0  0  0  0
   37.0260   29.1740   41.6890 C   0  0  0  0  0  0  0  0  0  0  0  0
   36.7010   28.1000   42.4850 N   0  0  0  0  0  0  0  0  0  0  0  0
   37.5740   27.5240   43.3300 C   0  0  0  0  0  0  0  0  0  0  0  0
   38.8200   28.0110   43.4070 N   0  0  0  0  0  0  0  0  0  0  0  0
   40.2030   29.2890   42.8520 H   0  0  0  0  0  0  0  0  0  0  0  0
   37.0560   26.7120   43.8230 H   0  0  0  0  0  0  0  0  0  0  0  0
   38.8440   30.8140   40.9800 C   0  0  0  0  0  0  0  0  0  0  0  0
   39.5470   30.5990   39.8260 C   0  0  0  0  0  3  0  0  0  0  0  0
   40.0830   31.5910   39.0550 C   0  0  0  0  0  0  0  0  0  0  0  0
   40.6400   31.4740   38.1470 H   0  0  0  0  0  0  0  0  0  0  0  0
   39.9270   32.8960   39.4320 N   0  0  0  0  0  0  0  0  0  0  0  0
   39.2360   33.1310   40.5690 C   0  0  0  0  0  3  0  0  0  0  0  0
   38.7420   32.1120   41.2690 N   0  0  0  0  0  0  0  0  0  0  0  0
   36.1090   29.8330   40.7560 C   0  0  0  0  0  0  0  0  0  0  0  0
   34.8710   29.1770   40.7800 F   0  0  0  0  0  0  0  0  0  0  0  0
   36.6020   29.5960   39.4890 F   0  0  0  0  0  0  0  0  0  0  0  0
   35.8770   31.1320   41.0480 F   0  0  0  0  0  0  0  0  0  0  0  0
  1  7  1  0  0  0  0
  1  6  1  0  0  0  0
  2  1  2  0  0  0  0
  3  2  1  0  0  0  0
  3  4  2  0  0  0  0
  4  5  1  0  0  0  0
  5  6  2  0  0  0  0
  5  8  1  0  0  0  0
  9 15  1  0  0  0  0
  9  2  1  0  0  0  0
 10  9  2  0  0  0  0
 11 13  2  0  0  0  0
 11 10  1  0  0  0  0
 12 11  1  0  0  0  0
 13 14  1  0  0  0  0
 14 15  2  0  0  0  0
 16 17  1  0  0  0  0
 16 19  1  0  0  0  0
 16  3  1  0  0  0  0
 18 16  1  0  0  0  0
M  END
>  <minimizedAffinity>
-4.28730345

$$$$

 OpenBabel03252501183D

 19 20  0  0  0  0  0  0  0  0999 V2000
   36.1940   27.8430   39.9060 C   0  0  0  0  0  0  0  0  0  0  0  0
   37.1250   27.6040   40.9520 C   0  0  0  0  0  0  0  0  0  0  0  0
   37.3540   28.7000   41.7750 C   0  0  0  0  0  0  0  0  0  0  0  0
   36.6930   29.8830   41.5310 N   0  0  0  0  0  0  0  0  0  0  0  0
   35.8210   30.0390   40.5180 C   0  0  0  0  0  0  0  0  0  0  0  0
   35.5780   29.0010   39.7060 N   0  0  0  0  0  0  0  0  0  0  0  0
   35.8760   27.1390   39.1590 H   0  0  0  0  0  0  0  0  0  0  0  0
   35.4570   31.0560   40.5630 H   0  0  0  0  0  0  0  0  0  0  0  0
   37.7290   26.2890   41.0360 C   0  0  0  0  0  0  0  0  0  0  0  0
   37.0800   25.2560   41.6560 C   0  0  0  0  0  3  0  0  0  0  0  0
   37.5850   23.9940   41.7790 C   0  0  0  0  0  0  0  0  0  0  0  0
   37.1180   23.1540   42.2540 H   0  0  0  0  0  0  0  0  0  0  0  0
   38.8170   23.7070   41.2610 N   0  0  0  0  0  0  0  0  0  0  0  0
   39.4760   24.7130   40.6440 C   0  0  0  0  0  3  0  0  0  0  0  0
   38.9190   25.9200   40.5630 N   0  0  0  0  0  0  0  0  0  0  0  0
   38.3100   28.4850   42.8640 C   0  0  0  0  0  0  0  0  0  0  0  0
   38.3660   29.6310   43.6670 F   0  0  0  0  0  0  0  0  0  0  0  0
   39.5580   28.4090   42.2800 F   0  0  0  0  0  0  0  0  0  0  0  0
   37.9900   27.4480   43.6710 F   0  0  0  0  0  0  0  0  0  0  0  0
  1  2  1  0  0  0  0
  2  9  1  0  0  0  0
  2  3  2  0  0  0  0
  3 16  1  0  0  0  0
  4  3  1  0  0  0  0
  5  8  1  0  0  0  0
  5  4  2  0  0  0  0
  6  1  2  0  0  0  0
  6  5  1  0  0  0  0
  7  1  1  0  0  0  0
  9 10  1  0  0  0  0
 10 11  2  0  0  0  0
 11 12  1  0  0  0  0
 13 11  1  0  0  0  0
 14 13  2  0  0  0  0
 15 14  1  0  0  0  0
 15  9  2  0  0  0  0
 16 17  1  0  0  0  0
 16 19  1  0  0  0  0
 18 16  1  0  0  0  0
M  END
>  <minimizedAffinity>
-4.28358984

$$$$

 OpenBabel03252501183D

 19 20  0  0  0  0  0  0  0  0999 V2000
   37.5650   28.4040   38.6630 C   0  0  0  0  0  0  0  0  0  0  0  0
   37.4380   29.2800   39.7730 C   0  0  0  0  0  0  0  0  0  0  0  0
   37.1830   30.6030   39.4300 C   0  0  0  0  0  0  0  0  0  0  0  0
   37.0750   30.9520   38.1040 N   0  0  0  0  0  0  0  0  0  0  0  0
   37.2070   30.0660   37.1000 C   0  0  0  0  0  0  0  0  0  0  0  0
   37.4540   28.7830   37.3960 N   0  0  0  0  0  0  0  0  0  0  0  0
   37.7640   27.3480   38.7010 H   0  0  0  0  0  0  0  0  0  0  0  0
   37.0770   30.6090   36.1740 H   0  0  0  0  0  0  0  0  0  0  0  0
   37.5990   28.7230   41.1010 C   0  0  0  0  0  0  0  0  0  0  0  0
   36.5480   28.1290   41.7460 C   0  0  0  0  0  3  0  0  0  0  0  0
   36.6210   27.5860   42.9970 C   0  0  0  0  0  0  0  0  0  0  0  0
   35.8290   27.1120   43.5420 H   0  0  0  0  0  0  0  0  0  0  0  0
   37.8050   27.6210   43.6790 N   0  0  0  0  0  0  0  0  0  0  0  0
   38.8560   28.2030   43.0610 C   0  0  0  0  0  3  0  0  0  0  0  0
   38.7100   28.7120   41.8390 N   0  0  0  0  0  0  0  0  0  0  0  0
   37.0460   31.5330   40.5550 C   0  0  0  0  0  0  0  0  0  0  0  0
   36.8300   32.8260   40.0640 F   0  0  0  0  0  0  0  0  0  0  0  0
   38.2830   31.5940   41.1630 F   0  0  0  0  0  0  0  0  0  0  0  0
   36.0150   31.2410   41.3790 F   0  0  0  0  0  0  0  0  0  0  0  0
  1  7  1  0  0  0  0
  1  2  1  0  0  0  0
  2  9  1  0  0  0  0
  3  2  2  0  0  0  0
  3 16  1  0  0  0  0
  4  3  1  0  0  0  0
  5  6  1  0  0  0  0
  5  4  2  0  0  0  0
  6  1  2  0  0  0  0
  8  5  1  0  0  0  0
  9 10  2  0  0  0  0
  9 15  1  0  0  0  0
 10 11  1  0  0  0  0
 11 12  1  0  0  0  0
 11 13  2  0  0  0  0
 14 13  1  0  0  0  0
 15 14  2  0  0  0  0
 16 18  1  0  0  0  0
 16 19  1  0  0  0  0
 17 16  1  0  0  0  0
M  END
>  <minimizedAffinity>
-4.27270603

$$$$

 OpenBabel03252501183D

 19 20  0  0  0  0  0  0  0  0999 V2000
   39.1620   27.2400   40.0900 C   0  0  0  0  0  0  0  0  0  0  0  0
   38.2030   27.9330   40.8750 C   0  0  0  0  0  0  0  0  0  0  0  0
   37.6970   27.1960   41.9400 C   0  0  0  0  0  0  0  0  0  0  0  0
   38.1400   25.9100   42.1480 N   0  0  0  0  0  0  0  0  0  0  0  0
   39.0550   25.3150   41.3610 C   0  0  0  0  0  0  0  0  0  0  0  0
   39.5630   25.9970   40.3260 N   0  0  0  0  0  0  0  0  0  0  0  0
   39.6750   27.6190   39.2250 H   0  0  0  0  0  0  0  0  0  0  0  0
   39.2140   24.3190   41.7510 H   0  0  0  0  0  0  0  0  0  0  0  0
   37.8550   29.2850   40.4870 C   0  0  0  0  0  0  0  0  0  0  0  0
   37.0500   29.5200   39.4060 C   0  0  0  0  0  3  0  0  0  0  0  0
   36.6810   30.7620   38.9760 C   0  0  0  0  0  0  0  0  0  0  0  0
   36.0550   30.9970   38.1390 H   0  0  0  0  0  0  0  0  0  0  0  0
   37.1270   31.8670   39.6470 N   0  0  0  0  0  0  0  0  0  0  0  0
   37.9230   31.6580   40.7190 C   0  0  0  0  0  3  0  0  0  0  0  0
   38.2410   30.4150   41.0780 N   0  0  0  0  0  0  0  0  0  0  0  0
   36.7040   27.8840   42.7690 C   0  0  0  0  0  0  0  0  0  0  0  0
   36.1340   26.9700   43.6640 F   0  0  0  0  0  0  0  0  0  0  0  0
   35.6700   28.2390   41.9290 F   0  0  0  0  0  0  0  0  0  0  0  0
   37.2180   28.8950   43.5060 F   0  0  0  0  0  0  0  0  0  0  0  0
  1  6  2  0  0  0  0
  1  2  1  0  0  0  0
  2  3  2  0  0  0  0
  3  4  1  0  0  0  0
  3 16  1  0  0  0  0
  5  8  1  0  0  0  0
  5  4  2  0  0  0  0
  6  5  1  0  0  0  0
  7  1  1  0  0  0  0
  9  2  1  0  0  0  0
  9 15  1  0  0  0  0
 10  9  2  0  0  0  0
 11 10  1  0  0  0  0
 11 13  2  0  0  0  0
 12 11  1  0  0  0  0
 13 14  1  0  0  0  0
 14 15  2  0  0  0  0
 16 19  1  0  0  0  0
 16 17  1  0  0  0  0
 18 16  1  0  0  0  0
M  END
>  <minimizedAffinity>
-4.12667179

$$$$

 OpenBabel03252501183D

 19 20  0  0  0  0  0  0  0  0999 V2000
   36.2900   27.0950   39.1790 C   0  0  0  0  0  0  0  0  0  0  0  0
   36.8610   26.5220   40.3460 C   0  0  0  0  0  0  0  0  0  0  0  0
   36.8070   25.1340   40.3850 C   0  0  0  0  0  0  0  0  0  0  0  0
   36.2330   24.4460   39.3410 N   0  0  0  0  0  0  0  0  0  0  0  0
   35.7100   25.0560   38.2620 C   0  0  0  0  0  0  0  0  0  0  0  0
   35.7450   26.3940   38.1930 N   0  0  0  0  0  0  0  0  0  0  0  0
   36.2230   28.1430   38.9470 H   0  0  0  0  0  0  0  0  0  0  0  0
   35.3320   24.2830   37.6070 H   0  0  0  0  0  0  0  0  0  0  0  0
   37.4070   27.4170   41.3460 C   0  0  0  0  0  0  0  0  0  0  0  0
   38.6140   28.0320   41.1560 C   0  0  0  0  0  3  0  0  0  0  0  0
   39.1940   28.8840   42.0510 C   0  0  0  0  0  0  0  0  0  0  0  0
   40.1340   29.3870   41.9480 H   0  0  0  0  0  0  0  0  0  0  0  0
   38.5540   29.1630   43.2270 N   0  0  0  0  0  0  0  0  0  0  0  0
   37.3600   28.5670   43.4360 C   0  0  0  0  0  3  0  0  0  0  0  0
   36.8560   27.7470   42.5150 N   0  0  0  0  0  0  0  0  0  0  0  0
   37.3880   24.5120   41.5780 C   0  0  0  0  0  0  0  0  0  0  0  0
   37.4800   23.1280   41.3820 F   0  0  0  0  0  0  0  0  0  0  0  0
   36.4600   24.6590   42.5880 F   0  0  0  0  0  0  0  0  0  0  0  0
   38.6310   24.9560   41.8710 F   0  0  0  0  0  0  0  0  0  0  0  0
  1  2  1  0  0  0  0
  2  3  2  0  0  0  0
  2  9  1  0  0  0  0
  3 16  1  0  0  0  0
  4  3  1  0  0  0  0
  5  4  2  0  0  0  0
  6  5  1  0  0  0  0
  6  1  2  0  0  0  0
  7  1  1  0  0  0  0
  8  5  1  0  0  0  0
  9 15  1  0  0  0  0
 10  9  2  0  0  0  0
 10 11  1  0  0  0  0
 11 13  2  0  0  0  0
 12 11  1  0  0  0  0
 13 14  1  0  0  0  0
 15 14  2  0  0  0  0
 16 19  1  0  0  0  0
 16 18  1  0  0  0  0
 17 16  1  0  0  0  0
M  END
>  <minimizedAffinity>
-4.11243343

$$$$
