
 OpenBabel03242521063D

 32 35  0  0  1  0  0  0  0  0999 V2000
   38.5820   24.8900   41.9550 C   0  0  0  0  0  0  0  0  0  0  0  0
   39.5990   24.4030   42.7660 C   0  0  0  0  0  0  0  0  0  0  0  0
   40.3680   25.1620   43.6110 C   0  0  0  0  0  0  0  0  0  0  0  0
   40.1320   26.5220   43.6790 C   0  0  0  0  0  0  0  0  0  0  0  0
   39.1160   26.9840   42.8660 C   0  0  0  0  0  0  0  0  0  0  0  0
   38.3900   26.2130   42.0560 N   0  0  0  0  0  0  0  0  0  0  0  0
   39.8350   23.3460   42.7590 H   0  0  0  0  0  0  0  0  0  0  0  0
   41.1490   24.7270   44.2200 H   0  0  0  0  0  0  0  0  0  0  0  0
   40.7170   27.1570   44.3360 H   0  0  0  0  0  0  0  0  0  0  0  0
   35.9080   23.3680   39.7900 C   0  0  0  0  0  0  0  0  0  0  0  0
   36.5180   24.3050   40.6370 C   0  0  0  0  0  0  0  0  0  0  0  0
   37.8000   24.0400   41.0790 C   0  0  0  0  0  0  0  0  0  0  0  0
   38.3910   22.8940   40.6690 N   0  0  0  0  0  0  0  0  0  0  0  0
   37.7800   22.0030   39.8490 C   0  0  0  0  0  0  0  0  0  0  0  0
   36.5340   22.2630   39.4220 N   0  0  0  0  0  0  0  0  0  0  0  0
   34.8970   23.6530   39.4870 H   0  0  0  0  0  0  0  0  0  0  0  0
   36.0590   25.2380   40.9820 H   0  0  0  0  0  0  0  0  0  0  0  0
   38.2960   21.0950   39.5460 H   0  0  0  0  0  0  0  0  0  0  0  0
   38.8280   28.4540   42.9110 C   0  0  2  0  0  0  0  0  0  0  0  0
   37.5950   28.8430   43.6710 C   0  0  0  0  0  0  0  0  0  0  0  0
   37.6550   28.9630   42.1810 C   0  0  1  0  0  0  0  0  0  0  0  0
   39.6910   29.1340   43.0860 H   0  0  0  0  0  0  0  0  0  0  0  0
   36.9680   28.0910   44.1560 H   0  0  0  0  0  0  0  0  0  0  0  0
   37.5650   29.8230   44.2190 H   0  0  0  0  0  0  0  0  0  0  0  0
   37.0560   28.2830   41.5300 H   0  0  0  0  0  0  0  0  0  0  0  0
   37.8300   30.3010   41.5470 C   0  0  0  0  0  0  0  0  0  0  0  0
   36.7720   30.8640   40.8420 C   0  0  0  0  0  3  0  0  0  0  0  0
   36.9210   32.1170   40.2440 C   0  0  0  0  0  0  0  0  0  0  0  0
   36.0660   32.5050   39.7100 H   0  0  0  0  0  0  0  0  0  0  0  0
   38.0950   32.7630   40.3620 N   0  0  0  0  0  0  0  0  0  0  0  0
   39.1140   32.2110   41.0440 C   0  0  0  0  0  3  0  0  0  0  0  0
   39.0060   30.9890   41.6430 N   0  0  0  0  0  0  0  0  0  0  0  0
  1  6  2  0  0  0  0
  1  2  1  0  0  0  0
  2  3  2  0  0  0  0
  3  4  1  0  0  0  0
  3  8  1  0  0  0  0
  4  9  1  0  0  0  0
  5 19  1  0  0  0  0
  5  4  2  0  0  0  0
  6  5  1  0  0  0  0
  7  2  1  0  0  0  0
 10 11  1  0  0  0  0
 11 17  1  0  0  0  0
 11 12  2  0  0  0  0
 12  1  1  0  0  0  0
 13 12  1  0  0  0  0
 14 13  2  0  0  0  0
 15 10  2  0  0  0  0
 15 14  1  0  0  0  0
 16 10  1  0  0  0  0
 18 14  1  0  0  0  0
 19 22  1  1  0  0  0
 19 20  1  0  0  0  0
 20 23  1  0  0  0  0
 20 24  1  0  0  0  0
 21 25  1  6  0  0  0
 21 19  1  0  0  0  0
 21 20  1  0  0  0  0
 26 32  1  0  0  0  0
 26 21  1  0  0  0  0
 27 26  2  0  0  0  0
 28 30  2  0  0  0  0
 28 27  1  0  0  0  0
 29 28  1  0  0  0  0
 30 31  1  0  0  0  0
 31 32  2  0  0  0  0
M  END
>  <minimizedAffinity>
-5.55516005

$$$$

 OpenBabel03242521063D

 32 35  0  0  1  0  0  0  0  0999 V2000
   39.2140   31.7920   41.1130 C   0  0  0  0  0  0  0  0  0  0  0  0
   38.1690   32.4630   40.4920 C   0  0  0  0  0  0  0  0  0  0  0  0
   36.8810   32.0000   40.3940 C   0  0  0  0  0  0  0  0  0  0  0  0
   36.5740   30.7720   40.9500 C   0  0  0  0  0  0  0  0  0  0  0  0
   37.6280   30.1240   41.5620 C   0  0  0  0  0  0  0  0  0  0  0  0
   38.8690   30.6070   41.6360 N   0  0  0  0  0  0  0  0  0  0  0  0
   38.3420   33.4300   40.0360 H   0  0  0  0  0  0  0  0  0  0  0  0
   36.1050   32.5680   39.8980 H   0  0  0  0  0  0  0  0  0  0  0  0
   35.5680   30.3720   40.8950 H   0  0  0  0  0  0  0  0  0  0  0  0
   42.8610   32.4040   41.8100 C   0  0  0  0  0  0  0  0  0  0  0  0
   41.6240   31.7420   41.8400 C   0  0  0  0  0  0  0  0  0  0  0  0
   40.5590   32.3300   41.1860 C   0  0  0  0  0  0  0  0  0  0  0  0
   40.7710   33.5070   40.5540 N   0  0  0  0  0  0  0  0  0  0  0  0
   41.9770   34.1280   40.5380 C   0  0  0  0  0  0  0  0  0  0  0  0
   43.0100   33.5540   41.1760 N   0  0  0  0  0  0  0  0  0  0  0  0
   43.6490   31.8730   42.3510 H   0  0  0  0  0  0  0  0  0  0  0  0
   41.4290   30.7890   42.3460 H   0  0  0  0  0  0  0  0  0  0  0  0
   42.0990   35.0740   40.0160 H   0  0  0  0  0  0  0  0  0  0  0  0
   37.3370   28.7890   42.1780 C   0  0  2  0  0  0  0  0  0  0  0  0
   37.5000   28.7200   43.6660 C   0  0  0  0  0  0  0  0  0  0  0  0
   38.4550   28.0210   42.7510 C   0  0  1  0  0  0  0  0  0  0  0  0
   36.4440   28.2420   41.8010 H   0  0  0  0  0  0  0  0  0  0  0  0
   37.8040   29.5960   44.2440 H   0  0  0  0  0  0  0  0  0  0  0  0
   36.8420   28.0360   44.2670 H   0  0  0  0  0  0  0  0  0  0  0  0
   39.5050   28.3820   42.6400 H   0  0  0  0  0  0  0  0  0  0  0  0
   38.3710   26.5440   42.5730 C   0  0  0  0  0  0  0  0  0  0  0  0
   37.1740   25.9760   42.1480 C   0  0  0  0  0  3  0  0  0  0  0  0
   37.0800   24.5930   41.9760 C   0  0  0  0  0  0  0  0  0  0  0  0
   36.1270   24.2090   41.6440 H   0  0  0  0  0  0  0  0  0  0  0  0
   38.1570   23.8280   42.2270 N   0  0  0  0  0  0  0  0  0  0  0  0
   39.3100   24.3840   42.6400 C   0  0  0  0  0  3  0  0  0  0  0  0
   39.4410   25.7310   42.8170 N   0  0  0  0  0  0  0  0  0  0  0  0
  1 12  1  0  0  0  0
  1  6  1  0  0  0  0
  2  1  2  0  0  0  0
  3  2  1  0  0  0  0
  3  4  2  0  0  0  0
  4  5  1  0  0  0  0
  5  6  2  0  0  0  0
  5 19  1  0  0  0  0
  7  2  1  0  0  0  0
  8  3  1  0  0  0  0
  9  4  1  0  0  0  0
 10 11  1  0  0  0  0
 10 16  1  0  0  0  0
 11 17  1  0  0  0  0
 12 11  2  0  0  0  0
 13 12  1  0  0  0  0
 14 13  2  0  0  0  0
 14 15  1  0  0  0  0
 15 10  2  0  0  0  0
 18 14  1  0  0  0  0
 19 22  1  6  0  0  0
 19 21  1  0  0  0  0
 19 20  1  0  0  0  0
 20 23  1  0  0  0  0
 20 24  1  0  0  0  0
 21 25  1  6  0  0  0
 21 20  1  0  0  0  0
 26 21  1  0  0  0  0
 26 32  1  0  0  0  0
 27 26  2  0  0  0  0
 28 27  1  0  0  0  0
 28 30  2  0  0  0  0
 29 28  1  0  0  0  0
 30 31  1  0  0  0  0
 31 32  2  0  0  0  0
M  END
>  <minimizedAffinity>
-5.49663401

$$$$

 OpenBabel03242521063D

 32 35  0  0  1  0  0  0  0  0999 V2000
   37.8410   29.2770   41.4650 C   0  0  0  0  0  0  0  0  0  0  0  0
   36.5570   29.6470   41.0900 C   0  0  0  0  0  0  0  0  0  0  0  0
   36.1960   30.8860   40.6250 C   0  0  0  0  0  0  0  0  0  0  0  0
   37.1700   31.8610   40.5130 C   0  0  0  0  0  0  0  0  0  0  0  0
   38.4390   31.4710   40.8900 C   0  0  0  0  0  0  0  0  0  0  0  0
   38.7510   30.2540   41.3380 N   0  0  0  0  0  0  0  0  0  0  0  0
   35.7480   28.9300   41.1540 H   0  0  0  0  0  0  0  0  0  0  0  0
   35.1770   31.1190   40.3470 H   0  0  0  0  0  0  0  0  0  0  0  0
   36.9250   32.8530   40.1490 H   0  0  0  0  0  0  0  0  0  0  0  0
   37.8850   25.6020   42.2720 C   0  0  0  0  0  0  0  0  0  0  0  0
   37.4220   26.8080   41.7240 C   0  0  0  0  0  0  0  0  0  0  0  0
   38.1660   27.9500   41.9500 C   0  0  0  0  0  0  0  0  0  0  0  0
   39.2970   27.8380   42.6840 N   0  0  0  0  0  0  0  0  0  0  0  0
   39.7250   26.6600   43.2030 C   0  0  0  0  0  0  0  0  0  0  0  0
   38.9990   25.5520   42.9820 N   0  0  0  0  0  0  0  0  0  0  0  0
   37.2390   24.7490   42.0480 H   0  0  0  0  0  0  0  0  0  0  0  0
   36.5090   26.9220   41.1280 H   0  0  0  0  0  0  0  0  0  0  0  0
   40.6410   26.6200   43.7870 H   0  0  0  0  0  0  0  0  0  0  0  0
   39.5240   32.4990   40.7830 C   0  0  2  0  0  0  0  0  0  0  0  0
   39.0530   33.9180   40.6730 C   0  0  0  0  0  0  0  0  0  0  0  0
   39.6840   33.2210   39.5100 C   0  0  1  0  0  0  0  0  0  0  0  0
   40.4080   32.3730   41.4470 H   0  0  0  0  0  0  0  0  0  0  0  0
   37.9890   34.1640   40.6800 H   0  0  0  0  0  0  0  0  0  0  0  0
   39.6710   34.7450   41.1150 H   0  0  0  0  0  0  0  0  0  0  0  0
   39.0760   32.9370   38.6180 H   0  0  0  0  0  0  0  0  0  0  0  0
   41.0910   33.5330   39.1270 C   0  0  0  0  0  0  0  0  0  0  0  0
   42.0400   33.7320   40.1250 C   0  0  0  0  0  3  0  0  0  0  0  0
   43.3610   34.0250   39.7820 C   0  0  0  0  0  0  0  0  0  0  0  0
   44.0540   34.1690   40.5980 H   0  0  0  0  0  0  0  0  0  0  0  0
   43.6960   34.1110   38.4820 N   0  0  0  0  0  0  0  0  0  0  0  0
   42.7720   33.9190   37.5240 C   0  0  0  0  0  3  0  0  0  0  0  0
   41.4720   33.6290   37.8190 N   0  0  0  0  0  0  0  0  0  0  0  0
  1 12  1  0  0  0  0
  2  7  1  0  0  0  0
  2  1  2  0  0  0  0
  3  2  1  0  0  0  0
  4  3  2  0  0  0  0
  4  5  1  0  0  0  0
  5  6  2  0  0  0  0
  6  1  1  0  0  0  0
  8  3  1  0  0  0  0
  9  4  1  0  0  0  0
 10 15  1  0  0  0  0
 11 12  1  0  0  0  0
 11 10  2  0  0  0  0
 12 13  2  0  0  0  0
 13 14  1  0  0  0  0
 14 18  1  0  0  0  0
 15 14  2  0  0  0  0
 16 10  1  0  0  0  0
 17 11  1  0  0  0  0
 19  5  1  0  0  0  0
 19 22  1  1  0  0  0
 20 23  1  0  0  0  0
 20 19  1  0  0  0  0
 20 24  1  0  0  0  0
 21 25  1  6  0  0  0
 21 20  1  0  0  0  0
 21 19  1  0  0  0  0
 26 21  1  0  0  0  0
 26 27  1  0  0  0  0
 28 27  2  0  0  0  0
 28 29  1  0  0  0  0
 30 28  1  0  0  0  0
 31 32  1  0  0  0  0
 31 30  2  0  0  0  0
 32 26  2  0  0  0  0
M  END
>  <minimizedAffinity>
-5.25500298

$$$$

 OpenBabel03242521063D

 32 35  0  0  1  0  0  0  0  0999 V2000
   37.6570   26.1760   41.8200 C   0  0  0  0  0  0  0  0  0  0  0  0
   36.8860   26.5070   42.9270 C   0  0  0  0  0  0  0  0  0  0  0  0
   36.8940   27.7240   43.5590 C   0  0  0  0  0  0  0  0  0  0  0  0
   37.7260   28.7160   43.0760 C   0  0  0  0  0  0  0  0  0  0  0  0
   38.4820   28.3660   41.9750 C   0  0  0  0  0  0  0  0  0  0  0  0
   38.4470   27.1690   41.3870 N   0  0  0  0  0  0  0  0  0  0  0  0
   36.2130   25.7740   43.3540 H   0  0  0  0  0  0  0  0  0  0  0  0
   36.2700   27.9260   44.4200 H   0  0  0  0  0  0  0  0  0  0  0  0
   37.7610   29.6930   43.5470 H   0  0  0  0  0  0  0  0  0  0  0  0
   38.4070   22.7180   40.5390 C   0  0  0  0  0  0  0  0  0  0  0  0
   38.6250   23.9350   41.2020 C   0  0  0  0  0  0  0  0  0  0  0  0
   37.6080   24.8700   41.1910 C   0  0  0  0  0  0  0  0  0  0  0  0
   36.4620   24.5570   40.5430 N   0  0  0  0  0  0  0  0  0  0  0  0
   36.2750   23.3730   39.9090 C   0  0  0  0  0  0  0  0  0  0  0  0
   37.2650   22.4670   39.9210 N   0  0  0  0  0  0  0  0  0  0  0  0
   39.2590   22.0360   40.5950 H   0  0  0  0  0  0  0  0  0  0  0  0
   39.5440   24.2110   41.7320 H   0  0  0  0  0  0  0  0  0  0  0  0
   35.3350   23.1670   39.4020 H   0  0  0  0  0  0  0  0  0  0  0  0
   39.3980   29.4140   41.4200 C   0  0  2  0  0  0  0  0  0  0  0  0
   40.6560   29.6450   42.2030 C   0  0  0  0  0  0  0  0  0  0  0  0
   39.5660   30.6690   42.1710 C   0  0  1  0  0  0  0  0  0  0  0  0
   39.5520   29.4200   40.3180 H   0  0  0  0  0  0  0  0  0  0  0  0
   40.8730   29.0720   43.1070 H   0  0  0  0  0  0  0  0  0  0  0  0
   41.5970   29.9450   41.6680 H   0  0  0  0  0  0  0  0  0  0  0  0
   38.9500   30.8710   43.0790 H   0  0  0  0  0  0  0  0  0  0  0  0
   39.7190   31.8950   41.3380 C   0  0  0  0  0  0  0  0  0  0  0  0
   38.5840   32.5790   40.9170 C   0  0  0  0  0  3  0  0  0  0  0  0
   38.7120   33.7300   40.1370 C   0  0  0  0  0  0  0  0  0  0  0  0
   37.7960   34.2190   39.8400 H   0  0  0  0  0  0  0  0  0  0  0  0
   39.9420   34.1590   39.8010 N   0  0  0  0  0  0  0  0  0  0  0  0
   41.0350   33.4910   40.2100 C   0  0  0  0  0  3  0  0  0  0  0  0
   40.9500   32.3640   40.9750 N   0  0  0  0  0  0  0  0  0  0  0  0
  1  2  1  0  0  0  0
  2  7  1  0  0  0  0
  2  3  2  0  0  0  0
  3  8  1  0  0  0  0
  4  9  1  0  0  0  0
  4  3  1  0  0  0  0
  5  4  2  0  0  0  0
  6  1  2  0  0  0  0
  6  5  1  0  0  0  0
 10 16  1  0  0  0  0
 10 11  1  0  0  0  0
 11 17  1  0  0  0  0
 12 11  2  0  0  0  0
 12  1  1  0  0  0  0
 13 12  1  0  0  0  0
 14 15  1  0  0  0  0
 14 13  2  0  0  0  0
 15 10  2  0  0  0  0
 18 14  1  0  0  0  0
 19 22  1  6  0  0  0
 19  5  1  0  0  0  0
 19 21  1  0  0  0  0
 19 20  1  0  0  0  0
 20 23  1  0  0  0  0
 21 20  1  0  0  0  0
 21 25  1  1  0  0  0
 24 20  1  0  0  0  0
 26 21  1  0  0  0  0
 27 26  2  0  0  0  0
 28 27  1  0  0  0  0
 29 28  1  0  0  0  0
 30 28  2  0  0  0  0
 30 31  1  0  0  0  0
 31 32  2  0  0  0  0
 32 26  1  0  0  0  0
M  END
>  <minimizedAffinity>
-5.22169542

$$$$

 OpenBabel03242521063D

 32 35  0  0  1  0  0  0  0  0999 V2000
   39.0920   31.3880   39.1260 C   0  0  0  0  0  0  0  0  0  0  0  0
   38.1100   32.3690   39.1350 C   0  0  0  0  0  0  0  0  0  0  0  0
   36.9630   32.3310   39.8860 C   0  0  0  0  0  0  0  0  0  0  0  0
   36.7440   31.2400   40.7070 C   0  0  0  0  0  0  0  0  0  0  0  0
   37.7340   30.2780   40.6820 C   0  0  0  0  0  0  0  0  0  0  0  0
   38.8370   30.3500   39.9360 N   0  0  0  0  0  0  0  0  0  0  0  0
   38.2210   33.2500   38.5150 H   0  0  0  0  0  0  0  0  0  0  0  0
   36.2310   33.1270   39.8540 H   0  0  0  0  0  0  0  0  0  0  0  0
   35.8500   31.1730   41.3170 H   0  0  0  0  0  0  0  0  0  0  0  0
   42.0740   32.5570   37.1500 C   0  0  0  0  0  0  0  0  0  0  0  0
   40.9250   32.6520   37.9490 C   0  0  0  0  0  0  0  0  0  0  0  0
   40.2870   31.4800   38.3090 C   0  0  0  0  0  0  0  0  0  0  0  0
   40.8090   30.3110   37.8730 N   0  0  0  0  0  0  0  0  0  0  0  0
   41.9230   30.2440   37.1010 C   0  0  0  0  0  0  0  0  0  0  0  0
   42.5400   31.3850   36.7520 N   0  0  0  0  0  0  0  0  0  0  0  0
   42.5160   33.5270   36.9100 H   0  0  0  0  0  0  0  0  0  0  0  0
   40.4830   33.5870   38.3130 H   0  0  0  0  0  0  0  0  0  0  0  0
   42.3060   29.2800   36.7750 H   0  0  0  0  0  0  0  0  0  0  0  0
   37.5340   29.0780   41.5570 C   0  0  2  0  0  0  0  0  0  0  0  0
   38.0670   29.2070   42.9530 C   0  0  0  0  0  0  0  0  0  0  0  0
   38.7160   28.2970   41.9580 C   0  0  1  0  0  0  0  0  0  0  0  0
   36.5450   28.5710   41.5040 H   0  0  0  0  0  0  0  0  0  0  0  0
   38.5570   30.1240   43.2890 H   0  0  0  0  0  0  0  0  0  0  0  0
   37.5460   28.6830   43.7980 H   0  0  0  0  0  0  0  0  0  0  0  0
   39.7210   28.5360   41.5380 H   0  0  0  0  0  0  0  0  0  0  0  0
   38.5050   26.8240   42.0490 C   0  0  0  0  0  0  0  0  0  0  0  0
   37.2080   26.3220   42.0810 C   0  0  0  0  0  3  0  0  0  0  0  0
   36.9950   24.9440   42.1650 C   0  0  0  0  0  0  0  0  0  0  0  0
   35.9670   24.6130   42.1870 H   0  0  0  0  0  0  0  0  0  0  0  0
   38.0560   24.1200   42.2140 N   0  0  0  0  0  0  0  0  0  0  0  0
   39.3070   24.6130   42.1830 C   0  0  0  0  0  3  0  0  0  0  0  0
   39.5550   25.9530   42.1000 N   0  0  0  0  0  0  0  0  0  0  0  0
  1  2  2  0  0  0  0
  1  6  1  0  0  0  0
  2  3  1  0  0  0  0
  3  4  2  0  0  0  0
  4  9  1  0  0  0  0
  5  4  1  0  0  0  0
  5 19  1  0  0  0  0
  6  5  2  0  0  0  0
  7  2  1  0  0  0  0
  8  3  1  0  0  0  0
 10 11  1  0  0  0  0
 11 12  2  0  0  0  0
 11 17  1  0  0  0  0
 12  1  1  0  0  0  0
 13 12  1  0  0  0  0
 14 13  2  0  0  0  0
 15 14  1  0  0  0  0
 15 10  2  0  0  0  0
 16 10  1  0  0  0  0
 18 14  1  0  0  0  0
 19 22  1  6  0  0  0
 19 21  1  0  0  0  0
 19 20  1  0  0  0  0
 20 23  1  0  0  0  0
 20 24  1  0  0  0  0
 21 25  1  6  0  0  0
 21 26  1  0  0  0  0
 21 20  1  0  0  0  0
 26 27  2  0  0  0  0
 26 32  1  0  0  0  0
 27 28  1  0  0  0  0
 28 29  1  0  0  0  0
 28 30  2  0  0  0  0
 31 30  1  0  0  0  0
 32 31  2  0  0  0  0
M  END
>  <minimizedAffinity>
-5.15244007

$$$$

 OpenBabel03242521063D

 32 35  0  0  1  0  0  0  0  0999 V2000
   37.2410   26.7510   41.4210 C   0  0  0  0  0  0  0  0  0  0  0  0
   37.0580   26.6570   42.7940 C   0  0  0  0  0  0  0  0  0  0  0  0
   37.1730   27.6980   43.6790 C   0  0  0  0  0  0  0  0  0  0  0  0
   37.4960   28.9500   43.1910 C   0  0  0  0  0  0  0  0  0  0  0  0
   37.6710   29.0210   41.8240 C   0  0  0  0  0  0  0  0  0  0  0  0
   37.5510   27.9840   40.9940 N   0  0  0  0  0  0  0  0  0  0  0  0
   36.8040   25.7040   43.2410 H   0  0  0  0  0  0  0  0  0  0  0  0
   37.0190   27.5660   44.7420 H   0  0  0  0  0  0  0  0  0  0  0  0
   37.5950   29.8000   43.8580 H   0  0  0  0  0  0  0  0  0  0  0  0
   36.5270   23.3920   39.8830 C   0  0  0  0  0  0  0  0  0  0  0  0
   36.5810   24.3830   40.8740 C   0  0  0  0  0  0  0  0  0  0  0  0
   37.1060   25.6140   40.5300 C   0  0  0  0  0  0  0  0  0  0  0  0
   37.5350   25.7920   39.2600 N   0  0  0  0  0  0  0  0  0  0  0  0
   37.4720   24.8180   38.3180 C   0  0  0  0  0  0  0  0  0  0  0  0
   36.9620   23.6220   38.6560 N   0  0  0  0  0  0  0  0  0  0  0  0
   36.1010   22.4500   40.2360 H   0  0  0  0  0  0  0  0  0  0  0  0
   36.2410   24.2620   41.9090 H   0  0  0  0  0  0  0  0  0  0  0  0
   37.8290   25.0080   37.3090 H   0  0  0  0  0  0  0  0  0  0  0  0
   38.0220   30.3620   41.2540 C   0  0  2  0  0  0  0  0  0  0  0  0
   36.8770   31.1260   40.6590 C   0  0  0  0  0  0  0  0  0  0  0  0
   37.9510   30.5460   39.7950 C   0  0  1  0  0  0  0  0  0  0  0  0
   38.7210   30.9950   41.8440 H   0  0  0  0  0  0  0  0  0  0  0  0
   35.8640   30.7170   40.6590 H   0  0  0  0  0  0  0  0  0  0  0  0
   36.8700   32.2480   40.7100 H   0  0  0  0  0  0  0  0  0  0  0  0
   37.7370   29.6790   39.1260 H   0  0  0  0  0  0  0  0  0  0  0  0
   38.9990   31.4320   39.2130 C   0  0  0  0  0  0  0  0  0  0  0  0
   39.5310   32.4570   39.9880 C   0  0  0  0  0  3  0  0  0  0  0  0
   40.5130   33.2960   39.4560 C   0  0  0  0  0  0  0  0  0  0  0  0
   40.8900   34.0740   40.1040 H   0  0  0  0  0  0  0  0  0  0  0  0
   40.9310   33.0960   38.1930 N   0  0  0  0  0  0  0  0  0  0  0  0
   40.4100   32.1040   37.4500 C   0  0  0  0  0  3  0  0  0  0  0  0
   39.4500   31.2630   37.9350 N   0  0  0  0  0  0  0  0  0  0  0  0
  1  2  1  0  0  0  0
  2  7  1  0  0  0  0
  2  3  2  0  0  0  0
  3  8  1  0  0  0  0
  4  3  1  0  0  0  0
  4  9  1  0  0  0  0
  5  4  2  0  0  0  0
  6  1  2  0  0  0  0
  6  5  1  0  0  0  0
 10 16  1  0  0  0  0
 10 11  1  0  0  0  0
 11 17  1  0  0  0  0
 12 11  2  0  0  0  0
 12  1  1  0  0  0  0
 13 12  1  0  0  0  0
 14 15  1  0  0  0  0
 14 13  2  0  0  0  0
 15 10  2  0  0  0  0
 18 14  1  0  0  0  0
 19  5  1  0  0  0  0
 19 22  1  1  0  0  0
 20 23  1  0  0  0  0
 20 24  1  0  0  0  0
 20 19  1  0  0  0  0
 21 25  1  6  0  0  0
 21 20  1  0  0  0  0
 21 19  1  0  0  0  0
 26 21  1  0  0  0  0
 26 27  1  0  0  0  0
 28 27  2  0  0  0  0
 28 29  1  0  0  0  0
 30 28  1  0  0  0  0
 31 32  1  0  0  0  0
 31 30  2  0  0  0  0
 32 26  2  0  0  0  0
M  END
>  <minimizedAffinity>
-5.12890959

$$$$

 OpenBabel03242521063D

 32 35  0  0  1  0  0  0  0  0999 V2000
   38.1450   30.8770   41.1910 C   0  0  0  0  0  0  0  0  0  0  0  0
   37.0310   31.4640   40.6050 C   0  0  0  0  0  0  0  0  0  0  0  0
   37.0380   32.6350   39.8920 C   0  0  0  0  0  0  0  0  0  0  0  0
   38.2370   33.3030   39.7280 C   0  0  0  0  0  0  0  0  0  0  0  0
   39.3310   32.7020   40.3170 C   0  0  0  0  0  0  0  0  0  0  0  0
   39.2830   31.5600   41.0050 N   0  0  0  0  0  0  0  0  0  0  0  0
   36.0610   30.9910   40.6970 H   0  0  0  0  0  0  0  0  0  0  0  0
   36.1370   33.0460   39.4570 H   0  0  0  0  0  0  0  0  0  0  0  0
   38.2850   34.2320   39.1700 H   0  0  0  0  0  0  0  0  0  0  0  0
   38.8760   27.8600   43.3180 C   0  0  0  0  0  0  0  0  0  0  0  0
   39.1160   29.0720   42.6540 C   0  0  0  0  0  0  0  0  0  0  0  0
   38.0780   29.6350   41.9360 C   0  0  0  0  0  0  0  0  0  0  0  0
   36.8920   28.9850   41.9170 N   0  0  0  0  0  0  0  0  0  0  0  0
   36.6830   27.8130   42.5670 C   0  0  0  0  0  0  0  0  0  0  0  0
   37.6940   27.2690   43.2630 N   0  0  0  0  0  0  0  0  0  0  0  0
   39.7470   27.4830   43.8600 H   0  0  0  0  0  0  0  0  0  0  0  0
   40.0680   29.6160   42.6550 H   0  0  0  0  0  0  0  0  0  0  0  0
   35.7110   27.3280   42.5230 H   0  0  0  0  0  0  0  0  0  0  0  0
   40.6500   33.3960   40.1630 C   0  0  2  0  0  0  0  0  0  0  0  0
   41.3100   33.2290   38.8270 C   0  0  0  0  0  0  0  0  0  0  0  0
   41.8670   32.5740   40.0520 C   0  0  1  0  0  0  0  0  0  0  0  0
   40.7310   34.4260   40.5740 H   0  0  0  0  0  0  0  0  0  0  0  0
   40.8400   32.6440   38.0330 H   0  0  0  0  0  0  0  0  0  0  0  0
   41.9420   34.0590   38.4110 H   0  0  0  0  0  0  0  0  0  0  0  0
   41.8150   31.4670   40.1780 H   0  0  0  0  0  0  0  0  0  0  0  0
   43.0790   33.1370   40.7120 C   0  0  0  0  0  0  0  0  0  0  0  0
   43.1610   33.1350   42.1000 C   0  0  0  0  0  3  0  0  0  0  0  0
   44.2910   33.6580   42.7330 C   0  0  0  0  0  0  0  0  0  0  0  0
   44.3000   33.6300   43.8120 H   0  0  0  0  0  0  0  0  0  0  0  0
   45.2880   34.1610   41.9820 N   0  0  0  0  0  0  0  0  0  0  0  0
   45.1990   34.1610   40.6400 C   0  0  0  0  0  3  0  0  0  0  0  0
   44.1130   33.6560   39.9860 N   0  0  0  0  0  0  0  0  0  0  0  0
  1 12  1  0  0  0  0
  2  7  1  0  0  0  0
  2  1  2  0  0  0  0
  3  2  1  0  0  0  0
  4  3  2  0  0  0  0
  4  5  1  0  0  0  0
  5  6  2  0  0  0  0
  6  1  1  0  0  0  0
  8  3  1  0  0  0  0
  9  4  1  0  0  0  0
 10 16  1  0  0  0  0
 11 17  1  0  0  0  0
 11 10  2  0  0  0  0
 12 11  1  0  0  0  0
 13 12  2  0  0  0  0
 13 14  1  0  0  0  0
 14 15  2  0  0  0  0
 15 10  1  0  0  0  0
 18 14  1  0  0  0  0
 19  5  1  0  0  0  0
 19 22  1  1  0  0  0
 20 21  1  0  0  0  0
 20 19  1  0  0  0  0
 21 19  1  0  0  0  0
 21 25  1  1  0  0  0
 21 26  1  0  0  0  0
 23 20  1  0  0  0  0
 24 20  1  0  0  0  0
 26 27  1  0  0  0  0
 27 28  2  0  0  0  0
 28 29  1  0  0  0  0
 30 28  1  0  0  0  0
 31 30  2  0  0  0  0
 32 31  1  0  0  0  0
 32 26  2  0  0  0  0
M  END
>  <minimizedAffinity>
-4.97642469

$$$$

 OpenBabel03242521063D

 32 35  0  0  1  0  0  0  0  0999 V2000
   37.7370   29.5140   41.6900 C   0  0  0  0  0  0  0  0  0  0  0  0
   37.9340   29.2470   43.0390 C   0  0  0  0  0  0  0  0  0  0  0  0
   37.8080   28.0140   43.6260 C   0  0  0  0  0  0  0  0  0  0  0  0
   37.4580   26.9360   42.8350 C   0  0  0  0  0  0  0  0  0  0  0  0
   37.2680   27.2250   41.4980 C   0  0  0  0  0  0  0  0  0  0  0  0
   37.4000   28.4390   40.9640 N   0  0  0  0  0  0  0  0  0  0  0  0
   38.2100   30.0480   43.7130 H   0  0  0  0  0  0  0  0  0  0  0  0
   37.9740   27.8640   44.6850 H   0  0  0  0  0  0  0  0  0  0  0  0
   37.3490   25.9440   43.2610 H   0  0  0  0  0  0  0  0  0  0  0  0
   37.2670   32.7630   39.8510 C   0  0  0  0  0  0  0  0  0  0  0  0
   36.9600   31.4760   40.3150 C   0  0  0  0  0  0  0  0  0  0  0  0
   37.8840   30.8410   41.1230 C   0  0  0  0  0  0  0  0  0  0  0  0
   39.0290   31.4980   41.4200 N   0  0  0  0  0  0  0  0  0  0  0  0
   39.3030   32.7440   40.9590 C   0  0  0  0  0  0  0  0  0  0  0  0
   38.4030   33.3580   40.1740 N   0  0  0  0  0  0  0  0  0  0  0  0
   36.4860   33.1930   39.2190 H   0  0  0  0  0  0  0  0  0  0  0  0
   36.0410   30.9240   40.0870 H   0  0  0  0  0  0  0  0  0  0  0  0
   40.2370   33.2330   41.2260 H   0  0  0  0  0  0  0  0  0  0  0  0
   36.8870   26.0820   40.6060 C   0  0  2  0  0  0  0  0  0  0  0  0
   37.9870   25.5560   39.7330 C   0  0  0  0  0  0  0  0  0  0  0  0
   36.8350   26.3140   39.1530 C   0  0  1  0  0  0  0  0  0  0  0  0
   36.2500   25.2850   41.0490 H   0  0  0  0  0  0  0  0  0  0  0  0
   38.9910   25.9860   39.7670 H   0  0  0  0  0  0  0  0  0  0  0  0
   38.0130   24.4650   39.4670 H   0  0  0  0  0  0  0  0  0  0  0  0
   36.9790   27.3390   38.7380 H   0  0  0  0  0  0  0  0  0  0  0  0
   35.7530   25.5860   38.4300 C   0  0  0  0  0  0  0  0  0  0  0  0
   34.9900   26.2630   37.4850 C   0  0  0  0  0  3  0  0  0  0  0  0
   33.9740   25.5940   36.7990 C   0  0  0  0  0  0  0  0  0  0  0  0
   33.4150   26.1700   36.0770 H   0  0  0  0  0  0  0  0  0  0  0  0
   33.7480   24.2960   37.0680 N   0  0  0  0  0  0  0  0  0  0  0  0
   34.4890   23.6490   37.9860 C   0  0  0  0  0  3  0  0  0  0  0  0
   35.4920   24.2680   38.6740 N   0  0  0  0  0  0  0  0  0  0  0  0
  1  2  1  0  0  0  0
  2  3  2  0  0  0  0
  2  7  1  0  0  0  0
  3  8  1  0  0  0  0
  4  9  1  0  0  0  0
  4  3  1  0  0  0  0
  5  4  2  0  0  0  0
  6  5  1  0  0  0  0
  6  1  2  0  0  0  0
 10 15  2  0  0  0  0
 10 11  1  0  0  0  0
 11 12  2  0  0  0  0
 12 13  1  0  0  0  0
 12  1  1  0  0  0  0
 14 18  1  0  0  0  0
 14 13  2  0  0  0  0
 15 14  1  0  0  0  0
 16 10  1  0  0  0  0
 17 11  1  0  0  0  0
 19 22  1  1  0  0  0
 19  5  1  0  0  0  0
 20 23  1  0  0  0  0
 20 19  1  0  0  0  0
 21 25  1  6  0  0  0
 21 20  1  0  0  0  0
 21 19  1  0  0  0  0
 24 20  1  0  0  0  0
 26 32  1  0  0  0  0
 26 21  1  0  0  0  0
 27 26  2  0  0  0  0
 28 30  2  0  0  0  0
 28 27  1  0  0  0  0
 29 28  1  0  0  0  0
 30 31  1  0  0  0  0
 31 32  2  0  0  0  0
M  END
>  <minimizedAffinity>
-4.96629333

$$$$

 OpenBabel03242521063D

 32 35  0  0  1  0  0  0  0  0999 V2000
   38.6350   31.0400   39.0340 C   0  0  0  0  0  0  0  0  0  0  0  0
   37.6400   31.2090   38.0800 C   0  0  0  0  0  0  0  0  0  0  0  0
   36.5580   30.3830   37.9130 C   0  0  0  0  0  0  0  0  0  0  0  0
   36.4250   29.2880   38.7460 C   0  0  0  0  0  0  0  0  0  0  0  0
   37.4240   29.1400   39.6870 C   0  0  0  0  0  0  0  0  0  0  0  0
   38.4630   29.9660   39.8190 N   0  0  0  0  0  0  0  0  0  0  0  0
   37.6850   32.0470   37.3960 H   0  0  0  0  0  0  0  0  0  0  0  0
   35.8120   30.5640   37.1500 H   0  0  0  0  0  0  0  0  0  0  0  0
   35.5830   28.6110   38.6470 H   0  0  0  0  0  0  0  0  0  0  0  0
   41.4860   33.4200   38.4320 C   0  0  0  0  0  0  0  0  0  0  0  0
   40.4130   32.5710   38.1220 C   0  0  0  0  0  0  0  0  0  0  0  0
   39.7590   31.9470   39.1660 C   0  0  0  0  0  0  0  0  0  0  0  0
   40.1890   32.1910   40.4240 N   0  0  0  0  0  0  0  0  0  0  0  0
   41.2300   33.0170   40.7000 C   0  0  0  0  0  0  0  0  0  0  0  0
   41.8640   33.6210   39.6830 N   0  0  0  0  0  0  0  0  0  0  0  0
   41.9490   33.8720   37.5510 H   0  0  0  0  0  0  0  0  0  0  0  0
   40.0480   32.3570   37.1100 H   0  0  0  0  0  0  0  0  0  0  0  0
   41.5390   33.1830   41.7290 H   0  0  0  0  0  0  0  0  0  0  0  0
   37.3170   27.9650   40.6110 C   0  0  2  0  0  0  0  0  0  0  0  0
   36.5190   28.2010   41.8580 C   0  0  0  0  0  0  0  0  0  0  0  0
   38.0050   28.0290   41.9110 C   0  0  1  0  0  0  0  0  0  0  0  0
   37.1320   26.9710   40.1460 H   0  0  0  0  0  0  0  0  0  0  0  0
   36.0520   29.1690   42.0570 H   0  0  0  0  0  0  0  0  0  0  0  0
   35.9330   27.3580   42.3120 H   0  0  0  0  0  0  0  0  0  0  0  0
   38.6690   28.8900   42.1570 H   0  0  0  0  0  0  0  0  0  0  0  0
   38.5890   26.7420   42.3860 C   0  0  0  0  0  0  0  0  0  0  0  0
   38.0670   25.5420   41.9150 C   0  0  0  0  0  3  0  0  0  0  0  0
   38.6040   24.3290   42.3510 C   0  0  0  0  0  0  0  0  0  0  0  0
   38.1600   23.4300   41.9510 H   0  0  0  0  0  0  0  0  0  0  0  0
   39.6250   24.3420   43.2270 N   0  0  0  0  0  0  0  0  0  0  0  0
   40.1220   25.5070   43.6790 C   0  0  0  0  0  3  0  0  0  0  0  0
   39.6250   26.7120   43.2750 N   0  0  0  0  0  0  0  0  0  0  0  0
  1 12  1  0  0  0  0
  1  6  1  0  0  0  0
  2  1  2  0  0  0  0
  3  2  1  0  0  0  0
  3  4  2  0  0  0  0
  4  5  1  0  0  0  0
  5  6  2  0  0  0  0
  5 19  1  0  0  0  0
  7  2  1  0  0  0  0
  8  3  1  0  0  0  0
  9  4  1  0  0  0  0
 10 15  1  0  0  0  0
 11 10  2  0  0  0  0
 11 12  1  0  0  0  0
 12 13  2  0  0  0  0
 13 14  1  0  0  0  0
 14 18  1  0  0  0  0
 15 14  2  0  0  0  0
 16 10  1  0  0  0  0
 17 11  1  0  0  0  0
 19 22  1  6  0  0  0
 19 20  1  0  0  0  0
 19 21  1  0  0  0  0
 20 21  1  0  0  0  0
 20 23  1  0  0  0  0
 20 24  1  0  0  0  0
 21 25  1  1  0  0  0
 21 26  1  0  0  0  0
 26 32  1  0  0  0  0
 27 28  1  0  0  0  0
 27 26  2  0  0  0  0
 28 30  2  0  0  0  0
 29 28  1  0  0  0  0
 30 31  1  0  0  0  0
 32 31  2  0  0  0  0
M  END
>  <minimizedAffinity>
-4.95765877

$$$$
