
 OpenBabel03252504473D

 25 26  0  0  0  0  0  0  0  0999 V2000
   37.1740   28.7840   39.9630 O   0  0  0  0  0  0  0  0  0  0  0  0
   39.1400   27.7060   42.7880 C   0  0  0  0  0  0  0  0  0  0  0  0
   38.1380   27.3040   43.6780 C   0  0  0  0  0  0  0  0  0  0  0  0
   36.8090   27.4240   43.2610 C   0  0  0  0  0  0  0  0  0  0  0  0
   36.5770   27.9150   42.0350 N   0  0  0  0  0  0  0  0  0  0  0  0
   37.5840   28.2960   41.1970 C   0  0  0  0  0  0  0  0  0  0  0  0
   38.8760   28.1850   41.5910 N   0  0  0  0  0  0  0  0  0  0  0  0
   38.4150   26.9190   44.6500 H   0  0  0  0  0  0  0  0  0  0  0  0
   36.0230   27.1180   43.9370 H   0  0  0  0  0  0  0  0  0  0  0  0
   40.5640   27.5680   43.2600 C   0  0  0  0  0  0  0  0  0  0  0  0
   40.6300   26.9340   44.1550 H   0  0  0  0  0  0  0  0  0  0  0  0
   40.9390   28.5750   43.5250 H   0  0  0  0  0  0  0  0  0  0  0  0
   41.1950   27.1040   42.4800 H   0  0  0  0  0  0  0  0  0  0  0  0
   34.7900   29.2760   39.1100 O   0  0  0  0  0  0  0  0  0  0  0  0
   36.0000   29.9760   39.7210 P   0  0  1  0  0  0  0  0  0  0  0  0
   35.4510   30.6800   41.1620 O   0  0  0  0  0  0  0  0  0  0  0  0
   35.6310   31.6450   41.2040 H   0  0  0  0  0  0  0  0  0  0  0  0
   36.5900   31.2060   38.7390 O   0  0  0  0  0  0  0  0  0  0  0  0
   37.5130   32.1150   39.2400 C   0  0  0  0  0  0  0  0  0  0  0  0
   37.3340   33.4310   39.6110 C   0  0  0  0  0  3  0  0  0  0  0  0
   38.3990   34.1610   40.0880 C   0  0  0  0  0  0  0  0  0  0  0  0
   38.2080   35.1900   40.3670 H   0  0  0  0  0  0  0  0  0  0  0  0
   39.6030   33.5580   40.1790 N   0  0  0  0  0  0  0  0  0  0  0  0
   39.8150   32.2790   39.8260 C   0  0  0  0  0  3  0  0  0  0  0  0
   38.7670   31.5890   39.3660 N   0  0  0  0  0  0  0  0  0  0  0  0
  1  6  1  0  0  0  0
  2 10  1  0  0  0  0
  2  3  1  0  0  0  0
  3  8  1  0  0  0  0
  4  3  2  0  0  0  0
  4  9  1  0  0  0  0
  5  4  1  0  0  0  0
  6  7  1  0  0  0  0
  6  5  2  0  0  0  0
  7  2  2  0  0  0  0
 10 12  1  0  0  0  0
 10 11  1  0  0  0  0
 13 10  1  0  0  0  0
 15 14  2  6  0  0  0
 15  1  1  0  0  0  0
 15 16  1  0  0  0  0
 16 17  1  0  0  0  0
 18 19  1  0  0  0  0
 18 15  1  0  0  0  0
 19 25  2  0  0  0  0
 19 20  1  0  0  0  0
 20 21  2  0  0  0  0
 21 23  1  0  0  0  0
 21 22  1  0  0  0  0
 24 23  2  0  0  0  0
 25 24  1  0  0  0  0
M  END
>  <minimizedAffinity>
-5.00466061

$$$$

 OpenBabel03252504473D

 25 26  0  0  0  0  0  0  0  0999 V2000
   36.1740   28.0580   41.0140 O   0  0  0  0  0  0  0  0  0  0  0  0
   38.9790   26.6400   42.7840 C   0  0  0  0  0  0  0  0  0  0  0  0
   39.5890   27.7930   43.2930 C   0  0  0  0  0  0  0  0  0  0  0  0
   38.9990   29.0260   42.9990 C   0  0  0  0  0  0  0  0  0  0  0  0
   37.8870   29.0280   42.2500 N   0  0  0  0  0  0  0  0  0  0  0  0
   37.3240   27.8820   41.7730 C   0  0  0  0  0  0  0  0  0  0  0  0
   37.8870   26.6800   42.0510 N   0  0  0  0  0  0  0  0  0  0  0  0
   40.4860   27.6980   43.8890 H   0  0  0  0  0  0  0  0  0  0  0  0
   39.4580   29.9250   43.3840 H   0  0  0  0  0  0  0  0  0  0  0  0
   39.6330   25.3240   43.1130 C   0  0  0  0  0  0  0  0  0  0  0  0
   40.3690   25.4320   43.9210 H   0  0  0  0  0  0  0  0  0  0  0  0
   40.1660   24.9670   42.2110 H   0  0  0  0  0  0  0  0  0  0  0  0
   38.8830   24.5840   43.4470 H   0  0  0  0  0  0  0  0  0  0  0  0
   34.2760   29.2740   39.7610 O   0  0  0  0  0  0  0  0  0  0  0  0
   35.6810   29.5120   40.3060 P   0  0  1  0  0  0  0  0  0  0  0  0
   35.5390   30.7840   41.4160 O   0  0  0  0  0  0  0  0  0  0  0  0
   36.1440   31.5320   41.2160 H   0  0  0  0  0  0  0  0  0  0  0  0
   36.7580   29.9910   39.1090 O   0  0  0  0  0  0  0  0  0  0  0  0
   37.6060   31.0700   39.3260 C   0  0  0  0  0  0  0  0  0  0  0  0
   38.9790   31.0960   39.4510 C   0  0  0  0  0  3  0  0  0  0  0  0
   39.6270   32.2900   39.6650 C   0  0  0  0  0  0  0  0  0  0  0  0
   40.7060   32.2580   39.7560 H   0  0  0  0  0  0  0  0  0  0  0  0
   38.8890   33.4170   39.7490 N   0  0  0  0  0  0  0  0  0  0  0  0
   37.5500   33.4300   39.6340 C   0  0  0  0  0  3  0  0  0  0  0  0
   36.9420   32.2600   39.4250 N   0  0  0  0  0  0  0  0  0  0  0  0
  1  6  1  0  0  0  0
  2 10  1  0  0  0  0
  2  3  1  0  0  0  0
  3  8  1  0  0  0  0
  4  3  2  0  0  0  0
  4  9  1  0  0  0  0
  5  4  1  0  0  0  0
  6  7  1  0  0  0  0
  6  5  2  0  0  0  0
  7  2  2  0  0  0  0
 10 13  1  0  0  0  0
 10 11  1  0  0  0  0
 12 10  1  0  0  0  0
 15 14  2  6  0  0  0
 15  1  1  0  0  0  0
 15 16  1  0  0  0  0
 17 16  1  0  0  0  0
 18 19  1  0  0  0  0
 18 15  1  0  0  0  0
 19 25  2  0  0  0  0
 19 20  1  0  0  0  0
 20 21  2  0  0  0  0
 21 23  1  0  0  0  0
 21 22  1  0  0  0  0
 24 23  2  0  0  0  0
 25 24  1  0  0  0  0
M  END
>  <minimizedAffinity>
-4.94394636

$$$$

 OpenBabel03252504473D

 25 26  0  0  0  0  0  0  0  0999 V2000
   36.6290   28.4380   42.3670 O   0  0  0  0  0  0  0  0  0  0  0  0
   37.9570   25.1020   42.0180 C   0  0  0  0  0  0  0  0  0  0  0  0
   39.1190   25.1910   42.7930 C   0  0  0  0  0  0  0  0  0  0  0  0
   39.3980   26.4140   43.4110 C   0  0  0  0  0  0  0  0  0  0  0  0
   38.5370   27.4240   43.2230 N   0  0  0  0  0  0  0  0  0  0  0  0
   37.4150   27.2970   42.4590 C   0  0  0  0  0  0  0  0  0  0  0  0
   37.1330   26.1160   41.8550 N   0  0  0  0  0  0  0  0  0  0  0  0
   39.7580   24.3250   42.8900 H   0  0  0  0  0  0  0  0  0  0  0  0
   40.2920   26.4980   44.0120 H   0  0  0  0  0  0  0  0  0  0  0  0
   37.6770   23.7750   41.3620 C   0  0  0  0  0  0  0  0  0  0  0  0
   38.3020   22.9780   41.7870 H   0  0  0  0  0  0  0  0  0  0  0  0
   37.9190   23.8640   40.2860 H   0  0  0  0  0  0  0  0  0  0  0  0
   36.6220   23.4790   41.5060 H   0  0  0  0  0  0  0  0  0  0  0  0
   37.1010   29.2660   39.9700 O   0  0  0  0  0  0  0  0  0  0  0  0
   36.9640   29.7830   41.4000 P   0  0  1  0  0  0  0  0  0  0  0  0
   35.7050   30.9160   41.3660 O   0  0  0  0  0  0  0  0  0  0  0  0
   35.9740   31.7930   41.7170 H   0  0  0  0  0  0  0  0  0  0  0  0
   38.3510   30.5700   41.9290 O   0  0  0  0  0  0  0  0  0  0  0  0
   38.8850   31.6150   41.1850 C   0  0  0  0  0  0  0  0  0  0  0  0
   40.2000   31.8780   40.8610 C   0  0  0  0  0  3  0  0  0  0  0  0
   40.5130   32.9840   40.1040 C   0  0  0  0  0  0  0  0  0  0  0  0
   41.5590   33.1460   39.8750 H   0  0  0  0  0  0  0  0  0  0  0  0
   39.5100   33.7900   39.6970 N   0  0  0  0  0  0  0  0  0  0  0  0
   38.2180   33.5660   39.9950 C   0  0  0  0  0  3  0  0  0  0  0  0
   37.9380   32.4870   40.7300 N   0  0  0  0  0  0  0  0  0  0  0  0
  1  6  1  0  0  0  0
  2  3  1  0  0  0  0
  3  8  1  0  0  0  0
  3  4  2  0  0  0  0
  4  9  1  0  0  0  0
  5  4  1  0  0  0  0
  6  5  2  0  0  0  0
  7  2  2  0  0  0  0
  7  6  1  0  0  0  0
 10 13  1  0  0  0  0
 10 11  1  0  0  0  0
 10  2  1  0  0  0  0
 12 10  1  0  0  0  0
 15 14  2  6  0  0  0
 15 18  1  0  0  0  0
 15  1  1  0  0  0  0
 16 15  1  0  0  0  0
 16 17  1  0  0  0  0
 19 18  1  0  0  0  0
 20 19  1  0  0  0  0
 21 20  2  0  0  0  0
 22 21  1  0  0  0  0
 23 24  2  0  0  0  0
 23 21  1  0  0  0  0
 24 25  1  0  0  0  0
 25 19  2  0  0  0  0
M  END
>  <minimizedAffinity>
-4.92028856

$$$$

 OpenBabel03252504473D

 25 26  0  0  0  0  0  0  0  0999 V2000
   37.3230   30.2680   39.2110 O   0  0  0  0  0  0  0  0  0  0  0  0
   35.2170   29.1360   36.5110 C   0  0  0  0  0  0  0  0  0  0  0  0
   34.0930   28.6860   37.2140 C   0  0  0  0  0  0  0  0  0  0  0  0
   34.1100   28.7940   38.6070 C   0  0  0  0  0  0  0  0  0  0  0  0
   35.2000   29.3210   39.1840 N   0  0  0  0  0  0  0  0  0  0  0  0
   36.2760   29.7470   38.4620 C   0  0  0  0  0  0  0  0  0  0  0  0
   36.2710   29.6480   37.1100 N   0  0  0  0  0  0  0  0  0  0  0  0
   33.2560   28.2740   36.6670 H   0  0  0  0  0  0  0  0  0  0  0  0
   33.2500   28.4510   39.1650 H   0  0  0  0  0  0  0  0  0  0  0  0
   35.1750   29.0100   35.0100 C   0  0  0  0  0  0  0  0  0  0  0  0
   34.1560   28.8050   34.6530 H   0  0  0  0  0  0  0  0  0  0  0  0
   35.8180   28.1570   34.7170 H   0  0  0  0  0  0  0  0  0  0  0  0
   35.5130   29.9440   34.5260 H   0  0  0  0  0  0  0  0  0  0  0  0
   37.2570   32.6820   40.1160 O   0  0  0  0  0  0  0  0  0  0  0  0
   37.1560   31.2340   40.5880 P   0  0  1  0  0  0  0  0  0  0  0  0
   35.6390   31.0910   41.3290 O   0  0  0  0  0  0  0  0  0  0  0  0
   35.6970   30.7520   42.2490 H   0  0  0  0  0  0  0  0  0  0  0  0
   38.3260   30.8530   41.7320 O   0  0  0  0  0  0  0  0  0  0  0  0
   38.3840   29.5720   42.2690 C   0  0  0  0  0  0  0  0  0  0  0  0
   39.4810   28.8350   42.6610 C   0  0  0  0  0  3  0  0  0  0  0  0
   39.3120   27.5690   43.1730 C   0  0  0  0  0  0  0  0  0  0  0  0
   40.2040   27.0310   43.4680 H   0  0  0  0  0  0  0  0  0  0  0  0
   38.0580   27.0800   43.2780 N   0  0  0  0  0  0  0  0  0  0  0  0
   36.9650   27.7700   42.9050 C   0  0  0  0  0  3  0  0  0  0  0  0
   37.1550   28.9960   42.4110 N   0  0  0  0  0  0  0  0  0  0  0  0
  1 15  1  0  0  0  0
  2  7  2  0  0  0  0
  2  3  1  0  0  0  0
  3  4  2  0  0  0  0
  4  9  1  0  0  0  0
  4  5  1  0  0  0  0
  6  5  2  0  0  0  0
  6  1  1  0  0  0  0
  7  6  1  0  0  0  0
  8  3  1  0  0  0  0
 10  2  1  0  0  0  0
 11 10  1  0  0  0  0
 12 10  1  0  0  0  0
 13 10  1  0  0  0  0
 15 14  2  6  0  0  0
 15 16  1  0  0  0  0
 15 18  1  0  0  0  0
 16 17  1  0  0  0  0
 18 19  1  0  0  0  0
 19 25  2  0  0  0  0
 19 20  1  0  0  0  0
 20 21  2  0  0  0  0
 21 23  1  0  0  0  0
 21 22  1  0  0  0  0
 24 23  2  0  0  0  0
 25 24  1  0  0  0  0
M  END
>  <minimizedAffinity>
-4.80647469

$$$$

 OpenBabel03252504473D

 25 26  0  0  0  0  0  0  0  0999 V2000
   37.7850   29.5290   40.3580 O   0  0  0  0  0  0  0  0  0  0  0  0
   37.1380   26.2810   41.7860 C   0  0  0  0  0  0  0  0  0  0  0  0
   36.9120   26.6140   43.1260 C   0  0  0  0  0  0  0  0  0  0  0  0
   36.9940   27.9630   43.4850 C   0  0  0  0  0  0  0  0  0  0  0  0
   37.2830   28.8520   42.5240 N   0  0  0  0  0  0  0  0  0  0  0  0
   37.4970   28.4860   41.2280 C   0  0  0  0  0  0  0  0  0  0  0  0
   37.4200   27.1810   40.8680 N   0  0  0  0  0  0  0  0  0  0  0  0
   36.6850   25.8310   43.8360 H   0  0  0  0  0  0  0  0  0  0  0  0
   36.8220   28.2360   44.5160 H   0  0  0  0  0  0  0  0  0  0  0  0
   37.0440   24.8220   41.4230 C   0  0  0  0  0  0  0  0  0  0  0  0
   36.5650   24.2400   42.2220 H   0  0  0  0  0  0  0  0  0  0  0  0
   38.0720   24.4330   41.2860 H   0  0  0  0  0  0  0  0  0  0  0  0
   36.4430   24.6810   40.5060 H   0  0  0  0  0  0  0  0  0  0  0  0
   36.6970   31.4220   38.9850 O   0  0  0  0  0  0  0  0  0  0  0  0
   37.0960   31.0720   40.4160 P   0  0  1  0  0  0  0  0  0  0  0  0
   35.6670   31.1350   41.3250 O   0  0  0  0  0  0  0  0  0  0  0  0
   35.7360   31.7400   42.0960 H   0  0  0  0  0  0  0  0  0  0  0  0
   38.1730   32.1840   41.0690 O   0  0  0  0  0  0  0  0  0  0  0  0
   39.4710   31.7980   41.3760 C   0  0  0  0  0  0  0  0  0  0  0  0
   39.9610   31.1970   42.5170 C   0  0  0  0  0  3  0  0  0  0  0  0
   41.3000   30.8970   42.6160 C   0  0  0  0  0  0  0  0  0  0  0  0
   41.6350   30.4250   43.5310 H   0  0  0  0  0  0  0  0  0  0  0  0
   42.1060   31.2040   41.5770 N   0  0  0  0  0  0  0  0  0  0  0  0
   41.6650   31.7910   40.4510 C   0  0  0  0  0  3  0  0  0  0  0  0
   40.3610   32.0720   40.3780 N   0  0  0  0  0  0  0  0  0  0  0  0
  1 15  1  0  0  0  0
  1  6  1  0  0  0  0
  2  3  1  0  0  0  0
  3  4  2  0  0  0  0
  3  8  1  0  0  0  0
  4  9  1  0  0  0  0
  5  4  1  0  0  0  0
  6  5  2  0  0  0  0
  7  6  1  0  0  0  0
  7  2  2  0  0  0  0
 10  2  1  0  0  0  0
 10 11  1  0  0  0  0
 12 10  1  0  0  0  0
 13 10  1  0  0  0  0
 15 14  2  6  0  0  0
 15 18  1  0  0  0  0
 15 16  1  0  0  0  0
 16 17  1  0  0  0  0
 18 19  1  0  0  0  0
 19 20  1  0  0  0  0
 20 21  2  0  0  0  0
 21 22  1  0  0  0  0
 23 21  1  0  0  0  0
 24 23  2  0  0  0  0
 25 24  1  0  0  0  0
 25 19  2  0  0  0  0
M  END
>  <minimizedAffinity>
-4.72907925

$$$$

 OpenBabel03252504473D

 25 26  0  0  0  0  0  0  0  0999 V2000
   36.1430   28.1920   41.8800 O   0  0  0  0  0  0  0  0  0  0  0  0
   38.9110   26.0150   42.6610 C   0  0  0  0  0  0  0  0  0  0  0  0
   38.8570   25.1140   41.5910 C   0  0  0  0  0  0  0  0  0  0  0  0
   37.8550   25.2980   40.6340 C   0  0  0  0  0  0  0  0  0  0  0  0
   37.0090   26.3260   40.7990 N   0  0  0  0  0  0  0  0  0  0  0  0
   37.0950   27.1810   41.8570 C   0  0  0  0  0  0  0  0  0  0  0  0
   38.0630   27.0130   42.7920 N   0  0  0  0  0  0  0  0  0  0  0  0
   39.5810   24.3120   41.5360 H   0  0  0  0  0  0  0  0  0  0  0  0
   37.8000   24.6110   39.8020 H   0  0  0  0  0  0  0  0  0  0  0  0
   39.9990   25.7960   43.6790 C   0  0  0  0  0  0  0  0  0  0  0  0
   40.7610   25.0970   43.3080 H   0  0  0  0  0  0  0  0  0  0  0  0
   39.5410   25.3530   44.5840 H   0  0  0  0  0  0  0  0  0  0  0  0
   40.5110   26.7460   43.9200 H   0  0  0  0  0  0  0  0  0  0  0  0
   34.8060   29.0190   39.8350 O   0  0  0  0  0  0  0  0  0  0  0  0
   35.9830   29.4140   40.7220 P   0  0  1  0  0  0  0  0  0  0  0  0
   35.5800   30.9190   41.3870 O   0  0  0  0  0  0  0  0  0  0  0  0
   36.2610   31.6050   41.2130 H   0  0  0  0  0  0  0  0  0  0  0  0
   37.4060   29.6010   39.8490 O   0  0  0  0  0  0  0  0  0  0  0  0
   38.4930   30.2530   40.4190 C   0  0  0  0  0  0  0  0  0  0  0  0
   39.7070   29.7420   40.8260 C   0  0  0  0  0  3  0  0  0  0  0  0
   40.6550   30.5750   41.3730 C   0  0  0  0  0  0  0  0  0  0  0  0
   41.5930   30.1270   41.6770 H   0  0  0  0  0  0  0  0  0  0  0  0
   40.3630   31.8870   41.4980 N   0  0  0  0  0  0  0  0  0  0  0  0
   39.1900   32.4210   41.1130 C   0  0  0  0  0  3  0  0  0  0  0  0
   38.2860   31.5920   40.5840 N   0  0  0  0  0  0  0  0  0  0  0  0
  2  7  1  0  0  0  0
  2 10  1  0  0  0  0
  3  2  2  0  0  0  0
  4  5  2  0  0  0  0
  4  3  1  0  0  0  0
  5  6  1  0  0  0  0
  6  1  1  0  0  0  0
  6  7  2  0  0  0  0
  8  3  1  0  0  0  0
  9  4  1  0  0  0  0
 10 13  1  0  0  0  0
 10 12  1  0  0  0  0
 11 10  1  0  0  0  0
 15 14  2  6  0  0  0
 15 16  1  0  0  0  0
 15  1  1  0  0  0  0
 17 16  1  0  0  0  0
 18 19  1  0  0  0  0
 18 15  1  0  0  0  0
 19 25  2  0  0  0  0
 19 20  1  0  0  0  0
 20 21  2  0  0  0  0
 21 23  1  0  0  0  0
 21 22  1  0  0  0  0
 24 23  2  0  0  0  0
 25 24  1  0  0  0  0
M  END
>  <minimizedAffinity>
-4.58784342

$$$$

 OpenBabel03252504473D

 25 26  0  0  0  0  0  0  0  0999 V2000
   37.5940   30.0180   39.3920 O   0  0  0  0  0  0  0  0  0  0  0  0
   34.7630   29.2230   37.3020 C   0  0  0  0  0  0  0  0  0  0  0  0
   35.3470   29.2600   36.0300 C   0  0  0  0  0  0  0  0  0  0  0  0
   36.7090   29.5620   35.9470 C   0  0  0  0  0  0  0  0  0  0  0  0
   37.3720   29.7960   37.0890 N   0  0  0  0  0  0  0  0  0  0  0  0
   36.7650   29.7510   38.3090 C   0  0  0  0  0  0  0  0  0  0  0  0
   35.4450   29.4590   38.4030 N   0  0  0  0  0  0  0  0  0  0  0  0
   34.7360   29.0580   35.1610 H   0  0  0  0  0  0  0  0  0  0  0  0
   37.1740   29.5950   34.9720 H   0  0  0  0  0  0  0  0  0  0  0  0
   33.2940   28.8950   37.3670 C   0  0  0  0  0  0  0  0  0  0  0  0
   32.9320   28.4850   36.4140 H   0  0  0  0  0  0  0  0  0  0  0  0
   32.7400   29.8320   37.5690 H   0  0  0  0  0  0  0  0  0  0  0  0
   33.0920   28.1410   38.1490 H   0  0  0  0  0  0  0  0  0  0  0  0
   37.5050   32.2550   40.6720 O   0  0  0  0  0  0  0  0  0  0  0  0
   37.1210   30.7850   40.8220 P   0  0  1  0  0  0  0  0  0  0  0  0
   35.4450   30.7670   41.0710 O   0  0  0  0  0  0  0  0  0  0  0  0
   35.1890   30.2920   41.8920 H   0  0  0  0  0  0  0  0  0  0  0  0
   37.8480   30.0680   42.1560 O   0  0  0  0  0  0  0  0  0  0  0  0
   37.8320   28.6860   42.2980 C   0  0  0  0  0  0  0  0  0  0  0  0
   36.7780   27.8470   42.5920 C   0  0  0  0  0  3  0  0  0  0  0  0
   36.9860   26.4900   42.6880 C   0  0  0  0  0  0  0  0  0  0  0  0
   36.1270   25.8730   42.9200 H   0  0  0  0  0  0  0  0  0  0  0  0
   38.2330   26.0140   42.4880 N   0  0  0  0  0  0  0  0  0  0  0  0
   39.2840   26.8010   42.2000 C   0  0  0  0  0  3  0  0  0  0  0  0
   39.0590   28.1150   42.1120 N   0  0  0  0  0  0  0  0  0  0  0  0
  1 15  1  0  0  0  0
  2 10  1  0  0  0  0
  2  7  1  0  0  0  0
  3  2  2  0  0  0  0
  4  3  1  0  0  0  0
  4  5  2  0  0  0  0
  5  6  1  0  0  0  0
  6  7  2  0  0  0  0
  6  1  1  0  0  0  0
  8  3  1  0  0  0  0
  9  4  1  0  0  0  0
 10 12  1  0  0  0  0
 10 13  1  0  0  0  0
 11 10  1  0  0  0  0
 15 14  2  6  0  0  0
 15 16  1  0  0  0  0
 15 18  1  0  0  0  0
 16 17  1  0  0  0  0
 18 19  1  0  0  0  0
 19 20  1  0  0  0  0
 20 21  2  0  0  0  0
 21 22  1  0  0  0  0
 23 21  1  0  0  0  0
 24 23  2  0  0  0  0
 25 24  1  0  0  0  0
 25 19  2  0  0  0  0
M  END
>  <minimizedAffinity>
-4.57187891

$$$$

 OpenBabel03252504473D

 25 26  0  0  0  0  0  0  0  0999 V2000
   38.8570   28.9260   40.9260 O   0  0  0  0  0  0  0  0  0  0  0  0
   35.9530   29.2580   38.8120 C   0  0  0  0  0  0  0  0  0  0  0  0
   36.4940   29.9360   37.7140 C   0  0  0  0  0  0  0  0  0  0  0  0
   37.8540   30.2540   37.7500 C   0  0  0  0  0  0  0  0  0  0  0  0
   38.5560   29.8900   38.8330 N   0  0  0  0  0  0  0  0  0  0  0  0
   37.9910   29.2310   39.8840 C   0  0  0  0  0  0  0  0  0  0  0  0
   36.6730   28.9170   39.8600 N   0  0  0  0  0  0  0  0  0  0  0  0
   35.8530   30.1920   36.8810 H   0  0  0  0  0  0  0  0  0  0  0  0
   38.2870   30.7780   36.9100 H   0  0  0  0  0  0  0  0  0  0  0  0
   34.4850   28.9260   38.7510 C   0  0  0  0  0  0  0  0  0  0  0  0
   34.0880   29.0470   37.7330 H   0  0  0  0  0  0  0  0  0  0  0  0
   33.9440   29.6280   39.4140 H   0  0  0  0  0  0  0  0  0  0  0  0
   34.3040   27.8790   39.0540 H   0  0  0  0  0  0  0  0  0  0  0  0
   39.2840   30.5280   42.9020 O   0  0  0  0  0  0  0  0  0  0  0  0
   38.5620   29.2260   42.5640 P   0  0  1  0  0  0  0  0  0  0  0  0
   36.9260   29.4980   42.9120 O   0  0  0  0  0  0  0  0  0  0  0  0
   36.5570   28.8350   43.5360 H   0  0  0  0  0  0  0  0  0  0  0  0
   39.0850   27.9410   43.5110 O   0  0  0  0  0  0  0  0  0  0  0  0
   38.8500   26.6340   43.1030 C   0  0  0  0  0  0  0  0  0  0  0  0
   39.7010   25.5500   43.1020 C   0  0  0  0  0  3  0  0  0  0  0  0
   39.2590   24.3290   42.6480 C   0  0  0  0  0  0  0  0  0  0  0  0
   39.9640   23.5070   42.6680 H   0  0  0  0  0  0  0  0  0  0  0  0
   37.9860   24.2280   42.2090 N   0  0  0  0  0  0  0  0  0  0  0  0
   37.1290   25.2630   42.1940 C   0  0  0  0  0  3  0  0  0  0  0  0
   37.5800   26.4390   42.6400 N   0  0  0  0  0  0  0  0  0  0  0  0
  1 15  1  0  0  0  0
  2  7  1  0  0  0  0
  3  4  1  0  0  0  0
  3  2  2  0  0  0  0
  4  5  2  0  0  0  0
  5  6  1  0  0  0  0
  6  1  1  0  0  0  0
  7  6  2  0  0  0  0
  8  3  1  0  0  0  0
  9  4  1  0  0  0  0
 10  2  1  0  0  0  0
 10 13  1  0  0  0  0
 10 12  1  0  0  0  0
 11 10  1  0  0  0  0
 15 14  2  1  0  0  0
 15 16  1  0  0  0  0
 15 18  1  0  0  0  0
 16 17  1  0  0  0  0
 19 18  1  0  0  0  0
 20 19  1  0  0  0  0
 21 22  1  0  0  0  0
 21 20  2  0  0  0  0
 23 21  1  0  0  0  0
 24 23  2  0  0  0  0
 24 25  1  0  0  0  0
 25 19  2  0  0  0  0
M  END
>  <minimizedAffinity>
-4.52692795

$$$$

 OpenBabel03252504473D

 25 26  0  0  0  0  0  0  0  0999 V2000
   35.9280   29.7740   40.1060 O   0  0  0  0  0  0  0  0  0  0  0  0
   37.1610   27.1240   42.2200 C   0  0  0  0  0  0  0  0  0  0  0  0
   37.9290   27.8470   43.1400 C   0  0  0  0  0  0  0  0  0  0  0  0
   37.9890   29.2350   42.9900 C   0  0  0  0  0  0  0  0  0  0  0  0
   37.3090   29.7880   41.9750 N   0  0  0  0  0  0  0  0  0  0  0  0
   36.5720   29.0470   41.0990 C   0  0  0  0  0  0  0  0  0  0  0  0
   36.5050   27.7000   41.2350 N   0  0  0  0  0  0  0  0  0  0  0  0
   38.4460   27.3180   43.9290 H   0  0  0  0  0  0  0  0  0  0  0  0
   38.5790   29.8070   43.6920 H   0  0  0  0  0  0  0  0  0  0  0  0
   37.1100   25.6290   42.4020 C   0  0  0  0  0  0  0  0  0  0  0  0
   37.4890   25.3320   43.3890 H   0  0  0  0  0  0  0  0  0  0  0  0
   37.7570   25.1660   41.6330 H   0  0  0  0  0  0  0  0  0  0  0  0
   36.0720   25.2570   42.3210 H   0  0  0  0  0  0  0  0  0  0  0  0
   37.3020   28.5950   38.2700 O   0  0  0  0  0  0  0  0  0  0  0  0
   36.3190   29.7460   38.4620 P   0  0  1  0  0  0  0  0  0  0  0  0
   34.9960   29.3980   37.4630 O   0  0  0  0  0  0  0  0  0  0  0  0
   34.7920   30.1270   36.8360 H   0  0  0  0  0  0  0  0  0  0  0  0
   36.9600   31.2210   37.9740 O   0  0  0  0  0  0  0  0  0  0  0  0
   37.6690   32.0040   38.8760 C   0  0  0  0  0  0  0  0  0  0  0  0
   37.3420   33.2290   39.4190 C   0  0  0  0  0  3  0  0  0  0  0  0
   38.2000   33.8380   40.3050 C   0  0  0  0  0  0  0  0  0  0  0  0
   37.8980   34.7990   40.7060 H   0  0  0  0  0  0  0  0  0  0  0  0
   39.3530   33.2110   40.6190 N   0  0  0  0  0  0  0  0  0  0  0  0
   39.7060   32.0190   40.1080 C   0  0  0  0  0  3  0  0  0  0  0  0
   38.8570   31.4450   39.2510 N   0  0  0  0  0  0  0  0  0  0  0  0
  1  6  1  0  0  0  0
  2 10  1  0  0  0  0
  2  3  1  0  0  0  0
  3  8  1  0  0  0  0
  4  3  2  0  0  0  0
  4  9  1  0  0  0  0
  5  4  1  0  0  0  0
  6  7  1  0  0  0  0
  6  5  2  0  0  0  0
  7  2  2  0  0  0  0
 10 11  1  0  0  0  0
 12 10  1  0  0  0  0
 13 10  1  0  0  0  0
 15 14  2  6  0  0  0
 15  1  1  0  0  0  0
 16 15  1  0  0  0  0
 17 16  1  0  0  0  0
 18 15  1  0  0  0  0
 18 19  1  0  0  0  0
 19 25  2  0  0  0  0
 19 20  1  0  0  0  0
 20 21  2  0  0  0  0
 21 23  1  0  0  0  0
 21 22  1  0  0  0  0
 24 23  2  0  0  0  0
 25 24  1  0  0  0  0
M  END
>  <minimizedAffinity>
-4.49382448

$$$$
