
 OpenBabel03252509113D

 29 32  0  0  0  0  0  0  0  0999 V2000
   41.9260   29.7310   40.6260 C   0  0  0  0  0  0  0  0  0  0  0  0
   42.9300   30.6280   40.9120 C   0  0  0  0  0  0  0  0  0  0  0  0
   43.5500   30.6760   42.1430 C   0  0  0  0  0  0  0  0  0  0  0  0
   43.1740   29.8010   43.1580 C   0  0  0  0  0  0  0  0  0  0  0  0
   43.5390   29.5610   44.4410 N   0  0  0  0  0  0  0  0  0  0  0  0
   42.7810   28.5440   44.9340 C   0  0  0  0  0  0  0  0  0  0  0  0
   41.9460   28.1640   43.9330 N   0  0  0  0  0  0  0  0  0  0  0  0
   42.1650   28.9130   42.8430 C   0  0  0  0  0  0  0  0  0  0  0  0
   41.5180   28.8330   41.6250 C   0  0  0  0  0  0  0  0  0  0  0  0
   41.4480   29.7080   39.6500 H   0  0  0  0  0  0  0  0  0  0  0  0
   44.3020   30.1390   44.8730 H   0  0  0  0  0  0  0  0  0  0  0  0
   42.9600   28.2440   45.9430 H   0  0  0  0  0  0  0  0  0  0  0  0
   40.7330   28.1060   41.4550 H   0  0  0  0  0  0  0  0  0  0  0  0
   43.0600   33.5800   38.7220 C   0  0  0  0  0  0  0  0  0  0  0  0
   44.2020   33.3380   37.9570 C   0  0  0  0  0  0  0  0  0  0  0  0
   44.9300   32.1570   38.1950 C   0  0  0  0  0  0  0  0  0  0  0  0
   44.4650   31.3130   39.1720 N   0  0  0  0  0  0  0  0  0  0  0  0
   43.3650   31.5660   39.8930 C   0  0  0  0  0  0  0  0  0  0  0  0
   42.6660   32.6980   39.6670 N   0  0  0  0  0  0  0  0  0  0  0  0
   42.4760   34.4900   38.5590 H   0  0  0  0  0  0  0  0  0  0  0  0
   44.5350   34.0310   37.1960 H   0  0  0  0  0  0  0  0  0  0  0  0
   45.8240   31.9210   37.6290 H   0  0  0  0  0  0  0  0  0  0  0  0
   44.6140   31.6320   42.4310 C   0  0  0  0  0  0  0  0  0  0  0  0
   44.4410   32.9790   42.6870 C   0  0  0  0  0  3  0  0  0  0  0  0
   45.5780   33.7160   42.9370 C   0  0  0  0  0  0  0  0  0  0  0  0
   45.4420   34.7640   43.1360 H   0  0  0  0  0  0  0  0  0  0  0  0
   46.8060   33.1650   42.9340 N   0  0  0  0  0  0  0  0  0  0  0  0
   46.9540   31.8550   42.6830 C   0  0  0  0  0  3  0  0  0  0  0  0
   45.8590   31.0830   42.4300 N   0  0  0  0  0  0  0  0  0  0  0  0
  1  2  2  0  0  0  0
  1  9  1  0  0  0  0
  2  3  1  0  0  0  0
  3 23  1  0  0  0  0
  3  4  2  0  0  0  0
  4  5  1  0  0  0  0
  5 11  1  0  0  0  0
  5  6  1  0  0  0  0
  6 12  1  0  0  0  0
  7  6  2  0  0  0  0
  8  4  1  0  0  0  0
  8  7  1  0  0  0  0
  9  8  2  0  0  0  0
 10  1  1  0  0  0  0
 13  9  1  0  0  0  0
 14 19  1  0  0  0  0
 15 16  1  0  0  0  0
 15 14  2  0  0  0  0
 16 17  2  0  0  0  0
 17 18  1  0  0  0  0
 18  2  1  0  0  0  0
 19 18  2  0  0  0  0
 20 14  1  0  0  0  0
 21 15  1  0  0  0  0
 22 16  1  0  0  0  0
 23 24  1  0  0  0  0
 24 25  2  0  0  0  0
 25 26  1  0  0  0  0
 27 25  1  0  0  0  0
 28 27  2  0  0  0  0
 29 23  2  0  0  0  0
 29 28  1  0  0  0  0
M  END
>  <minimizedAffinity>
-2.65856171

>  <minimizedRMSD>
5.81848621

$$$$
