
 OpenBabel03242518163D

 30 32  0  0  0  0  0  0  0  0999 V2000
   36.5900   27.6950   42.7390 C   0  0  0  0  0  0  0  0  0  0  0  0
   36.5670   26.6610   42.3370 H   0  0  0  0  0  0  0  0  0  0  0  0
   35.6750   27.7210   43.4080 H   0  0  0  0  0  0  0  0  0  0  0  0
   36.3780   28.6190   41.6820 C   0  0  0  0  0  0  0  0  0  0  0  0
   35.4750   28.7680   40.6070 C   0  0  0  0  0  0  0  0  0  0  0  0
   35.5810   29.8100   39.7550 C   0  0  0  0  0  0  0  0  0  0  0  0
   36.6440   30.7570   39.9840 C   0  0  0  0  0  0  0  0  0  0  0  0
   37.4920   30.1240   41.4520 S   0  0  0  0  0  0  0  0  0  0  0  0
   34.7620   27.9880   40.5850 H   0  0  0  0  0  0  0  0  0  0  0  0
   34.9030   29.9420   38.9280 H   0  0  0  0  0  0  0  0  0  0  0  0
   36.9300   31.8170   39.3030 O   0  0  0  0  0  0  0  0  0  0  0  0
   38.0450   32.6000   39.4180 C   0  0  0  0  0  0  0  0  0  0  0  0
   37.7400   33.8360   39.9870 C   0  0  0  0  0  3  0  0  0  0  0  0
   38.7230   34.7970   40.2000 C   0  0  0  0  0  0  0  0  0  0  0  0
   38.5260   35.7670   40.6380 H   0  0  0  0  0  0  0  0  0  0  0  0
   39.9780   34.4980   39.8400 N   0  0  0  0  0  0  0  0  0  0  0  0
   40.2600   33.3030   39.2930 C   0  0  0  0  0  3  0  0  0  0  0  0
   39.3190   32.3800   39.0880 N   0  0  0  0  0  0  0  0  0  0  0  0
   37.8080   27.8620   43.5580 C   0  0  0  0  0  0  0  0  0  0  0  0
   37.5960   27.9140   44.6630 H   0  0  0  0  0  0  0  0  0  0  0  0
   38.3630   28.8080   43.3150 H   0  0  0  0  0  0  0  0  0  0  0  0
   38.7360   26.7620   43.3350 C   0  0  0  0  0  0  0  0  0  0  0  0
   40.0100   26.7650   43.8940 C   0  0  0  0  0  0  0  0  0  0  0  0
   40.8360   25.6770   43.6330 C   0  0  0  0  0  0  0  0  0  0  0  0
   40.3650   24.6850   42.8610 N   0  0  0  0  0  0  0  0  0  0  0  0
   39.1170   24.7180   42.3330 C   0  0  0  0  0  0  0  0  0  0  0  0
   38.3330   25.7390   42.5750 N   0  0  0  0  0  0  0  0  0  0  0  0
   40.2940   27.6000   44.4960 H   0  0  0  0  0  0  0  0  0  0  0  0
   41.8140   25.7210   44.0870 H   0  0  0  0  0  0  0  0  0  0  0  0
   38.8770   23.8430   41.7290 H   0  0  0  0  0  0  0  0  0  0  0  0
  1  3  1  0  0  0  0
  1 19  1  0  0  0  0
  2  1  1  0  0  0  0
  4  1  1  0  0  0  0
  5  4  2  0  0  0  0
  6  7  2  0  0  0  0
  6  5  1  0  0  0  0
  7  8  1  0  0  0  0
  8  4  1  0  0  0  0
  9  5  1  0  0  0  0
 10  6  1  0  0  0  0
 11 12  1  0  0  0  0
 11  7  1  0  0  0  0
 12 13  1  0  0  0  0
 13 14  2  0  0  0  0
 14 15  1  0  0  0  0
 16 14  1  0  0  0  0
 17 16  2  0  0  0  0
 18 17  1  0  0  0  0
 18 12  2  0  0  0  0
 19 20  1  0  0  0  0
 21 19  1  0  0  0  0
 22 19  1  0  0  0  0
 22 23  1  0  0  0  0
 23 28  1  0  0  0  0
 24 23  2  0  0  0  0
 24 29  1  0  0  0  0
 25 24  1  0  0  0  0
 26 27  1  0  0  0  0
 26 25  2  0  0  0  0
 27 22  2  0  0  0  0
 30 26  1  0  0  0  0
M  END
>  <minimizedAffinity>
-5.41250944

$$$$

 OpenBabel03242518163D

 30 32  0  0  0  0  0  0  0  0999 V2000
   37.0870   31.7450   39.0270 C   0  0  0  0  0  0  0  0  0  0  0  0
   36.4020   31.8390   38.1590 H   0  0  0  0  0  0  0  0  0  0  0  0
   38.0750   31.4850   38.5370 H   0  0  0  0  0  0  0  0  0  0  0  0
   36.6950   30.6340   39.8220 C   0  0  0  0  0  0  0  0  0  0  0  0
   35.6120   29.7300   39.8680 C   0  0  0  0  0  0  0  0  0  0  0  0
   35.5610   28.7620   40.8080 C   0  0  0  0  0  0  0  0  0  0  0  0
   36.6450   28.6890   41.7560 C   0  0  0  0  0  0  0  0  0  0  0  0
   37.7470   30.0410   41.2700 S   0  0  0  0  0  0  0  0  0  0  0  0
   34.9080   29.9240   39.1040 H   0  0  0  0  0  0  0  0  0  0  0  0
   34.7440   28.0610   40.8620 H   0  0  0  0  0  0  0  0  0  0  0  0
   36.8020   27.8550   42.7290 O   0  0  0  0  0  0  0  0  0  0  0  0
   37.7100   26.8350   42.8080 C   0  0  0  0  0  0  0  0  0  0  0  0
   38.7850   27.1760   43.6270 C   0  0  0  0  0  3  0  0  0  0  0  0
   39.8320   26.2900   43.8530 C   0  0  0  0  0  0  0  0  0  0  0  0
   40.6830   26.5180   44.4830 H   0  0  0  0  0  0  0  0  0  0  0  0
   39.7770   25.0920   43.2570 N   0  0  0  0  0  0  0  0  0  0  0  0
   38.7360   24.7740   42.4700 C   0  0  0  0  0  3  0  0  0  0  0  0
   37.7300   25.6220   42.2510 N   0  0  0  0  0  0  0  0  0  0  0  0
   37.1940   33.0580   39.6950 C   0  0  0  0  0  0  0  0  0  0  0  0
   36.8250   33.0440   40.7590 H   0  0  0  0  0  0  0  0  0  0  0  0
   36.5930   33.8530   39.1790 H   0  0  0  0  0  0  0  0  0  0  0  0
   38.5750   33.5190   39.7100 C   0  0  0  0  0  0  0  0  0  0  0  0
   38.9280   34.7290   40.2970 C   0  0  0  0  0  0  0  0  0  0  0  0
   40.2680   35.0980   40.2690 C   0  0  0  0  0  0  0  0  0  0  0  0
   41.1490   34.2730   39.6810 N   0  0  0  0  0  0  0  0  0  0  0  0
   40.7670   33.1000   39.1180 C   0  0  0  0  0  0  0  0  0  0  0  0
   39.5070   32.7460   39.1410 N   0  0  0  0  0  0  0  0  0  0  0  0
   38.1560   35.3180   40.7420 H   0  0  0  0  0  0  0  0  0  0  0  0
   40.4970   36.0440   40.7370 H   0  0  0  0  0  0  0  0  0  0  0  0
   41.5920   32.5390   38.6800 H   0  0  0  0  0  0  0  0  0  0  0  0
  1 19  1  0  0  0  0
  1  4  1  0  0  0  0
  2  1  1  0  0  0  0
  3  1  1  0  0  0  0
  4  5  2  0  0  0  0
  4  8  1  0  0  0  0
  5  6  1  0  0  0  0
  6 10  1  0  0  0  0
  6  7  2  0  0  0  0
  7 11  1  0  0  0  0
  8  7  1  0  0  0  0
  9  5  1  0  0  0  0
 11 12  1  0  0  0  0
 12 13  1  0  0  0  0
 13 14  2  0  0  0  0
 14 15  1  0  0  0  0
 16 14  1  0  0  0  0
 17 16  2  0  0  0  0
 18 17  1  0  0  0  0
 18 12  2  0  0  0  0
 19 22  1  0  0  0  0
 19 20  1  0  0  0  0
 21 19  1  0  0  0  0
 22 23  1  0  0  0  0
 23 28  1  0  0  0  0
 24 23  2  0  0  0  0
 24 29  1  0  0  0  0
 25 24  1  0  0  0  0
 26 27  1  0  0  0  0
 26 25  2  0  0  0  0
 27 22  2  0  0  0  0
 30 26  1  0  0  0  0
M  END
>  <minimizedAffinity>
-5.40363121

$$$$

 OpenBabel03242518163D

 30 32  0  0  0  0  0  0  0  0999 V2000
   37.0920   31.8350   39.1470 C   0  0  0  0  0  0  0  0  0  0  0  0
   36.3320   32.0460   38.3660 H   0  0  0  0  0  0  0  0  0  0  0  0
   38.0130   31.5850   38.5350 H   0  0  0  0  0  0  0  0  0  0  0  0
   36.7220   30.6660   39.8650 C   0  0  0  0  0  0  0  0  0  0  0  0
   35.7560   29.6440   39.7440 C   0  0  0  0  0  0  0  0  0  0  0  0
   35.6840   28.6510   40.6570 C   0  0  0  0  0  0  0  0  0  0  0  0
   36.6230   28.6760   41.7500 C   0  0  0  0  0  0  0  0  0  0  0  0
   37.6190   30.1550   41.4430 S   0  0  0  0  0  0  0  0  0  0  0  0
   35.1500   29.7770   38.8890 H   0  0  0  0  0  0  0  0  0  0  0  0
   34.9540   27.8610   40.5840 H   0  0  0  0  0  0  0  0  0  0  0  0
   36.7360   27.8380   42.7270 O   0  0  0  0  0  0  0  0  0  0  0  0
   37.7470   26.9410   42.9380 C   0  0  0  0  0  0  0  0  0  0  0  0
   37.5170   25.7490   42.2540 C   0  0  0  0  0  3  0  0  0  0  0  0
   38.4170   24.6900   42.3240 C   0  0  0  0  0  0  0  0  0  0  0  0
   38.2740   23.7490   41.8070 H   0  0  0  0  0  0  0  0  0  0  0  0
   39.5160   24.8510   43.0720 N   0  0  0  0  0  0  0  0  0  0  0  0
   39.7270   26.0060   43.7260 C   0  0  0  0  0  3  0  0  0  0  0  0
   38.8660   27.0220   43.6610 N   0  0  0  0  0  0  0  0  0  0  0  0
   37.3320   33.0660   39.9260 C   0  0  0  0  0  0  0  0  0  0  0  0
   37.1270   32.9410   41.0260 H   0  0  0  0  0  0  0  0  0  0  0  0
   36.6790   33.9180   39.5950 H   0  0  0  0  0  0  0  0  0  0  0  0
   38.7100   33.5120   39.7780 C   0  0  0  0  0  0  0  0  0  0  0  0
   39.1290   34.7440   40.2670 C   0  0  0  0  0  0  0  0  0  0  0  0
   40.4620   35.0960   40.0860 C   0  0  0  0  0  0  0  0  0  0  0  0
   41.2730   34.2340   39.4510 N   0  0  0  0  0  0  0  0  0  0  0  0
   40.8270   33.0400   38.9880 C   0  0  0  0  0  0  0  0  0  0  0  0
   39.5740   32.7020   39.1560 N   0  0  0  0  0  0  0  0  0  0  0  0
   38.4100   35.3620   40.7590 H   0  0  0  0  0  0  0  0  0  0  0  0
   40.7440   36.0600   40.4810 H   0  0  0  0  0  0  0  0  0  0  0  0
   41.5990   32.4490   38.4960 H   0  0  0  0  0  0  0  0  0  0  0  0
  1  4  1  0  0  0  0
  1 19  1  0  0  0  0
  2  1  1  0  0  0  0
  3  1  1  0  0  0  0
  4  8  1  0  0  0  0
  5  4  2  0  0  0  0
  5  6  1  0  0  0  0
  6  7  2  0  0  0  0
  7 11  1  0  0  0  0
  8  7  1  0  0  0  0
  9  5  1  0  0  0  0
 10  6  1  0  0  0  0
 11 12  1  0  0  0  0
 12 18  1  0  0  0  0
 13 14  1  0  0  0  0
 13 12  2  0  0  0  0
 14 16  2  0  0  0  0
 15 14  1  0  0  0  0
 16 17  1  0  0  0  0
 18 17  2  0  0  0  0
 19 20  1  0  0  0  0
 21 19  1  0  0  0  0
 22 19  1  0  0  0  0
 22 23  1  0  0  0  0
 23 28  1  0  0  0  0
 24 23  2  0  0  0  0
 24 29  1  0  0  0  0
 25 24  1  0  0  0  0
 26 27  1  0  0  0  0
 26 25  2  0  0  0  0
 27 22  2  0  0  0  0
 30 26  1  0  0  0  0
M  END
>  <minimizedAffinity>
-5.32187128

$$$$

 OpenBabel03242518163D

 30 32  0  0  0  0  0  0  0  0999 V2000
   37.7030   28.4060   43.1410 C   0  0  0  0  0  0  0  0  0  0  0  0
   37.6970   28.8300   44.1660 H   0  0  0  0  0  0  0  0  0  0  0  0
   38.7930   28.1340   42.9910 H   0  0  0  0  0  0  0  0  0  0  0  0
   37.3800   29.4240   42.2050 C   0  0  0  0  0  0  0  0  0  0  0  0
   36.2720   29.7740   41.4030 C   0  0  0  0  0  0  0  0  0  0  0  0
   36.3230   30.8490   40.5860 C   0  0  0  0  0  0  0  0  0  0  0  0
   37.5420   31.6180   40.5650 C   0  0  0  0  0  0  0  0  0  0  0  0
   38.6200   30.7680   41.7450 S   0  0  0  0  0  0  0  0  0  0  0  0
   35.4640   29.1070   41.5390 H   0  0  0  0  0  0  0  0  0  0  0  0
   35.4890   31.1340   39.9660 H   0  0  0  0  0  0  0  0  0  0  0  0
   37.8100   32.6720   39.8690 O   0  0  0  0  0  0  0  0  0  0  0  0
   39.0460   33.1720   39.5650 C   0  0  0  0  0  0  0  0  0  0  0  0
   39.2640   34.4000   40.1880 C   0  0  0  0  0  3  0  0  0  0  0  0
   40.4570   35.0950   40.0200 C   0  0  0  0  0  0  0  0  0  0  0  0
   40.6630   36.0500   40.4870 H   0  0  0  0  0  0  0  0  0  0  0  0
   41.3950   34.5480   39.2370 N   0  0  0  0  0  0  0  0  0  0  0  0
   41.1740   33.3630   38.6410 C   0  0  0  0  0  3  0  0  0  0  0  0
   40.0320   32.6940   38.8010 N   0  0  0  0  0  0  0  0  0  0  0  0
   36.8790   27.1800   43.1270 C   0  0  0  0  0  0  0  0  0  0  0  0
   35.9220   27.2960   42.5440 H   0  0  0  0  0  0  0  0  0  0  0  0
   36.5650   26.8610   44.1570 H   0  0  0  0  0  0  0  0  0  0  0  0
   37.6190   26.0660   42.5500 C   0  0  0  0  0  0  0  0  0  0  0  0
   36.9670   24.9400   42.0600 C   0  0  0  0  0  0  0  0  0  0  0  0
   37.7450   23.9200   41.5250 C   0  0  0  0  0  0  0  0  0  0  0  0
   39.0790   24.0720   41.5070 N   0  0  0  0  0  0  0  0  0  0  0  0
   39.6790   25.1870   41.9940 C   0  0  0  0  0  0  0  0  0  0  0  0
   38.9530   26.1510   42.4990 N   0  0  0  0  0  0  0  0  0  0  0  0
   35.9010   24.9100   42.1180 H   0  0  0  0  0  0  0  0  0  0  0  0
   37.1980   23.0650   41.1570 H   0  0  0  0  0  0  0  0  0  0  0  0
   40.7650   25.1670   41.9110 H   0  0  0  0  0  0  0  0  0  0  0  0
  1  2  1  0  0  0  0
  3  1  1  0  0  0  0
  4  1  1  0  0  0  0
  5  9  1  0  0  0  0
  5  4  2  0  0  0  0
  6  5  1  0  0  0  0
  7  6  2  0  0  0  0
  7  8  1  0  0  0  0
  8  4  1  0  0  0  0
 10  6  1  0  0  0  0
 11  7  1  0  0  0  0
 12 11  1  0  0  0  0
 12 13  1  0  0  0  0
 14 13  2  0  0  0  0
 14 15  1  0  0  0  0
 16 14  1  0  0  0  0
 17 18  1  0  0  0  0
 17 16  2  0  0  0  0
 18 12  2  0  0  0  0
 19  1  1  0  0  0  0
 19 21  1  0  0  0  0
 20 19  1  0  0  0  0
 22 19  1  0  0  0  0
 23 28  1  0  0  0  0
 23 22  2  0  0  0  0
 24 23  1  0  0  0  0
 25 24  2  0  0  0  0
 25 26  1  0  0  0  0
 26 27  2  0  0  0  0
 27 22  1  0  0  0  0
 29 24  1  0  0  0  0
 30 26  1  0  0  0  0
M  END
>  <minimizedAffinity>
-5.07740355

$$$$

 OpenBabel03242518163D

 30 32  0  0  0  0  0  0  0  0999 V2000
   40.0730   26.0020   43.3500 C   0  0  0  0  0  0  0  0  0  0  0  0
   40.6110   26.1500   44.3100 H   0  0  0  0  0  0  0  0  0  0  0  0
   40.8960   26.1360   42.5820 H   0  0  0  0  0  0  0  0  0  0  0  0
   39.1350   27.0520   43.1650 C   0  0  0  0  0  0  0  0  0  0  0  0
   38.0690   27.6240   43.8930 C   0  0  0  0  0  0  0  0  0  0  0  0
   37.3560   28.6500   43.3820 C   0  0  0  0  0  0  0  0  0  0  0  0
   37.7210   29.1350   42.0740 C   0  0  0  0  0  0  0  0  0  0  0  0
   39.1160   28.0890   41.5890 S   0  0  0  0  0  0  0  0  0  0  0  0
   37.9370   27.1500   44.8280 H   0  0  0  0  0  0  0  0  0  0  0  0
   36.5380   29.1010   43.9200 H   0  0  0  0  0  0  0  0  0  0  0  0
   37.1840   30.0960   41.3990 O   0  0  0  0  0  0  0  0  0  0  0  0
   37.7820   31.2530   40.9830 C   0  0  0  0  0  0  0  0  0  0  0  0
   37.0000   31.9180   40.0400 C   0  0  0  0  0  3  0  0  0  0  0  0
   37.4120   33.1200   39.4760 C   0  0  0  0  0  0  0  0  0  0  0  0
   36.8330   33.6660   38.7420 H   0  0  0  0  0  0  0  0  0  0  0  0
   38.5900   33.6230   39.8660 N   0  0  0  0  0  0  0  0  0  0  0  0
   39.3370   32.9730   40.7760 C   0  0  0  0  0  3  0  0  0  0  0  0
   38.9430   31.8200   41.3190 N   0  0  0  0  0  0  0  0  0  0  0  0
   39.5650   24.6160   43.2970 C   0  0  0  0  0  0  0  0  0  0  0  0
   38.9000   24.3550   44.1670 H   0  0  0  0  0  0  0  0  0  0  0  0
   40.3900   23.8550   43.3110 H   0  0  0  0  0  0  0  0  0  0  0  0
   38.8060   24.3910   42.0740 C   0  0  0  0  0  0  0  0  0  0  0  0
   37.4250   24.2320   42.0980 C   0  0  0  0  0  0  0  0  0  0  0  0
   36.7740   24.0190   40.8880 C   0  0  0  0  0  0  0  0  0  0  0  0
   37.5070   23.9790   39.7640 N   0  0  0  0  0  0  0  0  0  0  0  0
   38.8530   24.1390   39.7800 C   0  0  0  0  0  0  0  0  0  0  0  0
   39.4730   24.3400   40.9160 N   0  0  0  0  0  0  0  0  0  0  0  0
   36.9280   24.2790   43.0430 H   0  0  0  0  0  0  0  0  0  0  0  0
   35.7030   23.9020   40.9540 H   0  0  0  0  0  0  0  0  0  0  0  0
   39.3100   24.0820   38.7930 H   0  0  0  0  0  0  0  0  0  0  0  0
  1  2  1  0  0  0  0
  3  1  1  0  0  0  0
  4  1  1  0  0  0  0
  4  5  2  0  0  0  0
  5  9  1  0  0  0  0
  6  5  1  0  0  0  0
  6 10  1  0  0  0  0
  7  6  2  0  0  0  0
  8  7  1  0  0  0  0
  8  4  1  0  0  0  0
 11  7  1  0  0  0  0
 12 18  1  0  0  0  0
 12 11  1  0  0  0  0
 13 12  2  0  0  0  0
 14 16  2  0  0  0  0
 14 13  1  0  0  0  0
 15 14  1  0  0  0  0
 16 17  1  0  0  0  0
 17 18  2  0  0  0  0
 19 21  1  0  0  0  0
 19  1  1  0  0  0  0
 19 20  1  0  0  0  0
 22 23  1  0  0  0  0
 22 19  1  0  0  0  0
 23 28  1  0  0  0  0
 24 29  1  0  0  0  0
 24 23  2  0  0  0  0
 25 26  2  0  0  0  0
 25 24  1  0  0  0  0
 26 27  1  0  0  0  0
 27 22  2  0  0  0  0
 30 26  1  0  0  0  0
M  END
>  <minimizedAffinity>
-5.00059032

$$$$

 OpenBabel03242518163D

 30 32  0  0  0  0  0  0  0  0999 V2000
   37.0150   28.8440   42.2210 C   0  0  0  0  0  0  0  0  0  0  0  0
   35.9480   28.8310   42.5250 H   0  0  0  0  0  0  0  0  0  0  0  0
   37.5570   28.8060   43.2160 H   0  0  0  0  0  0  0  0  0  0  0  0
   37.3190   30.0910   41.6130 C   0  0  0  0  0  0  0  0  0  0  0  0
   36.6410   31.0500   40.8290 C   0  0  0  0  0  0  0  0  0  0  0  0
   37.2730   32.1620   40.3980 C   0  0  0  0  0  0  0  0  0  0  0  0
   38.6570   32.3310   40.7650 C   0  0  0  0  0  0  0  0  0  0  0  0
   39.0370   30.8590   41.7470 S   0  0  0  0  0  0  0  0  0  0  0  0
   35.6370   30.7710   40.6530 H   0  0  0  0  0  0  0  0  0  0  0  0
   36.7750   32.9060   39.7990 H   0  0  0  0  0  0  0  0  0  0  0  0
   39.4500   33.3060   40.4670 O   0  0  0  0  0  0  0  0  0  0  0  0
   40.3220   33.3740   39.4160 C   0  0  0  0  0  0  0  0  0  0  0  0
   40.1380   32.3100   38.5350 C   0  0  0  0  0  3  0  0  0  0  0  0
   40.9170   32.1740   37.3900 C   0  0  0  0  0  0  0  0  0  0  0  0
   40.8040   31.3630   36.6830 H   0  0  0  0  0  0  0  0  0  0  0  0
   41.8550   33.1020   37.1590 N   0  0  0  0  0  0  0  0  0  0  0  0
   42.0230   34.1240   38.0150 C   0  0  0  0  0  3  0  0  0  0  0  0
   41.2770   34.2560   39.1130 N   0  0  0  0  0  0  0  0  0  0  0  0
   37.3070   27.6200   41.4490 C   0  0  0  0  0  0  0  0  0  0  0  0
   37.7830   27.8290   40.4490 H   0  0  0  0  0  0  0  0  0  0  0  0
   36.3830   27.0240   41.2210 H   0  0  0  0  0  0  0  0  0  0  0  0
   38.2010   26.7410   42.1910 C   0  0  0  0  0  0  0  0  0  0  0  0
   38.9970   27.2230   43.2240 C   0  0  0  0  0  0  0  0  0  0  0  0
   39.8240   26.3200   43.8820 C   0  0  0  0  0  0  0  0  0  0  0  0
   39.8120   25.0350   43.4910 N   0  0  0  0  0  0  0  0  0  0  0  0
   39.0210   24.6030   42.4790 C   0  0  0  0  0  0  0  0  0  0  0  0
   38.2400   25.4470   41.8540 N   0  0  0  0  0  0  0  0  0  0  0  0
   38.9380   28.2620   43.4630 H   0  0  0  0  0  0  0  0  0  0  0  0
   40.4240   26.7370   44.6770 H   0  0  0  0  0  0  0  0  0  0  0  0
   39.1190   23.5370   42.2750 H   0  0  0  0  0  0  0  0  0  0  0  0
  1  2  1  0  0  0  0
  1  3  1  0  0  0  0
  4  8  1  0  0  0  0
  4  1  1  0  0  0  0
  5  4  2  0  0  0  0
  6  7  2  0  0  0  0
  6  5  1  0  0  0  0
  7  8  1  0  0  0  0
  9  5  1  0  0  0  0
 10  6  1  0  0  0  0
 11  7  1  0  0  0  0
 12 11  1  0  0  0  0
 13 12  2  0  0  0  0
 14 13  1  0  0  0  0
 15 14  1  0  0  0  0
 16 14  2  0  0  0  0
 16 17  1  0  0  0  0
 17 18  2  0  0  0  0
 18 12  1  0  0  0  0
 19 22  1  0  0  0  0
 19  1  1  0  0  0  0
 20 19  1  0  0  0  0
 21 19  1  0  0  0  0
 22 23  1  0  0  0  0
 23 28  1  0  0  0  0
 23 24  2  0  0  0  0
 24 29  1  0  0  0  0
 25 24  1  0  0  0  0
 26 25  2  0  0  0  0
 27 22  2  0  0  0  0
 27 26  1  0  0  0  0
 30 26  1  0  0  0  0
M  END
>  <minimizedAffinity>
-4.97660685

$$$$

 OpenBabel03242518163D

 30 32  0  0  0  0  0  0  0  0999 V2000
   39.7120   26.6250   43.8000 C   0  0  0  0  0  0  0  0  0  0  0  0
   39.6630   26.6970   44.9060 H   0  0  0  0  0  0  0  0  0  0  0  0
   40.6490   27.2120   43.5540 H   0  0  0  0  0  0  0  0  0  0  0  0
   38.6090   27.3170   43.2300 C   0  0  0  0  0  0  0  0  0  0  0  0
   37.2950   27.0030   42.8200 C   0  0  0  0  0  0  0  0  0  0  0  0
   36.4930   27.9510   42.2880 C   0  0  0  0  0  0  0  0  0  0  0  0
   37.0270   29.2840   42.1570 C   0  0  0  0  0  0  0  0  0  0  0  0
   38.7080   29.1540   42.8150 S   0  0  0  0  0  0  0  0  0  0  0  0
   37.0670   25.9860   42.9850 H   0  0  0  0  0  0  0  0  0  0  0  0
   35.4880   27.7340   41.9680 H   0  0  0  0  0  0  0  0  0  0  0  0
   36.4450   30.3350   41.6820 O   0  0  0  0  0  0  0  0  0  0  0  0
   36.8010   31.0490   40.5720 C   0  0  0  0  0  0  0  0  0  0  0  0
   36.6550   30.2890   39.4120 C   0  0  0  0  0  3  0  0  0  0  0  0
   36.9600   30.8130   38.1600 C   0  0  0  0  0  0  0  0  0  0  0  0
   36.8600   30.2550   37.2380 H   0  0  0  0  0  0  0  0  0  0  0  0
   37.4010   32.0760   38.1010 N   0  0  0  0  0  0  0  0  0  0  0  0
   37.5380   32.7990   39.2260 C   0  0  0  0  0  3  0  0  0  0  0  0
   37.2460   32.2990   40.4270 N   0  0  0  0  0  0  0  0  0  0  0  0
   39.8980   25.2100   43.4200 C   0  0  0  0  0  0  0  0  0  0  0  0
   38.9360   24.6230   43.4120 H   0  0  0  0  0  0  0  0  0  0  0  0
   40.5770   24.6620   44.1270 H   0  0  0  0  0  0  0  0  0  0  0  0
   40.4950   25.1040   42.0960 C   0  0  0  0  0  0  0  0  0  0  0  0
   39.7390   24.7340   40.9890 C   0  0  0  0  0  0  0  0  0  0  0  0
   40.3840   24.6550   39.7600 C   0  0  0  0  0  0  0  0  0  0  0  0
   41.6950   24.9380   39.7030 N   0  0  0  0  0  0  0  0  0  0  0  0
   42.3990   25.2950   40.8060 C   0  0  0  0  0  0  0  0  0  0  0  0
   41.7990   25.3720   41.9670 N   0  0  0  0  0  0  0  0  0  0  0  0
   38.7010   24.5290   41.1330 H   0  0  0  0  0  0  0  0  0  0  0  0
   39.7600   24.3650   38.9280 H   0  0  0  0  0  0  0  0  0  0  0  0
   43.4510   25.4940   40.6040 H   0  0  0  0  0  0  0  0  0  0  0  0
  1  2  1  0  0  0  0
  3  1  1  0  0  0  0
  4  1  1  0  0  0  0
  5  9  1  0  0  0  0
  5  4  2  0  0  0  0
  6  5  1  0  0  0  0
  7  6  2  0  0  0  0
  7  8  1  0  0  0  0
  8  4  1  0  0  0  0
 10  6  1  0  0  0  0
 11  7  1  0  0  0  0
 12 11  1  0  0  0  0
 13 12  2  0  0  0  0
 14 13  1  0  0  0  0
 15 14  1  0  0  0  0
 16 14  2  0  0  0  0
 16 17  1  0  0  0  0
 17 18  2  0  0  0  0
 18 12  1  0  0  0  0
 19  1  1  0  0  0  0
 19 21  1  0  0  0  0
 20 19  1  0  0  0  0
 22 19  1  0  0  0  0
 23 28  1  0  0  0  0
 23 22  2  0  0  0  0
 24 23  1  0  0  0  0
 25 24  2  0  0  0  0
 25 26  1  0  0  0  0
 26 27  2  0  0  0  0
 27 22  1  0  0  0  0
 29 24  1  0  0  0  0
 30 26  1  0  0  0  0
M  END
>  <minimizedAffinity>
-4.88546371

$$$$

 OpenBabel03242518163D

 30 32  0  0  0  0  0  0  0  0999 V2000
   36.8630   30.3950   39.7340 C   0  0  0  0  0  0  0  0  0  0  0  0
   37.5550   29.5890   39.4160 H   0  0  0  0  0  0  0  0  0  0  0  0
   36.1840   30.5100   38.8340 H   0  0  0  0  0  0  0  0  0  0  0  0
   37.5860   31.6090   39.8850 C   0  0  0  0  0  0  0  0  0  0  0  0
   37.3360   32.9870   39.7120 C   0  0  0  0  0  0  0  0  0  0  0  0
   38.3030   33.9000   39.9490 C   0  0  0  0  0  0  0  0  0  0  0  0
   39.5900   33.4150   40.3810 C   0  0  0  0  0  0  0  0  0  0  0  0
   39.3870   31.6180   40.4440 S   0  0  0  0  0  0  0  0  0  0  0  0
   36.3450   33.1670   39.3920 H   0  0  0  0  0  0  0  0  0  0  0  0
   38.1330   34.9560   39.8230 H   0  0  0  0  0  0  0  0  0  0  0  0
   40.6480   34.1000   40.6620 O   0  0  0  0  0  0  0  0  0  0  0  0
   41.8410   34.0950   39.9930 C   0  0  0  0  0  0  0  0  0  0  0  0
   41.6650   34.3870   38.6410 C   0  0  0  0  0  3  0  0  0  0  0  0
   42.7440   34.4360   37.7650 C   0  0  0  0  0  0  0  0  0  0  0  0
   42.6480   34.6590   36.7100 H   0  0  0  0  0  0  0  0  0  0  0  0
   43.9640   34.1920   38.2600 N   0  0  0  0  0  0  0  0  0  0  0  0
   44.1220   33.9120   39.5660 C   0  0  0  0  0  3  0  0  0  0  0  0
   43.0890   33.8650   40.4080 N   0  0  0  0  0  0  0  0  0  0  0  0
   36.0770   29.9210   40.8910 C   0  0  0  0  0  0  0  0  0  0  0  0
   35.0660   29.5160   40.6040 H   0  0  0  0  0  0  0  0  0  0  0  0
   35.8720   30.7370   41.6350 H   0  0  0  0  0  0  0  0  0  0  0  0
   36.7900   28.8710   41.6050 C   0  0  0  0  0  0  0  0  0  0  0  0
   37.5370   29.1490   42.7440 C   0  0  0  0  0  0  0  0  0  0  0  0
   38.1890   28.0910   43.3680 C   0  0  0  0  0  0  0  0  0  0  0  0
   38.0640   26.8610   42.8430 N   0  0  0  0  0  0  0  0  0  0  0  0
   37.3250   26.6290   41.7300 C   0  0  0  0  0  0  0  0  0  0  0  0
   36.7090   27.6210   41.1370 N   0  0  0  0  0  0  0  0  0  0  0  0
   37.5770   30.1590   43.0870 H   0  0  0  0  0  0  0  0  0  0  0  0
   38.7570   28.3510   44.2480 H   0  0  0  0  0  0  0  0  0  0  0  0
   37.3180   25.5840   41.4230 H   0  0  0  0  0  0  0  0  0  0  0  0
  1  4  1  0  0  0  0
  1 19  1  0  0  0  0
  2  1  1  0  0  0  0
  3  1  1  0  0  0  0
  4  8  1  0  0  0  0
  5  4  2  0  0  0  0
  5  6  1  0  0  0  0
  6  7  2  0  0  0  0
  7  8  1  0  0  0  0
  7 11  1  0  0  0  0
  9  5  1  0  0  0  0
 10  6  1  0  0  0  0
 12 18  1  0  0  0  0
 12 11  1  0  0  0  0
 13 12  2  0  0  0  0
 14 16  2  0  0  0  0
 14 13  1  0  0  0  0
 15 14  1  0  0  0  0
 16 17  1  0  0  0  0
 17 18  2  0  0  0  0
 19 22  1  0  0  0  0
 19 21  1  0  0  0  0
 20 19  1  0  0  0  0
 22 23  1  0  0  0  0
 23 28  1  0  0  0  0
 23 24  2  0  0  0  0
 24 29  1  0  0  0  0
 25 24  1  0  0  0  0
 26 25  2  0  0  0  0
 27 22  2  0  0  0  0
 27 26  1  0  0  0  0
 30 26  1  0  0  0  0
M  END
>  <minimizedAffinity>
-4.85768986

$$$$

 OpenBabel03242518163D

 30 32  0  0  0  0  0  0  0  0999 V2000
   37.1050   31.7340   39.1700 C   0  0  0  0  0  0  0  0  0  0  0  0
   36.3330   31.9870   38.4130 H   0  0  0  0  0  0  0  0  0  0  0  0
   38.0030   31.4700   38.5300 H   0  0  0  0  0  0  0  0  0  0  0  0
   36.7150   30.5620   39.8710 C   0  0  0  0  0  0  0  0  0  0  0  0
   35.5180   29.8540   40.1120 C   0  0  0  0  0  0  0  0  0  0  0  0
   35.5180   28.7340   40.8670 C   0  0  0  0  0  0  0  0  0  0  0  0
   36.7780   28.2940   41.4140 C   0  0  0  0  0  0  0  0  0  0  0  0
   37.9690   29.5210   40.8210 S   0  0  0  0  0  0  0  0  0  0  0  0
   34.6920   30.3110   39.6390 H   0  0  0  0  0  0  0  0  0  0  0  0
   34.6160   28.1780   41.0630 H   0  0  0  0  0  0  0  0  0  0  0  0
   37.0110   27.2630   42.1560 O   0  0  0  0  0  0  0  0  0  0  0  0
   37.3840   26.0140   41.7450 C   0  0  0  0  0  0  0  0  0  0  0  0
   38.5080   25.5670   42.4360 C   0  0  0  0  0  3  0  0  0  0  0  0
   39.0660   24.3180   42.1810 C   0  0  0  0  0  0  0  0  0  0  0  0
   39.9380   23.9370   42.6980 H   0  0  0  0  0  0  0  0  0  0  0  0
   38.4880   23.5540   41.2460 N   0  0  0  0  0  0  0  0  0  0  0  0
   37.4040   23.9950   40.5860 C   0  0  0  0  0  3  0  0  0  0  0  0
   36.8670   25.1920   40.8280 N   0  0  0  0  0  0  0  0  0  0  0  0
   37.4020   32.9400   39.9690 C   0  0  0  0  0  0  0  0  0  0  0  0
   37.2840   32.7770   41.0770 H   0  0  0  0  0  0  0  0  0  0  0  0
   36.7250   33.8000   39.7190 H   0  0  0  0  0  0  0  0  0  0  0  0
   38.7650   33.3960   39.7300 C   0  0  0  0  0  0  0  0  0  0  0  0
   39.6830   32.6070   39.0450 C   0  0  0  0  0  0  0  0  0  0  0  0
   40.9640   33.1140   38.8590 C   0  0  0  0  0  0  0  0  0  0  0  0
   41.2490   34.3330   39.3460 N   0  0  0  0  0  0  0  0  0  0  0  0
   40.3260   35.0730   40.0080 C   0  0  0  0  0  0  0  0  0  0  0  0
   39.1180   34.6020   40.1870 N   0  0  0  0  0  0  0  0  0  0  0  0
   39.3630   31.6500   38.6950 H   0  0  0  0  0  0  0  0  0  0  0  0
   41.6430   32.4690   38.3230 H   0  0  0  0  0  0  0  0  0  0  0  0
   40.7030   36.0390   40.3430 H   0  0  0  0  0  0  0  0  0  0  0  0
  1  4  1  0  0  0  0
  1 19  1  0  0  0  0
  2  1  1  0  0  0  0
  3  1  1  0  0  0  0
  4  5  2  0  0  0  0
  4  8  1  0  0  0  0
  5  6  1  0  0  0  0
  6 10  1  0  0  0  0
  6  7  2  0  0  0  0
  7 11  1  0  0  0  0
  8  7  1  0  0  0  0
  9  5  1  0  0  0  0
 12 11  1  0  0  0  0
 12 13  1  0  0  0  0
 14 13  2  0  0  0  0
 14 15  1  0  0  0  0
 16 14  1  0  0  0  0
 17 18  1  0  0  0  0
 17 16  2  0  0  0  0
 18 12  2  0  0  0  0
 19 20  1  0  0  0  0
 21 19  1  0  0  0  0
 22 19  1  0  0  0  0
 22 27  1  0  0  0  0
 23 22  2  0  0  0  0
 24 23  1  0  0  0  0
 24 25  2  0  0  0  0
 25 26  1  0  0  0  0
 26 27  2  0  0  0  0
 26 30  1  0  0  0  0
 28 23  1  0  0  0  0
 29 24  1  0  0  0  0
M  END
>  <minimizedAffinity>
-4.82599878

$$$$
