
 OpenBabel03252509113D

 29 32  0  0  0  0  0  0  0  0999 V2000
   47.9850   35.2130   41.9660 C   0  0  0  0  0  0  0  0  0  0  0  0
   46.6990   34.7330   42.0790 C   0  0  0  0  0  0  0  0  0  0  0  0
   46.0380   34.1340   41.0280 C   0  0  0  0  0  0  0  0  0  0  0  0
   46.6610   33.9900   39.7910 C   0  0  0  0  0  0  0  0  0  0  0  0
   46.3420   33.4770   38.5780 N   0  0  0  0  0  0  0  0  0  0  0  0
   47.4010   33.6340   37.7380 C   0  0  0  0  0  0  0  0  0  0  0  0
   48.3750   34.2520   38.4550 N   0  0  0  0  0  0  0  0  0  0  0  0
   47.9490   34.4800   39.7060 C   0  0  0  0  0  0  0  0  0  0  0  0
   48.6460   35.0870   40.7340 C   0  0  0  0  0  0  0  0  0  0  0  0
   48.4900   35.6820   42.8060 H   0  0  0  0  0  0  0  0  0  0  0  0
   45.3920   33.0510   38.4360 H   0  0  0  0  0  0  0  0  0  0  0  0
   47.2930   33.2730   36.7390 H   0  0  0  0  0  0  0  0  0  0  0  0
   49.6580   35.4450   40.5880 H   0  0  0  0  0  0  0  0  0  0  0  0
   44.4930   36.0110   44.7300 C   0  0  0  0  0  0  0  0  0  0  0  0
   44.6720   35.0740   45.7490 C   0  0  0  0  0  0  0  0  0  0  0  0
   45.5530   34.0000   45.5240 C   0  0  0  0  0  0  0  0  0  0  0  0
   46.1850   33.9440   44.3070 N   0  0  0  0  0  0  0  0  0  0  0  0
   45.9970   34.8550   43.3440 C   0  0  0  0  0  0  0  0  0  0  0  0
   45.1530   35.8850   43.5570 N   0  0  0  0  0  0  0  0  0  0  0  0
   43.8140   36.8560   44.8770 H   0  0  0  0  0  0  0  0  0  0  0  0
   44.1540   35.1560   46.6950 H   0  0  0  0  0  0  0  0  0  0  0  0
   45.7290   33.2450   46.2820 H   0  0  0  0  0  0  0  0  0  0  0  0
   44.6750   33.6310   41.1640 C   0  0  0  0  0  0  0  0  0  0  0  0
   44.3110   32.4430   41.7670 C   0  0  0  0  0  0  0  0  0  0  0  0
   42.9650   32.1470   41.7940 C   0  0  0  0  0  0  0  0  0  0  0  0
   42.6820   31.2220   42.2640 H   0  0  0  0  0  0  0  0  0  0  0  0
   42.0370   32.9650   41.2620 N   0  0  0  0  0  0  0  0  0  0  0  0
   42.4110   34.1150   40.6800 C   0  0  0  0  0  0  0  0  0  0  0  0
   43.7320   34.4530   40.6290 N   0  0  0  0  0  0  0  0  0  0  0  0
  1  2  1  0  0  0  0
  1 10  1  0  0  0  0
  2 18  1  0  0  0  0
  3 23  1  0  0  0  0
  3  2  2  0  0  0  0
  4  3  1  0  0  0  0
  5  4  1  0  0  0  0
  6  7  2  0  0  0  0
  6  5  1  0  0  0  0
  7  8  1  0  0  0  0
  8  4  2  0  0  0  0
  8  9  1  0  0  0  0
  9  1  2  0  0  0  0
 11  5  1  0  0  0  0
 12  6  1  0  0  0  0
 13  9  1  0  0  0  0
 14 20  1  0  0  0  0
 14 15  1  0  0  0  0
 15 21  1  0  0  0  0
 16 15  2  0  0  0  0
 16 22  1  0  0  0  0
 17 16  1  0  0  0  0
 18 19  1  0  0  0  0
 18 17  2  0  0  0  0
 19 14  2  0  0  0  0
 23 24  1  0  0  0  0
 24 25  2  0  0  0  0
 25 26  1  0  0  0  0
 27 25  1  0  0  0  0
 28 27  2  0  0  0  0
 29 28  1  0  0  0  0
 29 23  2  0  0  0  0
M  END
>  <minimizedAffinity>
-6.20263863

>  <minimizedRMSD>
6.67181683

$$$$
