
 OpenBabel03252507223D

 45 48  0  0  1  0  0  0  0  0999 V2000
   47.0850   33.1540   43.1670 C   0  0  0  0  0  0  0  0  0  0  0  0
   48.2970   33.1960   43.5240 O   0  0  0  0  0  0  0  0  0  0  0  0
   46.5740   32.2240   42.2280 N   0  0  0  0  0  0  0  0  0  0  0  0
   45.3370   31.4260   42.2580 C   0  0  0  0  0  0  0  0  0  0  0  0
   44.5670   31.6370   40.9590 C   0  0  0  0  0  0  0  0  0  0  0  0
   45.3490   31.1150   39.8030 C   0  0  0  0  0  0  0  0  0  0  0  0
   46.7840   30.8650   40.2270 C   0  0  0  0  0  0  0  0  0  0  0  0
   47.3440   31.9690   41.0460 C   0  0  2  0  0  0  0  0  0  0  0  0
   44.7010   31.8180   43.0850 H   0  0  0  0  0  0  0  0  0  0  0  0
   45.5670   30.3500   42.3370 H   0  0  0  0  0  0  0  0  0  0  0  0
   44.3780   32.7230   40.8480 H   0  0  0  0  0  0  0  0  0  0  0  0
   43.5920   31.1340   41.1020 H   0  0  0  0  0  0  0  0  0  0  0  0
   45.2900   31.7220   38.8820 H   0  0  0  0  0  0  0  0  0  0  0  0
   44.9340   30.1170   39.5420 H   0  0  0  0  0  0  0  0  0  0  0  0
   47.3690   30.8320   39.2640 H   0  0  0  0  0  0  0  0  0  0  0  0
   46.9130   29.8900   40.7060 H   0  0  0  0  0  0  0  0  0  0  0  0
   47.2400   32.9090   40.4190 H   0  0  0  0  0  0  0  0  0  0  0  0
   45.7930   35.2190   42.9710 C   0  0  0  0  0  0  0  0  0  0  0  0
   46.1860   34.1140   43.7600 C   0  0  0  0  0  0  0  0  0  0  0  0
   45.7090   33.9730   45.0560 C   0  0  0  0  0  0  0  0  0  0  0  0
   44.8670   34.9280   45.5170 N   0  0  0  0  0  0  0  0  0  0  0  0
   44.4770   35.9990   44.7740 C   0  0  0  0  0  0  0  0  0  0  0  0
   44.9510   36.1230   43.5130 N   0  0  0  0  0  0  0  0  0  0  0  0
   46.1880   35.2900   41.9690 H   0  0  0  0  0  0  0  0  0  0  0  0
   43.8020   36.7280   45.2010 H   0  0  0  0  0  0  0  0  0  0  0  0
   46.1360   32.8360   45.8310 C   0  0  0  0  0  0  0  0  0  0  0  0
   45.6450   31.6010   45.5800 C   0  0  0  0  0  0  0  0  0  0  0  0
   46.0780   30.5330   46.3400 C   0  0  0  0  0  0  0  0  0  0  0  0
   47.0080   30.6680   47.3660 C   0  0  0  0  0  0  0  0  0  0  0  0
   47.4790   31.9510   47.5820 C   0  0  0  0  0  0  0  0  0  0  0  0
   47.0410   32.9670   46.8290 N   0  0  0  0  0  0  0  0  0  0  0  0
   44.9200   31.3510   44.8210 H   0  0  0  0  0  0  0  0  0  0  0  0
   45.7130   29.5280   46.1750 H   0  0  0  0  0  0  0  0  0  0  0  0
   47.3500   29.8340   47.9640 H   0  0  0  0  0  0  0  0  0  0  0  0
   48.2060   32.1240   48.3660 H   0  0  0  0  0  0  0  0  0  0  0  0
   48.8060   31.7950   41.2650 C   0  0  0  0  0  0  0  0  0  0  0  0
   49.3090   32.4260   41.9870 H   0  0  0  0  0  0  0  0  0  0  0  0
   48.9860   30.7630   41.6310 H   0  0  0  0  0  0  0  0  0  0  0  0
   49.5590   31.8430   39.9390 C   0  0  0  0  0  0  0  0  0  0  0  0
   49.0230   32.4680   38.8270 C   0  0  0  0  0  3  0  0  0  0  0  0
   49.7320   32.4830   37.6330 C   0  0  0  0  0  0  0  0  0  0  0  0
   49.3140   32.9760   36.7510 H   0  0  0  0  0  0  0  0  0  0  0  0
   50.9370   31.8870   37.5680 N   0  0  0  0  0  0  0  0  0  0  0  0
   51.4230   31.2900   38.6710 C   0  0  0  0  0  3  0  0  0  0  0  0
   50.7680   31.2530   39.8450 N   0  0  0  0  0  0  0  0  0  0  0  0
  1  2  2  0  0  0  0
  1 19  1  0  0  0  0
  3  4  1  0  0  0  0
  3  1  1  0  0  0  0
  4 10  1  0  0  0  0
  4  9  1  0  0  0  0
  5 12  1  0  0  0  0
  5  4  1  0  0  0  0
  6  7  1  0  0  0  0
  6  5  1  0  0  0  0
  7 16  1  0  0  0  0
  7  8  1  0  0  0  0
  8 17  1  6  0  0  0
  8 36  1  0  0  0  0
  8  3  1  0  0  0  0
 11  5  1  0  0  0  0
 13  6  1  0  0  0  0
 14  6  1  0  0  0  0
 15  7  1  0  0  0  0
 18 23  2  0  0  0  0
 18 19  1  0  0  0  0
 19 20  2  0  0  0  0
 20 21  1  0  0  0  0
 20 26  1  0  0  0  0
 22 25  1  0  0  0  0
 22 21  2  0  0  0  0
 23 22  1  0  0  0  0
 24 18  1  0  0  0  0
 26 31  1  0  0  0  0
 27 26  2  0  0  0  0
 27 28  1  0  0  0  0
 28 29  2  0  0  0  0
 29 30  1  0  0  0  0
 29 34  1  0  0  0  0
 30 35  1  0  0  0  0
 31 30  2  0  0  0  0
 32 27  1  0  0  0  0
 33 28  1  0  0  0  0
 36 38  1  0  0  0  0
 36 37  1  0  0  0  0
 39 36  1  0  0  0  0
 40 39  2  0  0  0  0
 41 40  1  0  0  0  0
 42 41  1  0  0  0  0
 43 41  2  0  0  0  0
 43 44  1  0  0  0  0
 44 45  2  0  0  0  0
 45 39  1  0  0  0  0
M  END
>  <minimizedAffinity>
-5.08208132

>  <minimizedRMSD>
1.25022733

$$$$
