
 OpenBabel03242520123D

 32 34  0  0  0  0  0  0  0  0999 V2000
   46.1530   32.5820   46.9180 C   0  0  0  0  0  0  0  0  0  0  0  0
   45.2940   32.6550   47.9560 C   0  0  0  0  0  0  0  0  0  0  0  0
   45.4840   31.8220   49.0460 C   0  0  0  0  0  0  0  0  0  0  0  0
   46.5540   30.9260   49.0570 C   0  0  0  0  0  0  0  0  0  0  0  0
   47.4170   30.8870   47.9600 C   0  0  0  0  0  0  0  0  0  0  0  0
   47.1800   31.6950   46.9690 N   0  0  0  0  0  0  0  0  0  0  0  0
   44.5040   33.3790   47.8450 H   0  0  0  0  0  0  0  0  0  0  0  0
   44.7740   31.9140   49.8510 H   0  0  0  0  0  0  0  0  0  0  0  0
   46.6840   30.2810   49.9260 H   0  0  0  0  0  0  0  0  0  0  0  0
   44.9210   35.0460   44.5120 C   0  0  0  0  0  0  0  0  0  0  0  0
   45.8830   34.9290   43.4850 C   0  0  0  0  0  0  0  0  0  0  0  0
   46.9470   34.0130   43.6110 C   0  0  0  0  0  0  0  0  0  0  0  0
   46.9590   33.2990   44.7480 N   0  0  0  0  0  0  0  0  0  0  0  0
   46.0450   33.4140   45.7160 C   0  0  0  0  0  0  0  0  0  0  0  0
   45.0310   34.2890   45.5920 N   0  0  0  0  0  0  0  0  0  0  0  0
   43.8690   35.9740   44.3510 N   0  0  0  0  0  0  0  0  0  0  0  0
   45.7960   35.5440   42.6060 H   0  0  0  0  0  0  0  0  0  0  0  0
   47.6920   33.9020   42.8510 H   0  0  0  0  0  0  0  0  0  0  0  0
   43.4810   36.1090   43.3890 H   0  0  0  0  0  0  0  0  0  0  0  0
   43.5140   36.4900   45.1850 H   0  0  0  0  0  0  0  0  0  0  0  0
   48.5350   29.9650   47.9490 C   0  0  0  0  0  0  0  0  0  0  0  0
   49.6150   30.1150   48.7140 C   0  0  0  0  0  0  0  0  0  0  0  0
   49.7660   31.2480   49.6480 C   0  0  0  0  0  0  0  0  0  0  0  0
   48.7410   31.6440   49.8580 H   0  0  0  0  0  0  0  0  0  0  0  0
   50.2540   32.0700   49.0660 H   0  0  0  0  0  0  0  0  0  0  0  0
   50.4720   30.9340   50.8930 C   0  0  0  0  0  0  0  0  0  0  0  0
   51.2120   31.8320   51.6370 C   0  0  0  0  0  0  0  0  0  0  0  0
   51.7960   31.3250   52.7800 C   0  0  0  0  0  0  0  0  0  0  0  0
   52.3830   32.0050   53.3860 H   0  0  0  0  0  0  0  0  0  0  0  0
   51.6820   30.0510   53.1860 N   0  0  0  0  0  0  0  0  0  0  0  0
   50.9580   29.2050   52.4430 C   0  0  0  0  0  0  0  0  0  0  0  0
   50.3750   29.6570   51.3270 N   0  0  0  0  0  0  0  0  0  0  0  0
  1  6  2  0  0  0  0
  1  2  1  0  0  0  0
  2  3  2  0  0  0  0
  3  4  1  0  0  0  0
  3  8  1  0  0  0  0
  4  9  1  0  0  0  0
  5  4  2  0  0  0  0
  6  5  1  0  0  0  0
  7  2  1  0  0  0  0
 10 15  1  0  0  0  0
 11 12  1  0  0  0  0
 11 10  2  0  0  0  0
 12 13  2  0  0  0  0
 13 14  1  0  0  0  0
 14  1  1  0  0  0  0
 15 14  2  0  0  0  0
 16 10  1  0  0  0  0
 16 20  1  0  0  0  0
 17 11  1  0  0  0  0
 18 12  1  0  0  0  0
 19 16  1  0  0  0  0
 21  5  1  0  0  0  0
 21 22  2  0  0  0  0
 22 23  1  0  0  0  0
 23 24  1  0  0  0  0
 23 26  1  0  0  0  0
 25 23  1  0  0  0  0
 26 32  2  0  0  0  0
 26 27  1  0  0  0  0
 27 28  2  0  0  0  0
 28 30  1  0  0  0  0
 28 29  1  0  0  0  0
 31 30  2  0  0  0  0
 32 31  1  0  0  0  0
M  END
>  <minimizedAffinity>
-6.7282443

>  <minimizedRMSD>
0.684885204

$$$$
