
 OpenBabel03252505523D

 23 24  0  0  0  0  0  0  0  0999 V2000
   38.9100   31.4510   41.3050 C   0  0  0  0  0  0  0  0  0  0  0  0
   37.8380   31.9680   40.5840 C   0  0  0  0  0  0  0  0  0  0  0  0
   36.6070   31.2990   40.6840 C   0  0  0  0  0  0  0  0  0  0  0  0
   36.5210   30.2050   41.4620 N   0  0  0  0  0  0  0  0  0  0  0  0
   37.5950   29.7410   42.1450 C   0  0  0  0  0  0  0  0  0  0  0  0
   38.7760   30.3540   42.0700 N   0  0  0  0  0  0  0  0  0  0  0  0
   39.8740   31.9460   41.2470 H   0  0  0  0  0  0  0  0  0  0  0  0
   35.7800   31.7090   40.1200 H   0  0  0  0  0  0  0  0  0  0  0  0
   38.0650   33.1940   39.7590 C   0  0  0  0  0  0  0  0  0  0  0  0
   39.0090   32.8250   38.8230 F   0  0  0  0  0  0  0  0  0  0  0  0
   38.5850   34.1600   40.6200 F   0  0  0  0  0  0  0  0  0  0  0  0
   36.8760   33.5790   39.2070 F   0  0  0  0  0  0  0  0  0  0  0  0
   37.5380   28.6120   42.9560 O   0  0  0  0  0  0  0  0  0  0  0  0
   36.6980   27.5340   42.6660 C   0  0  0  0  0  0  0  0  0  0  0  0
   35.8910   27.4010   43.4050 H   0  0  0  0  0  0  0  0  0  0  0  0
   36.2930   27.7250   41.6360 H   0  0  0  0  0  0  0  0  0  0  0  0
   37.5140   26.3010   42.5910 C   0  0  0  0  0  0  0  0  0  0  0  0
   37.3140   25.0500   42.0550 C   0  0  0  0  0  3  0  0  0  0  0  0
   38.3010   24.1060   42.1550 C   0  0  0  0  0  0  0  0  0  0  0  0
   38.0440   23.1510   41.6990 H   0  0  0  0  0  0  0  0  0  0  0  0
   39.4610   24.3570   42.7580 N   0  0  0  0  0  0  0  0  0  0  0  0
   39.6720   25.5780   43.2870 C   0  0  0  0  0  3  0  0  0  0  0  0
   38.7110   26.5460   43.2090 N   0  0  0  0  0  0  0  0  0  0  0  0
  1  6  1  0  0  0  0
  2  3  1  0  0  0  0
  2  1  2  0  0  0  0
  3  4  2  0  0  0  0
  4  5  1  0  0  0  0
  5 13  1  0  0  0  0
  6  5  2  0  0  0  0
  7  1  1  0  0  0  0
  8  3  1  0  0  0  0
  9  2  1  0  0  0  0
  9 11  1  0  0  0  0
 10  9  1  0  0  0  0
 12  9  1  0  0  0  0
 14 13  1  0  0  0  0
 14 15  1  0  0  0  0
 16 14  1  0  0  0  0
 17 14  1  0  0  0  0
 17 23  1  0  0  0  0
 18 19  1  0  0  0  0
 18 17  2  0  0  0  0
 19 21  2  0  0  0  0
 20 19  1  0  0  0  0
 21 22  1  0  0  0  0
 23 22  2  0  0  0  0
M  END
>  <minimizedAffinity>
-4.93910599

$$$$

 OpenBabel03252505523D

 23 24  0  0  0  0  0  0  0  0999 V2000
   36.5720   31.0950   40.5080 C   0  0  0  0  0  0  0  0  0  0  0  0
   37.7680   31.7780   40.3100 C   0  0  0  0  0  0  0  0  0  0  0  0
   38.8630   31.4170   41.1130 C   0  0  0  0  0  0  0  0  0  0  0  0
   38.7070   30.4400   42.0240 N   0  0  0  0  0  0  0  0  0  0  0  0
   37.5210   29.8040   42.1790 C   0  0  0  0  0  0  0  0  0  0  0  0
   36.4650   30.1240   41.4320 N   0  0  0  0  0  0  0  0  0  0  0  0
   35.7090   31.3520   39.9030 H   0  0  0  0  0  0  0  0  0  0  0  0
   39.7880   31.9540   40.9500 H   0  0  0  0  0  0  0  0  0  0  0  0
   37.8100   32.8410   39.2600 C   0  0  0  0  0  0  0  0  0  0  0  0
   37.4470   32.2040   38.0920 F   0  0  0  0  0  0  0  0  0  0  0  0
   39.1340   33.2740   39.1860 F   0  0  0  0  0  0  0  0  0  0  0  0
   36.9560   33.8470   39.6160 F   0  0  0  0  0  0  0  0  0  0  0  0
   37.3290   28.7910   43.1130 O   0  0  0  0  0  0  0  0  0  0  0  0
   36.9670   27.4950   42.7360 C   0  0  0  0  0  0  0  0  0  0  0  0
   36.0930   27.1110   43.2870 H   0  0  0  0  0  0  0  0  0  0  0  0
   36.7780   27.5350   41.6290 H   0  0  0  0  0  0  0  0  0  0  0  0
   38.1250   26.5960   42.9470 C   0  0  0  0  0  0  0  0  0  0  0  0
   39.2860   26.6830   43.6800 C   0  0  0  0  0  3  0  0  0  0  0  0
   40.1760   25.6420   43.6620 C   0  0  0  0  0  0  0  0  0  0  0  0
   41.0610   25.8100   44.2740 H   0  0  0  0  0  0  0  0  0  0  0  0
   39.9560   24.5360   42.9550 N   0  0  0  0  0  0  0  0  0  0  0  0
   38.8230   24.4360   42.2340 C   0  0  0  0  0  3  0  0  0  0  0  0
   37.9110   25.4540   42.2240 N   0  0  0  0  0  0  0  0  0  0  0  0
  1  6  1  0  0  0  0
  2  1  2  0  0  0  0
  2  3  1  0  0  0  0
  3  4  2  0  0  0  0
  4  5  1  0  0  0  0
  5 13  1  0  0  0  0
  6  5  2  0  0  0  0
  7  1  1  0  0  0  0
  8  3  1  0  0  0  0
  9 12  1  0  0  0  0
  9  2  1  0  0  0  0
 10  9  1  0  0  0  0
 11  9  1  0  0  0  0
 14 17  1  0  0  0  0
 14 13  1  0  0  0  0
 14 15  1  0  0  0  0
 16 14  1  0  0  0  0
 17 18  1  0  0  0  0
 19 18  2  0  0  0  0
 19 20  1  0  0  0  0
 21 19  1  0  0  0  0
 22 21  2  0  0  0  0
 23 22  1  0  0  0  0
 23 17  2  0  0  0  0
M  END
>  <minimizedAffinity>
-4.92321014

$$$$

 OpenBabel03252505523D

 23 24  0  0  0  0  0  0  0  0999 V2000
   36.8620   26.7220   40.5240 C   0  0  0  0  0  0  0  0  0  0  0  0
   37.0800   25.9910   41.6880 C   0  0  0  0  0  0  0  0  0  0  0  0
   37.1390   26.7000   42.8980 C   0  0  0  0  0  0  0  0  0  0  0  0
   36.9850   28.0370   42.8780 N   0  0  0  0  0  0  0  0  0  0  0  0
   36.7750   28.7030   41.7170 C   0  0  0  0  0  0  0  0  0  0  0  0
   36.7130   28.0580   40.5540 N   0  0  0  0  0  0  0  0  0  0  0  0
   36.8110   26.2010   39.5740 H   0  0  0  0  0  0  0  0  0  0  0  0
   37.3080   26.1230   43.7970 H   0  0  0  0  0  0  0  0  0  0  0  0
   37.2300   24.5080   41.5740 C   0  0  0  0  0  0  0  0  0  0  0  0
   38.0360   24.3140   40.4710 F   0  0  0  0  0  0  0  0  0  0  0  0
   35.9540   23.9960   41.3400 F   0  0  0  0  0  0  0  0  0  0  0  0
   37.7740   24.0300   42.7330 F   0  0  0  0  0  0  0  0  0  0  0  0
   36.6130   30.0850   41.6640 O   0  0  0  0  0  0  0  0  0  0  0  0
   36.3730   30.7560   40.4630 C   0  0  0  0  0  0  0  0  0  0  0  0
   36.4880   30.1120   39.5750 H   0  0  0  0  0  0  0  0  0  0  0  0
   35.3340   31.1750   40.5420 H   0  0  0  0  0  0  0  0  0  0  0  0
   37.3000   31.9070   40.3660 C   0  0  0  0  0  0  0  0  0  0  0  0
   37.2400   33.1370   39.7530 C   0  0  0  0  0  3  0  0  0  0  0  0
   38.2990   33.9990   39.8620 C   0  0  0  0  0  0  0  0  0  0  0  0
   38.1520   34.9440   39.3420 H   0  0  0  0  0  0  0  0  0  0  0  0
   39.3960   33.6870   40.5490 N   0  0  0  0  0  0  0  0  0  0  0  0
   39.4690   32.4860   41.1550 C   0  0  0  0  0  3  0  0  0  0  0  0
   38.4330   31.5980   41.0680 N   0  0  0  0  0  0  0  0  0  0  0  0
  1  6  2  0  0  0  0
  1  2  1  0  0  0  0
  2  3  2  0  0  0  0
  3  8  1  0  0  0  0
  4  3  1  0  0  0  0
  5  4  2  0  0  0  0
  6  5  1  0  0  0  0
  7  1  1  0  0  0  0
  9  2  1  0  0  0  0
  9 12  1  0  0  0  0
 10  9  1  0  0  0  0
 11  9  1  0  0  0  0
 13  5  1  0  0  0  0
 14 16  1  0  0  0  0
 14 13  1  0  0  0  0
 15 14  1  0  0  0  0
 17 14  1  0  0  0  0
 17 23  1  0  0  0  0
 18 19  1  0  0  0  0
 18 17  2  0  0  0  0
 19 21  2  0  0  0  0
 20 19  1  0  0  0  0
 21 22  1  0  0  0  0
 23 22  2  0  0  0  0
M  END
>  <minimizedAffinity>
-4.75912952

$$$$

 OpenBabel03252505523D

 23 24  0  0  0  0  0  0  0  0999 V2000
   38.4970   27.7800   41.1390 C   0  0  0  0  0  0  0  0  0  0  0  0
   37.2130   27.6570   41.6610 C   0  0  0  0  0  0  0  0  0  0  0  0
   36.1600   28.2430   40.9380 C   0  0  0  0  0  0  0  0  0  0  0  0
   36.4380   28.8880   39.7900 N   0  0  0  0  0  0  0  0  0  0  0  0
   37.7060   28.9800   39.3240 C   0  0  0  0  0  0  0  0  0  0  0  0
   38.7250   28.4340   39.9860 N   0  0  0  0  0  0  0  0  0  0  0  0
   39.3300   27.3380   41.6750 H   0  0  0  0  0  0  0  0  0  0  0  0
   35.1660   28.1420   41.3520 H   0  0  0  0  0  0  0  0  0  0  0  0
   37.0390   26.9110   42.9440 C   0  0  0  0  0  0  0  0  0  0  0  0
   36.7490   25.6160   42.5680 F   0  0  0  0  0  0  0  0  0  0  0  0
   35.9460   27.4860   43.5920 F   0  0  0  0  0  0  0  0  0  0  0  0
   38.1890   27.0180   43.6750 F   0  0  0  0  0  0  0  0  0  0  0  0
   38.0250   29.6400   38.1410 O   0  0  0  0  0  0  0  0  0  0  0  0
   37.3760   30.8150   37.7520 C   0  0  0  0  0  0  0  0  0  0  0  0
   37.5020   31.0450   36.6810 H   0  0  0  0  0  0  0  0  0  0  0  0
   36.2950   30.6780   38.0250 H   0  0  0  0  0  0  0  0  0  0  0  0
   37.8920   31.9370   38.5680 C   0  0  0  0  0  0  0  0  0  0  0  0
   37.3120   32.8560   39.4100 C   0  0  0  0  0  3  0  0  0  0  0  0
   38.0940   33.7920   40.0330 C   0  0  0  0  0  0  0  0  0  0  0  0
   37.5390   34.4710   40.6780 H   0  0  0  0  0  0  0  0  0  0  0  0
   39.4120   33.8450   39.8520 N   0  0  0  0  0  0  0  0  0  0  0  0
   39.9950   32.9510   39.0300 C   0  0  0  0  0  3  0  0  0  0  0  0
   39.2470   32.0020   38.3890 N   0  0  0  0  0  0  0  0  0  0  0  0
  1  2  1  0  0  0  0
  1  7  1  0  0  0  0
  2  9  1  0  0  0  0
  3  8  1  0  0  0  0
  3  2  2  0  0  0  0
  4  3  1  0  0  0  0
  5  4  2  0  0  0  0
  5  6  1  0  0  0  0
  6  1  2  0  0  0  0
  9 11  1  0  0  0  0
  9 12  1  0  0  0  0
 10  9  1  0  0  0  0
 13  5  1  0  0  0  0
 14 16  1  0  0  0  0
 14 13  1  0  0  0  0
 14 17  1  0  0  0  0
 15 14  1  0  0  0  0
 17 18  1  0  0  0  0
 18 19  2  0  0  0  0
 19 20  1  0  0  0  0
 21 19  1  0  0  0  0
 22 21  2  0  0  0  0
 23 17  2  0  0  0  0
 23 22  1  0  0  0  0
M  END
>  <minimizedAffinity>
-4.62184048

$$$$

 OpenBabel03252505523D

 23 24  0  0  0  0  0  0  0  0999 V2000
   36.7230   27.2820   40.8320 C   0  0  0  0  0  0  0  0  0  0  0  0
   37.3390   26.7950   41.9800 C   0  0  0  0  0  0  0  0  0  0  0  0
   37.6840   27.7240   42.9760 C   0  0  0  0  0  0  0  0  0  0  0  0
   37.4070   29.0250   42.7760 N   0  0  0  0  0  0  0  0  0  0  0  0
   36.8050   29.4500   41.6390 C   0  0  0  0  0  0  0  0  0  0  0  0
   36.4650   28.5920   40.6780 N   0  0  0  0  0  0  0  0  0  0  0  0
   36.4450   26.5880   40.0460 H   0  0  0  0  0  0  0  0  0  0  0  0
   38.1630   27.3350   43.8650 H   0  0  0  0  0  0  0  0  0  0  0  0
   37.5880   25.3240   42.0810 C   0  0  0  0  0  0  0  0  0  0  0  0
   38.6700   25.2020   42.9270 F   0  0  0  0  0  0  0  0  0  0  0  0
   37.9220   24.8900   40.7990 F   0  0  0  0  0  0  0  0  0  0  0  0
   36.4580   24.7180   42.5550 F   0  0  0  0  0  0  0  0  0  0  0  0
   36.5060   30.7880   41.4030 O   0  0  0  0  0  0  0  0  0  0  0  0
   36.5740   31.3480   40.1250 C   0  0  0  0  0  0  0  0  0  0  0  0
   36.4800   30.6020   39.3190 H   0  0  0  0  0  0  0  0  0  0  0  0
   35.7570   32.1170   40.0780 H   0  0  0  0  0  0  0  0  0  0  0  0
   37.8600   32.0700   39.9880 C   0  0  0  0  0  0  0  0  0  0  0  0
   38.4650   33.0910   40.6830 C   0  0  0  0  0  3  0  0  0  0  0  0
   39.6970   33.5400   40.2880 C   0  0  0  0  0  0  0  0  0  0  0  0
   40.0880   34.3490   40.9030 H   0  0  0  0  0  0  0  0  0  0  0  0
   40.3380   33.0200   39.2440 N   0  0  0  0  0  0  0  0  0  0  0  0
   39.7580   32.0190   38.5540 C   0  0  0  0  0  3  0  0  0  0  0  0
   38.5290   31.5430   38.9170 N   0  0  0  0  0  0  0  0  0  0  0  0
  1  2  1  0  0  0  0
  2  9  1  0  0  0  0
  2  3  2  0  0  0  0
  3  8  1  0  0  0  0
  4  3  1  0  0  0  0
  5  4  2  0  0  0  0
  6  1  2  0  0  0  0
  6  5  1  0  0  0  0
  7  1  1  0  0  0  0
  9 12  1  0  0  0  0
  9 10  1  0  0  0  0
 11  9  1  0  0  0  0
 13  5  1  0  0  0  0
 14 13  1  0  0  0  0
 15 14  1  0  0  0  0
 16 14  1  0  0  0  0
 17 14  1  0  0  0  0
 17 18  1  0  0  0  0
 19 18  2  0  0  0  0
 19 20  1  0  0  0  0
 21 19  1  0  0  0  0
 22 23  1  0  0  0  0
 22 21  2  0  0  0  0
 23 17  2  0  0  0  0
M  END
>  <minimizedAffinity>
-4.56631231

$$$$

 OpenBabel03252505523D

 23 24  0  0  0  0  0  0  0  0999 V2000
   39.2270   27.2580   41.9530 C   0  0  0  0  0  0  0  0  0  0  0  0
   38.3340   26.2670   42.3510 C   0  0  0  0  0  0  0  0  0  0  0  0
   36.9970   26.6440   42.5570 C   0  0  0  0  0  0  0  0  0  0  0  0
   36.6440   27.9280   42.3640 N   0  0  0  0  0  0  0  0  0  0  0  0
   37.5520   28.8560   41.9750 C   0  0  0  0  0  0  0  0  0  0  0  0
   38.8270   28.5290   41.7710 N   0  0  0  0  0  0  0  0  0  0  0  0
   40.2660   26.9970   41.7860 H   0  0  0  0  0  0  0  0  0  0  0  0
   36.3110   25.8660   42.8660 H   0  0  0  0  0  0  0  0  0  0  0  0
   38.8530   24.8760   42.5270 C   0  0  0  0  0  0  0  0  0  0  0  0
   39.5810   24.6200   41.3840 F   0  0  0  0  0  0  0  0  0  0  0  0
   37.7380   24.0420   42.5910 F   0  0  0  0  0  0  0  0  0  0  0  0
   39.6020   24.8270   43.6690 F   0  0  0  0  0  0  0  0  0  0  0  0
   37.2180   30.1900   41.7680 O   0  0  0  0  0  0  0  0  0  0  0  0
   36.1430   30.5670   40.9580 C   0  0  0  0  0  0  0  0  0  0  0  0
   35.3120   29.8430   40.9750 H   0  0  0  0  0  0  0  0  0  0  0  0
   35.8210   31.5800   41.3210 H   0  0  0  0  0  0  0  0  0  0  0  0
   36.6280   30.7370   39.5700 C   0  0  0  0  0  0  0  0  0  0  0  0
   37.4780   31.6250   38.9530 C   0  0  0  0  0  3  0  0  0  0  0  0
   37.7270   31.5030   37.6120 C   0  0  0  0  0  0  0  0  0  0  0  0
   38.4120   32.2540   37.2210 H   0  0  0  0  0  0  0  0  0  0  0  0
   37.1710   30.5440   36.8740 N   0  0  0  0  0  0  0  0  0  0  0  0
   36.3370   29.6660   37.4650 C   0  0  0  0  0  3  0  0  0  0  0  0
   36.0630   29.7560   38.8010 N   0  0  0  0  0  0  0  0  0  0  0  0
  1  2  1  0  0  0  0
  2  9  1  0  0  0  0
  2  3  2  0  0  0  0
  3  8  1  0  0  0  0
  4  3  1  0  0  0  0
  5  4  2  0  0  0  0
  6  1  2  0  0  0  0
  6  5  1  0  0  0  0
  7  1  1  0  0  0  0
  9 11  1  0  0  0  0
  9 12  1  0  0  0  0
 10  9  1  0  0  0  0
 13  5  1  0  0  0  0
 14 15  1  0  0  0  0
 14 16  1  0  0  0  0
 14 13  1  0  0  0  0
 17 14  1  0  0  0  0
 18 17  1  0  0  0  0
 19 18  2  0  0  0  0
 20 19  1  0  0  0  0
 21 22  2  0  0  0  0
 21 19  1  0  0  0  0
 22 23  1  0  0  0  0
 23 17  2  0  0  0  0
M  END
>  <minimizedAffinity>
-4.51152134

$$$$

 OpenBabel03252505523D

 23 24  0  0  0  0  0  0  0  0999 V2000
   39.2230   27.1880   41.9360 C   0  0  0  0  0  0  0  0  0  0  0  0
   38.3420   26.1930   42.3480 C   0  0  0  0  0  0  0  0  0  0  0  0
   37.0140   26.5700   42.6080 C   0  0  0  0  0  0  0  0  0  0  0  0
   36.6590   27.8580   42.4490 N   0  0  0  0  0  0  0  0  0  0  0  0
   37.5550   28.7900   42.0450 C   0  0  0  0  0  0  0  0  0  0  0  0
   38.8210   28.4630   41.7910 N   0  0  0  0  0  0  0  0  0  0  0  0
   40.2550   26.9270   41.7280 H   0  0  0  0  0  0  0  0  0  0  0  0
   36.3360   25.7890   42.9280 H   0  0  0  0  0  0  0  0  0  0  0  0
   38.8610   24.7980   42.4820 C   0  0  0  0  0  0  0  0  0  0  0  0
   37.7370   24.0100   42.6180 F   0  0  0  0  0  0  0  0  0  0  0  0
   39.6210   24.7680   43.6510 F   0  0  0  0  0  0  0  0  0  0  0  0
   39.6030   24.4960   41.3750 F   0  0  0  0  0  0  0  0  0  0  0  0
   37.2190   30.1290   41.8730 O   0  0  0  0  0  0  0  0  0  0  0  0
   36.1630   30.5260   41.0490 C   0  0  0  0  0  0  0  0  0  0  0  0
   35.3090   29.8290   41.0700 H   0  0  0  0  0  0  0  0  0  0  0  0
   35.8690   31.5540   41.3950 H   0  0  0  0  0  0  0  0  0  0  0  0
   36.6630   30.6610   39.6620 C   0  0  0  0  0  0  0  0  0  0  0  0
   36.3900   30.0170   38.4780 C   0  0  0  0  0  3  0  0  0  0  0  0
   37.0440   30.3960   37.3360 C   0  0  0  0  0  0  0  0  0  0  0  0
   36.7570   29.8250   36.4540 H   0  0  0  0  0  0  0  0  0  0  0  0
   37.9450   31.3760   37.3290 N   0  0  0  0  0  0  0  0  0  0  0  0
   38.2230   32.0160   38.4820 C   0  0  0  0  0  3  0  0  0  0  0  0
   37.5910   31.6660   39.6430 N   0  0  0  0  0  0  0  0  0  0  0  0
  1  2  1  0  0  0  0
  2  9  1  0  0  0  0
  2  3  2  0  0  0  0
  3  8  1  0  0  0  0
  4  3  1  0  0  0  0
  5  4  2  0  0  0  0
  6  1  2  0  0  0  0
  6  5  1  0  0  0  0
  7  1  1  0  0  0  0
  9 10  1  0  0  0  0
  9 11  1  0  0  0  0
 12  9  1  0  0  0  0
 13  5  1  0  0  0  0
 14 15  1  0  0  0  0
 14 16  1  0  0  0  0
 14 13  1  0  0  0  0
 17 14  1  0  0  0  0
 18 17  2  0  0  0  0
 19 18  1  0  0  0  0
 20 19  1  0  0  0  0
 21 19  2  0  0  0  0
 21 22  1  0  0  0  0
 22 23  2  0  0  0  0
 23 17  1  0  0  0  0
M  END
>  <minimizedAffinity>
-4.45492315

$$$$

 OpenBabel03252505523D

 23 24  0  0  0  0  0  0  0  0999 V2000
   38.4760   29.6230   39.3770 C   0  0  0  0  0  0  0  0  0  0  0  0
   37.2270   30.0460   38.9330 C   0  0  0  0  0  0  0  0  0  0  0  0
   36.2370   30.2760   39.9030 C   0  0  0  0  0  0  0  0  0  0  0  0
   36.5380   30.0810   41.2000 N   0  0  0  0  0  0  0  0  0  0  0  0
   37.7710   29.6690   41.5820 C   0  0  0  0  0  0  0  0  0  0  0  0
   38.7300   29.4430   40.6850 N   0  0  0  0  0  0  0  0  0  0  0  0
   39.2600   29.4370   38.6510 H   0  0  0  0  0  0  0  0  0  0  0  0
   35.2700   30.6050   39.5480 H   0  0  0  0  0  0  0  0  0  0  0  0
   37.0230   30.2290   37.4640 C   0  0  0  0  0  0  0  0  0  0  0  0
   37.2980   31.5600   37.2290 F   0  0  0  0  0  0  0  0  0  0  0  0
   35.6780   29.9600   37.2130 F   0  0  0  0  0  0  0  0  0  0  0  0
   37.8550   29.3770   36.7940 F   0  0  0  0  0  0  0  0  0  0  0  0
   38.1120   29.4580   42.9140 O   0  0  0  0  0  0  0  0  0  0  0  0
   37.5170   28.4520   43.6800 C   0  0  0  0  0  0  0  0  0  0  0  0
   37.5650   28.6450   44.7640 H   0  0  0  0  0  0  0  0  0  0  0  0
   36.4560   28.3720   43.3180 H   0  0  0  0  0  0  0  0  0  0  0  0
   38.1790   27.1640   43.3730 C   0  0  0  0  0  0  0  0  0  0  0  0
   39.4040   26.6180   43.6800 C   0  0  0  0  0  3  0  0  0  0  0  0
   39.7170   25.3620   43.2310 C   0  0  0  0  0  0  0  0  0  0  0  0
   40.7070   25.0230   43.5270 H   0  0  0  0  0  0  0  0  0  0  0  0
   38.8680   24.6410   42.5000 N   0  0  0  0  0  0  0  0  0  0  0  0
   37.6650   25.1620   42.1920 C   0  0  0  0  0  3  0  0  0  0  0  0
   37.3170   26.4130   42.6210 N   0  0  0  0  0  0  0  0  0  0  0  0
  1  6  1  0  0  0  0
  2  1  2  0  0  0  0
  2  3  1  0  0  0  0
  3  4  2  0  0  0  0
  4  5  1  0  0  0  0
  5 13  1  0  0  0  0
  6  5  2  0  0  0  0
  7  1  1  0  0  0  0
  8  3  1  0  0  0  0
  9  2  1  0  0  0  0
 10  9  1  0  0  0  0
 11  9  1  0  0  0  0
 12  9  1  0  0  0  0
 13 14  1  0  0  0  0
 14 15  1  0  0  0  0
 16 14  1  0  0  0  0
 17 18  1  0  0  0  0
 17 14  1  0  0  0  0
 19 20  1  0  0  0  0
 19 18  2  0  0  0  0
 21 19  1  0  0  0  0
 22 21  2  0  0  0  0
 22 23  1  0  0  0  0
 23 17  2  0  0  0  0
M  END
>  <minimizedAffinity>
-4.39267111

$$$$

 OpenBabel03252505523D

 23 24  0  0  0  0  0  0  0  0999 V2000
   38.7180   26.5850   42.8900 C   0  0  0  0  0  0  0  0  0  0  0  0
   37.7620   26.0760   42.0160 C   0  0  0  0  0  0  0  0  0  0  0  0
   36.9910   26.9990   41.2890 C   0  0  0  0  0  0  0  0  0  0  0  0
   37.2090   28.3140   41.4690 N   0  0  0  0  0  0  0  0  0  0  0  0
   38.1530   28.7590   42.3320 C   0  0  0  0  0  0  0  0  0  0  0  0
   38.9000   27.9090   43.0350 N   0  0  0  0  0  0  0  0  0  0  0  0
   39.3280   25.8960   43.4640 H   0  0  0  0  0  0  0  0  0  0  0  0
   36.2510   26.5930   40.6120 H   0  0  0  0  0  0  0  0  0  0  0  0
   37.6220   24.5920   41.9050 C   0  0  0  0  0  0  0  0  0  0  0  0
   36.2910   24.3390   42.1640 F   0  0  0  0  0  0  0  0  0  0  0  0
   38.4250   24.0420   42.9030 F   0  0  0  0  0  0  0  0  0  0  0  0
   38.0140   24.2050   40.6540 F   0  0  0  0  0  0  0  0  0  0  0  0
   38.4010   30.1130   42.5400 O   0  0  0  0  0  0  0  0  0  0  0  0
   39.3800   30.8050   41.8230 C   0  0  0  0  0  0  0  0  0  0  0  0
   39.7330   31.7140   42.3350 H   0  0  0  0  0  0  0  0  0  0  0  0
   40.2150   30.0730   41.6510 H   0  0  0  0  0  0  0  0  0  0  0  0
   38.8340   31.1610   40.4930 C   0  0  0  0  0  0  0  0  0  0  0  0
   39.0630   30.7160   39.2120 C   0  0  0  0  0  3  0  0  0  0  0  0
   38.3680   31.2690   38.1690 C   0  0  0  0  0  0  0  0  0  0  0  0
   38.6220   30.8480   37.1980 H   0  0  0  0  0  0  0  0  0  0  0  0
   37.4680   32.2330   38.3530 N   0  0  0  0  0  0  0  0  0  0  0  0
   37.2320   32.6780   39.6020 C   0  0  0  0  0  3  0  0  0  0  0  0
   37.9070   32.1520   40.6680 N   0  0  0  0  0  0  0  0  0  0  0  0
  1  6  1  0  0  0  0
  1  7  1  0  0  0  0
  2  1  2  0  0  0  0
  3  4  2  0  0  0  0
  3  2  1  0  0  0  0
  4  5  1  0  0  0  0
  5 13  1  0  0  0  0
  5  6  2  0  0  0  0
  8  3  1  0  0  0  0
  9  2  1  0  0  0  0
  9 10  1  0  0  0  0
  9 11  1  0  0  0  0
 12  9  1  0  0  0  0
 14 15  1  0  0  0  0
 14 13  1  0  0  0  0
 16 14  1  0  0  0  0
 17 23  1  0  0  0  0
 17 14  1  0  0  0  0
 18 17  2  0  0  0  0
 19 21  2  0  0  0  0
 19 18  1  0  0  0  0
 20 19  1  0  0  0  0
 21 22  1  0  0  0  0
 22 23  2  0  0  0  0
M  END
>  <minimizedAffinity>
-4.31820536

$$$$
