
 OpenBabel03252502363D

 22 23  0  0  1  0  0  0  0  0999 V2000
   47.6740   35.1780   41.4700 C   0  0  2  0  0  0  0  0  0  0  0  0
   47.1870   36.0480   40.9800 H   0  0  0  0  0  0  0  0  0  0  0  0
   45.7530   35.4900   42.9450 C   0  0  0  0  0  0  0  0  0  0  0  0
   46.9440   34.8260   42.6730 C   0  0  0  0  0  0  0  0  0  0  0  0
   47.3460   33.8530   43.5920 C   0  0  0  0  0  0  0  0  0  0  0  0
   46.5420   33.6340   44.6750 N   0  0  0  0  0  0  0  0  0  0  0  0
   45.4050   34.2990   44.8930 C   0  0  0  0  0  0  0  0  0  0  0  0
   45.0130   35.2310   44.0180 N   0  0  0  0  0  0  0  0  0  0  0  0
   45.3300   36.2710   42.3050 H   0  0  0  0  0  0  0  0  0  0  0  0
   48.2600   33.3530   43.3710 H   0  0  0  0  0  0  0  0  0  0  0  0
   44.9440   33.9480   45.8180 H   0  0  0  0  0  0  0  0  0  0  0  0
   47.7020   34.0070   40.5560 C   0  0  0  0  0  0  0  0  0  0  0  0
   46.6130   33.5920   39.8250 C   0  0  0  0  0  0  0  0  0  0  0  0
   46.7560   32.4860   39.0050 C   0  0  0  0  0  0  0  0  0  0  0  0
   45.9260   32.1290   38.4150 H   0  0  0  0  0  0  0  0  0  0  0  0
   47.9080   31.8030   38.8890 N   0  0  0  0  0  0  0  0  0  0  0  0
   48.9610   32.2290   39.6150 C   0  0  0  0  0  0  0  0  0  0  0  0
   48.8530   33.3000   40.4220 N   0  0  0  0  0  0  0  0  0  0  0  0
   49.0980   35.4920   41.8670 C   0  0  0  0  0  0  0  0  0  0  0  0
   49.7260   34.5700   41.8680 H   0  0  0  0  0  0  0  0  0  0  0  0
   49.1040   35.8830   42.9060 H   0  0  0  0  0  0  0  0  0  0  0  0
   49.5310   36.2900   41.2320 H   0  0  0  0  0  0  0  0  0  0  0  0
  1  2  1  6  0  0  0
  1 19  1  0  0  0  0
  1  4  1  0  0  0  0
  3  8  1  0  0  0  0
  4  3  2  0  0  0  0
  4  5  1  0  0  0  0
  5  6  2  0  0  0  0
  6  7  1  0  0  0  0
  7 11  1  0  0  0  0
  8  7  2  0  0  0  0
  9  3  1  0  0  0  0
 10  5  1  0  0  0  0
 12  1  1  0  0  0  0
 13 12  2  0  0  0  0
 14 13  1  0  0  0  0
 15 14  1  0  0  0  0
 16 14  2  0  0  0  0
 16 17  1  0  0  0  0
 17 18  2  0  0  0  0
 18 12  1  0  0  0  0
 19 20  1  0  0  0  0
 19 21  1  0  0  0  0
 22 19  1  0  0  0  0
M  END
>  <minimizedAffinity>
-4.08121347

>  <minimizedRMSD>
1.76753569

$$$$
