
 OpenBabel03242520593D

 39 41  0  0  0  0  0  0  0  0999 V2000
   38.1500   32.1350   40.7950 C   0  0  0  0  0  3  0  0  0  0  0  0
   38.0660   33.0670   39.8720 C   0  0  0  0  0  3  0  0  0  0  0  0
   37.6280   28.9400   39.0990 C   0  0  0  0  0  0  0  0  0  0  0  0
   36.9580   28.1720   40.0960 C   0  0  0  0  0  0  0  0  0  0  0  0
   36.7030   28.7760   41.3160 C   0  0  0  0  0  0  0  0  0  0  0  0
   37.1050   30.0390   41.4700 N   0  0  0  0  0  0  0  0  0  0  0  0
   37.7290   30.7580   40.5460 C   0  0  0  0  0  0  0  0  0  0  0  0
   37.9990   30.2090   39.3400 N   0  0  0  0  0  0  0  0  0  0  0  0
   37.9170   28.6530   38.0890 H   0  0  0  0  0  0  0  0  0  0  0  0
   36.7700   26.8660   39.4940 C   0  0  0  0  0  0  0  0  0  0  0  0
   36.5640   25.6250   40.0330 C   0  0  0  0  0  3  0  0  0  0  0  0
   36.3390   24.4390   39.3800 C   0  0  0  0  0  0  0  0  0  0  0  0
   36.1970   23.5540   39.9690 H   0  0  0  0  0  0  0  0  0  0  0  0
   36.3280   24.5700   38.0440 N   0  0  0  0  0  0  0  0  0  0  0  0
   36.5200   25.7480   37.4340 C   0  0  0  0  0  3  0  0  0  0  0  0
   36.7360   26.8710   38.1260 N   0  0  0  0  0  0  0  0  0  0  0  0
   36.0740   28.1100   42.3130 O   0  0  0  0  0  0  0  0  0  0  0  0
   36.8410   27.7160   43.4440 C   0  0  0  0  0  0  0  0  0  0  0  0
   35.9720   27.4290   44.5030 F   0  0  0  0  0  0  0  0  0  0  0  0
   37.4760   26.5300   43.0790 F   0  0  0  0  0  0  0  0  0  0  0  0
   37.8160   28.6340   43.8220 F   0  0  0  0  0  0  0  0  0  0  0  0
   38.5080   34.4560   40.1710 C   0  0  0  0  0  0  0  0  0  0  0  0
   38.6450   34.9310   39.2010 H   0  0  0  0  0  0  0  0  0  0  0  0
   37.6140   34.9600   40.6320 H   0  0  0  0  0  0  0  0  0  0  0  0
   40.8270   34.4830   40.4760 C   0  0  0  0  0  0  0  0  0  0  0  0
   41.2190   34.4500   39.2850 O   0  0  0  0  0  0  0  0  0  0  0  0
   39.5730   34.5100   41.0800 N   0  0  0  0  0  0  0  0  0  0  0  0
   39.5170   34.5650   42.1160 H   0  0  0  0  0  0  0  0  0  0  0  0
   42.5990   32.0020   40.5970 Cl  0  0  0  0  0  0  0  0  0  0  0  0
   43.0550   33.4990   41.3420 C   0  0  0  0  0  0  0  0  0  0  0  0
   42.1200   34.4900   41.1710 C   0  0  0  0  0  0  0  0  0  0  0  0
   42.3350   35.7670   41.7140 C   0  0  0  0  0  0  0  0  0  0  0  0
   43.4970   36.0360   42.4300 C   0  0  0  0  0  0  0  0  0  0  0  0
   44.4240   35.0300   42.5920 C   0  0  0  0  0  0  0  0  0  0  0  0
   45.9040   35.2880   43.4790 Cl  0  0  0  0  0  0  0  0  0  0  0  0
   44.1920   33.7940   42.0540 C   0  0  0  0  0  0  0  0  0  0  0  0
   41.6810   36.6240   41.6490 H   0  0  0  0  0  0  0  0  0  0  0  0
   43.7170   36.9920   42.8680 H   0  0  0  0  0  0  0  0  0  0  0  0
   44.8810   32.9430   42.1400 H   0  0  0  0  0  0  0  0  0  0  0  0
  2 22  1  0  0  0  0
  2  1  2  0  0  0  0
  3  8  2  0  0  0  0
  3  4  1  0  0  0  0
  4  5  2  0  0  0  0
  5  6  1  0  0  0  0
  5 17  1  0  0  0  0
  7  1  1  0  0  0  0
  7  6  2  0  0  0  0
  8  7  1  0  0  0  0
  9  3  1  0  0  0  0
 10 11  1  0  0  0  0
 10  4  1  0  0  0  0
 12 13  1  0  0  0  0
 12 11  2  0  0  0  0
 14 12  1  0  0  0  0
 15 14  2  0  0  0  0
 15 16  1  0  0  0  0
 16 10  2  0  0  0  0
 17 18  1  0  0  0  0
 18 21  1  0  0  0  0
 18 19  1  0  0  0  0
 20 18  1  0  0  0  0
 22 24  1  0  0  0  0
 22 27  1  0  0  0  0
 23 22  1  0  0  0  0
 25 27  1  0  0  0  0
 25 31  1  0  0  0  0
 26 25  2  0  0  0  0
 27 28  1  0  0  0  0
 29 30  1  0  0  0  0
 30 36  1  0  0  0  0
 31 30  2  0  0  0  0
 31 32  1  0  0  0  0
 32 33  2  0  0  0  0
 33 34  1  0  0  0  0
 33 38  1  0  0  0  0
 34 35  1  0  0  0  0
 36 39  1  0  0  0  0
 36 34  2  0  0  0  0
 37 32  1  0  0  0  0
M  END
>  <minimizedAffinity>
-6.49096107

$$$$

 OpenBabel03242520593D

 39 41  0  0  0  0  0  0  0  0999 V2000
   37.3630   31.0100   39.3780 C   0  0  0  0  0  3  0  0  0  0  0  0
   37.8180   31.9280   40.2000 C   0  0  0  0  0  3  0  0  0  0  0  0
   37.4270   27.3580   39.2320 C   0  0  0  0  0  0  0  0  0  0  0  0
   36.9880   26.9950   40.5390 C   0  0  0  0  0  0  0  0  0  0  0  0
   36.6800   28.0120   41.4260 C   0  0  0  0  0  0  0  0  0  0  0  0
   36.8170   29.2660   40.9910 N   0  0  0  0  0  0  0  0  0  0  0  0
   37.2260   29.6110   39.7770 C   0  0  0  0  0  0  0  0  0  0  0  0
   37.5380   28.6500   38.8770 N   0  0  0  0  0  0  0  0  0  0  0  0
   37.7130   26.7180   38.3990 H   0  0  0  0  0  0  0  0  0  0  0  0
   37.0440   25.5450   40.5590 C   0  0  0  0  0  0  0  0  0  0  0  0
   36.2650   24.5850   39.9710 C   0  0  0  0  0  3  0  0  0  0  0  0
   36.4260   23.2230   39.9980 C   0  0  0  0  0  0  0  0  0  0  0  0
   35.7110   22.6170   39.4770 H   0  0  0  0  0  0  0  0  0  0  0  0
   37.5000   22.8360   40.7050 N   0  0  0  0  0  0  0  0  0  0  0  0
   38.3160   23.7090   41.3120 C   0  0  0  0  0  3  0  0  0  0  0  0
   38.1070   25.0270   41.2490 N   0  0  0  0  0  0  0  0  0  0  0  0
   36.2600   27.7450   42.6850 O   0  0  0  0  0  0  0  0  0  0  0  0
   37.1820   27.9250   43.7520 C   0  0  0  0  0  0  0  0  0  0  0  0
   37.6420   29.2470   43.7370 F   0  0  0  0  0  0  0  0  0  0  0  0
   36.4500   27.7410   44.9240 F   0  0  0  0  0  0  0  0  0  0  0  0
   38.2390   27.0200   43.7530 F   0  0  0  0  0  0  0  0  0  0  0  0
   37.9390   33.3410   39.7500 C   0  0  0  0  0  0  0  0  0  0  0  0
   37.5040   33.3650   38.7520 H   0  0  0  0  0  0  0  0  0  0  0  0
   37.2300   33.9230   40.4030 H   0  0  0  0  0  0  0  0  0  0  0  0
   40.2050   33.1690   39.2000 C   0  0  0  0  0  0  0  0  0  0  0  0
   40.1810   32.1920   38.4150 O   0  0  0  0  0  0  0  0  0  0  0  0
   39.2300   33.8610   39.9120 N   0  0  0  0  0  0  0  0  0  0  0  0
   39.5150   34.6770   40.4890 H   0  0  0  0  0  0  0  0  0  0  0  0
   41.9740   32.4930   41.5920 Cl  0  0  0  0  0  0  0  0  0  0  0  0
   42.6040   33.2400   40.1610 C   0  0  0  0  0  0  0  0  0  0  0  0
   41.6450   33.4580   39.2040 C   0  0  0  0  0  0  0  0  0  0  0  0
   41.9880   34.0580   37.9810 C   0  0  0  0  0  0  0  0  0  0  0  0
   43.3040   34.4350   37.7330 C   0  0  0  0  0  0  0  0  0  0  0  0
   44.2540   34.2080   38.7050 C   0  0  0  0  0  0  0  0  0  0  0  0
   45.9240   34.6550   38.4700 Cl  0  0  0  0  0  0  0  0  0  0  0  0
   43.8940   33.6230   39.8880 C   0  0  0  0  0  0  0  0  0  0  0  0
   41.3310   34.2820   37.1540 H   0  0  0  0  0  0  0  0  0  0  0  0
   43.6280   34.8970   36.8180 H   0  0  0  0  0  0  0  0  0  0  0  0
   44.5920   33.4100   40.7090 H   0  0  0  0  0  0  0  0  0  0  0  0
  1  7  1  0  0  0  0
  1  2  2  0  0  0  0
  3  4  1  0  0  0  0
  4 10  1  0  0  0  0
  4  5  2  0  0  0  0
  5 17  1  0  0  0  0
  6  5  1  0  0  0  0
  7  6  2  0  0  0  0
  8  3  2  0  0  0  0
  8  7  1  0  0  0  0
  9  3  1  0  0  0  0
 10 16  1  0  0  0  0
 11 12  1  0  0  0  0
 11 10  2  0  0  0  0
 12 14  2  0  0  0  0
 13 12  1  0  0  0  0
 14 15  1  0  0  0  0
 16 15  2  0  0  0  0
 17 18  1  0  0  0  0
 18 21  1  0  0  0  0
 18 20  1  0  0  0  0
 19 18  1  0  0  0  0
 22 27  1  0  0  0  0
 22  2  1  0  0  0  0
 22 24  1  0  0  0  0
 23 22  1  0  0  0  0
 25 31  1  0  0  0  0
 25 27  1  0  0  0  0
 26 25  2  0  0  0  0
 27 28  1  0  0  0  0
 30 29  1  0  0  0  0
 31 30  2  0  0  0  0
 32 31  1  0  0  0  0
 33 32  2  0  0  0  0
 33 34  1  0  0  0  0
 34 36  2  0  0  0  0
 35 34  1  0  0  0  0
 36 30  1  0  0  0  0
 36 39  1  0  0  0  0
 37 32  1  0  0  0  0
 38 33  1  0  0  0  0
M  END
>  <minimizedAffinity>
-6.29658556

$$$$

 OpenBabel03242520593D

 39 41  0  0  0  0  0  0  0  0999 V2000
   38.2460   29.7870   42.2880 C   0  0  0  0  0  3  0  0  0  0  0  0
   38.3520   29.0840   43.3930 C   0  0  0  0  0  3  0  0  0  0  0  0
   41.4520   31.5230   42.0420 C   0  0  0  0  0  0  0  0  0  0  0  0
   41.1660   32.5570   41.1030 C   0  0  0  0  0  0  0  0  0  0  0  0
   39.8830   32.6280   40.5880 C   0  0  0  0  0  0  0  0  0  0  0  0
   39.0030   31.7190   41.0090 N   0  0  0  0  0  0  0  0  0  0  0  0
   39.2630   30.7540   41.8830 C   0  0  0  0  0  0  0  0  0  0  0  0
   40.5030   30.6470   42.4120 N   0  0  0  0  0  0  0  0  0  0  0  0
   42.3850   31.3000   42.5570 H   0  0  0  0  0  0  0  0  0  0  0  0
   42.4270   33.2530   40.9230 C   0  0  0  0  0  0  0  0  0  0  0  0
   43.0440   34.2410   41.6430 C   0  0  0  0  0  3  0  0  0  0  0  0
   44.2740   34.8080   41.4290 C   0  0  0  0  0  0  0  0  0  0  0  0
   44.6020   35.5790   42.1000 H   0  0  0  0  0  0  0  0  0  0  0  0
   44.9130   34.2920   40.3670 N   0  0  0  0  0  0  0  0  0  0  0  0
   44.3820   33.3220   39.6090 C   0  0  0  0  0  3  0  0  0  0  0  0
   43.1750   32.8090   39.8670 N   0  0  0  0  0  0  0  0  0  0  0  0
   39.5380   33.5800   39.6890 O   0  0  0  0  0  0  0  0  0  0  0  0
   39.0760   34.8320   40.1810 C   0  0  0  0  0  0  0  0  0  0  0  0
   39.9250   35.8430   39.7170 F   0  0  0  0  0  0  0  0  0  0  0  0
   37.8220   35.0290   39.6040 F   0  0  0  0  0  0  0  0  0  0  0  0
   38.9310   34.8840   41.5640 F   0  0  0  0  0  0  0  0  0  0  0  0
   37.2920   28.1080   43.7640 C   0  0  0  0  0  0  0  0  0  0  0  0
   37.7650   27.4170   44.4600 H   0  0  0  0  0  0  0  0  0  0  0  0
   36.5500   28.6940   44.3750 H   0  0  0  0  0  0  0  0  0  0  0  0
   37.3120   26.5070   42.0600 C   0  0  0  0  0  0  0  0  0  0  0  0
   38.3810   25.9050   42.3180 O   0  0  0  0  0  0  0  0  0  0  0  0
   36.6320   27.5660   42.6530 N   0  0  0  0  0  0  0  0  0  0  0  0
   35.7230   27.8680   42.2490 H   0  0  0  0  0  0  0  0  0  0  0  0
   36.9990   27.8760   39.3510 Cl  0  0  0  0  0  0  0  0  0  0  0  0
   36.6840   26.1870   39.5730 C   0  0  0  0  0  0  0  0  0  0  0  0
   36.8850   25.7690   40.8640 C   0  0  0  0  0  0  0  0  0  0  0  0
   36.6720   24.4260   41.2150 C   0  0  0  0  0  0  0  0  0  0  0  0
   36.2560   23.5100   40.2540 C   0  0  0  0  0  0  0  0  0  0  0  0
   36.0590   23.9470   38.9620 C   0  0  0  0  0  0  0  0  0  0  0  0
   35.5360   22.8600   37.7020 Cl  0  0  0  0  0  0  0  0  0  0  0  0
   36.2730   25.2600   38.6460 C   0  0  0  0  0  0  0  0  0  0  0  0
   36.7950   23.9760   42.1890 H   0  0  0  0  0  0  0  0  0  0  0  0
   36.0780   22.4700   40.4610 H   0  0  0  0  0  0  0  0  0  0  0  0
   36.1380   25.6840   37.6410 H   0  0  0  0  0  0  0  0  0  0  0  0
  1  2  2  0  0  0  0
  2 22  1  0  0  0  0
  3  8  1  0  0  0  0
  3  9  1  0  0  0  0
  4  3  2  0  0  0  0
  5  6  2  0  0  0  0
  5  4  1  0  0  0  0
  6  7  1  0  0  0  0
  7  1  1  0  0  0  0
  7  8  2  0  0  0  0
 10  4  1  0  0  0  0
 10 11  1  0  0  0  0
 12 11  2  0  0  0  0
 12 13  1  0  0  0  0
 14 12  1  0  0  0  0
 15 16  1  0  0  0  0
 15 14  2  0  0  0  0
 16 10  2  0  0  0  0
 17 18  1  0  0  0  0
 17  5  1  0  0  0  0
 18 21  1  0  0  0  0
 19 18  1  0  0  0  0
 20 18  1  0  0  0  0
 22 24  1  0  0  0  0
 22 23  1  0  0  0  0
 25 26  2  0  0  0  0
 25 27  1  0  0  0  0
 27 22  1  0  0  0  0
 28 27  1  0  0  0  0
 29 30  1  0  0  0  0
 30 31  1  0  0  0  0
 31 32  2  0  0  0  0
 31 25  1  0  0  0  0
 32 37  1  0  0  0  0
 33 38  1  0  0  0  0
 33 32  1  0  0  0  0
 34 33  2  0  0  0  0
 35 34  1  0  0  0  0
 36 34  1  0  0  0  0
 36 30  2  0  0  0  0
 39 36  1  0  0  0  0
M  END
>  <minimizedAffinity>
-6.23625422

$$$$

 OpenBabel03242520593D

 39 41  0  0  0  0  0  0  0  0999 V2000
   38.7130   28.4050   42.6780 C   0  0  0  0  0  3  0  0  0  0  0  0
   39.7640   27.6250   42.7960 C   0  0  0  0  0  3  0  0  0  0  0  0
   39.9280   31.7530   41.8570 C   0  0  0  0  0  0  0  0  0  0  0  0
   38.9570   32.2070   40.9170 C   0  0  0  0  0  0  0  0  0  0  0  0
   37.9140   31.3530   40.6000 C   0  0  0  0  0  0  0  0  0  0  0  0
   37.8940   30.1610   41.1980 N   0  0  0  0  0  0  0  0  0  0  0  0
   38.7960   29.7330   42.0720 C   0  0  0  0  0  0  0  0  0  0  0  0
   39.8320   30.5330   42.4130 N   0  0  0  0  0  0  0  0  0  0  0  0
   40.8120   32.2650   42.2360 H   0  0  0  0  0  0  0  0  0  0  0  0
   39.4190   33.5210   40.5120 C   0  0  0  0  0  0  0  0  0  0  0  0
   38.8110   34.7470   40.4980 C   0  0  0  0  0  3  0  0  0  0  0  0
   39.3470   35.9600   40.1470 C   0  0  0  0  0  0  0  0  0  0  0  0
   38.7180   36.8270   40.1960 H   0  0  0  0  0  0  0  0  0  0  0  0
   40.6360   35.8770   39.7780 N   0  0  0  0  0  0  0  0  0  0  0  0
   41.3070   34.7170   39.7640 C   0  0  0  0  0  3  0  0  0  0  0  0
   40.7290   33.5650   40.1180 N   0  0  0  0  0  0  0  0  0  0  0  0
   36.9550   31.7130   39.7140 O   0  0  0  0  0  0  0  0  0  0  0  0
   37.1020   31.2990   38.3610 C   0  0  0  0  0  0  0  0  0  0  0  0
   37.1970   32.4340   37.5470 F   0  0  0  0  0  0  0  0  0  0  0  0
   38.3220   30.6260   38.2990 F   0  0  0  0  0  0  0  0  0  0  0  0
   36.1060   30.4360   37.9160 F   0  0  0  0  0  0  0  0  0  0  0  0
   39.6310   26.2810   43.4180 C   0  0  0  0  0  0  0  0  0  0  0  0
   40.6340   25.8580   43.4120 H   0  0  0  0  0  0  0  0  0  0  0  0
   39.3900   26.4760   44.5000 H   0  0  0  0  0  0  0  0  0  0  0  0
   38.8800   25.0410   41.5830 C   0  0  0  0  0  0  0  0  0  0  0  0
   39.8760   25.1200   40.8250 O   0  0  0  0  0  0  0  0  0  0  0  0
   38.5970   25.5170   42.8590 N   0  0  0  0  0  0  0  0  0  0  0  0
   37.6800   25.2840   43.2890 H   0  0  0  0  0  0  0  0  0  0  0  0
   36.5600   26.3160   40.0670 Cl  0  0  0  0  0  0  0  0  0  0  0  0
   36.8930   24.6180   39.9850 C   0  0  0  0  0  0  0  0  0  0  0  0
   37.9790   24.2470   40.7380 C   0  0  0  0  0  0  0  0  0  0  0  0
   38.3850   22.9040   40.7820 C   0  0  0  0  0  0  0  0  0  0  0  0
   37.6870   21.9390   40.0620 C   0  0  0  0  0  0  0  0  0  0  0  0
   36.5990   22.3280   39.3120 C   0  0  0  0  0  0  0  0  0  0  0  0
   35.6720   21.1780   38.3850 Cl  0  0  0  0  0  0  0  0  0  0  0  0
   36.2240   23.6430   39.2850 C   0  0  0  0  0  0  0  0  0  0  0  0
   39.2160   22.4880   41.3320 H   0  0  0  0  0  0  0  0  0  0  0  0
   37.9490   20.8960   40.0560 H   0  0  0  0  0  0  0  0  0  0  0  0
   35.3700   24.0310   38.7130 H   0  0  0  0  0  0  0  0  0  0  0  0
  1  2  2  0  0  0  0
  2 22  1  0  0  0  0
  3  9  1  0  0  0  0
  3  8  1  0  0  0  0
  4  3  2  0  0  0  0
  5  4  1  0  0  0  0
  5  6  2  0  0  0  0
  6  7  1  0  0  0  0
  7  8  2  0  0  0  0
  7  1  1  0  0  0  0
 10  4  1  0  0  0  0
 11 10  1  0  0  0  0
 12 13  1  0  0  0  0
 12 11  2  0  0  0  0
 14 12  1  0  0  0  0
 15 14  2  0  0  0  0
 15 16  1  0  0  0  0
 16 10  2  0  0  0  0
 17  5  1  0  0  0  0
 18 17  1  0  0  0  0
 19 18  1  0  0  0  0
 20 18  1  0  0  0  0
 21 18  1  0  0  0  0
 22 24  1  0  0  0  0
 23 22  1  0  0  0  0
 25 27  1  0  0  0  0
 26 25  2  0  0  0  0
 27 28  1  0  0  0  0
 27 22  1  0  0  0  0
 30 29  1  0  0  0  0
 30 31  1  0  0  0  0
 31 32  2  0  0  0  0
 31 25  1  0  0  0  0
 32 37  1  0  0  0  0
 33 32  1  0  0  0  0
 34 33  2  0  0  0  0
 35 34  1  0  0  0  0
 36 34  1  0  0  0  0
 36 30  2  0  0  0  0
 38 33  1  0  0  0  0
 39 36  1  0  0  0  0
M  END
>  <minimizedAffinity>
-6.21349335

$$$$

 OpenBabel03242520593D

 39 41  0  0  0  0  0  0  0  0999 V2000
   34.4170   29.0020   38.1260 C   0  0  0  0  0  3  0  0  0  0  0  0
   34.0690   29.0990   39.3890 C   0  0  0  0  0  3  0  0  0  0  0  0
   32.8610   28.5730   34.8460 C   0  0  0  0  0  0  0  0  0  0  0  0
   31.5890   29.1890   35.0310 C   0  0  0  0  0  0  0  0  0  0  0  0
   31.3070   29.7350   36.2710 C   0  0  0  0  0  0  0  0  0  0  0  0
   32.2510   29.6450   37.2090 N   0  0  0  0  0  0  0  0  0  0  0  0
   33.4370   29.0720   37.0440 C   0  0  0  0  0  0  0  0  0  0  0  0
   33.7560   28.5260   35.8490 N   0  0  0  0  0  0  0  0  0  0  0  0
   33.2720   28.0920   33.9590 H   0  0  0  0  0  0  0  0  0  0  0  0
   30.9000   29.0010   33.7680 C   0  0  0  0  0  0  0  0  0  0  0  0
   30.2510   29.8720   32.9350 C   0  0  0  0  0  3  0  0  0  0  0  0
   29.6690   29.6150   31.7190 C   0  0  0  0  0  0  0  0  0  0  0  0
   29.1990   30.4260   31.1990 H   0  0  0  0  0  0  0  0  0  0  0  0
   29.7800   28.3290   31.3460 N   0  0  0  0  0  0  0  0  0  0  0  0
   30.4000   27.4110   32.1010 C   0  0  0  0  0  3  0  0  0  0  0  0
   30.9480   27.7230   33.2800 N   0  0  0  0  0  0  0  0  0  0  0  0
   30.1190   30.3340   36.5240 O   0  0  0  0  0  0  0  0  0  0  0  0
   30.0700   31.7550   36.5230 C   0  0  0  0  0  0  0  0  0  0  0  0
   30.2920   32.2170   37.8250 F   0  0  0  0  0  0  0  0  0  0  0  0
   31.1410   32.1730   35.7340 F   0  0  0  0  0  0  0  0  0  0  0  0
   28.9020   32.2870   35.9870 F   0  0  0  0  0  0  0  0  0  0  0  0
   35.1020   29.0230   40.4570 C   0  0  0  0  0  0  0  0  0  0  0  0
   34.6590   28.4190   41.2460 H   0  0  0  0  0  0  0  0  0  0  0  0
   35.9320   28.3970   40.0240 H   0  0  0  0  0  0  0  0  0  0  0  0
   36.7970   30.6030   40.1390 C   0  0  0  0  0  0  0  0  0  0  0  0
   37.4860   30.0310   39.2620 O   0  0  0  0  0  0  0  0  0  0  0  0
   35.6210   30.2770   40.8080 N   0  0  0  0  0  0  0  0  0  0  0  0
   35.2280   30.9550   41.4910 H   0  0  0  0  0  0  0  0  0  0  0  0
   39.1710   30.7110   42.0520 Cl  0  0  0  0  0  0  0  0  0  0  0  0
   38.6710   32.0850   41.1240 C   0  0  0  0  0  0  0  0  0  0  0  0
   37.5850   31.8280   40.3260 C   0  0  0  0  0  0  0  0  0  0  0  0
   37.0510   32.8380   39.5080 C   0  0  0  0  0  0  0  0  0  0  0  0
   37.6210   34.1070   39.5030 C   0  0  0  0  0  0  0  0  0  0  0  0
   38.7110   34.3480   40.3110 C   0  0  0  0  0  0  0  0  0  0  0  0
   39.4790   35.9140   40.3620 Cl  0  0  0  0  0  0  0  0  0  0  0  0
   39.2120   33.3480   41.0980 C   0  0  0  0  0  0  0  0  0  0  0  0
   36.2060   32.7620   38.8400 H   0  0  0  0  0  0  0  0  0  0  0  0
   37.2580   34.9190   38.9000 H   0  0  0  0  0  0  0  0  0  0  0  0
   40.0760   33.4620   41.7670 H   0  0  0  0  0  0  0  0  0  0  0  0
  1  2  2  0  0  0  0
  2 22  1  0  0  0  0
  3  4  2  0  0  0  0
  3  8  1  0  0  0  0
  4  5  1  0  0  0  0
  5 17  1  0  0  0  0
  5  6  2  0  0  0  0
  7  6  1  0  0  0  0
  7  1  1  0  0  0  0
  8  7  2  0  0  0  0
  9  3  1  0  0  0  0
 10  4  1  0  0  0  0
 11 10  2  0  0  0  0
 12 11  1  0  0  0  0
 13 12  1  0  0  0  0
 14 12  2  0  0  0  0
 14 15  1  0  0  0  0
 15 16  2  0  0  0  0
 16 10  1  0  0  0  0
 18 17  1  0  0  0  0
 18 19  1  0  0  0  0
 20 18  1  0  0  0  0
 21 18  1  0  0  0  0
 22 27  1  0  0  0  0
 22 23  1  0  0  0  0
 24 22  1  0  0  0  0
 25 31  1  0  0  0  0
 25 27  1  0  0  0  0
 26 25  2  0  0  0  0
 27 28  1  0  0  0  0
 30 29  1  0  0  0  0
 31 30  2  0  0  0  0
 32 31  1  0  0  0  0
 33 32  2  0  0  0  0
 33 34  1  0  0  0  0
 34 35  1  0  0  0  0
 34 36  2  0  0  0  0
 36 30  1  0  0  0  0
 36 39  1  0  0  0  0
 37 32  1  0  0  0  0
 38 33  1  0  0  0  0
M  END
>  <minimizedAffinity>
-6.18846655

$$$$

 OpenBabel03242520593D

 39 41  0  0  0  0  0  0  0  0999 V2000
   34.3530   29.0700   39.2690 C   0  0  0  0  0  3  0  0  0  0  0  0
   34.1680   28.9730   37.9720 C   0  0  0  0  0  3  0  0  0  0  0  0
   37.6690   30.4240   40.0000 C   0  0  0  0  0  0  0  0  0  0  0  0
   38.1650   29.5040   40.9690 C   0  0  0  0  0  0  0  0  0  0  0  0
   37.3510   28.4470   41.3370 C   0  0  0  0  0  0  0  0  0  0  0  0
   36.1530   28.3660   40.7560 N   0  0  0  0  0  0  0  0  0  0  0  0
   35.6840   29.2190   39.8530 C   0  0  0  0  0  0  0  0  0  0  0  0
   36.4460   30.2670   39.4640 N   0  0  0  0  0  0  0  0  0  0  0  0
   38.1470   31.3080   39.5810 H   0  0  0  0  0  0  0  0  0  0  0  0
   39.4690   30.0240   41.3390 C   0  0  0  0  0  0  0  0  0  0  0  0
   39.8990   30.7470   42.4170 C   0  0  0  0  0  3  0  0  0  0  0  0
   41.1750   31.1530   42.7170 C   0  0  0  0  0  0  0  0  0  0  0  0
   41.3300   31.7200   43.6150 H   0  0  0  0  0  0  0  0  0  0  0  0
   42.0780   30.7640   41.8030 N   0  0  0  0  0  0  0  0  0  0  0  0
   41.7430   30.0520   40.7170 C   0  0  0  0  0  3  0  0  0  0  0  0
   40.4790   29.6860   40.4790 N   0  0  0  0  0  0  0  0  0  0  0  0
   37.7520   27.5350   42.2530 O   0  0  0  0  0  0  0  0  0  0  0  0
   37.4260   27.7660   43.6180 C   0  0  0  0  0  0  0  0  0  0  0  0
   36.1850   27.1800   43.8940 F   0  0  0  0  0  0  0  0  0  0  0  0
   38.3920   27.0900   44.3610 F   0  0  0  0  0  0  0  0  0  0  0  0
   37.4490   29.1060   43.9920 F   0  0  0  0  0  0  0  0  0  0  0  0
   32.7940   28.8240   37.4220 C   0  0  0  0  0  0  0  0  0  0  0  0
   32.6440   27.7530   37.3020 H   0  0  0  0  0  0  0  0  0  0  0  0
   32.1050   29.1350   38.2550 H   0  0  0  0  0  0  0  0  0  0  0  0
   31.2080   29.7670   35.9850 C   0  0  0  0  0  0  0  0  0  0  0  0
   30.1470   29.3240   36.4860 O   0  0  0  0  0  0  0  0  0  0  0  0
   32.5550   29.6450   36.3110 N   0  0  0  0  0  0  0  0  0  0  0  0
   33.2580   30.1480   35.7340 H   0  0  0  0  0  0  0  0  0  0  0  0
   30.2700   32.6540   36.2950 Cl  0  0  0  0  0  0  0  0  0  0  0  0
   30.1870   31.8140   34.7820 C   0  0  0  0  0  0  0  0  0  0  0  0
   30.6590   30.5280   34.8550 C   0  0  0  0  0  0  0  0  0  0  0  0
   30.6610   29.7080   33.7150 C   0  0  0  0  0  0  0  0  0  0  0  0
   30.1840   30.1960   32.5020 C   0  0  0  0  0  0  0  0  0  0  0  0
   29.7130   31.4890   32.4470 C   0  0  0  0  0  0  0  0  0  0  0  0
   29.0960   32.1720   30.9650 Cl  0  0  0  0  0  0  0  0  0  0  0  0
   29.7220   32.2680   33.5710 C   0  0  0  0  0  0  0  0  0  0  0  0
   31.0040   28.6860   33.6430 H   0  0  0  0  0  0  0  0  0  0  0  0
   30.1600   29.6170   31.5970 H   0  0  0  0  0  0  0  0  0  0  0  0
   29.3640   33.3060   33.6070 H   0  0  0  0  0  0  0  0  0  0  0  0
  1  7  1  0  0  0  0
  2  1  2  0  0  0  0
  3  4  1  0  0  0  0
  4  5  2  0  0  0  0
  4 10  1  0  0  0  0
  5 17  1  0  0  0  0
  6  5  1  0  0  0  0
  7  6  2  0  0  0  0
  8  7  1  0  0  0  0
  8  3  2  0  0  0  0
  9  3  1  0  0  0  0
 10 11  1  0  0  0  0
 11 12  2  0  0  0  0
 12 13  1  0  0  0  0
 14 12  1  0  0  0  0
 15 14  2  0  0  0  0
 16 15  1  0  0  0  0
 16 10  2  0  0  0  0
 17 18  1  0  0  0  0
 18 19  1  0  0  0  0
 18 21  1  0  0  0  0
 18 20  1  0  0  0  0
 22  2  1  0  0  0  0
 22 24  1  0  0  0  0
 23 22  1  0  0  0  0
 25 27  1  0  0  0  0
 25 26  2  0  0  0  0
 27 22  1  0  0  0  0
 28 27  1  0  0  0  0
 30 31  1  0  0  0  0
 30 29  1  0  0  0  0
 31 25  1  0  0  0  0
 32 31  2  0  0  0  0
 33 32  1  0  0  0  0
 34 33  2  0  0  0  0
 34 36  1  0  0  0  0
 35 34  1  0  0  0  0
 36 39  1  0  0  0  0
 36 30  2  0  0  0  0
 37 32  1  0  0  0  0
 38 33  1  0  0  0  0
M  END
>  <minimizedAffinity>
-6.17398787

$$$$

 OpenBabel03242520593D

 39 41  0  0  0  0  0  0  0  0999 V2000
   36.8130   30.0180   39.7210 C   0  0  0  0  0  3  0  0  0  0  0  0
   37.3970   30.6120   38.7040 C   0  0  0  0  0  3  0  0  0  0  0  0
   36.6310   26.4450   38.9730 C   0  0  0  0  0  0  0  0  0  0  0  0
   36.9450   25.8540   40.2320 C   0  0  0  0  0  0  0  0  0  0  0  0
   37.2050   26.6990   41.2970 C   0  0  0  0  0  0  0  0  0  0  0  0
   37.1430   28.0120   41.0670 N   0  0  0  0  0  0  0  0  0  0  0  0
   36.8510   28.5680   39.8970 C   0  0  0  0  0  0  0  0  0  0  0  0
   36.5900   27.7810   38.8290 N   0  0  0  0  0  0  0  0  0  0  0  0
   36.3980   25.9620   38.0250 H   0  0  0  0  0  0  0  0  0  0  0  0
   36.9400   24.4250   39.9820 C   0  0  0  0  0  0  0  0  0  0  0  0
   37.7780   23.4180   40.3780 C   0  0  0  0  0  3  0  0  0  0  0  0
   37.6650   22.0720   40.1390 C   0  0  0  0  0  0  0  0  0  0  0  0
   38.4240   21.4210   40.5280 H   0  0  0  0  0  0  0  0  0  0  0  0
   36.5750   21.7570   39.4210 N   0  0  0  0  0  0  0  0  0  0  0  0
   35.7010   22.6790   38.9940 C   0  0  0  0  0  3  0  0  0  0  0  0
   35.8670   23.9790   39.2590 N   0  0  0  0  0  0  0  0  0  0  0  0
   37.5140   26.2130   42.5220 O   0  0  0  0  0  0  0  0  0  0  0  0
   38.8880   26.1050   42.8740 C   0  0  0  0  0  0  0  0  0  0  0  0
   39.1190   26.8520   44.0350 F   0  0  0  0  0  0  0  0  0  0  0  0
   39.0980   24.7610   43.1820 F   0  0  0  0  0  0  0  0  0  0  0  0
   39.7680   26.4610   41.8570 F   0  0  0  0  0  0  0  0  0  0  0  0
   37.3330   32.0920   38.5660 C   0  0  0  0  0  0  0  0  0  0  0  0
   36.7390   32.2740   37.6730 H   0  0  0  0  0  0  0  0  0  0  0  0
   36.7010   32.4440   39.4290 H   0  0  0  0  0  0  0  0  0  0  0  0
   38.9860   32.9950   39.9530 C   0  0  0  0  0  0  0  0  0  0  0  0
   38.4740   32.8020   41.0810 O   0  0  0  0  0  0  0  0  0  0  0  0
   38.5910   32.7050   38.6510 N   0  0  0  0  0  0  0  0  0  0  0  0
   39.2270   32.9530   37.8670 H   0  0  0  0  0  0  0  0  0  0  0  0
   39.2060   36.0360   40.0690 Cl  0  0  0  0  0  0  0  0  0  0  0  0
   40.5370   34.9990   40.4620 C   0  0  0  0  0  0  0  0  0  0  0  0
   40.2310   33.6660   40.3480 C   0  0  0  0  0  0  0  0  0  0  0  0
   41.2000   32.6900   40.6300 C   0  0  0  0  0  0  0  0  0  0  0  0
   42.4790   33.0690   41.0280 C   0  0  0  0  0  0  0  0  0  0  0  0
   42.7690   34.4110   41.1370 C   0  0  0  0  0  0  0  0  0  0  0  0
   44.3490   34.9660   41.6270 Cl  0  0  0  0  0  0  0  0  0  0  0  0
   41.8070   35.3430   40.8560 C   0  0  0  0  0  0  0  0  0  0  0  0
   41.0850   31.6170   40.5780 H   0  0  0  0  0  0  0  0  0  0  0  0
   43.2620   32.3690   41.2570 H   0  0  0  0  0  0  0  0  0  0  0  0
   41.9610   36.4290   40.9200 H   0  0  0  0  0  0  0  0  0  0  0  0
  1  7  1  0  0  0  0
  2  1  2  0  0  0  0
  3  4  1  0  0  0  0
  4  5  2  0  0  0  0
  5 17  1  0  0  0  0
  6  5  1  0  0  0  0
  7  6  2  0  0  0  0
  8  3  2  0  0  0  0
  8  7  1  0  0  0  0
  9  3  1  0  0  0  0
 10  4  1  0  0  0  0
 10 11  1  0  0  0  0
 12 11  2  0  0  0  0
 12 13  1  0  0  0  0
 14 12  1  0  0  0  0
 15 16  1  0  0  0  0
 15 14  2  0  0  0  0
 16 10  2  0  0  0  0
 17 18  1  0  0  0  0
 18 20  1  0  0  0  0
 18 19  1  0  0  0  0
 21 18  1  0  0  0  0
 22 27  1  0  0  0  0
 22  2  1  0  0  0  0
 22 24  1  0  0  0  0
 23 22  1  0  0  0  0
 25 31  1  0  0  0  0
 25 26  2  0  0  0  0
 27 25  1  0  0  0  0
 28 27  1  0  0  0  0
 29 30  1  0  0  0  0
 30 36  1  0  0  0  0
 31 30  2  0  0  0  0
 31 32  1  0  0  0  0
 32 33  2  0  0  0  0
 33 34  1  0  0  0  0
 33 38  1  0  0  0  0
 34 35  1  0  0  0  0
 36 39  1  0  0  0  0
 36 34  2  0  0  0  0
 37 32  1  0  0  0  0
M  END
>  <minimizedAffinity>
-6.06167698

$$$$

 OpenBabel03242520593D

 39 41  0  0  0  0  0  0  0  0999 V2000
   35.9130   28.9040   38.0900 C   0  0  0  0  0  3  0  0  0  0  0  0
   34.7040   29.2610   37.7190 C   0  0  0  0  0  3  0  0  0  0  0  0
   37.6750   32.0350   38.7630 C   0  0  0  0  0  0  0  0  0  0  0  0
   38.6310   31.6400   39.7440 C   0  0  0  0  0  0  0  0  0  0  0  0
   38.6440   30.3140   40.1410 C   0  0  0  0  0  0  0  0  0  0  0  0
   37.7560   29.4960   39.5730 N   0  0  0  0  0  0  0  0  0  0  0  0
   36.8630   29.8570   38.6590 C   0  0  0  0  0  0  0  0  0  0  0  0
   36.8140   31.1430   38.2420 N   0  0  0  0  0  0  0  0  0  0  0  0
   37.5040   33.0160   38.3230 H   0  0  0  0  0  0  0  0  0  0  0  0
   39.3310   32.8630   40.0920 C   0  0  0  0  0  0  0  0  0  0  0  0
   40.6600   33.1540   40.2320 C   0  0  0  0  0  3  0  0  0  0  0  0
   41.2420   34.3650   40.5120 C   0  0  0  0  0  0  0  0  0  0  0  0
   42.3110   34.4090   40.5870 H   0  0  0  0  0  0  0  0  0  0  0  0
   40.3480   35.3560   40.6560 N   0  0  0  0  0  0  0  0  0  0  0  0
   39.0270   35.1580   40.5340 C   0  0  0  0  0  3  0  0  0  0  0  0
   38.5200   33.9530   40.2600 N   0  0  0  0  0  0  0  0  0  0  0  0
   39.5200   29.8650   41.0700 O   0  0  0  0  0  0  0  0  0  0  0  0
   39.1430   29.9430   42.4400 C   0  0  0  0  0  0  0  0  0  0  0  0
   39.6590   31.1240   42.9850 F   0  0  0  0  0  0  0  0  0  0  0  0
   37.7520   30.0420   42.4480 F   0  0  0  0  0  0  0  0  0  0  0  0
   39.5050   28.8330   43.1960 F   0  0  0  0  0  0  0  0  0  0  0  0
   33.7700   28.2540   37.1470 C   0  0  0  0  0  0  0  0  0  0  0  0
   34.2840   27.2990   37.2340 H   0  0  0  0  0  0  0  0  0  0  0  0
   32.9090   28.2030   37.8700 H   0  0  0  0  0  0  0  0  0  0  0  0
   32.1300   29.4030   35.9390 C   0  0  0  0  0  0  0  0  0  0  0  0
   31.4480   29.8860   36.8730 O   0  0  0  0  0  0  0  0  0  0  0  0
   33.2770   28.6180   35.8860 N   0  0  0  0  0  0  0  0  0  0  0  0
   33.6700   28.3670   34.9570 H   0  0  0  0  0  0  0  0  0  0  0  0
   30.9910   27.5180   33.8260 Cl  0  0  0  0  0  0  0  0  0  0  0  0
   30.7840   29.2360   33.7380 C   0  0  0  0  0  0  0  0  0  0  0  0
   31.3710   29.9020   34.7840 C   0  0  0  0  0  0  0  0  0  0  0  0
   31.2980   31.3020   34.8640 C   0  0  0  0  0  0  0  0  0  0  0  0
   30.6290   32.0240   33.8800 C   0  0  0  0  0  0  0  0  0  0  0  0
   30.0460   31.3400   32.8360 C   0  0  0  0  0  0  0  0  0  0  0  0
   29.1920   32.1730   31.5630 Cl  0  0  0  0  0  0  0  0  0  0  0  0
   30.1320   29.9760   32.7820 C   0  0  0  0  0  0  0  0  0  0  0  0
   31.7150   31.9380   35.6310 H   0  0  0  0  0  0  0  0  0  0  0  0
   30.5390   33.0950   33.8860 H   0  0  0  0  0  0  0  0  0  0  0  0
   29.6940   29.3600   31.9830 H   0  0  0  0  0  0  0  0  0  0  0  0
  1  7  1  0  0  0  0
  2  1  2  0  0  0  0
  3  4  1  0  0  0  0
  4 10  1  0  0  0  0
  4  5  2  0  0  0  0
  5 17  1  0  0  0  0
  6  5  1  0  0  0  0
  7  6  2  0  0  0  0
  8  7  1  0  0  0  0
  8  3  2  0  0  0  0
  9  3  1  0  0  0  0
 10 11  2  0  0  0  0
 10 16  1  0  0  0  0
 11 12  1  0  0  0  0
 12 13  1  0  0  0  0
 12 14  2  0  0  0  0
 15 14  1  0  0  0  0
 16 15  2  0  0  0  0
 17 18  1  0  0  0  0
 18 20  1  0  0  0  0
 18 19  1  0  0  0  0
 18 21  1  0  0  0  0
 22 23  1  0  0  0  0
 22  2  1  0  0  0  0
 22 24  1  0  0  0  0
 25 26  2  0  0  0  0
 27 25  1  0  0  0  0
 27 22  1  0  0  0  0
 28 27  1  0  0  0  0
 30 29  1  0  0  0  0
 30 31  1  0  0  0  0
 31 32  2  0  0  0  0
 31 25  1  0  0  0  0
 32 37  1  0  0  0  0
 33 38  1  0  0  0  0
 33 32  1  0  0  0  0
 34 33  2  0  0  0  0
 35 34  1  0  0  0  0
 36 34  1  0  0  0  0
 36 30  2  0  0  0  0
 39 36  1  0  0  0  0
M  END
>  <minimizedAffinity>
-5.99706888

$$$$

 OpenBabel03242520593D

 39 41  0  0  0  0  0  0  0  0999 V2000
   36.2830   30.0150   39.0810 C   0  0  0  0  0  3  0  0  0  0  0  0
   37.3180   30.7650   38.7800 C   0  0  0  0  0  3  0  0  0  0  0  0
   35.7520   26.5300   38.1130 C   0  0  0  0  0  0  0  0  0  0  0  0
   36.5200   25.8250   39.0850 C   0  0  0  0  0  0  0  0  0  0  0  0
   37.1910   26.5650   40.0430 C   0  0  0  0  0  0  0  0  0  0  0  0
   37.0700   27.8930   39.9870 N   0  0  0  0  0  0  0  0  0  0  0  0
   36.3570   28.5550   39.0850 C   0  0  0  0  0  0  0  0  0  0  0  0
   35.6860   27.8730   38.1290 N   0  0  0  0  0  0  0  0  0  0  0  0
   35.1590   26.1390   37.2870 H   0  0  0  0  0  0  0  0  0  0  0  0
   36.3900   24.4270   38.7170 C   0  0  0  0  0  0  0  0  0  0  0  0
   36.0370   23.3160   39.4320 C   0  0  0  0  0  3  0  0  0  0  0  0
   35.8850   22.0280   38.9860 C   0  0  0  0  0  0  0  0  0  0  0  0
   35.6020   21.2740   39.6950 H   0  0  0  0  0  0  0  0  0  0  0  0
   36.1220   21.8970   37.6700 N   0  0  0  0  0  0  0  0  0  0  0  0
   36.4710   22.9330   36.8950 C   0  0  0  0  0  3  0  0  0  0  0  0
   36.6050   24.1680   37.3900 N   0  0  0  0  0  0  0  0  0  0  0  0
   37.9420   25.9660   40.9970 O   0  0  0  0  0  0  0  0  0  0  0  0
   37.3870   25.8260   42.2990 C   0  0  0  0  0  0  0  0  0  0  0  0
   36.6240   24.6540   42.3420 F   0  0  0  0  0  0  0  0  0  0  0  0
   38.4710   25.6610   43.1600 F   0  0  0  0  0  0  0  0  0  0  0  0
   36.6530   26.9270   42.7290 F   0  0  0  0  0  0  0  0  0  0  0  0
   37.1960   32.2480   38.7920 C   0  0  0  0  0  0  0  0  0  0  0  0
   36.5160   32.4890   37.9770 H   0  0  0  0  0  0  0  0  0  0  0  0
   36.6360   32.4920   39.7370 H   0  0  0  0  0  0  0  0  0  0  0  0
   38.9910   32.9890   40.0940 C   0  0  0  0  0  0  0  0  0  0  0  0
   38.6390   32.5860   41.2280 O   0  0  0  0  0  0  0  0  0  0  0  0
   38.4360   32.9010   38.8210 N   0  0  0  0  0  0  0  0  0  0  0  0
   38.9560   33.3070   38.0180 H   0  0  0  0  0  0  0  0  0  0  0  0
   39.3020   36.0240   40.0150 Cl  0  0  0  0  0  0  0  0  0  0  0  0
   40.6040   34.9750   40.4670 C   0  0  0  0  0  0  0  0  0  0  0  0
   40.2590   33.6470   40.4390 C   0  0  0  0  0  0  0  0  0  0  0  0
   41.2010   32.6620   40.7770 C   0  0  0  0  0  0  0  0  0  0  0  0
   42.4930   33.0270   41.1430 C   0  0  0  0  0  0  0  0  0  0  0  0
   42.8230   34.3640   41.1650 C   0  0  0  0  0  0  0  0  0  0  0  0
   44.4220   34.9010   41.6100 Cl  0  0  0  0  0  0  0  0  0  0  0  0
   41.8870   35.3040   40.8310 C   0  0  0  0  0  0  0  0  0  0  0  0
   41.0530   31.5920   40.7940 H   0  0  0  0  0  0  0  0  0  0  0  0
   43.2560   32.3200   41.4120 H   0  0  0  0  0  0  0  0  0  0  0  0
   42.0740   36.3870   40.8250 H   0  0  0  0  0  0  0  0  0  0  0  0
  1  7  1  0  0  0  0
  2 22  1  0  0  0  0
  2  1  2  0  0  0  0
  3  8  2  0  0  0  0
  3  4  1  0  0  0  0
  4  5  2  0  0  0  0
  5 17  1  0  0  0  0
  6  5  1  0  0  0  0
  7  6  2  0  0  0  0
  8  7  1  0  0  0  0
  9  3  1  0  0  0  0
 10  4  1  0  0  0  0
 10 11  1  0  0  0  0
 12 11  2  0  0  0  0
 12 13  1  0  0  0  0
 14 12  1  0  0  0  0
 15 16  1  0  0  0  0
 15 14  2  0  0  0  0
 16 10  2  0  0  0  0
 17 18  1  0  0  0  0
 18 19  1  0  0  0  0
 18 21  1  0  0  0  0
 18 20  1  0  0  0  0
 22 27  1  0  0  0  0
 22 24  1  0  0  0  0
 23 22  1  0  0  0  0
 25 31  1  0  0  0  0
 25 26  2  0  0  0  0
 27 25  1  0  0  0  0
 28 27  1  0  0  0  0
 29 30  1  0  0  0  0
 30 36  1  0  0  0  0
 31 30  2  0  0  0  0
 31 32  1  0  0  0  0
 32 37  1  0  0  0  0
 32 33  2  0  0  0  0
 33 34  1  0  0  0  0
 33 38  1  0  0  0  0
 34 35  1  0  0  0  0
 36 34  2  0  0  0  0
 39 36  1  0  0  0  0
M  END
>  <minimizedAffinity>
-5.93414164

$$$$
