
 OpenBabel03252509033D

 46 48  0  0  1  0  0  0  0  0999 V2000
   46.7000   34.4280   43.5810 N   0  0  0  0  0  0  0  0  0  0  0  0
   46.2270   35.4900   42.7710 C   0  0  0  0  0  0  0  0  0  0  0  0
   44.7370   35.7450   42.8490 C   0  0  0  0  0  0  0  0  0  0  0  0
   44.1170   35.4370   44.1910 C   0  0  0  0  0  0  0  0  0  0  0  0
   45.1670   35.0570   45.2090 C   0  0  0  0  0  0  0  0  0  0  0  0
   45.8980   33.8330   44.5330 C   0  0  2  0  0  0  0  0  0  0  0  0
   46.7220   36.4280   43.1510 H   0  0  0  0  0  0  0  0  0  0  0  0
   46.4800   35.4550   41.7070 H   0  0  0  0  0  0  0  0  0  0  0  0
   44.2230   35.1880   42.0200 H   0  0  0  0  0  0  0  0  0  0  0  0
   44.5330   36.8260   42.6470 H   0  0  0  0  0  0  0  0  0  0  0  0
   43.4080   36.2050   44.5380 H   0  0  0  0  0  0  0  0  0  0  0  0
   43.5050   34.5030   44.0450 H   0  0  0  0  0  0  0  0  0  0  0  0
   45.9020   35.8460   45.3940 H   0  0  0  0  0  0  0  0  0  0  0  0
   44.6330   34.7010   46.1100 H   0  0  0  0  0  0  0  0  0  0  0  0
   45.0890   33.1500   44.2020 H   0  0  0  0  0  0  0  0  0  0  0  0
   47.7310   33.6260   42.9540 C   0  0  0  0  0  0  0  0  0  0  0  0
   48.3830   34.3400   42.4070 H   0  0  0  0  0  0  0  0  0  0  0  0
   48.3930   33.1420   43.7170 H   0  0  0  0  0  0  0  0  0  0  0  0
   47.0880   32.6740   42.0190 C   0  0  0  0  0  0  0  0  0  0  0  0
   47.1850   31.6480   42.3770 H   0  0  0  0  0  0  0  0  0  0  0  0
   45.9720   32.8510   41.9600 H   0  0  0  0  0  0  0  0  0  0  0  0
   49.0670   31.9750   38.8900 C   0  0  0  0  0  0  0  0  0  0  0  0
   48.4800   31.8520   40.1660 C   0  0  0  0  0  0  0  0  0  0  0  0
   47.6900   32.8350   40.6710 C   0  0  0  0  0  0  0  0  0  0  0  0
   47.5000   33.9120   39.9050 N   0  0  0  0  0  0  0  0  0  0  0  0
   48.0460   34.0540   38.6880 C   0  0  0  0  0  0  0  0  0  0  0  0
   48.8310   33.0980   38.1630 N   0  0  0  0  0  0  0  0  0  0  0  0
   49.6890   31.2280   38.4610 H   0  0  0  0  0  0  0  0  0  0  0  0
   48.7380   30.9220   40.6410 H   0  0  0  0  0  0  0  0  0  0  0  0
   47.8050   34.9820   38.1760 H   0  0  0  0  0  0  0  0  0  0  0  0
   46.6180   33.3300   45.5920 O   0  0  0  0  0  0  0  0  0  0  0  0
   45.5480   31.0180   44.7890 O   0  0  0  0  0  0  0  0  0  0  0  0
   46.2160   31.7550   45.9730 P   0  0  2  0  0  0  0  0  0  0  0  0
   44.9500   31.8450   47.1420 O   0  0  0  0  0  0  0  0  0  0  0  0
   45.2360   32.5240   47.8120 H   0  0  0  0  0  0  0  0  0  0  0  0
   47.4350   30.8580   46.6300 O   0  0  0  0  0  0  0  0  0  0  0  0
   47.6850   29.7370   45.8830 C   0  0  0  0  0  0  0  0  0  0  0  0
   46.7170   29.5390   45.3200 H   0  0  0  0  0  0  0  0  0  0  0  0
   47.7020   28.8740   46.6150 H   0  0  0  0  0  0  0  0  0  0  0  0
   48.8400   29.7440   45.0000 C   0  0  0  0  0  0  0  0  0  0  0  0
   49.9150   29.0850   45.6050 C   0  0  0  0  0  3  0  0  0  0  0  0
   51.0930   28.9630   44.8590 C   0  0  0  0  0  0  0  0  0  0  0  0
   51.9920   28.4600   45.2480 H   0  0  0  0  0  0  0  0  0  0  0  0
   51.2260   29.4450   43.6090 N   0  0  0  0  0  0  0  0  0  0  0  0
   50.1630   30.0700   43.0730 C   0  0  0  0  0  3  0  0  0  0  0  0
   49.0020   30.2220   43.7360 N   0  0  0  0  0  0  0  0  0  0  0  0
  1  6  1  0  0  0  0
  2  3  1  0  0  0  0
  2  7  1  0  0  0  0
  2  1  1  0  0  0  0
  3  4  1  0  0  0  0
  4 11  1  0  0  0  0
  4  5  1  0  0  0  0
  5 13  1  0  0  0  0
  5 14  1  0  0  0  0
  6 15  1  6  0  0  0
  6  5  1  0  0  0  0
  6 31  1  0  0  0  0
  8  2  1  0  0  0  0
  9  3  1  0  0  0  0
 10  3  1  0  0  0  0
 12  4  1  0  0  0  0
 16  1  1  0  0  0  0
 16 18  1  0  0  0  0
 17 16  1  0  0  0  0
 19 20  1  0  0  0  0
 19 16  1  0  0  0  0
 21 19  1  0  0  0  0
 22 23  1  0  0  0  0
 23 29  1  0  0  0  0
 23 24  2  0  0  0  0
 24 19  1  0  0  0  0
 25 24  1  0  0  0  0
 26 25  2  0  0  0  0
 27 26  1  0  0  0  0
 27 22  2  0  0  0  0
 28 22  1  0  0  0  0
 30 26  1  0  0  0  0
 31 33  1  0  0  0  0
 33 32  2  6  0  0  0
 33 36  1  0  0  0  0
 33 34  1  0  0  0  0
 34 35  1  0  0  0  0
 37 39  1  0  0  0  0
 37 36  1  0  0  0  0
 38 37  1  0  0  0  0
 40 41  1  0  0  0  0
 40 37  1  0  0  0  0
 42 43  1  0  0  0  0
 42 41  2  0  0  0  0
 44 42  1  0  0  0  0
 45 44  2  0  0  0  0
 45 46  1  0  0  0  0
 46 40  2  0  0  0  0
M  END
>  <minimizedAffinity>
-4.02582216

>  <minimizedRMSD>
1.60455167

$$$$
