
 OpenBabel03252508393D

 39 42  0  0  0  0  0  0  0  0999 V2000
   45.1150   33.9710   40.7320 C   0  0  0  0  0  0  0  0  0  0  0  0
   44.0770   33.6300   39.9170 C   0  0  0  0  0  0  0  0  0  0  0  0
   44.3790   33.1080   38.7000 C   0  0  0  0  0  0  0  0  0  0  0  0
   45.6590   32.9050   38.2430 C   0  0  0  0  0  0  0  0  0  0  0  0
   46.6870   33.2560   39.0820 C   0  0  0  0  0  0  0  0  0  0  0  0
   46.4350   33.7890   40.3280 C   0  0  0  0  0  0  0  0  0  0  0  0
   43.5470   32.8350   38.0420 H   0  0  0  0  0  0  0  0  0  0  0  0
   45.8720   32.4930   37.2790 H   0  0  0  0  0  0  0  0  0  0  0  0
   47.7090   33.1010   38.7340 H   0  0  0  0  0  0  0  0  0  0  0  0
   40.8000   35.2890   40.7970 C   0  0  0  0  0  0  0  0  0  0  0  0
   42.0980   35.1020   40.2920 C   0  0  0  0  0  0  0  0  0  0  0  0
   42.7410   33.8560   40.4270 C   0  0  0  0  0  0  0  0  0  0  0  0
   42.0150   32.9050   41.0640 N   0  0  0  0  0  0  0  0  0  0  0  0
   40.7920   33.0940   41.5370 C   0  0  0  0  0  0  0  0  0  0  0  0
   40.1800   34.2770   41.4080 N   0  0  0  0  0  0  0  0  0  0  0  0
   40.2040   36.5530   40.6360 N   0  0  0  0  0  0  0  0  0  0  0  0
   42.6240   35.8980   39.7940 H   0  0  0  0  0  0  0  0  0  0  0  0
   40.2600   32.2920   42.0380 H   0  0  0  0  0  0  0  0  0  0  0  0
   39.7030   37.1410   41.3390 H   0  0  0  0  0  0  0  0  0  0  0  0
   40.2330   37.0230   39.7040 H   0  0  0  0  0  0  0  0  0  0  0  0
   47.5910   34.1280   41.1420 C   0  0  0  0  0  0  0  0  0  0  0  0
   48.1330   35.3740   40.9260 C   0  0  0  0  0  0  0  0  0  0  0  0
   49.2420   35.8670   41.6130 C   0  0  0  0  0  0  0  0  0  0  0  0
   49.8160   35.0460   42.5600 C   0  0  0  0  0  0  0  0  0  0  0  0
   49.2910   33.7930   42.7940 C   0  0  0  0  0  0  0  0  0  0  0  0
   48.1890   33.3280   42.0980 C   0  0  0  0  0  0  0  0  0  0  0  0
   47.7160   36.0600   40.1880 H   0  0  0  0  0  0  0  0  0  0  0  0
   49.6280   36.8520   41.4060 H   0  0  0  0  0  0  0  0  0  0  0  0
   50.6880   35.3650   43.1380 H   0  0  0  0  0  0  0  0  0  0  0  0
   49.7130   33.1140   43.5330 H   0  0  0  0  0  0  0  0  0  0  0  0
   47.5770   32.0080   42.2930 C   0  0  0  0  0  0  0  0  0  0  0  0
   46.8510   31.9510   43.4870 C   0  0  0  0  0  3  0  0  0  0  0  0
   46.1820   30.7870   43.8780 C   0  0  0  0  0  0  0  0  0  0  0  0
   45.6210   30.7500   44.8080 H   0  0  0  0  0  0  0  0  0  0  0  0
   46.2360   29.6920   43.0880 N   0  0  0  0  0  0  0  0  0  0  0  0
   46.9510   29.8200   41.9550 C   0  0  0  0  0  3  0  0  0  0  0  0
   47.6160   30.9170   41.5290 N   0  0  0  0  0  0  0  0  0  0  0  0
   44.7070   34.9770   43.1040 N   0  0  0  0  0  0  0  0  0  0  0  0
   44.8970   34.5320   42.0460 C   0  0  0  0  0  0  0  0  0  0  0  0
  1 39  1  0  0  0  0
  2 12  1  0  0  0  0
  2  1  2  0  0  0  0
  3  2  1  0  0  0  0
  4  3  2  0  0  0  0
  4  5  1  0  0  0  0
  5  6  2  0  0  0  0
  6  1  1  0  0  0  0
  6 21  1  0  0  0  0
  7  3  1  0  0  0  0
  8  4  1  0  0  0  0
  9  5  1  0  0  0  0
 10 15  1  0  0  0  0
 11 12  1  0  0  0  0
 11 10  2  0  0  0  0
 12 13  2  0  0  0  0
 13 14  1  0  0  0  0
 14 18  1  0  0  0  0
 15 14  2  0  0  0  0
 16 10  1  0  0  0  0
 16 19  1  0  0  0  0
 17 11  1  0  0  0  0
 20 16  1  0  0  0  0
 21 26  1  0  0  0  0
 22 21  2  0  0  0  0
 22 23  1  0  0  0  0
 23 24  2  0  0  0  0
 24 25  1  0  0  0  0
 24 29  1  0  0  0  0
 25 30  1  0  0  0  0
 26 31  1  0  0  0  0
 26 25  2  0  0  0  0
 27 22  1  0  0  0  0
 28 23  1  0  0  0  0
 31 32  1  0  0  0  0
 32 33  2  0  0  0  0
 33 34  1  0  0  0  0
 35 33  1  0  0  0  0
 36 35  2  0  0  0  0
 37 36  1  0  0  0  0
 37 31  2  0  0  0  0
 39 38  3  0  0  0  0
M  END
>  <minimizedAffinity>
-6.02550697

>  <minimizedRMSD>
0.287109256

$$$$
