
 OpenBabel03242514193D

 47 49  0  0  0  0  0  0  0  0999 V2000
   46.1650   34.5720   43.6110 C   0  0  0  0  0  0  0  0  0  0  0  0
   46.1640   33.8080   44.7550 C   0  0  0  0  0  0  0  0  0  0  0  0
   45.3300   34.1930   45.7610 C   0  0  0  0  0  0  0  0  0  0  0  0
   44.5520   35.2830   45.6060 N   0  0  0  0  0  0  0  0  0  0  0  0
   44.5480   36.0230   44.5040 C   0  0  0  0  0  0  0  0  0  0  0  0
   45.3560   35.6510   43.5300 N   0  0  0  0  0  0  0  0  0  0  0  0
   45.1660   33.7540   46.7330 H   0  0  0  0  0  0  0  0  0  0  0  0
   43.9180   36.9060   44.3730 H   0  0  0  0  0  0  0  0  0  0  0  0
   47.0070   34.1140   42.5000 C   0  0  0  0  0  0  0  0  0  0  0  0
   48.3900   34.6960   42.5890 C   0  0  0  0  0  0  0  0  0  0  0  0
   48.7050   35.5790   41.4690 C   0  0  0  0  0  0  0  0  0  0  0  0
   48.5120   34.8910   40.1340 C   0  0  0  0  0  0  0  0  0  0  0  0
   47.2590   34.1090   40.0450 C   0  0  0  0  0  0  0  0  0  0  0  0
   46.3350   34.3940   41.2040 C   0  0  0  0  0  0  0  0  0  0  0  0
   47.1970   33.0310   42.6260 H   0  0  0  0  0  0  0  0  0  0  0  0
   49.1770   33.9270   42.6840 H   0  0  0  0  0  0  0  0  0  0  0  0
   48.4470   35.2850   43.5280 H   0  0  0  0  0  0  0  0  0  0  0  0
   48.1960   36.5660   41.4720 H   0  0  0  0  0  0  0  0  0  0  0  0
   49.8020   35.8290   41.5070 H   0  0  0  0  0  0  0  0  0  0  0  0
   49.3740   34.2360   39.8670 H   0  0  0  0  0  0  0  0  0  0  0  0
   48.4490   35.7250   39.3760 H   0  0  0  0  0  0  0  0  0  0  0  0
   47.4570   33.0160   40.0490 H   0  0  0  0  0  0  0  0  0  0  0  0
   46.6650   34.3300   39.1120 H   0  0  0  0  0  0  0  0  0  0  0  0
   45.4100   33.7960   41.0920 H   0  0  0  0  0  0  0  0  0  0  0  0
   46.0260   35.4630   41.2200 H   0  0  0  0  0  0  0  0  0  0  0  0
   46.8410   32.7220   45.0940 O   0  0  0  0  0  0  0  0  0  0  0  0
   47.2590   32.1660   46.2700 C   0  0  0  0  0  0  0  0  0  0  0  0
   48.3300   32.3720   46.5260 H   0  0  0  0  0  0  0  0  0  0  0  0
   46.6930   32.4690   47.1720 H   0  0  0  0  0  0  0  0  0  0  0  0
   47.1530   30.6390   46.3130 C   0  0  0  0  0  0  0  0  0  0  0  0
   47.1230   30.3780   47.3890 H   0  0  0  0  0  0  0  0  0  0  0  0
   48.1220   30.2630   45.9250 H   0  0  0  0  0  0  0  0  0  0  0  0
   46.0130   30.1540   45.5850 N   0  0  0  0  0  0  0  0  0  0  0  0
   46.3490   29.3370   45.0190 H   0  0  0  0  0  0  0  0  0  0  0  0
   44.8360   29.6070   46.7520 S   0  0  0  0  0  0  0  0  0  0  0  0
   43.6050   29.0880   46.0790 O   0  0  0  0  0  0  0  0  0  0  0  0
   43.4820   28.1370   45.7690 H   0  0  0  0  0  0  0  0  0  0  0  0
   44.5010   30.7810   47.6190 O   0  0  0  0  0  0  0  0  0  0  0  0
   43.8830   30.6620   48.3820 H   0  0  0  0  0  0  0  0  0  0  0  0
   45.4860   28.4240   47.7420 O   0  0  0  0  0  0  0  0  0  0  0  0
   45.1690   27.0850   47.6720 C   0  0  0  0  0  0  0  0  0  0  0  0
   46.2350   26.2100   47.8550 C   0  0  0  0  0  0  0  0  0  0  0  0
   46.0360   24.8310   47.8050 C   0  0  0  0  0  0  0  0  0  0  0  0
   46.8780   24.1710   47.9490 H   0  0  0  0  0  0  0  0  0  0  0  0
   44.7940   24.3120   47.5760 N   0  0  0  0  0  0  0  0  0  0  0  0
   43.8040   25.1910   47.4080 C   0  0  0  0  0  0  0  0  0  0  0  0
   43.9440   26.5490   47.4460 N   0  0  0  0  0  0  0  0  0  0  0  0
  1  2  1  0  0  0  0
  2 26  1  0  0  0  0
  2  3  2  0  0  0  0
  3  7  1  0  0  0  0
  4  3  1  0  0  0  0
  5  4  2  0  0  0  0
  6  1  2  0  0  0  0
  6  5  1  0  0  0  0
  8  5  1  0  0  0  0
  9 10  1  0  0  0  0
  9 15  1  0  0  0  0
  9  1  1  0  0  0  0
 10 16  1  0  0  0  0
 10 17  1  0  0  0  0
 11 18  1  0  0  0  0
 11 19  1  0  0  0  0
 11 10  1  0  0  0  0
 12 11  1  0  0  0  0
 13 22  1  0  0  0  0
 13 12  1  0  0  0  0
 13 14  1  0  0  0  0
 14 25  1  0  0  0  0
 14  9  1  0  0  0  0
 20 12  1  0  0  0  0
 21 12  1  0  0  0  0
 23 13  1  0  0  0  0
 24 14  1  0  0  0  0
 26 27  1  0  0  0  0
 27 30  1  0  0  0  0
 27 28  1  0  0  0  0
 27 29  1  0  0  0  0
 30 31  1  0  0  0  0
 32 30  1  0  0  0  0
 33 30  1  0  0  0  0
 33 35  1  0  0  0  0
 34 33  1  0  0  0  0
 35 38  1  0  0  0  0
 35 40  1  0  0  0  0
 36 35  1  0  0  0  0
 37 36  1  0  0  0  0
 38 39  1  0  0  0  0
 41 40  1  0  0  0  0
 41 42  1  0  0  0  0
 43 42  2  0  0  0  0
 43 44  1  0  0  0  0
 45 43  1  0  0  0  0
 46 47  1  0  0  0  0
 46 45  2  0  0  0  0
 47 41  2  0  0  0  0
M  END
>  <minimizedAffinity>
-5.7530694

>  <minimizedRMSD>
2.05110049

$$$$
