
 OpenBabel03242523333D

 35 38  0  0  0  0  0  0  0  0999 V2000
   45.5750   33.1500   46.5760 C   0  0  0  0  0  0  0  0  0  0  0  0
   44.5880   32.6500   46.6900 H   0  0  0  0  0  0  0  0  0  0  0  0
   45.9030   33.6210   47.5200 H   0  0  0  0  0  0  0  0  0  0  0  0
   44.4520   36.1670   44.7070 C   0  0  0  0  0  0  0  0  0  0  0  0
   45.1510   36.0070   43.4910 C   0  0  0  0  0  0  0  0  0  0  0  0
   45.9760   34.8890   43.3460 C   0  0  0  0  0  0  0  0  0  0  0  0
   46.0970   33.9760   44.3630 N   0  0  0  0  0  0  0  0  0  0  0  0
   45.3910   34.1800   45.5310 C   0  0  0  0  0  0  0  0  0  0  0  0
   44.6000   35.2580   45.6630 N   0  0  0  0  0  0  0  0  0  0  0  0
   43.8120   37.0290   44.8290 H   0  0  0  0  0  0  0  0  0  0  0  0
   45.0320   36.7470   42.7120 H   0  0  0  0  0  0  0  0  0  0  0  0
   46.7040   34.7120   42.0960 C   0  0  0  0  0  0  0  0  0  0  0  0
   46.1760   33.9270   41.0920 C   0  0  0  0  0  3  0  0  0  0  0  0
   46.9740   33.8500   39.9670 C   0  0  0  0  0  0  0  0  0  0  0  0
   46.6140   33.2410   39.1300 H   0  0  0  0  0  0  0  0  0  0  0  0
   48.1740   34.4760   39.8270 N   0  0  0  0  0  0  0  0  0  0  0  0
   48.6290   35.2340   40.8640 C   0  0  0  0  0  3  0  0  0  0  0  0
   47.8870   35.3380   41.9780 N   0  0  0  0  0  0  0  0  0  0  0  0
   46.7240   31.9210   45.9290 S   0  0  0  0  0  0  0  0  0  0  0  0
   47.6980   31.2070   47.2340 C   0  0  0  0  0  0  0  0  0  0  0  0
   47.9840   32.0020   48.3180 C   0  0  0  0  0  0  0  0  0  0  0  0
   48.7330   31.4640   49.3360 C   0  0  0  0  0  0  0  0  0  0  0  0
   49.2030   30.1640   49.3070 C   0  0  0  0  0  0  0  0  0  0  0  0
   49.9310   29.6600   50.3140 N   0  0  0  0  0  0  0  0  0  0  0  0
   50.3930   28.3990   50.2970 C   0  0  0  0  0  0  0  0  0  0  0  0
   50.1090   27.5990   49.2130 C   0  0  0  0  0  0  0  0  0  0  0  0
   49.3560   28.0980   48.1580 C   0  0  0  0  0  0  0  0  0  0  0  0
   48.8770   29.4160   48.1810 C   0  0  0  0  0  0  0  0  0  0  0  0
   48.1290   29.9100   47.1320 C   0  0  0  0  0  0  0  0  0  0  0  0
   47.7000   33.0130   48.4910 H   0  0  0  0  0  0  0  0  0  0  0  0
   49.0090   32.0250   50.2400 H   0  0  0  0  0  0  0  0  0  0  0  0
   50.9830   28.0210   51.1340 H   0  0  0  0  0  0  0  0  0  0  0  0
   50.4610   26.5800   49.1610 H   0  0  0  0  0  0  0  0  0  0  0  0
   49.1050   27.5140   47.2840 H   0  0  0  0  0  0  0  0  0  0  0  0
   47.8980   29.2900   46.2710 H   0  0  0  0  0  0  0  0  0  0  0  0
  1  2  1  0  0  0  0
  1  3  1  0  0  0  0
  4 10  1  0  0  0  0
  4  9  1  0  0  0  0
  5  4  2  0  0  0  0
  6  5  1  0  0  0  0
  6  7  2  0  0  0  0
  7  8  1  0  0  0  0
  8  9  2  0  0  0  0
  8  1  1  0  0  0  0
 11  5  1  0  0  0  0
 12  6  1  0  0  0  0
 13 12  2  0  0  0  0
 14 13  1  0  0  0  0
 15 14  1  0  0  0  0
 16 14  2  0  0  0  0
 16 17  1  0  0  0  0
 17 18  2  0  0  0  0
 18 12  1  0  0  0  0
 19  1  1  0  0  0  0
 19 20  1  0  0  0  0
 20 21  1  0  0  0  0
 21 30  1  0  0  0  0
 21 22  2  0  0  0  0
 22 31  1  0  0  0  0
 23 22  1  0  0  0  0
 23 24  1  0  0  0  0
 25 24  2  0  0  0  0
 25 32  1  0  0  0  0
 26 25  1  0  0  0  0
 27 28  1  0  0  0  0
 27 26  2  0  0  0  0
 28 23  2  0  0  0  0
 29 20  2  0  0  0  0
 29 28  1  0  0  0  0
 33 26  1  0  0  0  0
 34 27  1  0  0  0  0
 35 29  1  0  0  0  0
M  END
>  <minimizedAffinity>
-6.20931768

>  <minimizedRMSD>
0.464455247

$$$$
