
 OpenBabel03252508363D

 29 31  0  0  0  0  0  0  0  0999 V2000
   45.7900   33.9030   40.2650 C   0  0  0  0  0  0  0  0  0  0  0  0
   47.1640   34.0130   40.4320 C   0  0  0  0  0  0  0  0  0  0  0  0
   47.6060   34.7130   41.5120 C   0  0  0  0  0  0  0  0  0  0  0  0
   46.7490   35.3060   42.4310 C   0  0  0  0  0  0  0  0  0  0  0  0
   45.3970   35.1760   42.2330 C   0  0  0  0  0  0  0  0  0  0  0  0
   44.9190   34.4790   41.1580 C   0  0  0  0  0  0  0  0  0  0  0  0
   48.6830   34.8050   41.6530 H   0  0  0  0  0  0  0  0  0  0  0  0
   47.1700   35.8500   43.2710 H   0  0  0  0  0  0  0  0  0  0  0  0
   44.7840   35.6550   42.9740 H   0  0  0  0  0  0  0  0  0  0  0  0
   48.8480   33.1850   37.1560 C   0  0  0  0  0  0  0  0  0  0  0  0
   48.0300   33.8220   38.0990 C   0  0  0  0  0  0  0  0  0  0  0  0
   48.0030   33.3720   39.4370 C   0  0  0  0  0  0  0  0  0  0  0  0
   48.8030   32.3180   39.7080 N   0  0  0  0  0  0  0  0  0  0  0  0
   49.5760   31.7210   38.8040 C   0  0  0  0  0  0  0  0  0  0  0  0
   49.5940   32.1620   37.5190 N   0  0  0  0  0  0  0  0  0  0  0  0
   48.8390   33.6650   35.8370 N   0  0  0  0  0  0  0  0  0  0  0  0
   47.4070   34.6700   37.8090 H   0  0  0  0  0  0  0  0  0  0  0  0
   50.1670   30.8860   39.1610 H   0  0  0  0  0  0  0  0  0  0  0  0
   48.5640   34.6220   35.5250 H   0  0  0  0  0  0  0  0  0  0  0  0
   49.1340   33.0230   35.0700 H   0  0  0  0  0  0  0  0  0  0  0  0
   43.4830   34.3410   40.9450 C   0  0  0  0  0  0  0  0  0  0  0  0
   42.7420   33.2940   41.4170 C   0  0  0  0  0  3  0  0  0  0  0  0
   41.3840   33.1580   41.2180 C   0  0  0  0  0  0  0  0  0  0  0  0
   40.8270   32.3060   41.6120 H   0  0  0  0  0  0  0  0  0  0  0  0
   40.7150   34.0860   40.5260 N   0  0  0  0  0  0  0  0  0  0  0  0
   41.4240   35.1310   40.0480 C   0  0  0  0  0  3  0  0  0  0  0  0
   42.7460   35.2380   40.2570 N   0  0  0  0  0  0  0  0  0  0  0  0
   44.7750   32.5840   38.2450 N   0  0  0  0  0  0  0  0  0  0  0  0
   45.2450   33.1790   39.1560 C   0  0  0  0  0  0  0  0  0  0  0  0
  1  2  2  0  0  0  0
  1  6  1  0  0  0  0
  2  3  1  0  0  0  0
  3  7  1  0  0  0  0
  3  4  2  0  0  0  0
  4  8  1  0  0  0  0
  5  4  1  0  0  0  0
  5  9  1  0  0  0  0
  6  5  2  0  0  0  0
 10 15  2  0  0  0  0
 10 11  1  0  0  0  0
 11 12  2  0  0  0  0
 12 13  1  0  0  0  0
 12  2  1  0  0  0  0
 14 18  1  0  0  0  0
 14 13  2  0  0  0  0
 15 14  1  0  0  0  0
 16 10  1  0  0  0  0
 17 11  1  0  0  0  0
 19 16  1  0  0  0  0
 20 16  1  0  0  0  0
 21  6  1  0  0  0  0
 21 22  1  0  0  0  0
 23 22  2  0  0  0  0
 23 24  1  0  0  0  0
 25 23  1  0  0  0  0
 26 27  1  0  0  0  0
 26 25  2  0  0  0  0
 27 21  2  0  0  0  0
 28 29  3  0  0  0  0
 29  1  1  0  0  0  0
M  END
>  <minimizedAffinity>
-5.01370668

>  <minimizedRMSD>
6.92582512

$$$$
