
 OpenBabel03242518153D

 30 32  0  0  0  0  0  0  0  0999 V2000
   47.2900   34.0140   43.4710 C   0  0  0  0  0  0  0  0  0  0  0  0
   47.6090   34.4540   44.4380 H   0  0  0  0  0  0  0  0  0  0  0  0
   46.3360   33.4690   43.7490 H   0  0  0  0  0  0  0  0  0  0  0  0
   48.2380   33.0400   43.0570 C   0  0  0  0  0  0  0  0  0  0  0  0
   48.3860   31.6390   43.1520 C   0  0  0  0  0  0  0  0  0  0  0  0
   49.4680   31.0220   42.6300 C   0  0  0  0  0  0  0  0  0  0  0  0
   50.4580   31.8430   41.9780 C   0  0  0  0  0  0  0  0  0  0  0  0
   49.8050   33.5240   42.1270 S   0  0  0  0  0  0  0  0  0  0  0  0
   47.5730   31.1940   43.6590 H   0  0  0  0  0  0  0  0  0  0  0  0
   49.6010   29.9550   42.6920 H   0  0  0  0  0  0  0  0  0  0  0  0
   51.5590   31.4710   41.4150 O   0  0  0  0  0  0  0  0  0  0  0  0
   51.8440   31.4630   40.0770 C   0  0  0  0  0  0  0  0  0  0  0  0
   53.2030   31.2560   39.8500 C   0  0  0  0  0  0  0  0  0  0  0  0
   53.7230   31.2100   38.5610 C   0  0  0  0  0  0  0  0  0  0  0  0
   54.7720   31.0510   38.3440 H   0  0  0  0  0  0  0  0  0  0  0  0
   52.8740   31.3740   37.5380 N   0  0  0  0  0  0  0  0  0  0  0  0
   51.5650   31.5730   37.7690 C   0  0  0  0  0  0  0  0  0  0  0  0
   51.0640   31.6170   39.0050 N   0  0  0  0  0  0  0  0  0  0  0  0
   46.9800   35.1080   42.5280 C   0  0  0  0  0  0  0  0  0  0  0  0
   47.7160   35.1800   41.6780 H   0  0  0  0  0  0  0  0  0  0  0  0
   46.9920   36.1160   43.0210 H   0  0  0  0  0  0  0  0  0  0  0  0
   45.6530   34.9360   41.9550 C   0  0  0  0  0  0  0  0  0  0  0  0
   44.5390   35.5580   42.5080 C   0  0  0  0  0  0  0  0  0  0  0  0
   43.3070   35.3430   41.9020 C   0  0  0  0  0  0  0  0  0  0  0  0
   43.2540   34.5510   40.8180 N   0  0  0  0  0  0  0  0  0  0  0  0
   44.3630   33.9620   40.3070 C   0  0  0  0  0  0  0  0  0  0  0  0
   45.5270   34.1600   40.8730 N   0  0  0  0  0  0  0  0  0  0  0  0
   44.6800   36.1700   43.3720 H   0  0  0  0  0  0  0  0  0  0  0  0
   42.4700   35.8440   42.3640 H   0  0  0  0  0  0  0  0  0  0  0  0
   44.1640   33.3500   39.4280 H   0  0  0  0  0  0  0  0  0  0  0  0
  1  3  1  0  0  0  0
  1  2  1  0  0  0  0
  4  5  2  0  0  0  0
  4  1  1  0  0  0  0
  5  9  1  0  0  0  0
  6 10  1  0  0  0  0
  6  5  1  0  0  0  0
  7  8  1  0  0  0  0
  7  6  2  0  0  0  0
  8  4  1  0  0  0  0
 11  7  1  0  0  0  0
 12 11  1  0  0  0  0
 13 12  1  0  0  0  0
 14 13  2  0  0  0  0
 15 14  1  0  0  0  0
 16 17  2  0  0  0  0
 16 14  1  0  0  0  0
 17 18  1  0  0  0  0
 18 12  2  0  0  0  0
 19 21  1  0  0  0  0
 19  1  1  0  0  0  0
 20 19  1  0  0  0  0
 22 23  1  0  0  0  0
 22 19  1  0  0  0  0
 23 28  1  0  0  0  0
 24 29  1  0  0  0  0
 24 23  2  0  0  0  0
 25 24  1  0  0  0  0
 26 25  2  0  0  0  0
 26 27  1  0  0  0  0
 27 22  2  0  0  0  0
 30 26  1  0  0  0  0
M  END
>  <minimizedAffinity>
-4.21506548

>  <minimizedRMSD>
1.63997579

$$$$
