
 OpenBabel03242519303D

 41 44  0  0  0  0  0  0  0  0999 V2000
   37.2230   27.0630   41.5060 C   0  0  0  0  0  0  0  0  0  0  0  0
   37.2170   26.9170   42.9180 C   0  0  0  0  0  0  0  0  0  0  0  0
   37.4360   28.0390   43.7400 C   0  0  0  0  0  0  0  0  0  0  0  0
   37.6440   29.2310   43.0900 N   0  0  0  0  0  0  0  0  0  0  0  0
   37.6400   29.3200   41.7110 C   0  0  0  0  0  0  0  0  0  0  0  0
   37.4330   28.2540   40.9700 N   0  0  0  0  0  0  0  0  0  0  0  0
   37.0630   26.0190   43.5010 H   0  0  0  0  0  0  0  0  0  0  0  0
   37.4440   27.9990   44.8010 H   0  0  0  0  0  0  0  0  0  0  0  0
   36.9870   25.8090   40.7690 C   0  0  0  0  0  0  0  0  0  0  0  0
   36.8920   24.6230   41.5990 C   0  0  0  0  0  0  0  0  0  0  0  0
   37.9930   23.6550   41.4320 C   0  0  0  0  0  0  0  0  0  0  0  0
   38.1680   23.2470   39.9690 C   0  0  0  0  0  0  0  0  0  0  0  0
   38.0420   24.3800   39.0060 C   0  0  0  0  0  0  0  0  0  0  0  0
   38.1240   25.7230   39.7150 C   0  0  0  0  0  0  0  0  0  0  0  0
   36.0760   25.9610   40.1180 H   0  0  0  0  0  0  0  0  0  0  0  0
   36.8210   24.8890   42.6710 H   0  0  0  0  0  0  0  0  0  0  0  0
   35.9360   24.0790   41.3770 H   0  0  0  0  0  0  0  0  0  0  0  0
   37.7210   22.7060   41.9710 H   0  0  0  0  0  0  0  0  0  0  0  0
   38.9790   23.9350   41.7930 H   0  0  0  0  0  0  0  0  0  0  0  0
   39.0920   22.6460   39.8750 H   0  0  0  0  0  0  0  0  0  0  0  0
   37.3200   22.5500   39.7570 H   0  0  0  0  0  0  0  0  0  0  0  0
   37.1320   24.3650   38.3870 H   0  0  0  0  0  0  0  0  0  0  0  0
   38.9210   24.3420   38.3350 H   0  0  0  0  0  0  0  0  0  0  0  0
   38.0180   26.5240   38.9830 H   0  0  0  0  0  0  0  0  0  0  0  0
   39.0930   25.8240   40.2460 H   0  0  0  0  0  0  0  0  0  0  0  0
   37.8860   30.6670   41.2160 C   0  0  0  0  0  0  0  0  0  0  0  0
   36.9230   31.2680   40.4830 N   0  0  0  0  0  0  0  0  0  0  0  0
   37.3670   32.5040   40.1380 C   0  0  0  0  0  0  0  0  0  0  0  0
   38.6120   32.6530   40.6670 N   0  0  0  0  0  0  0  0  0  0  0  0
   38.9310   31.5350   41.3250 N   0  0  0  0  0  0  0  0  0  0  0  0
   36.8050   33.2220   39.5430 H   0  0  0  0  0  0  0  0  0  0  0  0
   39.4660   33.8250   40.5480 C   0  0  0  0  0  0  0  0  0  0  0  0
   38.8590   34.7320   40.3440 H   0  0  0  0  0  0  0  0  0  0  0  0
   40.1220   33.9520   41.4330 H   0  0  0  0  0  0  0  0  0  0  0  0
   40.3360   33.5880   39.3670 C   0  0  0  0  0  0  0  0  0  0  0  0
   41.3700   34.4390   39.0830 C   0  0  0  0  0  3  0  0  0  0  0  0
   42.2370   34.3210   38.0230 C   0  0  0  0  0  0  0  0  0  0  0  0
   43.0350   35.0380   37.8620 H   0  0  0  0  0  0  0  0  0  0  0  0
   42.0490   33.2740   37.1960 N   0  0  0  0  0  0  0  0  0  0  0  0
   41.0370   32.4120   37.4490 C   0  0  0  0  0  3  0  0  0  0  0  0
   40.2060   32.5550   38.4910 N   0  0  0  0  0  0  0  0  0  0  0  0
  1  2  1  0  0  0  0
  2  7  1  0  0  0  0
  2  3  2  0  0  0  0
  3  8  1  0  0  0  0
  4  3  1  0  0  0  0
  5  4  2  0  0  0  0
  6  1  2  0  0  0  0
  6  5  1  0  0  0  0
  9  1  1  0  0  0  0
  9 10  1  0  0  0  0
 10 16  1  0  0  0  0
 11 10  1  0  0  0  0
 11 19  1  0  0  0  0
 11 18  1  0  0  0  0
 12 11  1  0  0  0  0
 13 14  1  0  0  0  0
 13 12  1  0  0  0  0
 14 25  1  0  0  0  0
 14  9  1  0  0  0  0
 15  9  1  0  0  0  0
 17 10  1  0  0  0  0
 20 12  1  0  0  0  0
 21 12  1  0  0  0  0
 22 13  1  0  0  0  0
 23 13  1  0  0  0  0
 24 14  1  0  0  0  0
 26 30  2  0  0  0  0
 26  5  1  0  0  0  0
 27 26  1  0  0  0  0
 28 27  2  0  0  0  0
 28 29  1  0  0  0  0
 29 30  1  0  0  0  0
 31 28  1  0  0  0  0
 32 29  1  0  0  0  0
 32 34  1  0  0  0  0
 33 32  1  0  0  0  0
 35 32  1  0  0  0  0
 36 35  1  0  0  0  0
 37 36  2  0  0  0  0
 38 37  1  0  0  0  0
 39 40  2  0  0  0  0
 39 37  1  0  0  0  0
 40 41  1  0  0  0  0
 41 35  2  0  0  0  0
M  END
>  <minimizedAffinity>
-6.10621595

$$$$

 OpenBabel03242519303D

 41 44  0  0  0  0  0  0  0  0999 V2000
   37.1000   28.7340   41.7190 C   0  0  0  0  0  0  0  0  0  0  0  0
   35.8450   28.6930   41.0570 C   0  0  0  0  0  0  0  0  0  0  0  0
   35.4250   29.7900   40.2790 C   0  0  0  0  0  0  0  0  0  0  0  0
   36.2930   30.8530   40.2200 N   0  0  0  0  0  0  0  0  0  0  0  0
   37.5040   30.8440   40.8840 C   0  0  0  0  0  0  0  0  0  0  0  0
   37.8690   29.8050   41.6020 N   0  0  0  0  0  0  0  0  0  0  0  0
   35.1110   27.8980   41.0550 H   0  0  0  0  0  0  0  0  0  0  0  0
   34.5010   29.8240   39.7590 H   0  0  0  0  0  0  0  0  0  0  0  0
   37.4100   27.5240   42.4990 C   0  0  0  0  0  0  0  0  0  0  0  0
   38.2790   27.7420   43.6410 C   0  0  0  0  0  0  0  0  0  0  0  0
   39.6160   27.1270   43.5350 C   0  0  0  0  0  0  0  0  0  0  0  0
   39.5260   25.6310   43.2340 C   0  0  0  0  0  0  0  0  0  0  0  0
   38.4800   25.2770   42.2310 C   0  0  0  0  0  0  0  0  0  0  0  0
   37.9920   26.5070   41.4800 C   0  0  0  0  0  0  0  0  0  0  0  0
   36.4300   27.0370   42.7820 H   0  0  0  0  0  0  0  0  0  0  0  0
   38.4070   28.8220   43.8470 H   0  0  0  0  0  0  0  0  0  0  0  0
   37.7980   27.3320   44.5680 H   0  0  0  0  0  0  0  0  0  0  0  0
   40.1230   27.1950   44.5370 H   0  0  0  0  0  0  0  0  0  0  0  0
   40.3140   27.5440   42.8140 H   0  0  0  0  0  0  0  0  0  0  0  0
   40.5410   25.2490   43.0140 H   0  0  0  0  0  0  0  0  0  0  0  0
   39.2170   25.1570   44.1990 H   0  0  0  0  0  0  0  0  0  0  0  0
   37.6050   24.7450   42.6380 H   0  0  0  0  0  0  0  0  0  0  0  0
   38.9570   24.6320   41.4690 H   0  0  0  0  0  0  0  0  0  0  0  0
   37.2240   26.2110   40.7660 H   0  0  0  0  0  0  0  0  0  0  0  0
   38.8340   26.9970   40.9480 H   0  0  0  0  0  0  0  0  0  0  0  0
   38.2750   32.0660   40.7010 C   0  0  0  0  0  0  0  0  0  0  0  0
   37.6550   33.1450   40.1780 N   0  0  0  0  0  0  0  0  0  0  0  0
   38.5590   34.1560   40.1050 C   0  0  0  0  0  0  0  0  0  0  0  0
   39.7400   33.6830   40.5890 N   0  0  0  0  0  0  0  0  0  0  0  0
   39.5700   32.4090   40.9540 N   0  0  0  0  0  0  0  0  0  0  0  0
   38.3460   35.1520   39.7220 H   0  0  0  0  0  0  0  0  0  0  0  0
   40.9860   34.4250   40.7010 C   0  0  0  0  0  0  0  0  0  0  0  0
   40.8210   35.5010   40.4870 H   0  0  0  0  0  0  0  0  0  0  0  0
   41.4780   34.2650   41.6810 H   0  0  0  0  0  0  0  0  0  0  0  0
   41.8860   33.8870   39.6480 C   0  0  0  0  0  0  0  0  0  0  0  0
   41.8180   34.3610   38.3660 C   0  0  0  0  0  3  0  0  0  0  0  0
   42.5960   33.9420   37.3140 C   0  0  0  0  0  0  0  0  0  0  0  0
   42.4840   34.3660   36.3210 H   0  0  0  0  0  0  0  0  0  0  0  0
   43.5040   32.9790   37.5720 N   0  0  0  0  0  0  0  0  0  0  0  0
   43.5980   32.4890   38.8300 C   0  0  0  0  0  3  0  0  0  0  0  0
   42.8240   32.9190   39.8360 N   0  0  0  0  0  0  0  0  0  0  0  0
  1  9  1  0  0  0  0
  2  1  2  0  0  0  0
  3  2  1  0  0  0  0
  4  3  2  0  0  0  0
  4  5  1  0  0  0  0
  5  6  2  0  0  0  0
  6  1  1  0  0  0  0
  7  2  1  0  0  0  0
  8  3  1  0  0  0  0
  9 15  1  0  0  0  0
  9 10  1  0  0  0  0
 10 16  1  0  0  0  0
 10 17  1  0  0  0  0
 11 10  1  0  0  0  0
 11 18  1  0  0  0  0
 12 11  1  0  0  0  0
 12 21  1  0  0  0  0
 13 22  1  0  0  0  0
 13 12  1  0  0  0  0
 14 13  1  0  0  0  0
 14  9  1  0  0  0  0
 19 11  1  0  0  0  0
 20 12  1  0  0  0  0
 23 13  1  0  0  0  0
 24 14  1  0  0  0  0
 25 14  1  0  0  0  0
 26  5  1  0  0  0  0
 26 30  2  0  0  0  0
 27 26  1  0  0  0  0
 28 27  2  0  0  0  0
 28 29  1  0  0  0  0
 29 32  1  0  0  0  0
 29 30  1  0  0  0  0
 31 28  1  0  0  0  0
 32 34  1  0  0  0  0
 33 32  1  0  0  0  0
 35 41  1  0  0  0  0
 35 32  1  0  0  0  0
 36 35  2  0  0  0  0
 37 39  2  0  0  0  0
 37 36  1  0  0  0  0
 38 37  1  0  0  0  0
 39 40  1  0  0  0  0
 40 41  2  0  0  0  0
M  END
>  <minimizedAffinity>
-6.03423548

$$$$

 OpenBabel03242519303D

 41 44  0  0  0  0  0  0  0  0999 V2000
   38.0000   28.1980   42.3780 C   0  0  0  0  0  0  0  0  0  0  0  0
   36.7330   27.6680   42.0180 C   0  0  0  0  0  0  0  0  0  0  0  0
   35.8460   28.4380   41.2410 C   0  0  0  0  0  0  0  0  0  0  0  0
   36.2890   29.6860   40.8790 N   0  0  0  0  0  0  0  0  0  0  0  0
   37.5320   30.1560   41.2570 C   0  0  0  0  0  0  0  0  0  0  0  0
   38.3390   29.4140   41.9820 N   0  0  0  0  0  0  0  0  0  0  0  0
   36.3140   26.7010   42.2630 H   0  0  0  0  0  0  0  0  0  0  0  0
   34.8860   28.1010   40.9380 H   0  0  0  0  0  0  0  0  0  0  0  0
   38.8240   27.2900   43.1940 C   0  0  0  0  0  0  0  0  0  0  0  0
   40.2160   27.6790   43.3210 C   0  0  0  0  0  0  0  0  0  0  0  0
   41.1790   26.7760   42.6630 C   0  0  0  0  0  0  0  0  0  0  0  0
   41.0050   25.3300   43.1270 C   0  0  0  0  0  0  0  0  0  0  0  0
   39.5810   24.9050   43.2590 C   0  0  0  0  0  0  0  0  0  0  0  0
   38.6430   25.8820   42.5660 C   0  0  0  0  0  0  0  0  0  0  0  0
   38.3120   27.1670   44.1940 H   0  0  0  0  0  0  0  0  0  0  0  0
   40.3820   28.7050   42.9390 H   0  0  0  0  0  0  0  0  0  0  0  0
   40.4990   27.7320   44.4050 H   0  0  0  0  0  0  0  0  0  0  0  0
   42.2190   27.0640   42.9840 H   0  0  0  0  0  0  0  0  0  0  0  0
   41.1950   26.7500   41.5760 H   0  0  0  0  0  0  0  0  0  0  0  0
   41.6380   24.6750   42.5000 H   0  0  0  0  0  0  0  0  0  0  0  0
   41.4450   25.2980   44.1550 H   0  0  0  0  0  0  0  0  0  0  0  0
   39.2320   24.7590   44.2940 H   0  0  0  0  0  0  0  0  0  0  0  0
   39.4700   23.9470   42.7150 H   0  0  0  0  0  0  0  0  0  0  0  0
   37.6140   25.5440   42.6920 H   0  0  0  0  0  0  0  0  0  0  0  0
   38.8860   25.9540   41.4850 H   0  0  0  0  0  0  0  0  0  0  0  0
   37.8130   31.5030   40.7790 C   0  0  0  0  0  0  0  0  0  0  0  0
   36.9880   32.0420   39.8550 N   0  0  0  0  0  0  0  0  0  0  0  0
   37.4380   33.2910   39.5670 C   0  0  0  0  0  0  0  0  0  0  0  0
   38.5470   33.5090   40.3250 N   0  0  0  0  0  0  0  0  0  0  0  0
   38.7780   32.4220   41.0650 N   0  0  0  0  0  0  0  0  0  0  0  0
   36.9730   33.9680   38.8540 H   0  0  0  0  0  0  0  0  0  0  0  0
   39.3570   34.7180   40.3410 C   0  0  0  0  0  0  0  0  0  0  0  0
   38.9760   35.4540   39.6020 H   0  0  0  0  0  0  0  0  0  0  0  0
   39.4360   35.1510   41.3580 H   0  0  0  0  0  0  0  0  0  0  0  0
   40.7200   34.3110   39.9120 C   0  0  0  0  0  0  0  0  0  0  0  0
   41.8010   34.5440   40.7190 C   0  0  0  0  0  3  0  0  0  0  0  0
   43.1030   34.2130   40.4300 C   0  0  0  0  0  0  0  0  0  0  0  0
   43.9100   34.4300   41.1230 H   0  0  0  0  0  0  0  0  0  0  0  0
   43.3300   33.6060   39.2480 N   0  0  0  0  0  0  0  0  0  0  0  0
   42.2830   33.3610   38.4260 C   0  0  0  0  0  3  0  0  0  0  0  0
   41.0230   33.6970   38.7370 N   0  0  0  0  0  0  0  0  0  0  0  0
  1  9  1  0  0  0  0
  2  7  1  0  0  0  0
  2  1  1  0  0  0  0
  3  2  2  0  0  0  0
  4  3  1  0  0  0  0
  4  5  2  0  0  0  0
  5  6  1  0  0  0  0
  6  1  2  0  0  0  0
  8  3  1  0  0  0  0
  9 10  1  0  0  0  0
  9 15  1  0  0  0  0
 10 17  1  0  0  0  0
 11 18  1  0  0  0  0
 11 12  1  0  0  0  0
 11 10  1  0  0  0  0
 12 13  1  0  0  0  0
 12 21  1  0  0  0  0
 13 22  1  0  0  0  0
 14 24  1  0  0  0  0
 14  9  1  0  0  0  0
 14 13  1  0  0  0  0
 16 10  1  0  0  0  0
 19 11  1  0  0  0  0
 20 12  1  0  0  0  0
 23 13  1  0  0  0  0
 25 14  1  0  0  0  0
 26 30  2  0  0  0  0
 26  5  1  0  0  0  0
 27 26  1  0  0  0  0
 28 27  2  0  0  0  0
 28 29  1  0  0  0  0
 29 32  1  0  0  0  0
 29 30  1  0  0  0  0
 31 28  1  0  0  0  0
 32 34  1  0  0  0  0
 33 32  1  0  0  0  0
 35 32  1  0  0  0  0
 35 36  1  0  0  0  0
 37 36  2  0  0  0  0
 37 38  1  0  0  0  0
 39 37  1  0  0  0  0
 40 41  1  0  0  0  0
 40 39  2  0  0  0  0
 41 35  2  0  0  0  0
M  END
>  <minimizedAffinity>
-6.01277018

$$$$

 OpenBabel03242519303D

 41 44  0  0  0  0  0  0  0  0999 V2000
   39.6800   33.3170   40.4840 C   0  0  0  0  0  0  0  0  0  0  0  0
   38.7090   34.1340   39.8490 C   0  0  0  0  0  0  0  0  0  0  0  0
   37.3980   33.6530   39.6650 C   0  0  0  0  0  0  0  0  0  0  0  0
   37.1510   32.3850   40.1320 N   0  0  0  0  0  0  0  0  0  0  0  0
   38.1320   31.6290   40.7430 C   0  0  0  0  0  0  0  0  0  0  0  0
   39.3470   32.1060   40.9010 N   0  0  0  0  0  0  0  0  0  0  0  0
   38.8260   35.1360   39.4560 H   0  0  0  0  0  0  0  0  0  0  0  0
   36.6260   34.2130   39.1990 H   0  0  0  0  0  0  0  0  0  0  0  0
   41.0090   33.9410   40.6050 C   0  0  0  0  0  0  0  0  0  0  0  0
   41.4220   34.7240   39.4550 C   0  0  0  0  0  0  0  0  0  0  0  0
   42.5620   34.1690   38.7000 C   0  0  0  0  0  0  0  0  0  0  0  0
   43.7660   33.9100   39.6060 C   0  0  0  0  0  0  0  0  0  0  0  0
   43.4120   33.3180   40.9280 C   0  0  0  0  0  0  0  0  0  0  0  0
   41.9880   32.7810   40.9330 C   0  0  0  0  0  0  0  0  0  0  0  0
   41.0220   34.5360   41.5660 H   0  0  0  0  0  0  0  0  0  0  0  0
   40.5800   34.8780   38.7530 H   0  0  0  0  0  0  0  0  0  0  0  0
   41.7120   35.7560   39.7820 H   0  0  0  0  0  0  0  0  0  0  0  0
   42.9120   34.9410   37.9600 H   0  0  0  0  0  0  0  0  0  0  0  0
   42.4030   33.2560   38.1310 H   0  0  0  0  0  0  0  0  0  0  0  0
   44.5330   33.3580   39.0300 H   0  0  0  0  0  0  0  0  0  0  0  0
   44.1980   34.9200   39.8130 H   0  0  0  0  0  0  0  0  0  0  0  0
   43.5340   33.9930   41.7890 H   0  0  0  0  0  0  0  0  0  0  0  0
   44.0630   32.4360   41.0810 H   0  0  0  0  0  0  0  0  0  0  0  0
   41.7630   32.3670   41.9160 H   0  0  0  0  0  0  0  0  0  0  0  0
   41.8650   31.9980   40.1560 H   0  0  0  0  0  0  0  0  0  0  0  0
   37.6730   30.3120   41.1610 C   0  0  0  0  0  0  0  0  0  0  0  0
   37.1250   29.4980   40.2330 N   0  0  0  0  0  0  0  0  0  0  0  0
   36.7790   28.3350   40.8430 C   0  0  0  0  0  0  0  0  0  0  0  0
   37.1210   28.4470   42.1560 N   0  0  0  0  0  0  0  0  0  0  0  0
   37.6670   29.6500   42.3530 N   0  0  0  0  0  0  0  0  0  0  0  0
   36.3130   27.4880   40.3450 H   0  0  0  0  0  0  0  0  0  0  0  0
   36.9350   27.4360   43.1860 C   0  0  0  0  0  0  0  0  0  0  0  0
   36.9340   27.9000   44.1940 H   0  0  0  0  0  0  0  0  0  0  0  0
   36.0280   26.8240   43.0070 H   0  0  0  0  0  0  0  0  0  0  0  0
   38.1150   26.5360   43.1030 C   0  0  0  0  0  0  0  0  0  0  0  0
   39.2580   26.8230   43.7980 C   0  0  0  0  0  3  0  0  0  0  0  0
   40.4070   26.0680   43.7980 C   0  0  0  0  0  0  0  0  0  0  0  0
   41.2770   26.3610   44.3760 H   0  0  0  0  0  0  0  0  0  0  0  0
   40.4010   24.9490   43.0480 N   0  0  0  0  0  0  0  0  0  0  0  0
   39.2850   24.6350   42.3490 C   0  0  0  0  0  3  0  0  0  0  0  0
   38.1800   25.3930   42.3680 N   0  0  0  0  0  0  0  0  0  0  0  0
  1  9  1  0  0  0  0
  1  6  1  0  0  0  0
  2  1  2  0  0  0  0
  3  2  1  0  0  0  0
  3  4  2  0  0  0  0
  4  5  1  0  0  0  0
  5  6  2  0  0  0  0
  5 26  1  0  0  0  0
  7  2  1  0  0  0  0
  8  3  1  0  0  0  0
  9 14  1  0  0  0  0
  9 15  1  0  0  0  0
 10 17  1  0  0  0  0
 10  9  1  0  0  0  0
 11 10  1  0  0  0  0
 11 12  1  0  0  0  0
 12 21  1  0  0  0  0
 12 13  1  0  0  0  0
 13 14  1  0  0  0  0
 13 23  1  0  0  0  0
 13 22  1  0  0  0  0
 14 24  1  0  0  0  0
 16 10  1  0  0  0  0
 18 11  1  0  0  0  0
 19 11  1  0  0  0  0
 20 12  1  0  0  0  0
 25 14  1  0  0  0  0
 26 30  2  0  0  0  0
 27 28  2  0  0  0  0
 27 26  1  0  0  0  0
 28 29  1  0  0  0  0
 29 30  1  0  0  0  0
 29 32  1  0  0  0  0
 31 28  1  0  0  0  0
 32 33  1  0  0  0  0
 34 32  1  0  0  0  0
 35 32  1  0  0  0  0
 35 36  1  0  0  0  0
 36 37  2  0  0  0  0
 37 38  1  0  0  0  0
 39 37  1  0  0  0  0
 40 41  1  0  0  0  0
 40 39  2  0  0  0  0
 41 35  2  0  0  0  0
M  END
>  <minimizedAffinity>
-5.65027094

$$$$

 OpenBabel03242519303D

 41 44  0  0  0  0  0  0  0  0999 V2000
   37.9130   27.2140   41.4500 C   0  0  0  0  0  0  0  0  0  0  0  0
   37.7470   27.1150   42.8560 C   0  0  0  0  0  0  0  0  0  0  0  0
   37.6450   28.2850   43.6350 C   0  0  0  0  0  0  0  0  0  0  0  0
   37.7160   29.4730   42.9480 N   0  0  0  0  0  0  0  0  0  0  0  0
   37.8800   29.5140   41.5770 C   0  0  0  0  0  0  0  0  0  0  0  0
   37.9710   28.4050   40.8780 N   0  0  0  0  0  0  0  0  0  0  0  0
   37.6830   26.2240   43.4660 H   0  0  0  0  0  0  0  0  0  0  0  0
   37.5190   28.2820   44.6880 H   0  0  0  0  0  0  0  0  0  0  0  0
   38.0110   25.9150   40.7620 C   0  0  0  0  0  0  0  0  0  0  0  0
   37.3910   25.8730   39.4500 C   0  0  0  0  0  0  0  0  0  0  0  0
   36.2000   25.0070   39.3500 C   0  0  0  0  0  0  0  0  0  0  0  0
   36.4950   23.5850   39.8270 C   0  0  0  0  0  0  0  0  0  0  0  0
   37.3400   23.5210   41.0540 C   0  0  0  0  0  0  0  0  0  0  0  0
   37.4160   24.8740   41.7480 C   0  0  0  0  0  0  0  0  0  0  0  0
   39.1010   25.6200   40.7400 H   0  0  0  0  0  0  0  0  0  0  0  0
   37.1150   26.8870   39.1050 H   0  0  0  0  0  0  0  0  0  0  0  0
   38.1310   25.5060   38.6920 H   0  0  0  0  0  0  0  0  0  0  0  0
   35.9230   24.9020   38.2650 H   0  0  0  0  0  0  0  0  0  0  0  0
   35.2950   25.3220   39.8640 H   0  0  0  0  0  0  0  0  0  0  0  0
   35.5440   23.0210   39.8770 H   0  0  0  0  0  0  0  0  0  0  0  0
   37.0910   23.1190   39.0030 H   0  0  0  0  0  0  0  0  0  0  0  0
   38.3650   23.1520   40.8950 H   0  0  0  0  0  0  0  0  0  0  0  0
   36.8330   22.8460   41.7700 H   0  0  0  0  0  0  0  0  0  0  0  0
   38.0480   24.7900   42.6310 H   0  0  0  0  0  0  0  0  0  0  0  0
   36.4020   25.2170   42.0400 H   0  0  0  0  0  0  0  0  0  0  0  0
   37.9390   30.8670   41.0410 C   0  0  0  0  0  0  0  0  0  0  0  0
   37.0130   31.2380   40.1300 N   0  0  0  0  0  0  0  0  0  0  0  0
   37.2590   32.5260   39.7790 C   0  0  0  0  0  0  0  0  0  0  0  0
   38.3480   32.9390   40.4850 N   0  0  0  0  0  0  0  0  0  0  0  0
   38.7640   31.9310   41.2550 N   0  0  0  0  0  0  0  0  0  0  0  0
   36.6750   33.0970   39.0600 H   0  0  0  0  0  0  0  0  0  0  0  0
   38.9670   34.2550   40.4250 C   0  0  0  0  0  0  0  0  0  0  0  0
   38.4490   34.8980   39.6830 H   0  0  0  0  0  0  0  0  0  0  0  0
   39.0220   34.7330   41.4240 H   0  0  0  0  0  0  0  0  0  0  0  0
   40.3570   34.0400   39.9460 C   0  0  0  0  0  0  0  0  0  0  0  0
   41.4220   34.4880   40.6790 C   0  0  0  0  0  3  0  0  0  0  0  0
   42.7460   34.3470   40.3380 C   0  0  0  0  0  0  0  0  0  0  0  0
   43.5380   34.7310   40.9720 H   0  0  0  0  0  0  0  0  0  0  0  0
   43.0130   33.7100   39.1810 N   0  0  0  0  0  0  0  0  0  0  0  0
   41.9820   33.2530   38.4320 C   0  0  0  0  0  3  0  0  0  0  0  0
   40.7000   33.4070   38.7920 N   0  0  0  0  0  0  0  0  0  0  0  0
  1  2  1  0  0  0  0
  2  7  1  0  0  0  0
  2  3  2  0  0  0  0
  3  8  1  0  0  0  0
  4  3  1  0  0  0  0
  5  4  2  0  0  0  0
  6  1  2  0  0  0  0
  6  5  1  0  0  0  0
  9  1  1  0  0  0  0
  9 14  1  0  0  0  0
 10  9  1  0  0  0  0
 11 10  1  0  0  0  0
 11 12  1  0  0  0  0
 11 19  1  0  0  0  0
 12 20  1  0  0  0  0
 12 13  1  0  0  0  0
 13 14  1  0  0  0  0
 13 23  1  0  0  0  0
 14 25  1  0  0  0  0
 14 24  1  0  0  0  0
 15  9  1  0  0  0  0
 16 10  1  0  0  0  0
 17 10  1  0  0  0  0
 18 11  1  0  0  0  0
 21 12  1  0  0  0  0
 22 13  1  0  0  0  0
 26 30  2  0  0  0  0
 26  5  1  0  0  0  0
 27 26  1  0  0  0  0
 28 27  2  0  0  0  0
 28 29  1  0  0  0  0
 29 30  1  0  0  0  0
 31 28  1  0  0  0  0
 32 29  1  0  0  0  0
 32 34  1  0  0  0  0
 33 32  1  0  0  0  0
 35 32  1  0  0  0  0
 35 36  1  0  0  0  0
 37 36  2  0  0  0  0
 37 38  1  0  0  0  0
 39 37  1  0  0  0  0
 40 41  1  0  0  0  0
 40 39  2  0  0  0  0
 41 35  2  0  0  0  0
M  END
>  <minimizedAffinity>
-5.64129639

$$$$

 OpenBabel03242519303D

 41 44  0  0  0  0  0  0  0  0999 V2000
   37.2700   25.1260   41.2480 C   0  0  0  0  0  0  0  0  0  0  0  0
   38.2840   25.0210   42.2350 C   0  0  0  0  0  0  0  0  0  0  0  0
   38.9160   26.1830   42.7190 C   0  0  0  0  0  0  0  0  0  0  0  0
   38.4870   27.3710   42.1790 N   0  0  0  0  0  0  0  0  0  0  0  0
   37.4960   27.4190   41.2190 C   0  0  0  0  0  0  0  0  0  0  0  0
   36.9240   26.3170   40.7870 N   0  0  0  0  0  0  0  0  0  0  0  0
   38.6760   24.1290   42.7060 H   0  0  0  0  0  0  0  0  0  0  0  0
   39.6800   26.1750   43.4550 H   0  0  0  0  0  0  0  0  0  0  0  0
   36.6990   23.8350   40.8290 C   0  0  0  0  0  0  0  0  0  0  0  0
   37.6710   22.7770   40.6220 C   0  0  0  0  0  0  0  0  0  0  0  0
   37.8190   22.3310   39.2230 C   0  0  0  0  0  0  0  0  0  0  0  0
   36.4770   21.9230   38.6160 C   0  0  0  0  0  0  0  0  0  0  0  0
   35.3490   22.8320   38.9750 C   0  0  0  0  0  0  0  0  0  0  0  0
   35.8560   24.1410   39.5620 C   0  0  0  0  0  0  0  0  0  0  0  0
   35.9010   23.5540   41.5790 H   0  0  0  0  0  0  0  0  0  0  0  0
   38.6690   23.0700   41.0030 H   0  0  0  0  0  0  0  0  0  0  0  0
   37.3890   21.8770   41.2290 H   0  0  0  0  0  0  0  0  0  0  0  0
   38.4450   21.3960   39.2090 H   0  0  0  0  0  0  0  0  0  0  0  0
   38.2820   23.0140   38.5150 H   0  0  0  0  0  0  0  0  0  0  0  0
   36.6150   21.7440   37.5330 H   0  0  0  0  0  0  0  0  0  0  0  0
   36.2430   20.9280   39.0690 H   0  0  0  0  0  0  0  0  0  0  0  0
   34.6070   22.4020   39.6660 H   0  0  0  0  0  0  0  0  0  0  0  0
   34.8340   23.1050   38.0350 H   0  0  0  0  0  0  0  0  0  0  0  0
   35.0060   24.7720   39.8200 H   0  0  0  0  0  0  0  0  0  0  0  0
   36.5090   24.6660   38.8340 H   0  0  0  0  0  0  0  0  0  0  0  0
   37.1890   28.7700   40.7690 C   0  0  0  0  0  0  0  0  0  0  0  0
   36.4370   29.5580   41.5690 N   0  0  0  0  0  0  0  0  0  0  0  0
   36.2850   30.7590   40.9540 C   0  0  0  0  0  0  0  0  0  0  0  0
   36.9520   30.6980   39.7680 N   0  0  0  0  0  0  0  0  0  0  0  0
   37.5040   29.4870   39.6530 N   0  0  0  0  0  0  0  0  0  0  0  0
   35.7250   31.5990   41.3610 H   0  0  0  0  0  0  0  0  0  0  0  0
   37.0580   31.7620   38.7820 C   0  0  0  0  0  0  0  0  0  0  0  0
   37.3520   31.3510   37.7930 H   0  0  0  0  0  0  0  0  0  0  0  0
   36.1320   32.3680   38.7230 H   0  0  0  0  0  0  0  0  0  0  0  0
   38.1550   32.6500   39.2460 C   0  0  0  0  0  0  0  0  0  0  0  0
   37.8730   33.8230   39.8930 C   0  0  0  0  0  3  0  0  0  0  0  0
   38.8000   34.7200   40.3660 C   0  0  0  0  0  0  0  0  0  0  0  0
   38.5000   35.6330   40.8710 H   0  0  0  0  0  0  0  0  0  0  0  0
   40.0990   34.4140   40.1740 N   0  0  0  0  0  0  0  0  0  0  0  0
   40.4130   33.2610   39.5380 C   0  0  0  0  0  3  0  0  0  0  0  0
   39.4840   32.4060   39.0870 N   0  0  0  0  0  0  0  0  0  0  0  0
  1  2  1  0  0  0  0
  2  7  1  0  0  0  0
  2  3  2  0  0  0  0
  3  8  1  0  0  0  0
  4  3  1  0  0  0  0
  5  4  2  0  0  0  0
  6  5  1  0  0  0  0
  6  1  2  0  0  0  0
  9  1  1  0  0  0  0
  9 15  1  0  0  0  0
 10  9  1  0  0  0  0
 10 16  1  0  0  0  0
 10 17  1  0  0  0  0
 11 10  1  0  0  0  0
 12 13  1  0  0  0  0
 12 21  1  0  0  0  0
 12 11  1  0  0  0  0
 13 14  1  0  0  0  0
 13 22  1  0  0  0  0
 14 24  1  0  0  0  0
 14  9  1  0  0  0  0
 18 11  1  0  0  0  0
 19 11  1  0  0  0  0
 20 12  1  0  0  0  0
 23 13  1  0  0  0  0
 25 14  1  0  0  0  0
 26  5  1  0  0  0  0
 26 27  1  0  0  0  0
 28 31  1  0  0  0  0
 28 27  2  0  0  0  0
 29 28  1  0  0  0  0
 30 29  1  0  0  0  0
 30 26  2  0  0  0  0
 32 35  1  0  0  0  0
 32 29  1  0  0  0  0
 33 32  1  0  0  0  0
 34 32  1  0  0  0  0
 35 36  1  0  0  0  0
 36 37  2  0  0  0  0
 37 38  1  0  0  0  0
 39 37  1  0  0  0  0
 40 39  2  0  0  0  0
 41 35  2  0  0  0  0
 41 40  1  0  0  0  0
M  END
>  <minimizedAffinity>
-5.57753992

$$$$

 OpenBabel03242519303D

 41 44  0  0  0  0  0  0  0  0999 V2000
   33.2130   29.1190   37.1600 C   0  0  0  0  0  0  0  0  0  0  0  0
   33.8940   29.0050   35.9200 C   0  0  0  0  0  0  0  0  0  0  0  0
   35.2870   28.7960   35.9000 C   0  0  0  0  0  0  0  0  0  0  0  0
   35.9010   28.7150   37.1260 N   0  0  0  0  0  0  0  0  0  0  0  0
   35.1930   28.8330   38.3050 C   0  0  0  0  0  0  0  0  0  0  0  0
   33.8930   29.0280   38.2920 N   0  0  0  0  0  0  0  0  0  0  0  0
   33.4840   29.0580   34.9200 H   0  0  0  0  0  0  0  0  0  0  0  0
   35.8550   28.7010   35.0090 H   0  0  0  0  0  0  0  0  0  0  0  0
   31.7630   29.3400   37.0340 C   0  0  0  0  0  0  0  0  0  0  0  0
   31.3700   30.1920   35.9270 C   0  0  0  0  0  0  0  0  0  0  0  0
   30.7930   31.4940   36.3150 C   0  0  0  0  0  0  0  0  0  0  0  0
   29.6170   31.3250   37.2770 C   0  0  0  0  0  0  0  0  0  0  0  0
   29.8360   30.2850   38.3240 C   0  0  0  0  0  0  0  0  0  0  0  0
   31.3020   29.8870   38.4130 C   0  0  0  0  0  0  0  0  0  0  0  0
   31.2620   28.3280   37.0050 H   0  0  0  0  0  0  0  0  0  0  0  0
   32.2210   30.3780   35.2430 H   0  0  0  0  0  0  0  0  0  0  0  0
   30.6070   29.6670   35.2950 H   0  0  0  0  0  0  0  0  0  0  0  0
   30.3560   31.9800   35.3990 H   0  0  0  0  0  0  0  0  0  0  0  0
   31.4530   32.2330   36.7630 H   0  0  0  0  0  0  0  0  0  0  0  0
   29.3190   32.3220   37.6550 H   0  0  0  0  0  0  0  0  0  0  0  0
   28.7700   30.9670   36.6420 H   0  0  0  0  0  0  0  0  0  0  0  0
   29.2320   29.3720   38.2060 H   0  0  0  0  0  0  0  0  0  0  0  0
   29.5910   30.7430   39.3010 H   0  0  0  0  0  0  0  0  0  0  0  0
   31.4200   29.1200   39.1780 H   0  0  0  0  0  0  0  0  0  0  0  0
   31.9290   30.7680   38.6610 H   0  0  0  0  0  0  0  0  0  0  0  0
   36.0250   28.7270   39.4960 C   0  0  0  0  0  0  0  0  0  0  0  0
   37.3300   29.0620   39.3990 N   0  0  0  0  0  0  0  0  0  0  0  0
   37.9010   28.8900   40.6190 C   0  0  0  0  0  0  0  0  0  0  0  0
   36.9300   28.4440   41.4640 N   0  0  0  0  0  0  0  0  0  0  0  0
   35.7860   28.3440   40.7820 N   0  0  0  0  0  0  0  0  0  0  0  0
   38.9470   29.0810   40.8480 H   0  0  0  0  0  0  0  0  0  0  0  0
   37.0920   28.1270   42.8750 C   0  0  0  0  0  0  0  0  0  0  0  0
   37.6140   28.9520   43.4030 H   0  0  0  0  0  0  0  0  0  0  0  0
   36.1280   27.8670   43.3550 H   0  0  0  0  0  0  0  0  0  0  0  0
   37.9670   26.9270   42.9330 C   0  0  0  0  0  0  0  0  0  0  0  0
   39.1340   26.9520   43.6490 C   0  0  0  0  0  3  0  0  0  0  0  0
   40.0190   25.9080   43.7750 C   0  0  0  0  0  0  0  0  0  0  0  0
   40.9270   26.0030   44.3610 H   0  0  0  0  0  0  0  0  0  0  0  0
   39.7060   24.7630   43.1370 N   0  0  0  0  0  0  0  0  0  0  0  0
   38.5590   24.7040   42.4210 C   0  0  0  0  0  3  0  0  0  0  0  0
   37.7150   25.7410   42.3170 N   0  0  0  0  0  0  0  0  0  0  0  0
  1  6  1  0  0  0  0
  2  1  2  0  0  0  0
  3  2  1  0  0  0  0
  3  4  2  0  0  0  0
  4  5  1  0  0  0  0
  5 26  1  0  0  0  0
  6  5  2  0  0  0  0
  7  2  1  0  0  0  0
  8  3  1  0  0  0  0
  9  1  1  0  0  0  0
  9 14  1  0  0  0  0
 10 11  1  0  0  0  0
 10  9  1  0  0  0  0
 11 19  1  0  0  0  0
 11 12  1  0  0  0  0
 12 20  1  0  0  0  0
 12 13  1  0  0  0  0
 13 14  1  0  0  0  0
 13 23  1  0  0  0  0
 14 25  1  0  0  0  0
 14 24  1  0  0  0  0
 15  9  1  0  0  0  0
 16 10  1  0  0  0  0
 17 10  1  0  0  0  0
 18 11  1  0  0  0  0
 21 12  1  0  0  0  0
 22 13  1  0  0  0  0
 26 30  2  0  0  0  0
 27 26  1  0  0  0  0
 27 28  2  0  0  0  0
 28 31  1  0  0  0  0
 28 29  1  0  0  0  0
 29 32  1  0  0  0  0
 30 29  1  0  0  0  0
 32 35  1  0  0  0  0
 32 34  1  0  0  0  0
 32 33  1  0  0  0  0
 35 36  1  0  0  0  0
 36 37  2  0  0  0  0
 37 38  1  0  0  0  0
 39 37  1  0  0  0  0
 40 39  2  0  0  0  0
 41 40  1  0  0  0  0
 41 35  2  0  0  0  0
M  END
>  <minimizedAffinity>
-5.5494194

$$$$

 OpenBabel03242519303D

 41 44  0  0  0  0  0  0  0  0999 V2000
   32.3090   29.3730   36.9590 C   0  0  0  0  0  0  0  0  0  0  0  0
   32.8490   29.2230   35.6550 C   0  0  0  0  0  0  0  0  0  0  0  0
   34.1930   28.8350   35.4920 C   0  0  0  0  0  0  0  0  0  0  0  0
   34.9030   28.6220   36.6490 N   0  0  0  0  0  0  0  0  0  0  0  0
   34.3300   28.7830   37.8950 C   0  0  0  0  0  0  0  0  0  0  0  0
   33.0730   29.1460   38.0160 N   0  0  0  0  0  0  0  0  0  0  0  0
   32.3580   29.3720   34.7020 H   0  0  0  0  0  0  0  0  0  0  0  0
   34.6580   28.7050   34.5470 H   0  0  0  0  0  0  0  0  0  0  0  0
   30.8960   29.7870   36.9830 C   0  0  0  0  0  0  0  0  0  0  0  0
   30.5850   30.9400   36.1570 C   0  0  0  0  0  0  0  0  0  0  0  0
   30.1910   32.1520   36.9010 C   0  0  0  0  0  0  0  0  0  0  0  0
   29.0310   31.8760   37.8570 C   0  0  0  0  0  0  0  0  0  0  0  0
   29.1440   30.5790   38.5860 C   0  0  0  0  0  0  0  0  0  0  0  0
   30.5480   30.0030   38.4810 C   0  0  0  0  0  0  0  0  0  0  0  0
   30.2690   28.8830   36.7250 H   0  0  0  0  0  0  0  0  0  0  0  0
   31.4320   31.1970   35.4940 H   0  0  0  0  0  0  0  0  0  0  0  0
   29.7430   30.6910   35.4600 H   0  0  0  0  0  0  0  0  0  0  0  0
   29.7950   32.9090   36.1690 H   0  0  0  0  0  0  0  0  0  0  0  0
   30.9530   32.6650   37.4830 H   0  0  0  0  0  0  0  0  0  0  0  0
   28.8750   32.7660   38.4950 H   0  0  0  0  0  0  0  0  0  0  0  0
   28.1270   31.7980   37.2040 H   0  0  0  0  0  0  0  0  0  0  0  0
   28.4240   29.8060   38.2750 H   0  0  0  0  0  0  0  0  0  0  0  0
   28.9870   30.7900   39.6610 H   0  0  0  0  0  0  0  0  0  0  0  0
   30.5890   29.0540   39.0150 H   0  0  0  0  0  0  0  0  0  0  0  0
   31.2910   30.7090   38.9080 H   0  0  0  0  0  0  0  0  0  0  0  0
   35.2480   28.5170   38.9940 C   0  0  0  0  0  0  0  0  0  0  0  0
   36.1500   27.5220   38.8520 N   0  0  0  0  0  0  0  0  0  0  0  0
   36.8930   27.4610   39.9870 C   0  0  0  0  0  0  0  0  0  0  0  0
   36.4360   28.4310   40.8260 N   0  0  0  0  0  0  0  0  0  0  0  0
   35.4340   29.0770   40.2240 N   0  0  0  0  0  0  0  0  0  0  0  0
   37.7010   26.7530   40.1640 H   0  0  0  0  0  0  0  0  0  0  0  0
   36.9420   28.7310   42.1570 C   0  0  0  0  0  0  0  0  0  0  0  0
   36.1360   29.1440   42.7980 H   0  0  0  0  0  0  0  0  0  0  0  0
   37.4360   27.8530   42.6200 H   0  0  0  0  0  0  0  0  0  0  0  0
   37.9690   29.7900   41.9820 C   0  0  0  0  0  0  0  0  0  0  0  0
   39.1260   29.7660   42.7120 C   0  0  0  0  0  3  0  0  0  0  0  0
   40.1430   30.6870   42.6360 C   0  0  0  0  0  0  0  0  0  0  0  0
   41.0330   30.6010   43.2500 H   0  0  0  0  0  0  0  0  0  0  0  0
   39.9820   31.7010   41.7630 N   0  0  0  0  0  0  0  0  0  0  0  0
   38.8500   31.7550   41.0230 C   0  0  0  0  0  3  0  0  0  0  0  0
   37.8750   30.8400   41.1220 N   0  0  0  0  0  0  0  0  0  0  0  0
  1  9  1  0  0  0  0
  1  6  1  0  0  0  0
  2  1  2  0  0  0  0
  3  2  1  0  0  0  0
  3  4  2  0  0  0  0
  4  5  1  0  0  0  0
  5  6  2  0  0  0  0
  5 26  1  0  0  0  0
  7  2  1  0  0  0  0
  8  3  1  0  0  0  0
  9 14  1  0  0  0  0
 10 11  1  0  0  0  0
 10  9  1  0  0  0  0
 11 19  1  0  0  0  0
 11 12  1  0  0  0  0
 12 20  1  0  0  0  0
 12 13  1  0  0  0  0
 13 23  1  0  0  0  0
 14 13  1  0  0  0  0
 14 25  1  0  0  0  0
 14 24  1  0  0  0  0
 15  9  1  0  0  0  0
 16 10  1  0  0  0  0
 17 10  1  0  0  0  0
 18 11  1  0  0  0  0
 21 12  1  0  0  0  0
 22 13  1  0  0  0  0
 26 30  2  0  0  0  0
 27 26  1  0  0  0  0
 27 28  2  0  0  0  0
 28 31  1  0  0  0  0
 28 29  1  0  0  0  0
 29 32  1  0  0  0  0
 30 29  1  0  0  0  0
 32 34  1  0  0  0  0
 32 33  1  0  0  0  0
 35 32  1  0  0  0  0
 35 36  1  0  0  0  0
 37 36  2  0  0  0  0
 37 38  1  0  0  0  0
 39 37  1  0  0  0  0
 40 41  1  0  0  0  0
 40 39  2  0  0  0  0
 41 35  2  0  0  0  0
M  END
>  <minimizedAffinity>
-5.54334497

$$$$

 OpenBabel03242519303D

 41 44  0  0  0  0  0  0  0  0999 V2000
   37.6590   29.3940   41.9110 C   0  0  0  0  0  0  0  0  0  0  0  0
   36.3770   29.7150   41.3940 C   0  0  0  0  0  0  0  0  0  0  0  0
   36.1880   30.9180   40.6840 C   0  0  0  0  0  0  0  0  0  0  0  0
   37.2980   31.7140   40.5420 N   0  0  0  0  0  0  0  0  0  0  0  0
   38.5240   31.3550   41.0660 C   0  0  0  0  0  0  0  0  0  0  0  0
   38.6700   30.2260   41.7230 N   0  0  0  0  0  0  0  0  0  0  0  0
   35.4610   29.1450   41.4640 H   0  0  0  0  0  0  0  0  0  0  0  0
   35.2570   31.2170   40.2720 H   0  0  0  0  0  0  0  0  0  0  0  0
   37.7140   28.1120   42.6350 C   0  0  0  0  0  0  0  0  0  0  0  0
   39.0230   27.7590   43.1520 C   0  0  0  0  0  0  0  0  0  0  0  0
   39.6510   26.5860   42.5130 C   0  0  0  0  0  0  0  0  0  0  0  0
   38.7340   25.3630   42.5560 C   0  0  0  0  0  0  0  0  0  0  0  0
   37.3030   25.6700   42.2680 C   0  0  0  0  0  0  0  0  0  0  0  0
   37.1440   27.0530   41.6530 C   0  0  0  0  0  0  0  0  0  0  0  0
   36.9190   28.1370   43.4380 H   0  0  0  0  0  0  0  0  0  0  0  0
   39.7250   28.6120   43.0800 H   0  0  0  0  0  0  0  0  0  0  0  0
   38.9520   27.5410   44.2490 H   0  0  0  0  0  0  0  0  0  0  0  0
   40.5580   26.2940   43.1130 H   0  0  0  0  0  0  0  0  0  0  0  0
   39.9870   26.6830   41.4840 H   0  0  0  0  0  0  0  0  0  0  0  0
   39.1800   24.5610   41.9380 H   0  0  0  0  0  0  0  0  0  0  0  0
   38.7780   25.0020   43.6130 H   0  0  0  0  0  0  0  0  0  0  0  0
   36.6270   25.5920   43.1330 H   0  0  0  0  0  0  0  0  0  0  0  0
   36.9620   24.9570   41.4930 H   0  0  0  0  0  0  0  0  0  0  0  0
   36.0880   27.2440   41.4660 H   0  0  0  0  0  0  0  0  0  0  0  0
   37.7140   27.1230   40.7030 H   0  0  0  0  0  0  0  0  0  0  0  0
   39.5720   32.3350   40.8140 C   0  0  0  0  0  0  0  0  0  0  0  0
   39.2840   33.3970   40.0300 N   0  0  0  0  0  0  0  0  0  0  0  0
   40.3970   34.1690   39.9410 C   0  0  0  0  0  0  0  0  0  0  0  0
   41.3710   33.5680   40.6790 N   0  0  0  0  0  0  0  0  0  0  0  0
   40.8710   32.4510   41.2130 N   0  0  0  0  0  0  0  0  0  0  0  0
   40.4670   35.0940   39.3730 H   0  0  0  0  0  0  0  0  0  0  0  0
   42.7310   34.0480   40.8690 C   0  0  0  0  0  0  0  0  0  0  0  0
   42.7930   35.1380   40.6680 H   0  0  0  0  0  0  0  0  0  0  0  0
   43.1290   33.7850   41.8690 H   0  0  0  0  0  0  0  0  0  0  0  0
   43.5620   33.3540   39.8520 C   0  0  0  0  0  0  0  0  0  0  0  0
   43.9000   33.9810   38.6830 C   0  0  0  0  0  3  0  0  0  0  0  0
   44.6610   33.4410   37.6740 C   0  0  0  0  0  0  0  0  0  0  0  0
   44.8870   34.0020   36.7730 H   0  0  0  0  0  0  0  0  0  0  0  0
   45.1110   32.1840   37.8560 N   0  0  0  0  0  0  0  0  0  0  0  0
   44.7970   31.5350   39.0010 C   0  0  0  0  0  3  0  0  0  0  0  0
   44.0510   32.0890   39.9680 N   0  0  0  0  0  0  0  0  0  0  0  0
  1  9  1  0  0  0  0
  2  7  1  0  0  0  0
  2  1  2  0  0  0  0
  3  2  1  0  0  0  0
  4  3  2  0  0  0  0
  4  5  1  0  0  0  0
  5  6  2  0  0  0  0
  6  1  1  0  0  0  0
  8  3  1  0  0  0  0
  9 10  1  0  0  0  0
  9 15  1  0  0  0  0
 10 17  1  0  0  0  0
 11 12  1  0  0  0  0
 11 18  1  0  0  0  0
 11 10  1  0  0  0  0
 12 21  1  0  0  0  0
 13 12  1  0  0  0  0
 13 22  1  0  0  0  0
 14 13  1  0  0  0  0
 14  9  1  0  0  0  0
 16 10  1  0  0  0  0
 19 11  1  0  0  0  0
 20 12  1  0  0  0  0
 23 13  1  0  0  0  0
 24 14  1  0  0  0  0
 25 14  1  0  0  0  0
 26  5  1  0  0  0  0
 26 30  2  0  0  0  0
 27 26  1  0  0  0  0
 28 27  2  0  0  0  0
 28 29  1  0  0  0  0
 29 32  1  0  0  0  0
 29 30  1  0  0  0  0
 31 28  1  0  0  0  0
 32 34  1  0  0  0  0
 33 32  1  0  0  0  0
 35 41  1  0  0  0  0
 35 32  1  0  0  0  0
 36 35  2  0  0  0  0
 37 39  2  0  0  0  0
 37 36  1  0  0  0  0
 38 37  1  0  0  0  0
 39 40  1  0  0  0  0
 40 41  2  0  0  0  0
M  END
>  <minimizedAffinity>
-5.50921202

$$$$
