
 OpenBabel03242519083D

 41 44  0  0  1  0  0  0  0  0999 V2000
   39.7460   31.3970   41.1870 N   0  0  0  0  0  0  0  0  0  0  0  0
   38.6280   30.5600   41.5560 C   0  0  0  0  0  0  0  0  0  0  0  0
   39.1700   29.9640   42.8140 C   0  0  2  0  0  0  0  0  0  0  0  0
   40.5420   29.5140   42.3710 C   0  0  0  0  0  0  0  0  0  0  0  0
   40.9370   30.5800   41.3840 C   0  0  0  0  0  0  0  0  0  0  0  0
   37.7180   31.1650   41.7310 H   0  0  0  0  0  0  0  0  0  0  0  0
   38.5120   29.7610   40.8120 H   0  0  0  0  0  0  0  0  0  0  0  0
   39.2360   30.6590   43.6520 H   0  0  0  0  0  0  0  0  0  0  0  0
   40.5700   28.5020   41.9570 H   0  0  0  0  0  0  0  0  0  0  0  0
   41.2180   29.6430   43.2590 H   0  0  0  0  0  0  0  0  0  0  0  0
   41.1460   30.0610   40.4250 H   0  0  0  0  0  0  0  0  0  0  0  0
   41.8050   31.1710   41.6860 H   0  0  0  0  0  0  0  0  0  0  0  0
   38.9380   34.9260   40.3430 C   0  0  0  0  0  0  0  0  0  0  0  0
   38.7790   33.6340   40.8310 C   0  0  0  0  0  0  0  0  0  0  0  0
   39.8110   32.7180   40.7260 C   0  0  0  0  0  0  0  0  0  0  0  0
   40.9640   33.1510   40.1300 N   0  0  0  0  0  0  0  0  0  0  0  0
   41.1260   34.3920   39.6580 C   0  0  0  0  0  0  0  0  0  0  0  0
   40.1190   35.2860   39.7600 N   0  0  0  0  0  0  0  0  0  0  0  0
   38.1050   35.6090   40.4450 H   0  0  0  0  0  0  0  0  0  0  0  0
   37.8630   33.3180   41.2950 H   0  0  0  0  0  0  0  0  0  0  0  0
   42.0730   34.6500   39.2010 H   0  0  0  0  0  0  0  0  0  0  0  0
   38.4330   28.7970   43.2460 N   0  0  0  0  0  0  0  0  0  0  0  0
   37.5600   28.8900   43.8260 H   0  0  0  0  0  0  0  0  0  0  0  0
   38.0840   26.6510   42.0210 C   0  0  0  0  0  0  0  0  0  0  0  0
   38.6810   27.4140   43.0220 C   0  0  0  0  0  0  0  0  0  0  0  0
   39.5680   26.7030   43.8140 C   0  0  0  0  0  0  0  0  0  0  0  0
   39.8620   25.3650   43.6600 C   0  0  0  0  0  0  0  0  0  0  0  0
   39.2500   24.6550   42.6590 C   0  0  0  0  0  0  0  0  0  0  0  0
   38.3680   25.3290   41.8610 C   0  0  0  0  0  0  0  0  0  0  0  0
   40.0780   27.2330   44.6220 H   0  0  0  0  0  0  0  0  0  0  0  0
   40.5740   24.9010   44.3340 H   0  0  0  0  0  0  0  0  0  0  0  0
   39.4950   23.6280   42.5640 H   0  0  0  0  0  0  0  0  0  0  0  0
   37.6780   24.6360   40.7740 C   0  0  0  0  0  0  0  0  0  0  0  0
   36.4420   24.0330   40.8920 C   0  0  0  0  0  3  0  0  0  0  0  0
   35.8020   23.3820   39.8580 C   0  0  0  0  0  0  0  0  0  0  0  0
   34.8200   22.9250   40.0240 H   0  0  0  0  0  0  0  0  0  0  0  0
   36.3950   23.3170   38.6530 N   0  0  0  0  0  0  0  0  0  0  0  0
   37.5980   23.8960   38.5130 C   0  0  0  0  0  3  0  0  0  0  0  0
   38.1930   24.5170   39.5290 N   0  0  0  0  0  0  0  0  0  0  0  0
   36.3910   27.8860   40.4590 N   0  0  0  0  0  0  0  0  0  0  0  0
   37.1360   27.3290   41.1470 C   0  0  0  0  0  0  0  0  0  0  0  0
  1  5  1  0  0  0  0
  1  2  1  0  0  0  0
  2  6  1  0  0  0  0
  2  3  1  0  0  0  0
  3 22  1  0  0  0  0
  3  8  1  1  0  0  0
  4  3  1  0  0  0  0
  4 10  1  0  0  0  0
  5 12  1  0  0  0  0
  5  4  1  0  0  0  0
  7  2  1  0  0  0  0
  9  4  1  0  0  0  0
 11  5  1  0  0  0  0
 13 19  1  0  0  0  0
 13 14  1  0  0  0  0
 14 20  1  0  0  0  0
 15 14  2  0  0  0  0
 15  1  1  0  0  0  0
 16 15  1  0  0  0  0
 17 18  1  0  0  0  0
 17 16  2  0  0  0  0
 18 13  2  0  0  0  0
 21 17  1  0  0  0  0
 22 23  1  0  0  0  0
 24 25  1  0  0  0  0
 25 22  1  0  0  0  0
 25 26  2  0  0  0  0
 26 30  1  0  0  0  0
 27 26  1  0  0  0  0
 27 31  1  0  0  0  0
 28 27  2  0  0  0  0
 29 24  2  0  0  0  0
 29 28  1  0  0  0  0
 32 28  1  0  0  0  0
 33 34  1  0  0  0  0
 33 29  1  0  0  0  0
 35 36  1  0  0  0  0
 35 34  2  0  0  0  0
 37 35  1  0  0  0  0
 38 37  2  0  0  0  0
 38 39  1  0  0  0  0
 39 33  2  0  0  0  0
 40 41  3  0  0  0  0
 41 24  1  0  0  0  0
M  END
>  <minimizedAffinity>
-5.8759408

$$$$

 OpenBabel03242519083D

 41 44  0  0  1  0  0  0  0  0999 V2000
   38.5450   32.2000   39.7610 N   0  0  0  0  0  0  0  0  0  0  0  0
   38.5230   31.0240   40.5980 C   0  0  0  0  0  0  0  0  0  0  0  0
   37.8830   30.0600   39.6520 C   0  0  2  0  0  0  0  0  0  0  0  0
   36.6970   30.8560   39.1640 C   0  0  0  0  0  0  0  0  0  0  0  0
   37.2340   32.2620   39.1260 C   0  0  0  0  0  0  0  0  0  0  0  0
   39.5470   30.7190   40.8840 H   0  0  0  0  0  0  0  0  0  0  0  0
   37.8410   31.1910   41.4420 H   0  0  0  0  0  0  0  0  0  0  0  0
   38.5180   29.7520   38.8220 H   0  0  0  0  0  0  0  0  0  0  0  0
   35.7980   30.7480   39.7800 H   0  0  0  0  0  0  0  0  0  0  0  0
   36.5330   30.5540   38.0940 H   0  0  0  0  0  0  0  0  0  0  0  0
   36.5760   32.8700   39.7810 H   0  0  0  0  0  0  0  0  0  0  0  0
   37.2730   32.6990   38.1260 H   0  0  0  0  0  0  0  0  0  0  0  0
   40.6170   35.2860   39.8230 C   0  0  0  0  0  0  0  0  0  0  0  0
   39.5880   34.4020   40.1260 C   0  0  0  0  0  0  0  0  0  0  0  0
   39.5390   33.1570   39.5210 C   0  0  0  0  0  0  0  0  0  0  0  0
   40.5370   32.8610   38.6330 N   0  0  0  0  0  0  0  0  0  0  0  0
   41.5310   33.7060   38.3360 C   0  0  0  0  0  0  0  0  0  0  0  0
   41.5800   34.9200   38.9260 N   0  0  0  0  0  0  0  0  0  0  0  0
   40.6170   36.2470   40.3190 H   0  0  0  0  0  0  0  0  0  0  0  0
   38.8150   34.6580   40.8270 H   0  0  0  0  0  0  0  0  0  0  0  0
   42.2800   33.3890   37.6220 H   0  0  0  0  0  0  0  0  0  0  0  0
   37.3850   28.8730   40.3120 N   0  0  0  0  0  0  0  0  0  0  0  0
   36.6710   28.2530   39.8490 H   0  0  0  0  0  0  0  0  0  0  0  0
   38.9320   27.7810   41.9370 C   0  0  0  0  0  0  0  0  0  0  0  0
   37.6990   28.3250   41.5870 C   0  0  0  0  0  0  0  0  0  0  0  0
   36.7630   28.2950   42.6090 C   0  0  0  0  0  0  0  0  0  0  0  0
   36.9900   27.7840   43.8680 C   0  0  0  0  0  0  0  0  0  0  0  0
   38.2210   27.2590   44.1670 C   0  0  0  0  0  0  0  0  0  0  0  0
   39.1660   27.2740   43.1790 C   0  0  0  0  0  0  0  0  0  0  0  0
   35.7690   28.7050   42.4120 H   0  0  0  0  0  0  0  0  0  0  0  0
   36.1890   27.8080   44.5990 H   0  0  0  0  0  0  0  0  0  0  0  0
   38.3670   26.8720   45.1440 H   0  0  0  0  0  0  0  0  0  0  0  0
   40.5010   26.7300   43.4260 C   0  0  0  0  0  0  0  0  0  0  0  0
   41.4460   27.3200   44.2400 C   0  0  0  0  0  3  0  0  0  0  0  0
   42.7030   26.7970   44.4640 C   0  0  0  0  0  0  0  0  0  0  0  0
   43.4040   27.3200   45.1240 H   0  0  0  0  0  0  0  0  0  0  0  0
   43.0520   25.6440   43.8670 N   0  0  0  0  0  0  0  0  0  0  0  0
   42.1500   25.0500   43.0700 C   0  0  0  0  0  3  0  0  0  0  0  0
   40.9440   25.5790   42.8710 N   0  0  0  0  0  0  0  0  0  0  0  0
   40.7860   27.7890   40.0950 N   0  0  0  0  0  0  0  0  0  0  0  0
   39.9690   27.7750   40.9140 C   0  0  0  0  0  0  0  0  0  0  0  0
  1  2  1  0  0  0  0
  2  6  1  0  0  0  0
  2  7  1  0  0  0  0
  3  8  1  6  0  0  0
  3 22  1  0  0  0  0
  3  2  1  0  0  0  0
  4  3  1  0  0  0  0
  4  9  1  0  0  0  0
  5  4  1  0  0  0  0
  5  1  1  0  0  0  0
  5 11  1  0  0  0  0
 10  4  1  0  0  0  0
 12  5  1  0  0  0  0
 13 14  1  0  0  0  0
 13 19  1  0  0  0  0
 14 20  1  0  0  0  0
 15  1  1  0  0  0  0
 15 14  2  0  0  0  0
 16 15  1  0  0  0  0
 17 16  2  0  0  0  0
 17 18  1  0  0  0  0
 18 13  2  0  0  0  0
 21 17  1  0  0  0  0
 22 25  1  0  0  0  0
 23 22  1  0  0  0  0
 24 29  1  0  0  0  0
 25 24  2  0  0  0  0
 25 26  1  0  0  0  0
 26 27  2  0  0  0  0
 27 28  1  0  0  0  0
 27 31  1  0  0  0  0
 28 32  1  0  0  0  0
 29 33  1  0  0  0  0
 29 28  2  0  0  0  0
 30 26  1  0  0  0  0
 33 34  1  0  0  0  0
 34 35  2  0  0  0  0
 35 36  1  0  0  0  0
 37 35  1  0  0  0  0
 38 37  2  0  0  0  0
 39 38  1  0  0  0  0
 39 33  2  0  0  0  0
 40 41  3  0  0  0  0
 41 24  1  0  0  0  0
M  END
>  <minimizedAffinity>
-5.77303886

$$$$

 OpenBabel03242519083D

 41 44  0  0  1  0  0  0  0  0999 V2000
   38.7010   32.2620   40.6780 N   0  0  0  0  0  0  0  0  0  0  0  0
   38.8270   31.2180   41.6680 C   0  0  0  0  0  0  0  0  0  0  0  0
   37.9410   30.1850   41.0510 C   0  0  2  0  0  0  0  0  0  0  0  0
   36.7080   30.9950   40.7270 C   0  0  0  0  0  0  0  0  0  0  0  0
   37.2820   32.3370   40.3540 C   0  0  0  0  0  0  0  0  0  0  0  0
   39.8750   30.8780   41.7580 H   0  0  0  0  0  0  0  0  0  0  0  0
   38.3700   31.5540   42.6090 H   0  0  0  0  0  0  0  0  0  0  0  0
   38.3490   29.7160   40.1560 H   0  0  0  0  0  0  0  0  0  0  0  0
   35.9760   31.0440   41.5400 H   0  0  0  0  0  0  0  0  0  0  0  0
   36.2850   30.5620   39.7820 H   0  0  0  0  0  0  0  0  0  0  0  0
   36.8240   33.0780   41.0410 H   0  0  0  0  0  0  0  0  0  0  0  0
   37.1040   32.6260   39.3160 H   0  0  0  0  0  0  0  0  0  0  0  0
   41.4630   33.5860   38.5700 C   0  0  0  0  0  0  0  0  0  0  0  0
   40.5550   32.6820   39.1100 C   0  0  0  0  0  0  0  0  0  0  0  0
   39.6520   33.0960   40.0750 C   0  0  0  0  0  0  0  0  0  0  0  0
   39.7070   34.4100   40.4520 N   0  0  0  0  0  0  0  0  0  0  0  0
   40.5770   35.2860   39.9360 C   0  0  0  0  0  0  0  0  0  0  0  0
   41.4580   34.8830   38.9950 N   0  0  0  0  0  0  0  0  0  0  0  0
   42.1500   33.2200   37.8190 H   0  0  0  0  0  0  0  0  0  0  0  0
   40.5310   31.6550   38.7990 H   0  0  0  0  0  0  0  0  0  0  0  0
   40.5500   36.3080   40.2920 H   0  0  0  0  0  0  0  0  0  0  0  0
   37.5610   29.1430   41.9800 N   0  0  0  0  0  0  0  0  0  0  0  0
   36.6780   29.2170   42.5470 H   0  0  0  0  0  0  0  0  0  0  0  0
   38.1780   26.7670   41.5330 C   0  0  0  0  0  0  0  0  0  0  0  0
   38.2100   27.9210   42.3120 C   0  0  0  0  0  0  0  0  0  0  0  0
   38.9480   27.7900   43.4770 C   0  0  0  0  0  0  0  0  0  0  0  0
   39.6050   26.6430   43.8670 C   0  0  0  0  0  0  0  0  0  0  0  0
   39.5450   25.5310   43.0670 C   0  0  0  0  0  0  0  0  0  0  0  0
   38.8240   25.6290   41.9100 C   0  0  0  0  0  0  0  0  0  0  0  0
   39.0220   28.6540   44.1420 H   0  0  0  0  0  0  0  0  0  0  0  0
   40.1580   26.6440   44.8000 H   0  0  0  0  0  0  0  0  0  0  0  0
   40.0600   24.6620   43.3920 H   0  0  0  0  0  0  0  0  0  0  0  0
   38.7160   24.4830   41.0080 C   0  0  0  0  0  0  0  0  0  0  0  0
   37.7900   23.4680   41.1410 C   0  0  0  0  0  3  0  0  0  0  0  0
   37.6990   22.3920   40.2830 C   0  0  0  0  0  0  0  0  0  0  0  0
   36.9380   21.6220   40.4500 H   0  0  0  0  0  0  0  0  0  0  0  0
   38.5510   22.3030   39.2460 N   0  0  0  0  0  0  0  0  0  0  0  0
   39.4610   23.2780   39.0950 C   0  0  0  0  0  3  0  0  0  0  0  0
   39.5260   24.3050   39.9400 N   0  0  0  0  0  0  0  0  0  0  0  0
   36.8060   26.8890   39.3110 N   0  0  0  0  0  0  0  0  0  0  0  0
   37.4190   26.8260   40.2910 C   0  0  0  0  0  0  0  0  0  0  0  0
  1  2  1  0  0  0  0
  2  6  1  0  0  0  0
  2  7  1  0  0  0  0
  3  8  1  6  0  0  0
  3  2  1  0  0  0  0
  3 22  1  0  0  0  0
  4  3  1  0  0  0  0
  4  9  1  0  0  0  0
  5  1  1  0  0  0  0
  5  4  1  0  0  0  0
  5 11  1  0  0  0  0
 10  4  1  0  0  0  0
 12  5  1  0  0  0  0
 13 18  2  0  0  0  0
 13 14  1  0  0  0  0
 14 15  2  0  0  0  0
 15 16  1  0  0  0  0
 15  1  1  0  0  0  0
 17 21  1  0  0  0  0
 17 16  2  0  0  0  0
 18 17  1  0  0  0  0
 19 13  1  0  0  0  0
 20 14  1  0  0  0  0
 22 25  1  0  0  0  0
 22 23  1  0  0  0  0
 24 29  2  0  0  0  0
 24 25  1  0  0  0  0
 25 26  2  0  0  0  0
 26 27  1  0  0  0  0
 26 30  1  0  0  0  0
 27 31  1  0  0  0  0
 28 32  1  0  0  0  0
 28 27  2  0  0  0  0
 29 28  1  0  0  0  0
 33 34  1  0  0  0  0
 33 29  1  0  0  0  0
 35 36  1  0  0  0  0
 35 34  2  0  0  0  0
 37 35  1  0  0  0  0
 38 37  2  0  0  0  0
 38 39  1  0  0  0  0
 39 33  2  0  0  0  0
 40 41  3  0  0  0  0
 41 24  1  0  0  0  0
M  END
>  <minimizedAffinity>
-5.70657206

$$$$

 OpenBabel03242519083D

 41 44  0  0  1  0  0  0  0  0999 V2000
   37.9230   32.2710   39.5480 N   0  0  0  0  0  0  0  0  0  0  0  0
   37.2470   31.4540   40.5280 C   0  0  0  0  0  0  0  0  0  0  0  0
   37.2670   30.1420   39.8120 C   0  0  2  0  0  0  0  0  0  0  0  0
   36.7610   30.5360   38.4440 C   0  0  0  0  0  0  0  0  0  0  0  0
   37.3410   31.9130   38.2600 C   0  0  0  0  0  0  0  0  0  0  0  0
   37.8110   31.4240   41.4800 H   0  0  0  0  0  0  0  0  0  0  0  0
   36.2050   31.7860   40.6220 H   0  0  0  0  0  0  0  0  0  0  0  0
   38.2500   29.6760   39.7480 H   0  0  0  0  0  0  0  0  0  0  0  0
   35.6720   30.5020   38.3410 H   0  0  0  0  0  0  0  0  0  0  0  0
   37.2910   29.8720   37.7090 H   0  0  0  0  0  0  0  0  0  0  0  0
   36.4830   32.5950   38.0830 H   0  0  0  0  0  0  0  0  0  0  0  0
   38.0570   31.9920   37.4400 H   0  0  0  0  0  0  0  0  0  0  0  0
   39.8820   35.2860   40.4920 C   0  0  0  0  0  0  0  0  0  0  0  0
   38.8240   34.3870   40.4300 C   0  0  0  0  0  0  0  0  0  0  0  0
   38.9330   33.2340   39.6710 C   0  0  0  0  0  0  0  0  0  0  0  0
   40.1120   33.0400   39.0060 N   0  0  0  0  0  0  0  0  0  0  0  0
   41.1360   33.9000   39.0600 C   0  0  0  0  0  0  0  0  0  0  0  0
   41.0310   35.0240   39.8000 N   0  0  0  0  0  0  0  0  0  0  0  0
   39.7540   36.1730   41.0960 H   0  0  0  0  0  0  0  0  0  0  0  0
   37.9060   34.5610   40.9620 H   0  0  0  0  0  0  0  0  0  0  0  0
   42.0330   33.6670   38.5020 H   0  0  0  0  0  0  0  0  0  0  0  0
   36.3420   29.1820   40.3720 N   0  0  0  0  0  0  0  0  0  0  0  0
   35.3040   29.3540   40.3560 H   0  0  0  0  0  0  0  0  0  0  0  0
   36.7190   26.7150   40.3380 C   0  0  0  0  0  0  0  0  0  0  0  0
   36.5810   27.9300   41.0050 C   0  0  0  0  0  0  0  0  0  0  0  0
   36.7000   27.8290   42.3820 C   0  0  0  0  0  0  0  0  0  0  0  0
   36.9320   26.6570   43.0680 C   0  0  0  0  0  0  0  0  0  0  0  0
   37.0620   25.4850   42.3670 C   0  0  0  0  0  0  0  0  0  0  0  0
   36.9490   25.5520   41.0060 C   0  0  0  0  0  0  0  0  0  0  0  0
   36.6040   28.7410   42.9770 H   0  0  0  0  0  0  0  0  0  0  0  0
   37.0090   26.6850   44.1490 H   0  0  0  0  0  0  0  0  0  0  0  0
   37.2400   24.5980   42.9210 H   0  0  0  0  0  0  0  0  0  0  0  0
   37.0760   24.3420   40.1950 C   0  0  0  0  0  0  0  0  0  0  0  0
   36.0200   23.5370   39.8220 C   0  0  0  0  0  3  0  0  0  0  0  0
   36.1530   22.3970   39.0560 C   0  0  0  0  0  0  0  0  0  0  0  0
   35.2680   21.8050   38.7980 H   0  0  0  0  0  0  0  0  0  0  0  0
   37.3740   22.0280   38.6330 N   0  0  0  0  0  0  0  0  0  0  0  0
   38.4190   22.7940   38.9820 C   0  0  0  0  0  3  0  0  0  0  0  0
   38.2610   23.8890   39.7240 N   0  0  0  0  0  0  0  0  0  0  0  0
   36.4960   26.7650   37.7340 N   0  0  0  0  0  0  0  0  0  0  0  0
   36.6060   26.7400   38.8860 C   0  0  0  0  0  0  0  0  0  0  0  0
  1 15  1  0  0  0  0
  1  2  1  0  0  0  0
  2  7  1  0  0  0  0
  2  6  1  0  0  0  0
  3  8  1  6  0  0  0
  3 22  1  0  0  0  0
  3  2  1  0  0  0  0
  4  3  1  0  0  0  0
  5  4  1  0  0  0  0
  5  1  1  0  0  0  0
  9  4  1  0  0  0  0
 10  4  1  0  0  0  0
 11  5  1  0  0  0  0
 12  5  1  0  0  0  0
 13 19  1  0  0  0  0
 14 13  1  0  0  0  0
 14 20  1  0  0  0  0
 15 14  2  0  0  0  0
 16 17  2  0  0  0  0
 16 15  1  0  0  0  0
 17 18  1  0  0  0  0
 18 13  2  0  0  0  0
 21 17  1  0  0  0  0
 22 25  1  0  0  0  0
 23 22  1  0  0  0  0
 24 25  2  0  0  0  0
 24 29  1  0  0  0  0
 25 26  1  0  0  0  0
 26 30  1  0  0  0  0
 26 27  2  0  0  0  0
 27 31  1  0  0  0  0
 28 32  1  0  0  0  0
 28 27  1  0  0  0  0
 29 28  2  0  0  0  0
 33 29  1  0  0  0  0
 34 33  1  0  0  0  0
 35 34  2  0  0  0  0
 36 35  1  0  0  0  0
 37 38  2  0  0  0  0
 37 35  1  0  0  0  0
 38 39  1  0  0  0  0
 39 33  2  0  0  0  0
 40 41  3  0  0  0  0
 41 24  1  0  0  0  0
M  END
>  <minimizedAffinity>
-5.68217802

$$$$

 OpenBabel03242519083D

 41 44  0  0  1  0  0  0  0  0999 V2000
   38.0030   28.2980   41.4580 N   0  0  0  0  0  0  0  0  0  0  0  0
   38.5460   29.1510   40.4270 C   0  0  0  0  0  0  0  0  0  0  0  0
   38.1020   30.4800   40.9470 C   0  0  2  0  0  0  0  0  0  0  0  0
   36.6440   30.2180   41.2430 C   0  0  0  0  0  0  0  0  0  0  0  0
   36.6530   28.7860   41.7100 C   0  0  0  0  0  0  0  0  0  0  0  0
   39.6470   29.0630   40.3760 H   0  0  0  0  0  0  0  0  0  0  0  0
   38.0260   28.9540   39.4810 H   0  0  0  0  0  0  0  0  0  0  0  0
   38.6290   30.8160   41.8390 H   0  0  0  0  0  0  0  0  0  0  0  0
   35.9740   30.3980   40.3970 H   0  0  0  0  0  0  0  0  0  0  0  0
   36.3890   30.8390   42.1440 H   0  0  0  0  0  0  0  0  0  0  0  0
   35.9670   28.2310   41.0360 H   0  0  0  0  0  0  0  0  0  0  0  0
   36.3460   28.6520   42.7490 H   0  0  0  0  0  0  0  0  0  0  0  0
   39.9030   26.1710   43.8420 C   0  0  0  0  0  0  0  0  0  0  0  0
   39.4160   27.3140   43.2190 C   0  0  0  0  0  0  0  0  0  0  0  0
   38.5450   27.2060   42.1490 C   0  0  0  0  0  0  0  0  0  0  0  0
   38.2030   25.9420   41.7540 N   0  0  0  0  0  0  0  0  0  0  0  0
   38.6660   24.8370   42.3480 C   0  0  0  0  0  0  0  0  0  0  0  0
   39.5160   24.9410   43.3930 N   0  0  0  0  0  0  0  0  0  0  0  0
   40.5820   26.3010   44.6740 H   0  0  0  0  0  0  0  0  0  0  0  0
   39.7010   28.2970   43.5470 H   0  0  0  0  0  0  0  0  0  0  0  0
   38.3420   23.8750   41.9710 H   0  0  0  0  0  0  0  0  0  0  0  0
   38.1760   31.5260   39.9520 N   0  0  0  0  0  0  0  0  0  0  0  0
   37.6590   31.4440   39.0380 H   0  0  0  0  0  0  0  0  0  0  0  0
   40.2530   32.8990   39.7850 C   0  0  0  0  0  0  0  0  0  0  0  0
   38.8790   32.7630   39.9630 C   0  0  0  0  0  0  0  0  0  0  0  0
   38.2180   33.9660   40.1580 C   0  0  0  0  0  0  0  0  0  0  0  0
   38.8260   35.2020   40.1810 C   0  0  0  0  0  0  0  0  0  0  0  0
   40.1830   35.2860   40.0000 C   0  0  0  0  0  0  0  0  0  0  0  0
   40.8630   34.1160   39.8060 C   0  0  0  0  0  0  0  0  0  0  0  0
   37.1360   33.9430   40.3050 H   0  0  0  0  0  0  0  0  0  0  0  0
   38.2180   36.0860   40.3410 H   0  0  0  0  0  0  0  0  0  0  0  0
   40.6240   36.2500   40.0230 H   0  0  0  0  0  0  0  0  0  0  0  0
   42.3120   34.1280   39.6070 C   0  0  0  0  0  0  0  0  0  0  0  0
   42.9310   34.1540   38.3740 C   0  0  0  0  0  3  0  0  0  0  0  0
   44.2990   34.1640   38.2000 C   0  0  0  0  0  0  0  0  0  0  0  0
   44.7220   34.1850   37.1900 H   0  0  0  0  0  0  0  0  0  0  0  0
   45.1000   34.1510   39.2800 N   0  0  0  0  0  0  0  0  0  0  0  0
   44.5220   34.1270   40.4910 C   0  0  0  0  0  3  0  0  0  0  0  0
   43.1980   34.1160   40.6290 N   0  0  0  0  0  0  0  0  0  0  0  0
   41.6140   30.7010   39.3930 N   0  0  0  0  0  0  0  0  0  0  0  0
   41.0180   31.6770   39.5750 C   0  0  0  0  0  0  0  0  0  0  0  0
  1  5  1  0  0  0  0
  1 15  1  0  0  0  0
  2  3  1  0  0  0  0
  2  1  1  0  0  0  0
  3  4  1  0  0  0  0
  3  8  1  1  0  0  0
  4  5  1  0  0  0  0
  4 10  1  0  0  0  0
  5 12  1  0  0  0  0
  6  2  1  0  0  0  0
  7  2  1  0  0  0  0
  9  4  1  0  0  0  0
 11  5  1  0  0  0  0
 13 19  1  0  0  0  0
 14 20  1  0  0  0  0
 14 13  2  0  0  0  0
 15 14  1  0  0  0  0
 16 15  2  0  0  0  0
 16 17  1  0  0  0  0
 17 18  2  0  0  0  0
 18 13  1  0  0  0  0
 21 17  1  0  0  0  0
 22 25  1  0  0  0  0
 22  3  1  0  0  0  0
 23 22  1  0  0  0  0
 24 29  2  0  0  0  0
 24 25  1  0  0  0  0
 25 26  2  0  0  0  0
 26 27  1  0  0  0  0
 26 30  1  0  0  0  0
 27 31  1  0  0  0  0
 28 32  1  0  0  0  0
 28 27  2  0  0  0  0
 29 28  1  0  0  0  0
 33 29  1  0  0  0  0
 33 39  1  0  0  0  0
 34 33  2  0  0  0  0
 35 34  1  0  0  0  0
 35 37  2  0  0  0  0
 36 35  1  0  0  0  0
 37 38  1  0  0  0  0
 38 39  2  0  0  0  0
 40 41  3  0  0  0  0
 41 24  1  0  0  0  0
M  END
>  <minimizedAffinity>
-5.66757441

$$$$

 OpenBabel03242519083D

 41 44  0  0  1  0  0  0  0  0999 V2000
   40.6770   33.9480   40.0840 N   0  0  0  0  0  0  0  0  0  0  0  0
   39.6980   32.9110   40.3100 C   0  0  0  0  0  0  0  0  0  0  0  0
   38.4870   33.5880   39.7560 C   0  0  2  0  0  0  0  0  0  0  0  0
   38.5600   34.9390   40.4270 C   0  0  0  0  0  0  0  0  0  0  0  0
   40.0430   35.1930   40.5000 C   0  0  0  0  0  0  0  0  0  0  0  0
   39.9580   31.9890   39.7570 H   0  0  0  0  0  0  0  0  0  0  0  0
   39.5580   32.7740   41.3910 H   0  0  0  0  0  0  0  0  0  0  0  0
   38.4830   33.6890   38.6700 H   0  0  0  0  0  0  0  0  0  0  0  0
   38.0600   34.9850   41.4000 H   0  0  0  0  0  0  0  0  0  0  0  0
   38.1520   35.6810   39.6890 H   0  0  0  0  0  0  0  0  0  0  0  0
   40.2840   35.3460   41.5730 H   0  0  0  0  0  0  0  0  0  0  0  0
   40.3790   36.0510   39.9150 H   0  0  0  0  0  0  0  0  0  0  0  0
   44.3770   33.7630   39.7730 C   0  0  0  0  0  0  0  0  0  0  0  0
   43.1190   33.7990   40.3650 C   0  0  0  0  0  0  0  0  0  0  0  0
   41.9840   33.9050   39.5800 C   0  0  0  0  0  0  0  0  0  0  0  0
   42.1700   33.9710   38.2270 N   0  0  0  0  0  0  0  0  0  0  0  0
   43.3760   33.9360   37.6490 C   0  0  0  0  0  0  0  0  0  0  0  0
   44.4840   33.8330   38.4130 N   0  0  0  0  0  0  0  0  0  0  0  0
   45.2370   33.6800   40.4230 H   0  0  0  0  0  0  0  0  0  0  0  0
   42.9990   33.7460   41.4310 H   0  0  0  0  0  0  0  0  0  0  0  0
   43.4310   33.9930   36.5690 H   0  0  0  0  0  0  0  0  0  0  0  0
   37.2530   32.9530   40.1600 N   0  0  0  0  0  0  0  0  0  0  0  0
   36.4740   33.5090   40.5990 H   0  0  0  0  0  0  0  0  0  0  0  0
   36.8470   30.8310   38.9110 C   0  0  0  0  0  0  0  0  0  0  0  0
   36.8440   31.5920   40.0770 C   0  0  0  0  0  0  0  0  0  0  0  0
   36.3980   30.9040   41.1940 C   0  0  0  0  0  0  0  0  0  0  0  0
   35.9880   29.5880   41.1950 C   0  0  0  0  0  0  0  0  0  0  0  0
   36.0090   28.8780   40.0210 C   0  0  0  0  0  0  0  0  0  0  0  0
   36.4440   29.5310   38.9020 C   0  0  0  0  0  0  0  0  0  0  0  0
   36.3670   31.4330   42.1490 H   0  0  0  0  0  0  0  0  0  0  0  0
   35.6570   29.1400   42.1250 H   0  0  0  0  0  0  0  0  0  0  0  0
   35.6880   27.8680   40.0520 H   0  0  0  0  0  0  0  0  0  0  0  0
   36.4930   28.8370   37.6150 C   0  0  0  0  0  0  0  0  0  0  0  0
   35.4330   28.7400   36.7380 C   0  0  0  0  0  3  0  0  0  0  0  0
   35.4930   28.0810   35.5280 C   0  0  0  0  0  0  0  0  0  0  0  0
   34.6090   28.0450   34.8810 H   0  0  0  0  0  0  0  0  0  0  0  0
   36.6420   27.4910   35.1550 N   0  0  0  0  0  0  0  0  0  0  0  0
   37.6890   27.5720   35.9910 C   0  0  0  0  0  3  0  0  0  0  0  0
   37.6020   28.2130   37.1540 N   0  0  0  0  0  0  0  0  0  0  0  0
   37.6740   31.9920   36.7190 N   0  0  0  0  0  0  0  0  0  0  0  0
   37.3020   31.4870   37.6920 C   0  0  0  0  0  0  0  0  0  0  0  0
  1  2  1  0  0  0  0
  1  5  1  0  0  0  0
  2  7  1  0  0  0  0
  3  8  1  6  0  0  0
  3 22  1  0  0  0  0
  3  2  1  0  0  0  0
  3  4  1  0  0  0  0
  4  5  1  0  0  0  0
  4  9  1  0  0  0  0
  5 11  1  0  0  0  0
  6  2  1  0  0  0  0
 10  4  1  0  0  0  0
 12  5  1  0  0  0  0
 13 14  1  0  0  0  0
 13 19  1  0  0  0  0
 14 20  1  0  0  0  0
 15  1  1  0  0  0  0
 15 14  2  0  0  0  0
 16 15  1  0  0  0  0
 17 16  2  0  0  0  0
 17 18  1  0  0  0  0
 18 13  2  0  0  0  0
 21 17  1  0  0  0  0
 22 23  1  0  0  0  0
 24 25  1  0  0  0  0
 25 22  1  0  0  0  0
 25 26  2  0  0  0  0
 26 27  1  0  0  0  0
 26 30  1  0  0  0  0
 27 31  1  0  0  0  0
 28 32  1  0  0  0  0
 28 27  2  0  0  0  0
 29 24  2  0  0  0  0
 29 28  1  0  0  0  0
 33 29  1  0  0  0  0
 34 33  2  0  0  0  0
 35 34  1  0  0  0  0
 36 35  1  0  0  0  0
 37 35  2  0  0  0  0
 37 38  1  0  0  0  0
 38 39  2  0  0  0  0
 39 33  1  0  0  0  0
 40 41  3  0  0  0  0
 41 24  1  0  0  0  0
M  END
>  <minimizedAffinity>
-5.65967369

$$$$

 OpenBabel03242519083D

 41 44  0  0  1  0  0  0  0  0999 V2000
   37.7610   26.6460   41.6820 N   0  0  0  0  0  0  0  0  0  0  0  0
   38.0890   27.9670   41.1990 C   0  0  0  0  0  0  0  0  0  0  0  0
   38.5520   28.5890   42.4780 C   0  0  2  0  0  0  0  0  0  0  0  0
   37.4340   28.2120   43.4210 C   0  0  0  0  0  0  0  0  0  0  0  0
   37.0320   26.8460   42.9280 C   0  0  0  0  0  0  0  0  0  0  0  0
   38.8880   27.9260   40.4360 H   0  0  0  0  0  0  0  0  0  0  0  0
   37.1710   28.4750   40.8760 H   0  0  0  0  0  0  0  0  0  0  0  0
   39.5120   28.2200   42.8380 H   0  0  0  0  0  0  0  0  0  0  0  0
   36.6070   28.9280   43.4470 H   0  0  0  0  0  0  0  0  0  0  0  0
   37.9100   28.0540   44.4260 H   0  0  0  0  0  0  0  0  0  0  0  0
   35.9530   26.9080   42.6760 H   0  0  0  0  0  0  0  0  0  0  0  0
   37.2030   26.0430   43.6480 H   0  0  0  0  0  0  0  0  0  0  0  0
   37.6100   23.0190   40.8820 C   0  0  0  0  0  0  0  0  0  0  0  0
   37.2700   24.2440   41.4450 C   0  0  0  0  0  0  0  0  0  0  0  0
   38.0240   25.3710   41.1650 C   0  0  0  0  0  0  0  0  0  0  0  0
   39.0910   25.2090   40.3250 N   0  0  0  0  0  0  0  0  0  0  0  0
   39.4240   24.0340   39.7780 C   0  0  0  0  0  0  0  0  0  0  0  0
   38.6900   22.9340   40.0510 N   0  0  0  0  0  0  0  0  0  0  0  0
   36.9940   22.1640   41.1280 H   0  0  0  0  0  0  0  0  0  0  0  0
   36.4270   24.3460   42.1030 H   0  0  0  0  0  0  0  0  0  0  0  0
   40.2850   23.9970   39.1240 H   0  0  0  0  0  0  0  0  0  0  0  0
   38.6130   30.0320   42.4100 N   0  0  0  0  0  0  0  0  0  0  0  0
   38.8370   30.6070   43.2630 H   0  0  0  0  0  0  0  0  0  0  0  0
   39.4240   31.5640   40.6140 C   0  0  0  0  0  0  0  0  0  0  0  0
   38.4090   30.9150   41.3130 C   0  0  0  0  0  0  0  0  0  0  0  0
   37.1360   31.2000   40.8440 C   0  0  0  0  0  0  0  0  0  0  0  0
   36.8570   32.0400   39.7890 C   0  0  0  0  0  0  0  0  0  0  0  0
   37.8900   32.6570   39.1300 C   0  0  0  0  0  0  0  0  0  0  0  0
   39.1580   32.3960   39.5700 C   0  0  0  0  0  0  0  0  0  0  0  0
   36.2850   30.7280   41.3410 H   0  0  0  0  0  0  0  0  0  0  0  0
   35.8240   32.1970   39.4990 H   0  0  0  0  0  0  0  0  0  0  0  0
   37.6460   33.2980   38.3220 H   0  0  0  0  0  0  0  0  0  0  0  0
   40.3090   33.0180   38.9170 C   0  0  0  0  0  0  0  0  0  0  0  0
   40.9790   32.4810   37.8360 C   0  0  0  0  0  3  0  0  0  0  0  0
   42.0640   33.0790   37.2290 C   0  0  0  0  0  0  0  0  0  0  0  0
   42.5470   32.5940   36.3730 H   0  0  0  0  0  0  0  0  0  0  0  0
   42.5150   34.2550   37.6980 N   0  0  0  0  0  0  0  0  0  0  0  0
   41.8810   34.7980   38.7490 C   0  0  0  0  0  3  0  0  0  0  0  0
   40.8360   34.1980   39.3150 N   0  0  0  0  0  0  0  0  0  0  0  0
   41.8820   31.1080   41.3780 N   0  0  0  0  0  0  0  0  0  0  0  0
   40.7920   31.3150   41.0500 C   0  0  0  0  0  0  0  0  0  0  0  0
  1  5  1  0  0  0  0
  2  1  1  0  0  0  0
  2  3  1  0  0  0  0
  3  8  1  1  0  0  0
  3  4  1  0  0  0  0
  4  9  1  0  0  0  0
  4 10  1  0  0  0  0
  5  4  1  0  0  0  0
  5 12  1  0  0  0  0
  6  2  1  0  0  0  0
  7  2  1  0  0  0  0
 11  5  1  0  0  0  0
 13 19  1  0  0  0  0
 13 14  1  0  0  0  0
 14 20  1  0  0  0  0
 15 14  2  0  0  0  0
 15  1  1  0  0  0  0
 16 15  1  0  0  0  0
 17 18  1  0  0  0  0
 17 16  2  0  0  0  0
 18 13  2  0  0  0  0
 21 17  1  0  0  0  0
 22  3  1  0  0  0  0
 22 23  1  0  0  0  0
 24 41  1  0  0  0  0
 24 25  1  0  0  0  0
 25 22  1  0  0  0  0
 26 25  2  0  0  0  0
 26 30  1  0  0  0  0
 27 26  1  0  0  0  0
 28 29  1  0  0  0  0
 28 27  2  0  0  0  0
 29 24  2  0  0  0  0
 31 27  1  0  0  0  0
 32 28  1  0  0  0  0
 33 39  1  0  0  0  0
 33 29  1  0  0  0  0
 34 33  2  0  0  0  0
 35 37  2  0  0  0  0
 35 34  1  0  0  0  0
 36 35  1  0  0  0  0
 37 38  1  0  0  0  0
 38 39  2  0  0  0  0
 41 40  3  0  0  0  0
M  END
>  <minimizedAffinity>
-5.61587572

$$$$

 OpenBabel03242519083D

 41 44  0  0  1  0  0  0  0  0999 V2000
   38.9110   31.6190   40.9460 N   0  0  0  0  0  0  0  0  0  0  0  0
   37.8480   30.7800   40.4430 C   0  0  0  0  0  0  0  0  0  0  0  0
   37.2380   30.3520   41.7390 C   0  0  2  0  0  0  0  0  0  0  0  0
   38.4560   29.9180   42.5190 C   0  0  0  0  0  0  0  0  0  0  0  0
   39.5120   30.8830   42.0510 C   0  0  0  0  0  0  0  0  0  0  0  0
   37.1460   31.3580   39.8150 H   0  0  0  0  0  0  0  0  0  0  0  0
   38.2830   29.8980   39.9540 H   0  0  0  0  0  0  0  0  0  0  0  0
   36.6950   31.1380   42.2640 H   0  0  0  0  0  0  0  0  0  0  0  0
   38.7300   28.8670   42.3770 H   0  0  0  0  0  0  0  0  0  0  0  0
   38.2510   30.1740   43.5940 H   0  0  0  0  0  0  0  0  0  0  0  0
   40.3370   30.2700   41.6320 H   0  0  0  0  0  0  0  0  0  0  0  0
   39.8950   31.5420   42.8340 H   0  0  0  0  0  0  0  0  0  0  0  0
   39.2260   35.2750   40.3480 C   0  0  0  0  0  0  0  0  0  0  0  0
   38.6900   34.0670   40.7800 C   0  0  0  0  0  0  0  0  0  0  0  0
   39.3690   32.8830   40.5500 C   0  0  0  0  0  0  0  0  0  0  0  0
   40.5650   32.9720   39.8910 N   0  0  0  0  0  0  0  0  0  0  0  0
   41.0880   34.1310   39.4740 C   0  0  0  0  0  0  0  0  0  0  0  0
   40.4260   35.2860   39.6970 N   0  0  0  0  0  0  0  0  0  0  0  0
   38.6620   36.1760   40.5480 H   0  0  0  0  0  0  0  0  0  0  0  0
   37.7480   34.0220   41.2950 H   0  0  0  0  0  0  0  0  0  0  0  0
   42.0410   34.1090   38.9600 H   0  0  0  0  0  0  0  0  0  0  0  0
   36.3640   29.2090   41.5980 N   0  0  0  0  0  0  0  0  0  0  0  0
   35.6980   28.9360   42.3660 H   0  0  0  0  0  0  0  0  0  0  0  0
   36.7800   27.0160   40.4800 C   0  0  0  0  0  0  0  0  0  0  0  0
   36.2140   28.2880   40.5230 C   0  0  0  0  0  0  0  0  0  0  0  0
   35.4650   28.6060   39.4010 C   0  0  0  0  0  0  0  0  0  0  0  0
   35.2720   27.7710   38.3230 C   0  0  0  0  0  0  0  0  0  0  0  0
   35.8480   26.5270   38.3260 C   0  0  0  0  0  0  0  0  0  0  0  0
   36.5940   26.1840   39.4190 C   0  0  0  0  0  0  0  0  0  0  0  0
   34.9880   29.5880   39.3600 H   0  0  0  0  0  0  0  0  0  0  0  0
   34.6650   28.1150   37.4920 H   0  0  0  0  0  0  0  0  0  0  0  0
   35.6820   25.9050   37.4820 H   0  0  0  0  0  0  0  0  0  0  0  0
   37.2390   24.8740   39.4910 C   0  0  0  0  0  0  0  0  0  0  0  0
   36.6200   23.7210   39.9310 C   0  0  0  0  0  3  0  0  0  0  0  0
   37.2400   22.4910   39.9950 C   0  0  0  0  0  0  0  0  0  0  0  0
   36.6870   21.6170   40.3560 H   0  0  0  0  0  0  0  0  0  0  0  0
   38.5240   22.3800   39.6110 N   0  0  0  0  0  0  0  0  0  0  0  0
   39.1490   23.4870   39.1790 C   0  0  0  0  0  3  0  0  0  0  0  0
   38.5250   24.6620   39.1290 N   0  0  0  0  0  0  0  0  0  0  0  0
   38.2370   26.3010   42.5290 N   0  0  0  0  0  0  0  0  0  0  0  0
   37.5840   26.6100   41.6250 C   0  0  0  0  0  0  0  0  0  0  0  0
  1  5  1  0  0  0  0
  2  1  1  0  0  0  0
  2  3  1  0  0  0  0
  3  8  1  1  0  0  0
  3  4  1  0  0  0  0
  4 10  1  0  0  0  0
  5  4  1  0  0  0  0
  5 12  1  0  0  0  0
  6  2  1  0  0  0  0
  7  2  1  0  0  0  0
  9  4  1  0  0  0  0
 11  5  1  0  0  0  0
 13 19  1  0  0  0  0
 13 14  1  0  0  0  0
 14 20  1  0  0  0  0
 15 14  2  0  0  0  0
 15  1  1  0  0  0  0
 16 15  1  0  0  0  0
 17 18  1  0  0  0  0
 17 16  2  0  0  0  0
 18 13  2  0  0  0  0
 21 17  1  0  0  0  0
 22  3  1  0  0  0  0
 22 23  1  0  0  0  0
 24 25  1  0  0  0  0
 24 41  1  0  0  0  0
 25 22  1  0  0  0  0
 26 25  2  0  0  0  0
 27 28  2  0  0  0  0
 27 26  1  0  0  0  0
 28 29  1  0  0  0  0
 29 33  1  0  0  0  0
 29 24  2  0  0  0  0
 30 26  1  0  0  0  0
 31 27  1  0  0  0  0
 32 28  1  0  0  0  0
 33 34  1  0  0  0  0
 34 35  2  0  0  0  0
 35 36  1  0  0  0  0
 37 35  1  0  0  0  0
 38 37  2  0  0  0  0
 39 38  1  0  0  0  0
 39 33  2  0  0  0  0
 41 40  3  0  0  0  0
M  END
>  <minimizedAffinity>
-5.60223627

$$$$

 OpenBabel03242519083D

 41 44  0  0  1  0  0  0  0  0999 V2000
   39.3070   32.4860   39.5130 N   0  0  0  0  0  0  0  0  0  0  0  0
   38.9560   31.2650   40.1990 C   0  0  0  0  0  0  0  0  0  0  0  0
   37.5250   31.1500   39.7820 C   0  0  2  0  0  0  0  0  0  0  0  0
   37.0120   32.5400   40.0710 C   0  0  0  0  0  0  0  0  0  0  0  0
   38.2010   33.4070   39.7450 C   0  0  0  0  0  0  0  0  0  0  0  0
   39.5700   30.4170   39.8430 H   0  0  0  0  0  0  0  0  0  0  0  0
   38.9920   31.4340   41.2830 H   0  0  0  0  0  0  0  0  0  0  0  0
   37.3790   30.8870   38.7350 H   0  0  0  0  0  0  0  0  0  0  0  0
   36.6370   32.6790   41.0890 H   0  0  0  0  0  0  0  0  0  0  0  0
   36.2400   32.7610   39.2860 H   0  0  0  0  0  0  0  0  0  0  0  0
   38.4340   33.9810   40.6660 H   0  0  0  0  0  0  0  0  0  0  0  0
   38.0410   34.0900   38.9080 H   0  0  0  0  0  0  0  0  0  0  0  0
   42.1150   32.4830   37.0770 C   0  0  0  0  0  0  0  0  0  0  0  0
   40.9980   32.0430   37.7780 C   0  0  0  0  0  0  0  0  0  0  0  0
   40.4300   32.8420   38.7550 C   0  0  0  0  0  0  0  0  0  0  0  0
   41.0190   34.0560   38.9820 N   0  0  0  0  0  0  0  0  0  0  0  0
   42.0940   34.4870   38.3110 C   0  0  0  0  0  0  0  0  0  0  0  0
   42.6480   33.7080   37.3580 N   0  0  0  0  0  0  0  0  0  0  0  0
   42.5270   31.8270   36.3220 H   0  0  0  0  0  0  0  0  0  0  0  0
   40.5530   31.0840   37.5820 H   0  0  0  0  0  0  0  0  0  0  0  0
   42.4950   35.4620   38.5560 H   0  0  0  0  0  0  0  0  0  0  0  0
   36.7770   30.2180   40.5960 N   0  0  0  0  0  0  0  0  0  0  0  0
   35.7290   30.2830   40.6710 H   0  0  0  0  0  0  0  0  0  0  0  0
   37.4130   27.8280   40.9280 C   0  0  0  0  0  0  0  0  0  0  0  0
   37.2190   29.1260   41.3940 C   0  0  0  0  0  0  0  0  0  0  0  0
   37.5010   29.2850   42.7410 C   0  0  0  0  0  0  0  0  0  0  0  0
   37.9340   28.2800   43.5780 C   0  0  0  0  0  0  0  0  0  0  0  0
   38.1110   27.0170   43.0740 C   0  0  0  0  0  0  0  0  0  0  0  0
   37.8410   26.8280   41.7470 C   0  0  0  0  0  0  0  0  0  0  0  0
   37.3740   30.2770   43.1820 H   0  0  0  0  0  0  0  0  0  0  0  0
   38.1280   28.5090   44.6210 H   0  0  0  0  0  0  0  0  0  0  0  0
   38.4450   26.2630   43.7410 H   0  0  0  0  0  0  0  0  0  0  0  0
   38.0060   25.5080   41.1410 C   0  0  0  0  0  0  0  0  0  0  0  0
   37.0600   24.5050   41.1820 C   0  0  0  0  0  3  0  0  0  0  0  0
   37.2290   23.2630   40.6060 C   0  0  0  0  0  0  0  0  0  0  0  0
   36.4320   22.5140   40.6770 H   0  0  0  0  0  0  0  0  0  0  0  0
   38.3750   22.9880   39.9600 N   0  0  0  0  0  0  0  0  0  0  0  0
   39.3120   23.9470   39.9060 C   0  0  0  0  0  3  0  0  0  0  0  0
   39.1220   25.1370   40.4720 N   0  0  0  0  0  0  0  0  0  0  0  0
   36.8960   27.3810   38.4050 N   0  0  0  0  0  0  0  0  0  0  0  0
   37.1360   27.5810   39.5190 C   0  0  0  0  0  0  0  0  0  0  0  0
  1  5  1  0  0  0  0
  1  2  1  0  0  0  0
  2  7  1  0  0  0  0
  3  8  1  6  0  0  0
  3  4  1  0  0  0  0
  3  2  1  0  0  0  0
  3 22  1  0  0  0  0
  4  9  1  0  0  0  0
  5  4  1  0  0  0  0
  5 11  1  0  0  0  0
  6  2  1  0  0  0  0
 10  4  1  0  0  0  0
 12  5  1  0  0  0  0
 13 18  2  0  0  0  0
 13 14  1  0  0  0  0
 14 15  2  0  0  0  0
 15 16  1  0  0  0  0
 15  1  1  0  0  0  0
 17 21  1  0  0  0  0
 17 16  2  0  0  0  0
 18 17  1  0  0  0  0
 19 13  1  0  0  0  0
 20 14  1  0  0  0  0
 22 23  1  0  0  0  0
 22 25  1  0  0  0  0
 24 25  2  0  0  0  0
 24 29  1  0  0  0  0
 25 26  1  0  0  0  0
 26 30  1  0  0  0  0
 26 27  2  0  0  0  0
 27 31  1  0  0  0  0
 28 27  1  0  0  0  0
 28 32  1  0  0  0  0
 29 28  2  0  0  0  0
 33 34  1  0  0  0  0
 33 29  1  0  0  0  0
 35 36  1  0  0  0  0
 35 34  2  0  0  0  0
 37 35  1  0  0  0  0
 38 37  2  0  0  0  0
 38 39  1  0  0  0  0
 39 33  2  0  0  0  0
 40 41  3  0  0  0  0
 41 24  1  0  0  0  0
M  END
>  <minimizedAffinity>
-5.58702564

$$$$
