
 OpenBabel03252505273D

 22 23  0  0  0  0  0  0  0  0999 V2000
   46.9760   32.3570   48.3340 O   0  0  0  0  0  0  0  0  0  0  0  0
   45.9260   32.5430   47.2330 P   0  0  1  0  0  0  0  0  0  0  0  0
   44.6080   33.4090   47.7860 O   0  0  0  0  0  0  0  0  0  0  0  0
   43.8140   33.1720   47.2220 H   0  0  0  0  0  0  0  0  0  0  0  0
   46.7000   33.3140   45.9510 O   0  0  0  0  0  0  0  0  0  0  0  0
   44.4310   35.6860   44.5940 C   0  0  0  0  0  0  0  0  0  0  0  0
   44.7970   35.7950   43.2330 C   0  0  0  0  0  0  0  0  0  0  0  0
   45.8670   35.0050   42.8200 C   0  0  0  0  0  0  0  0  0  0  0  0
   46.4720   34.2040   43.7230 N   0  0  0  0  0  0  0  0  0  0  0  0
   46.0910   34.1290   45.0120 C   0  0  0  0  0  0  0  0  0  0  0  0
   45.0610   34.8780   45.4490 N   0  0  0  0  0  0  0  0  0  0  0  0
   43.6030   36.2860   44.9530 H   0  0  0  0  0  0  0  0  0  0  0  0
   44.2500   36.4670   42.5860 H   0  0  0  0  0  0  0  0  0  0  0  0
   46.1800   35.0590   41.7870 H   0  0  0  0  0  0  0  0  0  0  0  0
   45.4190   30.9780   46.8280 O   0  0  0  0  0  0  0  0  0  0  0  0
   46.4480   30.0330   46.6400 C   0  0  0  0  0  0  0  0  0  0  0  0
   47.2720   30.0530   45.5330 C   0  0  0  0  0  0  0  0  0  0  0  0
   48.2640   29.1010   45.4010 C   0  0  0  0  0  0  0  0  0  0  0  0
   48.9440   29.0550   44.5650 H   0  0  0  0  0  0  0  0  0  0  0  0
   48.4660   28.1350   46.3220 N   0  0  0  0  0  0  0  0  0  0  0  0
   47.6400   28.1340   47.4050 C   0  0  0  0  0  0  0  0  0  0  0  0
   46.6620   29.0580   47.5540 N   0  0  0  0  0  0  0  0  0  0  0  0
  2  3  1  0  0  0  0
  2  1  2  1  0  0  0
  4  3  1  0  0  0  0
  5  2  1  0  0  0  0
  6 12  1  0  0  0  0
  6 11  1  0  0  0  0
  7  6  2  0  0  0  0
  8  7  1  0  0  0  0
  8  9  2  0  0  0  0
  9 10  1  0  0  0  0
 10 11  2  0  0  0  0
 10  5  1  0  0  0  0
 13  7  1  0  0  0  0
 14  8  1  0  0  0  0
 15  2  1  0  0  0  0
 16 15  1  0  0  0  0
 16 22  1  0  0  0  0
 17 16  2  0  0  0  0
 18 17  1  0  0  0  0
 18 20  2  0  0  0  0
 19 18  1  0  0  0  0
 20 21  1  0  0  0  0
 21 22  2  0  0  0  0
M  END
>  <minimizedAffinity>
-4.34006786

>  <minimizedRMSD>
2.8057394

$$$$
