
 OpenBabel03252506203D

 31 33  0  0  0  0  0  0  0  0999 V2000
   45.7250   34.2060   41.6220 C   0  0  0  0  0  0  0  0  0  0  0  0
   46.9740   34.7190   41.2610 C   0  0  0  0  0  0  0  0  0  0  0  0
   47.9830   34.6790   42.2410 C   0  0  0  0  0  0  0  0  0  0  0  0
   47.7140   34.1620   43.4550 N   0  0  0  0  0  0  0  0  0  0  0  0
   46.4890   33.6740   43.7650 C   0  0  0  0  0  0  0  0  0  0  0  0
   45.4880   33.6950   42.8470 N   0  0  0  0  0  0  0  0  0  0  0  0
   47.1460   35.1260   40.2740 H   0  0  0  0  0  0  0  0  0  0  0  0
   48.9690   35.0770   41.9780 H   0  0  0  0  0  0  0  0  0  0  0  0
   44.6520   35.3000   45.5370 Cl  0  0  0  0  0  0  0  0  0  0  0  0
   45.4470   33.8200   45.9750 C   0  0  0  0  0  0  0  0  0  0  0  0
   46.2790   33.1310   45.0990 C   0  0  0  0  0  0  0  0  0  0  0  0
   46.9160   31.9570   45.4310 C   0  0  0  0  0  0  0  0  0  0  0  0
   46.7110   31.4560   46.6910 C   0  0  0  0  0  0  0  0  0  0  0  0
   45.9080   32.0610   47.6310 C   0  0  0  0  0  0  0  0  0  0  0  0
   45.2950   33.2470   47.2240 C   0  0  0  0  0  0  0  0  0  0  0  0
   47.5550   31.4750   44.6830 H   0  0  0  0  0  0  0  0  0  0  0  0
   47.1970   30.5350   46.9850 H   0  0  0  0  0  0  0  0  0  0  0  0
   45.7430   31.6800   48.6110 H   0  0  0  0  0  0  0  0  0  0  0  0
   44.6510   33.7430   47.9610 H   0  0  0  0  0  0  0  0  0  0  0  0
   44.6360   34.2300   40.6200 C   0  0  0  0  0  0  0  0  0  0  0  0
   43.6460   35.0860   40.8150 C   0  0  0  0  0  0  0  0  0  0  0  0
   42.5310   35.1430   39.8330 C   0  0  0  0  0  0  0  0  0  0  0  0
   42.8650   34.7760   38.8500 H   0  0  0  0  0  0  0  0  0  0  0  0
   42.0850   36.1560   39.7770 H   0  0  0  0  0  0  0  0  0  0  0  0
   41.5100   34.1570   40.3100 C   0  0  0  0  0  0  0  0  0  0  0  0
   40.6730   34.4500   41.3850 C   0  0  0  0  0  0  0  0  0  0  0  0
   39.7330   33.5080   41.8050 C   0  0  0  0  0  0  0  0  0  0  0  0
   39.0560   33.6770   42.6310 H   0  0  0  0  0  0  0  0  0  0  0  0
   39.6070   32.3030   41.1940 N   0  0  0  0  0  0  0  0  0  0  0  0
   40.4410   32.0660   40.1590 C   0  0  0  0  0  0  0  0  0  0  0  0
   41.3590   32.9500   39.7260 N   0  0  0  0  0  0  0  0  0  0  0  0
  1  6  1  0  0  0  0
  2  1  2  0  0  0  0
  2  3  1  0  0  0  0
  3  4  2  0  0  0  0
  4  5  1  0  0  0  0
  5 11  1  0  0  0  0
  6  5  2  0  0  0  0
  7  2  1  0  0  0  0
  8  3  1  0  0  0  0
  9 10  1  0  0  0  0
 10 15  1  0  0  0  0
 11 12  1  0  0  0  0
 11 10  2  0  0  0  0
 12 13  2  0  0  0  0
 13 17  1  0  0  0  0
 13 14  1  0  0  0  0
 14 18  1  0  0  0  0
 15 14  2  0  0  0  0
 15 19  1  0  0  0  0
 16 12  1  0  0  0  0
 20 21  2  0  0  0  0
 20  1  1  0  0  0  0
 22 25  1  0  0  0  0
 22 21  1  0  0  0  0
 23 22  1  0  0  0  0
 24 22  1  0  0  0  0
 25 26  1  0  0  0  0
 26 27  2  0  0  0  0
 27 28  1  0  0  0  0
 29 27  1  0  0  0  0
 30 29  2  0  0  0  0
 31 30  1  0  0  0  0
 31 25  2  0  0  0  0
M  END
>  <minimizedAffinity>
-5.63744926

>  <minimizedRMSD>
7.19015646

$$$$
