
 OpenBabel03252504343D

 38 40  0  0  0  0  0  0  0  0999 V2000
   36.5860   30.9680   39.5910 C   0  0  0  0  0  3  0  0  0  0  0  0
   37.1020   30.3410   40.6450 C   0  0  0  0  0  3  0  0  0  0  0  0
   36.4490   29.1520   41.3340 C   0  0  0  0  0  0  0  0  0  0  0  0
   35.6090   28.7510   40.7320 H   0  0  0  0  0  0  0  0  0  0  0  0
   36.0450   29.5390   42.2810 H   0  0  0  0  0  0  0  0  0  0  0  0
   37.4360   28.1940   41.4860 O   0  0  0  0  0  0  0  0  0  0  0  0
   39.3910   29.2240   42.9670 O   0  0  0  0  0  0  0  0  0  0  0  0
   38.1680   28.3370   43.0000 P   0  0  1  0  0  0  0  0  0  0  0  0
   37.0780   29.0320   44.1140 O   0  0  0  0  0  0  0  0  0  0  0  0
   36.6370   29.8340   43.7340 H   0  0  0  0  0  0  0  0  0  0  0  0
   38.5730   26.8120   43.5930 O   0  0  0  0  0  0  0  0  0  0  0  0
   39.0510   25.9720   42.6050 C   0  0  0  0  0  0  0  0  0  0  0  0
   38.3770   24.6590   42.3740 C   0  0  0  0  0  0  0  0  0  0  0  0
   39.7130   24.7070   43.0990 C   0  0  0  0  0  0  0  0  0  0  0  0
   39.4660   26.4600   41.7030 H   0  0  0  0  0  0  0  0  0  0  0  0
   37.4720   24.4100   42.9710 H   0  0  0  0  0  0  0  0  0  0  0  0
   38.4590   24.2270   41.3570 H   0  0  0  0  0  0  0  0  0  0  0  0
   39.6740   24.4590   44.1760 H   0  0  0  0  0  0  0  0  0  0  0  0
   40.6270   24.3620   42.5720 H   0  0  0  0  0  0  0  0  0  0  0  0
   37.3110   32.0340   39.0920 O   0  0  0  0  0  0  0  0  0  0  0  0
   37.3320   33.3100   39.5420 C   0  0  0  0  0  0  0  0  0  0  0  0
   36.9670   34.1190   38.8670 H   0  0  0  0  0  0  0  0  0  0  0  0
   36.6550   33.4040   40.4430 H   0  0  0  0  0  0  0  0  0  0  0  0
   39.6810   32.8140   39.8980 C   0  0  0  0  0  0  0  0  0  0  0  0
   38.6810   33.7900   39.9770 C   0  0  0  0  0  0  0  0  0  0  0  0
   39.0050   35.0300   40.3960 C   0  0  0  0  0  0  0  0  0  0  0  0
   40.2860   35.2350   40.7090 N   0  0  0  0  0  0  0  0  0  0  0  0
   41.2550   34.3270   40.6410 C   0  0  0  0  0  0  0  0  0  0  0  0
   40.9610   33.0300   40.2130 N   0  0  0  0  0  0  0  0  0  0  0  0
   39.4880   31.8010   39.5710 H   0  0  0  0  0  0  0  0  0  0  0  0
   38.2150   35.7490   40.4450 H   0  0  0  0  0  0  0  0  0  0  0  0
   42.6440   34.6100   40.9960 C   0  0  0  0  0  0  0  0  0  0  0  0
   43.6220   34.0220   40.2200 C   0  0  0  0  0  3  0  0  0  0  0  0
   44.9420   34.3110   40.5840 C   0  0  0  0  0  0  0  0  0  0  0  0
   45.7010   33.8440   39.9680 H   0  0  0  0  0  0  0  0  0  0  0  0
   45.2490   35.1090   41.6210 N   0  0  0  0  0  0  0  0  0  0  0  0
   44.2620   35.6600   42.3490 C   0  0  0  0  0  3  0  0  0  0  0  0
   42.9580   35.4080   42.0330 N   0  0  0  0  0  0  0  0  0  0  0  0
  1  2  2  0  0  0  0
  2  3  1  0  0  0  0
  3  6  1  0  0  0  0
  3  5  1  0  0  0  0
  4  3  1  0  0  0  0
  6  8  1  0  0  0  0
  8  7  2  6  0  0  0
  8 11  1  0  0  0  0
  8  9  1  0  0  0  0
 10  9  1  0  0  0  0
 12 14  1  0  0  0  0
 12 11  1  0  0  0  0
 13 12  1  0  0  0  0
 13 16  1  0  0  0  0
 13 14  1  0  0  0  0
 14 18  1  0  0  0  0
 15 12  1  0  0  0  0
 17 13  1  0  0  0  0
 19 14  1  0  0  0  0
 20 21  1  0  0  0  0
 20  1  1  0  0  0  0
 21 25  1  0  0  0  0
 21 23  1  0  0  0  0
 22 21  1  0  0  0  0
 24 25  2  0  0  0  0
 24 29  1  0  0  0  0
 25 26  1  0  0  0  0
 26 31  1  0  0  0  0
 26 27  2  0  0  0  0
 28 27  1  0  0  0  0
 28 32  1  0  0  0  0
 29 28  2  0  0  0  0
 30 24  1  0  0  0  0
 32 38  1  0  0  0  0
 33 34  1  0  0  0  0
 33 32  2  0  0  0  0
 34 36  2  0  0  0  0
 35 34  1  0  0  0  0
 36 37  1  0  0  0  0
 38 37  2  0  0  0  0
M  END
>  <minimizedAffinity>
-5.49547052

$$$$

 OpenBabel03252504343D

 38 40  0  0  0  0  0  0  0  0999 V2000
   36.3990   26.9100   39.3850 C   0  0  0  0  0  3  0  0  0  0  0  0
   36.4230   25.6240   39.0440 C   0  0  0  0  0  3  0  0  0  0  0  0
   37.3470   24.5920   39.6740 C   0  0  0  0  0  0  0  0  0  0  0  0
   37.8380   23.9690   38.8990 H   0  0  0  0  0  0  0  0  0  0  0  0
   36.7000   23.9430   40.2830 H   0  0  0  0  0  0  0  0  0  0  0  0
   38.2910   25.2980   40.3980 O   0  0  0  0  0  0  0  0  0  0  0  0
   36.6880   24.6130   42.4070 O   0  0  0  0  0  0  0  0  0  0  0  0
   38.1020   25.0080   42.0500 P   0  0  1  0  0  0  0  0  0  0  0  0
   39.1170   23.7280   42.5400 O   0  0  0  0  0  0  0  0  0  0  0  0
   39.0460   22.9560   41.9230 H   0  0  0  0  0  0  0  0  0  0  0  0
   38.5640   26.3690   42.9320 O   0  0  0  0  0  0  0  0  0  0  0  0
   37.7110   27.4390   42.7370 C   0  0  0  0  0  0  0  0  0  0  0  0
   37.9930   28.7340   43.4270 C   0  0  0  0  0  0  0  0  0  0  0  0
   36.8830   27.8290   43.9390 C   0  0  0  0  0  0  0  0  0  0  0  0
   37.2490   27.5230   41.7350 H   0  0  0  0  0  0  0  0  0  0  0  0
   38.9160   28.8220   44.0430 H   0  0  0  0  0  0  0  0  0  0  0  0
   37.6060   29.6520   42.9430 H   0  0  0  0  0  0  0  0  0  0  0  0
   37.0800   27.3470   44.9140 H   0  0  0  0  0  0  0  0  0  0  0  0
   35.8260   28.1200   43.7650 H   0  0  0  0  0  0  0  0  0  0  0  0
   35.4980   27.7110   38.7070 O   0  0  0  0  0  0  0  0  0  0  0  0
   34.9240   28.8600   39.1310 C   0  0  0  0  0  0  0  0  0  0  0  0
   34.1580   29.3440   38.4810 H   0  0  0  0  0  0  0  0  0  0  0  0
   34.3600   28.6690   40.0910 H   0  0  0  0  0  0  0  0  0  0  0  0
   36.5670   30.4380   38.2920 C   0  0  0  0  0  0  0  0  0  0  0  0
   35.8920   29.9640   39.4220 C   0  0  0  0  0  0  0  0  0  0  0  0
   36.1400   30.5290   40.6210 C   0  0  0  0  0  0  0  0  0  0  0  0
   37.0310   31.5230   40.6360 N   0  0  0  0  0  0  0  0  0  0  0  0
   37.6850   31.9930   39.5780 C   0  0  0  0  0  0  0  0  0  0  0  0
   37.4570   31.4340   38.3180 N   0  0  0  0  0  0  0  0  0  0  0  0
   36.4150   30.0280   37.3030 H   0  0  0  0  0  0  0  0  0  0  0  0
   35.6070   30.1400   41.4630 H   0  0  0  0  0  0  0  0  0  0  0  0
   38.6510   33.0860   39.6530 C   0  0  0  0  0  0  0  0  0  0  0  0
   38.2010   34.2870   40.1630 C   0  0  0  0  0  3  0  0  0  0  0  0
   39.1490   35.3150   40.2230 C   0  0  0  0  0  0  0  0  0  0  0  0
   38.7840   36.2540   40.6240 H   0  0  0  0  0  0  0  0  0  0  0  0
   40.4190   35.1530   39.8140 N   0  0  0  0  0  0  0  0  0  0  0  0
   40.8130   33.9640   39.3250 C   0  0  0  0  0  3  0  0  0  0  0  0
   39.9250   32.9310   39.2460 N   0  0  0  0  0  0  0  0  0  0  0  0
  2  1  2  0  0  0  0
  2  3  1  0  0  0  0
  3  5  1  0  0  0  0
  3  6  1  0  0  0  0
  4  3  1  0  0  0  0
  6  8  1  0  0  0  0
  8  7  2  1  0  0  0
  8  9  1  0  0  0  0
  8 11  1  0  0  0  0
 10  9  1  0  0  0  0
 12 11  1  0  0  0  0
 12 13  1  0  0  0  0
 12 14  1  0  0  0  0
 13 14  1  0  0  0  0
 13 16  1  0  0  0  0
 14 18  1  0  0  0  0
 15 12  1  0  0  0  0
 17 13  1  0  0  0  0
 19 14  1  0  0  0  0
 20 21  1  0  0  0  0
 20  1  1  0  0  0  0
 21 25  1  0  0  0  0
 21 23  1  0  0  0  0
 22 21  1  0  0  0  0
 24 29  2  0  0  0  0
 24 25  1  0  0  0  0
 25 26  2  0  0  0  0
 26 27  1  0  0  0  0
 26 31  1  0  0  0  0
 28 32  1  0  0  0  0
 28 27  2  0  0  0  0
 29 28  1  0  0  0  0
 30 24  1  0  0  0  0
 32 33  1  0  0  0  0
 33 34  2  0  0  0  0
 34 35  1  0  0  0  0
 36 34  1  0  0  0  0
 37 36  2  0  0  0  0
 38 37  1  0  0  0  0
 38 32  2  0  0  0  0
M  END
>  <minimizedAffinity>
-5.36497498

$$$$

 OpenBabel03252504343D

 38 40  0  0  0  0  0  0  0  0999 V2000
   36.1580   28.2000   39.4680 C   0  0  0  0  0  3  0  0  0  0  0  0
   37.1310   27.7330   40.2460 C   0  0  0  0  0  3  0  0  0  0  0  0
   36.8990   26.8700   41.4770 C   0  0  0  0  0  0  0  0  0  0  0  0
   37.8560   26.4750   41.8750 H   0  0  0  0  0  0  0  0  0  0  0  0
   36.2870   26.0210   41.1370 H   0  0  0  0  0  0  0  0  0  0  0  0
   36.2810   27.6790   42.4150 O   0  0  0  0  0  0  0  0  0  0  0  0
   38.0990   29.5270   43.0110 O   0  0  0  0  0  0  0  0  0  0  0  0
   37.4140   28.2770   43.5140 P   0  0  1  0  0  0  0  0  0  0  0  0
   36.6460   28.6840   44.9820 O   0  0  0  0  0  0  0  0  0  0  0  0
   35.8270   29.2180   44.8230 H   0  0  0  0  0  0  0  0  0  0  0  0
   38.5590   27.0910   43.8690 O   0  0  0  0  0  0  0  0  0  0  0  0
   39.8390   27.4710   43.5140 C   0  0  0  0  0  0  0  0  0  0  0  0
   40.5670   26.6960   42.4640 C   0  0  0  0  0  0  0  0  0  0  0  0
   40.9330   26.5150   43.9290 C   0  0  0  0  0  0  0  0  0  0  0  0
   40.0560   28.5560   43.5420 H   0  0  0  0  0  0  0  0  0  0  0  0
   40.0390   25.8600   41.9550 H   0  0  0  0  0  0  0  0  0  0  0  0
   41.3460   27.2380   41.8930 H   0  0  0  0  0  0  0  0  0  0  0  0
   40.6620   25.5370   44.3650 H   0  0  0  0  0  0  0  0  0  0  0  0
   41.8830   26.9500   44.3060 H   0  0  0  0  0  0  0  0  0  0  0  0
   36.5470   28.9730   38.3900 O   0  0  0  0  0  0  0  0  0  0  0  0
   36.3150   30.2900   38.1840 C   0  0  0  0  0  0  0  0  0  0  0  0
   36.2800   30.6670   37.1350 H   0  0  0  0  0  0  0  0  0  0  0  0
   35.2950   30.5610   38.5870 H   0  0  0  0  0  0  0  0  0  0  0  0
   38.6010   31.0830   38.3800 C   0  0  0  0  0  0  0  0  0  0  0  0
   37.2910   31.2030   38.8570 C   0  0  0  0  0  0  0  0  0  0  0  0
   37.0240   32.1050   39.8230 C   0  0  0  0  0  0  0  0  0  0  0  0
   38.0560   32.8320   40.2580 N   0  0  0  0  0  0  0  0  0  0  0  0
   39.3080   32.7390   39.8210 C   0  0  0  0  0  0  0  0  0  0  0  0
   39.6260   31.8160   38.8220 N   0  0  0  0  0  0  0  0  0  0  0  0
   38.8820   30.3790   37.6080 H   0  0  0  0  0  0  0  0  0  0  0  0
   36.0130   32.1680   40.1650 H   0  0  0  0  0  0  0  0  0  0  0  0
   40.4000   33.5640   40.3340 C   0  0  0  0  0  0  0  0  0  0  0  0
   41.5290   32.9050   40.7760 C   0  0  0  0  0  3  0  0  0  0  0  0
   42.5570   33.7220   41.2610 C   0  0  0  0  0  0  0  0  0  0  0  0
   43.4390   33.1940   41.6050 H   0  0  0  0  0  0  0  0  0  0  0  0
   42.4610   35.0620   41.2990 N   0  0  0  0  0  0  0  0  0  0  0  0
   41.3400   35.6600   40.8570 C   0  0  0  0  0  3  0  0  0  0  0  0
   40.3100   34.9060   40.3740 N   0  0  0  0  0  0  0  0  0  0  0  0
  1  2  2  0  0  0  0
  2  3  1  0  0  0  0
  3  4  1  0  0  0  0
  3  6  1  0  0  0  0
  5  3  1  0  0  0  0
  6  8  1  0  0  0  0
  8  7  2  6  0  0  0
  8 11  1  0  0  0  0
  8  9  1  0  0  0  0
 10  9  1  0  0  0  0
 12 15  1  0  0  0  0
 12 11  1  0  0  0  0
 12 14  1  0  0  0  0
 13 12  1  0  0  0  0
 13 14  1  0  0  0  0
 14 19  1  0  0  0  0
 14 18  1  0  0  0  0
 16 13  1  0  0  0  0
 17 13  1  0  0  0  0
 20  1  1  0  0  0  0
 21 20  1  0  0  0  0
 21 23  1  0  0  0  0
 21 25  1  0  0  0  0
 22 21  1  0  0  0  0
 24 29  2  0  0  0  0
 24 25  1  0  0  0  0
 25 26  2  0  0  0  0
 26 31  1  0  0  0  0
 26 27  1  0  0  0  0
 28 27  2  0  0  0  0
 28 32  1  0  0  0  0
 29 28  1  0  0  0  0
 30 24  1  0  0  0  0
 32 38  2  0  0  0  0
 32 33  1  0  0  0  0
 33 34  2  0  0  0  0
 34 36  1  0  0  0  0
 34 35  1  0  0  0  0
 37 36  2  0  0  0  0
 38 37  1  0  0  0  0
M  END
>  <minimizedAffinity>
-5.17431736

$$$$

 OpenBabel03252504343D

 38 40  0  0  0  0  0  0  0  0999 V2000
   36.5410   31.1860   40.5050 C   0  0  0  0  0  3  0  0  0  0  0  0
   36.2750   29.9530   40.0810 C   0  0  0  0  0  3  0  0  0  0  0  0
   35.8240   28.8170   40.9860 C   0  0  0  0  0  0  0  0  0  0  0  0
   34.7810   28.5150   40.7610 H   0  0  0  0  0  0  0  0  0  0  0  0
   35.8550   29.2200   42.0100 H   0  0  0  0  0  0  0  0  0  0  0  0
   36.6930   27.7650   40.7610 O   0  0  0  0  0  0  0  0  0  0  0  0
   36.3910   27.6050   43.3990 O   0  0  0  0  0  0  0  0  0  0  0  0
   37.1920   27.0900   42.2260 P   0  0  1  0  0  0  0  0  0  0  0  0
   36.9920   25.3970   42.1890 O   0  0  0  0  0  0  0  0  0  0  0  0
   36.0970   25.1470   41.8440 H   0  0  0  0  0  0  0  0  0  0  0  0
   38.8340   27.3880   42.4700 O   0  0  0  0  0  0  0  0  0  0  0  0
   39.2390   28.5910   41.9230 C   0  0  0  0  0  0  0  0  0  0  0  0
   40.4150   29.3010   42.5100 C   0  0  0  0  0  0  0  0  0  0  0  0
   39.0080   29.8040   42.7940 C   0  0  0  0  0  0  0  0  0  0  0  0
   39.1120   28.7020   40.8290 H   0  0  0  0  0  0  0  0  0  0  0  0
   40.9710   28.8170   43.3430 H   0  0  0  0  0  0  0  0  0  0  0  0
   40.9800   29.9740   41.8350 H   0  0  0  0  0  0  0  0  0  0  0  0
   38.6600   29.6660   43.8330 H   0  0  0  0  0  0  0  0  0  0  0  0
   38.6570   30.7340   42.3000 H   0  0  0  0  0  0  0  0  0  0  0  0
   36.9430   32.0960   39.5450 O   0  0  0  0  0  0  0  0  0  0  0  0
   37.3400   33.3770   39.7260 C   0  0  0  0  0  0  0  0  0  0  0  0
   37.1630   34.1100   38.9050 H   0  0  0  0  0  0  0  0  0  0  0  0
   36.7760   33.8260   40.5970 H   0  0  0  0  0  0  0  0  0  0  0  0
   39.1810   34.8580   40.2820 C   0  0  0  0  0  0  0  0  0  0  0  0
   38.7950   33.5350   40.0390 C   0  0  0  0  0  0  0  0  0  0  0  0
   39.7160   32.5540   40.1270 C   0  0  0  0  0  0  0  0  0  0  0  0
   40.9560   32.9320   40.4470 N   0  0  0  0  0  0  0  0  0  0  0  0
   41.3490   34.1800   40.6830 C   0  0  0  0  0  0  0  0  0  0  0  0
   40.4250   35.2250   40.6020 N   0  0  0  0  0  0  0  0  0  0  0  0
   38.4920   35.6900   40.2270 H   0  0  0  0  0  0  0  0  0  0  0  0
   39.3850   31.5560   39.9330 H   0  0  0  0  0  0  0  0  0  0  0  0
   42.7230   34.5350   41.0320 C   0  0  0  0  0  0  0  0  0  0  0  0
   43.7250   34.0220   40.2340 C   0  0  0  0  0  3  0  0  0  0  0  0
   45.0300   34.3800   40.5930 C   0  0  0  0  0  0  0  0  0  0  0  0
   45.8090   33.9710   39.9600 H   0  0  0  0  0  0  0  0  0  0  0  0
   45.3000   35.1720   41.6440 N   0  0  0  0  0  0  0  0  0  0  0  0
   44.2900   35.6490   42.3930 C   0  0  0  0  0  3  0  0  0  0  0  0
   43.0000   35.3290   42.0830 N   0  0  0  0  0  0  0  0  0  0  0  0
  2  1  2  0  0  0  0
  2  3  1  0  0  0  0
  3  5  1  0  0  0  0
  4  3  1  0  0  0  0
  6  3  1  0  0  0  0
  6  8  1  0  0  0  0
  8 11  1  0  0  0  0
  8  7  2  1  0  0  0
  9  8  1  0  0  0  0
 10  9  1  0  0  0  0
 12 11  1  0  0  0  0
 12 13  1  0  0  0  0
 12 14  1  0  0  0  0
 13 14  1  0  0  0  0
 13 16  1  0  0  0  0
 14 18  1  0  0  0  0
 15 12  1  0  0  0  0
 17 13  1  0  0  0  0
 19 14  1  0  0  0  0
 20 21  1  0  0  0  0
 20  1  1  0  0  0  0
 21 25  1  0  0  0  0
 21 23  1  0  0  0  0
 22 21  1  0  0  0  0
 24 29  1  0  0  0  0
 25 26  1  0  0  0  0
 25 24  2  0  0  0  0
 26 27  2  0  0  0  0
 27 28  1  0  0  0  0
 28 32  1  0  0  0  0
 29 28  2  0  0  0  0
 30 24  1  0  0  0  0
 31 26  1  0  0  0  0
 32 38  1  0  0  0  0
 33 34  1  0  0  0  0
 33 32  2  0  0  0  0
 34 36  2  0  0  0  0
 35 34  1  0  0  0  0
 36 37  1  0  0  0  0
 38 37  2  0  0  0  0
M  END
>  <minimizedAffinity>
-5.15888166

$$$$

 OpenBabel03252504343D

 38 40  0  0  0  0  0  0  0  0999 V2000
   37.0510   31.3330   38.8110 C   0  0  0  0  0  3  0  0  0  0  0  0
   37.7380   30.5300   38.0030 C   0  0  0  0  0  3  0  0  0  0  0  0
   37.4990   29.0320   37.8820 C   0  0  0  0  0  0  0  0  0  0  0  0
   37.6840   28.6790   36.8480 H   0  0  0  0  0  0  0  0  0  0  0  0
   36.4350   28.8790   38.1170 H   0  0  0  0  0  0  0  0  0  0  0  0
   38.3710   28.4210   38.7660 O   0  0  0  0  0  0  0  0  0  0  0  0
   36.0920   27.2730   39.5200 O   0  0  0  0  0  0  0  0  0  0  0  0
   37.5140   27.5670   39.9430 P   0  0  1  0  0  0  0  0  0  0  0  0
   38.2660   26.0660   40.2410 O   0  0  0  0  0  0  0  0  0  0  0  0
   38.4850   25.5980   39.3960 H   0  0  0  0  0  0  0  0  0  0  0  0
   37.5210   28.4200   41.3970 O   0  0  0  0  0  0  0  0  0  0  0  0
   37.6470   27.5890   42.4950 C   0  0  0  0  0  0  0  0  0  0  0  0
   36.4380   27.2720   43.3130 C   0  0  0  0  0  0  0  0  0  0  0  0
   37.4670   28.2620   43.8360 C   0  0  0  0  0  0  0  0  0  0  0  0
   38.3950   26.7770   42.4140 H   0  0  0  0  0  0  0  0  0  0  0  0
   35.4520   27.6720   42.9880 H   0  0  0  0  0  0  0  0  0  0  0  0
   36.4480   26.3130   43.8680 H   0  0  0  0  0  0  0  0  0  0  0  0
   37.1310   29.3140   43.8740 H   0  0  0  0  0  0  0  0  0  0  0  0
   38.1410   27.9540   44.6620 H   0  0  0  0  0  0  0  0  0  0  0  0
   37.4030   32.6700   38.7970 O   0  0  0  0  0  0  0  0  0  0  0  0
   37.4980   33.5160   39.8490 C   0  0  0  0  0  0  0  0  0  0  0  0
   36.9120   34.4630   39.8250 H   0  0  0  0  0  0  0  0  0  0  0  0
   37.1180   33.0030   40.7820 H   0  0  0  0  0  0  0  0  0  0  0  0
   39.7570   32.9280   40.5170 C   0  0  0  0  0  0  0  0  0  0  0  0
   38.8920   33.9670   40.1550 C   0  0  0  0  0  0  0  0  0  0  0  0
   39.3690   35.2270   40.0900 C   0  0  0  0  0  0  0  0  0  0  0  0
   40.6610   35.3880   40.3830 N   0  0  0  0  0  0  0  0  0  0  0  0
   41.5040   34.4190   40.7280 C   0  0  0  0  0  0  0  0  0  0  0  0
   41.0490   33.1010   40.8080 N   0  0  0  0  0  0  0  0  0  0  0  0
   39.4380   31.8970   40.5880 H   0  0  0  0  0  0  0  0  0  0  0  0
   38.6790   35.9950   39.8110 H   0  0  0  0  0  0  0  0  0  0  0  0
   42.9130   34.6550   41.0380 C   0  0  0  0  0  0  0  0  0  0  0  0
   43.1900   35.4400   42.1390 C   0  0  0  0  0  3  0  0  0  0  0  0
   44.5480   35.6470   42.4090 C   0  0  0  0  0  0  0  0  0  0  0  0
   44.7540   36.2650   43.2760 H   0  0  0  0  0  0  0  0  0  0  0  0
   45.5260   35.1210   41.6530 N   0  0  0  0  0  0  0  0  0  0  0  0
   45.2070   34.3610   40.5900 C   0  0  0  0  0  3  0  0  0  0  0  0
   43.8970   34.1300   40.2840 N   0  0  0  0  0  0  0  0  0  0  0  0
  2  1  2  0  0  0  0
  3  2  1  0  0  0  0
  3  5  1  0  0  0  0
  3  6  1  0  0  0  0
  4  3  1  0  0  0  0
  6  8  1  0  0  0  0
  8  7  2  6  0  0  0
  8  9  1  0  0  0  0
  8 11  1  0  0  0  0
 10  9  1  0  0  0  0
 11 12  1  0  0  0  0
 12 13  1  0  0  0  0
 12 14  1  0  0  0  0
 13 14  1  0  0  0  0
 13 17  1  0  0  0  0
 14 18  1  0  0  0  0
 14 19  1  0  0  0  0
 15 12  1  0  0  0  0
 16 13  1  0  0  0  0
 20  1  1  0  0  0  0
 20 21  1  0  0  0  0
 21 25  1  0  0  0  0
 21 23  1  0  0  0  0
 22 21  1  0  0  0  0
 24 30  1  0  0  0  0
 24 29  1  0  0  0  0
 25 24  2  0  0  0  0
 26 25  1  0  0  0  0
 26 27  2  0  0  0  0
 27 28  1  0  0  0  0
 28 29  2  0  0  0  0
 28 32  1  0  0  0  0
 31 26  1  0  0  0  0
 32 33  1  0  0  0  0
 33 34  2  0  0  0  0
 34 35  1  0  0  0  0
 36 34  1  0  0  0  0
 37 36  2  0  0  0  0
 38 37  1  0  0  0  0
 38 32  2  0  0  0  0
M  END
>  <minimizedAffinity>
-5.05985832

$$$$

 OpenBabel03252504343D

 38 40  0  0  0  0  0  0  0  0999 V2000
   39.8960   33.1130   40.6270 C   0  0  0  0  0  3  0  0  0  0  0  0
   39.9860   34.1860   39.8460 C   0  0  0  0  0  3  0  0  0  0  0  0
   41.2860   34.6940   39.2410 C   0  0  0  0  0  0  0  0  0  0  0  0
   41.7310   35.4970   39.8630 H   0  0  0  0  0  0  0  0  0  0  0  0
   41.0140   35.1230   38.2640 H   0  0  0  0  0  0  0  0  0  0  0  0
   42.1390   33.6080   39.1690 O   0  0  0  0  0  0  0  0  0  0  0  0
   41.0690   32.4630   37.0190 O   0  0  0  0  0  0  0  0  0  0  0  0
   42.3210   33.1070   37.5670 P   0  0  1  0  0  0  0  0  0  0  0  0
   42.6710   34.4470   36.5710 O   0  0  0  0  0  0  0  0  0  0  0  0
   42.0550   35.2020   36.7540 H   0  0  0  0  0  0  0  0  0  0  0  0
   43.6240   32.0440   37.4380 O   0  0  0  0  0  0  0  0  0  0  0  0
   44.5590   32.2320   38.4390 C   0  0  0  0  0  0  0  0  0  0  0  0
   45.6610   33.2190   38.2330 C   0  0  0  0  0  0  0  0  0  0  0  0
   45.9490   31.7290   38.1240 C   0  0  0  0  0  0  0  0  0  0  0  0
   44.1920   32.1360   39.4790 H   0  0  0  0  0  0  0  0  0  0  0  0
   45.6740   33.8190   37.2960 H   0  0  0  0  0  0  0  0  0  0  0  0
   46.1020   33.6730   39.1420 H   0  0  0  0  0  0  0  0  0  0  0  0
   46.1760   31.3660   37.1060 H   0  0  0  0  0  0  0  0  0  0  0  0
   46.5120   31.2270   38.9380 H   0  0  0  0  0  0  0  0  0  0  0  0
   38.6350   32.7940   41.0950 O   0  0  0  0  0  0  0  0  0  0  0  0
   37.6010   32.2620   40.4030 C   0  0  0  0  0  0  0  0  0  0  0  0
   36.5630   32.5580   40.6830 H   0  0  0  0  0  0  0  0  0  0  0  0
   37.6710   32.5730   39.3190 H   0  0  0  0  0  0  0  0  0  0  0  0
   36.5780   30.2300   41.2530 C   0  0  0  0  0  0  0  0  0  0  0  0
   37.5580   30.7660   40.4100 C   0  0  0  0  0  0  0  0  0  0  0  0
   38.3320   29.9290   39.6880 C   0  0  0  0  0  0  0  0  0  0  0  0
   38.0950   28.6240   39.8380 N   0  0  0  0  0  0  0  0  0  0  0  0
   37.1710   28.0900   40.6310 C   0  0  0  0  0  0  0  0  0  0  0  0
   36.3490   28.9220   41.3950 N   0  0  0  0  0  0  0  0  0  0  0  0
   35.9260   30.8460   41.8590 H   0  0  0  0  0  0  0  0  0  0  0  0
   39.0710   30.3730   39.0560 H   0  0  0  0  0  0  0  0  0  0  0  0
   36.9550   26.6500   40.7540 C   0  0  0  0  0  0  0  0  0  0  0  0
   37.1790   26.0870   41.9940 C   0  0  0  0  0  3  0  0  0  0  0  0
   36.9640   24.7060   42.0800 C   0  0  0  0  0  0  0  0  0  0  0  0
   37.1430   24.2740   43.0590 H   0  0  0  0  0  0  0  0  0  0  0  0
   36.5650   23.9680   41.0310 N   0  0  0  0  0  0  0  0  0  0  0  0
   36.3600   24.5620   39.8420 C   0  0  0  0  0  3  0  0  0  0  0  0
   36.5560   25.9050   39.7070 N   0  0  0  0  0  0  0  0  0  0  0  0
  1 20  1  0  0  0  0
  2  1  2  0  0  0  0
  3  2  1  0  0  0  0
  3  4  1  0  0  0  0
  5  3  1  0  0  0  0
  6  3  1  0  0  0  0
  8  7  2  6  0  0  0
  8  6  1  0  0  0  0
  9 10  1  0  0  0  0
  9  8  1  0  0  0  0
 11  8  1  0  0  0  0
 11 12  1  0  0  0  0
 12 15  1  0  0  0  0
 13 12  1  0  0  0  0
 13 17  1  0  0  0  0
 14 13  1  0  0  0  0
 14 12  1  0  0  0  0
 14 19  1  0  0  0  0
 16 13  1  0  0  0  0
 18 14  1  0  0  0  0
 21 25  1  0  0  0  0
 21 22  1  0  0  0  0
 21 20  1  0  0  0  0
 23 21  1  0  0  0  0
 24 29  1  0  0  0  0
 24 30  1  0  0  0  0
 25 24  2  0  0  0  0
 26 27  2  0  0  0  0
 26 25  1  0  0  0  0
 27 28  1  0  0  0  0
 28 32  1  0  0  0  0
 28 29  2  0  0  0  0
 31 26  1  0  0  0  0
 32 33  1  0  0  0  0
 33 34  2  0  0  0  0
 34 35  1  0  0  0  0
 36 34  1  0  0  0  0
 37 36  2  0  0  0  0
 38 37  1  0  0  0  0
 38 32  2  0  0  0  0
M  END
>  <minimizedAffinity>
-5.04657221

$$$$

 OpenBabel03252504343D

 38 40  0  0  0  0  0  0  0  0999 V2000
   36.2930   31.0110   40.3740 C   0  0  0  0  0  3  0  0  0  0  0  0
   36.9450   31.6440   39.4030 C   0  0  0  0  0  3  0  0  0  0  0  0
   37.5500   33.0330   39.5450 C   0  0  0  0  0  0  0  0  0  0  0  0
   37.4440   33.4110   40.5820 H   0  0  0  0  0  0  0  0  0  0  0  0
   36.9670   33.6840   38.8760 H   0  0  0  0  0  0  0  0  0  0  0  0
   38.8860   32.9170   39.2060 O   0  0  0  0  0  0  0  0  0  0  0  0
   40.6260   34.8800   39.6480 O   0  0  0  0  0  0  0  0  0  0  0  0
   39.8480   33.7630   40.3050 P   0  0  1  0  0  0  0  0  0  0  0  0
   38.8730   34.4760   41.5090 O   0  0  0  0  0  0  0  0  0  0  0  0
   38.0980   34.9480   41.1120 H   0  0  0  0  0  0  0  0  0  0  0  0
   40.9020   32.7040   41.0870 O   0  0  0  0  0  0  0  0  0  0  0  0
   40.4370   31.4030   41.0870 C   0  0  0  0  0  0  0  0  0  0  0  0
   39.5290   30.9510   42.1840 C   0  0  0  0  0  0  0  0  0  0  0  0
   40.9880   30.5220   42.1840 C   0  0  0  0  0  0  0  0  0  0  0  0
   40.2500   30.9470   40.0960 H   0  0  0  0  0  0  0  0  0  0  0  0
   39.2060   31.6910   42.9500 H   0  0  0  0  0  0  0  0  0  0  0  0
   38.8380   30.1170   41.9510 H   0  0  0  0  0  0  0  0  0  0  0  0
   41.6110   30.9710   42.9780 H   0  0  0  0  0  0  0  0  0  0  0  0
   41.2420   29.4730   41.9250 H   0  0  0  0  0  0  0  0  0  0  0  0
   35.8040   29.7530   40.0710 O   0  0  0  0  0  0  0  0  0  0  0  0
   35.5920   28.7170   40.9150 C   0  0  0  0  0  0  0  0  0  0  0  0
   34.8840   28.8590   41.7640 H   0  0  0  0  0  0  0  0  0  0  0  0
   35.1390   27.8530   40.3450 H   0  0  0  0  0  0  0  0  0  0  0  0
   37.7590   27.6500   40.6700 C   0  0  0  0  0  0  0  0  0  0  0  0
   36.8300   28.1880   41.5680 C   0  0  0  0  0  0  0  0  0  0  0  0
   37.1240   28.2070   42.8840 C   0  0  0  0  0  0  0  0  0  0  0  0
   38.3080   27.7000   43.2350 N   0  0  0  0  0  0  0  0  0  0  0  0
   39.2070   27.1840   42.4030 C   0  0  0  0  0  0  0  0  0  0  0  0
   38.9410   27.1450   41.0320 N   0  0  0  0  0  0  0  0  0  0  0  0
   37.5840   27.6040   39.6030 H   0  0  0  0  0  0  0  0  0  0  0  0
   36.3900   28.6240   43.5410 H   0  0  0  0  0  0  0  0  0  0  0  0
   40.4910   26.6420   42.8450 C   0  0  0  0  0  0  0  0  0  0  0  0
   40.9500   27.0490   44.0810 C   0  0  0  0  0  3  0  0  0  0  0  0
   42.1820   26.5130   44.4770 C   0  0  0  0  0  0  0  0  0  0  0  0
   42.5330   26.8390   45.4490 H   0  0  0  0  0  0  0  0  0  0  0  0
   42.8790   25.6570   43.7100 N   0  0  0  0  0  0  0  0  0  0  0  0
   42.3900   25.2890   42.5130 C   0  0  0  0  0  3  0  0  0  0  0  0
   41.1930   25.7840   42.0820 N   0  0  0  0  0  0  0  0  0  0  0  0
  2  3  1  0  0  0  0
  2  1  2  0  0  0  0
  3  4  1  0  0  0  0
  5  3  1  0  0  0  0
  6  3  1  0  0  0  0
  6  8  1  0  0  0  0
  8  7  2  6  0  0  0
  8 11  1  0  0  0  0
  8  9  1  0  0  0  0
 10  9  1  0  0  0  0
 11 12  1  0  0  0  0
 12 14  1  0  0  0  0
 12 13  1  0  0  0  0
 13 16  1  0  0  0  0
 14 13  1  0  0  0  0
 14 18  1  0  0  0  0
 15 12  1  0  0  0  0
 17 13  1  0  0  0  0
 19 14  1  0  0  0  0
 20  1  1  0  0  0  0
 20 21  1  0  0  0  0
 21 25  1  0  0  0  0
 21 22  1  0  0  0  0
 23 21  1  0  0  0  0
 24 29  2  0  0  0  0
 24 25  1  0  0  0  0
 25 26  2  0  0  0  0
 26 27  1  0  0  0  0
 26 31  1  0  0  0  0
 28 32  1  0  0  0  0
 28 27  2  0  0  0  0
 29 28  1  0  0  0  0
 30 24  1  0  0  0  0
 32 33  1  0  0  0  0
 33 34  2  0  0  0  0
 34 35  1  0  0  0  0
 36 34  1  0  0  0  0
 37 36  2  0  0  0  0
 38 37  1  0  0  0  0
 38 32  2  0  0  0  0
M  END
>  <minimizedAffinity>
-5.00778103

$$$$

 OpenBabel03252504343D

 38 40  0  0  0  0  0  0  0  0999 V2000
   36.2010   27.8800   40.5140 C   0  0  0  0  0  3  0  0  0  0  0  0
   36.3250   28.1070   41.8190 C   0  0  0  0  0  3  0  0  0  0  0  0
   37.0630   27.1870   42.7790 C   0  0  0  0  0  0  0  0  0  0  0  0
   37.0770   26.1440   42.4030 H   0  0  0  0  0  0  0  0  0  0  0  0
   36.4880   27.2100   43.7180 H   0  0  0  0  0  0  0  0  0  0  0  0
   38.3500   27.6810   42.8870 O   0  0  0  0  0  0  0  0  0  0  0  0
   40.5930   26.6140   41.9330 O   0  0  0  0  0  0  0  0  0  0  0  0
   39.4660   26.4140   42.9200 P   0  0  1  0  0  0  0  0  0  0  0  0
   40.1730   26.2960   44.4680 O   0  0  0  0  0  0  0  0  0  0  0  0
   40.4680   27.1830   44.7970 H   0  0  0  0  0  0  0  0  0  0  0  0
   38.6870   24.9490   42.6210 O   0  0  0  0  0  0  0  0  0  0  0  0
   39.0300   24.4110   41.3950 C   0  0  0  0  0  0  0  0  0  0  0  0
   38.1770   24.7040   40.2040 C   0  0  0  0  0  0  0  0  0  0  0  0
   38.0950   23.3430   40.8760 C   0  0  0  0  0  0  0  0  0  0  0  0
   40.1120   24.3010   41.1910 H   0  0  0  0  0  0  0  0  0  0  0  0
   37.3120   25.3940   40.3220 H   0  0  0  0  0  0  0  0  0  0  0  0
   38.6700   24.6620   39.2130 H   0  0  0  0  0  0  0  0  0  0  0  0
   37.1520   23.1390   41.4150 H   0  0  0  0  0  0  0  0  0  0  0  0
   38.5460   22.4630   40.3710 H   0  0  0  0  0  0  0  0  0  0  0  0
   35.4930   28.8200   39.7880 O   0  0  0  0  0  0  0  0  0  0  0  0
   35.8510   29.4180   38.6280 C   0  0  0  0  0  0  0  0  0  0  0  0
   36.2640   28.7850   37.8080 H   0  0  0  0  0  0  0  0  0  0  0  0
   34.9430   29.8930   38.1530 H   0  0  0  0  0  0  0  0  0  0  0  0
   36.6870   31.2900   39.9280 C   0  0  0  0  0  0  0  0  0  0  0  0
   36.8660   30.5070   38.7820 C   0  0  0  0  0  0  0  0  0  0  0  0
   37.9040   30.7700   37.9620 C   0  0  0  0  0  0  0  0  0  0  0  0
   38.6990   31.7820   38.3170 N   0  0  0  0  0  0  0  0  0  0  0  0
   38.5520   32.5400   39.3990 C   0  0  0  0  0  0  0  0  0  0  0  0
   37.4890   32.3000   40.2740 N   0  0  0  0  0  0  0  0  0  0  0  0
   35.8750   31.1320   40.6250 H   0  0  0  0  0  0  0  0  0  0  0  0
   38.0090   30.1530   37.0950 H   0  0  0  0  0  0  0  0  0  0  0  0
   39.4560   33.6360   39.7390 C   0  0  0  0  0  0  0  0  0  0  0  0
   40.7250   33.5940   39.1970 C   0  0  0  0  0  3  0  0  0  0  0  0
   41.5680   34.6570   39.5410 C   0  0  0  0  0  0  0  0  0  0  0  0
   42.5610   34.6130   39.1100 H   0  0  0  0  0  0  0  0  0  0  0  0
   41.1770   35.6600   40.3460 N   0  0  0  0  0  0  0  0  0  0  0  0
   39.9310   35.6590   40.8500 C   0  0  0  0  0  3  0  0  0  0  0  0
   39.0710   34.6440   40.5440 N   0  0  0  0  0  0  0  0  0  0  0  0
  1  2  2  0  0  0  0
  2  3  1  0  0  0  0
  3  6  1  0  0  0  0
  3  5  1  0  0  0  0
  4  3  1  0  0  0  0
  6  8  1  0  0  0  0
  8  7  2  6  0  0  0
  8  9  1  0  0  0  0
  9 10  1  0  0  0  0
 11  8  1  0  0  0  0
 12 11  1  0  0  0  0
 13 16  1  0  0  0  0
 13 14  1  0  0  0  0
 13 12  1  0  0  0  0
 14 12  1  0  0  0  0
 14 18  1  0  0  0  0
 15 12  1  0  0  0  0
 17 13  1  0  0  0  0
 19 14  1  0  0  0  0
 20  1  1  0  0  0  0
 21 25  1  0  0  0  0
 21 20  1  0  0  0  0
 22 21  1  0  0  0  0
 23 21  1  0  0  0  0
 24 29  1  0  0  0  0
 24 30  1  0  0  0  0
 25 24  2  0  0  0  0
 26 27  2  0  0  0  0
 26 25  1  0  0  0  0
 27 28  1  0  0  0  0
 28 32  1  0  0  0  0
 28 29  2  0  0  0  0
 31 26  1  0  0  0  0
 32 38  1  0  0  0  0
 33 34  1  0  0  0  0
 33 32  2  0  0  0  0
 34 36  2  0  0  0  0
 35 34  1  0  0  0  0
 36 37  1  0  0  0  0
 38 37  2  0  0  0  0
M  END
>  <minimizedAffinity>
-4.93256807

$$$$

 OpenBabel03252504343D

 38 40  0  0  0  0  0  0  0  0999 V2000
   37.9280   26.9780   42.2900 C   0  0  0  0  0  3  0  0  0  0  0  0
   38.4550   27.2510   43.4810 C   0  0  0  0  0  3  0  0  0  0  0  0
   39.6020   26.4710   44.1060 C   0  0  0  0  0  0  0  0  0  0  0  0
   39.2310   25.5710   44.6380 H   0  0  0  0  0  0  0  0  0  0  0  0
   40.0580   27.1480   44.8440 H   0  0  0  0  0  0  0  0  0  0  0  0
   40.4420   26.1080   43.0690 O   0  0  0  0  0  0  0  0  0  0  0  0
   42.1970   26.8180   44.9380 O   0  0  0  0  0  0  0  0  0  0  0  0
   42.0560   26.3030   43.5240 P   0  0  1  0  0  0  0  0  0  0  0  0
   42.8700   24.8060   43.4540 O   0  0  0  0  0  0  0  0  0  0  0  0
   42.3470   24.0910   43.8980 H   0  0  0  0  0  0  0  0  0  0  0  0
   42.8390   27.3400   42.4490 O   0  0  0  0  0  0  0  0  0  0  0  0
   42.7120   28.6680   42.8110 C   0  0  0  0  0  0  0  0  0  0  0  0
   41.3970   29.3530   42.6270 C   0  0  0  0  0  0  0  0  0  0  0  0
   42.5390   29.6350   41.6620 C   0  0  0  0  0  0  0  0  0  0  0  0
   43.3030   28.9980   43.6860 H   0  0  0  0  0  0  0  0  0  0  0  0
   40.5340   28.7610   42.2490 H   0  0  0  0  0  0  0  0  0  0  0  0
   41.1820   30.2100   43.2950 H   0  0  0  0  0  0  0  0  0  0  0  0
   42.3990   29.2420   40.6390 H   0  0  0  0  0  0  0  0  0  0  0  0
   43.0690   30.6080   41.7230 H   0  0  0  0  0  0  0  0  0  0  0  0
   36.8870   27.7880   41.8760 O   0  0  0  0  0  0  0  0  0  0  0  0
   36.6970   28.3400   40.6550 C   0  0  0  0  0  0  0  0  0  0  0  0
   36.8550   27.7050   39.7530 H   0  0  0  0  0  0  0  0  0  0  0  0
   35.6200   28.6670   40.5520 H   0  0  0  0  0  0  0  0  0  0  0  0
   36.9160   30.7570   40.7450 C   0  0  0  0  0  0  0  0  0  0  0  0
   37.5330   29.5530   40.3880 C   0  0  0  0  0  0  0  0  0  0  0  0
   38.7820   29.5800   39.8790 C   0  0  0  0  0  0  0  0  0  0  0  0
   39.3450   30.7840   39.7540 N   0  0  0  0  0  0  0  0  0  0  0  0
   38.7820   31.9410   40.0860 C   0  0  0  0  0  0  0  0  0  0  0  0
   37.4890   31.9560   40.6160 N   0  0  0  0  0  0  0  0  0  0  0  0
   35.9170   30.8040   41.1570 H   0  0  0  0  0  0  0  0  0  0  0  0
   39.2220   28.6410   39.6160 H   0  0  0  0  0  0  0  0  0  0  0  0
   39.4480   33.2320   39.9270 C   0  0  0  0  0  0  0  0  0  0  0  0
   38.7690   34.3480   40.3740 C   0  0  0  0  0  3  0  0  0  0  0  0
   39.4330   35.5690   40.2090 C   0  0  0  0  0  0  0  0  0  0  0  0
   38.8900   36.4380   40.5620 H   0  0  0  0  0  0  0  0  0  0  0  0
   40.6530   35.6600   39.6530 N   0  0  0  0  0  0  0  0  0  0  0  0
   41.2770   34.5450   39.2330 C   0  0  0  0  0  3  0  0  0  0  0  0
   40.6700   33.3310   39.3730 N   0  0  0  0  0  0  0  0  0  0  0  0
  1  2  2  0  0  0  0
  2  3  1  0  0  0  0
  3  4  1  0  0  0  0
  3  5  1  0  0  0  0
  6  8  1  0  0  0  0
  6  3  1  0  0  0  0
  8  7  2  1  0  0  0
  9  8  1  0  0  0  0
  9 10  1  0  0  0  0
 11 12  1  0  0  0  0
 11  8  1  0  0  0  0
 12 15  1  0  0  0  0
 13 12  1  0  0  0  0
 13 17  1  0  0  0  0
 14 19  1  0  0  0  0
 14 13  1  0  0  0  0
 14 12  1  0  0  0  0
 16 13  1  0  0  0  0
 18 14  1  0  0  0  0
 20  1  1  0  0  0  0
 21 20  1  0  0  0  0
 22 21  1  0  0  0  0
 23 21  1  0  0  0  0
 24 30  1  0  0  0  0
 25 21  1  0  0  0  0
 25 24  2  0  0  0  0
 26 25  1  0  0  0  0
 27 26  2  0  0  0  0
 27 28  1  0  0  0  0
 28 29  2  0  0  0  0
 29 24  1  0  0  0  0
 31 26  1  0  0  0  0
 32 28  1  0  0  0  0
 32 33  1  0  0  0  0
 34 33  2  0  0  0  0
 34 35  1  0  0  0  0
 36 34  1  0  0  0  0
 37 38  1  0  0  0  0
 37 36  2  0  0  0  0
 38 32  2  0  0  0  0
M  END
>  <minimizedAffinity>
-4.90466642

$$$$
