
 OpenBabel03252506593D

 22 23  0  0  0  0  0  0  0  0999 V2000
   46.4020   33.7310   44.5120 C   0  0  0  0  0  0  0  0  0  0  0  0
   46.4130   33.1150   43.5670 H   0  0  0  0  0  0  0  0  0  0  0  0
   47.3130   34.3100   44.6330 H   0  0  0  0  0  0  0  0  0  0  0  0
   46.1170   32.8030   45.6000 C   0  0  0  0  0  0  0  0  0  0  0  0
   46.3930   31.4450   45.5650 C   0  0  0  0  0  0  0  0  0  0  0  0
   46.0580   30.6930   46.7220 C   0  0  0  0  0  0  0  0  0  0  0  0
   45.4930   31.3490   47.7830 N   0  0  0  0  0  0  0  0  0  0  0  0
   45.2540   32.6680   47.7500 C   0  0  0  0  0  0  0  0  0  0  0  0
   45.5680   33.3740   46.6620 N   0  0  0  0  0  0  0  0  0  0  0  0
   46.8310   31.0280   44.6970 H   0  0  0  0  0  0  0  0  0  0  0  0
   46.2670   29.6260   46.7130 H   0  0  0  0  0  0  0  0  0  0  0  0
   44.8020   33.0900   48.6450 H   0  0  0  0  0  0  0  0  0  0  0  0
   45.2720   34.7410   44.4450 C   0  0  0  0  0  0  0  0  0  0  0  0
   44.4150   34.4350   45.0790 H   0  0  0  0  0  0  0  0  0  0  0  0
   45.5940   35.7410   44.7890 H   0  0  0  0  0  0  0  0  0  0  0  0
   44.7680   34.7530   43.0460 C   0  0  0  0  0  0  0  0  0  0  0  0
   45.3900   34.0600   42.0250 C   0  0  0  0  0  3  0  0  0  0  0  0
   44.9040   34.0870   40.7380 C   0  0  0  0  0  0  0  0  0  0  0  0
   45.4160   33.5270   39.9480 H   0  0  0  0  0  0  0  0  0  0  0  0
   43.8020   34.7900   40.4260 N   0  0  0  0  0  0  0  0  0  0  0  0
   43.1980   35.4610   41.4120 C   0  0  0  0  0  3  0  0  0  0  0  0
   43.6600   35.4500   42.6930 N   0  0  0  0  0  0  0  0  0  0  0  0
  1  3  1  0  0  0  0
  1  4  1  0  0  0  0
  2  1  1  0  0  0  0
  4  9  1  0  0  0  0
  5  4  2  0  0  0  0
  5  6  1  0  0  0  0
  6  7  2  0  0  0  0
  8  7  1  0  0  0  0
  8 12  1  0  0  0  0
  9  8  2  0  0  0  0
 10  5  1  0  0  0  0
 11  6  1  0  0  0  0
 13  1  1  0  0  0  0
 13 15  1  0  0  0  0
 13 14  1  0  0  0  0
 16 13  1  0  0  0  0
 17 16  2  0  0  0  0
 18 17  1  0  0  0  0
 19 18  1  0  0  0  0
 20 18  2  0  0  0  0
 20 21  1  0  0  0  0
 21 22  2  0  0  0  0
 22 16  1  0  0  0  0
M  END
>  <minimizedAffinity>
-3.59200478

>  <minimizedRMSD>
6.18863535

$$$$
