
 OpenBabel03242520173D

 29 31  0  0  0  0  0  0  0  0999 V2000
   44.1080   34.5650   41.2800 C   0  0  0  0  0  0  0  0  0  0  0  0
   42.9710   35.3140   40.9300 C   0  0  0  0  0  0  0  0  0  0  0  0
   42.3880   35.0820   39.6660 C   0  0  0  0  0  0  0  0  0  0  0  0
   42.9710   34.1440   38.8650 N   0  0  0  0  0  0  0  0  0  0  0  0
   44.0810   33.4490   39.2680 C   0  0  0  0  0  0  0  0  0  0  0  0
   44.6430   33.6550   40.4550 N   0  0  0  0  0  0  0  0  0  0  0  0
   42.5800   36.0360   41.6260 H   0  0  0  0  0  0  0  0  0  0  0  0
   44.4320   32.7380   38.5250 H   0  0  0  0  0  0  0  0  0  0  0  0
   44.7090   34.8080   42.6130 C   0  0  0  0  0  0  0  0  0  0  0  0
   46.1880   35.2930   42.5280 C   0  0  0  0  0  0  0  0  0  0  0  0
   45.0680   36.1020   43.1060 C   0  0  0  0  0  0  0  0  0  0  0  0
   44.5820   33.9490   43.3070 H   0  0  0  0  0  0  0  0  0  0  0  0
   46.5770   35.5680   41.5370 H   0  0  0  0  0  0  0  0  0  0  0  0
   46.8870   34.8430   43.2610 H   0  0  0  0  0  0  0  0  0  0  0  0
   45.0720   36.2430   44.2220 H   0  0  0  0  0  0  0  0  0  0  0  0
   44.8590   37.0620   42.6000 H   0  0  0  0  0  0  0  0  0  0  0  0
   41.2010   35.8340   39.2420 C   0  0  0  0  0  0  0  0  0  0  0  0
   40.9190   35.5300   38.2270 H   0  0  0  0  0  0  0  0  0  0  0  0
   41.5080   36.8960   39.1710 H   0  0  0  0  0  0  0  0  0  0  0  0
   40.0480   35.6610   40.2250 C   0  0  0  0  0  0  0  0  0  0  0  0
   40.3010   36.0720   41.2140 H   0  0  0  0  0  0  0  0  0  0  0  0
   39.2370   36.3440   39.8330 H   0  0  0  0  0  0  0  0  0  0  0  0
   39.4700   34.3210   40.2380 C   0  0  0  0  0  0  0  0  0  0  0  0
   39.3880   33.3720   41.2130 C   0  0  0  0  0  3  0  0  0  0  0  0
   38.7970   32.1520   40.9940 C   0  0  0  0  0  0  0  0  0  0  0  0
   38.7610   31.4390   41.8020 H   0  0  0  0  0  0  0  0  0  0  0  0
   38.2750   31.8600   39.7890 N   0  0  0  0  0  0  0  0  0  0  0  0
   38.3520   32.7910   38.8250 C   0  0  0  0  0  3  0  0  0  0  0  0
   38.9280   33.9880   39.0270 N   0  0  0  0  0  0  0  0  0  0  0  0
  1  9  1  0  0  0  0
  2  1  1  0  0  0  0
  2  7  1  0  0  0  0
  3  2  2  0  0  0  0
  4  5  2  0  0  0  0
  4  3  1  0  0  0  0
  5  6  1  0  0  0  0
  6  1  2  0  0  0  0
  8  5  1  0  0  0  0
  9 11  1  0  0  0  0
  9 12  1  0  0  0  0
 10  9  1  0  0  0  0
 10 11  1  0  0  0  0
 10 14  1  0  0  0  0
 11 15  1  0  0  0  0
 13 10  1  0  0  0  0
 16 11  1  0  0  0  0
 17  3  1  0  0  0  0
 17 20  1  0  0  0  0
 18 17  1  0  0  0  0
 19 17  1  0  0  0  0
 20 23  1  0  0  0  0
 20 21  1  0  0  0  0
 22 20  1  0  0  0  0
 23 24  1  0  0  0  0
 25 24  2  0  0  0  0
 25 26  1  0  0  0  0
 27 25  1  0  0  0  0
 28 29  1  0  0  0  0
 28 27  2  0  0  0  0
 29 23  2  0  0  0  0
M  END
>  <minimizedAffinity>
-4.62692642

>  <minimizedRMSD>
2.17314243

$$$$
