
 OpenBabel03242518533D

 37 39  0  0  1  0  0  0  0  0999 V2000
   37.7040   26.2950   42.1960 C   0  0  2  0  0  0  0  0  0  0  0  0
   36.9900   24.9890   41.8850 C   0  0  0  0  0  0  0  0  0  0  0  0
   38.0500   24.1160   41.3000 C   0  0  0  0  0  0  0  0  0  0  0  0
   39.4710   24.5410   41.4200 C   0  0  0  0  0  0  0  0  0  0  0  0
   39.6270   24.9150   42.8760 C   0  0  0  0  0  0  0  0  0  0  0  0
   38.8560   26.1480   43.0560 C   0  0  1  0  0  0  0  0  0  0  0  0
   38.0350   26.5350   41.1400 H   0  0  0  0  0  0  0  0  0  0  0  0
   36.1960   25.2170   41.1590 H   0  0  0  0  0  0  0  0  0  0  0  0
   36.5130   24.5850   42.7920 H   0  0  0  0  0  0  0  0  0  0  0  0
   37.9670   23.1160   41.7980 H   0  0  0  0  0  0  0  0  0  0  0  0
   37.8420   23.9570   40.2170 H   0  0  0  0  0  0  0  0  0  0  0  0
   40.1040   23.6830   41.1950 H   0  0  0  0  0  0  0  0  0  0  0  0
   39.7350   25.4250   40.8060 H   0  0  0  0  0  0  0  0  0  0  0  0
   40.6950   24.9020   43.1200 H   0  0  0  0  0  0  0  0  0  0  0  0
   39.2390   23.9780   43.3840 H   0  0  0  0  0  0  0  0  0  0  0  0
   38.7160   25.9200   44.1330 H   0  0  0  0  0  0  0  0  0  0  0  0
   39.9560   27.1050   42.6970 C   0  0  0  0  0  0  0  0  0  0  0  0
   40.8930   27.6030   43.5740 C   0  0  0  0  0  3  0  0  0  0  0  0
   41.8750   28.4970   43.2160 C   0  0  0  0  0  0  0  0  0  0  0  0
   42.5970   28.8710   43.9280 H   0  0  0  0  0  0  0  0  0  0  0  0
   41.9650   28.9350   41.9520 N   0  0  0  0  0  0  0  0  0  0  0  0
   41.0650   28.4670   41.0730 C   0  0  0  0  0  3  0  0  0  0  0  0
   40.1330   27.6040   41.4620 N   0  0  0  0  0  0  0  0  0  0  0  0
   36.8090   27.3780   42.6080 C   0  0  0  0  0  0  0  0  0  0  0  0
   36.1450   27.3310   43.6780 O   0  0  0  0  0  0  0  0  0  0  0  0
   35.5130   29.7350   40.1310 C   0  0  0  0  0  0  0  0  0  0  0  0
   36.4740   30.7630   40.0820 C   0  0  0  0  0  0  0  0  0  0  0  0
   37.5740   30.6230   40.9390 C   0  0  0  0  0  0  0  0  0  0  0  0
   37.5730   29.5210   41.7000 N   0  0  0  0  0  0  0  0  0  0  0  0
   36.6810   28.5630   41.7480 C   0  0  0  0  0  0  0  0  0  0  0  0
   35.6100   28.6790   40.9300 N   0  0  0  0  0  0  0  0  0  0  0  0
   34.6440   29.7870   39.4970 H   0  0  0  0  0  0  0  0  0  0  0  0
   36.4020   31.6070   39.4470 H   0  0  0  0  0  0  0  0  0  0  0  0
   38.5700   31.6930   40.9170 C   0  0  0  0  0  0  0  0  0  0  0  0
   39.4100   31.5300   39.8300 F   0  0  0  0  0  0  0  0  0  0  0  0
   39.4090   31.4190   42.0010 F   0  0  0  0  0  0  0  0  0  0  0  0
   38.0450   32.9280   40.9610 F   0  0  0  0  0  0  0  0  0  0  0  0
  1  7  1  6  0  0  0
  1 24  1  0  0  0  0
  1  6  1  0  0  0  0
  2  1  1  0  0  0  0
  2  9  1  0  0  0  0
  3  4  1  0  0  0  0
  3 10  1  0  0  0  0
  3  2  1  0  0  0  0
  4  5  1  0  0  0  0
  5  6  1  0  0  0  0
  5 14  1  0  0  0  0
  5 15  1  0  0  0  0
  6 16  1  1  0  0  0
  8  2  1  0  0  0  0
 11  3  1  0  0  0  0
 12  4  1  0  0  0  0
 13  4  1  0  0  0  0
 17  6  1  0  0  0  0
 17 18  1  0  0  0  0
 19 18  2  0  0  0  0
 19 20  1  0  0  0  0
 21 19  1  0  0  0  0
 22 23  1  0  0  0  0
 22 21  2  0  0  0  0
 23 17  2  0  0  0  0
 24 25  2  0  0  0  0
 26 31  1  0  0  0  0
 27 26  2  0  0  0  0
 27 28  1  0  0  0  0
 28 29  2  0  0  0  0
 29 30  1  0  0  0  0
 30 24  1  0  0  0  0
 31 30  2  0  0  0  0
 32 26  1  0  0  0  0
 33 27  1  0  0  0  0
 34 28  1  0  0  0  0
 34 37  1  0  0  0  0
 34 36  1  0  0  0  0
 35 34  1  0  0  0  0
M  END
>  <minimizedAffinity>
-5.74948072

$$$$

 OpenBabel03242518533D

 37 39  0  0  1  0  0  0  0  0999 V2000
   37.0310   30.5850   39.7050 C   0  0  2  0  0  0  0  0  0  0  0  0
   37.0010   32.0260   40.1880 C   0  0  0  0  0  0  0  0  0  0  0  0
   38.0760   32.7040   39.4050 C   0  0  0  0  0  0  0  0  0  0  0  0
   38.6650   31.9930   38.2380 C   0  0  0  0  0  0  0  0  0  0  0  0
   37.4680   31.4970   37.4600 C   0  0  0  0  0  0  0  0  0  0  0  0
   36.8710   30.4370   38.2760 C   0  0  1  0  0  0  0  0  0  0  0  0
   38.1000   30.3550   40.0030 H   0  0  0  0  0  0  0  0  0  0  0  0
   37.2210   32.0130   41.2650 H   0  0  0  0  0  0  0  0  0  0  0  0
   35.9960   32.4560   40.0530 H   0  0  0  0  0  0  0  0  0  0  0  0
   37.6480   33.6640   39.0180 H   0  0  0  0  0  0  0  0  0  0  0  0
   38.9160   32.9740   40.0860 H   0  0  0  0  0  0  0  0  0  0  0  0
   39.2140   32.7170   37.6380 H   0  0  0  0  0  0  0  0  0  0  0  0
   39.2890   31.1160   38.5060 H   0  0  0  0  0  0  0  0  0  0  0  0
   37.7920   31.2760   36.4370 H   0  0  0  0  0  0  0  0  0  0  0  0
   36.8750   32.4570   37.3370 H   0  0  0  0  0  0  0  0  0  0  0  0
   35.8800   30.6150   37.8110 H   0  0  0  0  0  0  0  0  0  0  0  0
   37.6910   29.3020   37.7290 C   0  0  0  0  0  0  0  0  0  0  0  0
   37.5400   28.7450   36.4800 C   0  0  0  0  0  3  0  0  0  0  0  0
   38.2930   27.6900   36.0180 C   0  0  0  0  0  0  0  0  0  0  0  0
   38.1500   27.2720   35.0320 H   0  0  0  0  0  0  0  0  0  0  0  0
   39.2400   27.1440   36.7940 N   0  0  0  0  0  0  0  0  0  0  0  0
   39.4120   27.6680   38.0180 C   0  0  0  0  0  3  0  0  0  0  0  0
   38.6630   28.6860   38.4230 N   0  0  0  0  0  0  0  0  0  0  0  0
   36.1790   29.6800   40.4800 C   0  0  0  0  0  0  0  0  0  0  0  0
   34.9360   29.6050   40.2930 O   0  0  0  0  0  0  0  0  0  0  0  0
   37.9090   28.6290   43.5250 C   0  0  0  0  0  0  0  0  0  0  0  0
   38.0060   27.2290   43.4130 C   0  0  0  0  0  0  0  0  0  0  0  0
   37.4450   26.6590   42.2630 C   0  0  0  0  0  0  0  0  0  0  0  0
   36.8850   27.5260   41.4070 N   0  0  0  0  0  0  0  0  0  0  0  0
   36.7940   28.8290   41.5090 C   0  0  0  0  0  0  0  0  0  0  0  0
   37.3270   29.3980   42.6120 N   0  0  0  0  0  0  0  0  0  0  0  0
   38.3210   29.1250   44.3880 H   0  0  0  0  0  0  0  0  0  0  0  0
   38.4690   26.6110   44.1370 H   0  0  0  0  0  0  0  0  0  0  0  0
   37.5170   25.2040   42.1410 C   0  0  0  0  0  0  0  0  0  0  0  0
   38.6240   24.7310   42.8210 F   0  0  0  0  0  0  0  0  0  0  0  0
   37.8530   24.9760   40.8040 F   0  0  0  0  0  0  0  0  0  0  0  0
   36.3930   24.5710   42.5140 F   0  0  0  0  0  0  0  0  0  0  0  0
  1  7  1  1  0  0  0
  1  2  1  0  0  0  0
  1 24  1  0  0  0  0
  2  8  1  0  0  0  0
  3 11  1  0  0  0  0
  3  2  1  0  0  0  0
  4 13  1  0  0  0  0
  4  3  1  0  0  0  0
  5  4  1  0  0  0  0
  5  6  1  0  0  0  0
  6 16  1  6  0  0  0
  6  1  1  0  0  0  0
  9  2  1  0  0  0  0
 10  3  1  0  0  0  0
 12  4  1  0  0  0  0
 14  5  1  0  0  0  0
 15  5  1  0  0  0  0
 17  6  1  0  0  0  0
 17 23  1  0  0  0  0
 18 17  2  0  0  0  0
 19 18  1  0  0  0  0
 19 21  2  0  0  0  0
 20 19  1  0  0  0  0
 21 22  1  0  0  0  0
 22 23  2  0  0  0  0
 24 30  1  0  0  0  0
 25 24  2  0  0  0  0
 26 32  1  0  0  0  0
 27 26  1  0  0  0  0
 27 33  1  0  0  0  0
 28 27  2  0  0  0  0
 29 30  2  0  0  0  0
 29 28  1  0  0  0  0
 30 31  1  0  0  0  0
 31 26  2  0  0  0  0
 34 28  1  0  0  0  0
 34 37  1  0  0  0  0
 34 35  1  0  0  0  0
 36 34  1  0  0  0  0
M  END
>  <minimizedAffinity>
-5.73875523

$$$$

 OpenBabel03242518533D

 37 39  0  0  1  0  0  0  0  0999 V2000
   36.9950   30.3860   39.4450 C   0  0  2  0  0  0  0  0  0  0  0  0
   36.1800   29.5320   38.4870 C   0  0  0  0  0  0  0  0  0  0  0  0
   36.5690   30.0180   37.1300 C   0  0  0  0  0  0  0  0  0  0  0  0
   37.7570   30.9070   37.0050 C   0  0  0  0  0  0  0  0  0  0  0  0
   38.8300   30.2130   37.8110 C   0  0  0  0  0  0  0  0  0  0  0  0
   38.4210   30.3380   39.2130 C   0  0  1  0  0  0  0  0  0  0  0  0
   36.5830   31.3930   39.1270 H   0  0  0  0  0  0  0  0  0  0  0  0
   35.1190   29.7220   38.7040 H   0  0  0  0  0  0  0  0  0  0  0  0
   36.3750   28.4620   38.6630 H   0  0  0  0  0  0  0  0  0  0  0  0
   36.7730   29.1140   36.5000 H   0  0  0  0  0  0  0  0  0  0  0  0
   35.7080   30.5500   36.6660 H   0  0  0  0  0  0  0  0  0  0  0  0
   38.0520   30.9360   35.9570 H   0  0  0  0  0  0  0  0  0  0  0  0
   37.6120   31.9220   37.4250 H   0  0  0  0  0  0  0  0  0  0  0  0
   39.8030   30.6030   37.4940 H   0  0  0  0  0  0  0  0  0  0  0  0
   38.8100   29.1750   37.3530 H   0  0  0  0  0  0  0  0  0  0  0  0
   38.9920   29.4250   39.4770 H   0  0  0  0  0  0  0  0  0  0  0  0
   39.0830   31.6600   39.4790 C   0  0  0  0  0  0  0  0  0  0  0  0
   40.4350   31.9010   39.3960 C   0  0  0  0  0  3  0  0  0  0  0  0
   41.0120   33.1190   39.6690 C   0  0  0  0  0  0  0  0  0  0  0  0
   42.0790   33.2780   39.5970 H   0  0  0  0  0  0  0  0  0  0  0  0
   40.2530   34.1610   40.0370 N   0  0  0  0  0  0  0  0  0  0  0  0
   38.9280   33.9570   40.1250 C   0  0  0  0  0  3  0  0  0  0  0  0
   38.4140   32.7640   39.8530 N   0  0  0  0  0  0  0  0  0  0  0  0
   36.6310   30.2130   40.8520 C   0  0  0  0  0  0  0  0  0  0  0  0
   35.8410   30.9960   41.4430 O   0  0  0  0  0  0  0  0  0  0  0  0
   38.6050   28.3140   43.2750 C   0  0  0  0  0  0  0  0  0  0  0  0
   38.3350   26.9660   42.9740 C   0  0  0  0  0  0  0  0  0  0  0  0
   37.4420   26.7330   41.9190 C   0  0  0  0  0  0  0  0  0  0  0  0
   36.9570   27.8320   41.3260 N   0  0  0  0  0  0  0  0  0  0  0  0
   37.2060   29.0870   41.6040 C   0  0  0  0  0  0  0  0  0  0  0  0
   38.0640   29.3330   42.6190 N   0  0  0  0  0  0  0  0  0  0  0  0
   39.2830   28.5560   44.0760 H   0  0  0  0  0  0  0  0  0  0  0  0
   38.7640   26.1490   43.4930 H   0  0  0  0  0  0  0  0  0  0  0  0
   37.1330   25.3390   41.6080 C   0  0  0  0  0  0  0  0  0  0  0  0
   38.2920   24.6670   41.2640 F   0  0  0  0  0  0  0  0  0  0  0  0
   36.4350   25.3910   40.3990 F   0  0  0  0  0  0  0  0  0  0  0  0
   36.4550   24.7020   42.5760 F   0  0  0  0  0  0  0  0  0  0  0  0
  1  7  1  6  0  0  0
  1 24  1  0  0  0  0
  2  9  1  0  0  0  0
  2  8  1  0  0  0  0
  2  1  1  0  0  0  0
  3  2  1  0  0  0  0
  4  3  1  0  0  0  0
  4 13  1  0  0  0  0
  4  5  1  0  0  0  0
  5  6  1  0  0  0  0
  6  1  1  0  0  0  0
  6 16  1  1  0  0  0
  6 17  1  0  0  0  0
 10  3  1  0  0  0  0
 11  3  1  0  0  0  0
 12  4  1  0  0  0  0
 14  5  1  0  0  0  0
 15  5  1  0  0  0  0
 17 23  1  0  0  0  0
 18 17  2  0  0  0  0
 18 19  1  0  0  0  0
 19 21  2  0  0  0  0
 20 19  1  0  0  0  0
 21 22  1  0  0  0  0
 23 22  2  0  0  0  0
 24 25  2  0  0  0  0
 24 30  1  0  0  0  0
 26 32  1  0  0  0  0
 27 26  1  0  0  0  0
 27 33  1  0  0  0  0
 28 27  2  0  0  0  0
 29 30  2  0  0  0  0
 29 28  1  0  0  0  0
 30 31  1  0  0  0  0
 31 26  2  0  0  0  0
 34 28  1  0  0  0  0
 34 37  1  0  0  0  0
 35 34  1  0  0  0  0
 36 34  1  0  0  0  0
M  END
>  <minimizedAffinity>
-5.66955423

$$$$

 OpenBabel03242518533D

 37 39  0  0  1  0  0  0  0  0999 V2000
   38.8180   31.4250   39.4890 C   0  0  2  0  0  0  0  0  0  0  0  0
   37.5930   32.0960   38.8910 C   0  0  0  0  0  0  0  0  0  0  0  0
   37.4560   33.3720   39.6550 C   0  0  0  0  0  0  0  0  0  0  0  0
   38.5880   33.8110   40.5160 C   0  0  0  0  0  0  0  0  0  0  0  0
   39.8050   33.6770   39.6310 C   0  0  0  0  0  0  0  0  0  0  0  0
   40.0130   32.2370   39.4540 C   0  0  1  0  0  0  0  0  0  0  0  0
   38.4350   31.3430   40.5520 H   0  0  0  0  0  0  0  0  0  0  0  0
   36.7390   31.4230   39.0570 H   0  0  0  0  0  0  0  0  0  0  0  0
   37.7160   32.2250   37.8040 H   0  0  0  0  0  0  0  0  0  0  0  0
   37.2810   34.1880   38.9080 H   0  0  0  0  0  0  0  0  0  0  0  0
   36.5490   33.3220   40.2990 H   0  0  0  0  0  0  0  0  0  0  0  0
   38.4370   34.8600   40.7690 H   0  0  0  0  0  0  0  0  0  0  0  0
   38.7450   33.1840   41.4170 H   0  0  0  0  0  0  0  0  0  0  0  0
   40.6070   34.2920   40.0550 H   0  0  0  0  0  0  0  0  0  0  0  0
   39.4800   34.2720   38.7220 H   0  0  0  0  0  0  0  0  0  0  0  0
   40.5310   32.4150   38.4890 H   0  0  0  0  0  0  0  0  0  0  0  0
   40.8760   32.0270   40.6660 C   0  0  0  0  0  0  0  0  0  0  0  0
   40.5630   31.2160   41.7320 C   0  0  0  0  0  3  0  0  0  0  0  0
   41.3670   31.0630   42.8380 C   0  0  0  0  0  0  0  0  0  0  0  0
   41.0930   30.4200   43.6620 H   0  0  0  0  0  0  0  0  0  0  0  0
   42.5310   31.7210   42.9240 N   0  0  0  0  0  0  0  0  0  0  0  0
   42.8660   32.5200   41.8980 C   0  0  0  0  0  3  0  0  0  0  0  0
   42.0590   32.6380   40.8500 N   0  0  0  0  0  0  0  0  0  0  0  0
   39.0350   30.0550   39.0180 C   0  0  0  0  0  0  0  0  0  0  0  0
   39.8290   29.7860   38.0780 O   0  0  0  0  0  0  0  0  0  0  0  0
   37.0890   26.9960   39.4890 C   0  0  0  0  0  0  0  0  0  0  0  0
   36.8770   26.9200   40.8790 C   0  0  0  0  0  0  0  0  0  0  0  0
   37.4380   27.9480   41.6480 C   0  0  0  0  0  0  0  0  0  0  0  0
   38.1070   28.8810   40.9580 N   0  0  0  0  0  0  0  0  0  0  0  0
   38.3050   28.9550   39.6650 C   0  0  0  0  0  0  0  0  0  0  0  0
   37.7740   27.9720   38.9050 N   0  0  0  0  0  0  0  0  0  0  0  0
   36.6820   26.2340   38.8450 H   0  0  0  0  0  0  0  0  0  0  0  0
   36.3310   26.1450   41.3500 H   0  0  0  0  0  0  0  0  0  0  0  0
   37.2470   27.8720   43.0950 C   0  0  0  0  0  0  0  0  0  0  0  0
   37.5630   29.0880   43.6740 F   0  0  0  0  0  0  0  0  0  0  0  0
   38.2740   27.0380   43.5450 F   0  0  0  0  0  0  0  0  0  0  0  0
   36.0280   27.4460   43.4630 F   0  0  0  0  0  0  0  0  0  0  0  0
  1  7  1  1  0  0  0
  2  8  1  0  0  0  0
  2  1  1  0  0  0  0
  2  3  1  0  0  0  0
  3 11  1  0  0  0  0
  3  4  1  0  0  0  0
  4 12  1  0  0  0  0
  4 13  1  0  0  0  0
  5 14  1  0  0  0  0
  5  4  1  0  0  0  0
  6 16  1  6  0  0  0
  6  1  1  0  0  0  0
  6  5  1  0  0  0  0
  6 17  1  0  0  0  0
  9  2  1  0  0  0  0
 10  3  1  0  0  0  0
 15  5  1  0  0  0  0
 17 23  2  0  0  0  0
 17 18  1  0  0  0  0
 18 19  2  0  0  0  0
 19 21  1  0  0  0  0
 19 20  1  0  0  0  0
 22 21  2  0  0  0  0
 23 22  1  0  0  0  0
 24  1  1  0  0  0  0
 24 30  1  0  0  0  0
 25 24  2  0  0  0  0
 26 27  1  0  0  0  0
 27 33  1  0  0  0  0
 27 28  2  0  0  0  0
 28 34  1  0  0  0  0
 29 28  1  0  0  0  0
 30 29  2  0  0  0  0
 31 26  2  0  0  0  0
 31 30  1  0  0  0  0
 32 26  1  0  0  0  0
 34 37  1  0  0  0  0
 34 36  1  0  0  0  0
 34 35  1  0  0  0  0
M  END
>  <minimizedAffinity>
-5.64770842

$$$$

 OpenBabel03242518533D

 37 39  0  0  1  0  0  0  0  0999 V2000
   38.6060   31.0170   40.0380 C   0  0  2  0  0  0  0  0  0  0  0  0
   37.3270   31.5740   39.4350 C   0  0  0  0  0  0  0  0  0  0  0  0
   37.3280   33.0160   39.8250 C   0  0  0  0  0  0  0  0  0  0  0  0
   38.5770   33.6030   40.3830 C   0  0  0  0  0  0  0  0  0  0  0  0
   39.6580   33.1580   39.4250 C   0  0  0  0  0  0  0  0  0  0  0  0
   39.8050   31.7140   39.6300 C   0  0  1  0  0  0  0  0  0  0  0  0
   38.3700   31.2510   41.1210 H   0  0  0  0  0  0  0  0  0  0  0  0
   36.4880   31.0260   39.8870 H   0  0  0  0  0  0  0  0  0  0  0  0
   37.3030   31.3950   38.3480 H   0  0  0  0  0  0  0  0  0  0  0  0
   37.0720   33.6070   38.9090 H   0  0  0  0  0  0  0  0  0  0  0  0
   36.5170   33.1990   40.5660 H   0  0  0  0  0  0  0  0  0  0  0  0
   38.4880   34.6880   40.3510 H   0  0  0  0  0  0  0  0  0  0  0  0
   38.8410   33.2360   41.3950 H   0  0  0  0  0  0  0  0  0  0  0  0
   40.5250   33.8150   39.5580 H   0  0  0  0  0  0  0  0  0  0  0  0
   39.2270   33.5020   38.4340 H   0  0  0  0  0  0  0  0  0  0  0  0
   40.1900   31.5910   38.5970 H   0  0  0  0  0  0  0  0  0  0  0  0
   40.8200   31.7890   40.7350 C   0  0  0  0  0  0  0  0  0  0  0  0
   42.0130   32.4730   40.6710 C   0  0  0  0  0  3  0  0  0  0  0  0
   42.9320   32.5020   41.6940 C   0  0  0  0  0  0  0  0  0  0  0  0
   43.8620   33.0470   41.6140 H   0  0  0  0  0  0  0  0  0  0  0  0
   42.6940   31.8440   42.8370 N   0  0  0  0  0  0  0  0  0  0  0  0
   41.5370   31.1690   42.9300 C   0  0  0  0  0  3  0  0  0  0  0  0
   40.6790   31.1670   41.9180 N   0  0  0  0  0  0  0  0  0  0  0  0
   38.7230   29.5610   39.9430 C   0  0  0  0  0  0  0  0  0  0  0  0
   39.3160   28.9960   38.9860 O   0  0  0  0  0  0  0  0  0  0  0  0
   37.2820   28.5320   43.1420 C   0  0  0  0  0  0  0  0  0  0  0  0
   37.0770   27.1450   43.0100 C   0  0  0  0  0  0  0  0  0  0  0  0
   37.4380   26.5800   41.7800 C   0  0  0  0  0  0  0  0  0  0  0  0
   37.9390   27.4370   40.8800 N   0  0  0  0  0  0  0  0  0  0  0  0
   38.1310   28.7270   41.0000 C   0  0  0  0  0  0  0  0  0  0  0  0
   37.7870   29.2930   42.1790 N   0  0  0  0  0  0  0  0  0  0  0  0
   37.0220   29.0230   44.0650 H   0  0  0  0  0  0  0  0  0  0  0  0
   36.6750   26.5330   43.7740 H   0  0  0  0  0  0  0  0  0  0  0  0
   37.2110   25.1460   41.6170 C   0  0  0  0  0  0  0  0  0  0  0  0
   36.3940   24.9210   40.5240 F   0  0  0  0  0  0  0  0  0  0  0  0
   36.3930   24.7910   42.6930 F   0  0  0  0  0  0  0  0  0  0  0  0
   38.3380   24.4190   41.5560 F   0  0  0  0  0  0  0  0  0  0  0  0
  1  7  1  1  0  0  0
  2  3  1  0  0  0  0
  2  8  1  0  0  0  0
  2  1  1  0  0  0  0
  3  4  1  0  0  0  0
  3 11  1  0  0  0  0
  4 13  1  0  0  0  0
  5 14  1  0  0  0  0
  5  6  1  0  0  0  0
  5  4  1  0  0  0  0
  6 16  1  6  0  0  0
  6  1  1  0  0  0  0
  6 17  1  0  0  0  0
  9  2  1  0  0  0  0
 10  3  1  0  0  0  0
 12  4  1  0  0  0  0
 15  5  1  0  0  0  0
 17 23  1  0  0  0  0
 18 17  2  0  0  0  0
 18 19  1  0  0  0  0
 19 21  2  0  0  0  0
 20 19  1  0  0  0  0
 21 22  1  0  0  0  0
 23 22  2  0  0  0  0
 24  1  1  0  0  0  0
 24 30  1  0  0  0  0
 25 24  2  0  0  0  0
 26 32  1  0  0  0  0
 27 26  1  0  0  0  0
 27 33  1  0  0  0  0
 28 27  2  0  0  0  0
 29 30  2  0  0  0  0
 29 28  1  0  0  0  0
 30 31  1  0  0  0  0
 31 26  2  0  0  0  0
 34 28  1  0  0  0  0
 34 36  1  0  0  0  0
 35 34  1  0  0  0  0
 37 34  1  0  0  0  0
M  END
>  <minimizedAffinity>
-5.51199102

$$$$

 OpenBabel03242518533D

 37 39  0  0  1  0  0  0  0  0999 V2000
   36.9710   26.1770   41.7080 C   0  0  2  0  0  0  0  0  0  0  0  0
   37.0110   24.6960   42.0510 C   0  0  0  0  0  0  0  0  0  0  0  0
   36.4520   24.0190   40.8430 C   0  0  0  0  0  0  0  0  0  0  0  0
   36.2890   24.8110   39.5930 C   0  0  0  0  0  0  0  0  0  0  0  0
   37.6140   25.5180   39.4240 C   0  0  0  0  0  0  0  0  0  0  0  0
   37.6710   26.5210   40.4910 C   0  0  1  0  0  0  0  0  0  0  0  0
   35.8520   26.2590   41.5500 H   0  0  0  0  0  0  0  0  0  0  0  0
   36.3750   24.5500   42.9360 H   0  0  0  0  0  0  0  0  0  0  0  0
   38.0350   24.3890   42.3160 H   0  0  0  0  0  0  0  0  0  0  0  0
   37.1330   23.1630   40.5990 H   0  0  0  0  0  0  0  0  0  0  0  0
   35.4580   23.5820   41.0900 H   0  0  0  0  0  0  0  0  0  0  0  0
   36.1400   24.1160   38.7670 H   0  0  0  0  0  0  0  0  0  0  0  0
   35.4920   25.5790   39.6420 H   0  0  0  0  0  0  0  0  0  0  0  0
   37.7020   25.8340   38.3780 H   0  0  0  0  0  0  0  0  0  0  0  0
   38.3370   24.6460   39.4890 H   0  0  0  0  0  0  0  0  0  0  0  0
   38.7800   26.5030   40.4690 H   0  0  0  0  0  0  0  0  0  0  0  0
   36.9880   27.6270   39.7390 C   0  0  0  0  0  0  0  0  0  0  0  0
   35.8440   28.2740   40.1440 C   0  0  0  0  0  3  0  0  0  0  0  0
   35.2300   29.2690   39.4190 C   0  0  0  0  0  0  0  0  0  0  0  0
   34.3300   29.7580   39.7630 H   0  0  0  0  0  0  0  0  0  0  0  0
   35.7430   29.6660   38.2460 N   0  0  0  0  0  0  0  0  0  0  0  0
   36.8620   29.0540   37.8240 C   0  0  0  0  0  3  0  0  0  0  0  0
   37.4200   28.0980   38.5560 N   0  0  0  0  0  0  0  0  0  0  0  0
   37.2980   27.0560   42.8320 C   0  0  0  0  0  0  0  0  0  0  0  0
   36.4360   27.4140   43.6780 O   0  0  0  0  0  0  0  0  0  0  0  0
   40.8560   27.1670   43.6680 C   0  0  0  0  0  0  0  0  0  0  0  0
   41.2630   28.4690   43.3200 C   0  0  0  0  0  0  0  0  0  0  0  0
   40.2750   29.3020   42.7760 C   0  0  0  0  0  0  0  0  0  0  0  0
   39.0600   28.7500   42.6580 N   0  0  0  0  0  0  0  0  0  0  0  0
   38.6790   27.5380   42.9810 C   0  0  0  0  0  0  0  0  0  0  0  0
   39.6170   26.7190   43.5060 N   0  0  0  0  0  0  0  0  0  0  0  0
   41.5710   26.4800   44.0900 H   0  0  0  0  0  0  0  0  0  0  0  0
   42.2480   28.8330   43.4470 H   0  0  0  0  0  0  0  0  0  0  0  0
   40.6850   30.6500   42.3880 C   0  0  0  0  0  0  0  0  0  0  0  0
   41.5300   31.1780   43.3470 F   0  0  0  0  0  0  0  0  0  0  0  0
   39.5320   31.4260   42.5290 F   0  0  0  0  0  0  0  0  0  0  0  0
   41.2180   30.7240   41.1580 F   0  0  0  0  0  0  0  0  0  0  0  0
  1  7  1  6  0  0  0
  1  2  1  0  0  0  0
  1 24  1  0  0  0  0
  2  9  1  0  0  0  0
  2  8  1  0  0  0  0
  3 11  1  0  0  0  0
  3  2  1  0  0  0  0
  4 13  1  0  0  0  0
  4  3  1  0  0  0  0
  5 15  1  0  0  0  0
  5  4  1  0  0  0  0
  5  6  1  0  0  0  0
  6 16  1  1  0  0  0
  6  1  1  0  0  0  0
 10  3  1  0  0  0  0
 12  4  1  0  0  0  0
 14  5  1  0  0  0  0
 17 18  1  0  0  0  0
 17  6  1  0  0  0  0
 19 20  1  0  0  0  0
 19 18  2  0  0  0  0
 21 19  1  0  0  0  0
 22 21  2  0  0  0  0
 22 23  1  0  0  0  0
 23 17  2  0  0  0  0
 24 30  1  0  0  0  0
 24 25  2  0  0  0  0
 26 32  1  0  0  0  0
 27 33  1  0  0  0  0
 27 26  2  0  0  0  0
 28 27  1  0  0  0  0
 29 28  2  0  0  0  0
 29 30  1  0  0  0  0
 30 31  2  0  0  0  0
 31 26  1  0  0  0  0
 34 36  1  0  0  0  0
 34 28  1  0  0  0  0
 34 35  1  0  0  0  0
 37 34  1  0  0  0  0
M  END
>  <minimizedAffinity>
-5.43252945

$$$$

 OpenBabel03242518533D

 37 39  0  0  1  0  0  0  0  0999 V2000
   36.8000   27.3390   39.9290 C   0  0  2  0  0  0  0  0  0  0  0  0
   36.1920   26.4780   38.8330 C   0  0  0  0  0  0  0  0  0  0  0  0
   37.0910   25.2880   38.7530 C   0  0  0  0  0  0  0  0  0  0  0  0
   38.0860   25.0710   39.8390 C   0  0  0  0  0  0  0  0  0  0  0  0
   37.2890   25.2350   41.1130 C   0  0  0  0  0  0  0  0  0  0  0  0
   36.9570   26.6600   41.1950 C   0  0  1  0  0  0  0  0  0  0  0  0
   37.8110   27.4970   39.4450 H   0  0  0  0  0  0  0  0  0  0  0  0
   36.2080   27.0700   37.9070 H   0  0  0  0  0  0  0  0  0  0  0  0
   35.1410   26.2420   39.0660 H   0  0  0  0  0  0  0  0  0  0  0  0
   36.4360   24.3800   38.7260 H   0  0  0  0  0  0  0  0  0  0  0  0
   37.6520   25.3120   37.7900 H   0  0  0  0  0  0  0  0  0  0  0  0
   38.4500   24.0470   39.7680 H   0  0  0  0  0  0  0  0  0  0  0  0
   38.9140   25.8080   39.8520 H   0  0  0  0  0  0  0  0  0  0  0  0
   37.8460   24.7600   41.9280 H   0  0  0  0  0  0  0  0  0  0  0  0
   36.4360   24.5100   40.9310 H   0  0  0  0  0  0  0  0  0  0  0  0
   36.0650   26.4320   41.8130 H   0  0  0  0  0  0  0  0  0  0  0  0
   38.1990   27.0950   41.9210 C   0  0  0  0  0  0  0  0  0  0  0  0
   38.9910   28.1630   41.5670 C   0  0  0  0  0  3  0  0  0  0  0  0
   40.1360   28.5220   42.2400 C   0  0  0  0  0  0  0  0  0  0  0  0
   40.7390   29.3660   41.9380 H   0  0  0  0  0  0  0  0  0  0  0  0
   40.5400   27.8200   43.3090 N   0  0  0  0  0  0  0  0  0  0  0  0
   39.7870   26.7720   43.6800 C   0  0  0  0  0  3  0  0  0  0  0  0
   38.6890   26.4620   43.0000 N   0  0  0  0  0  0  0  0  0  0  0  0
   36.1860   28.6620   40.0540 C   0  0  0  0  0  0  0  0  0  0  0  0
   35.2120   28.8810   40.8230 O   0  0  0  0  0  0  0  0  0  0  0  0
   37.2860   30.6630   37.1980 C   0  0  0  0  0  0  0  0  0  0  0  0
   37.7940   31.8460   37.7670 C   0  0  0  0  0  0  0  0  0  0  0  0
   37.7340   31.9360   39.1640 C   0  0  0  0  0  0  0  0  0  0  0  0
   37.1970   30.8770   39.7860 N   0  0  0  0  0  0  0  0  0  0  0  0
   36.7240   29.7750   39.2580 C   0  0  0  0  0  0  0  0  0  0  0  0
   36.7710   29.6690   37.9120 N   0  0  0  0  0  0  0  0  0  0  0  0
   37.3050   30.5350   36.1280 H   0  0  0  0  0  0  0  0  0  0  0  0
   38.2060   32.6410   37.2040 H   0  0  0  0  0  0  0  0  0  0  0  0
   38.2360   33.1680   39.7710 C   0  0  0  0  0  0  0  0  0  0  0  0
   38.3130   33.0170   41.1440 F   0  0  0  0  0  0  0  0  0  0  0  0
   37.1970   34.0890   39.6180 F   0  0  0  0  0  0  0  0  0  0  0  0
   39.3960   33.5980   39.2500 F   0  0  0  0  0  0  0  0  0  0  0  0
  1  7  1  6  0  0  0
  1 24  1  0  0  0  0
  1  6  1  0  0  0  0
  2  9  1  0  0  0  0
  2  1  1  0  0  0  0
  3  2  1  0  0  0  0
  3  4  1  0  0  0  0
  4 13  1  0  0  0  0
  4  5  1  0  0  0  0
  5  6  1  0  0  0  0
  5 14  1  0  0  0  0
  6 16  1  1  0  0  0
  6 17  1  0  0  0  0
  8  2  1  0  0  0  0
 10  3  1  0  0  0  0
 11  3  1  0  0  0  0
 12  4  1  0  0  0  0
 15  5  1  0  0  0  0
 17 23  1  0  0  0  0
 18 17  2  0  0  0  0
 18 19  1  0  0  0  0
 19 21  2  0  0  0  0
 20 19  1  0  0  0  0
 21 22  1  0  0  0  0
 23 22  2  0  0  0  0
 24 25  2  0  0  0  0
 26 27  2  0  0  0  0
 26 31  1  0  0  0  0
 27 28  1  0  0  0  0
 28 34  1  0  0  0  0
 28 29  2  0  0  0  0
 30 29  1  0  0  0  0
 30 24  1  0  0  0  0
 31 30  2  0  0  0  0
 32 26  1  0  0  0  0
 33 27  1  0  0  0  0
 34 35  1  0  0  0  0
 36 34  1  0  0  0  0
 37 34  1  0  0  0  0
M  END
>  <minimizedAffinity>
-5.42671824

$$$$

 OpenBabel03242518533D

 37 39  0  0  1  0  0  0  0  0999 V2000
   37.4490   25.4310   39.8660 C   0  0  2  0  0  0  0  0  0  0  0  0
   37.7230   24.0350   39.3290 C   0  0  0  0  0  0  0  0  0  0  0  0
   38.6630   23.4320   40.3200 C   0  0  0  0  0  0  0  0  0  0  0  0
   38.8630   24.1210   41.6240 C   0  0  0  0  0  0  0  0  0  0  0  0
   37.4620   24.4140   42.1090 C   0  0  0  0  0  0  0  0  0  0  0  0
   36.9400   25.4540   41.2180 C   0  0  1  0  0  0  0  0  0  0  0  0
   38.5180   25.8060   39.8470 H   0  0  0  0  0  0  0  0  0  0  0  0
   38.1870   24.1520   38.3390 H   0  0  0  0  0  0  0  0  0  0  0  0
   36.7800   23.4810   39.1970 H   0  0  0  0  0  0  0  0  0  0  0  0
   38.2860   22.4030   40.5500 H   0  0  0  0  0  0  0  0  0  0  0  0
   39.6670   23.3130   39.8520 H   0  0  0  0  0  0  0  0  0  0  0  0
   39.3450   23.4240   42.3080 H   0  0  0  0  0  0  0  0  0  0  0  0
   39.4110   25.0810   41.5530 H   0  0  0  0  0  0  0  0  0  0  0  0
   37.5040   24.5960   43.1890 H   0  0  0  0  0  0  0  0  0  0  0  0
   36.9880   23.3850   42.0430 H   0  0  0  0  0  0  0  0  0  0  0  0
   35.8990   25.1280   41.4210 H   0  0  0  0  0  0  0  0  0  0  0  0
   37.4510   26.6340   41.9950 C   0  0  0  0  0  0  0  0  0  0  0  0
   36.7670   27.2790   43.0000 C   0  0  0  0  0  3  0  0  0  0  0  0
   37.2550   28.3720   43.6770 C   0  0  0  0  0  0  0  0  0  0  0  0
   36.6940   28.8590   44.4610 H   0  0  0  0  0  0  0  0  0  0  0  0
   38.4630   28.8700   43.3770 N   0  0  0  0  0  0  0  0  0  0  0  0
   39.1560   28.2610   42.4010 C   0  0  0  0  0  3  0  0  0  0  0  0
   38.6460   27.2090   41.7730 N   0  0  0  0  0  0  0  0  0  0  0  0
   36.6920   26.2830   38.9470 C   0  0  0  0  0  0  0  0  0  0  0  0
   35.6190   25.9030   38.4090 O   0  0  0  0  0  0  0  0  0  0  0  0
   38.5780   29.0050   37.3980 C   0  0  0  0  0  0  0  0  0  0  0  0
   38.1970   30.1550   38.1160 C   0  0  0  0  0  0  0  0  0  0  0  0
   37.2610   29.9630   39.1400 C   0  0  0  0  0  0  0  0  0  0  0  0
   36.8460   28.7010   39.3100 N   0  0  0  0  0  0  0  0  0  0  0  0
   37.1980   27.6300   38.6430 C   0  0  0  0  0  0  0  0  0  0  0  0
   38.0990   27.7930   37.6490 N   0  0  0  0  0  0  0  0  0  0  0  0
   39.2940   29.0900   36.5970 H   0  0  0  0  0  0  0  0  0  0  0  0
   38.5760   31.1240   37.9200 H   0  0  0  0  0  0  0  0  0  0  0  0
   36.8370   31.1500   39.8810 C   0  0  0  0  0  0  0  0  0  0  0  0
   37.6850   31.3620   40.9530 F   0  0  0  0  0  0  0  0  0  0  0  0
   35.6430   30.7740   40.5010 F   0  0  0  0  0  0  0  0  0  0  0  0
   36.7090   32.2500   39.1210 F   0  0  0  0  0  0  0  0  0  0  0  0
  1  7  1  1  0  0  0
  1  6  1  0  0  0  0
  2  1  1  0  0  0  0
  2  3  1  0  0  0  0
  3 10  1  0  0  0  0
  3  4  1  0  0  0  0
  4  5  1  0  0  0  0
  4 12  1  0  0  0  0
  5 14  1  0  0  0  0
  6 16  1  6  0  0  0
  6 17  1  0  0  0  0
  6  5  1  0  0  0  0
  8  2  1  0  0  0  0
  9  2  1  0  0  0  0
 11  3  1  0  0  0  0
 13  4  1  0  0  0  0
 15  5  1  0  0  0  0
 17 18  1  0  0  0  0
 18 19  2  0  0  0  0
 19 20  1  0  0  0  0
 21 19  1  0  0  0  0
 22 21  2  0  0  0  0
 23 17  2  0  0  0  0
 23 22  1  0  0  0  0
 24  1  1  0  0  0  0
 25 24  2  0  0  0  0
 26 31  2  0  0  0  0
 26 27  1  0  0  0  0
 27 28  2  0  0  0  0
 28 29  1  0  0  0  0
 28 34  1  0  0  0  0
 30 24  1  0  0  0  0
 30 29  2  0  0  0  0
 31 30  1  0  0  0  0
 32 26  1  0  0  0  0
 33 27  1  0  0  0  0
 34 36  1  0  0  0  0
 34 35  1  0  0  0  0
 37 34  1  0  0  0  0
M  END
>  <minimizedAffinity>
-5.41525173

$$$$

 OpenBabel03242518533D

 37 39  0  0  1  0  0  0  0  0999 V2000
   38.7410   30.3380   40.1660 C   0  0  2  0  0  0  0  0  0  0  0  0
   39.3750   31.4230   41.0210 C   0  0  0  0  0  0  0  0  0  0  0  0
   38.5730   32.6470   40.7220 C   0  0  0  0  0  0  0  0  0  0  0  0
   37.2890   32.4970   39.9860 C   0  0  0  0  0  0  0  0  0  0  0  0
   36.5740   31.3770   40.7060 C   0  0  0  0  0  0  0  0  0  0  0  0
   37.3250   30.1580   40.3930 C   0  0  1  0  0  0  0  0  0  0  0  0
   38.9140   30.8260   39.1590 H   0  0  0  0  0  0  0  0  0  0  0  0
   40.4200   31.5260   40.6950 H   0  0  0  0  0  0  0  0  0  0  0  0
   39.3780   31.1260   42.0820 H   0  0  0  0  0  0  0  0  0  0  0  0
   38.3300   33.1310   41.7030 H   0  0  0  0  0  0  0  0  0  0  0  0
   39.2000   33.3700   40.1510 H   0  0  0  0  0  0  0  0  0  0  0  0
   36.7220   33.4200   40.0970 H   0  0  0  0  0  0  0  0  0  0  0  0
   37.4050   32.2050   38.9230 H   0  0  0  0  0  0  0  0  0  0  0  0
   35.5080   31.4360   40.4590 H   0  0  0  0  0  0  0  0  0  0  0  0
   36.6090   31.7500   41.7770 H   0  0  0  0  0  0  0  0  0  0  0  0
   36.9730   29.6820   41.3310 H   0  0  0  0  0  0  0  0  0  0  0  0
   36.5890   29.8090   39.1310 C   0  0  0  0  0  0  0  0  0  0  0  0
   35.3040   29.3210   39.0700 C   0  0  0  0  0  3  0  0  0  0  0  0
   34.6660   28.9900   37.8970 C   0  0  0  0  0  0  0  0  0  0  0  0
   33.6560   28.6070   37.8820 H   0  0  0  0  0  0  0  0  0  0  0  0
   35.2930   29.1370   36.7210 N   0  0  0  0  0  0  0  0  0  0  0  0
   36.5480   29.6130   36.7470 C   0  0  0  0  0  3  0  0  0  0  0  0
   37.1250   29.9190   37.9030 N   0  0  0  0  0  0  0  0  0  0  0  0
   39.4890   29.0790   40.1520 C   0  0  0  0  0  0  0  0  0  0  0  0
   40.3420   28.8140   39.2640 O   0  0  0  0  0  0  0  0  0  0  0  0
   39.6240   27.3350   43.3630 C   0  0  0  0  0  0  0  0  0  0  0  0
   38.8190   26.1940   43.1820 C   0  0  0  0  0  0  0  0  0  0  0  0
   38.2190   26.0530   41.9230 C   0  0  0  0  0  0  0  0  0  0  0  0
   38.4910   27.0280   41.0450 N   0  0  0  0  0  0  0  0  0  0  0  0
   39.2400   28.0900   41.2110 C   0  0  0  0  0  0  0  0  0  0  0  0
   39.8260   28.2460   42.4190 N   0  0  0  0  0  0  0  0  0  0  0  0
   40.1110   27.4980   44.3100 H   0  0  0  0  0  0  0  0  0  0  0  0
   38.6540   25.4640   43.9300 H   0  0  0  0  0  0  0  0  0  0  0  0
   37.3620   24.8860   41.7250 C   0  0  0  0  0  0  0  0  0  0  0  0
   36.6050   25.0490   40.5790 F   0  0  0  0  0  0  0  0  0  0  0  0
   36.4070   24.9700   42.7420 F   0  0  0  0  0  0  0  0  0  0  0  0
   38.0240   23.7180   41.7250 F   0  0  0  0  0  0  0  0  0  0  0  0
  1  7  1  6  0  0  0
  1  6  1  0  0  0  0
  1  2  1  0  0  0  0
  2  9  1  0  0  0  0
  3  2  1  0  0  0  0
  3 10  1  0  0  0  0
  4 12  1  0  0  0  0
  4  5  1  0  0  0  0
  4  3  1  0  0  0  0
  5 15  1  0  0  0  0
  6  5  1  0  0  0  0
  6 16  1  1  0  0  0
  8  2  1  0  0  0  0
 11  3  1  0  0  0  0
 13  4  1  0  0  0  0
 14  5  1  0  0  0  0
 17  6  1  0  0  0  0
 18 17  1  0  0  0  0
 19 18  2  0  0  0  0
 20 19  1  0  0  0  0
 21 22  2  0  0  0  0
 21 19  1  0  0  0  0
 22 23  1  0  0  0  0
 23 17  2  0  0  0  0
 24  1  1  0  0  0  0
 24 30  1  0  0  0  0
 25 24  2  0  0  0  0
 26 32  1  0  0  0  0
 27 26  1  0  0  0  0
 27 33  1  0  0  0  0
 28 27  2  0  0  0  0
 29 30  2  0  0  0  0
 29 28  1  0  0  0  0
 30 31  1  0  0  0  0
 31 26  2  0  0  0  0
 34 37  1  0  0  0  0
 34 28  1  0  0  0  0
 34 36  1  0  0  0  0
 35 34  1  0  0  0  0
M  END
>  <minimizedAffinity>
-5.35498333

$$$$
