
 OpenBabel03242514373D

 31 33  0  0  0  0  0  0  0  0999 V2000
   47.2880   33.9300   39.4130 C   0  0  0  0  0  0  0  0  0  0  0  0
   46.2040   33.4120   39.8770 O   0  0  0  0  0  0  0  0  0  0  0  0
   47.4320   33.4290   38.0420 C   0  0  0  0  0  0  0  0  0  0  0  0
   46.4650   32.7460   37.2540 C   0  0  0  0  0  0  0  0  0  0  0  0
   46.8770   32.3880   36.0070 C   0  0  0  0  0  0  0  0  0  0  0  0
   48.1110   32.6600   35.5510 C   0  0  0  0  0  0  0  0  0  0  0  0
   48.8840   33.5590   37.0420 S   0  0  0  0  0  0  0  0  0  0  0  0
   45.4940   32.5620   37.6840 H   0  0  0  0  0  0  0  0  0  0  0  0
   46.2290   31.8630   35.3170 H   0  0  0  0  0  0  0  0  0  0  0  0
   48.8260   32.4370   34.3610 C   0  0  0  0  0  0  0  0  0  0  0  0
   49.7840   31.4470   34.4160 C   0  0  0  0  0  0  0  0  0  0  0  0
   50.5310   31.1720   33.2720 C   0  0  0  0  0  0  0  0  0  0  0  0
   51.2840   30.4060   33.2860 H   0  0  0  0  0  0  0  0  0  0  0  0
   50.2740   31.8950   32.1720 N   0  0  0  0  0  0  0  0  0  0  0  0
   49.3170   32.8660   32.1610 C   0  0  0  0  0  0  0  0  0  0  0  0
   48.5650   33.1640   33.2590 N   0  0  0  0  0  0  0  0  0  0  0  0
   47.8830   34.7230   40.3210 O   0  0  0  0  0  0  0  0  0  0  0  0
   49.3230   35.4690   42.3240 O   0  0  0  0  0  0  0  0  0  0  0  0
   48.7150   34.2610   41.6820 P   0  0  2  0  0  0  0  0  0  0  0  0
   49.9640   33.2420   41.2320 O   0  0  0  0  0  0  0  0  0  0  0  0
   50.7280   33.7650   40.8890 H   0  0  0  0  0  0  0  0  0  0  0  0
   47.6360   33.4830   42.7760 O   0  0  0  0  0  0  0  0  0  0  0  0
   46.1050   35.3130   42.7690 C   0  0  0  0  0  0  0  0  0  0  0  0
   46.6320   34.1980   43.4220 C   0  0  0  0  0  0  0  0  0  0  0  0
   46.1400   33.8480   44.6800 C   0  0  0  0  0  0  0  0  0  0  0  0
   45.1510   34.6340   45.2090 N   0  0  0  0  0  0  0  0  0  0  0  0
   44.6590   35.7030   44.5600 C   0  0  0  0  0  0  0  0  0  0  0  0
   45.1370   36.0290   43.3550 N   0  0  0  0  0  0  0  0  0  0  0  0
   46.4070   35.6700   41.8050 H   0  0  0  0  0  0  0  0  0  0  0  0
   46.5640   32.9880   45.1590 H   0  0  0  0  0  0  0  0  0  0  0  0
   43.8810   36.2070   45.1270 H   0  0  0  0  0  0  0  0  0  0  0  0
  1  2  2  0  0  0  0
  1 17  1  0  0  0  0
  3  1  1  0  0  0  0
  4  8  1  0  0  0  0
  4  3  2  0  0  0  0
  5  4  1  0  0  0  0
  6  5  2  0  0  0  0
  6  7  1  0  0  0  0
  7  3  1  0  0  0  0
  9  5  1  0  0  0  0
 10 11  1  0  0  0  0
 10  6  1  0  0  0  0
 12 13  1  0  0  0  0
 12 11  2  0  0  0  0
 14 12  1  0  0  0  0
 15 14  2  0  0  0  0
 15 16  1  0  0  0  0
 16 10  2  0  0  0  0
 17 19  1  0  0  0  0
 19 18  2  1  0  0  0
 19 22  1  0  0  0  0
 20 19  1  0  0  0  0
 21 20  1  0  0  0  0
 22 24  1  0  0  0  0
 23 28  2  0  0  0  0
 23 24  1  0  0  0  0
 24 25  2  0  0  0  0
 25 30  1  0  0  0  0
 25 26  1  0  0  0  0
 27 31  1  0  0  0  0
 27 26  2  0  0  0  0
 28 27  1  0  0  0  0
 29 23  1  0  0  0  0
M  END
>  <minimizedAffinity>
-5.43988276

>  <minimizedRMSD>
2.02742553

$$$$
