
 OpenBabel03252509163D

 23 25  0  0  0  0  0  0  0  0999 V2000
   46.0510   32.9180   45.9770 C   0  0  0  0  0  0  0  0  0  0  0  0
   45.6770   32.6860   47.3310 C   0  0  0  0  0  0  0  0  0  0  0  0
   46.1520   31.5670   47.9390 C   0  0  0  0  0  0  0  0  0  0  0  0
   46.9910   30.6860   47.2110 C   0  0  0  0  0  0  0  0  0  0  0  0
   47.1130   31.4880   45.5750 S   0  0  0  0  0  0  0  0  0  0  0  0
   45.0360   33.3850   47.8490 H   0  0  0  0  0  0  0  0  0  0  0  0
   45.9490   31.2790   48.9420 H   0  0  0  0  0  0  0  0  0  0  0  0
   44.4620   36.0340   44.7440 C   0  0  0  0  0  0  0  0  0  0  0  0
   45.0390   36.0950   43.4490 C   0  0  0  0  0  0  0  0  0  0  0  0
   45.9300   35.0870   43.0630 C   0  0  0  0  0  0  0  0  0  0  0  0
   46.1930   34.0910   43.9700 N   0  0  0  0  0  0  0  0  0  0  0  0
   45.6170   34.0760   45.1940 C   0  0  0  0  0  0  0  0  0  0  0  0
   44.7520   35.0450   45.5840 N   0  0  0  0  0  0  0  0  0  0  0  0
   43.7910   36.8170   44.9980 H   0  0  0  0  0  0  0  0  0  0  0  0
   44.8380   36.8750   42.7280 H   0  0  0  0  0  0  0  0  0  0  0  0
   46.4130   35.0570   42.0970 H   0  0  0  0  0  0  0  0  0  0  0  0
   47.6210   29.4980   47.5300 C   0  0  0  0  0  0  0  0  0  0  0  0
   47.0370   28.2960   47.1910 C   0  0  0  0  0  0  0  0  0  0  0  0
   47.7210   27.1250   47.5380 C   0  0  0  0  0  0  0  0  0  0  0  0
   47.2720   26.1800   47.2780 H   0  0  0  0  0  0  0  0  0  0  0  0
   48.9130   27.2120   48.1850 N   0  0  0  0  0  0  0  0  0  0  0  0
   49.4550   28.4020   48.4990 C   0  0  0  0  0  0  0  0  0  0  0  0
   48.8010   29.5530   48.1690 N   0  0  0  0  0  0  0  0  0  0  0  0
  1  2  2  0  0  0  0
  2  6  1  0  0  0  0
  2  3  1  0  0  0  0
  3  7  1  0  0  0  0
  4 17  1  0  0  0  0
  4  3  2  0  0  0  0
  5  1  1  0  0  0  0
  5  4  1  0  0  0  0
  8 14  1  0  0  0  0
  8 13  1  0  0  0  0
  9  8  2  0  0  0  0
 10  9  1  0  0  0  0
 10 11  2  0  0  0  0
 11 12  1  0  0  0  0
 12 13  2  0  0  0  0
 12  1  1  0  0  0  0
 15  9  1  0  0  0  0
 16 10  1  0  0  0  0
 17 23  1  0  0  0  0
 18 17  2  0  0  0  0
 18 19  1  0  0  0  0
 19 21  2  0  0  0  0
 20 19  1  0  0  0  0
 21 22  1  0  0  0  0
 23 22  2  0  0  0  0
M  END
>  <minimizedAffinity>
-4.54635239

>  <minimizedRMSD>
1.43269742

$$$$
