
 OpenBabel03252505133D

 42 45  0  0  1  0  0  0  0  0999 V2000
   36.3920   30.2050   38.8420 C   0  0  0  0  0  0  0  0  0  0  0  0
   37.0480   31.4570   38.9120 C   0  0  0  0  0  0  0  0  0  0  0  0
   38.1090   31.6000   39.8360 C   0  0  0  0  0  0  0  0  0  0  0  0
   38.4550   30.5390   40.6130 N   0  0  0  0  0  0  0  0  0  0  0  0
   37.8050   29.3660   40.5150 C   0  0  0  0  0  0  0  0  0  0  0  0
   36.7720   29.1910   39.6320 N   0  0  0  0  0  0  0  0  0  0  0  0
   35.5880   30.0210   38.1760 H   0  0  0  0  0  0  0  0  0  0  0  0
   36.7290   32.2700   38.2640 H   0  0  0  0  0  0  0  0  0  0  0  0
   38.2180   28.2310   41.3900 C   0  0  2  0  0  0  0  0  0  0  0  0
   38.1890   27.0120   40.4930 C   0  0  0  0  0  0  0  0  0  0  0  0
   37.0580   26.1000   40.7000 C   0  0  0  0  0  0  0  0  0  0  0  0
   37.1150   25.7210   42.1760 C   0  0  0  0  0  0  0  0  0  0  0  0
   36.8210   26.8620   43.0350 C   0  0  0  0  0  0  0  0  0  0  0  0
   37.4210   28.1480   42.5820 C   0  0  0  0  0  0  0  0  0  0  0  0
   39.2810   28.4520   41.6700 H   0  0  0  0  0  0  0  0  0  0  0  0
   38.2650   27.2810   39.4060 H   0  0  0  0  0  0  0  0  0  0  0  0
   39.1260   26.4350   40.7110 H   0  0  0  0  0  0  0  0  0  0  0  0
   37.2030   25.2070   40.0920 H   0  0  0  0  0  0  0  0  0  0  0  0
   36.1080   26.6070   40.4590 H   0  0  0  0  0  0  0  0  0  0  0  0
   38.0910   25.2520   42.3780 H   0  0  0  0  0  0  0  0  0  0  0  0
   36.2740   25.0050   42.3350 H   0  0  0  0  0  0  0  0  0  0  0  0
   36.2770   27.0630   43.9400 H   0  0  0  0  0  0  0  0  0  0  0  0
   37.2110   29.3390   43.3390 N   0  0  0  0  0  0  0  0  0  0  0  0
   36.5310   30.1140   43.3450 H   0  0  0  0  0  0  0  0  0  0  0  0
   37.8090   29.6570   44.1290 H   0  0  0  0  0  0  0  0  0  0  0  0
   38.7980   32.8700   39.9220 C   0  0  0  0  0  0  0  0  0  0  0  0
   38.0430   34.0050   40.0740 C   0  0  0  0  0  0  0  0  0  0  0  0
   38.7650   35.2110   40.1510 C   0  0  0  0  0  0  0  0  0  0  0  0
   40.1280   35.1360   40.0700 C   0  0  0  0  0  0  0  0  0  0  0  0
   40.8920   34.0080   39.9190 C   0  0  0  0  0  0  0  0  0  0  0  0
   40.1500   32.8570   39.8480 N   0  0  0  0  0  0  0  0  0  0  0  0
   36.9740   34.0040   40.1320 H   0  0  0  0  0  0  0  0  0  0  0  0
   38.2260   36.1400   40.2700 H   0  0  0  0  0  0  0  0  0  0  0  0
   40.6150   36.0930   40.1360 H   0  0  0  0  0  0  0  0  0  0  0  0
   42.2560   33.9920   39.8430 O   0  0  0  0  0  0  0  0  0  0  0  0
   43.0800   34.4310   40.8160 C   0  0  0  0  0  0  0  0  0  0  0  0
   44.3470   34.1290   40.2670 C   0  0  0  0  0  3  0  0  0  0  0  0
   45.5380   34.4230   40.9590 C   0  0  0  0  0  0  0  0  0  0  0  0
   46.5740   34.2550   40.6720 H   0  0  0  0  0  0  0  0  0  0  0  0
   45.4650   35.0070   42.1720 N   0  0  0  0  0  0  0  0  0  0  0  0
   44.2580   35.2850   42.6760 C   0  0  0  0  0  3  0  0  0  0  0  0
   43.1160   35.0210   42.0490 N   0  0  0  0  0  0  0  0  0  0  0  0
  1  2  2  0  0  0  0
  1  6  1  0  0  0  0
  2  3  1  0  0  0  0
  3 26  1  0  0  0  0
  3  4  2  0  0  0  0
  5  4  1  0  0  0  0
  5  9  1  0  0  0  0
  6  5  2  0  0  0  0
  7  1  1  0  0  0  0
  8  2  1  0  0  0  0
  9 15  1  1  0  0  0
  9 14  1  0  0  0  0
 10 11  1  0  0  0  0
 10 17  1  0  0  0  0
 10  9  1  0  0  0  0
 11 12  1  0  0  0  0
 12 21  1  0  0  0  0
 12 20  1  0  0  0  0
 12 13  1  0  0  0  0
 13 22  1  0  0  0  0
 14 13  2  0  0  0  0
 14 23  1  0  0  0  0
 16 10  1  0  0  0  0
 18 11  1  0  0  0  0
 19 11  1  0  0  0  0
 23 24  1  0  0  0  0
 23 25  1  0  0  0  0
 26 27  1  0  0  0  0
 27 32  1  0  0  0  0
 27 28  2  0  0  0  0
 28 33  1  0  0  0  0
 29 34  1  0  0  0  0
 29 28  1  0  0  0  0
 30 29  2  0  0  0  0
 31 30  1  0  0  0  0
 31 26  2  0  0  0  0
 35 30  1  0  0  0  0
 35 36  1  0  0  0  0
 36 42  1  0  0  0  0
 37 36  2  0  0  0  0
 37 38  1  0  0  0  0
 38 40  2  0  0  0  0
 39 38  1  0  0  0  0
 40 41  1  0  0  0  0
 42 41  2  0  0  0  0
M  END
>  <minimizedAffinity>
-6.81876612

$$$$

 OpenBabel03252505133D

 42 45  0  0  1  0  0  0  0  0999 V2000
   40.0660   35.0370   39.9690 C   0  0  0  0  0  0  0  0  0  0  0  0
   39.0800   34.1090   40.3790 C   0  0  0  0  0  0  0  0  0  0  0  0
   39.3730   32.7300   40.2530 C   0  0  0  0  0  0  0  0  0  0  0  0
   40.5790   32.3550   39.7500 N   0  0  0  0  0  0  0  0  0  0  0  0
   41.4880   33.2710   39.3710 C   0  0  0  0  0  0  0  0  0  0  0  0
   41.2400   34.6140   39.4780 N   0  0  0  0  0  0  0  0  0  0  0  0
   39.9210   36.0850   40.0320 H   0  0  0  0  0  0  0  0  0  0  0  0
   38.1340   34.4670   40.7760 H   0  0  0  0  0  0  0  0  0  0  0  0
   42.7970   32.8120   38.8220 C   0  0  2  0  0  0  0  0  0  0  0  0
   43.6190   32.4280   40.0330 C   0  0  0  0  0  0  0  0  0  0  0  0
   44.6790   33.3720   40.4050 C   0  0  0  0  0  0  0  0  0  0  0  0
   45.5400   33.5190   39.1540 C   0  0  0  0  0  0  0  0  0  0  0  0
   44.8170   34.1910   38.0810 C   0  0  0  0  0  0  0  0  0  0  0  0
   43.3890   33.7850   37.9490 C   0  0  0  0  0  0  0  0  0  0  0  0
   42.5570   31.8850   38.2370 H   0  0  0  0  0  0  0  0  0  0  0  0
   42.9810   32.2040   40.9290 H   0  0  0  0  0  0  0  0  0  0  0  0
   44.1150   31.4520   39.7850 H   0  0  0  0  0  0  0  0  0  0  0  0
   45.2780   32.9410   41.2070 H   0  0  0  0  0  0  0  0  0  0  0  0
   44.2430   34.3420   40.7000 H   0  0  0  0  0  0  0  0  0  0  0  0
   45.9240   32.5250   38.8770 H   0  0  0  0  0  0  0  0  0  0  0  0
   46.3650   34.2150   39.4370 H   0  0  0  0  0  0  0  0  0  0  0  0
   45.0140   34.9240   37.3210 H   0  0  0  0  0  0  0  0  0  0  0  0
   42.5740   34.3670   36.9330 N   0  0  0  0  0  0  0  0  0  0  0  0
   41.9400   35.1770   36.8510 H   0  0  0  0  0  0  0  0  0  0  0  0
   42.4800   34.0040   35.9620 H   0  0  0  0  0  0  0  0  0  0  0  0
   38.3810   31.7620   40.6690 C   0  0  0  0  0  0  0  0  0  0  0  0
   37.1470   31.8050   40.0720 C   0  0  0  0  0  0  0  0  0  0  0  0
   36.2220   30.8400   40.5160 C   0  0  0  0  0  0  0  0  0  0  0  0
   36.6370   29.9670   41.4840 C   0  0  0  0  0  0  0  0  0  0  0  0
   37.8670   29.9160   42.0860 C   0  0  0  0  0  0  0  0  0  0  0  0
   38.7360   30.8710   41.6250 N   0  0  0  0  0  0  0  0  0  0  0  0
   36.8760   32.5130   39.3160 H   0  0  0  0  0  0  0  0  0  0  0  0
   35.2320   30.8230   40.0840 H   0  0  0  0  0  0  0  0  0  0  0  0
   35.8810   29.2600   41.7750 H   0  0  0  0  0  0  0  0  0  0  0  0
   38.2280   29.0190   43.0510 O   0  0  0  0  0  0  0  0  0  0  0  0
   38.3420   27.6900   42.8550 C   0  0  0  0  0  0  0  0  0  0  0  0
   39.5360   27.4050   43.5550 C   0  0  0  0  0  3  0  0  0  0  0  0
   40.0560   26.0970   43.6210 C   0  0  0  0  0  0  0  0  0  0  0  0
   40.9510   25.7240   44.1150 H   0  0  0  0  0  0  0  0  0  0  0  0
   39.3980   25.0970   43.0010 N   0  0  0  0  0  0  0  0  0  0  0  0
   38.2700   25.3860   42.3430 C   0  0  0  0  0  3  0  0  0  0  0  0
   37.7530   26.6080   42.2620 N   0  0  0  0  0  0  0  0  0  0  0  0
  1  7  1  0  0  0  0
  1  2  1  0  0  0  0
  2  8  1  0  0  0  0
  3  2  2  0  0  0  0
  3 26  1  0  0  0  0
  4  3  1  0  0  0  0
  5  6  1  0  0  0  0
  5  4  2  0  0  0  0
  6  1  2  0  0  0  0
  9 15  1  6  0  0  0
  9  5  1  0  0  0  0
  9 10  1  0  0  0  0
 10 11  1  0  0  0  0
 10 16  1  0  0  0  0
 11 19  1  0  0  0  0
 11 18  1  0  0  0  0
 12 21  1  0  0  0  0
 12 11  1  0  0  0  0
 13 12  1  0  0  0  0
 14 13  2  0  0  0  0
 14  9  1  0  0  0  0
 17 10  1  0  0  0  0
 20 12  1  0  0  0  0
 22 13  1  0  0  0  0
 23 14  1  0  0  0  0
 24 23  1  0  0  0  0
 25 23  1  0  0  0  0
 26 31  1  0  0  0  0
 27 28  1  0  0  0  0
 27 26  2  0  0  0  0
 28 29  2  0  0  0  0
 29 34  1  0  0  0  0
 29 30  1  0  0  0  0
 30 35  1  0  0  0  0
 31 30  2  0  0  0  0
 32 27  1  0  0  0  0
 33 28  1  0  0  0  0
 36 35  1  0  0  0  0
 36 37  1  0  0  0  0
 37 38  2  0  0  0  0
 38 39  1  0  0  0  0
 40 38  1  0  0  0  0
 41 40  2  0  0  0  0
 42 41  1  0  0  0  0
 42 36  2  0  0  0  0
M  END
>  <minimizedAffinity>
-6.65455437

$$$$

 OpenBabel03252505133D

 42 45  0  0  1  0  0  0  0  0999 V2000
   36.1990   25.3620   38.9610 C   0  0  0  0  0  0  0  0  0  0  0  0
   36.3280   26.6880   38.4860 C   0  0  0  0  0  0  0  0  0  0  0  0
   36.9030   27.6500   39.3490 C   0  0  0  0  0  0  0  0  0  0  0  0
   37.3060   27.2650   40.5890 N   0  0  0  0  0  0  0  0  0  0  0  0
   37.1650   25.9930   41.0020 C   0  0  0  0  0  0  0  0  0  0  0  0
   36.6120   25.0350   40.1940 N   0  0  0  0  0  0  0  0  0  0  0  0
   35.7780   24.5860   38.3730 H   0  0  0  0  0  0  0  0  0  0  0  0
   35.9890   26.9370   37.4830 H   0  0  0  0  0  0  0  0  0  0  0  0
   37.6200   25.6190   42.3720 C   0  0  2  0  0  0  0  0  0  0  0  0
   37.8490   26.9350   43.0840 C   0  0  0  0  0  0  0  0  0  0  0  0
   39.2530   27.3190   43.2700 C   0  0  0  0  0  0  0  0  0  0  0  0
   39.8920   26.1500   44.0120 C   0  0  0  0  0  0  0  0  0  0  0  0
   39.9520   24.9540   43.1800 C   0  0  0  0  0  0  0  0  0  0  0  0
   38.7400   24.7210   42.3440 C   0  0  0  0  0  0  0  0  0  0  0  0
   36.7410   25.1010   42.8390 H   0  0  0  0  0  0  0  0  0  0  0  0
   37.2850   27.7810   42.6090 H   0  0  0  0  0  0  0  0  0  0  0  0
   37.3950   26.8280   44.1050 H   0  0  0  0  0  0  0  0  0  0  0  0
   39.3000   28.2120   43.8940 H   0  0  0  0  0  0  0  0  0  0  0  0
   39.7390   27.4790   42.2920 H   0  0  0  0  0  0  0  0  0  0  0  0
   39.3540   26.0040   44.9630 H   0  0  0  0  0  0  0  0  0  0  0  0
   40.9540   26.4470   44.1820 H   0  0  0  0  0  0  0  0  0  0  0  0
   40.6380   24.1520   42.9810 H   0  0  0  0  0  0  0  0  0  0  0  0
   38.6720   23.5810   41.4900 N   0  0  0  0  0  0  0  0  0  0  0  0
   38.9060   23.3640   40.5090 H   0  0  0  0  0  0  0  0  0  0  0  0
   38.3190   22.6440   41.7720 H   0  0  0  0  0  0  0  0  0  0  0  0
   37.0480   29.0120   38.8840 C   0  0  0  0  0  0  0  0  0  0  0  0
   37.0450   29.2360   37.5310 C   0  0  0  0  0  0  0  0  0  0  0  0
   37.1910   30.5800   37.1350 C   0  0  0  0  0  0  0  0  0  0  0  0
   37.3190   31.5170   38.1230 C   0  0  0  0  0  0  0  0  0  0  0  0
   37.3230   31.3040   39.4770 C   0  0  0  0  0  0  0  0  0  0  0  0
   37.1790   29.9840   39.8180 N   0  0  0  0  0  0  0  0  0  0  0  0
   36.9410   28.4600   36.8000 H   0  0  0  0  0  0  0  0  0  0  0  0
   37.1970   30.8210   36.0820 H   0  0  0  0  0  0  0  0  0  0  0  0
   37.4260   32.5200   37.7500 H   0  0  0  0  0  0  0  0  0  0  0  0
   37.4550   32.2820   40.4220 O   0  0  0  0  0  0  0  0  0  0  0  0
   38.3280   33.3060   40.3440 C   0  0  0  0  0  0  0  0  0  0  0  0
   39.5590   32.6400   40.5460 C   0  0  0  0  0  3  0  0  0  0  0  0
   40.7820   33.3390   40.5460 C   0  0  0  0  0  0  0  0  0  0  0  0
   41.7980   32.9720   40.6840 H   0  0  0  0  0  0  0  0  0  0  0  0
   40.7760   34.6730   40.3490 N   0  0  0  0  0  0  0  0  0  0  0  0
   39.6030   35.2860   40.1600 C   0  0  0  0  0  3  0  0  0  0  0  0
   38.4320   34.6570   40.1540 N   0  0  0  0  0  0  0  0  0  0  0  0
  1  6  1  0  0  0  0
  2  1  2  0  0  0  0
  2  3  1  0  0  0  0
  3  4  2  0  0  0  0
  4  5  1  0  0  0  0
  5  9  1  0  0  0  0
  6  5  2  0  0  0  0
  7  1  1  0  0  0  0
  8  2  1  0  0  0  0
  9 15  1  1  0  0  0
  9 10  1  0  0  0  0
 10 11  1  0  0  0  0
 10 17  1  0  0  0  0
 11 18  1  0  0  0  0
 11 12  1  0  0  0  0
 12 21  1  0  0  0  0
 12 20  1  0  0  0  0
 13 12  1  0  0  0  0
 14  9  1  0  0  0  0
 14 13  2  0  0  0  0
 16 10  1  0  0  0  0
 19 11  1  0  0  0  0
 22 13  1  0  0  0  0
 23 25  1  0  0  0  0
 23 14  1  0  0  0  0
 24 23  1  0  0  0  0
 26  3  1  0  0  0  0
 26 31  1  0  0  0  0
 27 26  2  0  0  0  0
 28 27  1  0  0  0  0
 28 29  2  0  0  0  0
 29 30  1  0  0  0  0
 30 31  2  0  0  0  0
 30 35  1  0  0  0  0
 32 27  1  0  0  0  0
 33 28  1  0  0  0  0
 34 29  1  0  0  0  0
 36 35  1  0  0  0  0
 36 37  1  0  0  0  0
 38 37  2  0  0  0  0
 38 39  1  0  0  0  0
 40 38  1  0  0  0  0
 41 40  2  0  0  0  0
 42 41  1  0  0  0  0
 42 36  2  0  0  0  0
M  END
>  <minimizedAffinity>
-6.58130646

$$$$

 OpenBabel03252505133D

 42 45  0  0  1  0  0  0  0  0999 V2000
   36.2510   31.1530   40.6970 C   0  0  0  0  0  0  0  0  0  0  0  0
   37.1960   32.1780   40.4590 C   0  0  0  0  0  0  0  0  0  0  0  0
   38.5410   31.9390   40.8270 C   0  0  0  0  0  0  0  0  0  0  0  0
   38.8690   30.7450   41.3890 N   0  0  0  0  0  0  0  0  0  0  0  0
   37.9390   29.7980   41.5990 C   0  0  0  0  0  0  0  0  0  0  0  0
   36.6270   29.9930   41.2550 N   0  0  0  0  0  0  0  0  0  0  0  0
   35.2250   31.2570   40.4490 H   0  0  0  0  0  0  0  0  0  0  0  0
   36.8760   33.1120   40.0040 H   0  0  0  0  0  0  0  0  0  0  0  0
   38.3450   28.5050   42.2210 C   0  0  2  0  0  0  0  0  0  0  0  0
   38.5810   27.5650   41.0580 C   0  0  0  0  0  0  0  0  0  0  0  0
   37.5410   26.5540   40.8390 C   0  0  0  0  0  0  0  0  0  0  0  0
   37.4270   25.8050   42.1640 C   0  0  0  0  0  0  0  0  0  0  0  0
   36.8880   26.6560   43.2170 C   0  0  0  0  0  0  0  0  0  0  0  0
   37.4000   28.0560   43.2040 C   0  0  0  0  0  0  0  0  0  0  0  0
   39.3270   28.7190   42.7200 H   0  0  0  0  0  0  0  0  0  0  0  0
   38.7820   28.1150   40.1000 H   0  0  0  0  0  0  0  0  0  0  0  0
   39.5360   27.0180   41.2790 H   0  0  0  0  0  0  0  0  0  0  0  0
   37.8700   25.8640   40.0620 H   0  0  0  0  0  0  0  0  0  0  0  0
   36.5840   27.0370   40.5760 H   0  0  0  0  0  0  0  0  0  0  0  0
   38.4100   25.3690   42.4030 H   0  0  0  0  0  0  0  0  0  0  0  0
   36.6570   25.0150   41.9970 H   0  0  0  0  0  0  0  0  0  0  0  0
   36.2010   26.5740   44.0390 H   0  0  0  0  0  0  0  0  0  0  0  0
   36.9530   28.9880   44.1870 N   0  0  0  0  0  0  0  0  0  0  0  0
   36.1970   29.6840   44.2710 H   0  0  0  0  0  0  0  0  0  0  0  0
   37.3920   29.1280   45.1200 H   0  0  0  0  0  0  0  0  0  0  0  0
   39.5270   32.9720   40.5900 C   0  0  0  0  0  0  0  0  0  0  0  0
   39.0820   34.2420   40.3300 C   0  0  0  0  0  0  0  0  0  0  0  0
   40.0850   35.2050   40.1060 C   0  0  0  0  0  0  0  0  0  0  0  0
   41.3850   34.7880   40.1690 C   0  0  0  0  0  0  0  0  0  0  0  0
   41.8410   33.5210   40.4280 C   0  0  0  0  0  0  0  0  0  0  0  0
   40.8330   32.6160   40.6400 N   0  0  0  0  0  0  0  0  0  0  0  0
   38.0470   34.5130   40.2930 H   0  0  0  0  0  0  0  0  0  0  0  0
   39.7970   36.2250   39.8950 H   0  0  0  0  0  0  0  0  0  0  0  0
   42.0970   35.5730   39.9880 H   0  0  0  0  0  0  0  0  0  0  0  0
   43.1570   33.1590   40.4790 O   0  0  0  0  0  0  0  0  0  0  0  0
   44.0070   33.2190   39.4340 C   0  0  0  0  0  0  0  0  0  0  0  0
   43.8350   31.9380   38.8600 C   0  0  0  0  0  3  0  0  0  0  0  0
   44.5470   31.5460   37.7090 C   0  0  0  0  0  0  0  0  0  0  0  0
   44.5230   30.6080   37.1570 H   0  0  0  0  0  0  0  0  0  0  0  0
   45.4120   32.4140   37.1450 N   0  0  0  0  0  0  0  0  0  0  0  0
   45.5620   33.6200   37.7020 C   0  0  0  0  0  3  0  0  0  0  0  0
   44.9050   34.0210   38.7860 N   0  0  0  0  0  0  0  0  0  0  0  0
  1  6  1  0  0  0  0
  2  1  2  0  0  0  0
  2  3  1  0  0  0  0
  3  4  2  0  0  0  0
  4  5  1  0  0  0  0
  5  9  1  0  0  0  0
  6  5  2  0  0  0  0
  7  1  1  0  0  0  0
  8  2  1  0  0  0  0
  9 15  1  1  0  0  0
  9 14  1  0  0  0  0
 10 17  1  0  0  0  0
 10  9  1  0  0  0  0
 11 10  1  0  0  0  0
 11 12  1  0  0  0  0
 12 20  1  0  0  0  0
 12 13  1  0  0  0  0
 13 22  1  0  0  0  0
 14 13  2  0  0  0  0
 14 23  1  0  0  0  0
 16 10  1  0  0  0  0
 18 11  1  0  0  0  0
 19 11  1  0  0  0  0
 21 12  1  0  0  0  0
 23 24  1  0  0  0  0
 23 25  1  0  0  0  0
 26 31  1  0  0  0  0
 26  3  1  0  0  0  0
 27 26  2  0  0  0  0
 28 29  2  0  0  0  0
 28 27  1  0  0  0  0
 29 30  1  0  0  0  0
 30 35  1  0  0  0  0
 30 31  2  0  0  0  0
 32 27  1  0  0  0  0
 33 28  1  0  0  0  0
 34 29  1  0  0  0  0
 36 35  1  0  0  0  0
 37 36  1  0  0  0  0
 38 37  2  0  0  0  0
 39 38  1  0  0  0  0
 40 41  2  0  0  0  0
 40 38  1  0  0  0  0
 41 42  1  0  0  0  0
 42 36  2  0  0  0  0
M  END
>  <minimizedAffinity>
-6.53971195

$$$$

 OpenBabel03252505133D

 42 45  0  0  1  0  0  0  0  0999 V2000
   36.1890   30.7940   40.4970 C   0  0  0  0  0  0  0  0  0  0  0  0
   37.0250   31.9240   40.3350 C   0  0  0  0  0  0  0  0  0  0  0  0
   38.3490   31.8460   40.8260 C   0  0  0  0  0  0  0  0  0  0  0  0
   38.7640   30.6980   41.4270 N   0  0  0  0  0  0  0  0  0  0  0  0
   37.9360   29.6470   41.5600 C   0  0  0  0  0  0  0  0  0  0  0  0
   36.6470   29.6860   41.0980 N   0  0  0  0  0  0  0  0  0  0  0  0
   35.1850   30.7760   40.1560 H   0  0  0  0  0  0  0  0  0  0  0  0
   36.6390   32.8140   39.8450 H   0  0  0  0  0  0  0  0  0  0  0  0
   38.4340   28.4100   42.2290 C   0  0  2  0  0  0  0  0  0  0  0  0
   38.8140   27.4780   41.0990 C   0  0  0  0  0  0  0  0  0  0  0  0
   37.8860   26.3670   40.8550 C   0  0  0  0  0  0  0  0  0  0  0  0
   37.7820   25.6340   42.1890 C   0  0  0  0  0  0  0  0  0  0  0  0
   37.1130   26.4480   43.1970 C   0  0  0  0  0  0  0  0  0  0  0  0
   37.4900   27.8900   43.1770 C   0  0  0  0  0  0  0  0  0  0  0  0
   39.3660   28.7270   42.7680 H   0  0  0  0  0  0  0  0  0  0  0  0
   39.0070   28.0270   40.1390 H   0  0  0  0  0  0  0  0  0  0  0  0
   39.8050   27.0290   41.3750 H   0  0  0  0  0  0  0  0  0  0  0  0
   38.3160   25.6990   40.1090 H   0  0  0  0  0  0  0  0  0  0  0  0
   36.9020   26.7520   40.5380 H   0  0  0  0  0  0  0  0  0  0  0  0
   38.7890   25.3000   42.4830 H   0  0  0  0  0  0  0  0  0  0  0  0
   37.0990   24.7710   42.0040 H   0  0  0  0  0  0  0  0  0  0  0  0
   36.3990   26.3140   43.9890 H   0  0  0  0  0  0  0  0  0  0  0  0
   36.9090   28.7910   44.1180 N   0  0  0  0  0  0  0  0  0  0  0  0
   36.0870   29.4130   44.1520 H   0  0  0  0  0  0  0  0  0  0  0  0
   37.2880   28.9900   45.0660 H   0  0  0  0  0  0  0  0  0  0  0  0
   39.2240   32.9880   40.6690 C   0  0  0  0  0  0  0  0  0  0  0  0
   38.6520   34.2120   40.4340 C   0  0  0  0  0  0  0  0  0  0  0  0
   39.5510   35.2860   40.2880 C   0  0  0  0  0  0  0  0  0  0  0  0
   40.8860   35.0100   40.3950 C   0  0  0  0  0  0  0  0  0  0  0  0
   41.4680   33.7910   40.6300 C   0  0  0  0  0  0  0  0  0  0  0  0
   40.5580   32.7740   40.7650 N   0  0  0  0  0  0  0  0  0  0  0  0
   37.5960   34.3700   40.3600 H   0  0  0  0  0  0  0  0  0  0  0  0
   39.1610   36.2760   40.1000 H   0  0  0  0  0  0  0  0  0  0  0  0
   41.5140   35.8750   40.2740 H   0  0  0  0  0  0  0  0  0  0  0  0
   42.8130   33.5730   40.7280 O   0  0  0  0  0  0  0  0  0  0  0  0
   43.4450   33.1910   41.8560 C   0  0  0  0  0  0  0  0  0  0  0  0
   44.1390   34.3720   42.2020 C   0  0  0  0  0  3  0  0  0  0  0  0
   44.9560   34.4370   43.3480 C   0  0  0  0  0  0  0  0  0  0  0  0
   45.5450   35.2640   43.7420 H   0  0  0  0  0  0  0  0  0  0  0  0
   45.0760   33.3460   44.1310 N   0  0  0  0  0  0  0  0  0  0  0  0
   44.4120   32.2370   43.7880 C   0  0  0  0  0  3  0  0  0  0  0  0
   43.6340   32.1430   42.7140 N   0  0  0  0  0  0  0  0  0  0  0  0
  1  6  1  0  0  0  0
  2  1  2  0  0  0  0
  2  3  1  0  0  0  0
  3  4  2  0  0  0  0
  4  5  1  0  0  0  0
  5  9  1  0  0  0  0
  6  5  2  0  0  0  0
  7  1  1  0  0  0  0
  8  2  1  0  0  0  0
  9 15  1  1  0  0  0
  9 14  1  0  0  0  0
 10 17  1  0  0  0  0
 10  9  1  0  0  0  0
 11 10  1  0  0  0  0
 11 12  1  0  0  0  0
 12 20  1  0  0  0  0
 12 13  1  0  0  0  0
 13 22  1  0  0  0  0
 14 13  2  0  0  0  0
 14 23  1  0  0  0  0
 16 10  1  0  0  0  0
 18 11  1  0  0  0  0
 19 11  1  0  0  0  0
 21 12  1  0  0  0  0
 23 24  1  0  0  0  0
 23 25  1  0  0  0  0
 26 31  1  0  0  0  0
 26  3  1  0  0  0  0
 27 26  2  0  0  0  0
 28 29  2  0  0  0  0
 28 27  1  0  0  0  0
 29 30  1  0  0  0  0
 30 35  1  0  0  0  0
 30 31  2  0  0  0  0
 32 27  1  0  0  0  0
 33 28  1  0  0  0  0
 34 29  1  0  0  0  0
 35 36  1  0  0  0  0
 36 37  2  0  0  0  0
 36 42  1  0  0  0  0
 37 38  1  0  0  0  0
 38 39  1  0  0  0  0
 38 40  2  0  0  0  0
 41 40  1  0  0  0  0
 42 41  2  0  0  0  0
M  END
>  <minimizedAffinity>
-6.50066376

$$$$

 OpenBabel03252505133D

 42 45  0  0  1  0  0  0  0  0999 V2000
   35.2610   28.0390   37.3320 C   0  0  0  0  0  0  0  0  0  0  0  0
   35.6860   27.0520   38.2520 C   0  0  0  0  0  0  0  0  0  0  0  0
   36.4350   27.4710   39.3770 C   0  0  0  0  0  0  0  0  0  0  0  0
   36.7130   28.7940   39.5280 N   0  0  0  0  0  0  0  0  0  0  0  0
   36.2900   29.6990   38.6290 C   0  0  0  0  0  0  0  0  0  0  0  0
   35.5630   29.3300   37.5280 N   0  0  0  0  0  0  0  0  0  0  0  0
   34.6960   27.8030   36.4660 H   0  0  0  0  0  0  0  0  0  0  0  0
   35.4320   26.0090   38.0800 H   0  0  0  0  0  0  0  0  0  0  0  0
   36.6220   31.1380   38.8350 C   0  0  2  0  0  0  0  0  0  0  0  0
   37.8190   31.3980   37.9460 C   0  0  0  0  0  0  0  0  0  0  0  0
   39.1070   31.5220   38.6380 C   0  0  0  0  0  0  0  0  0  0  0  0
   38.9060   32.6350   39.6610 C   0  0  0  0  0  0  0  0  0  0  0  0
   37.9710   32.2380   40.7070 C   0  0  0  0  0  0  0  0  0  0  0  0
   36.7940   31.4610   40.2230 C   0  0  0  0  0  0  0  0  0  0  0  0
   35.7400   31.7010   38.4300 H   0  0  0  0  0  0  0  0  0  0  0  0
   37.9060   30.6460   37.1170 H   0  0  0  0  0  0  0  0  0  0  0  0
   37.6250   32.3730   37.4270 H   0  0  0  0  0  0  0  0  0  0  0  0
   39.8710   31.8250   37.9210 H   0  0  0  0  0  0  0  0  0  0  0  0
   39.3700   30.5720   39.1340 H   0  0  0  0  0  0  0  0  0  0  0  0
   38.6120   33.5520   39.1260 H   0  0  0  0  0  0  0  0  0  0  0  0
   39.8900   32.7540   40.1720 H   0  0  0  0  0  0  0  0  0  0  0  0
   37.8690   32.3450   41.7720 H   0  0  0  0  0  0  0  0  0  0  0  0
   35.8030   31.0180   41.1490 N   0  0  0  0  0  0  0  0  0  0  0  0
   35.6300   30.1740   41.7150 H   0  0  0  0  0  0  0  0  0  0  0  0
   34.9710   31.5690   41.4400 H   0  0  0  0  0  0  0  0  0  0  0  0
   36.8780   26.4800   40.3340 C   0  0  0  0  0  0  0  0  0  0  0  0
   36.5560   25.1680   40.1000 C   0  0  0  0  0  0  0  0  0  0  0  0
   37.0120   24.2480   41.0640 C   0  0  0  0  0  0  0  0  0  0  0  0
   37.7200   24.7440   42.1230 C   0  0  0  0  0  0  0  0  0  0  0  0
   38.0470   26.0530   42.3660 C   0  0  0  0  0  0  0  0  0  0  0  0
   37.5850   26.9140   41.4040 N   0  0  0  0  0  0  0  0  0  0  0  0
   35.9970   24.8350   39.2500 H   0  0  0  0  0  0  0  0  0  0  0  0
   36.7890   23.1980   40.9370 H   0  0  0  0  0  0  0  0  0  0  0  0
   38.0360   23.9880   42.8200 H   0  0  0  0  0  0  0  0  0  0  0  0
   38.7600   26.4930   43.4450 O   0  0  0  0  0  0  0  0  0  0  0  0
   39.8900   27.2250   43.3670 C   0  0  0  0  0  0  0  0  0  0  0  0
   40.7660   26.4760   44.1860 C   0  0  0  0  0  3  0  0  0  0  0  0
   42.0980   26.8800   44.4010 C   0  0  0  0  0  0  0  0  0  0  0  0
   42.8830   26.4160   44.9950 H   0  0  0  0  0  0  0  0  0  0  0  0
   42.5460   28.0060   43.8100 N   0  0  0  0  0  0  0  0  0  0  0  0
   41.7040   28.7020   43.0390 C   0  0  0  0  0  3  0  0  0  0  0  0
   40.4420   28.3490   42.8160 N   0  0  0  0  0  0  0  0  0  0  0  0
  1  6  2  0  0  0  0
  1  2  1  0  0  0  0
  2  3  2  0  0  0  0
  3  4  1  0  0  0  0
  3 26  1  0  0  0  0
  5  9  1  0  0  0  0
  5  4  2  0  0  0  0
  6  5  1  0  0  0  0
  7  1  1  0  0  0  0
  8  2  1  0  0  0  0
  9 15  1  6  0  0  0
  9 14  1  0  0  0  0
 10 11  1  0  0  0  0
 10  9  1  0  0  0  0
 11 19  1  0  0  0  0
 11 12  1  0  0  0  0
 12 21  1  0  0  0  0
 12 13  1  0  0  0  0
 13 22  1  0  0  0  0
 14 13  2  0  0  0  0
 14 23  1  0  0  0  0
 16 10  1  0  0  0  0
 17 10  1  0  0  0  0
 18 11  1  0  0  0  0
 20 12  1  0  0  0  0
 23 25  1  0  0  0  0
 23 24  1  0  0  0  0
 26 31  1  0  0  0  0
 27 26  2  0  0  0  0
 27 28  1  0  0  0  0
 28 29  2  0  0  0  0
 29 30  1  0  0  0  0
 29 34  1  0  0  0  0
 30 35  1  0  0  0  0
 31 30  2  0  0  0  0
 32 27  1  0  0  0  0
 33 28  1  0  0  0  0
 36 35  1  0  0  0  0
 36 37  1  0  0  0  0
 37 38  2  0  0  0  0
 38 39  1  0  0  0  0
 40 38  1  0  0  0  0
 41 40  2  0  0  0  0
 42 41  1  0  0  0  0
 42 36  2  0  0  0  0
M  END
>  <minimizedAffinity>
-6.41042662

$$$$

 OpenBabel03252505133D

 42 45  0  0  1  0  0  0  0  0999 V2000
   36.1120   29.1220   37.6840 C   0  0  0  0  0  0  0  0  0  0  0  0
   36.2120   28.4430   38.9210 C   0  0  0  0  0  0  0  0  0  0  0  0
   36.9680   29.0500   39.9510 C   0  0  0  0  0  0  0  0  0  0  0  0
   37.5600   30.2510   39.7150 N   0  0  0  0  0  0  0  0  0  0  0  0
   37.4400   30.8620   38.5240 C   0  0  0  0  0  0  0  0  0  0  0  0
   36.7170   30.3050   37.5020 N   0  0  0  0  0  0  0  0  0  0  0  0
   35.5640   28.7310   36.8640 H   0  0  0  0  0  0  0  0  0  0  0  0
   35.7150   27.4850   39.0530 H   0  0  0  0  0  0  0  0  0  0  0  0
   38.1110   32.1770   38.3100 C   0  0  2  0  0  0  0  0  0  0  0  0
   39.4720   31.8370   37.7410 C   0  0  0  0  0  0  0  0  0  0  0  0
   40.6000   31.9820   38.6690 C   0  0  0  0  0  0  0  0  0  0  0  0
   40.5310   33.4240   39.1600 C   0  0  0  0  0  0  0  0  0  0  0  0
   39.3520   33.6540   39.9860 C   0  0  0  0  0  0  0  0  0  0  0  0
   38.1140   32.9820   39.4990 C   0  0  0  0  0  0  0  0  0  0  0  0
   37.5030   32.6880   37.5180 H   0  0  0  0  0  0  0  0  0  0  0  0
   39.4950   30.8170   37.2730 H   0  0  0  0  0  0  0  0  0  0  0  0
   39.6470   32.5460   36.8900 H   0  0  0  0  0  0  0  0  0  0  0  0
   41.5320   31.8300   38.1240 H   0  0  0  0  0  0  0  0  0  0  0  0
   40.4990   31.2730   39.5090 H   0  0  0  0  0  0  0  0  0  0  0  0
   40.6000   34.0930   38.2870 H   0  0  0  0  0  0  0  0  0  0  0  0
   41.4030   33.5500   39.8440 H   0  0  0  0  0  0  0  0  0  0  0  0
   39.0960   34.1880   40.8820 H   0  0  0  0  0  0  0  0  0  0  0  0
   36.8910   33.1330   40.2170 N   0  0  0  0  0  0  0  0  0  0  0  0
   36.3950   32.6290   40.9680 H   0  0  0  0  0  0  0  0  0  0  0  0
   36.2030   33.8990   40.0700 H   0  0  0  0  0  0  0  0  0  0  0  0
   37.0820   28.3760   41.2270 C   0  0  0  0  0  0  0  0  0  0  0  0
   37.3460   29.1360   42.3370 C   0  0  0  0  0  0  0  0  0  0  0  0
   37.4470   28.4280   43.5510 C   0  0  0  0  0  0  0  0  0  0  0  0
   37.2740   27.0720   43.5050 C   0  0  0  0  0  0  0  0  0  0  0  0
   37.0100   26.3030   42.4010 C   0  0  0  0  0  0  0  0  0  0  0  0
   36.9190   27.0320   41.2430 N   0  0  0  0  0  0  0  0  0  0  0  0
   37.4720   30.1990   42.3140 H   0  0  0  0  0  0  0  0  0  0  0  0
   37.6550   28.9710   44.4610 H   0  0  0  0  0  0  0  0  0  0  0  0
   37.3640   26.5960   44.4650 H   0  0  0  0  0  0  0  0  0  0  0  0
   36.8460   24.9470   42.4140 O   0  0  0  0  0  0  0  0  0  0  0  0
   36.7420   24.1800   41.3110 C   0  0  0  0  0  0  0  0  0  0  0  0
   38.0080   23.5520   41.2860 C   0  0  0  0  0  3  0  0  0  0  0  0
   38.3560   22.6350   40.2750 C   0  0  0  0  0  0  0  0  0  0  0  0
   39.2780   22.0770   40.1230 H   0  0  0  0  0  0  0  0  0  0  0  0
   37.4580   22.3520   39.3090 N   0  0  0  0  0  0  0  0  0  0  0  0
   36.2650   22.9550   39.3480 C   0  0  0  0  0  3  0  0  0  0  0  0
   35.9070   23.8240   40.2880 N   0  0  0  0  0  0  0  0  0  0  0  0
  1  2  1  0  0  0  0
  2  8  1  0  0  0  0
  2  3  2  0  0  0  0
  3 26  1  0  0  0  0
  4  3  1  0  0  0  0
  5  4  2  0  0  0  0
  6  1  2  0  0  0  0
  6  5  1  0  0  0  0
  7  1  1  0  0  0  0
  9 15  1  6  0  0  0
  9  5  1  0  0  0  0
  9 14  1  0  0  0  0
 10  9  1  0  0  0  0
 10 11  1  0  0  0  0
 11 12  1  0  0  0  0
 11 19  1  0  0  0  0
 12 21  1  0  0  0  0
 12 13  1  0  0  0  0
 13 22  1  0  0  0  0
 14 13  2  0  0  0  0
 14 23  1  0  0  0  0
 16 10  1  0  0  0  0
 17 10  1  0  0  0  0
 18 11  1  0  0  0  0
 20 12  1  0  0  0  0
 23 24  1  0  0  0  0
 25 23  1  0  0  0  0
 26 31  2  0  0  0  0
 26 27  1  0  0  0  0
 27 28  2  0  0  0  0
 28 33  1  0  0  0  0
 29 28  1  0  0  0  0
 29 34  1  0  0  0  0
 30 35  1  0  0  0  0
 30 29  2  0  0  0  0
 31 30  1  0  0  0  0
 32 27  1  0  0  0  0
 36 35  1  0  0  0  0
 37 36  1  0  0  0  0
 38 37  2  0  0  0  0
 39 38  1  0  0  0  0
 40 41  2  0  0  0  0
 40 38  1  0  0  0  0
 41 42  1  0  0  0  0
 42 36  2  0  0  0  0
M  END
>  <minimizedAffinity>
-6.33474588

$$$$

 OpenBabel03252505133D

 42 45  0  0  1  0  0  0  0  0999 V2000
   36.3240   29.8450   38.2970 C   0  0  0  0  0  0  0  0  0  0  0  0
   36.9540   31.0970   38.4900 C   0  0  0  0  0  0  0  0  0  0  0  0
   37.8830   31.2160   39.5500 C   0  0  0  0  0  0  0  0  0  0  0  0
   38.1330   30.1330   40.3330 N   0  0  0  0  0  0  0  0  0  0  0  0
   37.5110   28.9610   40.1150 C   0  0  0  0  0  0  0  0  0  0  0  0
   36.6050   28.8080   39.0990 N   0  0  0  0  0  0  0  0  0  0  0  0
   35.6170   29.6780   37.5250 H   0  0  0  0  0  0  0  0  0  0  0  0
   36.7160   31.9280   37.8300 H   0  0  0  0  0  0  0  0  0  0  0  0
   37.8150   27.8020   41.0030 C   0  0  2  0  0  0  0  0  0  0  0  0
   36.7910   27.8780   42.1150 C   0  0  0  0  0  0  0  0  0  0  0  0
   37.2950   28.3530   43.4080 C   0  0  0  0  0  0  0  0  0  0  0  0
   38.4470   27.4170   43.7570 C   0  0  0  0  0  0  0  0  0  0  0  0
   39.5730   27.5880   42.8460 C   0  0  0  0  0  0  0  0  0  0  0  0
   39.1890   27.7830   41.4190 C   0  0  0  0  0  0  0  0  0  0  0  0
   37.6050   26.8940   40.3770 H   0  0  0  0  0  0  0  0  0  0  0  0
   35.8850   28.4720   41.8200 H   0  0  0  0  0  0  0  0  0  0  0  0
   36.4100   26.8340   42.2700 H   0  0  0  0  0  0  0  0  0  0  0  0
   36.5090   28.2540   44.1570 H   0  0  0  0  0  0  0  0  0  0  0  0
   37.6460   29.3960   43.3240 H   0  0  0  0  0  0  0  0  0  0  0  0
   38.0590   26.3870   43.7970 H   0  0  0  0  0  0  0  0  0  0  0  0
   38.8180   27.7550   44.7530 H   0  0  0  0  0  0  0  0  0  0  0  0
   40.6450   27.6150   42.8960 H   0  0  0  0  0  0  0  0  0  0  0  0
   40.1990   27.9570   40.4270 N   0  0  0  0  0  0  0  0  0  0  0  0
   40.6940   28.7500   39.9910 H   0  0  0  0  0  0  0  0  0  0  0  0
   40.6650   27.1850   39.9080 H   0  0  0  0  0  0  0  0  0  0  0  0
   38.5430   32.4870   39.7650 C   0  0  0  0  0  0  0  0  0  0  0  0
   37.7610   33.6040   39.9110 C   0  0  0  0  0  0  0  0  0  0  0  0
   38.4570   34.8110   40.1170 C   0  0  0  0  0  0  0  0  0  0  0  0
   39.8230   34.7540   40.1510 C   0  0  0  0  0  0  0  0  0  0  0  0
   40.6130   33.6430   40.0060 C   0  0  0  0  0  0  0  0  0  0  0  0
   39.8970   32.4910   39.8080 N   0  0  0  0  0  0  0  0  0  0  0  0
   36.6910   33.5890   39.8760 H   0  0  0  0  0  0  0  0  0  0  0  0
   37.8970   35.7270   40.2380 H   0  0  0  0  0  0  0  0  0  0  0  0
   40.2880   35.7100   40.3110 H   0  0  0  0  0  0  0  0  0  0  0  0
   41.9780   33.6440   40.0490 O   0  0  0  0  0  0  0  0  0  0  0  0
   42.7100   34.1370   41.0680 C   0  0  0  0  0  0  0  0  0  0  0  0
   43.2970   32.9590   41.5850 C   0  0  0  0  0  3  0  0  0  0  0  0
   44.1680   32.9960   42.6930 C   0  0  0  0  0  0  0  0  0  0  0  0
   44.6920   32.1870   43.1990 H   0  0  0  0  0  0  0  0  0  0  0  0
   44.4450   34.1830   43.2700 N   0  0  0  0  0  0  0  0  0  0  0  0
   43.8800   35.2860   42.7680 C   0  0  0  0  0  3  0  0  0  0  0  0
   43.0560   35.2850   41.7250 N   0  0  0  0  0  0  0  0  0  0  0  0
  1  2  2  0  0  0  0
  1  6  1  0  0  0  0
  2  3  1  0  0  0  0
  3 26  1  0  0  0  0
  3  4  2  0  0  0  0
  5  4  1  0  0  0  0
  5  9  1  0  0  0  0
  6  5  2  0  0  0  0
  7  1  1  0  0  0  0
  8  2  1  0  0  0  0
  9 15  1  6  0  0  0
  9 14  1  0  0  0  0
  9 10  1  0  0  0  0
 10 17  1  0  0  0  0
 10 11  1  0  0  0  0
 11 12  1  0  0  0  0
 11 18  1  0  0  0  0
 12 20  1  0  0  0  0
 12 21  1  0  0  0  0
 13 22  1  0  0  0  0
 13 12  1  0  0  0  0
 14 13  2  0  0  0  0
 16 10  1  0  0  0  0
 19 11  1  0  0  0  0
 23 14  1  0  0  0  0
 24 23  1  0  0  0  0
 25 23  1  0  0  0  0
 26 31  2  0  0  0  0
 26 27  1  0  0  0  0
 27 28  2  0  0  0  0
 28 29  1  0  0  0  0
 28 33  1  0  0  0  0
 29 34  1  0  0  0  0
 30 35  1  0  0  0  0
 30 29  2  0  0  0  0
 31 30  1  0  0  0  0
 32 27  1  0  0  0  0
 35 36  1  0  0  0  0
 36 37  2  0  0  0  0
 36 42  1  0  0  0  0
 37 38  1  0  0  0  0
 38 39  1  0  0  0  0
 38 40  2  0  0  0  0
 41 40  1  0  0  0  0
 42 41  2  0  0  0  0
M  END
>  <minimizedAffinity>
-6.30399179

$$$$

 OpenBabel03252505133D

 42 45  0  0  1  0  0  0  0  0999 V2000
   35.9850   24.0160   39.2060 C   0  0  0  0  0  0  0  0  0  0  0  0
   35.9220   25.1500   38.3630 C   0  0  0  0  0  0  0  0  0  0  0  0
   36.3300   26.3960   38.8960 C   0  0  0  0  0  0  0  0  0  0  0  0
   36.7630   26.4530   40.1830 N   0  0  0  0  0  0  0  0  0  0  0  0
   36.8060   25.3500   40.9510 C   0  0  0  0  0  0  0  0  0  0  0  0
   36.4190   24.1270   40.4700 N   0  0  0  0  0  0  0  0  0  0  0  0
   35.6970   23.0490   38.8800 H   0  0  0  0  0  0  0  0  0  0  0  0
   35.5690   25.0440   37.3410 H   0  0  0  0  0  0  0  0  0  0  0  0
   37.2860   25.4630   42.3580 C   0  0  2  0  0  0  0  0  0  0  0  0
   37.1800   26.9350   42.6940 C   0  0  0  0  0  0  0  0  0  0  0  0
   38.4510   27.6680   42.7350 C   0  0  0  0  0  0  0  0  0  0  0  0
   39.3150   26.9140   43.7410 C   0  0  0  0  0  0  0  0  0  0  0  0
   39.6780   25.5900   43.2500 C   0  0  0  0  0  0  0  0  0  0  0  0
   38.5830   24.8730   42.5370 C   0  0  0  0  0  0  0  0  0  0  0  0
   36.5330   24.8960   42.9680 H   0  0  0  0  0  0  0  0  0  0  0  0
   36.4540   27.4730   42.0280 H   0  0  0  0  0  0  0  0  0  0  0  0
   36.7270   26.9960   43.7190 H   0  0  0  0  0  0  0  0  0  0  0  0
   38.2690   28.6790   43.1010 H   0  0  0  0  0  0  0  0  0  0  0  0
   38.9220   27.6750   41.7370 H   0  0  0  0  0  0  0  0  0  0  0  0
   38.7910   26.9020   44.7100 H   0  0  0  0  0  0  0  0  0  0  0  0
   40.2730   27.4830   43.7980 H   0  0  0  0  0  0  0  0  0  0  0  0
   40.5370   24.9450   43.2500 H   0  0  0  0  0  0  0  0  0  0  0  0
   38.8100   23.5660   42.0140 N   0  0  0  0  0  0  0  0  0  0  0  0
   39.1220   23.1600   41.1190 H   0  0  0  0  0  0  0  0  0  0  0  0
   38.6720   22.6800   42.5410 H   0  0  0  0  0  0  0  0  0  0  0  0
   36.2790   27.5700   38.0510 C   0  0  0  0  0  0  0  0  0  0  0  0
   35.2430   27.6780   37.1580 C   0  0  0  0  0  0  0  0  0  0  0  0
   35.2450   28.8400   36.3620 C   0  0  0  0  0  0  0  0  0  0  0  0
   36.2610   29.7350   36.5540 C   0  0  0  0  0  0  0  0  0  0  0  0
   37.3000   29.6360   37.4430 C   0  0  0  0  0  0  0  0  0  0  0  0
   37.2600   28.4920   38.1970 N   0  0  0  0  0  0  0  0  0  0  0  0
   34.4720   26.9440   37.0510 H   0  0  0  0  0  0  0  0  0  0  0  0
   34.4550   28.9830   35.6380 H   0  0  0  0  0  0  0  0  0  0  0  0
   36.2000   30.5970   35.9140 H   0  0  0  0  0  0  0  0  0  0  0  0
   38.2910   30.5640   37.5920 O   0  0  0  0  0  0  0  0  0  0  0  0
   38.5880   31.1850   38.7520 C   0  0  0  0  0  0  0  0  0  0  0  0
   37.6700   32.2600   38.7370 C   0  0  0  0  0  3  0  0  0  0  0  0
   37.6190   33.1990   39.7860 C   0  0  0  0  0  0  0  0  0  0  0  0
   36.9760   34.0680   39.9160 H   0  0  0  0  0  0  0  0  0  0  0  0
   38.4660   33.0670   40.8260 N   0  0  0  0  0  0  0  0  0  0  0  0
   39.3280   32.0450   40.8240 C   0  0  0  0  0  3  0  0  0  0  0  0
   39.4010   31.1420   39.8510 N   0  0  0  0  0  0  0  0  0  0  0  0
  1  6  1  0  0  0  0
  2  3  1  0  0  0  0
  2  1  2  0  0  0  0
  3  4  2  0  0  0  0
  4  5  1  0  0  0  0
  5  9  1  0  0  0  0
  6  5  2  0  0  0  0
  7  1  1  0  0  0  0
  8  2  1  0  0  0  0
  9 14  1  0  0  0  0
  9 10  1  0  0  0  0
  9 15  1  1  0  0  0
 10 11  1  0  0  0  0
 10 17  1  0  0  0  0
 11 18  1  0  0  0  0
 11 12  1  0  0  0  0
 12 21  1  0  0  0  0
 12 20  1  0  0  0  0
 13 22  1  0  0  0  0
 13 12  1  0  0  0  0
 14 13  2  0  0  0  0
 16 10  1  0  0  0  0
 19 11  1  0  0  0  0
 23 14  1  0  0  0  0
 23 25  1  0  0  0  0
 24 23  1  0  0  0  0
 26 31  1  0  0  0  0
 26  3  1  0  0  0  0
 27 26  2  0  0  0  0
 28 29  2  0  0  0  0
 28 27  1  0  0  0  0
 29 30  1  0  0  0  0
 30 35  1  0  0  0  0
 30 31  2  0  0  0  0
 32 27  1  0  0  0  0
 33 28  1  0  0  0  0
 34 29  1  0  0  0  0
 35 36  1  0  0  0  0
 36 42  1  0  0  0  0
 37 36  2  0  0  0  0
 37 38  1  0  0  0  0
 38 39  1  0  0  0  0
 38 40  2  0  0  0  0
 41 40  1  0  0  0  0
 42 41  2  0  0  0  0
M  END
>  <minimizedAffinity>
-6.03130484

$$$$
