
 OpenBabel03242516073D

 34 37  0  0  0  0  0  0  0  0999 V2000
   38.5460   28.2670   39.5620 Cl  0  0  0  0  0  0  0  0  0  0  0  0
   37.9080   27.9780   41.1570 C   0  0  0  0  0  0  0  0  0  0  0  0
   37.5080   26.7510   41.5650 C   0  0  0  0  0  0  0  0  0  0  0  0
   37.0210   26.6460   42.8470 C   0  0  0  0  0  0  0  0  0  0  0  0
   36.9340   27.7000   43.6800 C   0  0  0  0  0  0  0  0  0  0  0  0
   37.3370   28.9500   43.2790 C   0  0  0  0  0  0  0  0  0  0  0  0
   37.8340   29.0770   41.9830 C   0  0  0  0  0  0  0  0  0  0  0  0
   36.6940   25.6740   43.1970 H   0  0  0  0  0  0  0  0  0  0  0  0
   36.5430   27.5600   44.6790 H   0  0  0  0  0  0  0  0  0  0  0  0
   37.2520   29.7640   43.9730 H   0  0  0  0  0  0  0  0  0  0  0  0
   36.7490   24.2100   38.8500 C   0  0  0  0  0  0  0  0  0  0  0  0
   36.6170   25.2820   39.7430 C   0  0  0  0  0  0  0  0  0  0  0  0
   37.6210   25.6440   40.6300 C   0  0  0  0  0  0  0  0  0  0  0  0
   38.7440   24.8710   40.5620 N   0  0  0  0  0  0  0  0  0  0  0  0
   38.8590   23.8480   39.7040 C   0  0  0  0  0  0  0  0  0  0  0  0
   37.8760   23.5270   38.8650 N   0  0  0  0  0  0  0  0  0  0  0  0
   35.9350   23.9610   38.1700 H   0  0  0  0  0  0  0  0  0  0  0  0
   35.6990   25.8570   39.7480 H   0  0  0  0  0  0  0  0  0  0  0  0
   39.8270   23.3700   39.8150 H   0  0  0  0  0  0  0  0  0  0  0  0
   38.2730   30.4170   41.5280 C   0  0  0  0  0  0  0  0  0  0  0  0
   39.5690   30.9020   41.7320 C   0  0  0  0  0  0  0  0  0  0  0  0
   39.5390   32.5520   40.9870 S   0  0  0  0  0  0  0  0  0  0  0  0
   37.6970   32.3280   40.4910 C   0  0  0  0  0  0  0  0  0  0  0  0
   37.5420   31.3010   40.8980 N   0  0  0  0  0  0  0  0  0  0  0  0
   36.9080   33.2900   39.8070 N   0  0  0  0  0  0  0  0  0  0  0  0
   36.2200   33.8900   40.2670 H   0  0  0  0  0  0  0  0  0  0  0  0
   37.1200   33.3040   38.7870 H   0  0  0  0  0  0  0  0  0  0  0  0
   40.7210   30.2900   42.3770 C   0  0  0  0  0  0  0  0  0  0  0  0
   41.0390   28.9580   42.5360 C   0  0  0  0  0  3  0  0  0  0  0  0
   42.2170   28.6340   43.2020 C   0  0  0  0  0  0  0  0  0  0  0  0
   42.4090   27.5660   43.2930 H   0  0  0  0  0  0  0  0  0  0  0  0
   43.0280   29.5990   43.6790 N   0  0  0  0  0  0  0  0  0  0  0  0
   42.7090   30.8910   43.5200 C   0  0  0  0  0  3  0  0  0  0  0  0
   41.5780   31.2260   42.8800 N   0  0  0  0  0  0  0  0  0  0  0  0
  1  2  1  0  0  0  0
  2  3  2  0  0  0  0
  2  7  1  0  0  0  0
  3  4  1  0  0  0  0
  4  8  1  0  0  0  0
  4  5  2  0  0  0  0
  5  9  1  0  0  0  0
  6  5  1  0  0  0  0
  6 10  1  0  0  0  0
  7  6  2  0  0  0  0
 11 16  2  0  0  0  0
 11 12  1  0  0  0  0
 12 18  1  0  0  0  0
 12 13  2  0  0  0  0
 13  3  1  0  0  0  0
 14 13  1  0  0  0  0
 15 19  1  0  0  0  0
 15 14  2  0  0  0  0
 16 15  1  0  0  0  0
 17 11  1  0  0  0  0
 20 21  2  0  0  0  0
 20  7  1  0  0  0  0
 21 28  1  0  0  0  0
 22 21  1  0  0  0  0
 23 24  2  0  0  0  0
 23 22  1  0  0  0  0
 24 20  1  0  0  0  0
 25 26  1  0  0  0  0
 25 23  1  0  0  0  0
 27 25  1  0  0  0  0
 28 29  2  0  0  0  0
 28 34  1  0  0  0  0
 29 30  1  0  0  0  0
 30 31  1  0  0  0  0
 30 32  2  0  0  0  0
 33 32  1  0  0  0  0
 34 33  2  0  0  0  0
M  END
>  <minimizedAffinity>
-6.0251441

$$$$

 OpenBabel03242516073D

 34 37  0  0  0  0  0  0  0  0999 V2000
   37.9860   27.6440   39.3010 Cl  0  0  0  0  0  0  0  0  0  0  0  0
   37.7420   27.9400   41.0010 C   0  0  0  0  0  0  0  0  0  0  0  0
   37.7390   29.1880   41.5240 C   0  0  0  0  0  0  0  0  0  0  0  0
   37.5360   29.2970   42.8800 C   0  0  0  0  0  0  0  0  0  0  0  0
   37.3490   28.2270   43.6750 C   0  0  0  0  0  0  0  0  0  0  0  0
   37.3500   26.9560   43.1570 C   0  0  0  0  0  0  0  0  0  0  0  0
   37.5530   26.8250   41.7840 C   0  0  0  0  0  0  0  0  0  0  0  0
   37.5300   30.2860   43.3240 H   0  0  0  0  0  0  0  0  0  0  0  0
   37.1940   28.3710   44.7370 H   0  0  0  0  0  0  0  0  0  0  0  0
   37.1960   26.1300   43.8240 H   0  0  0  0  0  0  0  0  0  0  0  0
   37.1360   32.1130   39.1820 C   0  0  0  0  0  0  0  0  0  0  0  0
   36.9120   31.0310   40.0450 C   0  0  0  0  0  0  0  0  0  0  0  0
   37.9460   30.3130   40.6270 C   0  0  0  0  0  0  0  0  0  0  0  0
   39.1960   30.7450   40.2910 N   0  0  0  0  0  0  0  0  0  0  0  0
   39.3990   31.7800   39.4640 C   0  0  0  0  0  0  0  0  0  0  0  0
   38.3830   32.4490   38.9220 N   0  0  0  0  0  0  0  0  0  0  0  0
   36.2930   32.6500   38.7470 H   0  0  0  0  0  0  0  0  0  0  0  0
   35.8940   30.7380   40.2720 H   0  0  0  0  0  0  0  0  0  0  0  0
   40.4620   31.9550   39.3320 H   0  0  0  0  0  0  0  0  0  0  0  0
   37.5590   25.4620   41.2030 C   0  0  0  0  0  0  0  0  0  0  0  0
   38.7060   24.6640   41.1490 C   0  0  0  0  0  0  0  0  0  0  0  0
   38.1390   23.1390   40.3540 S   0  0  0  0  0  0  0  0  0  0  0  0
   36.3580   23.8410   40.2070 C   0  0  0  0  0  0  0  0  0  0  0  0
   36.5360   24.8370   40.6780 N   0  0  0  0  0  0  0  0  0  0  0  0
   35.2510   23.1600   39.6370 N   0  0  0  0  0  0  0  0  0  0  0  0
   34.8930   23.3440   38.6980 H   0  0  0  0  0  0  0  0  0  0  0  0
   34.8550   22.4550   40.2950 H   0  0  0  0  0  0  0  0  0  0  0  0
   40.0650   24.9220   41.6010 C   0  0  0  0  0  0  0  0  0  0  0  0
   40.5750   24.9690   42.8820 C   0  0  0  0  0  3  0  0  0  0  0  0
   41.9300   25.2420   43.0440 C   0  0  0  0  0  0  0  0  0  0  0  0
   42.2690   25.2640   44.0790 H   0  0  0  0  0  0  0  0  0  0  0  0
   42.7240   25.4540   41.9770 N   0  0  0  0  0  0  0  0  0  0  0  0
   42.2190   25.4070   40.7360 C   0  0  0  0  0  3  0  0  0  0  0  0
   40.9150   25.1450   40.5560 N   0  0  0  0  0  0  0  0  0  0  0  0
  1  2  1  0  0  0  0
  2  3  2  0  0  0  0
  2  7  1  0  0  0  0
  3  4  1  0  0  0  0
  4  8  1  0  0  0  0
  4  5  2  0  0  0  0
  5  9  1  0  0  0  0
  6  5  1  0  0  0  0
  6 10  1  0  0  0  0
  7  6  2  0  0  0  0
 11 12  1  0  0  0  0
 12 18  1  0  0  0  0
 12 13  2  0  0  0  0
 13  3  1  0  0  0  0
 14 13  1  0  0  0  0
 15 14  2  0  0  0  0
 16 11  2  0  0  0  0
 16 15  1  0  0  0  0
 17 11  1  0  0  0  0
 19 15  1  0  0  0  0
 20  7  1  0  0  0  0
 21 20  2  0  0  0  0
 21 28  1  0  0  0  0
 22 21  1  0  0  0  0
 23 22  1  0  0  0  0
 23 24  2  0  0  0  0
 24 20  1  0  0  0  0
 25 23  1  0  0  0  0
 25 27  1  0  0  0  0
 26 25  1  0  0  0  0
 28 29  1  0  0  0  0
 29 30  2  0  0  0  0
 30 31  1  0  0  0  0
 32 30  1  0  0  0  0
 33 32  2  0  0  0  0
 34 33  1  0  0  0  0
 34 28  2  0  0  0  0
M  END
>  <minimizedAffinity>
-5.71890831

$$$$

 OpenBabel03242516073D

 34 37  0  0  0  0  0  0  0  0999 V2000
   39.7960   26.7550   40.6360 Cl  0  0  0  0  0  0  0  0  0  0  0  0
   38.5590   27.1180   41.8070 C   0  0  0  0  0  0  0  0  0  0  0  0
   37.4740   26.3280   41.9810 C   0  0  0  0  0  0  0  0  0  0  0  0
   36.5640   26.7160   42.9370 C   0  0  0  0  0  0  0  0  0  0  0  0
   36.7200   27.8280   43.6790 C   0  0  0  0  0  0  0  0  0  0  0  0
   37.8160   28.6380   43.5130 C   0  0  0  0  0  0  0  0  0  0  0  0
   38.7500   28.2610   42.5490 C   0  0  0  0  0  0  0  0  0  0  0  0
   35.6860   26.1000   43.0950 H   0  0  0  0  0  0  0  0  0  0  0  0
   35.9720   28.0870   44.4180 H   0  0  0  0  0  0  0  0  0  0  0  0
   37.9030   29.5150   44.1250 H   0  0  0  0  0  0  0  0  0  0  0  0
   36.4930   23.9260   39.2110 C   0  0  0  0  0  0  0  0  0  0  0  0
   36.5980   25.0860   39.9910 C   0  0  0  0  0  0  0  0  0  0  0  0
   37.3490   25.1370   41.1560 C   0  0  0  0  0  0  0  0  0  0  0  0
   37.9740   23.9680   41.4800 N   0  0  0  0  0  0  0  0  0  0  0  0
   37.8660   22.8650   40.7260 C   0  0  0  0  0  0  0  0  0  0  0  0
   37.1370   22.8500   39.6130 N   0  0  0  0  0  0  0  0  0  0  0  0
   35.8910   23.9310   38.3020 H   0  0  0  0  0  0  0  0  0  0  0  0
   36.0760   25.9830   39.6790 H   0  0  0  0  0  0  0  0  0  0  0  0
   38.4400   22.0530   41.1630 H   0  0  0  0  0  0  0  0  0  0  0  0
   39.9400   29.1210   42.3520 C   0  0  0  0  0  0  0  0  0  0  0  0
   39.9480   30.2220   41.4890 C   0  0  0  0  0  0  0  0  0  0  0  0
   41.6260   30.8840   41.6420 S   0  0  0  0  0  0  0  0  0  0  0  0
   42.0860   29.5110   42.9050 C   0  0  0  0  0  0  0  0  0  0  0  0
   41.1050   28.9790   42.9300 N   0  0  0  0  0  0  0  0  0  0  0  0
   43.3510   29.3620   43.5300 N   0  0  0  0  0  0  0  0  0  0  0  0
   44.0480   28.6710   43.2430 H   0  0  0  0  0  0  0  0  0  0  0  0
   43.4740   30.0400   44.3120 H   0  0  0  0  0  0  0  0  0  0  0  0
   38.9010   30.7690   40.6390 C   0  0  0  0  0  0  0  0  0  0  0  0
   38.1440   30.1540   39.6640 C   0  0  0  0  0  3  0  0  0  0  0  0
   37.1960   30.9130   38.9860 C   0  0  0  0  0  0  0  0  0  0  0  0
   36.6320   30.3680   38.2300 H   0  0  0  0  0  0  0  0  0  0  0  0
   37.0210   32.2180   39.2740 N   0  0  0  0  0  0  0  0  0  0  0  0
   37.7620   32.8070   40.2240 C   0  0  0  0  0  3  0  0  0  0  0  0
   38.6820   32.0930   40.8910 N   0  0  0  0  0  0  0  0  0  0  0  0
  1  2  1  0  0  0  0
  2  3  2  0  0  0  0
  2  7  1  0  0  0  0
  3  4  1  0  0  0  0
  4  8  1  0  0  0  0
  4  5  2  0  0  0  0
  5  9  1  0  0  0  0
  6  5  1  0  0  0  0
  6 10  1  0  0  0  0
  7  6  2  0  0  0  0
 11 16  2  0  0  0  0
 11 12  1  0  0  0  0
 12 13  2  0  0  0  0
 13 14  1  0  0  0  0
 13  3  1  0  0  0  0
 15 19  1  0  0  0  0
 15 14  2  0  0  0  0
 16 15  1  0  0  0  0
 17 11  1  0  0  0  0
 18 12  1  0  0  0  0
 20  7  1  0  0  0  0
 20 24  1  0  0  0  0
 21 22  1  0  0  0  0
 21 20  2  0  0  0  0
 22 23  1  0  0  0  0
 23 24  2  0  0  0  0
 23 25  1  0  0  0  0
 25 27  1  0  0  0  0
 26 25  1  0  0  0  0
 28 34  1  0  0  0  0
 28 21  1  0  0  0  0
 29 28  2  0  0  0  0
 30 32  2  0  0  0  0
 30 29  1  0  0  0  0
 31 30  1  0  0  0  0
 32 33  1  0  0  0  0
 33 34  2  0  0  0  0
M  END
>  <minimizedAffinity>
-5.68824625

$$$$

 OpenBabel03242516073D

 34 37  0  0  0  0  0  0  0  0999 V2000
   40.6470   30.5610   38.6290 Cl  0  0  0  0  0  0  0  0  0  0  0  0
   39.3920   31.6850   39.0710 C   0  0  0  0  0  0  0  0  0  0  0  0
   39.6620   32.8820   39.6420 C   0  0  0  0  0  0  0  0  0  0  0  0
   38.5880   33.6870   39.9460 C   0  0  0  0  0  0  0  0  0  0  0  0
   37.3160   33.3240   39.6970 C   0  0  0  0  0  0  0  0  0  0  0  0
   37.0280   32.1130   39.1180 C   0  0  0  0  0  0  0  0  0  0  0  0
   38.1040   31.2840   38.8020 C   0  0  0  0  0  0  0  0  0  0  0  0
   38.7780   34.6500   40.4050 H   0  0  0  0  0  0  0  0  0  0  0  0
   36.5080   33.9960   39.9570 H   0  0  0  0  0  0  0  0  0  0  0  0
   36.0010   31.8610   38.9360 H   0  0  0  0  0  0  0  0  0  0  0  0
   43.2090   34.1590   39.2120 C   0  0  0  0  0  0  0  0  0  0  0  0
   41.8720   33.8320   38.9490 C   0  0  0  0  0  0  0  0  0  0  0  0
   41.0510   33.2300   39.8910 C   0  0  0  0  0  0  0  0  0  0  0  0
   41.6510   32.9820   41.0910 N   0  0  0  0  0  0  0  0  0  0  0  0
   42.9310   33.2990   41.3320 C   0  0  0  0  0  0  0  0  0  0  0  0
   43.6930   33.8770   40.4050 N   0  0  0  0  0  0  0  0  0  0  0  0
   43.8190   34.6320   38.4420 H   0  0  0  0  0  0  0  0  0  0  0  0
   41.4550   34.0560   37.9750 H   0  0  0  0  0  0  0  0  0  0  0  0
   43.2060   33.0160   42.3430 H   0  0  0  0  0  0  0  0  0  0  0  0
   37.8180   29.9710   38.1770 C   0  0  0  0  0  0  0  0  0  0  0  0
   37.6240   28.8020   38.9200 C   0  0  0  0  0  0  0  0  0  0  0  0
   37.3170   27.5340   37.6630 S   0  0  0  0  0  0  0  0  0  0  0  0
   37.5060   28.8330   36.2610 C   0  0  0  0  0  0  0  0  0  0  0  0
   37.7110   29.7280   36.8960 N   0  0  0  0  0  0  0  0  0  0  0  0
   37.3890   28.5650   34.8720 N   0  0  0  0  0  0  0  0  0  0  0  0
   38.1890   28.4680   34.2440 H   0  0  0  0  0  0  0  0  0  0  0  0
   36.3930   28.4830   34.5810 H   0  0  0  0  0  0  0  0  0  0  0  0
   37.6460   28.5750   40.3560 C   0  0  0  0  0  0  0  0  0  0  0  0
   36.6060   28.5430   41.2620 C   0  0  0  0  0  3  0  0  0  0  0  0
   36.9010   28.3050   42.6000 C   0  0  0  0  0  0  0  0  0  0  0  0
   36.0350   28.2930   43.2620 H   0  0  0  0  0  0  0  0  0  0  0  0
   38.1720   28.1080   43.0030 N   0  0  0  0  0  0  0  0  0  0  0  0
   39.1760   28.1410   42.1150 C   0  0  0  0  0  3  0  0  0  0  0  0
   38.9140   28.3690   40.8190 N   0  0  0  0  0  0  0  0  0  0  0  0
  1  2  1  0  0  0  0
  2  3  1  0  0  0  0
  3 13  1  0  0  0  0
  3  4  2  0  0  0  0
  4  8  1  0  0  0  0
  5  4  1  0  0  0  0
  5  9  1  0  0  0  0
  6  5  2  0  0  0  0
  7  2  2  0  0  0  0
  7  6  1  0  0  0  0
 10  6  1  0  0  0  0
 11 16  1  0  0  0  0
 12 11  2  0  0  0  0
 12 13  1  0  0  0  0
 13 14  2  0  0  0  0
 14 15  1  0  0  0  0
 15 19  1  0  0  0  0
 16 15  2  0  0  0  0
 17 11  1  0  0  0  0
 18 12  1  0  0  0  0
 20  7  1  0  0  0  0
 20 21  2  0  0  0  0
 21 28  1  0  0  0  0
 22 21  1  0  0  0  0
 23 24  2  0  0  0  0
 23 22  1  0  0  0  0
 24 20  1  0  0  0  0
 25 23  1  0  0  0  0
 26 25  1  0  0  0  0
 27 25  1  0  0  0  0
 28 34  2  0  0  0  0
 28 29  1  0  0  0  0
 29 30  2  0  0  0  0
 30 32  1  0  0  0  0
 30 31  1  0  0  0  0
 33 32  2  0  0  0  0
 34 33  1  0  0  0  0
M  END
>  <minimizedAffinity>
-5.68216133

$$$$

 OpenBabel03242516073D

 34 37  0  0  0  0  0  0  0  0999 V2000
   38.3410   28.1440   39.3820 Cl  0  0  0  0  0  0  0  0  0  0  0  0
   37.8430   27.9160   41.0360 C   0  0  0  0  0  0  0  0  0  0  0  0
   37.4180   26.7200   41.5050 C   0  0  0  0  0  0  0  0  0  0  0  0
   37.0510   26.6620   42.8290 C   0  0  0  0  0  0  0  0  0  0  0  0
   37.1030   27.7310   43.6450 C   0  0  0  0  0  0  0  0  0  0  0  0
   37.5320   28.9500   43.1820 C   0  0  0  0  0  0  0  0  0  0  0  0
   37.9090   29.0290   41.8430 C   0  0  0  0  0  0  0  0  0  0  0  0
   36.7060   25.7150   43.2290 H   0  0  0  0  0  0  0  0  0  0  0  0
   36.8020   27.6290   44.6800 H   0  0  0  0  0  0  0  0  0  0  0  0
   37.5590   29.7780   43.8650 H   0  0  0  0  0  0  0  0  0  0  0  0
   38.3160   23.5540   39.6150 C   0  0  0  0  0  0  0  0  0  0  0  0
   38.3760   24.6320   40.5090 C   0  0  0  0  0  0  0  0  0  0  0  0
   37.3790   25.5940   40.5870 C   0  0  0  0  0  0  0  0  0  0  0  0
   36.3400   25.4050   39.7230 N   0  0  0  0  0  0  0  0  0  0  0  0
   36.2940   24.3700   38.8720 C   0  0  0  0  0  0  0  0  0  0  0  0
   37.2680   23.4630   38.8230 N   0  0  0  0  0  0  0  0  0  0  0  0
   39.1220   22.8210   39.5880 H   0  0  0  0  0  0  0  0  0  0  0  0
   39.2290   24.7250   41.1700 H   0  0  0  0  0  0  0  0  0  0  0  0
   35.3860   24.4100   38.2790 H   0  0  0  0  0  0  0  0  0  0  0  0
   38.3760   30.3350   41.3210 C   0  0  0  0  0  0  0  0  0  0  0  0
   39.7290   30.6800   41.2360 C   0  0  0  0  0  0  0  0  0  0  0  0
   39.7090   32.3530   40.5420 S   0  0  0  0  0  0  0  0  0  0  0  0
   37.7890   32.3330   40.4690 C   0  0  0  0  0  0  0  0  0  0  0  0
   37.6220   31.3110   40.8850 N   0  0  0  0  0  0  0  0  0  0  0  0
   36.9750   33.3940   39.9950 N   0  0  0  0  0  0  0  0  0  0  0  0
   36.4740   34.0420   40.6060 H   0  0  0  0  0  0  0  0  0  0  0  0
   36.9550   33.4260   38.9540 H   0  0  0  0  0  0  0  0  0  0  0  0
   40.9230   29.9320   41.5960 C   0  0  0  0  0  0  0  0  0  0  0  0
   41.4970   29.7270   42.8330 C   0  0  0  0  0  3  0  0  0  0  0  0
   42.6570   28.9630   42.9060 C   0  0  0  0  0  0  0  0  0  0  0  0
   43.0580   28.8390   43.9110 H   0  0  0  0  0  0  0  0  0  0  0  0
   43.2070   28.4350   41.7950 N   0  0  0  0  0  0  0  0  0  0  0  0
   42.6420   28.6400   40.5970 C   0  0  0  0  0  3  0  0  0  0  0  0
   41.5230   29.3740   40.5030 N   0  0  0  0  0  0  0  0  0  0  0  0
  1  2  1  0  0  0  0
  2  3  2  0  0  0  0
  2  7  1  0  0  0  0
  3  4  1  0  0  0  0
  4  8  1  0  0  0  0
  4  5  2  0  0  0  0
  5  9  1  0  0  0  0
  6  5  1  0  0  0  0
  6 10  1  0  0  0  0
  7  6  2  0  0  0  0
 11 12  1  0  0  0  0
 12 13  2  0  0  0  0
 12 18  1  0  0  0  0
 13  3  1  0  0  0  0
 14 13  1  0  0  0  0
 15 14  2  0  0  0  0
 16 15  1  0  0  0  0
 16 11  2  0  0  0  0
 17 11  1  0  0  0  0
 19 15  1  0  0  0  0
 20  7  1  0  0  0  0
 21 20  2  0  0  0  0
 21 28  1  0  0  0  0
 22 21  1  0  0  0  0
 23 22  1  0  0  0  0
 23 24  2  0  0  0  0
 24 20  1  0  0  0  0
 25 23  1  0  0  0  0
 25 26  1  0  0  0  0
 27 25  1  0  0  0  0
 28 29  1  0  0  0  0
 29 30  2  0  0  0  0
 30 31  1  0  0  0  0
 32 30  1  0  0  0  0
 33 32  2  0  0  0  0
 34 33  1  0  0  0  0
 34 28  2  0  0  0  0
M  END
>  <minimizedAffinity>
-5.59904385

$$$$

 OpenBabel03242516073D

 34 37  0  0  0  0  0  0  0  0999 V2000
   38.4640   27.4510   39.4570 Cl  0  0  0  0  0  0  0  0  0  0  0  0
   37.7540   27.3700   41.0460 C   0  0  0  0  0  0  0  0  0  0  0  0
   37.4140   26.1960   41.6280 C   0  0  0  0  0  0  0  0  0  0  0  0
   36.8620   26.2580   42.8860 C   0  0  0  0  0  0  0  0  0  0  0  0
   36.6560   27.4210   43.5320 C   0  0  0  0  0  0  0  0  0  0  0  0
   36.9950   28.6190   42.9540 C   0  0  0  0  0  0  0  0  0  0  0  0
   37.5580   28.5760   41.6790 C   0  0  0  0  0  0  0  0  0  0  0  0
   36.5810   25.3320   43.3730 H   0  0  0  0  0  0  0  0  0  0  0  0
   36.2170   27.4120   44.5210 H   0  0  0  0  0  0  0  0  0  0  0  0
   36.8150   29.5230   43.5020 H   0  0  0  0  0  0  0  0  0  0  0  0
   36.9020   22.9870   39.6690 C   0  0  0  0  0  0  0  0  0  0  0  0
   36.6440   24.1680   40.3770 C   0  0  0  0  0  0  0  0  0  0  0  0
   37.6560   24.9670   40.8910 C   0  0  0  0  0  0  0  0  0  0  0  0
   38.9190   24.5080   40.6500 N   0  0  0  0  0  0  0  0  0  0  0  0
   39.1530   23.3760   39.9720 C   0  0  0  0  0  0  0  0  0  0  0  0
   38.1580   22.6320   39.4920 N   0  0  0  0  0  0  0  0  0  0  0  0
   36.0760   22.3890   39.2830 H   0  0  0  0  0  0  0  0  0  0  0  0
   35.6180   24.4780   40.5340 H   0  0  0  0  0  0  0  0  0  0  0  0
   40.2200   23.1970   39.8950 H   0  0  0  0  0  0  0  0  0  0  0  0
   37.9320   29.8570   41.0340 C   0  0  0  0  0  0  0  0  0  0  0  0
   37.2520   30.3790   39.9280 C   0  0  0  0  0  0  0  0  0  0  0  0
   38.1220   31.9260   39.5730 S   0  0  0  0  0  0  0  0  0  0  0  0
   39.3270   31.6220   41.0360 C   0  0  0  0  0  0  0  0  0  0  0  0
   38.9100   30.6490   41.3910 N   0  0  0  0  0  0  0  0  0  0  0  0
   40.3870   32.4840   41.4200 N   0  0  0  0  0  0  0  0  0  0  0  0
   41.3690   32.3120   41.1940 H   0  0  0  0  0  0  0  0  0  0  0  0
   40.0370   33.3060   41.9560 H   0  0  0  0  0  0  0  0  0  0  0  0
   36.1120   29.8640   39.1860 C   0  0  0  0  0  0  0  0  0  0  0  0
   34.8840   29.4290   39.6410 C   0  0  0  0  0  3  0  0  0  0  0  0
   33.9560   28.9770   38.7100 C   0  0  0  0  0  0  0  0  0  0  0  0
   33.0080   28.6480   39.1350 H   0  0  0  0  0  0  0  0  0  0  0  0
   34.2470   28.9640   37.3940 N   0  0  0  0  0  0  0  0  0  0  0  0
   35.4420   29.3890   36.9610 C   0  0  0  0  0  3  0  0  0  0  0  0
   36.3530   29.8290   37.8420 N   0  0  0  0  0  0  0  0  0  0  0  0
  1  2  1  0  0  0  0
  2  3  2  0  0  0  0
  2  7  1  0  0  0  0
  3  4  1  0  0  0  0
  4  8  1  0  0  0  0
  4  5  2  0  0  0  0
  5  9  1  0  0  0  0
  6 10  1  0  0  0  0
  6  5  1  0  0  0  0
  7  6  2  0  0  0  0
 11 12  1  0  0  0  0
 12 18  1  0  0  0  0
 12 13  2  0  0  0  0
 13  3  1  0  0  0  0
 14 13  1  0  0  0  0
 15 14  2  0  0  0  0
 16 11  2  0  0  0  0
 16 15  1  0  0  0  0
 17 11  1  0  0  0  0
 19 15  1  0  0  0  0
 20 24  1  0  0  0  0
 20  7  1  0  0  0  0
 21 20  2  0  0  0  0
 22 21  1  0  0  0  0
 22 23  1  0  0  0  0
 23 24  2  0  0  0  0
 23 25  1  0  0  0  0
 25 27  1  0  0  0  0
 26 25  1  0  0  0  0
 28 29  1  0  0  0  0
 28 21  1  0  0  0  0
 30 31  1  0  0  0  0
 30 29  2  0  0  0  0
 32 30  1  0  0  0  0
 33 32  2  0  0  0  0
 33 34  1  0  0  0  0
 34 28  2  0  0  0  0
M  END
>  <minimizedAffinity>
-5.59873962

$$$$

 OpenBabel03242516073D

 34 37  0  0  0  0  0  0  0  0999 V2000
   38.2600   30.3350   37.7000 Cl  0  0  0  0  0  0  0  0  0  0  0  0
   36.8050   29.8740   38.5410 C   0  0  0  0  0  0  0  0  0  0  0  0
   35.7620   29.2840   37.9110 C   0  0  0  0  0  0  0  0  0  0  0  0
   34.6670   28.9650   38.6790 C   0  0  0  0  0  0  0  0  0  0  0  0
   34.6080   29.2170   40.0000 C   0  0  0  0  0  0  0  0  0  0  0  0
   35.6590   29.8150   40.6510 C   0  0  0  0  0  0  0  0  0  0  0  0
   36.7780   30.1450   39.8890 C   0  0  0  0  0  0  0  0  0  0  0  0
   33.8190   28.4920   38.1980 H   0  0  0  0  0  0  0  0  0  0  0  0
   33.7210   28.9450   40.5570 H   0  0  0  0  0  0  0  0  0  0  0  0
   35.5720   29.9980   41.7050 H   0  0  0  0  0  0  0  0  0  0  0  0
   35.8640   27.5530   34.5350 C   0  0  0  0  0  0  0  0  0  0  0  0
   35.7550   27.7720   35.9160 C   0  0  0  0  0  0  0  0  0  0  0  0
   35.8720   29.0320   36.4840 C   0  0  0  0  0  0  0  0  0  0  0  0
   36.1030   30.0380   35.5900 N   0  0  0  0  0  0  0  0  0  0  0  0
   36.2060   29.8170   34.2730 C   0  0  0  0  0  0  0  0  0  0  0  0
   36.0880   28.5940   33.7590 N   0  0  0  0  0  0  0  0  0  0  0  0
   35.7650   26.5460   34.1320 H   0  0  0  0  0  0  0  0  0  0  0  0
   35.5710   26.9300   36.5720 H   0  0  0  0  0  0  0  0  0  0  0  0
   36.3890   30.7480   33.7470 H   0  0  0  0  0  0  0  0  0  0  0  0
   37.9240   30.7920   40.5710 C   0  0  0  0  0  0  0  0  0  0  0  0
   38.8760   30.0750   41.3040 C   0  0  0  0  0  0  0  0  0  0  0  0
   40.0170   31.3490   41.8990 S   0  0  0  0  0  0  0  0  0  0  0  0
   38.9900   32.7200   41.0290 C   0  0  0  0  0  0  0  0  0  0  0  0
   38.1980   32.0710   40.5840 N   0  0  0  0  0  0  0  0  0  0  0  0
   39.2920   34.1060   41.0450 N   0  0  0  0  0  0  0  0  0  0  0  0
   38.8110   34.7840   41.6400 H   0  0  0  0  0  0  0  0  0  0  0  0
   40.0580   34.3400   40.3800 H   0  0  0  0  0  0  0  0  0  0  0  0
   38.9910   28.6500   41.5720 C   0  0  0  0  0  0  0  0  0  0  0  0
   39.1740   27.5990   40.6970 C   0  0  0  0  0  3  0  0  0  0  0  0
   39.2510   26.3120   41.2170 C   0  0  0  0  0  0  0  0  0  0  0  0
   39.3960   25.5280   40.4730 H   0  0  0  0  0  0  0  0  0  0  0  0
   39.1520   26.0950   42.5430 N   0  0  0  0  0  0  0  0  0  0  0  0
   38.9750   27.1230   43.3860 C   0  0  0  0  0  3  0  0  0  0  0  0
   38.8970   28.3730   42.9060 N   0  0  0  0  0  0  0  0  0  0  0  0
  1  2  1  0  0  0  0
  2  7  1  0  0  0  0
  3  2  2  0  0  0  0
  3  4  1  0  0  0  0
  4  5  2  0  0  0  0
  5  9  1  0  0  0  0
  5  6  1  0  0  0  0
  6 10  1  0  0  0  0
  7 20  1  0  0  0  0
  7  6  2  0  0  0  0
  8  4  1  0  0  0  0
 11 12  1  0  0  0  0
 12 13  2  0  0  0  0
 12 18  1  0  0  0  0
 13  3  1  0  0  0  0
 14 13  1  0  0  0  0
 15 14  2  0  0  0  0
 16 15  1  0  0  0  0
 16 11  2  0  0  0  0
 17 11  1  0  0  0  0
 19 15  1  0  0  0  0
 20 24  1  0  0  0  0
 20 21  2  0  0  0  0
 21 28  1  0  0  0  0
 21 22  1  0  0  0  0
 23 25  1  0  0  0  0
 23 22  1  0  0  0  0
 24 23  2  0  0  0  0
 25 26  1  0  0  0  0
 27 25  1  0  0  0  0
 28 34  1  0  0  0  0
 29 30  1  0  0  0  0
 29 28  2  0  0  0  0
 30 32  2  0  0  0  0
 31 30  1  0  0  0  0
 32 33  1  0  0  0  0
 34 33  2  0  0  0  0
M  END
>  <minimizedAffinity>
-5.57021236

$$$$

 OpenBabel03242516073D

 34 37  0  0  0  0  0  0  0  0999 V2000
   39.7720   25.6150   40.4170 Cl  0  0  0  0  0  0  0  0  0  0  0  0
   38.7950   26.3850   41.6360 C   0  0  0  0  0  0  0  0  0  0  0  0
   37.4420   26.3780   41.5900 C   0  0  0  0  0  0  0  0  0  0  0  0
   36.7780   27.0190   42.6100 C   0  0  0  0  0  0  0  0  0  0  0  0
   37.4200   27.6350   43.6200 C   0  0  0  0  0  0  0  0  0  0  0  0
   38.7920   27.6490   43.6790 C   0  0  0  0  0  0  0  0  0  0  0  0
   39.4820   27.0040   42.6550 C   0  0  0  0  0  0  0  0  0  0  0  0
   35.6950   27.0290   42.5950 H   0  0  0  0  0  0  0  0  0  0  0  0
   36.8470   28.1250   44.3970 H   0  0  0  0  0  0  0  0  0  0  0  0
   39.2650   28.1500   44.5020 H   0  0  0  0  0  0  0  0  0  0  0  0
   35.8310   23.7240   39.4080 C   0  0  0  0  0  0  0  0  0  0  0  0
   36.4570   24.3550   40.4920 C   0  0  0  0  0  0  0  0  0  0  0  0
   36.7940   25.7010   40.4790 C   0  0  0  0  0  0  0  0  0  0  0  0
   36.4670   26.3570   39.3280 N   0  0  0  0  0  0  0  0  0  0  0  0
   35.8690   25.7420   38.2980 C   0  0  0  0  0  0  0  0  0  0  0  0
   35.5590   24.4480   38.3420 N   0  0  0  0  0  0  0  0  0  0  0  0
   35.5840   22.6640   39.4610 H   0  0  0  0  0  0  0  0  0  0  0  0
   36.6900   23.7780   41.3780 H   0  0  0  0  0  0  0  0  0  0  0  0
   35.7010   26.4440   37.4870 H   0  0  0  0  0  0  0  0  0  0  0  0
   40.9640   27.0070   42.6970 C   0  0  0  0  0  0  0  0  0  0  0  0
   41.7340   28.0950   42.2730 C   0  0  0  0  0  0  0  0  0  0  0  0
   43.4400   27.5530   42.5460 S   0  0  0  0  0  0  0  0  0  0  0  0
   42.8280   25.8620   43.2210 C   0  0  0  0  0  0  0  0  0  0  0  0
   41.7300   26.0340   43.1180 N   0  0  0  0  0  0  0  0  0  0  0  0
   43.6640   24.8090   43.6780 N   0  0  0  0  0  0  0  0  0  0  0  0
   43.8790   23.9760   43.1270 H   0  0  0  0  0  0  0  0  0  0  0  0
   44.0250   24.9950   44.6370 H   0  0  0  0  0  0  0  0  0  0  0  0
   41.3370   29.3850   41.7320 C   0  0  0  0  0  0  0  0  0  0  0  0
   41.2030   30.6040   42.3630 C   0  0  0  0  0  3  0  0  0  0  0  0
   40.8010   31.7000   41.6070 C   0  0  0  0  0  0  0  0  0  0  0  0
   40.7150   32.6320   42.1650 H   0  0  0  0  0  0  0  0  0  0  0  0
   40.5500   31.5750   40.2890 N   0  0  0  0  0  0  0  0  0  0  0  0
   40.6830   30.3860   39.6840 C   0  0  0  0  0  3  0  0  0  0  0  0
   41.0700   29.3150   40.3940 N   0  0  0  0  0  0  0  0  0  0  0  0
  1  2  1  0  0  0  0
  2  7  1  0  0  0  0
  3  2  2  0  0  0  0
  3  4  1  0  0  0  0
  4  5  2  0  0  0  0
  5  6  1  0  0  0  0
  5  9  1  0  0  0  0
  6 10  1  0  0  0  0
  7 20  1  0  0  0  0
  7  6  2  0  0  0  0
  8  4  1  0  0  0  0
 11 17  1  0  0  0  0
 11 12  1  0  0  0  0
 12 18  1  0  0  0  0
 13 12  2  0  0  0  0
 13  3  1  0  0  0  0
 14 13  1  0  0  0  0
 15 16  1  0  0  0  0
 15 14  2  0  0  0  0
 16 11  2  0  0  0  0
 19 15  1  0  0  0  0
 20 24  1  0  0  0  0
 21 22  1  0  0  0  0
 21 20  2  0  0  0  0
 22 23  1  0  0  0  0
 23 25  1  0  0  0  0
 24 23  2  0  0  0  0
 25 27  1  0  0  0  0
 26 25  1  0  0  0  0
 28 21  1  0  0  0  0
 28 29  1  0  0  0  0
 30 31  1  0  0  0  0
 30 29  2  0  0  0  0
 32 30  1  0  0  0  0
 33 32  2  0  0  0  0
 33 34  1  0  0  0  0
 34 28  2  0  0  0  0
M  END
>  <minimizedAffinity>
-5.53266048

$$$$

 OpenBabel03242516073D

 34 37  0  0  0  0  0  0  0  0999 V2000
   39.6060   27.1150   39.9760 Cl  0  0  0  0  0  0  0  0  0  0  0  0
   38.6180   27.3770   41.3870 C   0  0  0  0  0  0  0  0  0  0  0  0
   39.1050   27.2580   42.6440 C   0  0  0  0  0  0  0  0  0  0  0  0
   38.2300   27.4900   43.6790 C   0  0  0  0  0  0  0  0  0  0  0  0
   36.9400   27.8210   43.4790 C   0  0  0  0  0  0  0  0  0  0  0  0
   36.4330   27.9440   42.2100 C   0  0  0  0  0  0  0  0  0  0  0  0
   37.3050   27.7140   41.1480 C   0  0  0  0  0  0  0  0  0  0  0  0
   38.5960   27.4010   44.6950 H   0  0  0  0  0  0  0  0  0  0  0  0
   36.2950   27.9920   44.3320 H   0  0  0  0  0  0  0  0  0  0  0  0
   35.4000   28.2100   42.0940 H   0  0  0  0  0  0  0  0  0  0  0  0
   42.3080   25.2710   43.0860 C   0  0  0  0  0  0  0  0  0  0  0  0
   40.9530   25.5920   42.9280 C   0  0  0  0  0  0  0  0  0  0  0  0
   40.5040   26.9000   42.8090 C   0  0  0  0  0  0  0  0  0  0  0  0
   41.4890   27.8440   42.8590 N   0  0  0  0  0  0  0  0  0  0  0  0
   42.7810   27.5240   43.0110 C   0  0  0  0  0  0  0  0  0  0  0  0
   43.1790   26.2580   43.1220 N   0  0  0  0  0  0  0  0  0  0  0  0
   42.6160   24.2290   43.1750 H   0  0  0  0  0  0  0  0  0  0  0  0
   40.2200   24.7950   42.8950 H   0  0  0  0  0  0  0  0  0  0  0  0
   43.3920   28.4210   43.0260 H   0  0  0  0  0  0  0  0  0  0  0  0
   36.7790   27.8410   39.7680 C   0  0  0  0  0  0  0  0  0  0  0  0
   36.8380   29.0340   39.0390 C   0  0  0  0  0  0  0  0  0  0  0  0
   36.0650   28.6150   37.4560 S   0  0  0  0  0  0  0  0  0  0  0  0
   35.7650   26.8110   38.0440 C   0  0  0  0  0  0  0  0  0  0  0  0
   36.2080   26.8970   39.0650 N   0  0  0  0  0  0  0  0  0  0  0  0
   35.1460   25.7890   37.2780 N   0  0  0  0  0  0  0  0  0  0  0  0
   34.1770   25.4910   37.4070 H   0  0  0  0  0  0  0  0  0  0  0  0
   35.8010   25.3890   36.5740 H   0  0  0  0  0  0  0  0  0  0  0  0
   37.3740   30.3380   39.3950 C   0  0  0  0  0  0  0  0  0  0  0  0
   36.7710   31.3920   40.0500 C   0  0  0  0  0  3  0  0  0  0  0  0
   37.5140   32.5470   40.2680 C   0  0  0  0  0  0  0  0  0  0  0  0
   36.9800   33.3410   40.7900 H   0  0  0  0  0  0  0  0  0  0  0  0
   38.7920   32.6360   39.8510 N   0  0  0  0  0  0  0  0  0  0  0  0
   39.3700   31.6060   39.2140 C   0  0  0  0  0  3  0  0  0  0  0  0
   38.6710   30.4820   38.9940 N   0  0  0  0  0  0  0  0  0  0  0  0
  1  2  1  0  0  0  0
  2  3  1  0  0  0  0
  3 13  1  0  0  0  0
  3  4  2  0  0  0  0
  4  8  1  0  0  0  0
  5  4  1  0  0  0  0
  5  9  1  0  0  0  0
  6  5  2  0  0  0  0
  7  2  2  0  0  0  0
  7  6  1  0  0  0  0
 10  6  1  0  0  0  0
 11 16  1  0  0  0  0
 11 17  1  0  0  0  0
 12 11  2  0  0  0  0
 13 14  2  0  0  0  0
 13 12  1  0  0  0  0
 14 15  1  0  0  0  0
 15 19  1  0  0  0  0
 15 16  2  0  0  0  0
 18 12  1  0  0  0  0
 20  7  1  0  0  0  0
 21 28  1  0  0  0  0
 21 20  2  0  0  0  0
 22 23  1  0  0  0  0
 22 21  1  0  0  0  0
 23 24  2  0  0  0  0
 24 20  1  0  0  0  0
 25 26  1  0  0  0  0
 25 23  1  0  0  0  0
 27 25  1  0  0  0  0
 28 29  1  0  0  0  0
 29 30  2  0  0  0  0
 30 31  1  0  0  0  0
 32 30  1  0  0  0  0
 33 32  2  0  0  0  0
 34 33  1  0  0  0  0
 34 28  2  0  0  0  0
M  END
>  <minimizedAffinity>
-5.50745201

$$$$
