
 OpenBabel03252509043D

 46 48  0  0  1  0  0  0  0  0999 V2000
   46.9360   34.3260   43.3380 N   0  0  0  0  0  0  0  0  0  0  0  0
   46.4990   35.5240   42.7220 C   0  0  0  0  0  0  0  0  0  0  0  0
   45.0190   35.8130   42.8550 C   0  0  0  0  0  0  0  0  0  0  0  0
   44.3930   35.3070   44.1320 C   0  0  0  0  0  0  0  0  0  0  0  0
   45.4320   34.7250   45.0620 C   0  0  0  0  0  0  0  0  0  0  0  0
   46.1170   33.6070   44.1840 C   0  0  2  0  0  0  0  0  0  0  0  0
   47.0280   36.3680   43.2490 H   0  0  0  0  0  0  0  0  0  0  0  0
   46.7480   35.6600   41.6650 H   0  0  0  0  0  0  0  0  0  0  0  0
   44.4830   35.4220   41.9490 H   0  0  0  0  0  0  0  0  0  0  0  0
   44.8530   36.9200   42.8390 H   0  0  0  0  0  0  0  0  0  0  0  0
   43.7130   36.0300   44.6090 H   0  0  0  0  0  0  0  0  0  0  0  0
   43.7470   34.4320   43.8370 H   0  0  0  0  0  0  0  0  0  0  0  0
   46.1950   35.4460   45.3700 H   0  0  0  0  0  0  0  0  0  0  0  0
   44.8880   34.2410   45.8950 H   0  0  0  0  0  0  0  0  0  0  0  0
   45.2830   33.0180   43.7510 H   0  0  0  0  0  0  0  0  0  0  0  0
   47.9360   33.6050   42.5770 C   0  0  0  0  0  0  0  0  0  0  0  0
   48.5360   34.3780   42.0510 H   0  0  0  0  0  0  0  0  0  0  0  0
   48.6580   33.0740   43.2480 H   0  0  0  0  0  0  0  0  0  0  0  0
   47.2480   32.7210   41.6070 C   0  0  0  0  0  0  0  0  0  0  0  0
   47.3110   31.6760   41.9170 H   0  0  0  0  0  0  0  0  0  0  0  0
   46.1380   32.9410   41.5710 H   0  0  0  0  0  0  0  0  0  0  0  0
   49.2810   32.1580   38.4850 C   0  0  0  0  0  0  0  0  0  0  0  0
   48.7010   31.9970   39.7600 C   0  0  0  0  0  0  0  0  0  0  0  0
   47.8400   32.9210   40.2610 C   0  0  0  0  0  0  0  0  0  0  0  0
   47.5740   33.9790   39.4910 N   0  0  0  0  0  0  0  0  0  0  0  0
   48.1110   34.1560   38.2740 C   0  0  0  0  0  0  0  0  0  0  0  0
   48.9660   33.2580   37.7540 N   0  0  0  0  0  0  0  0  0  0  0  0
   49.9570   31.4580   38.0600 H   0  0  0  0  0  0  0  0  0  0  0  0
   49.0250   31.0900   40.2390 H   0  0  0  0  0  0  0  0  0  0  0  0
   47.8040   35.0630   37.7590 H   0  0  0  0  0  0  0  0  0  0  0  0
   46.8210   32.9100   45.1370 O   0  0  0  0  0  0  0  0  0  0  0  0
   45.3670   30.8920   44.1640 O   0  0  0  0  0  0  0  0  0  0  0  0
   46.3100   31.3290   45.3080 P   0  0  2  0  0  0  0  0  0  0  0  0
   45.2850   31.2980   46.6960 O   0  0  0  0  0  0  0  0  0  0  0  0
   45.7590   31.8080   47.4060 H   0  0  0  0  0  0  0  0  0  0  0  0
   47.5110   30.2250   45.5540 O   0  0  0  0  0  0  0  0  0  0  0  0
   47.9470   29.6930   44.3690 C   0  0  0  0  0  0  0  0  0  0  0  0
   47.2240   30.0900   43.5870 H   0  0  0  0  0  0  0  0  0  0  0  0
   47.6670   28.5960   44.3990 H   0  0  0  0  0  0  0  0  0  0  0  0
   49.3340   29.9050   43.9890 C   0  0  0  0  0  0  0  0  0  0  0  0
   50.1820   29.1920   44.8450 C   0  0  0  0  0  3  0  0  0  0  0  0
   51.5560   29.2530   44.5800 C   0  0  0  0  0  0  0  0  0  0  0  0
   52.3010   28.7270   45.1950 H   0  0  0  0  0  0  0  0  0  0  0  0
   52.0780   29.9560   43.5580 N   0  0  0  0  0  0  0  0  0  0  0  0
   51.2200   30.6240   42.7670 C   0  0  0  0  0  3  0  0  0  0  0  0
   49.8890   30.6070   42.9640 N   0  0  0  0  0  0  0  0  0  0  0  0
  1  6  1  0  0  0  0
  2  3  1  0  0  0  0
  2  7  1  0  0  0  0
  2  1  1  0  0  0  0
  3  4  1  0  0  0  0
  4 11  1  0  0  0  0
  4  5  1  0  0  0  0
  5 13  1  0  0  0  0
  5 14  1  0  0  0  0
  6 15  1  6  0  0  0
  6  5  1  0  0  0  0
  6 31  1  0  0  0  0
  8  2  1  0  0  0  0
  9  3  1  0  0  0  0
 10  3  1  0  0  0  0
 12  4  1  0  0  0  0
 16 18  1  0  0  0  0
 16  1  1  0  0  0  0
 17 16  1  0  0  0  0
 19 20  1  0  0  0  0
 19 16  1  0  0  0  0
 21 19  1  0  0  0  0
 22 23  1  0  0  0  0
 23 29  1  0  0  0  0
 23 24  2  0  0  0  0
 24 19  1  0  0  0  0
 25 24  1  0  0  0  0
 26 25  2  0  0  0  0
 27 26  1  0  0  0  0
 27 22  2  0  0  0  0
 28 22  1  0  0  0  0
 30 26  1  0  0  0  0
 31 33  1  0  0  0  0
 33 32  2  6  0  0  0
 33 36  1  0  0  0  0
 33 34  1  0  0  0  0
 34 35  1  0  0  0  0
 37 39  1  0  0  0  0
 37 36  1  0  0  0  0
 38 37  1  0  0  0  0
 40 37  1  0  0  0  0
 40 41  1  0  0  0  0
 42 41  2  0  0  0  0
 42 43  1  0  0  0  0
 44 42  1  0  0  0  0
 45 46  1  0  0  0  0
 45 44  2  0  0  0  0
 46 40  2  0  0  0  0
M  END
>  <minimizedAffinity>
-3.95658207

>  <minimizedRMSD>
1.66324532

$$$$
