
 OpenBabel03252506373D

 42 45  0  0  1  0  0  0  0  0999 V2000
   44.5020   35.5500   45.1420 C   0  0  0  0  0  0  0  0  0  0  0  0
   45.1530   35.5510   43.8960 C   0  0  0  0  0  0  0  0  0  0  0  0
   46.0710   34.5950   43.6290 C   0  0  0  0  0  0  0  0  0  0  0  0
   46.3100   33.6770   44.6010 N   0  0  0  0  0  0  0  0  0  0  0  0
   45.6930   33.6840   45.7720 C   0  0  0  0  0  0  0  0  0  0  0  0
   44.7850   34.6140   46.0580 N   0  0  0  0  0  0  0  0  0  0  0  0
   46.0230   32.6650   46.7320 N   0  0  0  0  0  0  0  0  0  0  0  0
   45.2850   32.4110   47.9170 C   0  0  0  0  0  0  0  0  0  0  0  0
   46.3590   32.0550   48.9270 C   0  0  0  0  0  0  0  0  0  0  0  0
   47.6420   31.9650   48.1590 C   0  0  0  0  0  0  0  0  0  0  0  0
   47.1490   31.7600   46.7270 C   0  0  1  0  0  0  0  0  0  0  0  0
   43.7700   36.3310   45.3230 H   0  0  0  0  0  0  0  0  0  0  0  0
   46.5900   34.5660   42.6810 H   0  0  0  0  0  0  0  0  0  0  0  0
   44.4550   31.7880   48.0000 H   0  0  0  0  0  0  0  0  0  0  0  0
   44.9310   33.4290   48.2820 H   0  0  0  0  0  0  0  0  0  0  0  0
   46.3910   32.6910   49.8110 H   0  0  0  0  0  0  0  0  0  0  0  0
   46.1160   31.0240   49.3190 H   0  0  0  0  0  0  0  0  0  0  0  0
   48.2250   31.1100   48.5090 H   0  0  0  0  0  0  0  0  0  0  0  0
   48.1410   32.9530   48.2620 H   0  0  0  0  0  0  0  0  0  0  0  0
   47.9350   32.1130   46.0400 H   0  0  0  0  0  0  0  0  0  0  0  0
   44.8010   36.5840   42.9580 N   0  0  0  0  0  0  0  0  0  0  0  0
   45.1490   36.4730   41.9760 H   0  0  0  0  0  0  0  0  0  0  0  0
   44.2330   37.3910   43.2550 H   0  0  0  0  0  0  0  0  0  0  0  0
   46.6460   30.0690   46.5260 S   0  0  0  0  0  0  0  0  0  0  0  0
   45.6540   30.6990   43.4010 O   0  0  0  0  0  0  0  0  0  0  0  0
   45.0270   30.0920   44.2850 C   0  0  0  0  0  0  0  0  0  0  0  0
   45.1150   29.7820   45.7370 C   0  0  1  0  0  0  0  0  0  0  0  0
   44.6190   28.3590   45.7680 C   0  0  0  0  0  0  0  0  0  0  0  0
   43.3060   28.5750   45.0120 C   0  0  0  0  0  0  0  0  0  0  0  0
   43.8000   29.4250   43.9260 N   0  0  0  0  0  0  0  0  0  0  0  0
   44.2120   30.3300   46.1130 H   0  0  0  0  0  0  0  0  0  0  0  0
   45.2420   27.7030   45.1240 H   0  0  0  0  0  0  0  0  0  0  0  0
   44.4680   27.9690   46.7780 H   0  0  0  0  0  0  0  0  0  0  0  0
   42.5470   29.0640   45.6160 H   0  0  0  0  0  0  0  0  0  0  0  0
   42.9880   27.6140   44.5650 H   0  0  0  0  0  0  0  0  0  0  0  0
   43.0620   29.5050   42.6930 C   0  0  0  0  0  0  0  0  0  0  0  0
   42.1050   30.4070   42.3430 C   0  0  0  0  0  3  0  0  0  0  0  0
   41.5430   30.2630   41.0870 C   0  0  0  0  0  0  0  0  0  0  0  0
   40.7730   31.0020   40.8240 H   0  0  0  0  0  0  0  0  0  0  0  0
   41.9050   29.2900   40.2320 N   0  0  0  0  0  0  0  0  0  0  0  0
   42.8550   28.4060   40.5970 C   0  0  0  0  0  3  0  0  0  0  0  0
   43.4100   28.5280   41.8070 N   0  0  0  0  0  0  0  0  0  0  0  0
  1 12  1  0  0  0  0
  1  6  1  0  0  0  0
  2  1  2  0  0  0  0
  3  2  1  0  0  0  0
  3  4  2  0  0  0  0
  4  5  1  0  0  0  0
  5  6  2  0  0  0  0
  5  7  1  0  0  0  0
  7  8  1  0  0  0  0
  8 14  1  0  0  0  0
  8 15  1  0  0  0  0
  8  9  1  0  0  0  0
  9 17  1  0  0  0  0
  9 16  1  0  0  0  0
 10 19  1  0  0  0  0
 10 18  1  0  0  0  0
 10  9  1  0  0  0  0
 11 20  1  6  0  0  0
 11  7  1  0  0  0  0
 11 10  1  0  0  0  0
 13  3  1  0  0  0  0
 21 23  1  0  0  0  0
 21  2  1  0  0  0  0
 22 21  1  0  0  0  0
 24 11  1  0  0  0  0
 25 26  2  0  0  0  0
 26 27  1  0  0  0  0
 27 28  1  0  0  0  0
 27 31  1  1  0  0  0
 27 24  1  0  0  0  0
 28 33  1  0  0  0  0
 29 34  1  0  0  0  0
 29 28  1  0  0  0  0
 30 26  1  0  0  0  0
 30 29  1  0  0  0  0
 32 28  1  0  0  0  0
 35 29  1  0  0  0  0
 36 30  1  0  0  0  0
 37 36  1  0  0  0  0
 38 37  2  0  0  0  0
 39 38  1  0  0  0  0
 40 41  2  0  0  0  0
 40 38  1  0  0  0  0
 41 42  1  0  0  0  0
 42 36  2  0  0  0  0
M  END
>  <minimizedAffinity>
-5.22738791

>  <minimizedRMSD>
0.587352872

$$$$
