
 OpenBabel03242515553D

 35 38  0  0  0  0  0  0  0  0999 V2000
   45.9610   32.7470   46.4780 C   0  0  0  0  0  0  0  0  0  0  0  0
   45.4210   32.8640   47.7810 C   0  0  0  0  0  0  0  0  0  0  0  0
   45.6420   31.9530   48.7860 C   0  0  0  0  0  0  0  0  0  0  0  0
   46.4100   30.8680   48.5630 C   0  0  0  0  0  0  0  0  0  0  0  0
   46.9640   30.6980   47.3070 C   0  0  0  0  0  0  0  0  0  0  0  0
   47.7370   29.5830   47.1190 C   0  0  0  0  0  0  0  0  0  0  0  0
   48.3160   29.3520   45.8870 C   0  0  0  0  0  0  0  0  0  0  0  0
   48.0720   30.2870   44.8940 C   0  0  0  0  0  0  0  0  0  0  0  0
   47.3000   31.3590   45.1550 C   0  0  0  0  0  0  0  0  0  0  0  0
   46.7260   31.6260   46.3230 C   0  0  0  0  0  0  0  0  0  0  0  0
   44.8010   33.7130   48.0130 H   0  0  0  0  0  0  0  0  0  0  0  0
   45.1940   32.1120   49.7570 H   0  0  0  0  0  0  0  0  0  0  0  0
   46.5650   30.1720   49.3690 H   0  0  0  0  0  0  0  0  0  0  0  0
   47.8780   28.8840   47.9730 H   0  0  0  0  0  0  0  0  0  0  0  0
   48.9120   28.4190   45.8780 H   0  0  0  0  0  0  0  0  0  0  0  0
   48.6750   29.9050   44.0820 H   0  0  0  0  0  0  0  0  0  0  0  0
   44.4590   35.7190   45.1230 C   0  0  0  0  0  0  0  0  0  0  0  0
   45.1030   35.8340   43.8500 C   0  0  0  0  0  0  0  0  0  0  0  0
   46.0680   34.8660   43.4400 C   0  0  0  0  0  0  0  0  0  0  0  0
   46.3160   33.8750   44.3120 N   0  0  0  0  0  0  0  0  0  0  0  0
   45.7420   33.7530   45.4730 C   0  0  0  0  0  0  0  0  0  0  0  0
   44.8170   34.6810   45.8660 N   0  0  0  0  0  0  0  0  0  0  0  0
   43.7360   36.4680   45.3980 H   0  0  0  0  0  0  0  0  0  0  0  0
   46.5160   35.0110   42.4710 H   0  0  0  0  0  0  0  0  0  0  0  0
   44.7190   36.9540   43.0560 N   0  0  0  0  0  0  0  0  0  0  0  0
   44.5500   37.8590   43.5570 H   0  0  0  0  0  0  0  0  0  0  0  0
   44.6290   36.8080   42.0260 H   0  0  0  0  0  0  0  0  0  0  0  0
   47.2270   32.0730   43.9980 O   0  0  0  0  0  0  0  0  0  0  0  0
   47.9540   31.9040   42.8240 C   0  0  0  0  0  0  0  0  0  0  0  0
   47.8590   31.1670   41.6760 C   0  0  0  0  0  0  0  0  0  0  0  0
   48.7030   31.1500   40.6010 C   0  0  0  0  0  0  0  0  0  0  0  0
   48.4880   30.5050   39.7660 H   0  0  0  0  0  0  0  0  0  0  0  0
   49.7740   31.9900   40.7100 N   0  0  0  0  0  0  0  0  0  0  0  0
   49.9300   32.7470   41.8110 C   0  0  0  0  0  0  0  0  0  0  0  0
   49.0420   32.6630   42.7690 N   0  0  0  0  0  0  0  0  0  0  0  0
  1  2  1  0  0  0  0
  2 11  1  0  0  0  0
  2  3  2  0  0  0  0
  3 12  1  0  0  0  0
  4  3  1  0  0  0  0
  4 13  1  0  0  0  0
  5  4  2  0  0  0  0
  6  5  1  0  0  0  0
  6 14  1  0  0  0  0
  7  6  2  0  0  0  0
  8  9  2  0  0  0  0
  8  7  1  0  0  0  0
  9 10  1  0  0  0  0
 10  1  2  0  0  0  0
 10  5  1  0  0  0  0
 15  7  1  0  0  0  0
 16  8  1  0  0  0  0
 17 23  1  0  0  0  0
 17 22  1  0  0  0  0
 18 17  2  0  0  0  0
 19 18  1  0  0  0  0
 19 20  2  0  0  0  0
 20 21  1  0  0  0  0
 21 22  2  0  0  0  0
 21  1  1  0  0  0  0
 24 19  1  0  0  0  0
 25 26  1  0  0  0  0
 25 18  1  0  0  0  0
 27 25  1  0  0  0  0
 28  9  1  0  0  0  0
 29 28  1  0  0  0  0
 30 29  2  0  0  0  0
 31 33  2  0  0  0  0
 31 30  1  0  0  0  0
 32 31  1  0  0  0  0
 33 34  1  0  0  0  0
 34 35  2  0  0  0  0
 35 29  1  0  0  0  0
M  END
>  <minimizedAffinity>
-6.00359917

>  <minimizedRMSD>
0.970573604

$$$$
