
 OpenBabel03252506533D

 29 32  0  0  0  0  0  0  0  0999 V2000
   36.5740   30.5240   38.7720 C   0  0  0  0  0  0  0  0  0  0  0  0
   35.6880   29.4670   38.7640 C   0  0  0  0  0  0  0  0  0  0  0  0
   35.5390   28.6360   39.8520 C   0  0  0  0  0  0  0  0  0  0  0  0
   36.2880   28.8390   41.0100 C   0  0  0  0  0  0  0  0  0  0  0  0
   36.4000   28.2450   42.2250 N   0  0  0  0  0  0  0  0  0  0  0  0
   37.3250   28.9140   42.9560 C   0  0  0  0  0  0  0  0  0  0  0  0
   37.7740   29.9180   42.1800 N   0  0  0  0  0  0  0  0  0  0  0  0
   37.1570   29.9030   40.9730 C   0  0  0  0  0  0  0  0  0  0  0  0
   37.3420   30.7630   39.9060 C   0  0  0  0  0  0  0  0  0  0  0  0
   36.6680   31.1550   37.9040 H   0  0  0  0  0  0  0  0  0  0  0  0
   34.8480   27.8060   39.8580 H   0  0  0  0  0  0  0  0  0  0  0  0
   35.8190   27.3940   42.4830 H   0  0  0  0  0  0  0  0  0  0  0  0
   37.5300   28.5670   43.9460 H   0  0  0  0  0  0  0  0  0  0  0  0
   32.8270   28.6700   36.6040 C   0  0  0  0  0  0  0  0  0  0  0  0
   33.4070   28.7230   35.3150 C   0  0  0  0  0  0  0  0  0  0  0  0
   34.7680   29.0310   35.2040 C   0  0  0  0  0  0  0  0  0  0  0  0
   35.4460   29.2610   36.3640 N   0  0  0  0  0  0  0  0  0  0  0  0
   34.8780   29.2060   37.5760 C   0  0  0  0  0  0  0  0  0  0  0  0
   33.5670   28.9110   37.7160 N   0  0  0  0  0  0  0  0  0  0  0  0
   31.7630   28.4290   36.6740 H   0  0  0  0  0  0  0  0  0  0  0  0
   32.8170   28.5310   34.4290 H   0  0  0  0  0  0  0  0  0  0  0  0
   35.2680   29.0870   34.2680 H   0  0  0  0  0  0  0  0  0  0  0  0
   38.2960   31.8480   40.0020 C   0  0  0  0  0  0  0  0  0  0  0  0
   37.9360   33.1290   40.3030 C   0  0  0  0  0  3  0  0  0  0  0  0
   38.8430   34.1610   40.3930 C   0  0  0  0  0  0  0  0  0  0  0  0
   38.5380   35.1760   40.6350 H   0  0  0  0  0  0  0  0  0  0  0  0
   40.1580   33.8790   40.1700 N   0  0  0  0  0  0  0  0  0  0  0  0
   40.4820   32.5980   39.8730 C   0  0  0  0  0  3  0  0  0  0  0  0
   39.5960   31.6170   39.7900 N   0  0  0  0  0  0  0  0  0  0  0  0
  1  9  1  0  0  0  0
  2  1  2  0  0  0  0
  2  3  1  0  0  0  0
  3 11  1  0  0  0  0
  3  4  2  0  0  0  0
  4  5  1  0  0  0  0
  5 12  1  0  0  0  0
  5  6  1  0  0  0  0
  6 13  1  0  0  0  0
  7  6  2  0  0  0  0
  8  4  1  0  0  0  0
  8  7  1  0  0  0  0
  9 23  1  0  0  0  0
  9  8  2  0  0  0  0
 10  1  1  0  0  0  0
 14 20  1  0  0  0  0
 14 19  1  0  0  0  0
 15 14  2  0  0  0  0
 16 15  1  0  0  0  0
 16 17  2  0  0  0  0
 17 18  1  0  0  0  0
 18 19  2  0  0  0  0
 18  2  1  0  0  0  0
 21 15  1  0  0  0  0
 22 16  1  0  0  0  0
 23 24  1  0  0  0  0
 24 25  2  0  0  0  0
 25 26  1  0  0  0  0
 27 25  1  0  0  0  0
 28 27  2  0  0  0  0
 29 28  1  0  0  0  0
 29 23  2  0  0  0  0
M  END
>  <minimizedAffinity>
-5.41231251

$$$$

 OpenBabel03252506533D

 29 32  0  0  0  0  0  0  0  0999 V2000
   35.9390   27.2560   39.0150 C   0  0  0  0  0  0  0  0  0  0  0  0
   35.3100   28.4800   38.9240 C   0  0  0  0  0  0  0  0  0  0  0  0
   35.4440   29.4410   39.9020 C   0  0  0  0  0  0  0  0  0  0  0  0
   36.2310   29.2040   41.0270 C   0  0  0  0  0  0  0  0  0  0  0  0
   36.5790   29.8910   42.1450 N   0  0  0  0  0  0  0  0  0  0  0  0
   37.3960   29.1150   42.8990 C   0  0  0  0  0  0  0  0  0  0  0  0
   37.5430   27.9540   42.2340 N   0  0  0  0  0  0  0  0  0  0  0  0
   36.8400   27.9730   41.0760 C   0  0  0  0  0  0  0  0  0  0  0  0
   36.7340   26.9780   40.1220 C   0  0  0  0  0  0  0  0  0  0  0  0
   35.8130   26.5260   38.2330 H   0  0  0  0  0  0  0  0  0  0  0  0
   34.9570   30.4020   39.8410 H   0  0  0  0  0  0  0  0  0  0  0  0
   36.2250   30.8760   42.3250 H   0  0  0  0  0  0  0  0  0  0  0  0
   37.7610   29.5160   43.8200 H   0  0  0  0  0  0  0  0  0  0  0  0
   34.2300   29.0820   35.4660 C   0  0  0  0  0  0  0  0  0  0  0  0
   32.8530   29.3570   35.6300 C   0  0  0  0  0  0  0  0  0  0  0  0
   32.3130   29.3310   36.9210 C   0  0  0  0  0  0  0  0  0  0  0  0
   33.1680   29.0390   37.9420 N   0  0  0  0  0  0  0  0  0  0  0  0
   34.4710   28.7820   37.7650 C   0  0  0  0  0  0  0  0  0  0  0  0
   35.0220   28.7990   36.5320 N   0  0  0  0  0  0  0  0  0  0  0  0
   34.6370   29.1060   34.4510 H   0  0  0  0  0  0  0  0  0  0  0  0
   32.2230   29.5820   34.7800 H   0  0  0  0  0  0  0  0  0  0  0  0
   31.2880   29.5270   37.1180 H   0  0  0  0  0  0  0  0  0  0  0  0
   37.4310   25.7210   40.2990 C   0  0  0  0  0  0  0  0  0  0  0  0
   36.8700   24.6410   40.9150 C   0  0  0  0  0  3  0  0  0  0  0  0
   37.5330   23.4460   41.0840 C   0  0  0  0  0  0  0  0  0  0  0  0
   37.0700   22.5950   41.5770 H   0  0  0  0  0  0  0  0  0  0  0  0
   38.8070   23.3490   40.6100 N   0  0  0  0  0  0  0  0  0  0  0  0
   39.3350   24.4390   40.0040 C   0  0  0  0  0  3  0  0  0  0  0  0
   38.6830   25.5810   39.8510 N   0  0  0  0  0  0  0  0  0  0  0  0
  1  9  1  0  0  0  0
  2  1  2  0  0  0  0
  2  3  1  0  0  0  0
  3  4  2  0  0  0  0
  4  8  1  0  0  0  0
  4  5  1  0  0  0  0
  5 12  1  0  0  0  0
  5  6  1  0  0  0  0
  6 13  1  0  0  0  0
  7  6  2  0  0  0  0
  8  7  1  0  0  0  0
  9 23  1  0  0  0  0
  9  8  2  0  0  0  0
 10  1  1  0  0  0  0
 11  3  1  0  0  0  0
 14 15  2  0  0  0  0
 14 19  1  0  0  0  0
 15 16  1  0  0  0  0
 16 22  1  0  0  0  0
 16 17  2  0  0  0  0
 18 17  1  0  0  0  0
 18  2  1  0  0  0  0
 19 18  2  0  0  0  0
 20 14  1  0  0  0  0
 21 15  1  0  0  0  0
 23 24  1  0  0  0  0
 24 25  2  0  0  0  0
 25 26  1  0  0  0  0
 27 25  1  0  0  0  0
 28 27  2  0  0  0  0
 29 28  1  0  0  0  0
 29 23  2  0  0  0  0
M  END
>  <minimizedAffinity>
-5.24422359

$$$$

 OpenBabel03252506533D

 29 32  0  0  0  0  0  0  0  0999 V2000
   37.6840   28.9530   39.9410 C   0  0  0  0  0  0  0  0  0  0  0  0
   38.3540   29.2890   41.0990 C   0  0  0  0  0  0  0  0  0  0  0  0
   38.5460   30.6000   41.4750 C   0  0  0  0  0  0  0  0  0  0  0  0
   38.0630   31.6430   40.6870 C   0  0  0  0  0  0  0  0  0  0  0  0
   38.0660   32.9990   40.7420 N   0  0  0  0  0  0  0  0  0  0  0  0
   37.4190   33.4820   39.6530 C   0  0  0  0  0  0  0  0  0  0  0  0
   37.0220   32.4140   38.9360 N   0  0  0  0  0  0  0  0  0  0  0  0
   37.4010   31.2630   39.5430 C   0  0  0  0  0  0  0  0  0  0  0  0
   37.1850   29.9630   39.1250 C   0  0  0  0  0  0  0  0  0  0  0  0
   37.5510   27.9180   39.6760 H   0  0  0  0  0  0  0  0  0  0  0  0
   39.0690   30.8730   42.3790 H   0  0  0  0  0  0  0  0  0  0  0  0
   38.5250   33.5210   41.5440 H   0  0  0  0  0  0  0  0  0  0  0  0
   37.3350   34.5430   39.5480 H   0  0  0  0  0  0  0  0  0  0  0  0
   40.4480   27.4970   43.5260 C   0  0  0  0  0  0  0  0  0  0  0  0
   39.8350   26.2220   43.5610 C   0  0  0  0  0  0  0  0  0  0  0  0
   38.7150   25.9950   42.7550 C   0  0  0  0  0  0  0  0  0  0  0  0
   38.2890   27.0350   41.9820 N   0  0  0  0  0  0  0  0  0  0  0  0
   38.8840   28.2350   41.9630 C   0  0  0  0  0  0  0  0  0  0  0  0
   39.9680   28.4850   42.7300 N   0  0  0  0  0  0  0  0  0  0  0  0
   41.3230   27.6580   44.1630 H   0  0  0  0  0  0  0  0  0  0  0  0
   40.2200   25.4350   44.1970 H   0  0  0  0  0  0  0  0  0  0  0  0
   38.2050   25.0630   42.7320 H   0  0  0  0  0  0  0  0  0  0  0  0
   36.4700   29.7030   37.8940 C   0  0  0  0  0  0  0  0  0  0  0  0
   35.1770   29.2700   37.8630 C   0  0  0  0  0  3  0  0  0  0  0  0
   34.4970   29.0220   36.6910 C   0  0  0  0  0  0  0  0  0  0  0  0
   33.4660   28.6770   36.6850 H   0  0  0  0  0  0  0  0  0  0  0  0
   35.1550   29.2230   35.5140 N   0  0  0  0  0  0  0  0  0  0  0  0
   36.4370   29.6540   35.5790 C   0  0  0  0  0  3  0  0  0  0  0  0
   37.0770   29.8870   36.7160 N   0  0  0  0  0  0  0  0  0  0  0  0
  1  2  1  0  0  0  0
  2  3  2  0  0  0  0
  2 18  1  0  0  0  0
  3 11  1  0  0  0  0
  4  5  1  0  0  0  0
  4  3  1  0  0  0  0
  5 12  1  0  0  0  0
  6  5  1  0  0  0  0
  7  8  1  0  0  0  0
  7  6  2  0  0  0  0
  8  4  2  0  0  0  0
  9  8  1  0  0  0  0
  9  1  2  0  0  0  0
 10  1  1  0  0  0  0
 13  6  1  0  0  0  0
 14 15  1  0  0  0  0
 14 20  1  0  0  0  0
 15 21  1  0  0  0  0
 16 15  2  0  0  0  0
 17 16  1  0  0  0  0
 18 17  2  0  0  0  0
 18 19  1  0  0  0  0
 19 14  2  0  0  0  0
 22 16  1  0  0  0  0
 23  9  1  0  0  0  0
 24 23  1  0  0  0  0
 25 24  2  0  0  0  0
 26 25  1  0  0  0  0
 27 28  2  0  0  0  0
 27 25  1  0  0  0  0
 28 29  1  0  0  0  0
 29 23  2  0  0  0  0
M  END
>  <minimizedAffinity>
-5.21540689

$$$$

 OpenBabel03252506533D

 29 32  0  0  0  0  0  0  0  0999 V2000
   40.3310   30.6210   41.1930 C   0  0  0  0  0  0  0  0  0  0  0  0
   39.1380   29.9960   41.4910 C   0  0  0  0  0  0  0  0  0  0  0  0
   37.9220   30.5850   41.2210 C   0  0  0  0  0  0  0  0  0  0  0  0
   37.8580   31.8460   40.6310 C   0  0  0  0  0  0  0  0  0  0  0  0
   36.8770   32.6970   40.2360 N   0  0  0  0  0  0  0  0  0  0  0  0
   37.4480   33.8090   39.7130 C   0  0  0  0  0  0  0  0  0  0  0  0
   38.7800   33.6300   39.7910 N   0  0  0  0  0  0  0  0  0  0  0  0
   39.0690   32.4300   40.3510 C   0  0  0  0  0  0  0  0  0  0  0  0
   40.3130   31.8810   40.6030 C   0  0  0  0  0  0  0  0  0  0  0  0
   41.2650   30.1340   41.4170 H   0  0  0  0  0  0  0  0  0  0  0  0
   36.9820   30.1040   41.4490 H   0  0  0  0  0  0  0  0  0  0  0  0
   35.8500   32.4550   40.3540 H   0  0  0  0  0  0  0  0  0  0  0  0
   36.8040   34.5830   39.3530 H   0  0  0  0  0  0  0  0  0  0  0  0
   40.0780   27.1450   43.6060 C   0  0  0  0  0  0  0  0  0  0  0  0
   39.1150   26.1760   43.2400 C   0  0  0  0  0  0  0  0  0  0  0  0
   38.1580   26.5120   42.2760 C   0  0  0  0  0  0  0  0  0  0  0  0
   38.2240   27.7690   41.7520 N   0  0  0  0  0  0  0  0  0  0  0  0
   39.1450   28.6730   42.1120 C   0  0  0  0  0  0  0  0  0  0  0  0
   40.0830   28.3790   43.0390 N   0  0  0  0  0  0  0  0  0  0  0  0
   40.8190   26.8670   44.3610 H   0  0  0  0  0  0  0  0  0  0  0  0
   39.1120   25.1930   43.6930 H   0  0  0  0  0  0  0  0  0  0  0  0
   37.4060   25.8340   41.9550 H   0  0  0  0  0  0  0  0  0  0  0  0
   41.5150   32.6090   40.2570 C   0  0  0  0  0  0  0  0  0  0  0  0
   42.1540   32.4610   39.0600 C   0  0  0  0  0  3  0  0  0  0  0  0
   43.2980   33.1530   38.7310 C   0  0  0  0  0  0  0  0  0  0  0  0
   43.7940   33.0230   37.7730 H   0  0  0  0  0  0  0  0  0  0  0  0
   43.8060   34.0230   39.6490 N   0  0  0  0  0  0  0  0  0  0  0  0
   43.1490   34.1460   40.8270 C   0  0  0  0  0  3  0  0  0  0  0  0
   42.0490   33.4720   41.1270 N   0  0  0  0  0  0  0  0  0  0  0  0
  1 10  1  0  0  0  0
  1  2  1  0  0  0  0
  2 18  1  0  0  0  0
  3 11  1  0  0  0  0
  3  2  2  0  0  0  0
  4  3  1  0  0  0  0
  5 12  1  0  0  0  0
  5  4  1  0  0  0  0
  6  7  2  0  0  0  0
  6  5  1  0  0  0  0
  7  8  1  0  0  0  0
  8  9  1  0  0  0  0
  8  4  2  0  0  0  0
  9  1  2  0  0  0  0
 13  6  1  0  0  0  0
 14 20  1  0  0  0  0
 15 14  1  0  0  0  0
 15 21  1  0  0  0  0
 16 15  2  0  0  0  0
 17 18  2  0  0  0  0
 17 16  1  0  0  0  0
 18 19  1  0  0  0  0
 19 14  2  0  0  0  0
 22 16  1  0  0  0  0
 23  9  1  0  0  0  0
 23 29  1  0  0  0  0
 24 23  2  0  0  0  0
 25 24  1  0  0  0  0
 25 27  2  0  0  0  0
 26 25  1  0  0  0  0
 27 28  1  0  0  0  0
 28 29  2  0  0  0  0
M  END
>  <minimizedAffinity>
-5.15654421

$$$$

 OpenBabel03252506533D

 29 32  0  0  0  0  0  0  0  0999 V2000
   37.1790   29.4160   39.1580 C   0  0  0  0  0  0  0  0  0  0  0  0
   36.9430   30.2310   38.0710 C   0  0  0  0  0  0  0  0  0  0  0  0
   37.3540   31.5450   38.0450 C   0  0  0  0  0  0  0  0  0  0  0  0
   38.0280   32.1010   39.1310 C   0  0  0  0  0  0  0  0  0  0  0  0
   38.5590   33.3100   39.4440 N   0  0  0  0  0  0  0  0  0  0  0  0
   39.1030   33.2410   40.6830 C   0  0  0  0  0  0  0  0  0  0  0  0
   38.9010   31.9850   41.1220 N   0  0  0  0  0  0  0  0  0  0  0  0
   38.2410   31.2530   40.1910 C   0  0  0  0  0  0  0  0  0  0  0  0
   37.8480   29.9290   40.2640 C   0  0  0  0  0  0  0  0  0  0  0  0
   36.8440   28.3920   39.1470 H   0  0  0  0  0  0  0  0  0  0  0  0
   37.1750   32.1920   37.1990 H   0  0  0  0  0  0  0  0  0  0  0  0
   38.5140   34.1280   38.7680 H   0  0  0  0  0  0  0  0  0  0  0  0
   39.5660   34.1200   41.0780 H   0  0  0  0  0  0  0  0  0  0  0  0
   34.5590   28.3670   35.9890 C   0  0  0  0  0  0  0  0  0  0  0  0
   34.9580   28.7360   34.6830 C   0  0  0  0  0  0  0  0  0  0  0  0
   36.0350   29.6160   34.5330 C   0  0  0  0  0  0  0  0  0  0  0  0
   36.6310   30.0620   35.6760 N   0  0  0  0  0  0  0  0  0  0  0  0
   36.2390   29.7010   36.9040 C   0  0  0  0  0  0  0  0  0  0  0  0
   35.2030   28.8520   37.0820 N   0  0  0  0  0  0  0  0  0  0  0  0
   33.7160   27.6790   36.0890 H   0  0  0  0  0  0  0  0  0  0  0  0
   34.4440   28.3490   33.8120 H   0  0  0  0  0  0  0  0  0  0  0  0
   36.3870   29.9350   33.5830 H   0  0  0  0  0  0  0  0  0  0  0  0
   38.1370   29.1470   41.4470 C   0  0  0  0  0  0  0  0  0  0  0  0
   37.2880   29.0700   42.5120 C   0  0  0  0  0  3  0  0  0  0  0  0
   37.5640   28.3260   43.6380 C   0  0  0  0  0  0  0  0  0  0  0  0
   36.8750   28.2750   44.4770 H   0  0  0  0  0  0  0  0  0  0  0  0
   38.7400   27.6390   43.6790 N   0  0  0  0  0  0  0  0  0  0  0  0
   39.5610   27.7370   42.6060 C   0  0  0  0  0  3  0  0  0  0  0  0
   39.2810   28.4580   41.5310 N   0  0  0  0  0  0  0  0  0  0  0  0
  1  9  1  0  0  0  0
  2  1  2  0  0  0  0
  3  2  1  0  0  0  0
  3  4  2  0  0  0  0
  4  5  1  0  0  0  0
  4  8  1  0  0  0  0
  5  6  1  0  0  0  0
  6 13  1  0  0  0  0
  6  7  2  0  0  0  0
  8  9  2  0  0  0  0
  8  7  1  0  0  0  0
  9 23  1  0  0  0  0
 10  1  1  0  0  0  0
 11  3  1  0  0  0  0
 12  5  1  0  0  0  0
 14 20  1  0  0  0  0
 14 19  1  0  0  0  0
 15 14  2  0  0  0  0
 16 15  1  0  0  0  0
 16 17  2  0  0  0  0
 17 18  1  0  0  0  0
 18 19  2  0  0  0  0
 18  2  1  0  0  0  0
 21 15  1  0  0  0  0
 22 16  1  0  0  0  0
 23 29  2  0  0  0  0
 23 24  1  0  0  0  0
 24 25  2  0  0  0  0
 25 27  1  0  0  0  0
 25 26  1  0  0  0  0
 28 27  2  0  0  0  0
 29 28  1  0  0  0  0
M  END
>  <minimizedAffinity>
-5.11030436

$$$$

 OpenBabel03252506533D

 29 32  0  0  0  0  0  0  0  0999 V2000
   39.4690   29.6810   40.1070 C   0  0  0  0  0  0  0  0  0  0  0  0
   38.2680   29.5180   40.7650 C   0  0  0  0  0  0  0  0  0  0  0  0
   37.3910   30.5640   40.9470 C   0  0  0  0  0  0  0  0  0  0  0  0
   37.6930   31.8360   40.4650 C   0  0  0  0  0  0  0  0  0  0  0  0
   37.0920   33.0530   40.4610 N   0  0  0  0  0  0  0  0  0  0  0  0
   37.8970   33.9360   39.8220 C   0  0  0  0  0  0  0  0  0  0  0  0
   38.9900   33.2510   39.4370 N   0  0  0  0  0  0  0  0  0  0  0  0
   38.8980   31.9520   39.8160 C   0  0  0  0  0  0  0  0  0  0  0  0
   39.8110   30.9340   39.6110 C   0  0  0  0  0  0  0  0  0  0  0  0
   40.1340   28.8420   39.9830 H   0  0  0  0  0  0  0  0  0  0  0  0
   36.4470   30.4470   41.4600 H   0  0  0  0  0  0  0  0  0  0  0  0
   36.1410   33.2050   40.9090 H   0  0  0  0  0  0  0  0  0  0  0  0
   37.5630   34.9480   39.7330 H   0  0  0  0  0  0  0  0  0  0  0  0
   37.9720   25.8780   41.1560 C   0  0  0  0  0  0  0  0  0  0  0  0
   37.1790   25.7700   42.3220 C   0  0  0  0  0  0  0  0  0  0  0  0
   36.7580   26.9430   42.9580 C   0  0  0  0  0  0  0  0  0  0  0  0
   37.1490   28.1230   42.3990 N   0  0  0  0  0  0  0  0  0  0  0  0
   37.9010   28.2040   41.2920 C   0  0  0  0  0  0  0  0  0  0  0  0
   38.3220   27.0900   40.6550 N   0  0  0  0  0  0  0  0  0  0  0  0
   38.2930   24.9520   40.6710 H   0  0  0  0  0  0  0  0  0  0  0  0
   36.9000   24.8030   42.7210 H   0  0  0  0  0  0  0  0  0  0  0  0
   36.1620   26.9360   43.8370 H   0  0  0  0  0  0  0  0  0  0  0  0
   41.0490   31.1960   38.9090 C   0  0  0  0  0  0  0  0  0  0  0  0
   42.2090   31.5260   39.5470 C   0  0  0  0  0  3  0  0  0  0  0  0
   43.3870   31.7760   38.8780 C   0  0  0  0  0  0  0  0  0  0  0  0
   44.3030   32.0370   39.4030 H   0  0  0  0  0  0  0  0  0  0  0  0
   43.3830   31.6850   37.5190 N   0  0  0  0  0  0  0  0  0  0  0  0
   42.2160   31.3560   36.9160 C   0  0  0  0  0  3  0  0  0  0  0  0
   41.0910   31.1200   37.5740 N   0  0  0  0  0  0  0  0  0  0  0  0
  1  2  1  0  0  0  0
  2  3  2  0  0  0  0
  2 18  1  0  0  0  0
  3 11  1  0  0  0  0
  4  3  1  0  0  0  0
  5  4  1  0  0  0  0
  5 12  1  0  0  0  0
  6  5  1  0  0  0  0
  7  8  1  0  0  0  0
  7  6  2  0  0  0  0
  8  4  2  0  0  0  0
  9  8  1  0  0  0  0
  9  1  2  0  0  0  0
 10  1  1  0  0  0  0
 13  6  1  0  0  0  0
 14 15  1  0  0  0  0
 15 21  1  0  0  0  0
 15 16  2  0  0  0  0
 16 22  1  0  0  0  0
 17 16  1  0  0  0  0
 18 17  2  0  0  0  0
 19 14  2  0  0  0  0
 19 18  1  0  0  0  0
 20 14  1  0  0  0  0
 23 24  1  0  0  0  0
 23  9  1  0  0  0  0
 25 26  1  0  0  0  0
 25 24  2  0  0  0  0
 27 25  1  0  0  0  0
 28 27  2  0  0  0  0
 28 29  1  0  0  0  0
 29 23  2  0  0  0  0
M  END
>  <minimizedAffinity>
-5.09352875

$$$$

 OpenBabel03252506533D

 29 32  0  0  0  0  0  0  0  0999 V2000
   37.7880   30.0070   39.7170 C   0  0  0  0  0  0  0  0  0  0  0  0
   38.4800   30.7590   40.6430 C   0  0  0  0  0  0  0  0  0  0  0  0
   38.4330   30.4760   41.9910 C   0  0  0  0  0  0  0  0  0  0  0  0
   37.6750   29.4070   42.4660 C   0  0  0  0  0  0  0  0  0  0  0  0
   37.4060   28.8550   43.6760 N   0  0  0  0  0  0  0  0  0  0  0  0
   36.5750   27.7990   43.5000 C   0  0  0  0  0  0  0  0  0  0  0  0
   36.3410   27.7110   42.1770 N   0  0  0  0  0  0  0  0  0  0  0  0
   37.0030   28.6860   41.5080 C   0  0  0  0  0  0  0  0  0  0  0  0
   37.0190   28.9320   40.1480 C   0  0  0  0  0  0  0  0  0  0  0  0
   37.8450   30.2560   38.6700 H   0  0  0  0  0  0  0  0  0  0  0  0
   38.9710   31.0570   42.7240 H   0  0  0  0  0  0  0  0  0  0  0  0
   37.8200   29.2490   44.5710 H   0  0  0  0  0  0  0  0  0  0  0  0
   36.2660   27.2530   44.3650 H   0  0  0  0  0  0  0  0  0  0  0  0
   39.8200   34.1610   40.3010 C   0  0  0  0  0  0  0  0  0  0  0  0
   40.8350   33.9820   39.3320 C   0  0  0  0  0  0  0  0  0  0  0  0
   41.0470   32.7010   38.8120 C   0  0  0  0  0  0  0  0  0  0  0  0
   40.2470   31.7020   39.2830 N   0  0  0  0  0  0  0  0  0  0  0  0
   39.2900   31.8930   40.2010 C   0  0  0  0  0  0  0  0  0  0  0  0
   39.0600   33.1180   40.7220 N   0  0  0  0  0  0  0  0  0  0  0  0
   39.6670   35.1690   40.6980 H   0  0  0  0  0  0  0  0  0  0  0  0
   41.4400   34.8150   38.9970 H   0  0  0  0  0  0  0  0  0  0  0  0
   41.7920   32.4940   38.0820 H   0  0  0  0  0  0  0  0  0  0  0  0
   36.2610   28.0900   39.2460 C   0  0  0  0  0  0  0  0  0  0  0  0
   35.1580   28.5270   38.5730 C   0  0  0  0  0  3  0  0  0  0  0  0
   34.4360   27.7260   37.7160 C   0  0  0  0  0  0  0  0  0  0  0  0
   33.5600   28.0910   37.1870 H   0  0  0  0  0  0  0  0  0  0  0  0
   34.8530   26.4400   37.5390 N   0  0  0  0  0  0  0  0  0  0  0  0
   35.9510   26.0370   38.2210 C   0  0  0  0  0  3  0  0  0  0  0  0
   36.6330   26.8220   39.0430 N   0  0  0  0  0  0  0  0  0  0  0  0
  1  9  2  0  0  0  0
  1  2  1  0  0  0  0
  2  3  2  0  0  0  0
  3  4  1  0  0  0  0
  3 11  1  0  0  0  0
  4  5  1  0  0  0  0
  5 12  1  0  0  0  0
  6  5  1  0  0  0  0
  6 13  1  0  0  0  0
  7  6  2  0  0  0  0
  8  7  1  0  0  0  0
  8  4  2  0  0  0  0
  9  8  1  0  0  0  0
 10  1  1  0  0  0  0
 14 20  1  0  0  0  0
 14 19  1  0  0  0  0
 15 14  2  0  0  0  0
 16 17  2  0  0  0  0
 16 15  1  0  0  0  0
 17 18  1  0  0  0  0
 18  2  1  0  0  0  0
 18 19  2  0  0  0  0
 21 15  1  0  0  0  0
 22 16  1  0  0  0  0
 23  9  1  0  0  0  0
 24 23  2  0  0  0  0
 25 24  1  0  0  0  0
 26 25  1  0  0  0  0
 27 25  2  0  0  0  0
 27 28  1  0  0  0  0
 28 29  2  0  0  0  0
 29 23  1  0  0  0  0
M  END
>  <minimizedAffinity>
-5.08623123

$$$$

 OpenBabel03252506533D

 29 32  0  0  0  0  0  0  0  0999 V2000
   40.1600   30.0760   39.2180 C   0  0  0  0  0  0  0  0  0  0  0  0
   40.8620   30.8600   38.3260 C   0  0  0  0  0  0  0  0  0  0  0  0
   40.7260   32.2300   38.2990 C   0  0  0  0  0  0  0  0  0  0  0  0
   39.8640   32.8760   39.1840 C   0  0  0  0  0  0  0  0  0  0  0  0
   39.4920   34.1570   39.4350 N   0  0  0  0  0  0  0  0  0  0  0  0
   38.5910   34.1610   40.4470 C   0  0  0  0  0  0  0  0  0  0  0  0
   38.4170   32.8770   40.8110 N   0  0  0  0  0  0  0  0  0  0  0  0
   39.1860   32.0570   40.0540 C   0  0  0  0  0  0  0  0  0  0  0  0
   39.2880   30.6790   40.1180 C   0  0  0  0  0  0  0  0  0  0  0  0
   40.2880   29.0060   39.2130 H   0  0  0  0  0  0  0  0  0  0  0  0
   41.2710   32.8540   37.6060 H   0  0  0  0  0  0  0  0  0  0  0  0
   39.8910   34.9700   38.8800 H   0  0  0  0  0  0  0  0  0  0  0  0
   38.1980   35.1020   40.7660 H   0  0  0  0  0  0  0  0  0  0  0  0
   42.6020   28.3300   36.3110 C   0  0  0  0  0  0  0  0  0  0  0  0
   43.5230   29.1170   35.5810 C   0  0  0  0  0  0  0  0  0  0  0  0
   43.5350   30.5010   35.7890 C   0  0  0  0  0  0  0  0  0  0  0  0
   42.6440   30.9980   36.6930 N   0  0  0  0  0  0  0  0  0  0  0  0
   41.7790   30.2350   37.3740 C   0  0  0  0  0  0  0  0  0  0  0  0
   41.7430   28.8960   37.1970 N   0  0  0  0  0  0  0  0  0  0  0  0
   42.6050   27.2510   36.1370 H   0  0  0  0  0  0  0  0  0  0  0  0
   44.2070   28.6650   34.8750 H   0  0  0  0  0  0  0  0  0  0  0  0
   44.2000   31.1520   35.2750 H   0  0  0  0  0  0  0  0  0  0  0  0
   38.5130   29.9350   41.0880 C   0  0  0  0  0  0  0  0  0  0  0  0
   38.9230   29.7390   42.3750 C   0  0  0  0  0  3  0  0  0  0  0  0
   38.1850   29.0310   43.2970 C   0  0  0  0  0  0  0  0  0  0  0  0
   38.5270   28.8850   44.3180 H   0  0  0  0  0  0  0  0  0  0  0  0
   36.9930   28.5060   42.8950 N   0  0  0  0  0  0  0  0  0  0  0  0
   36.6150   28.7180   41.6120 C   0  0  0  0  0  3  0  0  0  0  0  0
   37.3370   29.4020   40.7380 N   0  0  0  0  0  0  0  0  0  0  0  0
  1  9  1  0  0  0  0
  2  1  2  0  0  0  0
  3  2  1  0  0  0  0
  3  4  2  0  0  0  0
  4  5  1  0  0  0  0
  4  8  1  0  0  0  0
  5  6  1  0  0  0  0
  6 13  1  0  0  0  0
  6  7  2  0  0  0  0
  8  9  2  0  0  0  0
  8  7  1  0  0  0  0
  9 23  1  0  0  0  0
 10  1  1  0  0  0  0
 11  3  1  0  0  0  0
 12  5  1  0  0  0  0
 14 19  1  0  0  0  0
 15 16  1  0  0  0  0
 15 14  2  0  0  0  0
 16 17  2  0  0  0  0
 17 18  1  0  0  0  0
 18  2  1  0  0  0  0
 19 18  2  0  0  0  0
 20 14  1  0  0  0  0
 21 15  1  0  0  0  0
 22 16  1  0  0  0  0
 23 24  1  0  0  0  0
 24 25  2  0  0  0  0
 25 26  1  0  0  0  0
 27 25  1  0  0  0  0
 28 27  2  0  0  0  0
 29 23  2  0  0  0  0
 29 28  1  0  0  0  0
M  END
>  <minimizedAffinity>
-4.92278671

$$$$

 OpenBabel03252506533D

 29 32  0  0  0  0  0  0  0  0999 V2000
   38.5790   29.6980   40.2630 C   0  0  0  0  0  0  0  0  0  0  0  0
   39.3440   30.2320   41.2780 C   0  0  0  0  0  0  0  0  0  0  0  0
   39.3660   31.5850   41.5380 C   0  0  0  0  0  0  0  0  0  0  0  0
   38.6050   32.4680   40.7730 C   0  0  0  0  0  0  0  0  0  0  0  0
   38.3890   33.8070   40.7430 N   0  0  0  0  0  0  0  0  0  0  0  0
   37.5200   34.0880   39.7420 C   0  0  0  0  0  0  0  0  0  0  0  0
   37.2080   32.9130   39.1640 N   0  0  0  0  0  0  0  0  0  0  0  0
   37.8590   31.8920   39.7730 C   0  0  0  0  0  0  0  0  0  0  0  0
   37.8050   30.5430   39.4740 C   0  0  0  0  0  0  0  0  0  0  0  0
   38.5840   28.6360   40.0850 H   0  0  0  0  0  0  0  0  0  0  0  0
   39.9600   32.0140   42.3310 H   0  0  0  0  0  0  0  0  0  0  0  0
   38.8650   34.4620   41.4310 H   0  0  0  0  0  0  0  0  0  0  0  0
   37.2450   35.1090   39.5870 H   0  0  0  0  0  0  0  0  0  0  0  0
   40.3890   27.4220   43.3990 C   0  0  0  0  0  0  0  0  0  0  0  0
   41.7400   27.7430   43.6690 C   0  0  0  0  0  0  0  0  0  0  0  0
   42.2730   28.9150   43.1220 C   0  0  0  0  0  0  0  0  0  0  0  0
   41.4390   29.6740   42.3560 N   0  0  0  0  0  0  0  0  0  0  0  0
   40.1620   29.3530   42.1120 C   0  0  0  0  0  0  0  0  0  0  0  0
   39.6170   28.2280   42.6260 N   0  0  0  0  0  0  0  0  0  0  0  0
   39.9870   26.5020   43.8340 H   0  0  0  0  0  0  0  0  0  0  0  0
   42.3540   27.0990   44.2860 H   0  0  0  0  0  0  0  0  0  0  0  0
   43.2790   29.2170   43.2840 H   0  0  0  0  0  0  0  0  0  0  0  0
   36.9730   30.0700   38.3880 C   0  0  0  0  0  0  0  0  0  0  0  0
   35.7220   29.5600   38.5790 C   0  0  0  0  0  3  0  0  0  0  0  0
   34.9300   29.1090   37.5460 C   0  0  0  0  0  0  0  0  0  0  0  0
   33.9350   28.7060   37.7170 H   0  0  0  0  0  0  0  0  0  0  0  0
   35.4290   29.1810   36.2800 N   0  0  0  0  0  0  0  0  0  0  0  0
   36.6740   29.6920   36.1240 C   0  0  0  0  0  3  0  0  0  0  0  0
   37.4220   30.1210   37.1300 N   0  0  0  0  0  0  0  0  0  0  0  0
  1  2  1  0  0  0  0
  2  3  2  0  0  0  0
  2 18  1  0  0  0  0
  3 11  1  0  0  0  0
  4  3  1  0  0  0  0
  5  4  1  0  0  0  0
  5 12  1  0  0  0  0
  6  5  1  0  0  0  0
  7  6  2  0  0  0  0
  7  8  1  0  0  0  0
  8  4  2  0  0  0  0
  9  8  1  0  0  0  0
  9  1  2  0  0  0  0
 10  1  1  0  0  0  0
 13  6  1  0  0  0  0
 14 15  1  0  0  0  0
 14 20  1  0  0  0  0
 15 21  1  0  0  0  0
 16 22  1  0  0  0  0
 16 15  2  0  0  0  0
 17 16  1  0  0  0  0
 18 17  2  0  0  0  0
 18 19  1  0  0  0  0
 19 14  2  0  0  0  0
 23 24  1  0  0  0  0
 23  9  1  0  0  0  0
 25 26  1  0  0  0  0
 25 24  2  0  0  0  0
 27 25  1  0  0  0  0
 28 27  2  0  0  0  0
 28 29  1  0  0  0  0
 29 23  2  0  0  0  0
M  END
>  <minimizedAffinity>
-4.91890335

$$$$
