
 OpenBabel03252505353D

 28 30  0  0  0  0  0  0  0  0999 V2000
   37.5650   29.4740   41.4370 C   0  0  0  0  0  0  0  0  0  0  0  0
   38.2830   29.5090   42.5990 C   0  0  0  0  0  0  0  0  0  0  0  0
   38.0550   28.6650   43.6790 C   0  0  0  0  0  0  0  0  0  0  0  0
   37.0420   27.7200   43.5900 C   0  0  0  0  0  0  0  0  0  0  0  0
   36.3130   27.6800   42.4150 C   0  0  0  0  0  0  0  0  0  0  0  0
   36.5700   28.5360   41.3690 C   0  0  0  0  0  0  0  0  0  0  0  0
   39.0890   30.2290   42.7230 H   0  0  0  0  0  0  0  0  0  0  0  0
   38.6460   28.7250   44.5840 H   0  0  0  0  0  0  0  0  0  0  0  0
   36.8410   27.0480   44.4160 H   0  0  0  0  0  0  0  0  0  0  0  0
   35.5160   26.9320   42.3560 H   0  0  0  0  0  0  0  0  0  0  0  0
   39.0120   31.0990   38.3720 C   0  0  0  0  0  0  0  0  0  0  0  0
   38.7620   30.0990   39.3410 C   0  0  0  0  0  0  0  0  0  0  0  0
   37.8980   30.4000   40.3910 C   0  0  0  0  0  0  0  0  0  0  0  0
   37.3390   31.6350   40.4310 N   0  0  0  0  0  0  0  0  0  0  0  0
   37.6010   32.5640   39.4870 C   0  0  0  0  0  0  0  0  0  0  0  0
   38.4330   32.2950   38.4640 N   0  0  0  0  0  0  0  0  0  0  0  0
   37.0000   33.8560   39.5610 N   0  0  0  0  0  0  0  0  0  0  0  0
   39.6920   30.8450   37.5560 H   0  0  0  0  0  0  0  0  0  0  0  0
   39.2080   29.1210   39.3060 H   0  0  0  0  0  0  0  0  0  0  0  0
   37.0130   34.4910   38.7470 H   0  0  0  0  0  0  0  0  0  0  0  0
   36.5360   34.1710   40.4500 H   0  0  0  0  0  0  0  0  0  0  0  0
   35.7660   28.4460   40.1570 C   0  0  0  0  0  0  0  0  0  0  0  0
   34.6780   29.1780   39.7270 C   0  0  0  0  0  3  0  0  0  0  0  0
   34.1020   28.8730   38.5190 C   0  0  0  0  0  0  0  0  0  0  0  0
   33.2650   29.4660   38.2300 H   0  0  0  0  0  0  0  0  0  0  0  0
   34.5460   27.8850   37.7160 N   0  0  0  0  0  0  0  0  0  0  0  0
   35.6150   27.1860   38.1660 C   0  0  0  0  0  3  0  0  0  0  0  0
   36.2340   27.4390   39.3590 N   0  0  0  0  0  0  0  0  0  0  0  0
  1  2  1  0  0  0  0
  2  7  1  0  0  0  0
  2  3  2  0  0  0  0
  3  8  1  0  0  0  0
  4  3  1  0  0  0  0
  4  9  1  0  0  0  0
  5  4  2  0  0  0  0
  6  1  2  0  0  0  0
  6  5  1  0  0  0  0
 10  5  1  0  0  0  0
 11 16  2  0  0  0  0
 11 12  1  0  0  0  0
 12 13  2  0  0  0  0
 13 14  1  0  0  0  0
 13  1  1  0  0  0  0
 15 17  1  0  0  0  0
 15 14  2  0  0  0  0
 16 15  1  0  0  0  0
 17 21  1  0  0  0  0
 18 11  1  0  0  0  0
 19 12  1  0  0  0  0
 20 17  1  0  0  0  0
 22  6  1  0  0  0  0
 23 22  1  0  0  0  0
 24 23  2  0  0  0  0
 25 24  1  0  0  0  0
 26 27  2  0  0  0  0
 26 24  1  0  0  0  0
 27 28  1  0  0  0  0
 28 22  2  0  0  0  0
M  END
>  <minimizedAffinity>
-5.61357546

$$$$

 OpenBabel03252505353D

 28 30  0  0  0  0  0  0  0  0999 V2000
   37.8720   29.4790   41.7140 C   0  0  0  0  0  0  0  0  0  0  0  0
   37.9130   29.2570   43.0620 C   0  0  0  0  0  0  0  0  0  0  0  0
   37.4200   28.1130   43.6770 C   0  0  0  0  0  0  0  0  0  0  0  0
   36.8490   27.1220   42.8900 C   0  0  0  0  0  0  0  0  0  0  0  0
   36.8050   27.3420   41.5240 C   0  0  0  0  0  0  0  0  0  0  0  0
   37.3040   28.4910   40.9560 C   0  0  0  0  0  0  0  0  0  0  0  0
   38.3500   30.0000   43.7270 H   0  0  0  0  0  0  0  0  0  0  0  0
   37.4710   27.9740   44.7490 H   0  0  0  0  0  0  0  0  0  0  0  0
   36.4560   26.2180   43.3400 H   0  0  0  0  0  0  0  0  0  0  0  0
   36.3520   26.5550   40.9140 H   0  0  0  0  0  0  0  0  0  0  0  0
   40.1940   32.2190   40.6050 C   0  0  0  0  0  0  0  0  0  0  0  0
   39.7810   30.9730   41.1320 C   0  0  0  0  0  0  0  0  0  0  0  0
   38.4170   30.7050   41.2000 C   0  0  0  0  0  0  0  0  0  0  0  0
   37.5520   31.6510   40.7570 N   0  0  0  0  0  0  0  0  0  0  0  0
   37.9820   32.8300   40.2590 C   0  0  0  0  0  0  0  0  0  0  0  0
   39.2970   33.1100   40.1840 N   0  0  0  0  0  0  0  0  0  0  0  0
   37.0460   33.8050   39.8050 N   0  0  0  0  0  0  0  0  0  0  0  0
   41.2680   32.4120   40.5600 H   0  0  0  0  0  0  0  0  0  0  0  0
   40.4710   30.2250   41.4830 H   0  0  0  0  0  0  0  0  0  0  0  0
   37.3550   34.6040   39.2280 H   0  0  0  0  0  0  0  0  0  0  0  0
   36.0290   33.7160   40.0550 H   0  0  0  0  0  0  0  0  0  0  0  0
   37.2280   28.6660   39.5110 C   0  0  0  0  0  0  0  0  0  0  0  0
   38.1760   28.5090   38.5220 C   0  0  0  0  0  3  0  0  0  0  0  0
   37.8260   28.7470   37.2160 C   0  0  0  0  0  0  0  0  0  0  0  0
   38.5920   28.6120   36.4870 H   0  0  0  0  0  0  0  0  0  0  0  0
   36.5890   29.1310   36.8400 N   0  0  0  0  0  0  0  0  0  0  0  0
   35.6810   29.2760   37.8340 C   0  0  0  0  0  3  0  0  0  0  0  0
   35.9660   29.0550   39.1530 N   0  0  0  0  0  0  0  0  0  0  0  0
  1  2  1  0  0  0  0
  2  3  2  0  0  0  0
  2  7  1  0  0  0  0
  3  8  1  0  0  0  0
  4  9  1  0  0  0  0
  4  3  1  0  0  0  0
  5  4  2  0  0  0  0
  6  5  1  0  0  0  0
  6  1  2  0  0  0  0
 10  5  1  0  0  0  0
 11 12  1  0  0  0  0
 12 13  2  0  0  0  0
 12 19  1  0  0  0  0
 13  1  1  0  0  0  0
 14 13  1  0  0  0  0
 15 14  2  0  0  0  0
 16 15  1  0  0  0  0
 16 11  2  0  0  0  0
 17 21  1  0  0  0  0
 17 15  1  0  0  0  0
 18 11  1  0  0  0  0
 20 17  1  0  0  0  0
 22  6  1  0  0  0  0
 23 22  2  0  0  0  0
 24 23  1  0  0  0  0
 25 24  1  0  0  0  0
 26 24  2  0  0  0  0
 26 27  1  0  0  0  0
 27 28  2  0  0  0  0
 28 22  1  0  0  0  0
M  END
>  <minimizedAffinity>
-5.4579525

$$$$

 OpenBabel03252505353D

 28 30  0  0  0  0  0  0  0  0999 V2000
   37.0110   28.6360   40.7030 C   0  0  0  0  0  0  0  0  0  0  0  0
   36.7390   27.4560   41.3380 C   0  0  0  0  0  0  0  0  0  0  0  0
   37.0330   27.2060   42.6730 C   0  0  0  0  0  0  0  0  0  0  0  0
   37.6370   28.2040   43.4250 C   0  0  0  0  0  0  0  0  0  0  0  0
   37.9130   29.4010   42.7880 C   0  0  0  0  0  0  0  0  0  0  0  0
   37.6070   29.6070   41.4620 C   0  0  0  0  0  0  0  0  0  0  0  0
   36.2670   26.6390   40.7970 H   0  0  0  0  0  0  0  0  0  0  0  0
   36.8030   26.2570   43.1390 H   0  0  0  0  0  0  0  0  0  0  0  0
   37.8780   28.0390   44.4680 H   0  0  0  0  0  0  0  0  0  0  0  0
   38.3900   30.1800   43.3890 H   0  0  0  0  0  0  0  0  0  0  0  0
   35.1470   29.1680   37.4830 C   0  0  0  0  0  0  0  0  0  0  0  0
   35.3690   29.0600   38.8760 C   0  0  0  0  0  0  0  0  0  0  0  0
   36.6570   28.7710   39.3180 C   0  0  0  0  0  0  0  0  0  0  0  0
   37.6340   28.6080   38.3920 N   0  0  0  0  0  0  0  0  0  0  0  0
   37.3850   28.7190   37.0690 C   0  0  0  0  0  0  0  0  0  0  0  0
   36.1470   28.9980   36.6200 N   0  0  0  0  0  0  0  0  0  0  0  0
   38.4340   28.5380   36.1210 N   0  0  0  0  0  0  0  0  0  0  0  0
   34.1300   29.3950   37.1550 H   0  0  0  0  0  0  0  0  0  0  0  0
   34.5910   29.1900   39.6080 H   0  0  0  0  0  0  0  0  0  0  0  0
   38.3140   28.8310   35.1380 H   0  0  0  0  0  0  0  0  0  0  0  0
   39.3440   28.1020   36.4170 H   0  0  0  0  0  0  0  0  0  0  0  0
   37.9240   30.8890   40.8450 C   0  0  0  0  0  0  0  0  0  0  0  0
   37.1230   31.9550   40.4930 C   0  0  0  0  0  3  0  0  0  0  0  0
   37.6960   33.0600   39.9150 C   0  0  0  0  0  0  0  0  0  0  0  0
   37.0370   33.8580   39.6610 H   0  0  0  0  0  0  0  0  0  0  0  0
   39.0180   33.1640   39.6680 N   0  0  0  0  0  0  0  0  0  0  0  0
   39.7770   32.1010   40.0250 C   0  0  0  0  0  3  0  0  0  0  0  0
   39.2680   30.9710   40.6040 N   0  0  0  0  0  0  0  0  0  0  0  0
  1  2  2  0  0  0  0
  1  6  1  0  0  0  0
  2  3  1  0  0  0  0
  3  8  1  0  0  0  0
  3  4  2  0  0  0  0
  4  9  1  0  0  0  0
  5 10  1  0  0  0  0
  5  4  1  0  0  0  0
  6  5  2  0  0  0  0
  7  2  1  0  0  0  0
 11 12  1  0  0  0  0
 12 13  2  0  0  0  0
 12 19  1  0  0  0  0
 13  1  1  0  0  0  0
 14 13  1  0  0  0  0
 15 14  2  0  0  0  0
 16 15  1  0  0  0  0
 16 11  2  0  0  0  0
 17 21  1  0  0  0  0
 17 15  1  0  0  0  0
 18 11  1  0  0  0  0
 20 17  1  0  0  0  0
 22  6  1  0  0  0  0
 23 22  2  0  0  0  0
 24 23  1  0  0  0  0
 25 24  1  0  0  0  0
 26 24  2  0  0  0  0
 26 27  1  0  0  0  0
 27 28  2  0  0  0  0
 28 22  1  0  0  0  0
M  END
>  <minimizedAffinity>
-5.23106909

$$$$

 OpenBabel03252505353D

 28 30  0  0  0  0  0  0  0  0999 V2000
   37.3280   30.1030   39.2110 C   0  0  0  0  0  0  0  0  0  0  0  0
   36.7030   30.3440   38.0200 C   0  0  0  0  0  0  0  0  0  0  0  0
   35.6460   29.5880   37.5300 C   0  0  0  0  0  0  0  0  0  0  0  0
   35.1810   28.5190   38.2830 C   0  0  0  0  0  0  0  0  0  0  0  0
   35.8100   28.2700   39.4900 C   0  0  0  0  0  0  0  0  0  0  0  0
   36.8550   29.0440   39.9380 C   0  0  0  0  0  0  0  0  0  0  0  0
   37.0260   31.1700   37.3890 H   0  0  0  0  0  0  0  0  0  0  0  0
   35.1770   29.8110   36.5800 H   0  0  0  0  0  0  0  0  0  0  0  0
   34.3580   27.9100   37.9280 H   0  0  0  0  0  0  0  0  0  0  0  0
   35.4360   27.4250   40.0750 H   0  0  0  0  0  0  0  0  0  0  0  0
   40.7260   31.5990   39.7990 C   0  0  0  0  0  0  0  0  0  0  0  0
   39.7500   30.6760   39.3550 C   0  0  0  0  0  0  0  0  0  0  0  0
   38.4110   30.9600   39.6080 C   0  0  0  0  0  0  0  0  0  0  0  0
   38.1090   32.1060   40.2660 N   0  0  0  0  0  0  0  0  0  0  0  0
   39.0680   32.9650   40.6740 C   0  0  0  0  0  0  0  0  0  0  0  0
   40.3680   32.7110   40.4400 N   0  0  0  0  0  0  0  0  0  0  0  0
   38.7160   34.1610   41.3670 N   0  0  0  0  0  0  0  0  0  0  0  0
   41.7710   31.3600   39.5910 H   0  0  0  0  0  0  0  0  0  0  0  0
   39.9940   29.7670   38.8340 H   0  0  0  0  0  0  0  0  0  0  0  0
   39.4040   34.9210   41.4880 H   0  0  0  0  0  0  0  0  0  0  0  0
   37.7490   34.2770   41.7610 H   0  0  0  0  0  0  0  0  0  0  0  0
   37.4800   28.7320   41.2180 C   0  0  0  0  0  0  0  0  0  0  0  0
   37.2900   29.2590   42.4780 C   0  0  0  0  0  3  0  0  0  0  0  0
   38.0280   28.7690   43.5260 C   0  0  0  0  0  0  0  0  0  0  0  0
   37.8460   29.2070   44.4810 H   0  0  0  0  0  0  0  0  0  0  0  0
   38.9430   27.7870   43.3920 N   0  0  0  0  0  0  0  0  0  0  0  0
   39.1050   27.2910   42.1420 C   0  0  0  0  0  3  0  0  0  0  0  0
   38.4020   27.7350   41.0570 N   0  0  0  0  0  0  0  0  0  0  0  0
  1 13  1  0  0  0  0
  1  6  1  0  0  0  0
  2  1  2  0  0  0  0
  3  2  1  0  0  0  0
  3  4  2  0  0  0  0
  4  5  1  0  0  0  0
  5  6  2  0  0  0  0
  5 10  1  0  0  0  0
  6 22  1  0  0  0  0
  7  2  1  0  0  0  0
  8  3  1  0  0  0  0
  9  4  1  0  0  0  0
 11 16  1  0  0  0  0
 12 13  1  0  0  0  0
 12 11  2  0  0  0  0
 13 14  2  0  0  0  0
 14 15  1  0  0  0  0
 15 17  1  0  0  0  0
 16 15  2  0  0  0  0
 17 20  1  0  0  0  0
 17 21  1  0  0  0  0
 18 11  1  0  0  0  0
 19 12  1  0  0  0  0
 22 23  1  0  0  0  0
 23 24  2  0  0  0  0
 24 25  1  0  0  0  0
 26 24  1  0  0  0  0
 27 26  2  0  0  0  0
 28 22  2  0  0  0  0
 28 27  1  0  0  0  0
M  END
>  <minimizedAffinity>
-5.20303106

$$$$

 OpenBabel03252505353D

 28 30  0  0  0  0  0  0  0  0999 V2000
   36.5580   26.4850   39.5590 C   0  0  0  0  0  0  0  0  0  0  0  0
   35.7980   25.8910   38.5900 C   0  0  0  0  0  0  0  0  0  0  0  0
   35.4910   24.5370   38.5640 C   0  0  0  0  0  0  0  0  0  0  0  0
   35.9730   23.7210   39.5780 C   0  0  0  0  0  0  0  0  0  0  0  0
   36.7420   24.3160   40.5620 C   0  0  0  0  0  0  0  0  0  0  0  0
   37.0240   25.6630   40.5490 C   0  0  0  0  0  0  0  0  0  0  0  0
   35.3940   26.4840   37.7720 H   0  0  0  0  0  0  0  0  0  0  0  0
   34.8860   24.1040   37.7780 H   0  0  0  0  0  0  0  0  0  0  0  0
   35.7500   22.6600   39.5860 H   0  0  0  0  0  0  0  0  0  0  0  0
   37.1180   23.6640   41.3550 H   0  0  0  0  0  0  0  0  0  0  0  0
   37.8340   29.8790   38.5700 C   0  0  0  0  0  0  0  0  0  0  0  0
   37.6750   28.4740   38.5530 C   0  0  0  0  0  0  0  0  0  0  0  0
   36.8050   27.8970   39.4750 C   0  0  0  0  0  0  0  0  0  0  0  0
   36.1540   28.7120   40.3420 N   0  0  0  0  0  0  0  0  0  0  0  0
   36.3310   30.0500   40.3280 C   0  0  0  0  0  0  0  0  0  0  0  0
   37.1660   30.6280   39.4460 N   0  0  0  0  0  0  0  0  0  0  0  0
   35.6340   30.8790   41.2570 N   0  0  0  0  0  0  0  0  0  0  0  0
   38.5210   30.3130   37.8390 H   0  0  0  0  0  0  0  0  0  0  0  0
   38.1930   27.8310   37.8630 H   0  0  0  0  0  0  0  0  0  0  0  0
   35.5870   31.9010   41.1200 H   0  0  0  0  0  0  0  0  0  0  0  0
   35.1590   30.4520   42.0920 H   0  0  0  0  0  0  0  0  0  0  0  0
   37.8420   26.2330   41.6130 C   0  0  0  0  0  0  0  0  0  0  0  0
   37.5050   26.7370   42.8520 C   0  0  0  0  0  3  0  0  0  0  0  0
   38.4960   27.2210   43.6690 C   0  0  0  0  0  0  0  0  0  0  0  0
   38.1870   27.6000   44.6170 H   0  0  0  0  0  0  0  0  0  0  0  0
   39.7990   27.2320   43.3250 N   0  0  0  0  0  0  0  0  0  0  0  0
   40.0970   26.7300   42.1020 C   0  0  0  0  0  3  0  0  0  0  0  0
   39.1580   26.2330   41.2410 N   0  0  0  0  0  0  0  0  0  0  0  0
  1  6  1  0  0  0  0
  2  1  2  0  0  0  0
  3  2  1  0  0  0  0
  3  4  2  0  0  0  0
  4  9  1  0  0  0  0
  4  5  1  0  0  0  0
  5 10  1  0  0  0  0
  6  5  2  0  0  0  0
  6 22  1  0  0  0  0
  7  2  1  0  0  0  0
  8  3  1  0  0  0  0
 11 16  1  0  0  0  0
 12 11  2  0  0  0  0
 12 13  1  0  0  0  0
 13  1  1  0  0  0  0
 13 14  2  0  0  0  0
 15 14  1  0  0  0  0
 15 17  1  0  0  0  0
 16 15  2  0  0  0  0
 17 21  1  0  0  0  0
 18 11  1  0  0  0  0
 19 12  1  0  0  0  0
 20 17  1  0  0  0  0
 22 23  1  0  0  0  0
 23 24  2  0  0  0  0
 24 25  1  0  0  0  0
 26 24  1  0  0  0  0
 27 26  2  0  0  0  0
 28 22  2  0  0  0  0
 28 27  1  0  0  0  0
M  END
>  <minimizedAffinity>
-5.16426134

$$$$

 OpenBabel03252505353D

 28 30  0  0  0  0  0  0  0  0999 V2000
   37.6890   29.0420   41.4860 C   0  0  0  0  0  0  0  0  0  0  0  0
   36.5990   28.3550   41.9420 C   0  0  0  0  0  0  0  0  0  0  0  0
   36.6300   27.4730   43.0150 C   0  0  0  0  0  0  0  0  0  0  0  0
   37.8310   27.2660   43.6800 C   0  0  0  0  0  0  0  0  0  0  0  0
   38.9370   27.9610   43.2230 C   0  0  0  0  0  0  0  0  0  0  0  0
   38.8640   28.8240   42.1540 C   0  0  0  0  0  0  0  0  0  0  0  0
   35.6320   28.4790   41.4590 H   0  0  0  0  0  0  0  0  0  0  0  0
   35.7440   26.9470   43.3460 H   0  0  0  0  0  0  0  0  0  0  0  0
   37.8860   26.5850   44.5200 H   0  0  0  0  0  0  0  0  0  0  0  0
   39.8790   27.7900   43.7530 H   0  0  0  0  0  0  0  0  0  0  0  0
   37.4150   30.4770   38.0230 C   0  0  0  0  0  0  0  0  0  0  0  0
   37.5880   29.5090   39.0390 C   0  0  0  0  0  0  0  0  0  0  0  0
   37.5290   29.9270   40.3660 C   0  0  0  0  0  0  0  0  0  0  0  0
   37.3080   31.2410   40.6180 N   0  0  0  0  0  0  0  0  0  0  0  0
   37.1470   32.1380   39.6210 C   0  0  0  0  0  0  0  0  0  0  0  0
   37.2000   31.7550   38.3320 N   0  0  0  0  0  0  0  0  0  0  0  0
   36.9200   33.5140   39.9200 N   0  0  0  0  0  0  0  0  0  0  0  0
   37.4650   30.1310   36.9890 H   0  0  0  0  0  0  0  0  0  0  0  0
   37.7630   28.4670   38.8350 H   0  0  0  0  0  0  0  0  0  0  0  0
   36.5800   34.1620   39.1920 H   0  0  0  0  0  0  0  0  0  0  0  0
   37.0960   33.8790   40.8890 H   0  0  0  0  0  0  0  0  0  0  0  0
   40.0650   29.5260   41.7180 C   0  0  0  0  0  0  0  0  0  0  0  0
   40.9380   29.2800   40.6790 C   0  0  0  0  0  3  0  0  0  0  0  0
   42.0090   30.1180   40.4930 C   0  0  0  0  0  0  0  0  0  0  0  0
   42.6560   29.8890   39.6770 H   0  0  0  0  0  0  0  0  0  0  0  0
   42.2600   31.1840   41.2800 N   0  0  0  0  0  0  0  0  0  0  0  0
   41.3840   31.3980   42.2910 C   0  0  0  0  0  3  0  0  0  0  0  0
   40.2980   30.6020   42.5300 N   0  0  0  0  0  0  0  0  0  0  0  0
  1  2  2  0  0  0  0
  1  6  1  0  0  0  0
  2  3  1  0  0  0  0
  3  8  1  0  0  0  0
  3  4  2  0  0  0  0
  4  9  1  0  0  0  0
  5  4  1  0  0  0  0
  5 10  1  0  0  0  0
  6  5  2  0  0  0  0
  7  2  1  0  0  0  0
 11 16  2  0  0  0  0
 11 12  1  0  0  0  0
 12 13  2  0  0  0  0
 13 14  1  0  0  0  0
 13  1  1  0  0  0  0
 15 17  1  0  0  0  0
 15 14  2  0  0  0  0
 16 15  1  0  0  0  0
 17 21  1  0  0  0  0
 18 11  1  0  0  0  0
 19 12  1  0  0  0  0
 20 17  1  0  0  0  0
 22  6  1  0  0  0  0
 22 28  1  0  0  0  0
 23 22  2  0  0  0  0
 24 23  1  0  0  0  0
 24 26  2  0  0  0  0
 25 24  1  0  0  0  0
 26 27  1  0  0  0  0
 27 28  2  0  0  0  0
M  END
>  <minimizedAffinity>
-5.12420559

$$$$

 OpenBabel03252505353D

 28 30  0  0  0  0  0  0  0  0999 V2000
   37.2450   26.6090   40.9020 C   0  0  0  0  0  0  0  0  0  0  0  0
   37.1620   25.8620   42.0430 C   0  0  0  0  0  0  0  0  0  0  0  0
   36.8570   24.5070   42.0650 C   0  0  0  0  0  0  0  0  0  0  0  0
   36.6220   23.8530   40.8630 C   0  0  0  0  0  0  0  0  0  0  0  0
   36.7050   24.6050   39.7040 C   0  0  0  0  0  0  0  0  0  0  0  0
   37.0090   25.9460   39.7280 C   0  0  0  0  0  0  0  0  0  0  0  0
   37.3380   26.3230   43.0130 H   0  0  0  0  0  0  0  0  0  0  0  0
   36.8010   23.9500   42.9910 H   0  0  0  0  0  0  0  0  0  0  0  0
   36.3820   22.7970   40.8470 H   0  0  0  0  0  0  0  0  0  0  0  0
   36.5170   24.0810   38.7630 H   0  0  0  0  0  0  0  0  0  0  0  0
   39.0630   29.8910   41.1360 C   0  0  0  0  0  0  0  0  0  0  0  0
   38.8730   28.4940   41.0220 C   0  0  0  0  0  0  0  0  0  0  0  0
   37.5700   28.0040   41.0120 C   0  0  0  0  0  0  0  0  0  0  0  0
   36.5480   28.8900   41.1120 N   0  0  0  0  0  0  0  0  0  0  0  0
   36.7680   30.2180   41.2190 C   0  0  0  0  0  0  0  0  0  0  0  0
   38.0190   30.7130   41.2300 N   0  0  0  0  0  0  0  0  0  0  0  0
   35.6710   31.1240   41.3270 N   0  0  0  0  0  0  0  0  0  0  0  0
   40.0920   30.2560   41.1420 H   0  0  0  0  0  0  0  0  0  0  0  0
   39.6860   27.7940   40.9420 H   0  0  0  0  0  0  0  0  0  0  0  0
   35.8090   32.1370   41.1890 H   0  0  0  0  0  0  0  0  0  0  0  0
   34.7090   30.7630   41.5470 H   0  0  0  0  0  0  0  0  0  0  0  0
   37.0800   26.6860   38.4730 C   0  0  0  0  0  0  0  0  0  0  0  0
   36.1370   27.4330   37.7990 C   0  0  0  0  0  3  0  0  0  0  0  0
   36.4810   28.0320   36.6140 C   0  0  0  0  0  0  0  0  0  0  0  0
   35.7190   28.5990   36.1290 H   0  0  0  0  0  0  0  0  0  0  0  0
   37.7080   27.9320   36.0620 N   0  0  0  0  0  0  0  0  0  0  0  0
   38.6110   27.1930   36.7490 C   0  0  0  0  0  3  0  0  0  0  0  0
   38.3320   26.5700   37.9340 N   0  0  0  0  0  0  0  0  0  0  0  0
  1 13  1  0  0  0  0
  1  2  1  0  0  0  0
  2  3  2  0  0  0  0
  2  7  1  0  0  0  0
  3  8  1  0  0  0  0
  4  3  1  0  0  0  0
  5  6  1  0  0  0  0
  5  4  2  0  0  0  0
  6  1  2  0  0  0  0
  9  4  1  0  0  0  0
 10  5  1  0  0  0  0
 11 18  1  0  0  0  0
 11 16  1  0  0  0  0
 12 11  2  0  0  0  0
 13 12  1  0  0  0  0
 13 14  2  0  0  0  0
 14 15  1  0  0  0  0
 15 16  2  0  0  0  0
 15 17  1  0  0  0  0
 17 21  1  0  0  0  0
 19 12  1  0  0  0  0
 20 17  1  0  0  0  0
 22  6  1  0  0  0  0
 23 22  2  0  0  0  0
 24 23  1  0  0  0  0
 25 24  1  0  0  0  0
 26 24  2  0  0  0  0
 26 27  1  0  0  0  0
 27 28  2  0  0  0  0
 28 22  1  0  0  0  0
M  END
>  <minimizedAffinity>
-5.09604502

$$$$

 OpenBabel03252505353D

 28 30  0  0  0  0  0  0  0  0999 V2000
   37.6690   29.6290   41.5910 C   0  0  0  0  0  0  0  0  0  0  0  0
   38.0150   29.4790   42.9050 C   0  0  0  0  0  0  0  0  0  0  0  0
   37.6700   28.3790   43.6800 C   0  0  0  0  0  0  0  0  0  0  0  0
   36.9300   27.3570   43.1010 C   0  0  0  0  0  0  0  0  0  0  0  0
   36.5770   27.5030   41.7710 C   0  0  0  0  0  0  0  0  0  0  0  0
   36.9380   28.6110   41.0400 C   0  0  0  0  0  0  0  0  0  0  0  0
   38.5960   30.2490   43.4090 H   0  0  0  0  0  0  0  0  0  0  0  0
   37.9640   28.2970   44.7180 H   0  0  0  0  0  0  0  0  0  0  0  0
   36.6460   26.4860   43.6790 H   0  0  0  0  0  0  0  0  0  0  0  0
   35.9930   26.6930   41.3250 H   0  0  0  0  0  0  0  0  0  0  0  0
   37.7880   33.0220   39.9800 C   0  0  0  0  0  0  0  0  0  0  0  0
   37.2590   31.9120   40.6780 C   0  0  0  0  0  0  0  0  0  0  0  0
   38.0870   30.8140   40.8980 C   0  0  0  0  0  0  0  0  0  0  0  0
   39.3600   30.8650   40.4310 N   0  0  0  0  0  0  0  0  0  0  0  0
   39.8310   31.9430   39.7680 C   0  0  0  0  0  0  0  0  0  0  0  0
   39.0480   33.0140   39.5460 N   0  0  0  0  0  0  0  0  0  0  0  0
   41.1740   31.9620   39.2880 N   0  0  0  0  0  0  0  0  0  0  0  0
   37.1240   33.8730   39.8170 H   0  0  0  0  0  0  0  0  0  0  0  0
   36.2490   31.8760   41.0460 H   0  0  0  0  0  0  0  0  0  0  0  0
   41.6110   32.8460   38.9800 H   0  0  0  0  0  0  0  0  0  0  0  0
   41.7310   31.0720   39.2430 H   0  0  0  0  0  0  0  0  0  0  0  0
   36.5350   28.7090   39.6430 C   0  0  0  0  0  0  0  0  0  0  0  0
   35.3940   29.2150   39.0550 C   0  0  0  0  0  3  0  0  0  0  0  0
   35.2730   29.1790   37.6890 C   0  0  0  0  0  0  0  0  0  0  0  0
   34.3740   29.5820   37.2810 H   0  0  0  0  0  0  0  0  0  0  0  0
   36.2200   28.6700   36.8750 N   0  0  0  0  0  0  0  0  0  0  0  0
   37.3280   28.1810   37.4820 C   0  0  0  0  0  3  0  0  0  0  0  0
   37.5100   28.1870   38.8370 N   0  0  0  0  0  0  0  0  0  0  0  0
  1  2  1  0  0  0  0
  2  7  1  0  0  0  0
  2  3  2  0  0  0  0
  3  8  1  0  0  0  0
  4  9  1  0  0  0  0
  4  3  1  0  0  0  0
  5  4  2  0  0  0  0
  6  1  2  0  0  0  0
  6  5  1  0  0  0  0
 10  5  1  0  0  0  0
 11 12  1  0  0  0  0
 12 13  2  0  0  0  0
 12 19  1  0  0  0  0
 13  1  1  0  0  0  0
 14 13  1  0  0  0  0
 15 14  2  0  0  0  0
 16 15  1  0  0  0  0
 16 11  2  0  0  0  0
 17 15  1  0  0  0  0
 18 11  1  0  0  0  0
 20 17  1  0  0  0  0
 21 17  1  0  0  0  0
 22  6  1  0  0  0  0
 23 22  1  0  0  0  0
 24 23  2  0  0  0  0
 25 24  1  0  0  0  0
 26 27  2  0  0  0  0
 26 24  1  0  0  0  0
 27 28  1  0  0  0  0
 28 22  2  0  0  0  0
M  END
>  <minimizedAffinity>
-4.98932266

$$$$

 OpenBabel03252505353D

 28 30  0  0  0  0  0  0  0  0999 V2000
   37.6520   26.5320   41.2240 C   0  0  0  0  0  0  0  0  0  0  0  0
   37.0190   25.3630   41.5420 C   0  0  0  0  0  0  0  0  0  0  0  0
   37.6290   24.3030   42.2010 C   0  0  0  0  0  0  0  0  0  0  0  0
   38.9620   24.4220   42.5710 C   0  0  0  0  0  0  0  0  0  0  0  0
   39.6070   25.6040   42.2520 C   0  0  0  0  0  0  0  0  0  0  0  0
   38.9660   26.6290   41.5970 C   0  0  0  0  0  0  0  0  0  0  0  0
   35.9740   25.2160   41.2760 H   0  0  0  0  0  0  0  0  0  0  0  0
   37.0940   23.3920   42.4340 H   0  0  0  0  0  0  0  0  0  0  0  0
   39.4660   23.6130   43.0860 H   0  0  0  0  0  0  0  0  0  0  0  0
   40.6570   25.6860   42.5470 H   0  0  0  0  0  0  0  0  0  0  0  0
   35.7540   28.5190   38.6600 C   0  0  0  0  0  0  0  0  0  0  0  0
   36.4760   27.4410   39.2230 C   0  0  0  0  0  0  0  0  0  0  0  0
   36.9100   27.5550   40.5410 C   0  0  0  0  0  0  0  0  0  0  0  0
   36.6200   28.6930   41.2180 N   0  0  0  0  0  0  0  0  0  0  0  0
   35.9270   29.7020   40.6480 C   0  0  0  0  0  0  0  0  0  0  0  0
   35.4970   29.6130   39.3760 N   0  0  0  0  0  0  0  0  0  0  0  0
   35.6410   30.8880   41.3870 N   0  0  0  0  0  0  0  0  0  0  0  0
   35.4210   28.4120   37.6250 H   0  0  0  0  0  0  0  0  0  0  0  0
   36.7040   26.5400   38.6810 H   0  0  0  0  0  0  0  0  0  0  0  0
   34.9370   31.5630   41.0490 H   0  0  0  0  0  0  0  0  0  0  0  0
   36.1470   31.0830   42.2880 H   0  0  0  0  0  0  0  0  0  0  0  0
   39.6990   27.8500   41.2870 C   0  0  0  0  0  0  0  0  0  0  0  0
   40.2100   28.3310   40.1000 C   0  0  0  0  0  3  0  0  0  0  0  0
   40.8710   29.5340   40.0950 C   0  0  0  0  0  0  0  0  0  0  0  0
   41.2480   29.8650   39.1540 H   0  0  0  0  0  0  0  0  0  0  0  0
   41.0500   30.2840   41.2010 N   0  0  0  0  0  0  0  0  0  0  0  0
   40.5360   29.7850   42.3500 C   0  0  0  0  0  3  0  0  0  0  0  0
   39.8690   28.5940   42.4220 N   0  0  0  0  0  0  0  0  0  0  0  0
  1  2  2  0  0  0  0
  1  6  1  0  0  0  0
  2  3  1  0  0  0  0
  3  8  1  0  0  0  0
  3  4  2  0  0  0  0
  4  9  1  0  0  0  0
  5 10  1  0  0  0  0
  5  4  1  0  0  0  0
  6  5  2  0  0  0  0
  7  2  1  0  0  0  0
 11 12  2  0  0  0  0
 11 16  1  0  0  0  0
 12 13  1  0  0  0  0
 13 14  2  0  0  0  0
 13  1  1  0  0  0  0
 15 14  1  0  0  0  0
 15 17  1  0  0  0  0
 16 15  2  0  0  0  0
 17 21  1  0  0  0  0
 18 11  1  0  0  0  0
 19 12  1  0  0  0  0
 20 17  1  0  0  0  0
 22  6  1  0  0  0  0
 22 28  1  0  0  0  0
 23 22  2  0  0  0  0
 24 23  1  0  0  0  0
 24 26  2  0  0  0  0
 25 24  1  0  0  0  0
 26 27  1  0  0  0  0
 27 28  2  0  0  0  0
M  END
>  <minimizedAffinity>
-4.9555192

$$$$
