
 OpenBabel03252508543D

 41 44  0  0  1  0  0  0  0  0999 V2000
   43.3040   34.4010   40.7620 C   0  0  0  0  0  0  0  0  0  0  0  0
   43.2340   35.6160   40.3770 O   0  0  0  0  0  0  0  0  0  0  0  0
   41.9460   33.9720   40.4750 N   0  0  0  0  0  0  0  0  0  0  0  0
   41.5610   34.0670   39.0870 C   0  0  0  0  0  0  0  0  0  0  0  0
   40.7420   35.3730   38.9920 C   0  0  0  0  0  0  0  0  0  0  0  0
   39.9610   35.4850   40.3140 C   0  0  0  0  0  0  0  0  0  0  0  0
   39.6360   34.1120   40.8630 C   0  0  0  0  0  0  0  0  0  0  0  0
   40.9310   33.4670   41.3790 C   0  0  1  0  0  0  0  0  0  0  0  0
   42.4020   34.1980   38.3880 H   0  0  0  0  0  0  0  0  0  0  0  0
   40.8830   33.2370   38.7850 H   0  0  0  0  0  0  0  0  0  0  0  0
   40.0260   35.3050   38.1310 H   0  0  0  0  0  0  0  0  0  0  0  0
   41.4110   36.2410   38.9020 H   0  0  0  0  0  0  0  0  0  0  0  0
   40.5720   36.0780   41.0290 H   0  0  0  0  0  0  0  0  0  0  0  0
   39.0230   35.9880   40.0460 H   0  0  0  0  0  0  0  0  0  0  0  0
   38.8940   34.2600   41.6700 H   0  0  0  0  0  0  0  0  0  0  0  0
   39.2080   33.5420   40.0270 H   0  0  0  0  0  0  0  0  0  0  0  0
   41.1510   33.9110   42.3690 H   0  0  0  0  0  0  0  0  0  0  0  0
   40.8180   31.9930   41.3840 C   0  0  0  0  0  0  0  0  0  0  0  0
   41.1120   31.1460   40.3400 C   0  0  0  0  0  0  0  0  0  0  0  0
   40.9860   29.7830   40.4100 C   0  0  0  0  0  0  0  0  0  0  0  0
   41.2500   29.2070   39.5100 H   0  0  0  0  0  0  0  0  0  0  0  0
   40.5540   29.2280   41.5560 N   0  0  0  0  0  0  0  0  0  0  0  0
   40.2560   30.0390   42.6070 C   0  0  0  0  0  0  0  0  0  0  0  0
   40.3850   31.3880   42.5250 N   0  0  0  0  0  0  0  0  0  0  0  0
   44.3890   33.7700   41.2820 O   0  0  0  0  0  0  0  0  0  0  0  0
   45.7120   34.1010   41.1130 C   0  0  0  0  0  0  0  0  0  0  0  0
   46.3530   34.7300   42.1830 C   0  0  0  0  0  0  0  0  0  0  0  0
   47.7050   35.0660   42.0030 C   0  0  0  0  0  0  0  0  0  0  0  0
   48.2950   34.7590   40.8050 N   0  0  0  0  0  0  0  0  0  0  0  0
   47.6320   34.1610   39.8260 C   0  0  0  0  0  0  0  0  0  0  0  0
   46.3410   33.8290   39.9730 N   0  0  0  0  0  0  0  0  0  0  0  0
   48.2230   35.5540   42.8210 H   0  0  0  0  0  0  0  0  0  0  0  0
   48.1940   33.9590   38.9100 H   0  0  0  0  0  0  0  0  0  0  0  0
   45.6320   35.0100   43.4110 C   0  0  0  0  0  0  0  0  0  0  0  0
   44.9950   36.2360   43.6430 C   0  0  0  0  0  0  0  0  0  0  0  0
   44.4480   36.0860   44.8940 C   0  0  0  0  0  0  0  0  0  0  0  0
   44.7270   34.8690   45.3820 N   0  0  0  0  0  0  0  0  0  0  0  0
   45.4420   34.2360   44.4740 N   0  0  0  0  0  0  0  0  0  0  0  0
   44.9080   37.1320   43.0410 H   0  0  0  0  0  0  0  0  0  0  0  0
   43.8540   36.7670   45.5110 H   0  0  0  0  0  0  0  0  0  0  0  0
   44.5340   34.3250   46.2510 H   0  0  0  0  0  0  0  0  0  0  0  0
  1 25  1  0  0  0  0
  2  1  2  0  0  0  0
  3  1  1  0  0  0  0
  3  8  1  0  0  0  0
  4  3  1  0  0  0  0
  5  4  1  0  0  0  0
  5  6  1  0  0  0  0
  6  7  1  0  0  0  0
  6 13  1  0  0  0  0
  7  8  1  0  0  0  0
  7 15  1  0  0  0  0
  8 18  1  0  0  0  0
  8 17  1  1  0  0  0
  9  4  1  0  0  0  0
 10  4  1  0  0  0  0
 11  5  1  0  0  0  0
 12  5  1  0  0  0  0
 14  6  1  0  0  0  0
 16  7  1  0  0  0  0
 18 24  1  0  0  0  0
 19 20  1  0  0  0  0
 19 18  2  0  0  0  0
 20 22  2  0  0  0  0
 21 20  1  0  0  0  0
 22 23  1  0  0  0  0
 24 23  2  0  0  0  0
 26 25  1  0  0  0  0
 26 27  1  0  0  0  0
 27 34  1  0  0  0  0
 28 27  2  0  0  0  0
 28 32  1  0  0  0  0
 29 28  1  0  0  0  0
 30 31  1  0  0  0  0
 30 29  2  0  0  0  0
 31 26  2  0  0  0  0
 33 30  1  0  0  0  0
 34 35  1  0  0  0  0
 34 38  2  0  0  0  0
 35 36  2  0  0  0  0
 36 37  1  0  0  0  0
 36 40  1  0  0  0  0
 37 41  1  0  0  0  0
 38 37  1  0  0  0  0
 39 35  1  0  0  0  0
M  END
>  <minimizedAffinity>
-6.73950052

>  <minimizedRMSD>
0.323297501

$$$$
