
 OpenBabel03242521283D

 33 35  0  0  1  0  0  0  0  0999 V2000
   47.9330   33.3470   42.5760 C   0  0  1  0  0  0  0  0  0  0  0  0
   46.5030   33.7360   42.2810 C   0  0  2  0  0  0  0  0  0  0  0  0
   46.4220   34.6900   41.2860 O   0  0  0  0  0  0  0  0  0  0  0  0
   46.7700   34.0520   40.1060 C   0  0  0  0  0  0  0  0  0  0  0  0
   48.2600   33.8140   40.1220 C   0  0  2  0  0  0  0  0  0  0  0  0
   48.7740   33.1710   41.3590 C   0  0  2  0  0  0  0  0  0  0  0  0
   47.8660   32.3480   43.1020 H   0  0  0  0  0  0  0  0  0  0  0  0
   46.0040   32.8060   41.9330 H   0  0  0  0  0  0  0  0  0  0  0  0
   46.2840   33.0480   40.0230 H   0  0  0  0  0  0  0  0  0  0  0  0
   46.5570   34.6770   39.2060 H   0  0  0  0  0  0  0  0  0  0  0  0
   48.5210   33.2010   39.2320 H   0  0  0  0  0  0  0  0  0  0  0  0
   49.7690   33.6490   41.5820 H   0  0  0  0  0  0  0  0  0  0  0  0
   44.5070   35.9090   44.6610 C   0  0  0  0  0  0  0  0  0  0  0  0
   45.1060   35.4530   43.4770 C   0  0  0  0  0  0  0  0  0  0  0  0
   45.8480   34.2380   43.4980 C   0  0  0  0  0  0  0  0  0  0  0  0
   45.9320   33.5830   44.6770 N   0  0  0  0  0  0  0  0  0  0  0  0
   45.3450   34.0460   45.8060 C   0  0  0  0  0  0  0  0  0  0  0  0
   44.6350   35.2030   45.7990 N   0  0  0  0  0  0  0  0  0  0  0  0
   43.9750   36.8400   44.5100 H   0  0  0  0  0  0  0  0  0  0  0  0
   45.0630   35.9440   42.5150 H   0  0  0  0  0  0  0  0  0  0  0  0
   45.4250   33.5060   46.7420 H   0  0  0  0  0  0  0  0  0  0  0  0
   48.5260   34.1980   43.5180 O   0  0  0  0  0  0  0  0  0  0  0  0
   49.2550   33.7830   44.0030 H   0  0  0  0  0  0  0  0  0  0  0  0
   48.8400   35.0720   39.9210 O   0  0  0  0  0  0  0  0  0  0  0  0
   49.4770   35.0700   39.1640 H   0  0  0  0  0  0  0  0  0  0  0  0
   49.1040   31.8110   41.1530 O   0  0  0  0  0  0  0  0  0  0  0  0
   50.4200   31.3600   41.1080 C   0  0  0  0  0  0  0  0  0  0  0  0
   51.0150   30.5860   42.0840 C   0  0  0  0  0  3  0  0  0  0  0  0
   52.3330   30.2030   41.9210 C   0  0  0  0  0  0  0  0  0  0  0  0
   52.7980   29.5990   42.6810 H   0  0  0  0  0  0  0  0  0  0  0  0
   53.0600   30.5640   40.8330 N   0  0  0  0  0  0  0  0  0  0  0  0
   52.4470   31.3190   39.9020 C   0  0  0  0  0  3  0  0  0  0  0  0
   51.1760   31.7090   40.0260 N   0  0  0  0  0  0  0  0  0  0  0  0
  1  7  1  1  0  0  0
  1 22  1  0  0  0  0
  2  8  1  6  0  0  0
  2  1  1  0  0  0  0
  2 15  1  0  0  0  0
  3  2  1  0  0  0  0
  4  5  1  0  0  0  0
  4  3  1  0  0  0  0
  5 11  1  6  0  0  0
  5  6  1  0  0  0  0
  6 12  1  1  0  0  0
  6  1  1  0  0  0  0
  9  4  1  0  0  0  0
 10  4  1  0  0  0  0
 13 18  1  0  0  0  0
 14 15  1  0  0  0  0
 14 13  2  0  0  0  0
 15 16  2  0  0  0  0
 16 17  1  0  0  0  0
 17 21  1  0  0  0  0
 18 17  2  0  0  0  0
 19 13  1  0  0  0  0
 20 14  1  0  0  0  0
 22 23  1  0  0  0  0
 24  5  1  0  0  0  0
 25 24  1  0  0  0  0
 26  6  1  0  0  0  0
 27 26  1  0  0  0  0
 27 28  1  0  0  0  0
 29 28  2  0  0  0  0
 29 30  1  0  0  0  0
 31 29  1  0  0  0  0
 32 33  1  0  0  0  0
 32 31  2  0  0  0  0
 33 27  2  0  0  0  0
M  END
>  <minimizedAffinity>
-5.35984659

>  <minimizedRMSD>
0.434920311

$$$$
