
 OpenBabel03252506343D

 31 33  0  0  1  0  0  0  0  0999 V2000
   44.5030   35.5550   45.0960 C   0  0  0  0  0  0  0  0  0  0  0  0
   45.1580   35.5290   43.8620 C   0  0  0  0  0  0  0  0  0  0  0  0
   46.0920   34.5470   43.6110 C   0  0  0  0  0  0  0  0  0  0  0  0
   46.3110   33.6570   44.6110 N   0  0  0  0  0  0  0  0  0  0  0  0
   45.6870   33.6870   45.7790 C   0  0  0  0  0  0  0  0  0  0  0  0
   44.7760   34.6280   46.0500 N   0  0  0  0  0  0  0  0  0  0  0  0
   46.0060   32.7030   46.7440 N   0  0  0  0  0  0  0  0  0  0  0  0
   45.2220   32.4060   47.9420 C   0  0  0  0  0  0  0  0  0  0  0  0
   46.3040   32.1460   48.9740 C   0  0  0  0  0  0  0  0  0  0  0  0
   47.6000   31.9940   48.2100 C   0  0  0  0  0  0  0  0  0  0  0  0
   47.1130   31.7930   46.8000 C   0  0  1  0  0  0  0  0  0  0  0  0
   43.7570   36.2880   45.3760 H   0  0  0  0  0  0  0  0  0  0  0  0
   46.5720   34.5570   42.6620 H   0  0  0  0  0  0  0  0  0  0  0  0
   44.6340   31.4940   47.7190 H   0  0  0  0  0  0  0  0  0  0  0  0
   44.5980   33.2740   48.2150 H   0  0  0  0  0  0  0  0  0  0  0  0
   46.0910   31.1560   49.4330 H   0  0  0  0  0  0  0  0  0  0  0  0
   46.3800   32.9400   49.7300 H   0  0  0  0  0  0  0  0  0  0  0  0
   48.2190   31.1440   48.5670 H   0  0  0  0  0  0  0  0  0  0  0  0
   48.1280   32.9520   48.2350 H   0  0  0  0  0  0  0  0  0  0  0  0
   47.8940   32.0740   46.0480 H   0  0  0  0  0  0  0  0  0  0  0  0
   44.7760   36.5700   42.9510 N   0  0  0  0  0  0  0  0  0  0  0  0
   45.3770   37.0400   42.2660 H   0  0  0  0  0  0  0  0  0  0  0  0
   43.8040   36.9230   42.9380 H   0  0  0  0  0  0  0  0  0  0  0  0
   46.6310   30.0760   46.5820 S   0  0  0  0  0  0  0  0  0  0  0  0
   45.4330   29.8750   45.2750 C   0  0  0  0  0  0  0  0  0  0  0  0
   45.3850   30.4230   44.0110 C   0  0  0  0  0  0  0  0  0  0  0  0
   44.3340   30.0990   43.1800 C   0  0  0  0  0  0  0  0  0  0  0  0
   44.4050   30.5930   42.2110 H   0  0  0  0  0  0  0  0  0  0  0  0
   43.3680   29.2650   43.5810 N   0  0  0  0  0  0  0  0  0  0  0  0
   43.4150   28.7250   44.8240 C   0  0  0  0  0  0  0  0  0  0  0  0
   44.4360   29.0320   45.6490 N   0  0  0  0  0  0  0  0  0  0  0  0
  1 12  1  0  0  0  0
  1  6  1  0  0  0  0
  2  1  2  0  0  0  0
  3  2  1  0  0  0  0
  3  4  2  0  0  0  0
  4  5  1  0  0  0  0
  5  6  2  0  0  0  0
  5  7  1  0  0  0  0
  7 11  1  0  0  0  0
  7  8  1  0  0  0  0
  8 15  1  0  0  0  0
  8  9  1  0  0  0  0
  9 16  1  0  0  0  0
  9 17  1  0  0  0  0
 10 19  1  0  0  0  0
 10 18  1  0  0  0  0
 10  9  1  0  0  0  0
 11 20  1  6  0  0  0
 11 10  1  0  0  0  0
 13  3  1  0  0  0  0
 14  8  1  0  0  0  0
 21  2  1  0  0  0  0
 22 21  1  0  0  0  0
 23 21  1  0  0  0  0
 24 11  1  0  0  0  0
 25 31  1  0  0  0  0
 25 24  1  0  0  0  0
 26 25  2  0  0  0  0
 27 29  2  0  0  0  0
 27 26  1  0  0  0  0
 28 27  1  0  0  0  0
 29 30  1  0  0  0  0
 30 31  2  0  0  0  0
M  END
>  <minimizedAffinity>
-5.13118505

>  <minimizedRMSD>
0.704774082

$$$$
