
 OpenBabel03242522113D

 18 19  0  0  0  0  0  0  0  0999 V2000
   44.4750   35.6880   44.9630 C   0  0  0  0  0  0  0  0  0  0  0  0
   45.1030   35.6560   43.7180 C   0  0  0  0  0  0  0  0  0  0  0  0
   46.0460   34.6640   43.5160 C   0  0  0  0  0  0  0  0  0  0  0  0
   46.3140   33.7880   44.5090 N   0  0  0  0  0  0  0  0  0  0  0  0
   45.6840   33.8470   45.7130 C   0  0  0  0  0  0  0  0  0  0  0  0
   44.7530   34.8140   45.9310 N   0  0  0  0  0  0  0  0  0  0  0  0
   43.7190   36.4170   45.2440 H   0  0  0  0  0  0  0  0  0  0  0  0
   45.9840   33.0920   46.4270 H   0  0  0  0  0  0  0  0  0  0  0  0
   46.7180   34.6070   42.2210 C   0  0  0  0  0  0  0  0  0  0  0  0
   47.9580   35.1770   42.0270 C   0  0  0  0  0  0  0  0  0  0  0  0
   48.4750   35.0450   40.7440 C   0  0  0  0  0  0  0  0  0  0  0  0
   49.4530   35.4870   40.5670 H   0  0  0  0  0  0  0  0  0  0  0  0
   47.8320   34.4100   39.7410 N   0  0  0  0  0  0  0  0  0  0  0  0
   46.6240   33.8690   39.9790 C   0  0  0  0  0  0  0  0  0  0  0  0
   46.0750   33.9730   41.2230 N   0  0  0  0  0  0  0  0  0  0  0  0
   44.7380   36.6290   42.7510 N   0  0  0  0  0  0  0  0  0  0  0  0
   45.3360   37.4670   43.0130 H   0  0  0  0  0  0  0  0  0  0  0  0
   44.0350   36.4350   42.0140 H   0  0  0  0  0  0  0  0  0  0  0  0
  1  7  1  0  0  0  0
  1  6  1  0  0  0  0
  2  1  2  0  0  0  0
  3  2  1  0  0  0  0
  3  4  2  0  0  0  0
  4  5  1  0  0  0  0
  5  6  2  0  0  0  0
  5  8  1  0  0  0  0
  9  3  1  0  0  0  0
 10  9  1  0  0  0  0
 11 10  2  0  0  0  0
 12 11  1  0  0  0  0
 13 14  2  0  0  0  0
 13 11  1  0  0  0  0
 14 15  1  0  0  0  0
 15  9  2  0  0  0  0
 16 17  1  0  0  0  0
 16  2  1  0  0  0  0
 18 16  1  0  0  0  0
M  END
>  <minimizedAffinity>
-4.62320375

>  <minimizedRMSD>
1.83416641

$$$$
