
 OpenBabel03242521283D

 33 35  0  0  1  0  0  0  0  0999 V2000
   47.9340   33.3470   42.5730 C   0  0  1  0  0  0  0  0  0  0  0  0
   46.5040   33.7360   42.2780 C   0  0  2  0  0  0  0  0  0  0  0  0
   46.4230   34.6880   41.2830 O   0  0  0  0  0  0  0  0  0  0  0  0
   46.7700   34.0500   40.1030 C   0  0  0  0  0  0  0  0  0  0  0  0
   48.2600   33.8130   40.1190 C   0  0  2  0  0  0  0  0  0  0  0  0
   48.7750   33.1700   41.3560 C   0  0  2  0  0  0  0  0  0  0  0  0
   47.8670   32.3480   43.1000 H   0  0  0  0  0  0  0  0  0  0  0  0
   46.0050   32.8050   41.9310 H   0  0  0  0  0  0  0  0  0  0  0  0
   46.2850   33.0470   40.0200 H   0  0  0  0  0  0  0  0  0  0  0  0
   46.5570   34.6750   39.2030 H   0  0  0  0  0  0  0  0  0  0  0  0
   48.5210   33.2000   39.2290 H   0  0  0  0  0  0  0  0  0  0  0  0
   49.7700   33.6490   41.5790 H   0  0  0  0  0  0  0  0  0  0  0  0
   44.5090   35.9100   44.6580 C   0  0  0  0  0  0  0  0  0  0  0  0
   45.1080   35.4540   43.4740 C   0  0  0  0  0  0  0  0  0  0  0  0
   45.8490   34.2380   43.4960 C   0  0  0  0  0  0  0  0  0  0  0  0
   45.9320   33.5830   44.6750 N   0  0  0  0  0  0  0  0  0  0  0  0
   45.3450   34.0460   45.8030 C   0  0  0  0  0  0  0  0  0  0  0  0
   44.6360   35.2040   45.7960 N   0  0  0  0  0  0  0  0  0  0  0  0
   43.9780   36.8410   44.5070 H   0  0  0  0  0  0  0  0  0  0  0  0
   45.0660   35.9450   42.5120 H   0  0  0  0  0  0  0  0  0  0  0  0
   45.4240   33.5060   46.7390 H   0  0  0  0  0  0  0  0  0  0  0  0
   48.5270   34.1990   43.5150 O   0  0  0  0  0  0  0  0  0  0  0  0
   49.2560   33.7830   44.0000 H   0  0  0  0  0  0  0  0  0  0  0  0
   48.8400   35.0710   39.9170 O   0  0  0  0  0  0  0  0  0  0  0  0
   49.4770   35.0680   39.1600 H   0  0  0  0  0  0  0  0  0  0  0  0
   49.1050   31.8100   41.1510 O   0  0  0  0  0  0  0  0  0  0  0  0
   50.4210   31.3590   41.1070 C   0  0  0  0  0  0  0  0  0  0  0  0
   51.0130   30.5810   42.0820 C   0  0  0  0  0  3  0  0  0  0  0  0
   52.3320   30.1980   41.9210 C   0  0  0  0  0  0  0  0  0  0  0  0
   52.7940   29.5910   42.6810 H   0  0  0  0  0  0  0  0  0  0  0  0
   53.0610   30.5640   40.8360 N   0  0  0  0  0  0  0  0  0  0  0  0
   52.4510   31.3220   39.9060 C   0  0  0  0  0  3  0  0  0  0  0  0
   51.1790   31.7120   40.0280 N   0  0  0  0  0  0  0  0  0  0  0  0
  1  7  1  1  0  0  0
  1 22  1  0  0  0  0
  2  8  1  6  0  0  0
  2  1  1  0  0  0  0
  2 15  1  0  0  0  0
  3  2  1  0  0  0  0
  4  5  1  0  0  0  0
  4  3  1  0  0  0  0
  5 11  1  6  0  0  0
  5  6  1  0  0  0  0
  6 12  1  1  0  0  0
  6  1  1  0  0  0  0
  9  4  1  0  0  0  0
 10  4  1  0  0  0  0
 13 18  1  0  0  0  0
 14 15  1  0  0  0  0
 14 13  2  0  0  0  0
 15 16  2  0  0  0  0
 16 17  1  0  0  0  0
 17 21  1  0  0  0  0
 18 17  2  0  0  0  0
 19 13  1  0  0  0  0
 20 14  1  0  0  0  0
 22 23  1  0  0  0  0
 24  5  1  0  0  0  0
 25 24  1  0  0  0  0
 26  6  1  0  0  0  0
 27 26  1  0  0  0  0
 27 28  1  0  0  0  0
 29 28  2  0  0  0  0
 29 30  1  0  0  0  0
 31 29  1  0  0  0  0
 32 33  1  0  0  0  0
 32 31  2  0  0  0  0
 33 27  2  0  0  0  0
M  END
>  <minimizedAffinity>
-5.36104393

>  <minimizedRMSD>
0.452767879

$$$$
