
 OpenBabel03252508543D

 41 44  0  0  1  0  0  0  0  0999 V2000
   43.2080   34.3210   40.6190 C   0  0  0  0  0  0  0  0  0  0  0  0
   43.1800   35.4630   40.0500 O   0  0  0  0  0  0  0  0  0  0  0  0
   41.8190   33.9280   40.4550 N   0  0  0  0  0  0  0  0  0  0  0  0
   41.3760   33.8270   39.0850 C   0  0  0  0  0  0  0  0  0  0  0  0
   40.6180   35.1440   38.8160 C   0  0  0  0  0  0  0  0  0  0  0  0
   39.9040   35.5040   40.1310 C   0  0  0  0  0  0  0  0  0  0  0  0
   39.5390   34.2550   40.9030 C   0  0  0  0  0  0  0  0  0  0  0  0
   40.8230   33.6270   41.4650 C   0  0  1  0  0  0  0  0  0  0  0  0
   42.1900   33.8000   38.3440 H   0  0  0  0  0  0  0  0  0  0  0  0
   40.6450   32.9990   38.9450 H   0  0  0  0  0  0  0  0  0  0  0  0
   39.8610   34.9820   38.0040 H   0  0  0  0  0  0  0  0  0  0  0  0
   41.3240   35.9500   38.5640 H   0  0  0  0  0  0  0  0  0  0  0  0
   40.5760   36.1670   40.7200 H   0  0  0  0  0  0  0  0  0  0  0  0
   38.9800   36.0100   39.8230 H   0  0  0  0  0  0  0  0  0  0  0  0
   38.8430   34.5670   41.7030 H   0  0  0  0  0  0  0  0  0  0  0  0
   39.0460   33.5850   40.1850 H   0  0  0  0  0  0  0  0  0  0  0  0
   41.1100   34.2080   42.3640 H   0  0  0  0  0  0  0  0  0  0  0  0
   40.6400   32.1810   41.7090 C   0  0  0  0  0  0  0  0  0  0  0  0
   41.5930   31.3010   42.1680 C   0  0  0  0  0  3  0  0  0  0  0  0
   41.3580   29.9660   42.3730 C   0  0  0  0  0  0  0  0  0  0  0  0
   42.2000   29.3610   42.7430 H   0  0  0  0  0  0  0  0  0  0  0  0
   40.1340   29.4740   42.1150 N   0  0  0  0  0  0  0  0  0  0  0  0
   39.1700   30.3180   41.6590 C   0  0  0  0  0  3  0  0  0  0  0  0
   39.4150   31.6390   41.4600 N   0  0  0  0  0  0  0  0  0  0  0  0
   44.2840   33.7210   41.1920 O   0  0  0  0  0  0  0  0  0  0  0  0
   45.6120   34.0070   40.9860 C   0  0  0  0  0  0  0  0  0  0  0  0
   46.2990   34.6300   42.0300 C   0  0  0  0  0  0  0  0  0  0  0  0
   47.6570   34.9200   41.8120 C   0  0  0  0  0  0  0  0  0  0  0  0
   48.2060   34.5780   40.6040 N   0  0  0  0  0  0  0  0  0  0  0  0
   47.5010   33.9870   39.6500 C   0  0  0  0  0  0  0  0  0  0  0  0
   46.2030   33.7000   39.8340 N   0  0  0  0  0  0  0  0  0  0  0  0
   48.2100   35.4030   42.6100 H   0  0  0  0  0  0  0  0  0  0  0  0
   48.0320   33.7550   38.7250 H   0  0  0  0  0  0  0  0  0  0  0  0
   45.6180   34.9500   43.2710 C   0  0  0  0  0  0  0  0  0  0  0  0
   45.0130   36.1920   43.4950 C   0  0  0  0  0  0  0  0  0  0  0  0
   44.4970   36.0790   44.7630 C   0  0  0  0  0  0  0  0  0  0  0  0
   44.7660   34.8670   45.2680 N   0  0  0  0  0  0  0  0  0  0  0  0
   45.4430   34.2010   44.3550 N   0  0  0  0  0  0  0  0  0  0  0  0
   44.9260   37.0780   42.8760 H   0  0  0  0  0  0  0  0  0  0  0  0
   43.9350   36.7850   45.3810 H   0  0  0  0  0  0  0  0  0  0  0  0
   44.5860   34.3460   46.1540 H   0  0  0  0  0  0  0  0  0  0  0  0
  1 25  1  0  0  0  0
  2  1  2  0  0  0  0
  3  1  1  0  0  0  0
  3  8  1  0  0  0  0
  4  3  1  0  0  0  0
  5  4  1  0  0  0  0
  5  6  1  0  0  0  0
  6 13  1  0  0  0  0
  6  7  1  0  0  0  0
  7  8  1  0  0  0  0
  7 15  1  0  0  0  0
  8 18  1  0  0  0  0
  8 17  1  1  0  0  0
  9  4  1  0  0  0  0
 10  4  1  0  0  0  0
 11  5  1  0  0  0  0
 12  5  1  0  0  0  0
 14  6  1  0  0  0  0
 16  7  1  0  0  0  0
 18 19  1  0  0  0  0
 19 20  2  0  0  0  0
 20 21  1  0  0  0  0
 22 20  1  0  0  0  0
 23 22  2  0  0  0  0
 24 23  1  0  0  0  0
 24 18  2  0  0  0  0
 26 25  1  0  0  0  0
 26 27  1  0  0  0  0
 27 34  1  0  0  0  0
 28 27  2  0  0  0  0
 28 32  1  0  0  0  0
 29 28  1  0  0  0  0
 30 31  1  0  0  0  0
 30 29  2  0  0  0  0
 31 26  2  0  0  0  0
 33 30  1  0  0  0  0
 34 35  1  0  0  0  0
 34 38  2  0  0  0  0
 35 36  2  0  0  0  0
 36 37  1  0  0  0  0
 36 40  1  0  0  0  0
 37 41  1  0  0  0  0
 38 37  1  0  0  0  0
 39 35  1  0  0  0  0
M  END
>  <minimizedAffinity>
-6.71949911

>  <minimizedRMSD>
0.683861256

$$$$
