
 OpenBabel03252508343D

 33 35  0  0  1  0  0  0  0  0999 V2000
   46.3430   33.9400   41.8410 N   0  0  0  0  0  0  0  0  0  0  0  0
   46.8900   33.2400   42.9800 C   0  0  1  0  0  0  0  0  0  0  0  0
   48.3690   33.2970   43.0550 C   0  0  0  0  0  0  0  0  0  0  0  0
   49.0700   33.2240   41.8440 N   0  0  0  0  0  0  0  0  0  0  0  0
   48.4600   33.6870   40.6870 C   0  0  0  0  0  0  0  0  0  0  0  0
   47.2950   34.6130   41.0170 C   0  0  0  0  0  0  0  0  0  0  0  0
   46.5110   32.1970   42.9770 H   0  0  0  0  0  0  0  0  0  0  0  0
   48.6580   34.2710   43.5440 H   0  0  0  0  0  0  0  0  0  0  0  0
   48.7210   32.5040   43.7410 H   0  0  0  0  0  0  0  0  0  0  0  0
   49.9810   32.7820   41.8020 H   0  0  0  0  0  0  0  0  0  0  0  0
   49.1220   34.2200   39.9520 H   0  0  0  0  0  0  0  0  0  0  0  0
   47.9970   32.8130   40.1430 H   0  0  0  0  0  0  0  0  0  0  0  0
   47.7300   35.5040   41.5060 H   0  0  0  0  0  0  0  0  0  0  0  0
   46.8230   34.9350   40.0670 H   0  0  0  0  0  0  0  0  0  0  0  0
   44.2960   35.0850   41.4150 C   0  0  0  0  0  0  0  0  0  0  0  0
   44.9410   33.8890   41.6600 C   0  0  0  0  0  0  0  0  0  0  0  0
   44.1600   32.7120   41.7130 C   0  0  0  0  0  0  0  0  0  0  0  0
   42.8170   32.8060   41.5230 N   0  0  0  0  0  0  0  0  0  0  0  0
   42.2250   33.9890   41.2870 C   0  0  0  0  0  0  0  0  0  0  0  0
   42.9490   35.1220   41.2320 N   0  0  0  0  0  0  0  0  0  0  0  0
   44.8000   36.0290   41.3550 H   0  0  0  0  0  0  0  0  0  0  0  0
   44.7070   31.8150   41.9060 H   0  0  0  0  0  0  0  0  0  0  0  0
   41.1590   33.9020   41.1570 H   0  0  0  0  0  0  0  0  0  0  0  0
   46.3380   33.8920   44.2240 C   0  0  0  0  0  0  0  0  0  0  0  0
   47.0830   34.6800   44.5370 H   0  0  0  0  0  0  0  0  0  0  0  0
   45.4020   34.4780   43.9940 H   0  0  0  0  0  0  0  0  0  0  0  0
   46.0780   32.9580   45.3330 C   0  0  0  0  0  0  0  0  0  0  0  0
   45.8610   33.2080   46.6680 C   0  0  0  0  0  0  0  0  0  0  0  0
   45.6280   32.2080   47.5610 C   0  0  0  0  0  0  0  0  0  0  0  0
   45.4660   32.4820   48.5930 H   0  0  0  0  0  0  0  0  0  0  0  0
   45.6040   30.9460   47.1570 N   0  0  0  0  0  0  0  0  0  0  0  0
   45.8110   30.6630   45.8630 C   0  0  0  0  0  0  0  0  0  0  0  0
   46.0430   31.6420   44.9700 N   0  0  0  0  0  0  0  0  0  0  0  0
  1  2  1  0  0  0  0
  2  7  1  6  0  0  0
  2  3  1  0  0  0  0
  2 24  1  0  0  0  0
  3  8  1  0  0  0  0
  3  9  1  0  0  0  0
  4  3  1  0  0  0  0
  5  6  1  0  0  0  0
  5  4  1  0  0  0  0
  6 13  1  0  0  0  0
  6  1  1  0  0  0  0
 10  4  1  0  0  0  0
 11  5  1  0  0  0  0
 12  5  1  0  0  0  0
 14  6  1  0  0  0  0
 15 16  1  0  0  0  0
 16 17  2  0  0  0  0
 16  1  1  0  0  0  0
 17 22  1  0  0  0  0
 18 17  1  0  0  0  0
 19 18  2  0  0  0  0
 20 19  1  0  0  0  0
 20 15  2  0  0  0  0
 21 15  1  0  0  0  0
 23 19  1  0  0  0  0
 24 25  1  0  0  0  0
 24 27  1  0  0  0  0
 26 24  1  0  0  0  0
 27 28  1  0  0  0  0
 28 29  2  0  0  0  0
 29 30  1  0  0  0  0
 31 29  1  0  0  0  0
 32 31  2  0  0  0  0
 33 27  2  0  0  0  0
 33 32  1  0  0  0  0
M  END
>  <minimizedAffinity>
-4.1043396

>  <minimizedRMSD>
5.17258501

$$$$
