
 OpenBabel03252502573D

 35 37  0  0  0  0  0  0  0  0999 V2000
   40.3050   30.7610   42.2900 Br  0  0  0  0  0  0  0  0  0  0  0  0
   38.6000   30.7340   41.3740 C   0  0  0  0  0  0  0  0  0  0  0  0
   38.2100   31.9190   40.8300 C   0  0  0  0  0  0  0  0  0  0  0  0
   36.9740   31.8690   40.1730 C   0  0  0  0  0  0  0  0  0  0  0  0
   36.2140   30.7260   40.0820 C   0  0  0  0  0  0  0  0  0  0  0  0
   36.6810   29.5700   40.6600 C   0  0  0  0  0  0  0  0  0  0  0  0
   37.8850   29.5580   41.3160 C   0  0  0  0  0  0  0  0  0  0  0  0
   36.5790   32.7680   39.7060 H   0  0  0  0  0  0  0  0  0  0  0  0
   35.2560   30.7580   39.5540 H   0  0  0  0  0  0  0  0  0  0  0  0
   36.1200   28.6440   40.6160 H   0  0  0  0  0  0  0  0  0  0  0  0
   38.9130   33.2040   40.8500 C   0  0  0  0  0  0  0  0  0  0  0  0
   39.3950   33.3850   41.8300 H   0  0  0  0  0  0  0  0  0  0  0  0
   38.1580   34.0100   40.7170 H   0  0  0  0  0  0  0  0  0  0  0  0
   40.9770   32.6720   37.7930 C   0  0  0  0  0  0  0  0  0  0  0  0
   41.8420   33.7670   37.8310 C   0  0  0  0  0  0  0  0  0  0  0  0
   41.7070   34.6630   38.8910 C   0  0  0  0  0  0  0  0  0  0  0  0
   40.7640   34.4380   39.8200 N   0  0  0  0  0  0  0  0  0  0  0  0
   39.9240   33.3640   39.7730 C   0  0  0  0  0  0  0  0  0  0  0  0
   40.0650   32.5070   38.7430 N   0  0  0  0  0  0  0  0  0  0  0  0
   40.9590   31.8980   37.0420 H   0  0  0  0  0  0  0  0  0  0  0  0
   42.5620   33.8340   37.0160 H   0  0  0  0  0  0  0  0  0  0  0  0
   42.3800   35.4960   38.9020 H   0  0  0  0  0  0  0  0  0  0  0  0
   38.3640   28.3840   41.9050 O   0  0  0  0  0  0  0  0  0  0  0  0
   36.6590   26.7150   42.9240 O   0  0  0  0  0  0  0  0  0  0  0  0
   37.7090   27.7350   43.3310 P   0  0  2  0  0  0  0  0  0  0  0  0
   37.0140   28.9850   44.2130 O   0  0  0  0  0  0  0  0  0  0  0  0
   37.7060   29.3260   44.8360 H   0  0  0  0  0  0  0  0  0  0  0  0
   38.8700   26.9320   44.2410 O   0  0  0  0  0  0  0  0  0  0  0  0
   40.1390   26.5880   43.8710 C   0  0  0  0  0  0  0  0  0  0  0  0
   40.1680   25.4340   43.0840 C   0  0  0  0  0  3  0  0  0  0  0  0
   41.3750   24.9290   42.6110 C   0  0  0  0  0  0  0  0  0  0  0  0
   41.4340   24.0280   41.9940 H   0  0  0  0  0  0  0  0  0  0  0  0
   42.4830   25.5960   42.9440 N   0  0  0  0  0  0  0  0  0  0  0  0
   42.4450   26.7030   43.6990 C   0  0  0  0  0  3  0  0  0  0  0  0
   41.2820   27.2000   44.1620 N   0  0  0  0  0  0  0  0  0  0  0  0
  2  1  1  0  0  0  0
  3 11  1  0  0  0  0
  3  2  2  0  0  0  0
  4  3  1  0  0  0  0
  5  4  2  0  0  0  0
  5  6  1  0  0  0  0
  6  7  2  0  0  0  0
  7  2  1  0  0  0  0
  7 23  1  0  0  0  0
  8  4  1  0  0  0  0
  9  5  1  0  0  0  0
 10  6  1  0  0  0  0
 11 12  1  0  0  0  0
 13 11  1  0  0  0  0
 14 15  2  0  0  0  0
 14 19  1  0  0  0  0
 15 16  1  0  0  0  0
 16 22  1  0  0  0  0
 16 17  2  0  0  0  0
 18 17  1  0  0  0  0
 18 11  1  0  0  0  0
 19 18  2  0  0  0  0
 20 14  1  0  0  0  0
 21 15  1  0  0  0  0
 23 25  1  0  0  0  0
 25 24  2  6  0  0  0
 25 26  1  0  0  0  0
 25 28  1  0  0  0  0
 26 27  1  0  0  0  0
 29 35  1  0  0  0  0
 29 28  1  0  0  0  0
 30 29  2  0  0  0  0
 31 33  2  0  0  0  0
 31 30  1  0  0  0  0
 32 31  1  0  0  0  0
 33 34  1  0  0  0  0
 34 35  2  0  0  0  0
M  END
>  <minimizedAffinity>
-5.97855377

$$$$

 OpenBabel03252502573D

 35 37  0  0  0  0  0  0  0  0999 V2000
   39.1970   29.5940   42.8910 Br  0  0  0  0  0  0  0  0  0  0  0  0
   37.6060   29.6090   41.7880 C   0  0  0  0  0  0  0  0  0  0  0  0
   36.8570   28.4740   41.8290 C   0  0  0  0  0  0  0  0  0  0  0  0
   35.7120   28.5140   41.0210 C   0  0  0  0  0  0  0  0  0  0  0  0
   35.3690   29.6020   40.2520 C   0  0  0  0  0  0  0  0  0  0  0  0
   36.1820   30.7100   40.2680 C   0  0  0  0  0  0  0  0  0  0  0  0
   37.3160   30.7290   41.0400 C   0  0  0  0  0  0  0  0  0  0  0  0
   35.0490   27.6530   40.9890 H   0  0  0  0  0  0  0  0  0  0  0  0
   34.4600   29.5660   39.6440 H   0  0  0  0  0  0  0  0  0  0  0  0
   35.9560   31.5910   39.6810 H   0  0  0  0  0  0  0  0  0  0  0  0
   37.0980   27.2510   42.5960 C   0  0  0  0  0  0  0  0  0  0  0  0
   36.1950   26.9410   43.1560 H   0  0  0  0  0  0  0  0  0  0  0  0
   37.8790   27.4720   43.3570 H   0  0  0  0  0  0  0  0  0  0  0  0
   39.0420   25.1400   40.2180 C   0  0  0  0  0  0  0  0  0  0  0  0
   38.3950   23.9080   40.3270 C   0  0  0  0  0  0  0  0  0  0  0  0
   37.3140   23.8180   41.2030 C   0  0  0  0  0  0  0  0  0  0  0  0
   36.9450   24.9060   41.8980 N   0  0  0  0  0  0  0  0  0  0  0  0
   37.5840   26.1050   41.7840 C   0  0  0  0  0  0  0  0  0  0  0  0
   38.6270   26.1780   40.9330 N   0  0  0  0  0  0  0  0  0  0  0  0
   39.8880   25.3650   39.5870 H   0  0  0  0  0  0  0  0  0  0  0  0
   38.7940   23.1040   39.7080 H   0  0  0  0  0  0  0  0  0  0  0  0
   36.8320   22.8640   41.2720 H   0  0  0  0  0  0  0  0  0  0  0  0
   38.1450   31.8540   41.0590 O   0  0  0  0  0  0  0  0  0  0  0  0
   39.4300   33.8610   40.0340 O   0  0  0  0  0  0  0  0  0  0  0  0
   38.2450   32.9480   39.7650 P   0  0  2  0  0  0  0  0  0  0  0  0
   36.8160   33.8300   39.7040 O   0  0  0  0  0  0  0  0  0  0  0  0
   36.2020   33.3540   39.0880 H   0  0  0  0  0  0  0  0  0  0  0  0
   38.5290   32.1650   38.3060 O   0  0  0  0  0  0  0  0  0  0  0  0
   39.6950   31.6080   37.8640 C   0  0  0  0  0  0  0  0  0  0  0  0
   39.7120   30.2200   38.0190 C   0  0  0  0  0  3  0  0  0  0  0  0
   40.8190   29.4750   37.6250 C   0  0  0  0  0  0  0  0  0  0  0  0
   40.8660   28.3880   37.7320 H   0  0  0  0  0  0  0  0  0  0  0  0
   41.8460   30.1490   37.0980 N   0  0  0  0  0  0  0  0  0  0  0  0
   41.8200   31.4810   36.9530 C   0  0  0  0  0  3  0  0  0  0  0  0
   40.7530   32.2100   37.3320 N   0  0  0  0  0  0  0  0  0  0  0  0
  2  3  1  0  0  0  0
  2  1  1  0  0  0  0
  3 11  1  0  0  0  0
  4  3  2  0  0  0  0
  5  6  2  0  0  0  0
  5  4  1  0  0  0  0
  6  7  1  0  0  0  0
  7 23  1  0  0  0  0
  7  2  2  0  0  0  0
  8  4  1  0  0  0  0
  9  5  1  0  0  0  0
 10  6  1  0  0  0  0
 11 12  1  0  0  0  0
 11 13  1  0  0  0  0
 14 15  2  0  0  0  0
 14 19  1  0  0  0  0
 15 16  1  0  0  0  0
 16 22  1  0  0  0  0
 16 17  2  0  0  0  0
 18 17  1  0  0  0  0
 18 11  1  0  0  0  0
 19 18  2  0  0  0  0
 20 14  1  0  0  0  0
 21 15  1  0  0  0  0
 25 24  2  1  0  0  0
 25 23  1  0  0  0  0
 26 25  1  0  0  0  0
 27 26  1  0  0  0  0
 28 25  1  0  0  0  0
 29 30  1  0  0  0  0
 29 28  1  0  0  0  0
 31 32  1  0  0  0  0
 31 30  2  0  0  0  0
 33 31  1  0  0  0  0
 34 33  2  0  0  0  0
 34 35  1  0  0  0  0
 35 29  2  0  0  0  0
M  END
>  <minimizedAffinity>
-5.80609655

$$$$

 OpenBabel03252502573D

 35 37  0  0  0  0  0  0  0  0999 V2000
   40.5260   29.8580   39.6760 Br  0  0  0  0  0  0  0  0  0  0  0  0
   39.1640   31.2340   39.7110 C   0  0  0  0  0  0  0  0  0  0  0  0
   37.8840   30.7850   39.8120 C   0  0  0  0  0  0  0  0  0  0  0  0
   36.9200   31.8020   39.8350 C   0  0  0  0  0  0  0  0  0  0  0  0
   37.2340   33.1390   39.7630 C   0  0  0  0  0  0  0  0  0  0  0  0
   38.5540   33.5080   39.6630 C   0  0  0  0  0  0  0  0  0  0  0  0
   39.5410   32.5570   39.6350 C   0  0  0  0  0  0  0  0  0  0  0  0
   35.8680   31.5410   39.9150 H   0  0  0  0  0  0  0  0  0  0  0  0
   36.4310   33.8820   39.7870 H   0  0  0  0  0  0  0  0  0  0  0  0
   38.8520   34.5480   39.6030 H   0  0  0  0  0  0  0  0  0  0  0  0
   37.4080   29.4030   39.8970 C   0  0  0  0  0  0  0  0  0  0  0  0
   38.0270   28.7240   39.2780 H   0  0  0  0  0  0  0  0  0  0  0  0
   36.3810   29.3670   39.4720 H   0  0  0  0  0  0  0  0  0  0  0  0
   37.8010   28.9750   43.5780 C   0  0  0  0  0  0  0  0  0  0  0  0
   37.1300   27.7710   43.8050 C   0  0  0  0  0  0  0  0  0  0  0  0
   36.5580   27.1300   42.7050 C   0  0  0  0  0  0  0  0  0  0  0  0
   36.6750   27.6900   41.4910 N   0  0  0  0  0  0  0  0  0  0  0  0
   37.3330   28.8660   41.2810 C   0  0  0  0  0  0  0  0  0  0  0  0
   37.8810   29.4740   42.3510 N   0  0  0  0  0  0  0  0  0  0  0  0
   38.2910   29.5830   44.3220 H   0  0  0  0  0  0  0  0  0  0  0  0
   37.1070   27.4260   44.8380 H   0  0  0  0  0  0  0  0  0  0  0  0
   36.0490   26.2090   42.9010 H   0  0  0  0  0  0  0  0  0  0  0  0
   40.8850   32.9270   39.5330 O   0  0  0  0  0  0  0  0  0  0  0  0
   41.8930   34.6940   37.9230 O   0  0  0  0  0  0  0  0  0  0  0  0
   41.6560   33.1980   38.0450 P   0  0  2  0  0  0  0  0  0  0  0  0
   40.6470   32.6530   36.8180 O   0  0  0  0  0  0  0  0  0  0  0  0
   40.8930   31.7110   36.6300 H   0  0  0  0  0  0  0  0  0  0  0  0
   43.1540   32.4410   37.9710 O   0  0  0  0  0  0  0  0  0  0  0  0
   43.6480   31.6510   36.9720 C   0  0  0  0  0  0  0  0  0  0  0  0
   45.0050   31.8820   36.7370 C   0  0  0  0  0  3  0  0  0  0  0  0
   45.6850   31.1700   35.7540 C   0  0  0  0  0  0  0  0  0  0  0  0
   46.7470   31.3250   35.5420 H   0  0  0  0  0  0  0  0  0  0  0  0
   44.9810   30.2700   35.0610 N   0  0  0  0  0  0  0  0  0  0  0  0
   43.6780   30.0560   35.2950 C   0  0  0  0  0  3  0  0  0  0  0  0
   43.0120   30.7400   36.2440 N   0  0  0  0  0  0  0  0  0  0  0  0
  1  2  1  0  0  0  0
  2  3  1  0  0  0  0
  3  4  2  0  0  0  0
  3 11  1  0  0  0  0
  4  8  1  0  0  0  0
  5  9  1  0  0  0  0
  5  4  1  0  0  0  0
  6  5  2  0  0  0  0
  7  6  1  0  0  0  0
  7  2  2  0  0  0  0
 10  6  1  0  0  0  0
 11 18  1  0  0  0  0
 12 11  1  0  0  0  0
 13 11  1  0  0  0  0
 14 15  1  0  0  0  0
 14 20  1  0  0  0  0
 15 21  1  0  0  0  0
 16 22  1  0  0  0  0
 16 15  2  0  0  0  0
 17 16  1  0  0  0  0
 18 17  2  0  0  0  0
 18 19  1  0  0  0  0
 19 14  2  0  0  0  0
 23  7  1  0  0  0  0
 25 24  2  6  0  0  0
 25 23  1  0  0  0  0
 26 25  1  0  0  0  0
 27 26  1  0  0  0  0
 28 25  1  0  0  0  0
 29 28  1  0  0  0  0
 30 29  1  0  0  0  0
 31 30  2  0  0  0  0
 32 31  1  0  0  0  0
 33 34  2  0  0  0  0
 33 31  1  0  0  0  0
 34 35  1  0  0  0  0
 35 29  2  0  0  0  0
M  END
>  <minimizedAffinity>
-5.79248857

$$$$

 OpenBabel03252502573D

 35 37  0  0  0  0  0  0  0  0999 V2000
   39.6220   27.9030   40.0930 Br  0  0  0  0  0  0  0  0  0  0  0  0
   38.4670   27.8290   41.6440 C   0  0  0  0  0  0  0  0  0  0  0  0
   38.5040   28.9220   42.4530 C   0  0  0  0  0  0  0  0  0  0  0  0
   37.6580   28.8410   43.5670 C   0  0  0  0  0  0  0  0  0  0  0  0
   36.8580   27.7530   43.8270 C   0  0  0  0  0  0  0  0  0  0  0  0
   36.8800   26.6880   42.9590 C   0  0  0  0  0  0  0  0  0  0  0  0
   37.6880   26.7110   41.8510 C   0  0  0  0  0  0  0  0  0  0  0  0
   37.6190   29.6680   44.2710 H   0  0  0  0  0  0  0  0  0  0  0  0
   36.2210   27.7550   44.7170 H   0  0  0  0  0  0  0  0  0  0  0  0
   36.2690   25.8080   43.1200 H   0  0  0  0  0  0  0  0  0  0  0  0
   39.3010   30.1410   42.2990 C   0  0  0  0  0  0  0  0  0  0  0  0
   40.3140   29.9150   41.9100 H   0  0  0  0  0  0  0  0  0  0  0  0
   39.4440   30.5870   43.3070 H   0  0  0  0  0  0  0  0  0  0  0  0
   36.9350   31.9710   40.0770 C   0  0  0  0  0  0  0  0  0  0  0  0
   37.6050   33.1790   39.8680 C   0  0  0  0  0  0  0  0  0  0  0  0
   38.8440   33.3470   40.4850 C   0  0  0  0  0  0  0  0  0  0  0  0
   39.3350   32.3540   41.2440 N   0  0  0  0  0  0  0  0  0  0  0  0
   38.6720   31.1790   41.4410 C   0  0  0  0  0  0  0  0  0  0  0  0
   37.4760   31.0300   40.8390 N   0  0  0  0  0  0  0  0  0  0  0  0
   35.9740   31.6950   39.6700 H   0  0  0  0  0  0  0  0  0  0  0  0
   37.0970   33.9020   39.2320 H   0  0  0  0  0  0  0  0  0  0  0  0
   39.3420   34.2790   40.3120 H   0  0  0  0  0  0  0  0  0  0  0  0
   37.7140   25.6300   40.9660 O   0  0  0  0  0  0  0  0  0  0  0  0
   39.6670   24.2010   40.0300 O   0  0  0  0  0  0  0  0  0  0  0  0
   38.7010   24.2690   41.2010 P   0  0  2  0  0  0  0  0  0  0  0  0
   37.7210   22.9040   41.2440 O   0  0  0  0  0  0  0  0  0  0  0  0
   37.4860   22.7400   42.1930 H   0  0  0  0  0  0  0  0  0  0  0  0
   39.6150   24.3950   42.6050 O   0  0  0  0  0  0  0  0  0  0  0  0
   40.7210   25.1680   42.8220 C   0  0  0  0  0  0  0  0  0  0  0  0
   40.5390   26.0700   43.8730 C   0  0  0  0  0  3  0  0  0  0  0  0
   41.5580   26.9420   44.2420 C   0  0  0  0  0  0  0  0  0  0  0  0
   41.4510   27.6610   45.0590 H   0  0  0  0  0  0  0  0  0  0  0  0
   42.6990   26.8700   43.5490 N   0  0  0  0  0  0  0  0  0  0  0  0
   42.8630   26.0000   42.5420 C   0  0  0  0  0  3  0  0  0  0  0  0
   41.8830   25.1530   42.1780 N   0  0  0  0  0  0  0  0  0  0  0  0
  1  2  1  0  0  0  0
  2  7  2  0  0  0  0
  2  3  1  0  0  0  0
  3  4  2  0  0  0  0
  4  5  1  0  0  0  0
  4  8  1  0  0  0  0
  5  9  1  0  0  0  0
  6 10  1  0  0  0  0
  6  5  2  0  0  0  0
  7  6  1  0  0  0  0
 11  3  1  0  0  0  0
 11 13  1  0  0  0  0
 12 11  1  0  0  0  0
 14 19  1  0  0  0  0
 15 14  2  0  0  0  0
 15 16  1  0  0  0  0
 16 17  2  0  0  0  0
 17 18  1  0  0  0  0
 18 11  1  0  0  0  0
 19 18  2  0  0  0  0
 20 14  1  0  0  0  0
 21 15  1  0  0  0  0
 22 16  1  0  0  0  0
 23 25  1  0  0  0  0
 23  7  1  0  0  0  0
 25 24  2  6  0  0  0
 25 26  1  0  0  0  0
 25 28  1  0  0  0  0
 26 27  1  0  0  0  0
 28 29  1  0  0  0  0
 29 30  1  0  0  0  0
 30 31  2  0  0  0  0
 31 32  1  0  0  0  0
 33 31  1  0  0  0  0
 34 33  2  0  0  0  0
 35 34  1  0  0  0  0
 35 29  2  0  0  0  0
M  END
>  <minimizedAffinity>
-5.76999426

$$$$

 OpenBabel03252502573D

 35 37  0  0  0  0  0  0  0  0999 V2000
   39.7420   30.5390   38.1450 Br  0  0  0  0  0  0  0  0  0  0  0  0
   39.1490   32.1880   38.9680 C   0  0  0  0  0  0  0  0  0  0  0  0
   40.1340   33.0780   39.2690 C   0  0  0  0  0  0  0  0  0  0  0  0
   39.6750   34.2610   39.8630 C   0  0  0  0  0  0  0  0  0  0  0  0
   38.3470   34.5090   40.1230 C   0  0  0  0  0  0  0  0  0  0  0  0
   37.4150   33.5560   39.7870 C   0  0  0  0  0  0  0  0  0  0  0  0
   37.8050   32.3780   39.2030 C   0  0  0  0  0  0  0  0  0  0  0  0
   40.3890   35.0330   40.1390 H   0  0  0  0  0  0  0  0  0  0  0  0
   38.0580   35.4550   40.5900 H   0  0  0  0  0  0  0  0  0  0  0  0
   36.3580   33.7030   39.9710 H   0  0  0  0  0  0  0  0  0  0  0  0
   41.5750   32.9480   39.0500 C   0  0  0  0  0  0  0  0  0  0  0  0
   41.9290   33.6460   38.2670 H   0  0  0  0  0  0  0  0  0  0  0  0
   41.7740   31.9210   38.6690 H   0  0  0  0  0  0  0  0  0  0  0  0
   43.0990   32.4930   42.4200 C   0  0  0  0  0  0  0  0  0  0  0  0
   43.9780   33.5760   42.4920 C   0  0  0  0  0  0  0  0  0  0  0  0
   44.0350   34.4370   41.3970 C   0  0  0  0  0  0  0  0  0  0  0  0
   43.2540   34.1930   40.3330 N   0  0  0  0  0  0  0  0  0  0  0  0
   42.3990   33.1310   40.2740 C   0  0  0  0  0  0  0  0  0  0  0  0
   42.3540   32.3070   41.3390 N   0  0  0  0  0  0  0  0  0  0  0  0
   42.9440   31.7450   43.1820 H   0  0  0  0  0  0  0  0  0  0  0  0
   44.5560   33.6610   43.4120 H   0  0  0  0  0  0  0  0  0  0  0  0
   44.7150   35.2610   41.4720 H   0  0  0  0  0  0  0  0  0  0  0  0
   36.8610   31.4060   38.8610 O   0  0  0  0  0  0  0  0  0  0  0  0
   35.1860   29.4670   39.2680 O   0  0  0  0  0  0  0  0  0  0  0  0
   36.2960   30.2420   39.9590 P   0  0  2  0  0  0  0  0  0  0  0  0
   35.7080   31.0360   41.3190 O   0  0  0  0  0  0  0  0  0  0  0  0
   36.4550   31.1010   41.9670 H   0  0  0  0  0  0  0  0  0  0  0  0
   37.4960   29.1440   40.3780 O   0  0  0  0  0  0  0  0  0  0  0  0
   37.7280   28.5770   41.5990 C   0  0  0  0  0  0  0  0  0  0  0  0
   39.0160   28.0460   41.7000 C   0  0  0  0  0  3  0  0  0  0  0  0
   39.4360   27.4260   42.8730 C   0  0  0  0  0  0  0  0  0  0  0  0
   40.4360   26.9980   42.9870 H   0  0  0  0  0  0  0  0  0  0  0  0
   38.5560   27.3690   43.8770 N   0  0  0  0  0  0  0  0  0  0  0  0
   37.3230   27.8830   43.7700 C   0  0  0  0  0  3  0  0  0  0  0  0
   36.9070   28.4840   42.6390 N   0  0  0  0  0  0  0  0  0  0  0  0
  1  2  1  0  0  0  0
  2  7  2  0  0  0  0
  2  3  1  0  0  0  0
  3  4  2  0  0  0  0
  4  5  1  0  0  0  0
  4  8  1  0  0  0  0
  5  9  1  0  0  0  0
  6 10  1  0  0  0  0
  6  5  2  0  0  0  0
  7  6  1  0  0  0  0
 11  3  1  0  0  0  0
 11 18  1  0  0  0  0
 12 11  1  0  0  0  0
 13 11  1  0  0  0  0
 14 15  1  0  0  0  0
 14 20  1  0  0  0  0
 15 21  1  0  0  0  0
 16 22  1  0  0  0  0
 16 15  2  0  0  0  0
 17 16  1  0  0  0  0
 18 17  2  0  0  0  0
 18 19  1  0  0  0  0
 19 14  2  0  0  0  0
 23  7  1  0  0  0  0
 23 25  1  0  0  0  0
 25 24  2  6  0  0  0
 25 28  1  0  0  0  0
 25 26  1  0  0  0  0
 26 27  1  0  0  0  0
 28 29  1  0  0  0  0
 29 30  2  0  0  0  0
 29 35  1  0  0  0  0
 30 31  1  0  0  0  0
 31 32  1  0  0  0  0
 31 33  2  0  0  0  0
 34 33  1  0  0  0  0
 35 34  2  0  0  0  0
M  END
>  <minimizedAffinity>
-5.72058296

$$$$

 OpenBabel03252502573D

 35 37  0  0  0  0  0  0  0  0999 V2000
   41.7310   29.0090   42.6610 Br  0  0  0  0  0  0  0  0  0  0  0  0
   39.8400   28.6860   42.9170 C   0  0  0  0  0  0  0  0  0  0  0  0
   39.0170   29.7040   42.5450 C   0  0  0  0  0  0  0  0  0  0  0  0
   37.6550   29.4410   42.7420 C   0  0  0  0  0  0  0  0  0  0  0  0
   37.1830   28.2600   43.2640 C   0  0  0  0  0  0  0  0  0  0  0  0
   38.0820   27.2810   43.6150 C   0  0  0  0  0  0  0  0  0  0  0  0
   39.4280   27.4820   43.4460 C   0  0  0  0  0  0  0  0  0  0  0  0
   36.9200   30.1960   42.4730 H   0  0  0  0  0  0  0  0  0  0  0  0
   36.1050   28.1210   43.3910 H   0  0  0  0  0  0  0  0  0  0  0  0
   37.7600   26.3340   44.0310 H   0  0  0  0  0  0  0  0  0  0  0  0
   39.3790   31.0050   41.9790 C   0  0  0  0  0  0  0  0  0  0  0  0
   40.4740   31.0920   41.8360 H   0  0  0  0  0  0  0  0  0  0  0  0
   39.0940   31.7900   42.7140 H   0  0  0  0  0  0  0  0  0  0  0  0
   37.1930   32.5860   39.4090 C   0  0  0  0  0  0  0  0  0  0  0  0
   37.4860   31.8300   38.2710 C   0  0  0  0  0  0  0  0  0  0  0  0
   38.4180   30.8010   38.4000 C   0  0  0  0  0  0  0  0  0  0  0  0
   38.9880   30.5820   39.5950 N   0  0  0  0  0  0  0  0  0  0  0  0
   38.6940   31.3270   40.7000 C   0  0  0  0  0  0  0  0  0  0  0  0
   37.7910   32.3170   40.5620 N   0  0  0  0  0  0  0  0  0  0  0  0
   36.4980   33.4090   39.4670 H   0  0  0  0  0  0  0  0  0  0  0  0
   36.9540   32.1110   37.3620 H   0  0  0  0  0  0  0  0  0  0  0  0
   38.6290   30.2340   37.5160 H   0  0  0  0  0  0  0  0  0  0  0  0
   40.3460   26.4900   43.8010 O   0  0  0  0  0  0  0  0  0  0  0  0
   39.7190   24.0140   43.3430 O   0  0  0  0  0  0  0  0  0  0  0  0
   40.6370   25.1180   42.8450 P   0  0  2  0  0  0  0  0  0  0  0  0
   42.2490   24.6780   43.0240 O   0  0  0  0  0  0  0  0  0  0  0  0
   42.7600   25.1310   42.3060 H   0  0  0  0  0  0  0  0  0  0  0  0
   40.2670   25.3930   41.2290 O   0  0  0  0  0  0  0  0  0  0  0  0
   39.0360   25.5850   40.6690 C   0  0  0  0  0  0  0  0  0  0  0  0
   38.9690   26.7680   39.9290 C   0  0  0  0  0  3  0  0  0  0  0  0
   37.7920   27.1340   39.2840 C   0  0  0  0  0  0  0  0  0  0  0  0
   37.7050   28.0520   38.6970 H   0  0  0  0  0  0  0  0  0  0  0  0
   36.7500   26.3070   39.4080 N   0  0  0  0  0  0  0  0  0  0  0  0
   36.8250   25.1730   40.1200 C   0  0  0  0  0  3  0  0  0  0  0  0
   37.9590   24.8110   40.7490 N   0  0  0  0  0  0  0  0  0  0  0  0
  1  2  1  0  0  0  0
  2  7  1  0  0  0  0
  3  4  1  0  0  0  0
  3  2  2  0  0  0  0
  4  5  2  0  0  0  0
  5  9  1  0  0  0  0
  5  6  1  0  0  0  0
  6 10  1  0  0  0  0
  7  6  2  0  0  0  0
  7 23  1  0  0  0  0
  8  4  1  0  0  0  0
 11  3  1  0  0  0  0
 11 13  1  0  0  0  0
 12 11  1  0  0  0  0
 14 20  1  0  0  0  0
 14 19  1  0  0  0  0
 15 16  1  0  0  0  0
 15 14  2  0  0  0  0
 16 17  2  0  0  0  0
 17 18  1  0  0  0  0
 18 11  1  0  0  0  0
 19 18  2  0  0  0  0
 21 15  1  0  0  0  0
 22 16  1  0  0  0  0
 25 26  1  0  0  0  0
 25 24  2  1  0  0  0
 25 23  1  0  0  0  0
 27 26  1  0  0  0  0
 28 25  1  0  0  0  0
 29 35  1  0  0  0  0
 29 28  1  0  0  0  0
 30 29  2  0  0  0  0
 31 33  2  0  0  0  0
 31 30  1  0  0  0  0
 32 31  1  0  0  0  0
 33 34  1  0  0  0  0
 34 35  2  0  0  0  0
M  END
>  <minimizedAffinity>
-5.6353035

$$$$

 OpenBabel03252502573D

 35 37  0  0  0  0  0  0  0  0999 V2000
   40.3930   30.5600   42.3760 Br  0  0  0  0  0  0  0  0  0  0  0  0
   39.1500   31.5190   41.2440 C   0  0  0  0  0  0  0  0  0  0  0  0
   39.6830   32.5490   40.5330 C   0  0  0  0  0  0  0  0  0  0  0  0
   38.7600   33.2240   39.7220 C   0  0  0  0  0  0  0  0  0  0  0  0
   37.4300   32.8820   39.6480 C   0  0  0  0  0  0  0  0  0  0  0  0
   36.9720   31.8270   40.4010 C   0  0  0  0  0  0  0  0  0  0  0  0
   37.8290   31.1280   41.2120 C   0  0  0  0  0  0  0  0  0  0  0  0
   39.0940   34.0620   39.1150 H   0  0  0  0  0  0  0  0  0  0  0  0
   36.7640   33.4530   38.9940 H   0  0  0  0  0  0  0  0  0  0  0  0
   35.9340   31.5190   40.3770 H   0  0  0  0  0  0  0  0  0  0  0  0
   41.0690   33.0200   40.5140 C   0  0  0  0  0  0  0  0  0  0  0  0
   41.6120   32.7140   41.4290 H   0  0  0  0  0  0  0  0  0  0  0  0
   41.0530   34.1330   40.5160 H   0  0  0  0  0  0  0  0  0  0  0  0
   42.4000   31.0350   37.6550 C   0  0  0  0  0  0  0  0  0  0  0  0
   43.3450   31.9050   37.1100 C   0  0  0  0  0  0  0  0  0  0  0  0
   43.5120   33.1470   37.7230 C   0  0  0  0  0  0  0  0  0  0  0  0
   42.7660   33.4500   38.7970 N   0  0  0  0  0  0  0  0  0  0  0  0
   41.8450   32.5910   39.3210 C   0  0  0  0  0  0  0  0  0  0  0  0
   41.6940   31.3950   38.7190 N   0  0  0  0  0  0  0  0  0  0  0  0
   42.1590   30.0470   37.2950 H   0  0  0  0  0  0  0  0  0  0  0  0
   43.8840   31.5390   36.2370 H   0  0  0  0  0  0  0  0  0  0  0  0
   44.2420   33.8000   37.2890 H   0  0  0  0  0  0  0  0  0  0  0  0
   37.3670   30.0550   41.9790 O   0  0  0  0  0  0  0  0  0  0  0  0
   37.3360   28.3390   40.0340 O   0  0  0  0  0  0  0  0  0  0  0  0
   36.5870   28.7070   41.3040 P   0  0  2  0  0  0  0  0  0  0  0  0
   34.9990   29.1330   40.9560 O   0  0  0  0  0  0  0  0  0  0  0  0
   34.4500   28.8950   41.7460 H   0  0  0  0  0  0  0  0  0  0  0  0
   36.6410   27.3770   42.3270 O   0  0  0  0  0  0  0  0  0  0  0  0
   37.7200   26.5990   42.6400 C   0  0  0  0  0  0  0  0  0  0  0  0
   38.6060   27.2440   43.5050 C   0  0  0  0  0  3  0  0  0  0  0  0
   39.7660   26.6080   43.9360 C   0  0  0  0  0  0  0  0  0  0  0  0
   40.4820   27.0840   44.6120 H   0  0  0  0  0  0  0  0  0  0  0  0
   39.9800   25.3690   43.4840 N   0  0  0  0  0  0  0  0  0  0  0  0
   39.1230   24.7580   42.6540 C   0  0  0  0  0  3  0  0  0  0  0  0
   37.9980   25.3650   42.2320 N   0  0  0  0  0  0  0  0  0  0  0  0
  2  1  1  0  0  0  0
  3  2  2  0  0  0  0
  4  3  1  0  0  0  0
  5  4  2  0  0  0  0
  5  6  1  0  0  0  0
  6  7  2  0  0  0  0
  7  2  1  0  0  0  0
  7 23  1  0  0  0  0
  8  4  1  0  0  0  0
  9  5  1  0  0  0  0
 10  6  1  0  0  0  0
 11 13  1  0  0  0  0
 11  3  1  0  0  0  0
 11 12  1  0  0  0  0
 14 19  1  0  0  0  0
 15 14  2  0  0  0  0
 15 16  1  0  0  0  0
 16 17  2  0  0  0  0
 17 18  1  0  0  0  0
 18 11  1  0  0  0  0
 19 18  2  0  0  0  0
 20 14  1  0  0  0  0
 21 15  1  0  0  0  0
 22 16  1  0  0  0  0
 25 24  2  6  0  0  0
 25 23  1  0  0  0  0
 25 28  1  0  0  0  0
 26 25  1  0  0  0  0
 26 27  1  0  0  0  0
 28 29  1  0  0  0  0
 29 30  1  0  0  0  0
 30 31  2  0  0  0  0
 31 32  1  0  0  0  0
 33 31  1  0  0  0  0
 34 33  2  0  0  0  0
 35 29  2  0  0  0  0
 35 34  1  0  0  0  0
M  END
>  <minimizedAffinity>
-5.54331493

$$$$

 OpenBabel03252502573D

 35 37  0  0  0  0  0  0  0  0999 V2000
   35.8130   28.8080   40.8420 Br  0  0  0  0  0  0  0  0  0  0  0  0
   37.4040   29.7890   41.3470 C   0  0  0  0  0  0  0  0  0  0  0  0
   37.9810   29.4020   42.5170 C   0  0  0  0  0  0  0  0  0  0  0  0
   39.1300   30.1290   42.8570 C   0  0  0  0  0  0  0  0  0  0  0  0
   39.6360   31.1450   42.0810 C   0  0  0  0  0  0  0  0  0  0  0  0
   38.9910   31.4740   40.9120 C   0  0  0  0  0  0  0  0  0  0  0  0
   37.8620   30.7970   40.5280 C   0  0  0  0  0  0  0  0  0  0  0  0
   39.6620   29.8910   43.7750 H   0  0  0  0  0  0  0  0  0  0  0  0
   40.5380   31.6720   42.4060 H   0  0  0  0  0  0  0  0  0  0  0  0
   39.3500   32.2660   40.2670 H   0  0  0  0  0  0  0  0  0  0  0  0
   37.5550   28.3450   43.4360 C   0  0  0  0  0  0  0  0  0  0  0  0
   36.4690   28.1470   43.3480 H   0  0  0  0  0  0  0  0  0  0  0  0
   37.7260   28.7030   44.4750 H   0  0  0  0  0  0  0  0  0  0  0  0
   40.1030   25.6440   43.7500 C   0  0  0  0  0  0  0  0  0  0  0  0
   39.5810   24.6520   42.9180 C   0  0  0  0  0  0  0  0  0  0  0  0
   38.3770   24.9190   42.2680 C   0  0  0  0  0  0  0  0  0  0  0  0
   37.7770   26.1030   42.4670 N   0  0  0  0  0  0  0  0  0  0  0  0
   38.2960   27.0650   43.2820 C   0  0  0  0  0  0  0  0  0  0  0  0
   39.4600   26.7940   43.9040 N   0  0  0  0  0  0  0  0  0  0  0  0
   41.0200   25.5850   44.3170 H   0  0  0  0  0  0  0  0  0  0  0  0
   40.1660   23.7350   42.8440 H   0  0  0  0  0  0  0  0  0  0  0  0
   37.9930   24.1450   41.6340 H   0  0  0  0  0  0  0  0  0  0  0  0
   37.2030   31.1280   39.3410 O   0  0  0  0  0  0  0  0  0  0  0  0
   38.9970   29.8250   37.9940 O   0  0  0  0  0  0  0  0  0  0  0  0
   37.8520   30.8060   37.8060 P   0  0  2  0  0  0  0  0  0  0  0  0
   38.4070   32.2500   37.1510 O   0  0  0  0  0  0  0  0  0  0  0  0
   37.6670   32.6360   36.6170 H   0  0  0  0  0  0  0  0  0  0  0  0
   36.7260   30.0820   36.7910 O   0  0  0  0  0  0  0  0  0  0  0  0
   36.0360   28.9200   36.9940 C   0  0  0  0  0  0  0  0  0  0  0  0
   34.6680   29.1380   37.1660 C   0  0  0  0  0  3  0  0  0  0  0  0
   33.8010   28.0720   37.3850 C   0  0  0  0  0  0  0  0  0  0  0  0
   32.7250   28.2060   37.5250 H   0  0  0  0  0  0  0  0  0  0  0  0
   34.3420   26.8500   37.4190 N   0  0  0  0  0  0  0  0  0  0  0  0
   35.6570   26.6510   37.2510 C   0  0  0  0  0  3  0  0  0  0  0  0
   36.5020   27.6760   37.0390 N   0  0  0  0  0  0  0  0  0  0  0  0
  1  2  1  0  0  0  0
  2  3  1  0  0  0  0
  3  4  2  0  0  0  0
  3 11  1  0  0  0  0
  4  8  1  0  0  0  0
  5  9  1  0  0  0  0
  5  4  1  0  0  0  0
  6  5  2  0  0  0  0
  7  6  1  0  0  0  0
  7  2  2  0  0  0  0
 10  6  1  0  0  0  0
 11 13  1  0  0  0  0
 12 11  1  0  0  0  0
 14 19  1  0  0  0  0
 14 20  1  0  0  0  0
 15 14  2  0  0  0  0
 16 17  2  0  0  0  0
 16 15  1  0  0  0  0
 17 18  1  0  0  0  0
 18 11  1  0  0  0  0
 18 19  2  0  0  0  0
 21 15  1  0  0  0  0
 22 16  1  0  0  0  0
 23  7  1  0  0  0  0
 25 24  2  1  0  0  0
 25 23  1  0  0  0  0
 26 25  1  0  0  0  0
 27 26  1  0  0  0  0
 28 29  1  0  0  0  0
 28 25  1  0  0  0  0
 29 35  2  0  0  0  0
 29 30  1  0  0  0  0
 30 31  2  0  0  0  0
 31 33  1  0  0  0  0
 31 32  1  0  0  0  0
 34 33  2  0  0  0  0
 35 34  1  0  0  0  0
M  END
>  <minimizedAffinity>
-5.52864361

$$$$

 OpenBabel03252502573D

 35 37  0  0  0  0  0  0  0  0999 V2000
   39.3770   29.8010   42.7870 Br  0  0  0  0  0  0  0  0  0  0  0  0
   37.6900   29.5510   41.8710 C   0  0  0  0  0  0  0  0  0  0  0  0
   37.0810   28.3530   42.0850 C   0  0  0  0  0  0  0  0  0  0  0  0
   35.8620   28.2010   41.4110 C   0  0  0  0  0  0  0  0  0  0  0  0
   35.3230   29.1730   40.6010 C   0  0  0  0  0  0  0  0  0  0  0  0
   36.0030   30.3560   40.4380 C   0  0  0  0  0  0  0  0  0  0  0  0
   37.2010   30.5620   41.0730 C   0  0  0  0  0  0  0  0  0  0  0  0
   35.3010   27.2770   41.5210 H   0  0  0  0  0  0  0  0  0  0  0  0
   34.3660   28.9880   40.1030 H   0  0  0  0  0  0  0  0  0  0  0  0
   35.6200   31.1520   39.8110 H   0  0  0  0  0  0  0  0  0  0  0  0
   37.5370   27.2370   42.9150 C   0  0  0  0  0  0  0  0  0  0  0  0
   36.7740   26.9560   43.6680 H   0  0  0  0  0  0  0  0  0  0  0  0
   38.4310   27.5740   43.4850 H   0  0  0  0  0  0  0  0  0  0  0  0
   37.6200   23.7990   41.4800 C   0  0  0  0  0  0  0  0  0  0  0  0
   38.7650   23.8430   40.6820 C   0  0  0  0  0  0  0  0  0  0  0  0
   39.4850   25.0370   40.6470 C   0  0  0  0  0  0  0  0  0  0  0  0
   39.0520   26.0810   41.3720 N   0  0  0  0  0  0  0  0  0  0  0  0
   37.9320   26.0260   42.1490 C   0  0  0  0  0  0  0  0  0  0  0  0
   37.2470   24.8660   42.1730 N   0  0  0  0  0  0  0  0  0  0  0  0
   36.9640   22.9520   41.6090 H   0  0  0  0  0  0  0  0  0  0  0  0
   39.0060   22.9270   40.1430 H   0  0  0  0  0  0  0  0  0  0  0  0
   40.3590   25.0500   40.0290 H   0  0  0  0  0  0  0  0  0  0  0  0
   37.8960   31.7630   40.9100 O   0  0  0  0  0  0  0  0  0  0  0  0
   37.1920   33.0600   38.7760 O   0  0  0  0  0  0  0  0  0  0  0  0
   38.3840   32.3480   39.3930 P   0  0  2  0  0  0  0  0  0  0  0  0
   38.8510   31.0400   38.4460 O   0  0  0  0  0  0  0  0  0  0  0  0
   39.8270   30.9180   38.5720 H   0  0  0  0  0  0  0  0  0  0  0  0
   39.6300   33.4660   39.5260 O   0  0  0  0  0  0  0  0  0  0  0  0
   40.8500   33.4440   38.9110 C   0  0  0  0  0  0  0  0  0  0  0  0
   41.8620   33.9630   39.7210 C   0  0  0  0  0  3  0  0  0  0  0  0
   43.1750   34.0230   39.2640 C   0  0  0  0  0  0  0  0  0  0  0  0
   43.9910   34.4230   39.8710 H   0  0  0  0  0  0  0  0  0  0  0  0
   43.4090   33.5630   38.0320 N   0  0  0  0  0  0  0  0  0  0  0  0
   42.4300   33.0660   37.2620 C   0  0  0  0  0  3  0  0  0  0  0  0
   41.1570   33.0050   37.6950 N   0  0  0  0  0  0  0  0  0  0  0  0
  2  3  1  0  0  0  0
  2  1  1  0  0  0  0
  3 11  1  0  0  0  0
  4  8  1  0  0  0  0
  4  3  2  0  0  0  0
  5  4  1  0  0  0  0
  6  5  2  0  0  0  0
  6  7  1  0  0  0  0
  7  2  2  0  0  0  0
  9  5  1  0  0  0  0
 10  6  1  0  0  0  0
 11 13  1  0  0  0  0
 11 12  1  0  0  0  0
 14 20  1  0  0  0  0
 14 19  1  0  0  0  0
 15 14  2  0  0  0  0
 16 15  1  0  0  0  0
 16 17  2  0  0  0  0
 17 18  1  0  0  0  0
 18 19  2  0  0  0  0
 18 11  1  0  0  0  0
 21 15  1  0  0  0  0
 22 16  1  0  0  0  0
 23  7  1  0  0  0  0
 25 24  2  6  0  0  0
 25 28  1  0  0  0  0
 25 23  1  0  0  0  0
 26 27  1  0  0  0  0
 26 25  1  0  0  0  0
 29 28  1  0  0  0  0
 29 30  1  0  0  0  0
 31 30  2  0  0  0  0
 31 32  1  0  0  0  0
 33 31  1  0  0  0  0
 34 35  1  0  0  0  0
 34 33  2  0  0  0  0
 35 29  2  0  0  0  0
M  END
>  <minimizedAffinity>
-5.45331287

$$$$
