
 OpenBabel03252504463D

 25 26  0  0  0  0  0  0  0  0999 V2000
   45.9530   32.5040   47.7200 O   0  0  0  0  0  0  0  0  0  0  0  0
   45.3450   34.5890   44.8400 C   0  0  0  0  0  0  0  0  0  0  0  0
   46.2610   34.0580   43.9240 C   0  0  0  0  0  0  0  0  0  0  0  0
   47.0600   32.9910   44.3450 C   0  0  0  0  0  0  0  0  0  0  0  0
   46.8990   32.5410   45.5980 N   0  0  0  0  0  0  0  0  0  0  0  0
   45.9940   33.0870   46.4600 C   0  0  0  0  0  0  0  0  0  0  0  0
   45.2140   34.1220   46.0640 N   0  0  0  0  0  0  0  0  0  0  0  0
   46.3250   34.4840   42.9320 H   0  0  0  0  0  0  0  0  0  0  0  0
   47.7720   32.5710   43.6500 H   0  0  0  0  0  0  0  0  0  0  0  0
   44.4960   35.7380   44.3640 C   0  0  0  0  0  0  0  0  0  0  0  0
   44.5400   35.8440   43.2720 H   0  0  0  0  0  0  0  0  0  0  0  0
   44.8900   36.6690   44.8150 H   0  0  0  0  0  0  0  0  0  0  0  0
   43.4360   35.5850   44.6380 H   0  0  0  0  0  0  0  0  0  0  0  0
   45.0800   30.8270   49.4750 O   0  0  0  0  0  0  0  0  0  0  0  0
   45.5940   30.8830   48.0390 P   0  0  1  0  0  0  0  0  0  0  0  0
   44.3440   30.2700   47.0740 O   0  0  0  0  0  0  0  0  0  0  0  0
   44.6340   29.5210   46.5090 H   0  0  0  0  0  0  0  0  0  0  0  0
   46.9470   29.9140   47.8070 O   0  0  0  0  0  0  0  0  0  0  0  0
   48.1780   30.3040   48.3190 C   0  0  0  0  0  0  0  0  0  0  0  0
   48.4870   31.3560   49.1560 C   0  0  0  0  0  0  0  0  0  0  0  0
   49.7900   31.5650   49.5450 C   0  0  0  0  0  0  0  0  0  0  0  0
   49.9810   32.4030   50.2040 H   0  0  0  0  0  0  0  0  0  0  0  0
   50.7410   30.7220   49.0900 N   0  0  0  0  0  0  0  0  0  0  0  0
   50.4770   29.6870   48.2730 C   0  0  0  0  0  0  0  0  0  0  0  0
   49.2060   29.5040   47.9080 N   0  0  0  0  0  0  0  0  0  0  0  0
  1 15  1  0  0  0  0
  2  7  1  0  0  0  0
  3  4  1  0  0  0  0
  3  2  2  0  0  0  0
  4  5  2  0  0  0  0
  5  6  1  0  0  0  0
  6  1  1  0  0  0  0
  7  6  2  0  0  0  0
  8  3  1  0  0  0  0
  9  4  1  0  0  0  0
 10 13  1  0  0  0  0
 10 12  1  0  0  0  0
 10  2  1  0  0  0  0
 11 10  1  0  0  0  0
 15 14  2  1  0  0  0
 16 15  1  0  0  0  0
 17 16  1  0  0  0  0
 18 15  1  0  0  0  0
 18 19  1  0  0  0  0
 19 20  1  0  0  0  0
 20 21  2  0  0  0  0
 21 22  1  0  0  0  0
 23 21  1  0  0  0  0
 24 23  2  0  0  0  0
 25 24  1  0  0  0  0
 25 19  2  0  0  0  0
M  END
>  <minimizedAffinity>
-4.8379364

>  <minimizedRMSD>
1.38232231

$$$$
