
 OpenBabel03252509313D

 25 26  0  0  0  0  0  0  0  0999 V2000
   48.2860   33.3390   43.5100 O   0  0  0  0  0  0  0  0  0  0  0  0
   46.9510   33.2750   43.1000 C   0  0  0  0  0  0  0  0  0  0  0  0
   46.7920   33.6030   42.0570 H   0  0  0  0  0  0  0  0  0  0  0  0
   46.5830   32.2080   43.1270 H   0  0  0  0  0  0  0  0  0  0  0  0
   45.0350   34.3300   46.1350 C   0  0  0  0  0  0  0  0  0  0  0  0
   45.8680   33.5790   45.2920 C   0  0  0  0  0  0  0  0  0  0  0  0
   46.0840   34.0400   44.0030 C   0  0  0  0  0  0  0  0  0  0  0  0
   45.4780   35.1990   43.6170 N   0  0  0  0  0  0  0  0  0  0  0  0
   44.6720   35.9100   44.4570 C   0  0  0  0  0  0  0  0  0  0  0  0
   44.4630   35.4650   45.7020 N   0  0  0  0  0  0  0  0  0  0  0  0
   44.9070   33.9090   47.1400 H   0  0  0  0  0  0  0  0  0  0  0  0
   46.3250   32.6560   45.6620 H   0  0  0  0  0  0  0  0  0  0  0  0
   44.1910   36.8240   44.1610 H   0  0  0  0  0  0  0  0  0  0  0  0
   49.8390   33.0790   41.4220 O   0  0  0  0  0  0  0  0  0  0  0  0
   49.1330   34.1080   42.2740 P   0  0  2  0  0  0  0  0  0  0  0  0
   50.2060   35.1990   42.9740 O   0  0  0  0  0  0  0  0  0  0  0  0
   51.0820   35.1220   42.5510 H   0  0  0  0  0  0  0  0  0  0  0  0
   48.0240   34.9010   41.2900 O   0  0  0  0  0  0  0  0  0  0  0  0
   47.8570   34.4860   39.9770 C   0  0  0  0  0  0  0  0  0  0  0  0
   46.8230   33.5750   39.7400 C   0  0  0  0  0  3  0  0  0  0  0  0
   46.5800   33.1020   38.4570 C   0  0  0  0  0  0  0  0  0  0  0  0
   45.7720   32.3850   38.2480 H   0  0  0  0  0  0  0  0  0  0  0  0
   47.3790   33.5570   37.4660 N   0  0  0  0  0  0  0  0  0  0  0  0
   48.3630   34.4320   37.7290 C   0  0  0  0  0  3  0  0  0  0  0  0
   48.6070   34.8930   38.9470 N   0  0  0  0  0  0  0  0  0  0  0  0
  2  4  1  0  0  0  0
  2  1  1  0  0  0  0
  2  7  1  0  0  0  0
  3  2  1  0  0  0  0
  5 11  1  0  0  0  0
  6 12  1  0  0  0  0
  6  5  2  0  0  0  0
  7  6  1  0  0  0  0
  8  7  2  0  0  0  0
  8  9  1  0  0  0  0
  9 10  2  0  0  0  0
 10  5  1  0  0  0  0
 13  9  1  0  0  0  0
 15 14  2  6  0  0  0
 15 16  1  0  0  0  0
 15  1  1  0  0  0  0
 17 16  1  0  0  0  0
 18 15  1  0  0  0  0
 19 18  1  0  0  0  0
 20 19  1  0  0  0  0
 21 20  2  0  0  0  0
 22 21  1  0  0  0  0
 23 24  2  0  0  0  0
 23 21  1  0  0  0  0
 24 25  1  0  0  0  0
 25 19  2  0  0  0  0
M  END
>  <minimizedAffinity>
-4.94497824

>  <minimizedRMSD>
1.00996149

$$$$
