
 OpenBabel03252507583D

 25 27  0  0  1  0  0  0  0  0999 V2000
   46.8030   32.4110   45.7170 C   0  0  1  0  0  0  0  0  0  0  0  0
   46.9720   32.6960   47.1690 C   0  0  0  0  0  0  0  0  0  0  0  0
   45.7150   32.0650   46.6870 C   0  0  2  0  0  0  0  0  0  0  0  0
   47.4930   31.6920   45.2690 H   0  0  0  0  0  0  0  0  0  0  0  0
   46.8860   33.7660   47.4740 H   0  0  0  0  0  0  0  0  0  0  0  0
   47.7460   32.1380   47.6920 H   0  0  0  0  0  0  0  0  0  0  0  0
   44.7880   32.6450   46.7040 H   0  0  0  0  0  0  0  0  0  0  0  0
   46.8680   34.7140   42.8640 C   0  0  0  0  0  0  0  0  0  0  0  0
   45.7430   35.5410   43.0770 C   0  0  0  0  0  0  0  0  0  0  0  0
   44.9580   35.2880   44.2170 C   0  0  0  0  0  0  0  0  0  0  0  0
   45.3270   34.2720   45.0400 N   0  0  0  0  0  0  0  0  0  0  0  0
   46.4290   33.5120   44.7720 C   0  0  0  0  0  0  0  0  0  0  0  0
   47.2020   33.7130   43.7070 N   0  0  0  0  0  0  0  0  0  0  0  0
   45.4640   36.3320   42.4280 H   0  0  0  0  0  0  0  0  0  0  0  0
   44.0880   35.8840   44.4340 H   0  0  0  0  0  0  0  0  0  0  0  0
   47.6220   35.0350   41.6900 C   0  0  0  0  0  0  0  0  0  0  0  0
   48.6440   35.7830   41.6520 O   0  0  0  0  0  0  0  0  0  0  0  0
   47.1900   34.5380   40.8180 H   0  0  0  0  0  0  0  0  0  0  0  0
   45.5290   30.5840   46.8530 C   0  0  0  0  0  0  0  0  0  0  0  0
   45.3000   30.0280   48.1040 C   0  0  0  0  0  3  0  0  0  0  0  0
   45.1410   28.6590   48.1540 C   0  0  0  0  0  0  0  0  0  0  0  0
   44.9630   28.2300   49.1360 H   0  0  0  0  0  0  0  0  0  0  0  0
   45.1950   27.8460   47.0850 N   0  0  0  0  0  0  0  0  0  0  0  0
   45.4190   28.4200   45.8880 C   0  0  0  0  0  3  0  0  0  0  0  0
   45.5790   29.7530   45.7930 N   0  0  0  0  0  0  0  0  0  0  0  0
  1  4  1  6  0  0  0
  1  3  1  0  0  0  0
  1  2  1  0  0  0  0
  2  5  1  0  0  0  0
  2  6  1  0  0  0  0
  3  7  1  6  0  0  0
  3 19  1  0  0  0  0
  3  2  1  0  0  0  0
  8  9  2  0  0  0  0
  8 13  1  0  0  0  0
  9 10  1  0  0  0  0
 10 15  1  0  0  0  0
 10 11  2  0  0  0  0
 12 11  1  0  0  0  0
 12  1  1  0  0  0  0
 13 12  2  0  0  0  0
 14  9  1  0  0  0  0
 16  8  1  0  0  0  0
 17 16  2  0  0  0  0
 18 16  1  0  0  0  0
 19 20  1  0  0  0  0
 20 21  2  0  0  0  0
 21 22  1  0  0  0  0
 23 21  1  0  0  0  0
 24 23  2  0  0  0  0
 25 24  1  0  0  0  0
 25 19  2  0  0  0  0
M  END
>  <minimizedAffinity>
-4.39792871

>  <minimizedRMSD>
1.46594477

$$$$
