
 OpenBabel03242519063D

 41 44  0  0  1  0  0  0  0  0999 V2000
   47.4650   33.2660   43.6370 N   0  0  0  0  0  0  0  0  0  0  0  0
   48.6530   33.3660   42.8240 C   0  0  0  0  0  0  0  0  0  0  0  0
   48.5810   32.0510   42.1180 C   0  0  2  0  0  0  0  0  0  0  0  0
   48.3370   31.1020   43.2670 C   0  0  0  0  0  0  0  0  0  0  0  0
   47.4740   31.9180   44.1930 C   0  0  0  0  0  0  0  0  0  0  0  0
   48.5900   34.2240   42.1280 H   0  0  0  0  0  0  0  0  0  0  0  0
   49.5390   33.3660   43.4730 H   0  0  0  0  0  0  0  0  0  0  0  0
   47.7870   31.9800   41.3750 H   0  0  0  0  0  0  0  0  0  0  0  0
   49.2490   30.7250   43.7400 H   0  0  0  0  0  0  0  0  0  0  0  0
   47.6800   30.2840   42.8670 H   0  0  0  0  0  0  0  0  0  0  0  0
   48.0080   31.9640   45.1650 H   0  0  0  0  0  0  0  0  0  0  0  0
   46.4680   31.5180   44.3360 H   0  0  0  0  0  0  0  0  0  0  0  0
   44.9990   36.0400   43.4130 C   0  0  0  0  0  0  0  0  0  0  0  0
   46.0210   35.1720   43.0440 C   0  0  0  0  0  0  0  0  0  0  0  0
   46.4450   34.1850   43.9180 C   0  0  0  0  0  0  0  0  0  0  0  0
   45.8130   34.1180   45.1300 N   0  0  0  0  0  0  0  0  0  0  0  0
   44.8290   34.9480   45.4920 C   0  0  0  0  0  0  0  0  0  0  0  0
   44.4150   35.9110   44.6400 N   0  0  0  0  0  0  0  0  0  0  0  0
   44.7000   36.7960   42.7000 H   0  0  0  0  0  0  0  0  0  0  0  0
   46.5030   35.2450   42.0870 H   0  0  0  0  0  0  0  0  0  0  0  0
   44.3850   34.8230   46.4700 H   0  0  0  0  0  0  0  0  0  0  0  0
   49.8290   31.6810   41.4890 N   0  0  0  0  0  0  0  0  0  0  0  0
   50.6560   31.3740   42.0630 H   0  0  0  0  0  0  0  0  0  0  0  0
   51.3870   31.1200   39.6220 C   0  0  0  0  0  0  0  0  0  0  0  0
   50.1970   31.6500   40.1150 C   0  0  0  0  0  0  0  0  0  0  0  0
   49.3640   32.1630   39.1330 C   0  0  0  0  0  0  0  0  0  0  0  0
   49.6480   32.1680   37.7850 C   0  0  0  0  0  0  0  0  0  0  0  0
   50.8320   31.6350   37.3470 C   0  0  0  0  0  0  0  0  0  0  0  0
   51.6760   31.1210   38.2910 C   0  0  0  0  0  0  0  0  0  0  0  0
   48.4100   32.5970   39.4410 H   0  0  0  0  0  0  0  0  0  0  0  0
   48.9260   32.5950   37.0960 H   0  0  0  0  0  0  0  0  0  0  0  0
   51.0240   31.6530   36.3030 H   0  0  0  0  0  0  0  0  0  0  0  0
   52.9570   30.5350   37.8970 C   0  0  0  0  0  0  0  0  0  0  0  0
   54.1370   31.2420   37.7830 C   0  0  0  0  0  0  0  0  0  0  0  0
   55.3390   30.6770   37.4090 C   0  0  0  0  0  0  0  0  0  0  0  0
   56.2370   31.3000   37.3390 H   0  0  0  0  0  0  0  0  0  0  0  0
   55.3920   29.3620   37.1360 N   0  0  0  0  0  0  0  0  0  0  0  0
   54.2570   28.6520   37.2400 C   0  0  0  0  0  0  0  0  0  0  0  0
   53.1110   29.2240   37.6020 N   0  0  0  0  0  0  0  0  0  0  0  0
   53.0450   30.1260   41.3820 N   0  0  0  0  0  0  0  0  0  0  0  0
   52.3170   30.5620   40.5950 C   0  0  0  0  0  0  0  0  0  0  0  0
  1 15  1  0  0  0  0
  1  5  1  0  0  0  0
  2  7  1  0  0  0  0
  2  1  1  0  0  0  0
  3  8  1  6  0  0  0
  3  2  1  0  0  0  0
  3  4  1  0  0  0  0
  4  9  1  0  0  0  0
  4  5  1  0  0  0  0
  5 12  1  0  0  0  0
  5 11  1  0  0  0  0
  6  2  1  0  0  0  0
 10  4  1  0  0  0  0
 13 18  1  0  0  0  0
 14 13  2  0  0  0  0
 14 15  1  0  0  0  0
 15 16  2  0  0  0  0
 16 17  1  0  0  0  0
 17 21  1  0  0  0  0
 18 17  2  0  0  0  0
 19 13  1  0  0  0  0
 20 14  1  0  0  0  0
 22 23  1  0  0  0  0
 22  3  1  0  0  0  0
 24 25  1  0  0  0  0
 24 41  1  0  0  0  0
 25 22  1  0  0  0  0
 26 30  1  0  0  0  0
 26 25  2  0  0  0  0
 27 26  1  0  0  0  0
 28 27  2  0  0  0  0
 28 29  1  0  0  0  0
 29 24  2  0  0  0  0
 31 27  1  0  0  0  0
 32 28  1  0  0  0  0
 33 29  1  0  0  0  0
 34 33  1  0  0  0  0
 35 34  2  0  0  0  0
 36 35  1  0  0  0  0
 37 38  2  0  0  0  0
 37 35  1  0  0  0  0
 38 39  1  0  0  0  0
 39 33  2  0  0  0  0
 41 40  3  0  0  0  0
M  END
>  <minimizedAffinity>
-4.7613039

>  <minimizedRMSD>
2.85384774

$$$$
