
 OpenBabel03242513403D

 38 41  0  0  0  0  0  0  0  0999 V2000
   47.8050   31.0830   46.0360 C   0  0  0  0  0  0  0  0  0  0  0  0
   47.0320   32.1060   45.5370 C   0  0  0  0  0  0  0  0  0  0  0  0
   45.9970   32.5770   46.3210 C   0  0  0  0  0  0  0  0  0  0  0  0
   45.7130   32.0700   47.5660 C   0  0  0  0  0  0  0  0  0  0  0  0
   44.8140   32.2890   48.5530 N   0  0  0  0  0  0  0  0  0  0  0  0
   45.0320   31.4450   49.5880 C   0  0  0  0  0  0  0  0  0  0  0  0
   46.0800   30.6920   49.2400 N   0  0  0  0  0  0  0  0  0  0  0  0
   46.5120   31.0500   48.0180 C   0  0  0  0  0  0  0  0  0  0  0  0
   47.5540   30.5360   47.2930 C   0  0  0  0  0  0  0  0  0  0  0  0
   48.6200   30.7030   45.4320 H   0  0  0  0  0  0  0  0  0  0  0  0
   45.3770   33.3810   45.9510 H   0  0  0  0  0  0  0  0  0  0  0  0
   44.0700   33.0090   48.5010 H   0  0  0  0  0  0  0  0  0  0  0  0
   44.4280   31.4500   50.4820 H   0  0  0  0  0  0  0  0  0  0  0  0
   47.1570   34.4190   42.7090 C   0  0  0  0  0  0  0  0  0  0  0  0
   47.8350   33.6880   41.7380 C   0  0  0  0  0  0  0  0  0  0  0  0
   48.2370   32.4020   42.0900 C   0  0  0  0  0  0  0  0  0  0  0  0
   47.9640   31.9090   43.3300 N   0  0  0  0  0  0  0  0  0  0  0  0
   47.3030   32.6720   44.2190 C   0  0  0  0  0  0  0  0  0  0  0  0
   46.9000   33.9080   43.9270 N   0  0  0  0  0  0  0  0  0  0  0  0
   46.7910   35.4260   42.5650 H   0  0  0  0  0  0  0  0  0  0  0  0
   48.7660   31.8320   41.3310 H   0  0  0  0  0  0  0  0  0  0  0  0
   48.0800   34.3250   40.4110 C   0  0  0  0  0  0  0  0  0  0  0  0
   48.5900   35.5700   40.7040 F   0  0  0  0  0  0  0  0  0  0  0  0
   46.8810   34.4330   39.7610 F   0  0  0  0  0  0  0  0  0  0  0  0
   48.9700   33.5250   39.7120 F   0  0  0  0  0  0  0  0  0  0  0  0
   48.3250   29.5070   47.8020 O   0  0  0  0  0  0  0  0  0  0  0  0
   49.9230   28.2720   49.4190 O   0  0  0  0  0  0  0  0  0  0  0  0
   49.5060   29.6670   48.9810 P   0  0  2  0  0  0  0  0  0  0  0  0
   48.7750   30.4170   50.3300 O   0  0  0  0  0  0  0  0  0  0  0  0
   48.3610   29.7540   50.9350 H   0  0  0  0  0  0  0  0  0  0  0  0
   50.8540   30.5480   48.4930 O   0  0  0  0  0  0  0  0  0  0  0  0
   51.4600   31.5550   49.2010 C   0  0  0  0  0  0  0  0  0  0  0  0
   52.8560   31.6240   49.1410 C   0  0  0  0  0  0  0  0  0  0  0  0
   53.5630   32.6070   49.8240 C   0  0  0  0  0  0  0  0  0  0  0  0
   54.6460   32.5860   49.7220 H   0  0  0  0  0  0  0  0  0  0  0  0
   52.8690   33.5150   50.5620 N   0  0  0  0  0  0  0  0  0  0  0  0
   51.5270   33.4500   50.6190 C   0  0  0  0  0  0  0  0  0  0  0  0
   50.8610   32.4960   49.9550 N   0  0  0  0  0  0  0  0  0  0  0  0
  1  9  1  0  0  0  0
  2  1  2  0  0  0  0
  2  3  1  0  0  0  0
  3  4  2  0  0  0  0
  4  8  1  0  0  0  0
  4  5  1  0  0  0  0
  5  6  1  0  0  0  0
  6 13  1  0  0  0  0
  7  6  2  0  0  0  0
  8  7  1  0  0  0  0
  9 26  1  0  0  0  0
  9  8  2  0  0  0  0
 10  1  1  0  0  0  0
 11  3  1  0  0  0  0
 12  5  1  0  0  0  0
 14 19  1  0  0  0  0
 15 16  1  0  0  0  0
 15 14  2  0  0  0  0
 16 17  2  0  0  0  0
 17 18  1  0  0  0  0
 18  2  1  0  0  0  0
 19 18  2  0  0  0  0
 20 14  1  0  0  0  0
 21 16  1  0  0  0  0
 22 23  1  0  0  0  0
 22 15  1  0  0  0  0
 24 22  1  0  0  0  0
 25 22  1  0  0  0  0
 26 28  1  0  0  0  0
 28 27  2  1  0  0  0
 28 29  1  0  0  0  0
 29 30  1  0  0  0  0
 31 28  1  0  0  0  0
 31 32  1  0  0  0  0
 32 38  1  0  0  0  0
 33 32  2  0  0  0  0
 33 34  1  0  0  0  0
 34 36  2  0  0  0  0
 35 34  1  0  0  0  0
 36 37  1  0  0  0  0
 38 37  2  0  0  0  0
M  END
>  <minimizedAffinity>
-6.22800398

>  <minimizedRMSD>
0.655320585

$$$$
