
 OpenBabel03252509213D

 23 25  0  0  0  0  0  0  0  0999 V2000
   40.5560   30.5410   41.7820 C   0  0  0  0  0  0  0  0  0  0  0  0
   39.1660   30.6120   41.4910 C   0  0  0  0  0  0  0  0  0  0  0  0
   38.7620   31.7810   40.8840 C   0  0  0  0  0  0  0  0  0  0  0  0
   39.6940   32.7640   40.6120 N   0  0  0  0  0  0  0  0  0  0  0  0
   40.9920   32.6490   40.9060 C   0  0  0  0  0  0  0  0  0  0  0  0
   41.4070   31.5190   41.4970 N   0  0  0  0  0  0  0  0  0  0  0  0
   41.0710   29.7240   42.2520 H   0  0  0  0  0  0  0  0  0  0  0  0
   41.5040   33.5490   40.5930 H   0  0  0  0  0  0  0  0  0  0  0  0
   37.3340   31.9260   40.4230 C   0  0  0  0  0  0  0  0  0  0  0  0
   37.2030   33.0780   39.4190 C   0  0  0  0  0  0  0  0  0  0  0  0
   37.0220   31.5740   39.0500 C   0  0  0  0  0  0  0  0  0  0  0  0
   36.6140   32.1520   41.2430 H   0  0  0  0  0  0  0  0  0  0  0  0
   38.0990   33.5070   38.9570 H   0  0  0  0  0  0  0  0  0  0  0  0
   36.2770   33.6400   39.3510 H   0  0  0  0  0  0  0  0  0  0  0  0
   37.7630   31.1080   38.4000 H   0  0  0  0  0  0  0  0  0  0  0  0
   35.9670   31.2360   38.8620 H   0  0  0  0  0  0  0  0  0  0  0  0
   38.3170   29.4930   41.8540 C   0  0  0  0  0  0  0  0  0  0  0  0
   38.0870   29.2510   43.1870 C   0  0  0  0  0  3  0  0  0  0  0  0
   37.3150   28.2250   43.6790 C   0  0  0  0  0  0  0  0  0  0  0  0
   37.1010   27.9890   44.7040 H   0  0  0  0  0  0  0  0  0  0  0  0
   36.7180   27.3670   42.8020 N   0  0  0  0  0  0  0  0  0  0  0  0
   36.9490   27.6110   41.5020 C   0  0  0  0  0  3  0  0  0  0  0  0
   37.7000   28.6100   41.0820 N   0  0  0  0  0  0  0  0  0  0  0  0
  1  7  1  0  0  0  0
  2  1  2  0  0  0  0
  2 17  1  0  0  0  0
  3  2  1  0  0  0  0
  4  3  2  0  0  0  0
  4  5  1  0  0  0  0
  5  6  2  0  0  0  0
  6  1  1  0  0  0  0
  8  5  1  0  0  0  0
  9  3  1  0  0  0  0
  9 12  1  0  0  0  0
 10  9  1  0  0  0  0
 11 10  1  0  0  0  0
 11  9  1  0  0  0  0
 13 10  1  0  0  0  0
 14 10  1  0  0  0  0
 15 11  1  0  0  0  0
 16 11  1  0  0  0  0
 17 18  1  0  0  0  0
 18 19  2  0  0  0  0
 19 20  1  0  0  0  0
 21 19  1  0  0  0  0
 22 21  2  0  0  0  0
 23 22  1  0  0  0  0
 23 17  2  0  0  0  0
M  END
>  <minimizedAffinity>
-4.23403072

$$$$

 OpenBabel03252509213D

 23 25  0  0  0  0  0  0  0  0999 V2000
   38.7620   29.4850   42.6660 C   0  0  0  0  0  0  0  0  0  0  0  0
   38.0190   30.0460   41.5910 C   0  0  0  0  0  0  0  0  0  0  0  0
   36.8090   29.4330   41.3430 C   0  0  0  0  0  0  0  0  0  0  0  0
   36.4180   28.3590   42.1210 N   0  0  0  0  0  0  0  0  0  0  0  0
   37.1550   27.8680   43.1210 C   0  0  0  0  0  0  0  0  0  0  0  0
   38.3350   28.4510   43.3800 N   0  0  0  0  0  0  0  0  0  0  0  0
   39.7220   29.8100   43.0180 H   0  0  0  0  0  0  0  0  0  0  0  0
   36.6280   27.0360   43.5680 H   0  0  0  0  0  0  0  0  0  0  0  0
   35.8810   30.0100   40.3040 C   0  0  0  0  0  0  0  0  0  0  0  0
   36.0140   29.2490   38.9790 C   0  0  0  0  0  0  0  0  0  0  0  0
   34.7460   29.2080   39.8860 C   0  0  0  0  0  0  0  0  0  0  0  0
   36.0790   31.0790   40.0640 H   0  0  0  0  0  0  0  0  0  0  0  0
   36.5270   28.2820   38.9500 H   0  0  0  0  0  0  0  0  0  0  0  0
   35.8380   29.7590   38.0370 H   0  0  0  0  0  0  0  0  0  0  0  0
   34.4960   28.2720   40.3840 H   0  0  0  0  0  0  0  0  0  0  0  0
   33.8550   29.7840   39.5140 H   0  0  0  0  0  0  0  0  0  0  0  0
   38.5790   31.1690   40.8640 C   0  0  0  0  0  0  0  0  0  0  0  0
   39.4580   30.9120   39.8400 C   0  0  0  0  0  3  0  0  0  0  0  0
   40.0740   31.8730   39.0710 C   0  0  0  0  0  0  0  0  0  0  0  0
   40.7650   31.7330   38.2630 H   0  0  0  0  0  0  0  0  0  0  0  0
   39.8100   33.1880   39.3210 N   0  0  0  0  0  0  0  0  0  0  0  0
   38.9510   33.4290   40.3250 C   0  0  0  0  0  3  0  0  0  0  0  0
   38.3880   32.4690   41.0320 N   0  0  0  0  0  0  0  0  0  0  0  0
  1  7  1  0  0  0  0
  1  6  1  0  0  0  0
  2  1  2  0  0  0  0
  3  2  1  0  0  0  0
  3  4  2  0  0  0  0
  4  5  1  0  0  0  0
  5  6  2  0  0  0  0
  5  8  1  0  0  0  0
  9  3  1  0  0  0  0
 10 11  1  0  0  0  0
 10  9  1  0  0  0  0
 11  9  1  0  0  0  0
 11 15  1  0  0  0  0
 12  9  1  0  0  0  0
 13 10  1  0  0  0  0
 14 10  1  0  0  0  0
 16 11  1  0  0  0  0
 17 23  1  0  0  0  0
 17  2  1  0  0  0  0
 18 17  2  0  0  0  0
 19 21  2  0  0  0  0
 19 18  1  0  0  0  0
 20 19  1  0  0  0  0
 21 22  1  0  0  0  0
 22 23  2  0  0  0  0
M  END
>  <minimizedAffinity>
-4.16459846

$$$$

 OpenBabel03252509213D

 23 25  0  0  0  0  0  0  0  0999 V2000
   37.3760   28.8710   38.8490 C   0  0  0  0  0  0  0  0  0  0  0  0
   37.4690   29.4340   40.1520 C   0  0  0  0  0  0  0  0  0  0  0  0
   37.1270   28.5790   41.1770 C   0  0  0  0  0  0  0  0  0  0  0  0
   36.7310   27.2870   40.8820 N   0  0  0  0  0  0  0  0  0  0  0  0
   36.6600   26.8050   39.6380 C   0  0  0  0  0  0  0  0  0  0  0  0
   36.9890   27.6210   38.6260 N   0  0  0  0  0  0  0  0  0  0  0  0
   37.5940   29.3650   37.9220 H   0  0  0  0  0  0  0  0  0  0  0  0
   36.3280   25.7770   39.6800 H   0  0  0  0  0  0  0  0  0  0  0  0
   37.2950   29.0250   42.6070 C   0  0  0  0  0  0  0  0  0  0  0  0
   37.0250   27.8630   43.5720 C   0  0  0  0  0  0  0  0  0  0  0  0
   38.4280   28.5070   43.3520 C   0  0  0  0  0  0  0  0  0  0  0  0
   36.6030   29.8420   42.9110 H   0  0  0  0  0  0  0  0  0  0  0  0
   36.9830   26.8350   43.1950 H   0  0  0  0  0  0  0  0  0  0  0  0
   36.6250   28.0580   44.5620 H   0  0  0  0  0  0  0  0  0  0  0  0
   39.2020   27.9100   42.8700 H   0  0  0  0  0  0  0  0  0  0  0  0
   38.8040   29.1630   44.1840 H   0  0  0  0  0  0  0  0  0  0  0  0
   37.8900   30.8150   40.2890 C   0  0  0  0  0  0  0  0  0  0  0  0
   37.0980   31.7980   39.7470 C   0  0  0  0  0  3  0  0  0  0  0  0
   37.3740   33.1450   39.7910 C   0  0  0  0  0  0  0  0  0  0  0  0
   36.7950   33.9540   39.3880 H   0  0  0  0  0  0  0  0  0  0  0  0
   38.5130   33.5670   40.4130 N   0  0  0  0  0  0  0  0  0  0  0  0
   39.2810   32.5980   40.9370 C   0  0  0  0  0  3  0  0  0  0  0  0
   38.9710   31.3200   40.8670 N   0  0  0  0  0  0  0  0  0  0  0  0
  1  2  1  0  0  0  0
  2 17  1  0  0  0  0
  2  3  2  0  0  0  0
  3  9  1  0  0  0  0
  4  3  1  0  0  0  0
  5  8  1  0  0  0  0
  5  4  2  0  0  0  0
  6  1  2  0  0  0  0
  6  5  1  0  0  0  0
  7  1  1  0  0  0  0
  9 12  1  0  0  0  0
  9 11  1  0  0  0  0
  9 10  1  0  0  0  0
 10 14  1  0  0  0  0
 11 10  1  0  0  0  0
 11 16  1  0  0  0  0
 13 10  1  0  0  0  0
 15 11  1  0  0  0  0
 17 23  1  0  0  0  0
 18 19  1  0  0  0  0
 18 17  2  0  0  0  0
 19 21  2  0  0  0  0
 20 19  1  0  0  0  0
 21 22  1  0  0  0  0
 23 22  2  0  0  0  0
M  END
>  <minimizedAffinity>
-4.1566081

$$$$

 OpenBabel03252509213D

 23 25  0  0  0  0  0  0  0  0999 V2000
   36.6150   30.5270   39.3280 C   0  0  0  0  0  0  0  0  0  0  0  0
   37.4990   30.6050   40.4390 C   0  0  0  0  0  0  0  0  0  0  0  0
   37.1980   29.7510   41.4780 C   0  0  0  0  0  0  0  0  0  0  0  0
   36.1040   28.9130   41.3750 N   0  0  0  0  0  0  0  0  0  0  0  0
   35.3020   28.8780   40.3060 C   0  0  0  0  0  0  0  0  0  0  0  0
   35.5770   29.7010   39.2840 N   0  0  0  0  0  0  0  0  0  0  0  0
   36.6700   31.1040   38.4240 H   0  0  0  0  0  0  0  0  0  0  0  0
   34.5270   28.1420   40.4740 H   0  0  0  0  0  0  0  0  0  0  0  0
   38.1280   29.6600   42.6610 C   0  0  0  0  0  0  0  0  0  0  0  0
   37.6990   28.5260   43.6010 C   0  0  0  0  0  0  0  0  0  0  0  0
   39.0060   28.5080   42.7500 C   0  0  0  0  0  0  0  0  0  0  0  0
   38.1560   30.5810   43.2860 H   0  0  0  0  0  0  0  0  0  0  0  0
   36.9790   27.7740   43.2600 H   0  0  0  0  0  0  0  0  0  0  0  0
   37.8950   28.5980   44.6660 H   0  0  0  0  0  0  0  0  0  0  0  0
   39.0830   27.7870   41.9360 H   0  0  0  0  0  0  0  0  0  0  0  0
   39.9640   28.6690   43.3150 H   0  0  0  0  0  0  0  0  0  0  0  0
   38.5970   31.5510   40.3940 C   0  0  0  0  0  0  0  0  0  0  0  0
   38.3380   32.8700   40.6790 C   0  0  0  0  0  3  0  0  0  0  0  0
   39.2750   33.8770   40.6670 C   0  0  0  0  0  0  0  0  0  0  0  0
   39.1310   34.9190   40.8800 H   0  0  0  0  0  0  0  0  0  0  0  0
   40.5670   33.5740   40.3520 N   0  0  0  0  0  0  0  0  0  0  0  0
   40.8110   32.2830   40.0740 C   0  0  0  0  0  3  0  0  0  0  0  0
   39.8750   31.3560   40.1000 N   0  0  0  0  0  0  0  0  0  0  0  0
  1  2  1  0  0  0  0
  2  3  2  0  0  0  0
  3  9  1  0  0  0  0
  4  3  1  0  0  0  0
  5  8  1  0  0  0  0
  5  4  2  0  0  0  0
  6  1  2  0  0  0  0
  6  5  1  0  0  0  0
  7  1  1  0  0  0  0
  9 11  1  0  0  0  0
  9 12  1  0  0  0  0
  9 10  1  0  0  0  0
 10 14  1  0  0  0  0
 11 16  1  0  0  0  0
 11 10  1  0  0  0  0
 13 10  1  0  0  0  0
 15 11  1  0  0  0  0
 17  2  1  0  0  0  0
 17 18  1  0  0  0  0
 19 18  2  0  0  0  0
 19 20  1  0  0  0  0
 21 19  1  0  0  0  0
 22 23  1  0  0  0  0
 22 21  2  0  0  0  0
 23 17  2  0  0  0  0
M  END
>  <minimizedAffinity>
-4.06491375

$$$$

 OpenBabel03252509213D

 23 25  0  0  0  0  0  0  0  0999 V2000
   41.0760   28.5640   42.1690 C   0  0  0  0  0  0  0  0  0  0  0  0
   39.7050   28.9420   42.1590 C   0  0  0  0  0  0  0  0  0  0  0  0
   38.8870   28.1690   42.9550 C   0  0  0  0  0  0  0  0  0  0  0  0
   39.4300   27.1230   43.6760 N   0  0  0  0  0  0  0  0  0  0  0  0
   40.7280   26.8080   43.6520 C   0  0  0  0  0  0  0  0  0  0  0  0
   41.5420   27.5480   42.8850 N   0  0  0  0  0  0  0  0  0  0  0  0
   41.8730   29.0300   41.6210 H   0  0  0  0  0  0  0  0  0  0  0  0
   40.8940   25.9580   44.2990 H   0  0  0  0  0  0  0  0  0  0  0  0
   37.4350   28.5430   43.1150 C   0  0  0  0  0  0  0  0  0  0  0  0
   36.5640   27.7710   42.1150 C   0  0  0  0  0  0  0  0  0  0  0  0
   36.5320   27.5460   43.6580 C   0  0  0  0  0  0  0  0  0  0  0  0
   37.2230   29.6220   42.9360 H   0  0  0  0  0  0  0  0  0  0  0  0
   36.9750   26.9060   41.5840 H   0  0  0  0  0  0  0  0  0  0  0  0
   35.6470   28.2120   41.7370 H   0  0  0  0  0  0  0  0  0  0  0  0
   36.9000   26.5980   44.0500 H   0  0  0  0  0  0  0  0  0  0  0  0
   35.6300   27.9470   44.1960 H   0  0  0  0  0  0  0  0  0  0  0  0
   39.2940   30.0610   41.3330 C   0  0  0  0  0  0  0  0  0  0  0  0
   38.9900   29.8250   40.0150 C   0  0  0  0  0  3  0  0  0  0  0  0
   38.5970   30.7870   39.1130 C   0  0  0  0  0  0  0  0  0  0  0  0
   38.3480   30.6620   38.0770 H   0  0  0  0  0  0  0  0  0  0  0  0
   38.4900   32.0810   39.5310 N   0  0  0  0  0  0  0  0  0  0  0  0
   38.7900   32.3020   40.8210 C   0  0  0  0  0  3  0  0  0  0  0  0
   39.1630   31.3430   41.6450 N   0  0  0  0  0  0  0  0  0  0  0  0
  1  6  1  0  0  0  0
  2  1  2  0  0  0  0
  2  3  1  0  0  0  0
  3  9  1  0  0  0  0
  3  4  2  0  0  0  0
  5  4  1  0  0  0  0
  5  8  1  0  0  0  0
  6  5  2  0  0  0  0
  7  1  1  0  0  0  0
  9 11  1  0  0  0  0
 10  9  1  0  0  0  0
 10 11  1  0  0  0  0
 11 15  1  0  0  0  0
 11 16  1  0  0  0  0
 12  9  1  0  0  0  0
 13 10  1  0  0  0  0
 14 10  1  0  0  0  0
 17 23  1  0  0  0  0
 17  2  1  0  0  0  0
 18 17  2  0  0  0  0
 19 21  2  0  0  0  0
 19 18  1  0  0  0  0
 20 19  1  0  0  0  0
 21 22  1  0  0  0  0
 22 23  2  0  0  0  0
M  END
>  <minimizedAffinity>
-4.01123667

$$$$

 OpenBabel03252509213D

 23 25  0  0  0  0  0  0  0  0999 V2000
   39.8690   24.9590   41.6490 C   0  0  0  0  0  0  0  0  0  0  0  0
   38.5560   25.5000   41.7090 C   0  0  0  0  0  0  0  0  0  0  0  0
   38.3250   26.3420   42.7760 C   0  0  0  0  0  0  0  0  0  0  0  0
   39.3430   26.5900   43.6790 N   0  0  0  0  0  0  0  0  0  0  0  0
   40.5630   26.0550   43.5780 C   0  0  0  0  0  0  0  0  0  0  0  0
   40.8080   25.2340   42.5460 N   0  0  0  0  0  0  0  0  0  0  0  0
   40.2500   24.2850   40.9060 H   0  0  0  0  0  0  0  0  0  0  0  0
   41.1680   26.4060   44.4020 H   0  0  0  0  0  0  0  0  0  0  0  0
   37.0080   27.0660   42.8830 C   0  0  0  0  0  0  0  0  0  0  0  0
   37.1720   28.3760   43.6650 C   0  0  0  0  0  0  0  0  0  0  0  0
   36.8490   28.3030   42.1410 C   0  0  0  0  0  0  0  0  0  0  0  0
   36.2160   26.4900   43.4140 H   0  0  0  0  0  0  0  0  0  0  0  0
   38.1720   28.7810   43.8520 H   0  0  0  0  0  0  0  0  0  0  0  0
   36.3460   28.7690   44.2490 H   0  0  0  0  0  0  0  0  0  0  0  0
   37.6060   28.6440   41.4350 H   0  0  0  0  0  0  0  0  0  0  0  0
   35.7950   28.5630   41.8470 H   0  0  0  0  0  0  0  0  0  0  0  0
   37.5970   25.1270   40.6860 C   0  0  0  0  0  0  0  0  0  0  0  0
   36.8510   23.9890   40.8720 C   0  0  0  0  0  3  0  0  0  0  0  0
   35.9150   23.5080   39.9860 C   0  0  0  0  0  0  0  0  0  0  0  0
   35.3050   22.6300   40.0780 H   0  0  0  0  0  0  0  0  0  0  0  0
   35.6880   24.1920   38.8280 N   0  0  0  0  0  0  0  0  0  0  0  0
   36.4230   25.3030   38.6550 C   0  0  0  0  0  3  0  0  0  0  0  0
   37.3090   25.7200   39.5370 N   0  0  0  0  0  0  0  0  0  0  0  0
  1  2  2  0  0  0  0
  1  6  1  0  0  0  0
  2  3  1  0  0  0  0
  3  9  1  0  0  0  0
  3  4  2  0  0  0  0
  5  4  1  0  0  0  0
  5  8  1  0  0  0  0
  6  5  2  0  0  0  0
  7  1  1  0  0  0  0
  9 12  1  0  0  0  0
  9 10  1  0  0  0  0
 10 13  1  0  0  0  0
 10 14  1  0  0  0  0
 11  9  1  0  0  0  0
 11 10  1  0  0  0  0
 15 11  1  0  0  0  0
 16 11  1  0  0  0  0
 17 18  1  0  0  0  0
 17  2  1  0  0  0  0
 19 20  1  0  0  0  0
 19 18  2  0  0  0  0
 21 19  1  0  0  0  0
 22 21  2  0  0  0  0
 22 23  1  0  0  0  0
 23 17  2  0  0  0  0
M  END
>  <minimizedAffinity>
-3.97379899

$$$$

 OpenBabel03252509213D

 23 25  0  0  0  0  0  0  0  0999 V2000
   37.9750   30.2480   39.7930 C   0  0  0  0  0  0  0  0  0  0  0  0
   37.1440   29.1960   40.2650 C   0  0  0  0  0  0  0  0  0  0  0  0
   37.3000   28.8890   41.5990 C   0  0  0  0  0  0  0  0  0  0  0  0
   38.2160   29.5940   42.3570 N   0  0  0  0  0  0  0  0  0  0  0  0
   38.9760   30.5770   41.8650 C   0  0  0  0  0  0  0  0  0  0  0  0
   38.8400   30.8920   40.5690 N   0  0  0  0  0  0  0  0  0  0  0  0
   38.0110   30.6370   38.7930 H   0  0  0  0  0  0  0  0  0  0  0  0
   39.6040   30.9640   42.6570 H   0  0  0  0  0  0  0  0  0  0  0  0
   36.3930   27.8700   42.2400 C   0  0  0  0  0  0  0  0  0  0  0  0
   37.1460   26.5560   42.4890 C   0  0  0  0  0  0  0  0  0  0  0  0
   36.6480   27.5050   43.6220 C   0  0  0  0  0  0  0  0  0  0  0  0
   35.5050   27.6010   41.6240 H   0  0  0  0  0  0  0  0  0  0  0  0
   38.2390   26.5310   42.4280 H   0  0  0  0  0  0  0  0  0  0  0  0
   36.6130   25.6110   42.4710 H   0  0  0  0  0  0  0  0  0  0  0  0
   37.3920   28.0300   44.2210 H   0  0  0  0  0  0  0  0  0  0  0  0
   35.7540   27.1510   44.2050 H   0  0  0  0  0  0  0  0  0  0  0  0
   36.2400   28.5470   39.3330 C   0  0  0  0  0  0  0  0  0  0  0  0
   35.0570   29.1730   39.0260 C   0  0  0  0  0  3  0  0  0  0  0  0
   34.1020   28.6750   38.1710 C   0  0  0  0  0  0  0  0  0  0  0  0
   33.1640   29.1170   37.8940 H   0  0  0  0  0  0  0  0  0  0  0  0
   34.3180   27.4710   37.5670 N   0  0  0  0  0  0  0  0  0  0  0  0
   35.4770   26.8660   37.8740 C   0  0  0  0  0  3  0  0  0  0  0  0
   36.3600   27.3880   38.7020 N   0  0  0  0  0  0  0  0  0  0  0  0
  1  2  2  0  0  0  0
  1  6  1  0  0  0  0
  2  3  1  0  0  0  0
  3  9  1  0  0  0  0
  3  4  2  0  0  0  0
  5  4  1  0  0  0  0
  5  8  1  0  0  0  0
  6  5  2  0  0  0  0
  7  1  1  0  0  0  0
  9 10  1  0  0  0  0
  9 11  1  0  0  0  0
 10 11  1  0  0  0  0
 11 16  1  0  0  0  0
 11 15  1  0  0  0  0
 12  9  1  0  0  0  0
 13 10  1  0  0  0  0
 14 10  1  0  0  0  0
 17  2  1  0  0  0  0
 18 17  1  0  0  0  0
 19 18  2  0  0  0  0
 20 19  1  0  0  0  0
 21 22  2  0  0  0  0
 21 19  1  0  0  0  0
 22 23  1  0  0  0  0
 23 17  2  0  0  0  0
M  END
>  <minimizedAffinity>
-3.97160769

$$$$

 OpenBabel03252509213D

 23 25  0  0  0  0  0  0  0  0999 V2000
   36.2920   27.5810   39.0060 C   0  0  0  0  0  0  0  0  0  0  0  0
   36.8950   27.0480   40.1780 C   0  0  0  0  0  0  0  0  0  0  0  0
   36.8940   27.8950   41.2650 C   0  0  0  0  0  0  0  0  0  0  0  0
   36.3330   29.1520   41.1480 N   0  0  0  0  0  0  0  0  0  0  0  0
   35.7770   29.6080   40.0220 C   0  0  0  0  0  0  0  0  0  0  0  0
   35.7670   28.7990   38.9520 N   0  0  0  0  0  0  0  0  0  0  0  0
   36.1920   27.0900   38.0570 H   0  0  0  0  0  0  0  0  0  0  0  0
   35.4130   30.6120   40.1920 H   0  0  0  0  0  0  0  0  0  0  0  0
   37.4030   27.4000   42.5950 C   0  0  0  0  0  0  0  0  0  0  0  0
   37.3630   28.5220   43.6410 C   0  0  0  0  0  0  0  0  0  0  0  0
   36.4480   27.2600   43.6800 C   0  0  0  0  0  0  0  0  0  0  0  0
   38.4560   27.0400   42.5720 H   0  0  0  0  0  0  0  0  0  0  0  0
   36.7920   29.4350   43.4440 H   0  0  0  0  0  0  0  0  0  0  0  0
   38.0870   28.5380   44.4500 H   0  0  0  0  0  0  0  0  0  0  0  0
   35.3780   27.3920   43.5160 H   0  0  0  0  0  0  0  0  0  0  0  0
   36.7030   26.4890   44.4570 H   0  0  0  0  0  0  0  0  0  0  0  0
   37.4520   25.7090   40.1310 C   0  0  0  0  0  0  0  0  0  0  0  0
   36.6040   24.6420   40.3020 C   0  0  0  0  0  3  0  0  0  0  0  0
   36.9900   23.3210   40.2930 C   0  0  0  0  0  0  0  0  0  0  0  0
   36.3760   22.4500   40.4190 H   0  0  0  0  0  0  0  0  0  0  0  0
   38.3060   23.0180   40.1000 N   0  0  0  0  0  0  0  0  0  0  0  0
   39.1270   24.0680   39.9350 C   0  0  0  0  0  3  0  0  0  0  0  0
   38.7050   25.3170   39.9540 N   0  0  0  0  0  0  0  0  0  0  0  0
  1  2  1  0  0  0  0
  2  3  2  0  0  0  0
  3  9  1  0  0  0  0
  4  3  1  0  0  0  0
  5  8  1  0  0  0  0
  5  4  2  0  0  0  0
  6  1  2  0  0  0  0
  6  5  1  0  0  0  0
  7  1  1  0  0  0  0
  9 10  1  0  0  0  0
  9 11  1  0  0  0  0
 10 11  1  0  0  0  0
 10 14  1  0  0  0  0
 11 16  1  0  0  0  0
 12  9  1  0  0  0  0
 13 10  1  0  0  0  0
 15 11  1  0  0  0  0
 17  2  1  0  0  0  0
 17 18  1  0  0  0  0
 19 18  2  0  0  0  0
 19 20  1  0  0  0  0
 21 19  1  0  0  0  0
 22 23  1  0  0  0  0
 22 21  2  0  0  0  0
 23 17  2  0  0  0  0
M  END
>  <minimizedAffinity>
-3.95825768

$$$$

 OpenBabel03252509213D

 23 25  0  0  0  0  0  0  0  0999 V2000
   37.0920   31.0160   40.6310 C   0  0  0  0  0  0  0  0  0  0  0  0
   38.0630   30.2840   41.3670 C   0  0  0  0  0  0  0  0  0  0  0  0
   39.1970   30.9950   41.6960 C   0  0  0  0  0  0  0  0  0  0  0  0
   39.3090   32.3160   41.3030 N   0  0  0  0  0  0  0  0  0  0  0  0
   38.3660   32.9600   40.6110 C   0  0  0  0  0  0  0  0  0  0  0  0
   37.2550   32.2860   40.2800 N   0  0  0  0  0  0  0  0  0  0  0  0
   36.1480   30.6500   40.2760 H   0  0  0  0  0  0  0  0  0  0  0  0
   38.6940   33.9750   40.4320 H   0  0  0  0  0  0  0  0  0  0  0  0
   40.2460   30.3610   42.5740 C   0  0  0  0  0  0  0  0  0  0  0  0
   41.4550   29.9190   41.7390 C   0  0  0  0  0  0  0  0  0  0  0  0
   41.4890   31.0820   42.7770 C   0  0  0  0  0  0  0  0  0  0  0  0
   39.8970   29.4510   43.1120 H   0  0  0  0  0  0  0  0  0  0  0  0
   41.5760   30.2840   40.7130 H   0  0  0  0  0  0  0  0  0  0  0  0
   42.0480   29.0650   42.0480 H   0  0  0  0  0  0  0  0  0  0  0  0
   41.6240   32.1000   42.4110 H   0  0  0  0  0  0  0  0  0  0  0  0
   42.0250   30.8660   43.7420 H   0  0  0  0  0  0  0  0  0  0  0  0
   37.7960   28.8950   41.6900 C   0  0  0  0  0  0  0  0  0  0  0  0
   37.0640   28.6150   42.8180 C   0  0  0  0  0  3  0  0  0  0  0  0
   36.7420   27.3500   43.2540 C   0  0  0  0  0  0  0  0  0  0  0  0
   36.1760   27.0720   44.1210 H   0  0  0  0  0  0  0  0  0  0  0  0
   37.1680   26.2730   42.5310 N   0  0  0  0  0  0  0  0  0  0  0  0
   37.8840   26.5580   41.4310 C   0  0  0  0  0  3  0  0  0  0  0  0
   38.1650   27.7900   41.0580 N   0  0  0  0  0  0  0  0  0  0  0  0
  1  2  1  0  0  0  0
  2 17  1  0  0  0  0
  2  3  2  0  0  0  0
  3  9  1  0  0  0  0
  4  3  1  0  0  0  0
  5  4  2  0  0  0  0
  6  5  1  0  0  0  0
  6  1  2  0  0  0  0
  7  1  1  0  0  0  0
  8  5  1  0  0  0  0
  9 11  1  0  0  0  0
  9 12  1  0  0  0  0
 10 14  1  0  0  0  0
 10  9  1  0  0  0  0
 10 11  1  0  0  0  0
 11 16  1  0  0  0  0
 13 10  1  0  0  0  0
 15 11  1  0  0  0  0
 17 18  1  0  0  0  0
 18 19  2  0  0  0  0
 19 20  1  0  0  0  0
 21 19  1  0  0  0  0
 22 21  2  0  0  0  0
 23 22  1  0  0  0  0
 23 17  2  0  0  0  0
M  END
>  <minimizedAffinity>
-3.94334745

$$$$
