
 OpenBabel03252509213D

 23 25  0  0  0  0  0  0  0  0999 V2000
   44.7570   35.4380   45.5180 C   0  0  0  0  0  0  0  0  0  0  0  0
   45.2970   35.9750   44.3180 C   0  0  0  0  0  0  0  0  0  0  0  0
   45.8210   35.0410   43.4510 C   0  0  0  0  0  0  0  0  0  0  0  0
   45.7900   33.7020   43.7930 N   0  0  0  0  0  0  0  0  0  0  0  0
   45.2700   33.2470   44.9360 C   0  0  0  0  0  0  0  0  0  0  0  0
   44.7540   34.1390   45.7940 N   0  0  0  0  0  0  0  0  0  0  0  0
   44.3060   35.9900   46.3210 H   0  0  0  0  0  0  0  0  0  0  0  0
   45.3680   32.1700   44.9610 H   0  0  0  0  0  0  0  0  0  0  0  0
   46.3180   35.4780   42.0960 C   0  0  0  0  0  0  0  0  0  0  0  0
   47.8230   35.2130   41.9610 C   0  0  0  0  0  0  0  0  0  0  0  0
   46.7260   34.4500   41.1570 C   0  0  0  0  0  0  0  0  0  0  0  0
   46.1790   36.5640   41.8910 H   0  0  0  0  0  0  0  0  0  0  0  0
   48.3320   34.5610   42.6780 H   0  0  0  0  0  0  0  0  0  0  0  0
   48.4340   35.8510   41.3310 H   0  0  0  0  0  0  0  0  0  0  0  0
   46.5710   33.3920   41.3680 H   0  0  0  0  0  0  0  0  0  0  0  0
   46.6340   34.7200   40.0690 H   0  0  0  0  0  0  0  0  0  0  0  0
   45.2630   37.4110   44.1170 C   0  0  0  0  0  0  0  0  0  0  0  0
   45.2130   38.2260   45.2210 C   0  0  0  0  0  3  0  0  0  0  0  0
   45.1670   39.6010   45.1850 C   0  0  0  0  0  0  0  0  0  0  0  0
   45.1260   40.2860   46.0090 H   0  0  0  0  0  0  0  0  0  0  0  0
   45.1720   40.2300   43.9730 N   0  0  0  0  0  0  0  0  0  0  0  0
   45.2220   39.4240   42.9000 C   0  0  0  0  0  3  0  0  0  0  0  0
   45.2640   38.1100   42.9910 N   0  0  0  0  0  0  0  0  0  0  0  0
  1  6  1  0  0  0  0
  1  7  1  0  0  0  0
  2  1  2  0  0  0  0
  3  4  2  0  0  0  0
  3  2  1  0  0  0  0
  4  5  1  0  0  0  0
  5  8  1  0  0  0  0
  5  6  2  0  0  0  0
  9  3  1  0  0  0  0
 10  9  1  0  0  0  0
 10 13  1  0  0  0  0
 11 15  1  0  0  0  0
 11 10  1  0  0  0  0
 11  9  1  0  0  0  0
 12  9  1  0  0  0  0
 14 10  1  0  0  0  0
 16 11  1  0  0  0  0
 17  2  1  0  0  0  0
 17 18  1  0  0  0  0
 19 18  2  0  0  0  0
 19 20  1  0  0  0  0
 21 19  1  0  0  0  0
 22 23  1  0  0  0  0
 22 21  2  0  0  0  0
 23 17  2  0  0  0  0
M  END
>  <minimizedAffinity>
-0.067179516

>  <minimizedRMSD>
2.10764933

$$$$
