
 OpenBabel03252502383D

 36 38  0  0  1  0  0  0  0  0999 V2000
   47.1120   33.4720   37.1280 C   0  0  1  0  0  0  0  0  0  0  0  0
   47.3820   34.5300   36.8970 H   0  0  0  0  0  0  0  0  0  0  0  0
   47.1330   33.3650   38.5730 N   0  0  0  0  0  0  0  0  0  0  0  0
   48.0390   34.2250   39.2210 C   0  0  0  0  0  0  0  0  0  0  0  0
   48.1730   33.6620   40.6540 C   0  0  0  0  0  0  0  0  0  0  0  0
   46.9260   33.9970   41.2700 N   0  0  0  0  0  0  0  0  0  0  0  0
   45.7710   33.5050   40.6190 C   0  0  0  0  0  0  0  0  0  0  0  0
   45.8330   33.2890   39.1450 C   0  0  0  0  0  0  0  0  0  0  0  0
   49.0520   34.0770   38.7720 H   0  0  0  0  0  0  0  0  0  0  0  0
   47.7540   35.2820   39.2660 H   0  0  0  0  0  0  0  0  0  0  0  0
   48.9590   34.2860   41.1150 H   0  0  0  0  0  0  0  0  0  0  0  0
   48.3610   32.5910   40.6240 H   0  0  0  0  0  0  0  0  0  0  0  0
   46.8760   34.9320   41.6870 H   0  0  0  0  0  0  0  0  0  0  0  0
   44.9230   34.2060   40.8900 H   0  0  0  0  0  0  0  0  0  0  0  0
   45.4880   32.5550   41.1290 H   0  0  0  0  0  0  0  0  0  0  0  0
   45.1820   34.0360   38.6540 H   0  0  0  0  0  0  0  0  0  0  0  0
   45.3590   32.2940   38.9660 H   0  0  0  0  0  0  0  0  0  0  0  0
   48.4180   32.7780   35.1330 C   0  0  0  0  0  0  0  0  0  0  0  0
   48.0100   32.5890   36.4440 C   0  0  0  0  0  0  0  0  0  0  0  0
   48.5320   31.4500   37.0660 C   0  0  0  0  0  0  0  0  0  0  0  0
   49.3790   30.6160   36.3840 N   0  0  0  0  0  0  0  0  0  0  0  0
   49.7320   30.8660   35.1080 C   0  0  0  0  0  0  0  0  0  0  0  0
   49.2500   31.9550   34.4700 N   0  0  0  0  0  0  0  0  0  0  0  0
   48.0270   33.6590   34.6220 H   0  0  0  0  0  0  0  0  0  0  0  0
   48.2780   31.2130   38.0800 H   0  0  0  0  0  0  0  0  0  0  0  0
   50.4020   30.1150   34.7210 H   0  0  0  0  0  0  0  0  0  0  0  0
   45.6810   33.2330   36.6360 C   0  0  0  0  0  0  0  0  0  0  0  0
   44.9650   33.4290   37.4900 H   0  0  0  0  0  0  0  0  0  0  0  0
   45.4590   33.9430   35.7930 H   0  0  0  0  0  0  0  0  0  0  0  0
   45.4130   31.8740   36.1480 C   0  0  0  0  0  0  0  0  0  0  0  0
   45.3640   30.5800   36.5750 C   0  0  0  0  0  3  0  0  0  0  0  0
   45.0830   29.4840   35.8020 C   0  0  0  0  0  0  0  0  0  0  0  0
   45.1000   28.5680   36.3540 H   0  0  0  0  0  0  0  0  0  0  0  0
   44.8350   29.6970   34.5060 N   0  0  0  0  0  0  0  0  0  0  0  0
   44.8690   30.9300   34.0300 C   0  0  0  0  0  3  0  0  0  0  0  0
   45.1430   31.9700   34.8070 N   0  0  0  0  0  0  0  0  0  0  0  0
  1  2  1  6  0  0  0
  1  3  1  0  0  0  0
  3  8  1  0  0  0  0
  3  4  1  0  0  0  0
  4 10  1  0  0  0  0
  4  5  1  0  0  0  0
  5 11  1  0  0  0  0
  5  6  1  0  0  0  0
  6 13  1  0  0  0  0
  7 14  1  0  0  0  0
  7 15  1  0  0  0  0
  7  6  1  0  0  0  0
  8  7  1  0  0  0  0
  9  4  1  0  0  0  0
 12  5  1  0  0  0  0
 16  8  1  0  0  0  0
 17  8  1  0  0  0  0
 18 19  1  0  0  0  0
 19 20  2  0  0  0  0
 19  1  1  0  0  0  0
 20 25  1  0  0  0  0
 21 20  1  0  0  0  0
 22 21  2  0  0  0  0
 23 22  1  0  0  0  0
 23 18  2  0  0  0  0
 24 18  1  0  0  0  0
 26 22  1  0  0  0  0
 27  1  1  0  0  0  0
 27 28  1  0  0  0  0
 29 27  1  0  0  0  0
 30 31  1  0  0  0  0
 30 27  1  0  0  0  0
 32 33  1  0  0  0  0
 32 31  2  0  0  0  0
 34 32  1  0  0  0  0
 35 34  2  0  0  0  0
 35 36  1  0  0  0  0
 36 30  2  0  0  0  0
M  END
>  <minimizedAffinity>
-3.21773171

>  <minimizedRMSD>
8.6834898

$$$$
