
 OpenBabel03252509043D

 46 48  0  0  1  0  0  0  0  0999 V2000
   47.1320   34.2230   43.0630 N   0  0  0  0  0  0  0  0  0  0  0  0
   46.6280   35.4360   42.5310 C   0  0  0  0  0  0  0  0  0  0  0  0
   45.1590   35.6900   42.7880 C   0  0  0  0  0  0  0  0  0  0  0  0
   44.6410   35.1210   44.0870 C   0  0  0  0  0  0  0  0  0  0  0  0
   45.7570   34.5240   44.9110 C   0  0  0  0  0  0  0  0  0  0  0  0
   46.3920   33.4560   43.9380 C   0  0  2  0  0  0  0  0  0  0  0  0
   47.1830   36.2680   43.0510 H   0  0  0  0  0  0  0  0  0  0  0  0
   46.7930   35.6180   41.4650 H   0  0  0  0  0  0  0  0  0  0  0  0
   44.5610   35.3250   41.9100 H   0  0  0  0  0  0  0  0  0  0  0  0
   44.9730   36.7930   42.8300 H   0  0  0  0  0  0  0  0  0  0  0  0
   43.9880   35.8120   44.6430 H   0  0  0  0  0  0  0  0  0  0  0  0
   43.9890   34.2460   43.8060 H   0  0  0  0  0  0  0  0  0  0  0  0
   46.5300   35.2470   45.1890 H   0  0  0  0  0  0  0  0  0  0  0  0
   45.2880   33.9980   45.7630 H   0  0  0  0  0  0  0  0  0  0  0  0
   45.5380   32.8670   43.5460 H   0  0  0  0  0  0  0  0  0  0  0  0
   48.0830   33.5530   42.1990 C   0  0  0  0  0  0  0  0  0  0  0  0
   48.6840   34.3570   41.7230 H   0  0  0  0  0  0  0  0  0  0  0  0
   48.8140   32.9450   42.7890 H   0  0  0  0  0  0  0  0  0  0  0  0
   47.3350   32.7800   41.1800 C   0  0  0  0  0  0  0  0  0  0  0  0
   47.3250   31.7170   41.4250 H   0  0  0  0  0  0  0  0  0  0  0  0
   46.2430   33.0780   41.1630 H   0  0  0  0  0  0  0  0  0  0  0  0
   49.3200   32.2740   38.0190 C   0  0  0  0  0  0  0  0  0  0  0  0
   48.7320   32.0730   39.2840 C   0  0  0  0  0  0  0  0  0  0  0  0
   47.9380   33.0220   39.8460 C   0  0  0  0  0  0  0  0  0  0  0  0
   47.7450   34.1420   39.1440 N   0  0  0  0  0  0  0  0  0  0  0  0
   48.2920   34.3570   37.9380 C   0  0  0  0  0  0  0  0  0  0  0  0
   49.0820   33.4370   37.3590 N   0  0  0  0  0  0  0  0  0  0  0  0
   49.9460   31.5560   37.5470 H   0  0  0  0  0  0  0  0  0  0  0  0
   48.9920   31.1180   39.7040 H   0  0  0  0  0  0  0  0  0  0  0  0
   48.0490   35.3130   37.4820 H   0  0  0  0  0  0  0  0  0  0  0  0
   47.1790   32.7350   44.8060 O   0  0  0  0  0  0  0  0  0  0  0  0
   45.7180   30.6670   43.9560 O   0  0  0  0  0  0  0  0  0  0  0  0
   46.5870   31.2050   45.1160 P   0  0  2  0  0  0  0  0  0  0  0  0
   45.4560   31.3740   46.4080 O   0  0  0  0  0  0  0  0  0  0  0  0
   45.8960   31.9490   47.0920 H   0  0  0  0  0  0  0  0  0  0  0  0
   47.7160   30.0970   45.5870 O   0  0  0  0  0  0  0  0  0  0  0  0
   48.1550   29.3530   44.5240 C   0  0  0  0  0  0  0  0  0  0  0  0
   47.3680   29.5040   43.7170 H   0  0  0  0  0  0  0  0  0  0  0  0
   47.9810   28.2710   44.8080 H   0  0  0  0  0  0  0  0  0  0  0  0
   49.5000   29.5910   44.0270 C   0  0  0  0  0  0  0  0  0  0  0  0
   49.4500   30.1590   42.7490 C   0  0  0  0  0  3  0  0  0  0  0  0
   50.6700   30.4970   42.1510 C   0  0  0  0  0  0  0  0  0  0  0  0
   50.7340   30.9480   41.1490 H   0  0  0  0  0  0  0  0  0  0  0  0
   51.8610   30.3000   42.7460 N   0  0  0  0  0  0  0  0  0  0  0  0
   51.8540   29.7510   43.9740 C   0  0  0  0  0  3  0  0  0  0  0  0
   50.7180   29.4040   44.6060 N   0  0  0  0  0  0  0  0  0  0  0  0
  1  6  1  0  0  0  0
  2  3  1  0  0  0  0
  2  7  1  0  0  0  0
  2  1  1  0  0  0  0
  3 10  1  0  0  0  0
  3  4  1  0  0  0  0
  4 11  1  0  0  0  0
  4  5  1  0  0  0  0
  5 13  1  0  0  0  0
  5 14  1  0  0  0  0
  6 15  1  6  0  0  0
  6 31  1  0  0  0  0
  6  5  1  0  0  0  0
  8  2  1  0  0  0  0
  9  3  1  0  0  0  0
 12  4  1  0  0  0  0
 16 18  1  0  0  0  0
 16  1  1  0  0  0  0
 17 16  1  0  0  0  0
 19 20  1  0  0  0  0
 19 16  1  0  0  0  0
 21 19  1  0  0  0  0
 22 23  1  0  0  0  0
 23 29  1  0  0  0  0
 23 24  2  0  0  0  0
 24 19  1  0  0  0  0
 25 24  1  0  0  0  0
 26 25  2  0  0  0  0
 27 26  1  0  0  0  0
 27 22  2  0  0  0  0
 28 22  1  0  0  0  0
 30 26  1  0  0  0  0
 31 33  1  0  0  0  0
 33 32  2  6  0  0  0
 33 36  1  0  0  0  0
 33 34  1  0  0  0  0
 34 35  1  0  0  0  0
 37 39  1  0  0  0  0
 37 36  1  0  0  0  0
 38 37  1  0  0  0  0
 40 37  1  0  0  0  0
 40 46  1  0  0  0  0
 41 40  2  0  0  0  0
 42 44  2  0  0  0  0
 42 41  1  0  0  0  0
 43 42  1  0  0  0  0
 44 45  1  0  0  0  0
 45 46  2  0  0  0  0
M  END
>  <minimizedAffinity>
-3.89010739

>  <minimizedRMSD>
1.63442218

$$$$
