
 OpenBabel03252504323D

 38 40  0  0  0  0  0  0  0  0999 V2000
   43.8910   35.3510   41.1980 C   0  0  0  0  0  3  0  0  0  0  0  0
   43.9090   35.4770   42.5220 C   0  0  0  0  0  3  0  0  0  0  0  0
   45.1790   35.5190   43.3580 C   0  0  0  0  0  0  0  0  0  0  0  0
   45.3650   36.5380   43.7540 H   0  0  0  0  0  0  0  0  0  0  0  0
   45.9990   35.2590   42.6710 H   0  0  0  0  0  0  0  0  0  0  0  0
   44.9980   34.6220   44.3950 O   0  0  0  0  0  0  0  0  0  0  0  0
   45.6960   32.5010   42.9480 O   0  0  0  0  0  0  0  0  0  0  0  0
   46.0120   33.2860   44.2010 P   0  0  1  0  0  0  0  0  0  0  0  0
   47.6350   33.7950   44.0760 O   0  0  0  0  0  0  0  0  0  0  0  0
   47.7280   34.5450   43.4350 H   0  0  0  0  0  0  0  0  0  0  0  0
   45.9130   32.2830   45.5530 O   0  0  0  0  0  0  0  0  0  0  0  0
   46.1620   32.9610   46.7320 C   0  0  0  0  0  0  0  0  0  0  0  0
   47.0280   32.3260   47.7710 C   0  0  0  0  0  0  0  0  0  0  0  0
   45.5200   32.3690   47.9640 C   0  0  0  0  0  0  0  0  0  0  0  0
   46.2350   34.0630   46.6590 H   0  0  0  0  0  0  0  0  0  0  0  0
   47.4950   31.3410   47.5490 H   0  0  0  0  0  0  0  0  0  0  0  0
   47.5650   33.0080   48.4580 H   0  0  0  0  0  0  0  0  0  0  0  0
   45.0080   31.3920   47.8920 H   0  0  0  0  0  0  0  0  0  0  0  0
   45.0910   33.0700   48.7100 H   0  0  0  0  0  0  0  0  0  0  0  0
   42.6460   35.3270   40.5970 O   0  0  0  0  0  0  0  0  0  0  0  0
   41.4340   35.4460   41.1880 C   0  0  0  0  0  0  0  0  0  0  0  0
   41.3940   35.6450   42.2850 H   0  0  0  0  0  0  0  0  0  0  0  0
   40.8850   36.3290   40.7480 H   0  0  0  0  0  0  0  0  0  0  0  0
   41.1040   33.0540   41.4400 C   0  0  0  0  0  0  0  0  0  0  0  0
   40.5400   34.2600   41.0080 C   0  0  0  0  0  0  0  0  0  0  0  0
   39.2860   34.2580   40.5100 C   0  0  0  0  0  0  0  0  0  0  0  0
   38.6670   33.0760   40.4690 N   0  0  0  0  0  0  0  0  0  0  0  0
   39.1790   31.9180   40.8730 C   0  0  0  0  0  0  0  0  0  0  0  0
   40.4740   31.8770   41.3950 N   0  0  0  0  0  0  0  0  0  0  0  0
   42.1040   32.9870   41.8480 H   0  0  0  0  0  0  0  0  0  0  0  0
   38.8890   35.1970   40.1880 H   0  0  0  0  0  0  0  0  0  0  0  0
   38.4510   30.6520   40.8050 C   0  0  0  0  0  0  0  0  0  0  0  0
   37.8660   30.3300   39.5980 C   0  0  0  0  0  3  0  0  0  0  0  0
   37.1760   29.1120   39.5640 C   0  0  0  0  0  0  0  0  0  0  0  0
   36.7200   28.8690   38.6110 H   0  0  0  0  0  0  0  0  0  0  0  0
   37.0850   28.3020   40.6320 N   0  0  0  0  0  0  0  0  0  0  0  0
   37.6720   28.6580   41.7880 C   0  0  0  0  0  3  0  0  0  0  0  0
   38.3550   29.8370   41.8720 N   0  0  0  0  0  0  0  0  0  0  0  0
  1  2  2  0  0  0  0
  2  3  1  0  0  0  0
  3  4  1  0  0  0  0
  3  6  1  0  0  0  0
  5  3  1  0  0  0  0
  8  7  2  6  0  0  0
  8  6  1  0  0  0  0
  8 11  1  0  0  0  0
  9  8  1  0  0  0  0
 10  9  1  0  0  0  0
 11 12  1  0  0  0  0
 12 13  1  0  0  0  0
 12 14  1  0  0  0  0
 13 14  1  0  0  0  0
 13 17  1  0  0  0  0
 14 19  1  0  0  0  0
 15 12  1  0  0  0  0
 16 13  1  0  0  0  0
 18 14  1  0  0  0  0
 20 21  1  0  0  0  0
 20  1  1  0  0  0  0
 21 22  1  0  0  0  0
 23 21  1  0  0  0  0
 24 30  1  0  0  0  0
 25 21  1  0  0  0  0
 25 24  2  0  0  0  0
 26 25  1  0  0  0  0
 27 26  2  0  0  0  0
 27 28  1  0  0  0  0
 28 29  2  0  0  0  0
 29 24  1  0  0  0  0
 31 26  1  0  0  0  0
 32 28  1  0  0  0  0
 32 38  1  0  0  0  0
 33 32  2  0  0  0  0
 34 33  1  0  0  0  0
 34 36  2  0  0  0  0
 35 34  1  0  0  0  0
 36 37  1  0  0  0  0
 37 38  2  0  0  0  0
M  END
>  <minimizedAffinity>
-5.01402855

>  <minimizedRMSD>
1.17164433

$$$$
