
 OpenBabel03242513493D

 29 31  0  0  1  0  0  0  0  0999 V2000
   45.7180   34.3870   41.5110 C   0  0  2  0  0  0  0  0  0  0  0  0
   44.5990   33.7930   40.7080 C   0  0  0  0  0  0  0  0  0  0  0  0
   45.3390   33.4000   39.4380 C   0  0  0  0  0  0  0  0  0  0  0  0
   46.7380   33.0500   39.8960 C   0  0  0  0  0  0  0  0  0  0  0  0
   46.7540   33.2840   41.3960 C   0  0  1  0  0  0  0  0  0  0  0  0
   46.0500   35.3070   40.9710 H   0  0  0  0  0  0  0  0  0  0  0  0
   43.8250   34.5540   40.5160 H   0  0  0  0  0  0  0  0  0  0  0  0
   44.1870   32.8820   41.1910 H   0  0  0  0  0  0  0  0  0  0  0  0
   44.8320   32.4800   39.0270 H   0  0  0  0  0  0  0  0  0  0  0  0
   45.3240   34.2330   38.7230 H   0  0  0  0  0  0  0  0  0  0  0  0
   46.9730   31.9840   39.7120 H   0  0  0  0  0  0  0  0  0  0  0  0
   47.5040   33.7230   39.4240 H   0  0  0  0  0  0  0  0  0  0  0  0
   46.3320   32.4210   41.9490 H   0  0  0  0  0  0  0  0  0  0  0  0
   44.5710   36.1500   44.6320 C   0  0  0  0  0  0  0  0  0  0  0  0
   44.8580   35.9700   43.2640 C   0  0  0  0  0  0  0  0  0  0  0  0
   45.3790   34.7240   42.9000 C   0  0  0  0  0  0  0  0  0  0  0  0
   45.5870   33.7490   43.8580 N   0  0  0  0  0  0  0  0  0  0  0  0
   45.2890   33.9910   45.1560 C   0  0  0  0  0  0  0  0  0  0  0  0
   44.7850   35.1800   45.5420 N   0  0  0  0  0  0  0  0  0  0  0  0
   44.1740   37.1370   44.8230 H   0  0  0  0  0  0  0  0  0  0  0  0
   44.6990   36.7220   42.5170 H   0  0  0  0  0  0  0  0  0  0  0  0
   45.4380   33.2560   45.9240 H   0  0  0  0  0  0  0  0  0  0  0  0
   48.1070   33.6530   41.7860 C   0  0  0  0  0  0  0  0  0  0  0  0
   48.6040   34.9280   42.0630 C   0  0  0  0  0  0  0  0  0  0  0  0
   49.9210   35.1300   42.4240 C   0  0  0  0  0  0  0  0  0  0  0  0
   50.2670   36.1310   42.6300 H   0  0  0  0  0  0  0  0  0  0  0  0
   50.7640   34.0740   42.5150 N   0  0  0  0  0  0  0  0  0  0  0  0
   50.2860   32.8280   42.2470 C   0  0  0  0  0  0  0  0  0  0  0  0
   49.0000   32.6490   41.8970 N   0  0  0  0  0  0  0  0  0  0  0  0
  1  6  1  6  0  0  0
  1 16  1  0  0  0  0
  2  8  1  0  0  0  0
  2  1  1  0  0  0  0
  3  4  1  0  0  0  0
  3  2  1  0  0  0  0
  4  5  1  0  0  0  0
  5  1  1  0  0  0  0
  5 23  1  0  0  0  0
  5 13  1  1  0  0  0
  7  2  1  0  0  0  0
  9  3  1  0  0  0  0
 10  3  1  0  0  0  0
 11  4  1  0  0  0  0
 12  4  1  0  0  0  0
 14 20  1  0  0  0  0
 14 19  1  0  0  0  0
 15 14  2  0  0  0  0
 16 15  1  0  0  0  0
 16 17  2  0  0  0  0
 17 18  1  0  0  0  0
 18 19  2  0  0  0  0
 18 22  1  0  0  0  0
 21 15  1  0  0  0  0
 23 29  2  0  0  0  0
 23 24  1  0  0  0  0
 24 25  2  0  0  0  0
 25 27  1  0  0  0  0
 25 26  1  0  0  0  0
 28 27  2  0  0  0  0
 29 28  1  0  0  0  0
M  END
>  <minimizedAffinity>
-4.85851288

>  <minimizedRMSD>
2.98920059

$$$$
