
 OpenBabel03242523333D

 35 38  0  0  0  0  0  0  0  0999 V2000
   45.6640   33.0360   46.8030 C   0  0  0  0  0  0  0  0  0  0  0  0
   44.6470   32.6520   47.0350 H   0  0  0  0  0  0  0  0  0  0  0  0
   46.1150   33.5440   47.6750 H   0  0  0  0  0  0  0  0  0  0  0  0
   44.5260   35.8900   44.7020 C   0  0  0  0  0  0  0  0  0  0  0  0
   45.2890   35.6840   43.5320 C   0  0  0  0  0  0  0  0  0  0  0  0
   46.1590   34.5930   43.4940 C   0  0  0  0  0  0  0  0  0  0  0  0
   46.2630   33.7470   44.5690 N   0  0  0  0  0  0  0  0  0  0  0  0
   45.4950   33.9940   45.6890 C   0  0  0  0  0  0  0  0  0  0  0  0
   44.6600   35.0470   45.7180 N   0  0  0  0  0  0  0  0  0  0  0  0
   43.8510   36.7330   44.7410 H   0  0  0  0  0  0  0  0  0  0  0  0
   45.1800   36.3710   42.7040 H   0  0  0  0  0  0  0  0  0  0  0  0
   46.9520   34.3690   42.2920 C   0  0  0  0  0  0  0  0  0  0  0  0
   47.8350   35.3330   41.8540 C   0  0  0  0  0  3  0  0  0  0  0  0
   48.5180   34.9850   40.7050 C   0  0  0  0  0  0  0  0  0  0  0  0
   49.2360   35.7070   40.3020 H   0  0  0  0  0  0  0  0  0  0  0  0
   48.3590   33.8070   40.0400 N   0  0  0  0  0  0  0  0  0  0  0  0
   47.4660   32.9040   40.5340 C   0  0  0  0  0  3  0  0  0  0  0  0
   46.7790   33.2000   41.6500 N   0  0  0  0  0  0  0  0  0  0  0  0
   46.6300   31.6470   46.1810 S   0  0  0  0  0  0  0  0  0  0  0  0
   47.6880   30.9850   47.4470 C   0  0  0  0  0  0  0  0  0  0  0  0
   48.0470   31.8250   48.4750 C   0  0  0  0  0  0  0  0  0  0  0  0
   48.8620   31.3280   49.4630 C   0  0  0  0  0  0  0  0  0  0  0  0
   49.3280   30.0260   49.4570 C   0  0  0  0  0  0  0  0  0  0  0  0
   50.1210   29.5630   50.4340 N   0  0  0  0  0  0  0  0  0  0  0  0
   50.5790   28.3000   50.4410 C   0  0  0  0  0  0  0  0  0  0  0  0
   50.2230   27.4550   49.4140 C   0  0  0  0  0  0  0  0  0  0  0  0
   49.4010   27.9120   48.3910 C   0  0  0  0  0  0  0  0  0  0  0  0
   48.9260   29.2310   48.3890 C   0  0  0  0  0  0  0  0  0  0  0  0
   48.1090   29.6830   47.3720 C   0  0  0  0  0  0  0  0  0  0  0  0
   47.7760   32.8430   48.6230 H   0  0  0  0  0  0  0  0  0  0  0  0
   49.1990   31.9260   50.3210 H   0  0  0  0  0  0  0  0  0  0  0  0
   51.2230   27.9560   51.2520 H   0  0  0  0  0  0  0  0  0  0  0  0
   50.5690   26.4340   49.3820 H   0  0  0  0  0  0  0  0  0  0  0  0
   49.0910   27.2930   47.5610 H   0  0  0  0  0  0  0  0  0  0  0  0
   47.8200   29.0280   46.5570 H   0  0  0  0  0  0  0  0  0  0  0  0
  1  2  1  0  0  0  0
  1  3  1  0  0  0  0
  4 10  1  0  0  0  0
  4  9  1  0  0  0  0
  5  4  2  0  0  0  0
  6  5  1  0  0  0  0
  6  7  2  0  0  0  0
  7  8  1  0  0  0  0
  8  9  2  0  0  0  0
  8  1  1  0  0  0  0
 11  5  1  0  0  0  0
 12  6  1  0  0  0  0
 13 12  1  0  0  0  0
 14 13  2  0  0  0  0
 15 14  1  0  0  0  0
 16 17  2  0  0  0  0
 16 14  1  0  0  0  0
 17 18  1  0  0  0  0
 18 12  2  0  0  0  0
 19  1  1  0  0  0  0
 19 20  1  0  0  0  0
 20 21  1  0  0  0  0
 21 30  1  0  0  0  0
 21 22  2  0  0  0  0
 22 31  1  0  0  0  0
 23 22  1  0  0  0  0
 23 24  1  0  0  0  0
 24 25  2  0  0  0  0
 25 32  1  0  0  0  0
 26 25  1  0  0  0  0
 27 26  2  0  0  0  0
 28 27  1  0  0  0  0
 28 23  2  0  0  0  0
 29 20  2  0  0  0  0
 29 28  1  0  0  0  0
 33 26  1  0  0  0  0
 34 27  1  0  0  0  0
 35 29  1  0  0  0  0
M  END
>  <minimizedAffinity>
-6.04902077

>  <minimizedRMSD>
0.20970282

$$$$
