
 OpenBabel03252507223D

 45 48  0  0  1  0  0  0  0  0999 V2000
   47.0830   33.1500   43.1640 C   0  0  0  0  0  0  0  0  0  0  0  0
   48.2940   33.1880   43.5230 O   0  0  0  0  0  0  0  0  0  0  0  0
   46.5710   32.2220   42.2220 N   0  0  0  0  0  0  0  0  0  0  0  0
   45.3310   31.4280   42.2490 C   0  0  0  0  0  0  0  0  0  0  0  0
   44.5640   31.6440   40.9500 C   0  0  0  0  0  0  0  0  0  0  0  0
   45.3480   31.1210   39.7940 C   0  0  0  0  0  0  0  0  0  0  0  0
   46.7810   30.8660   40.2190 C   0  0  0  0  0  0  0  0  0  0  0  0
   47.3420   31.9680   41.0420 C   0  0  2  0  0  0  0  0  0  0  0  0
   44.6960   31.8200   43.0750 H   0  0  0  0  0  0  0  0  0  0  0  0
   45.5590   30.3510   42.3260 H   0  0  0  0  0  0  0  0  0  0  0  0
   44.3790   32.7290   40.8400 H   0  0  0  0  0  0  0  0  0  0  0  0
   43.5880   31.1420   41.0900 H   0  0  0  0  0  0  0  0  0  0  0  0
   45.2910   31.7300   38.8740 H   0  0  0  0  0  0  0  0  0  0  0  0
   44.9290   30.1240   39.5310 H   0  0  0  0  0  0  0  0  0  0  0  0
   47.3680   30.8330   39.2580 H   0  0  0  0  0  0  0  0  0  0  0  0
   46.9060   29.8900   40.6970 H   0  0  0  0  0  0  0  0  0  0  0  0
   47.2420   32.9090   40.4160 H   0  0  0  0  0  0  0  0  0  0  0  0
   45.7930   35.2170   42.9680 C   0  0  0  0  0  0  0  0  0  0  0  0
   46.1850   34.1110   43.7570 C   0  0  0  0  0  0  0  0  0  0  0  0
   45.7090   33.9710   45.0530 C   0  0  0  0  0  0  0  0  0  0  0  0
   44.8690   34.9280   45.5140 N   0  0  0  0  0  0  0  0  0  0  0  0
   44.4800   35.9990   44.7710 C   0  0  0  0  0  0  0  0  0  0  0  0
   44.9530   36.1220   43.5100 N   0  0  0  0  0  0  0  0  0  0  0  0
   46.1880   35.2870   41.9650 H   0  0  0  0  0  0  0  0  0  0  0  0
   43.8060   36.7290   45.1990 H   0  0  0  0  0  0  0  0  0  0  0  0
   46.1350   32.8340   45.8280 C   0  0  0  0  0  0  0  0  0  0  0  0
   45.6430   31.5990   45.5770 C   0  0  0  0  0  0  0  0  0  0  0  0
   46.0740   30.5310   46.3380 C   0  0  0  0  0  0  0  0  0  0  0  0
   47.0050   30.6650   47.3640 C   0  0  0  0  0  0  0  0  0  0  0  0
   47.4770   31.9470   47.5790 C   0  0  0  0  0  0  0  0  0  0  0  0
   47.0400   32.9640   46.8260 N   0  0  0  0  0  0  0  0  0  0  0  0
   44.9170   31.3500   44.8180 H   0  0  0  0  0  0  0  0  0  0  0  0
   45.7090   29.5260   46.1730 H   0  0  0  0  0  0  0  0  0  0  0  0
   47.3460   29.8310   47.9620 H   0  0  0  0  0  0  0  0  0  0  0  0
   48.2040   32.1200   48.3640 H   0  0  0  0  0  0  0  0  0  0  0  0
   48.8040   31.7890   41.2620 C   0  0  0  0  0  0  0  0  0  0  0  0
   49.3060   32.4170   41.9880 H   0  0  0  0  0  0  0  0  0  0  0  0
   48.9800   30.7560   41.6250 H   0  0  0  0  0  0  0  0  0  0  0  0
   49.5590   31.8400   39.9380 C   0  0  0  0  0  0  0  0  0  0  0  0
   49.0220   32.4620   38.8240 C   0  0  0  0  0  3  0  0  0  0  0  0
   49.7340   32.4800   37.6320 C   0  0  0  0  0  0  0  0  0  0  0  0
   49.3130   32.9700   36.7480 H   0  0  0  0  0  0  0  0  0  0  0  0
   50.9410   31.8900   37.5700 N   0  0  0  0  0  0  0  0  0  0  0  0
   51.4290   31.2960   38.6730 C   0  0  0  0  0  3  0  0  0  0  0  0
   50.7720   31.2580   39.8470 N   0  0  0  0  0  0  0  0  0  0  0  0
  1  2  2  0  0  0  0
  1 19  1  0  0  0  0
  3  4  1  0  0  0  0
  3  1  1  0  0  0  0
  4 10  1  0  0  0  0
  4  9  1  0  0  0  0
  5 12  1  0  0  0  0
  5  4  1  0  0  0  0
  6  7  1  0  0  0  0
  6  5  1  0  0  0  0
  7 16  1  0  0  0  0
  7  8  1  0  0  0  0
  8 17  1  6  0  0  0
  8 36  1  0  0  0  0
  8  3  1  0  0  0  0
 11  5  1  0  0  0  0
 13  6  1  0  0  0  0
 14  6  1  0  0  0  0
 15  7  1  0  0  0  0
 18 23  2  0  0  0  0
 18 19  1  0  0  0  0
 19 20  2  0  0  0  0
 20 21  1  0  0  0  0
 20 26  1  0  0  0  0
 22 25  1  0  0  0  0
 22 21  2  0  0  0  0
 23 22  1  0  0  0  0
 24 18  1  0  0  0  0
 26 31  1  0  0  0  0
 27 26  2  0  0  0  0
 27 28  1  0  0  0  0
 28 29  2  0  0  0  0
 29 30  1  0  0  0  0
 29 34  1  0  0  0  0
 30 35  1  0  0  0  0
 31 30  2  0  0  0  0
 32 27  1  0  0  0  0
 33 28  1  0  0  0  0
 36 38  1  0  0  0  0
 36 37  1  0  0  0  0
 39 36  1  0  0  0  0
 40 39  2  0  0  0  0
 41 40  1  0  0  0  0
 42 41  1  0  0  0  0
 43 41  2  0  0  0  0
 43 44  1  0  0  0  0
 44 45  2  0  0  0  0
 45 39  1  0  0  0  0
M  END
>  <minimizedAffinity>
-5.08487511

>  <minimizedRMSD>
1.25393987

$$$$
