
 OpenBabel03252505163D

 23 25  0  0  0  0  0  0  0  0999 V2000
   36.5190   27.9890   38.9630 C   0  0  0  0  0  0  0  0  0  0  0  0
   36.5890   27.1490   40.0880 C   0  0  0  0  0  0  0  0  0  0  0  0
   37.0460   27.7420   41.2550 C   0  0  0  0  0  0  0  0  0  0  0  0
   37.4010   29.0690   41.2800 N   0  0  0  0  0  0  0  0  0  0  0  0
   37.3130   29.8380   40.1540 C   0  0  0  0  0  0  0  0  0  0  0  0
   36.8710   29.2800   39.0140 N   0  0  0  0  0  0  0  0  0  0  0  0
   36.1580   27.5050   38.0570 H   0  0  0  0  0  0  0  0  0  0  0  0
   36.3060   26.1050   40.0600 H   0  0  0  0  0  0  0  0  0  0  0  0
   37.1390   26.9500   42.5310 C   0  0  0  0  0  0  0  0  0  0  0  0
   37.8780   27.6870   43.6280 C   0  0  0  0  0  0  0  0  0  0  0  0
   36.3590   27.3880   43.6800 C   0  0  0  0  0  0  0  0  0  0  0  0
   37.3630   25.8580   42.4290 H   0  0  0  0  0  0  0  0  0  0  0  0
   38.5310   27.0570   44.2370 H   0  0  0  0  0  0  0  0  0  0  0  0
   38.2200   28.7040   43.4480 H   0  0  0  0  0  0  0  0  0  0  0  0
   35.7680   28.3390   43.5710 H   0  0  0  0  0  0  0  0  0  0  0  0
   36.0010   26.7040   44.4720 H   0  0  0  0  0  0  0  0  0  0  0  0
   37.6950   31.2450   40.2060 C   0  0  0  0  0  0  0  0  0  0  0  0
   37.0000   32.1680   39.4650 C   0  0  0  0  0  3  0  0  0  0  0  0
   37.3990   33.4840   39.5460 C   0  0  0  0  0  0  0  0  0  0  0  0
   36.9530   34.3090   39.0280 H   0  0  0  0  0  0  0  0  0  0  0  0
   38.4440   33.8580   40.3320 N   0  0  0  0  0  0  0  0  0  0  0  0
   39.0990   32.9220   41.0420 C   0  0  0  0  0  3  0  0  0  0  0  0
   38.7300   31.6090   40.9850 N   0  0  0  0  0  0  0  0  0  0  0  0
  1  6  2  0  0  0  0
  1  2  1  0  0  0  0
  2  3  2  0  0  0  0
  3  4  1  0  0  0  0
  3  9  1  0  0  0  0
  5 17  1  0  0  0  0
  5  4  2  0  0  0  0
  6  5  1  0  0  0  0
  7  1  1  0  0  0  0
  8  2  1  0  0  0  0
  9 10  1  0  0  0  0
  9 11  1  0  0  0  0
 10 11  1  0  0  0  0
 10 13  1  0  0  0  0
 11 16  1  0  0  0  0
 12  9  1  0  0  0  0
 14 10  1  0  0  0  0
 15 11  1  0  0  0  0
 17 23  1  0  0  0  0
 18 19  1  0  0  0  0
 18 17  2  0  0  0  0
 19 21  2  0  0  0  0
 20 19  1  0  0  0  0
 21 22  1  0  0  0  0
 23 22  2  0  0  0  0
M  END
>  <minimizedAffinity>
-4.55305243

$$$$

 OpenBabel03252505163D

 23 25  0  0  0  0  0  0  0  0999 V2000
   36.0670   28.2250   41.5250 C   0  0  0  0  0  0  0  0  0  0  0  0
   36.9120   27.5100   42.3920 C   0  0  0  0  0  0  0  0  0  0  0  0
   38.0960   28.1450   42.7370 C   0  0  0  0  0  0  0  0  0  0  0  0
   38.3960   29.3930   42.2460 N   0  0  0  0  0  0  0  0  0  0  0  0
   37.5360   30.0400   41.4050 C   0  0  0  0  0  0  0  0  0  0  0  0
   36.3830   29.4400   41.0600 N   0  0  0  0  0  0  0  0  0  0  0  0
   35.1430   27.7100   41.2650 H   0  0  0  0  0  0  0  0  0  0  0  0
   36.6670   26.5290   42.7740 H   0  0  0  0  0  0  0  0  0  0  0  0
   39.0690   27.4910   43.6790 C   0  0  0  0  0  0  0  0  0  0  0  0
   39.4130   26.0710   43.2780 C   0  0  0  0  0  0  0  0  0  0  0  0
   40.4260   27.2420   43.2130 C   0  0  0  0  0  0  0  0  0  0  0  0
   38.9100   27.6730   44.7720 H   0  0  0  0  0  0  0  0  0  0  0  0
   39.5080   25.3760   44.1140 H   0  0  0  0  0  0  0  0  0  0  0  0
   39.0010   25.6660   42.3570 H   0  0  0  0  0  0  0  0  0  0  0  0
   40.6610   27.4990   42.1430 H   0  0  0  0  0  0  0  0  0  0  0  0
   41.3040   27.1930   43.8840 H   0  0  0  0  0  0  0  0  0  0  0  0
   37.8760   31.3650   40.8980 C   0  0  0  0  0  0  0  0  0  0  0  0
   37.0170   32.0100   40.0440 C   0  0  0  0  0  3  0  0  0  0  0  0
   37.3820   33.2590   39.5920 C   0  0  0  0  0  0  0  0  0  0  0  0
   36.8150   33.8770   38.9260 H   0  0  0  0  0  0  0  0  0  0  0  0
   38.5530   33.8340   39.9760 N   0  0  0  0  0  0  0  0  0  0  0  0
   39.3670   33.1680   40.8140 C   0  0  0  0  0  3  0  0  0  0  0  0
   39.0360   31.9290   41.2820 N   0  0  0  0  0  0  0  0  0  0  0  0
  1  2  1  0  0  0  0
  2  3  2  0  0  0  0
  2  8  1  0  0  0  0
  3  9  1  0  0  0  0
  4  3  1  0  0  0  0
  5  4  2  0  0  0  0
  6  5  1  0  0  0  0
  6  1  2  0  0  0  0
  7  1  1  0  0  0  0
  9 12  1  0  0  0  0
 10  9  1  0  0  0  0
 10 13  1  0  0  0  0
 11 10  1  0  0  0  0
 11  9  1  0  0  0  0
 11 16  1  0  0  0  0
 14 10  1  0  0  0  0
 15 11  1  0  0  0  0
 17 23  1  0  0  0  0
 17  5  1  0  0  0  0
 18 17  2  0  0  0  0
 19 21  2  0  0  0  0
 19 18  1  0  0  0  0
 20 19  1  0  0  0  0
 21 22  1  0  0  0  0
 22 23  2  0  0  0  0
M  END
>  <minimizedAffinity>
-4.53561115

$$$$

 OpenBabel03252505163D

 23 25  0  0  0  0  0  0  0  0999 V2000
   37.4850   28.1220   43.6600 C   0  0  0  0  0  0  0  0  0  0  0  0
   37.2420   26.9480   42.9270 C   0  0  0  0  0  0  0  0  0  0  0  0
   37.1940   27.0970   41.5490 C   0  0  0  0  0  0  0  0  0  0  0  0
   37.3760   28.3280   40.9660 N   0  0  0  0  0  0  0  0  0  0  0  0
   37.6090   29.4360   41.7300 C   0  0  0  0  0  0  0  0  0  0  0  0
   37.6590   29.3100   43.0670 N   0  0  0  0  0  0  0  0  0  0  0  0
   37.5170   27.9850   44.7390 H   0  0  0  0  0  0  0  0  0  0  0  0
   37.1000   25.9830   43.3940 H   0  0  0  0  0  0  0  0  0  0  0  0
   36.9670   25.9070   40.6570 C   0  0  0  0  0  0  0  0  0  0  0  0
   38.1770   25.0010   40.5640 C   0  0  0  0  0  0  0  0  0  0  0  0
   36.8610   24.5900   41.2700 C   0  0  0  0  0  0  0  0  0  0  0  0
   36.4130   26.0930   39.7030 H   0  0  0  0  0  0  0  0  0  0  0  0
   38.3590   24.5890   39.5700 H   0  0  0  0  0  0  0  0  0  0  0  0
   39.0580   25.2290   41.1610 H   0  0  0  0  0  0  0  0  0  0  0  0
   37.0150   24.5230   42.3820 H   0  0  0  0  0  0  0  0  0  0  0  0
   36.2850   23.7540   40.8280 H   0  0  0  0  0  0  0  0  0  0  0  0
   37.8000   30.7320   41.0870 C   0  0  0  0  0  0  0  0  0  0  0  0
   36.8720   31.1900   40.1860 C   0  0  0  0  0  3  0  0  0  0  0  0
   37.0970   32.4200   39.6060 C   0  0  0  0  0  0  0  0  0  0  0  0
   36.4630   32.9010   38.8900 H   0  0  0  0  0  0  0  0  0  0  0  0
   38.1980   33.1550   39.9140 N   0  0  0  0  0  0  0  0  0  0  0  0
   39.0840   32.6690   40.8030 C   0  0  0  0  0  3  0  0  0  0  0  0
   38.8920   31.4560   41.3960 N   0  0  0  0  0  0  0  0  0  0  0  0
  1  7  1  0  0  0  0
  2  8  1  0  0  0  0
  2  1  2  0  0  0  0
  3  2  1  0  0  0  0
  4  3  2  0  0  0  0
  4  5  1  0  0  0  0
  5  6  2  0  0  0  0
  6  1  1  0  0  0  0
  9 11  1  0  0  0  0
  9  3  1  0  0  0  0
 10  9  1  0  0  0  0
 10 14  1  0  0  0  0
 10 11  1  0  0  0  0
 11 15  1  0  0  0  0
 12  9  1  0  0  0  0
 13 10  1  0  0  0  0
 16 11  1  0  0  0  0
 17 23  1  0  0  0  0
 17  5  1  0  0  0  0
 18 17  2  0  0  0  0
 19 21  2  0  0  0  0
 19 18  1  0  0  0  0
 20 19  1  0  0  0  0
 21 22  1  0  0  0  0
 22 23  2  0  0  0  0
M  END
>  <minimizedAffinity>
-4.40797234

$$$$

 OpenBabel03252505163D

 23 25  0  0  0  0  0  0  0  0999 V2000
   40.0460   27.0180   43.6320 C   0  0  0  0  0  0  0  0  0  0  0  0
   39.6090   25.7020   43.4030 C   0  0  0  0  0  0  0  0  0  0  0  0
   38.5170   25.5680   42.5580 C   0  0  0  0  0  0  0  0  0  0  0  0
   37.9210   26.6710   41.9960 N   0  0  0  0  0  0  0  0  0  0  0  0
   38.3900   27.9270   42.2550 C   0  0  0  0  0  0  0  0  0  0  0  0
   39.4470   28.0760   43.0710 N   0  0  0  0  0  0  0  0  0  0  0  0
   40.9030   27.1020   44.2980 H   0  0  0  0  0  0  0  0  0  0  0  0
   40.0840   24.8390   43.8490 H   0  0  0  0  0  0  0  0  0  0  0  0
   37.9740   24.2070   42.2180 C   0  0  0  0  0  0  0  0  0  0  0  0
   36.7340   24.2680   41.3500 C   0  0  0  0  0  0  0  0  0  0  0  0
   38.0980   23.7330   40.8460 C   0  0  0  0  0  0  0  0  0  0  0  0
   37.9670   23.4490   43.0410 H   0  0  0  0  0  0  0  0  0  0  0  0
   35.9710   23.5280   41.6000 H   0  0  0  0  0  0  0  0  0  0  0  0
   36.3750   25.2350   41.0040 H   0  0  0  0  0  0  0  0  0  0  0  0
   38.5430   24.4400   40.0930 H   0  0  0  0  0  0  0  0  0  0  0  0
   38.1550   22.6630   40.5720 H   0  0  0  0  0  0  0  0  0  0  0  0
   37.7410   29.0830   41.6450 C   0  0  0  0  0  0  0  0  0  0  0  0
   36.4190   29.0110   41.2820 C   0  0  0  0  0  3  0  0  0  0  0  0
   35.8510   30.1280   40.7100 C   0  0  0  0  0  0  0  0  0  0  0  0
   34.8360   30.2170   40.3800 H   0  0  0  0  0  0  0  0  0  0  0  0
   36.5720   31.2630   40.5100 N   0  0  0  0  0  0  0  0  0  0  0  0
   37.8650   31.2920   40.8800 C   0  0  0  0  0  3  0  0  0  0  0  0
   38.4600   30.2040   41.4490 N   0  0  0  0  0  0  0  0  0  0  0  0
  1  7  1  0  0  0  0
  2  1  1  0  0  0  0
  2  8  1  0  0  0  0
  3  2  2  0  0  0  0
  4  5  2  0  0  0  0
  4  3  1  0  0  0  0
  5  6  1  0  0  0  0
  6  1  2  0  0  0  0
  9  3  1  0  0  0  0
  9 12  1  0  0  0  0
 10 13  1  0  0  0  0
 10  9  1  0  0  0  0
 11 10  1  0  0  0  0
 11  9  1  0  0  0  0
 14 10  1  0  0  0  0
 15 11  1  0  0  0  0
 16 11  1  0  0  0  0
 17  5  1  0  0  0  0
 18 17  2  0  0  0  0
 19 18  1  0  0  0  0
 20 19  1  0  0  0  0
 21 19  2  0  0  0  0
 21 22  1  0  0  0  0
 22 23  2  0  0  0  0
 23 17  1  0  0  0  0
M  END
>  <minimizedAffinity>
-4.40065813

$$$$

 OpenBabel03252505163D

 23 25  0  0  0  0  0  0  0  0999 V2000
   41.1500   29.1090   42.6080 C   0  0  0  0  0  0  0  0  0  0  0  0
   40.3710   28.0630   43.1310 C   0  0  0  0  0  0  0  0  0  0  0  0
   39.0020   28.1780   42.9410 C   0  0  0  0  0  0  0  0  0  0  0  0
   38.4710   29.2600   42.2800 N   0  0  0  0  0  0  0  0  0  0  0  0
   39.2780   30.2480   41.7930 C   0  0  0  0  0  0  0  0  0  0  0  0
   40.6080   30.1520   41.9680 N   0  0  0  0  0  0  0  0  0  0  0  0
   42.2220   29.0000   42.7680 H   0  0  0  0  0  0  0  0  0  0  0  0
   40.7970   27.2150   43.6490 H   0  0  0  0  0  0  0  0  0  0  0  0
   38.0670   27.1080   43.4330 C   0  0  0  0  0  0  0  0  0  0  0  0
   36.6150   27.5400   43.4150 C   0  0  0  0  0  0  0  0  0  0  0  0
   37.1900   26.4550   42.4700 C   0  0  0  0  0  0  0  0  0  0  0  0
   38.3990   26.5230   44.3270 H   0  0  0  0  0  0  0  0  0  0  0  0
   36.0300   27.1970   44.2700 H   0  0  0  0  0  0  0  0  0  0  0  0
   36.3580   28.5190   43.0150 H   0  0  0  0  0  0  0  0  0  0  0  0
   37.2150   26.8300   41.4100 H   0  0  0  0  0  0  0  0  0  0  0  0
   36.8110   25.4230   42.5900 H   0  0  0  0  0  0  0  0  0  0  0  0
   38.6910   31.3860   41.0940 C   0  0  0  0  0  0  0  0  0  0  0  0
   37.5490   31.2150   40.3500 C   0  0  0  0  0  3  0  0  0  0  0  0
   37.0330   32.3190   39.7080 C   0  0  0  0  0  0  0  0  0  0  0  0
   36.1530   32.3360   39.0980 H   0  0  0  0  0  0  0  0  0  0  0  0
   37.6310   33.5360   39.8060 N   0  0  0  0  0  0  0  0  0  0  0  0
   38.7480   33.6610   40.5440 C   0  0  0  0  0  3  0  0  0  0  0  0
   39.2870   32.5880   41.1940 N   0  0  0  0  0  0  0  0  0  0  0  0
  1  7  1  0  0  0  0
  1  2  1  0  0  0  0
  2  8  1  0  0  0  0
  3  2  2  0  0  0  0
  3  9  1  0  0  0  0
  4  3  1  0  0  0  0
  5  6  1  0  0  0  0
  5  4  2  0  0  0  0
  6  1  2  0  0  0  0
  9 12  1  0  0  0  0
 10  9  1  0  0  0  0
 10 13  1  0  0  0  0
 11 16  1  0  0  0  0
 11 10  1  0  0  0  0
 11  9  1  0  0  0  0
 14 10  1  0  0  0  0
 15 11  1  0  0  0  0
 17 23  1  0  0  0  0
 17  5  1  0  0  0  0
 18 17  2  0  0  0  0
 19 21  2  0  0  0  0
 19 18  1  0  0  0  0
 20 19  1  0  0  0  0
 21 22  1  0  0  0  0
 22 23  2  0  0  0  0
M  END
>  <minimizedAffinity>
-4.38319397

$$$$

 OpenBabel03252505163D

 23 25  0  0  0  0  0  0  0  0999 V2000
   37.7020   28.7830   43.6610 C   0  0  0  0  0  0  0  0  0  0  0  0
   37.4350   27.4030   43.6350 C   0  0  0  0  0  0  0  0  0  0  0  0
   37.1510   26.8680   42.3880 C   0  0  0  0  0  0  0  0  0  0  0  0
   37.1370   27.6620   41.2660 N   0  0  0  0  0  0  0  0  0  0  0  0
   37.4040   28.9990   41.3520 C   0  0  0  0  0  0  0  0  0  0  0  0
   37.6820   29.5350   42.5530 N   0  0  0  0  0  0  0  0  0  0  0  0
   37.9220   29.1840   44.6490 H   0  0  0  0  0  0  0  0  0  0  0  0
   37.4490   26.7860   44.5230 H   0  0  0  0  0  0  0  0  0  0  0  0
   36.8750   25.3980   42.2300 C   0  0  0  0  0  0  0  0  0  0  0  0
   36.9500   24.9360   40.7890 C   0  0  0  0  0  0  0  0  0  0  0  0
   37.9790   24.5190   41.8700 C   0  0  0  0  0  0  0  0  0  0  0  0
   36.0400   24.9750   42.8440 H   0  0  0  0  0  0  0  0  0  0  0  0
   36.1940   24.1990   40.5100 H   0  0  0  0  0  0  0  0  0  0  0  0
   37.2390   25.6470   40.0180 H   0  0  0  0  0  0  0  0  0  0  0  0
   38.9770   24.9970   41.6680 H   0  0  0  0  0  0  0  0  0  0  0  0
   38.0220   23.4480   42.1450 H   0  0  0  0  0  0  0  0  0  0  0  0
   37.3840   29.8210   40.1470 C   0  0  0  0  0  0  0  0  0  0  0  0
   37.0310   31.1450   40.2290 C   0  0  0  0  0  3  0  0  0  0  0  0
   37.0270   31.8790   39.0640 C   0  0  0  0  0  0  0  0  0  0  0  0
   36.7750   32.9170   38.9760 H   0  0  0  0  0  0  0  0  0  0  0  0
   37.3610   31.3160   37.8730 N   0  0  0  0  0  0  0  0  0  0  0  0
   37.7020   30.0150   37.8350 C   0  0  0  0  0  3  0  0  0  0  0  0
   37.7160   29.2570   38.9700 N   0  0  0  0  0  0  0  0  0  0  0  0
  1  7  1  0  0  0  0
  2  1  1  0  0  0  0
  2  8  1  0  0  0  0
  3  2  2  0  0  0  0
  4  5  2  0  0  0  0
  4  3  1  0  0  0  0
  5  6  1  0  0  0  0
  6  1  2  0  0  0  0
  9  3  1  0  0  0  0
  9 12  1  0  0  0  0
 10 11  1  0  0  0  0
 10  9  1  0  0  0  0
 11 16  1  0  0  0  0
 11  9  1  0  0  0  0
 13 10  1  0  0  0  0
 14 10  1  0  0  0  0
 15 11  1  0  0  0  0
 17 18  1  0  0  0  0
 17  5  1  0  0  0  0
 19 18  2  0  0  0  0
 20 19  1  0  0  0  0
 21 19  1  0  0  0  0
 22 21  2  0  0  0  0
 22 23  1  0  0  0  0
 23 17  2  0  0  0  0
M  END
>  <minimizedAffinity>
-4.33134127

$$$$

 OpenBabel03252505163D

 23 25  0  0  0  0  0  0  0  0999 V2000
   35.4800   29.2000   40.6680 C   0  0  0  0  0  0  0  0  0  0  0  0
   35.9360   30.5030   40.4030 C   0  0  0  0  0  0  0  0  0  0  0  0
   37.2400   30.7750   40.7910 C   0  0  0  0  0  0  0  0  0  0  0  0
   38.0110   29.8110   41.3950 N   0  0  0  0  0  0  0  0  0  0  0  0
   37.5130   28.5610   41.6280 C   0  0  0  0  0  0  0  0  0  0  0  0
   36.2520   28.2800   41.2580 N   0  0  0  0  0  0  0  0  0  0  0  0
   34.4550   29.0070   40.3570 H   0  0  0  0  0  0  0  0  0  0  0  0
   35.3230   31.2550   39.9260 H   0  0  0  0  0  0  0  0  0  0  0  0
   37.8490   32.1270   40.5360 C   0  0  0  0  0  0  0  0  0  0  0  0
   38.5360   32.2180   39.1900 C   0  0  0  0  0  0  0  0  0  0  0  0
   37.2360   32.9870   39.5330 C   0  0  0  0  0  0  0  0  0  0  0  0
   38.3770   32.6100   41.3960 H   0  0  0  0  0  0  0  0  0  0  0  0
   39.4680   32.7880   39.1950 H   0  0  0  0  0  0  0  0  0  0  0  0
   38.4940   31.3670   38.5130 H   0  0  0  0  0  0  0  0  0  0  0  0
   36.3670   32.5690   38.9540 H   0  0  0  0  0  0  0  0  0  0  0  0
   37.2890   34.0920   39.5610 H   0  0  0  0  0  0  0  0  0  0  0  0
   38.3520   27.5550   42.2700 C   0  0  0  0  0  0  0  0  0  0  0  0
   39.3780   27.9460   43.0940 C   0  0  0  0  0  3  0  0  0  0  0  0
   40.1420   26.9590   43.6770 C   0  0  0  0  0  0  0  0  0  0  0  0
   40.9700   27.1140   44.3390 H   0  0  0  0  0  0  0  0  0  0  0  0
   39.8920   25.6430   43.4460 N   0  0  0  0  0  0  0  0  0  0  0  0
   38.8770   25.3020   42.6320 C   0  0  0  0  0  3  0  0  0  0  0  0
   38.1000   26.2530   42.0380 N   0  0  0  0  0  0  0  0  0  0  0  0
  1  6  1  0  0  0  0
  2  1  2  0  0  0  0
  2  3  1  0  0  0  0
  3  4  2  0  0  0  0
  4  5  1  0  0  0  0
  5 17  1  0  0  0  0
  6  5  2  0  0  0  0
  7  1  1  0  0  0  0
  8  2  1  0  0  0  0
  9  3  1  0  0  0  0
  9 12  1  0  0  0  0
 10 13  1  0  0  0  0
 10 11  1  0  0  0  0
 10  9  1  0  0  0  0
 11 16  1  0  0  0  0
 11  9  1  0  0  0  0
 14 10  1  0  0  0  0
 15 11  1  0  0  0  0
 17 18  1  0  0  0  0
 18 19  2  0  0  0  0
 19 20  1  0  0  0  0
 21 19  1  0  0  0  0
 22 21  2  0  0  0  0
 23 17  2  0  0  0  0
 23 22  1  0  0  0  0
M  END
>  <minimizedAffinity>
-4.3243289

$$$$

 OpenBabel03252505163D

 23 25  0  0  0  0  0  0  0  0999 V2000
   38.8470   31.0350   40.9400 C   0  0  0  0  0  0  0  0  0  0  0  0
   38.7920   30.3910   42.1870 C   0  0  0  0  0  0  0  0  0  0  0  0
   37.7990   29.4330   42.3270 C   0  0  0  0  0  0  0  0  0  0  0  0
   36.9380   29.1540   41.2930 N   0  0  0  0  0  0  0  0  0  0  0  0
   37.0380   29.8130   40.1020 C   0  0  0  0  0  0  0  0  0  0  0  0
   37.9950   30.7450   39.9480 N   0  0  0  0  0  0  0  0  0  0  0  0
   39.6330   31.7840   40.8500 H   0  0  0  0  0  0  0  0  0  0  0  0
   39.4750   30.6160   42.9950 H   0  0  0  0  0  0  0  0  0  0  0  0
   37.6580   28.6570   43.6080 C   0  0  0  0  0  0  0  0  0  0  0  0
   36.6960   27.4930   43.4890 C   0  0  0  0  0  0  0  0  0  0  0  0
   38.2240   27.3170   43.6750 C   0  0  0  0  0  0  0  0  0  0  0  0
   37.5990   29.2540   44.5530 H   0  0  0  0  0  0  0  0  0  0  0  0
   36.0660   27.3350   44.3660 H   0  0  0  0  0  0  0  0  0  0  0  0
   36.2440   27.2750   42.5240 H   0  0  0  0  0  0  0  0  0  0  0  0
   38.6890   26.9040   42.7380 H   0  0  0  0  0  0  0  0  0  0  0  0
   38.5720   26.8460   44.6140 H   0  0  0  0  0  0  0  0  0  0  0  0
   36.1130   29.4990   39.0190 C   0  0  0  0  0  0  0  0  0  0  0  0
   34.8400   29.0750   39.3100 C   0  0  0  0  0  3  0  0  0  0  0  0
   34.0030   28.7910   38.2540 C   0  0  0  0  0  0  0  0  0  0  0  0
   32.9890   28.4530   38.3290 H   0  0  0  0  0  0  0  0  0  0  0  0
   34.4200   28.9240   36.9670 N   0  0  0  0  0  0  0  0  0  0  0  0
   35.6760   29.3420   36.7240 C   0  0  0  0  0  3  0  0  0  0  0  0
   36.5310   29.6330   37.7470 N   0  0  0  0  0  0  0  0  0  0  0  0
  1  2  1  0  0  0  0
  2  3  2  0  0  0  0
  2  8  1  0  0  0  0
  3  9  1  0  0  0  0
  4  3  1  0  0  0  0
  5  4  2  0  0  0  0
  6  5  1  0  0  0  0
  6  1  2  0  0  0  0
  7  1  1  0  0  0  0
  9 11  1  0  0  0  0
  9 12  1  0  0  0  0
 10  9  1  0  0  0  0
 10 11  1  0  0  0  0
 10 13  1  0  0  0  0
 11 16  1  0  0  0  0
 14 10  1  0  0  0  0
 15 11  1  0  0  0  0
 17 18  1  0  0  0  0
 17  5  1  0  0  0  0
 19 20  1  0  0  0  0
 19 18  2  0  0  0  0
 21 19  1  0  0  0  0
 22 21  2  0  0  0  0
 22 23  1  0  0  0  0
 23 17  2  0  0  0  0
M  END
>  <minimizedAffinity>
-4.22894239

$$$$

 OpenBabel03252505163D

 23 25  0  0  0  0  0  0  0  0999 V2000
   40.0000   30.0700   42.4910 C   0  0  0  0  0  0  0  0  0  0  0  0
   39.0830   30.9470   41.8880 C   0  0  0  0  0  0  0  0  0  0  0  0
   37.9330   30.3610   41.3810 C   0  0  0  0  0  0  0  0  0  0  0  0
   37.7320   29.0050   41.4770 N   0  0  0  0  0  0  0  0  0  0  0  0
   38.6600   28.2000   42.0750 C   0  0  0  0  0  0  0  0  0  0  0  0
   39.7800   28.7520   42.5720 N   0  0  0  0  0  0  0  0  0  0  0  0
   40.8960   30.5490   42.8820 H   0  0  0  0  0  0  0  0  0  0  0  0
   39.2490   32.0140   41.8170 H   0  0  0  0  0  0  0  0  0  0  0  0
   36.8650   31.2010   40.7360 C   0  0  0  0  0  0  0  0  0  0  0  0
   37.4170   32.4410   40.0650 C   0  0  0  0  0  0  0  0  0  0  0  0
   36.8070   31.2520   39.2810 C   0  0  0  0  0  0  0  0  0  0  0  0
   35.9120   31.3290   41.3080 H   0  0  0  0  0  0  0  0  0  0  0  0
   36.7970   33.3330   40.1810 H   0  0  0  0  0  0  0  0  0  0  0  0
   38.4930   32.6010   40.0470 H   0  0  0  0  0  0  0  0  0  0  0  0
   37.6070   30.7050   38.7110 H   0  0  0  0  0  0  0  0  0  0  0  0
   35.8760   31.4420   38.7130 H   0  0  0  0  0  0  0  0  0  0  0  0
   38.4230   26.7630   42.1660 C   0  0  0  0  0  0  0  0  0  0  0  0
   37.1820   26.2570   41.8720 C   0  0  0  0  0  3  0  0  0  0  0  0
   37.0070   24.8940   41.9720 C   0  0  0  0  0  0  0  0  0  0  0  0
   36.1000   24.3600   41.7750 H   0  0  0  0  0  0  0  0  0  0  0  0
   38.0270   24.0780   42.3490 N   0  0  0  0  0  0  0  0  0  0  0  0
   39.2290   24.6140   42.6290 C   0  0  0  0  0  3  0  0  0  0  0  0
   39.4360   25.9600   42.5390 N   0  0  0  0  0  0  0  0  0  0  0  0
  1  6  1  0  0  0  0
  1  7  1  0  0  0  0
  2  1  2  0  0  0  0
  3  4  2  0  0  0  0
  3  2  1  0  0  0  0
  4  5  1  0  0  0  0
  5 17  1  0  0  0  0
  5  6  2  0  0  0  0
  8  2  1  0  0  0  0
  9 12  1  0  0  0  0
  9  3  1  0  0  0  0
 10 13  1  0  0  0  0
 10  9  1  0  0  0  0
 11 10  1  0  0  0  0
 11  9  1  0  0  0  0
 14 10  1  0  0  0  0
 15 11  1  0  0  0  0
 16 11  1  0  0  0  0
 17 23  1  0  0  0  0
 18 19  1  0  0  0  0
 18 17  2  0  0  0  0
 19 21  2  0  0  0  0
 20 19  1  0  0  0  0
 21 22  1  0  0  0  0
 23 22  2  0  0  0  0
M  END
>  <minimizedAffinity>
-4.13236189

$$$$
