
 OpenBabel03252509313D

 25 26  0  0  0  0  0  0  0  0999 V2000
   48.2760   33.3280   43.5020 O   0  0  0  0  0  0  0  0  0  0  0  0
   46.9430   33.2840   43.0830 C   0  0  0  0  0  0  0  0  0  0  0  0
   46.7940   33.6240   42.0420 H   0  0  0  0  0  0  0  0  0  0  0  0
   46.5630   32.2200   43.0960 H   0  0  0  0  0  0  0  0  0  0  0  0
   45.0320   34.3380   46.1210 C   0  0  0  0  0  0  0  0  0  0  0  0
   45.8630   33.5870   45.2760 C   0  0  0  0  0  0  0  0  0  0  0  0
   46.0790   34.0490   43.9870 C   0  0  0  0  0  0  0  0  0  0  0  0
   45.4740   35.2100   43.6030 N   0  0  0  0  0  0  0  0  0  0  0  0
   44.6700   35.9210   44.4460 C   0  0  0  0  0  0  0  0  0  0  0  0
   44.4620   35.4760   45.6900 N   0  0  0  0  0  0  0  0  0  0  0  0
   44.9050   33.9160   47.1260 H   0  0  0  0  0  0  0  0  0  0  0  0
   46.3190   32.6630   45.6440 H   0  0  0  0  0  0  0  0  0  0  0  0
   44.1900   36.8360   44.1510 H   0  0  0  0  0  0  0  0  0  0  0  0
   49.8540   33.0470   41.4350 O   0  0  0  0  0  0  0  0  0  0  0  0
   49.1430   34.0850   42.2720 P   0  0  2  0  0  0  0  0  0  0  0  0
   50.2120   35.1750   42.9780 O   0  0  0  0  0  0  0  0  0  0  0  0
   51.0930   35.0910   42.5660 H   0  0  0  0  0  0  0  0  0  0  0  0
   48.0510   34.8770   41.2680 O   0  0  0  0  0  0  0  0  0  0  0  0
   47.8100   34.3810   39.9950 C   0  0  0  0  0  0  0  0  0  0  0  0
   48.5890   34.9130   38.9630 C   0  0  0  0  0  3  0  0  0  0  0  0
   48.4200   34.4790   37.6540 C   0  0  0  0  0  0  0  0  0  0  0  0
   49.0220   34.8830   36.8270 H   0  0  0  0  0  0  0  0  0  0  0  0
   47.4820   33.5320   37.4320 N   0  0  0  0  0  0  0  0  0  0  0  0
   46.7500   33.0410   38.4470 C   0  0  0  0  0  3  0  0  0  0  0  0
   46.9010   33.4460   39.7000 N   0  0  0  0  0  0  0  0  0  0  0  0
  2  4  1  0  0  0  0
  2  1  1  0  0  0  0
  2  7  1  0  0  0  0
  3  2  1  0  0  0  0
  5 11  1  0  0  0  0
  6 12  1  0  0  0  0
  6  5  2  0  0  0  0
  7  6  1  0  0  0  0
  8  7  2  0  0  0  0
  8  9  1  0  0  0  0
  9 10  2  0  0  0  0
 10  5  1  0  0  0  0
 13  9  1  0  0  0  0
 15 14  2  6  0  0  0
 15 16  1  0  0  0  0
 15  1  1  0  0  0  0
 17 16  1  0  0  0  0
 18 15  1  0  0  0  0
 19 18  1  0  0  0  0
 20 19  2  0  0  0  0
 21 20  1  0  0  0  0
 22 21  1  0  0  0  0
 23 21  2  0  0  0  0
 23 24  1  0  0  0  0
 24 25  2  0  0  0  0
 25 19  1  0  0  0  0
M  END
>  <minimizedAffinity>
-4.93778419

>  <minimizedRMSD>
1.07577229

$$$$
