
 OpenBabel03252504273D

 20 21  0  0  0  0  0  0  0  0999 V2000
   36.9740   27.6170   42.7400 C   0  0  0  0  0  0  0  0  0  0  0  0
   36.0960   27.2660   43.3590 H   0  0  0  0  0  0  0  0  0  0  0  0
   36.5720   27.5670   41.6990 H   0  0  0  0  0  0  0  0  0  0  0  0
   37.7760   25.4020   42.2530 C   0  0  0  0  0  0  0  0  0  0  0  0
   38.0090   26.5940   42.9070 C   0  0  0  0  0  0  0  0  0  0  0  0
   39.1700   26.7030   43.6420 C   0  0  0  0  0  0  0  0  0  0  0  0
   40.0050   25.6480   43.6790 N   0  0  0  0  0  0  0  0  0  0  0  0
   39.7630   24.4850   43.0320 C   0  0  0  0  0  0  0  0  0  0  0  0
   38.6340   24.3310   42.2960 N   0  0  0  0  0  0  0  0  0  0  0  0
   36.9010   25.1990   41.6480 H   0  0  0  0  0  0  0  0  0  0  0  0
   39.3350   27.6300   44.1410 H   0  0  0  0  0  0  0  0  0  0  0  0
   40.5740   23.7890   43.2100 H   0  0  0  0  0  0  0  0  0  0  0  0
   37.3670   28.8890   43.1230 O   0  0  0  0  0  0  0  0  0  0  0  0
   37.5350   29.8730   42.1580 C   0  0  0  0  0  0  0  0  0  0  0  0
   38.8370   30.3380   41.9580 C   0  0  0  0  0  3  0  0  0  0  0  0
   39.0640   31.3260   41.0020 C   0  0  0  0  0  0  0  0  0  0  0  0
   40.0270   31.7420   40.7800 H   0  0  0  0  0  0  0  0  0  0  0  0
   38.0390   31.8220   40.2850 N   0  0  0  0  0  0  0  0  0  0  0  0
   36.8100   31.3670   40.4890 C   0  0  0  0  0  3  0  0  0  0  0  0
   36.5370   30.4010   41.4140 N   0  0  0  0  0  0  0  0  0  0  0  0
  1  5  1  0  0  0  0
  1 13  1  0  0  0  0
  1  2  1  0  0  0  0
  3  1  1  0  0  0  0
  4  9  2  0  0  0  0
  4  5  1  0  0  0  0
  5  6  2  0  0  0  0
  6  7  1  0  0  0  0
  6 11  1  0  0  0  0
  8 12  1  0  0  0  0
  8  7  2  0  0  0  0
  9  8  1  0  0  0  0
 10  4  1  0  0  0  0
 14 13  1  0  0  0  0
 15 14  1  0  0  0  0
 16 15  2  0  0  0  0
 17 16  1  0  0  0  0
 18 19  2  0  0  0  0
 18 16  1  0  0  0  0
 19 20  1  0  0  0  0
 20 14  2  0  0  0  0
M  END
>  <minimizedAffinity>
-3.94964576

$$$$

 OpenBabel03252504273D

 20 21  0  0  0  0  0  0  0  0999 V2000
   38.9760   29.2870   42.8800 C   0  0  0  0  0  0  0  0  0  0  0  0
   39.4110   29.9840   43.6570 H   0  0  0  0  0  0  0  0  0  0  0  0
   39.8870   28.9080   42.3580 H   0  0  0  0  0  0  0  0  0  0  0  0
   38.9330   31.1640   41.3740 C   0  0  0  0  0  0  0  0  0  0  0  0
   38.2170   30.1420   41.9640 C   0  0  0  0  0  0  0  0  0  0  0  0
   36.8810   30.0300   41.6410 C   0  0  0  0  0  0  0  0  0  0  0  0
   36.3560   30.9170   40.7750 N   0  0  0  0  0  0  0  0  0  0  0  0
   37.0710   31.9130   40.2050 C   0  0  0  0  0  0  0  0  0  0  0  0
   38.3890   32.0630   40.4920 N   0  0  0  0  0  0  0  0  0  0  0  0
   39.9850   31.3510   41.5500 H   0  0  0  0  0  0  0  0  0  0  0  0
   36.3420   29.2370   42.1050 H   0  0  0  0  0  0  0  0  0  0  0  0
   36.4350   32.4940   39.5470 H   0  0  0  0  0  0  0  0  0  0  0  0
   38.2230   28.2920   43.4790 O   0  0  0  0  0  0  0  0  0  0  0  0
   38.4720   26.9620   43.1650 C   0  0  0  0  0  0  0  0  0  0  0  0
   39.6460   26.4070   43.6800 C   0  0  0  0  0  3  0  0  0  0  0  0
   39.9470   25.0750   43.3970 C   0  0  0  0  0  0  0  0  0  0  0  0
   40.8230   24.5660   43.7480 H   0  0  0  0  0  0  0  0  0  0  0  0
   39.1140   24.3410   42.6370 N   0  0  0  0  0  0  0  0  0  0  0  0
   38.0040   24.8870   42.1570 C   0  0  0  0  0  3  0  0  0  0  0  0
   37.6660   26.1850   42.4070 N   0  0  0  0  0  0  0  0  0  0  0  0
  1 13  1  0  0  0  0
  1  2  1  0  0  0  0
  3  1  1  0  0  0  0
  4 10  1  0  0  0  0
  4  5  1  0  0  0  0
  5  1  1  0  0  0  0
  6  5  2  0  0  0  0
  6 11  1  0  0  0  0
  7  6  1  0  0  0  0
  8  9  1  0  0  0  0
  8  7  2  0  0  0  0
  9  4  2  0  0  0  0
 12  8  1  0  0  0  0
 14 13  1  0  0  0  0
 14 15  1  0  0  0  0
 16 15  2  0  0  0  0
 16 17  1  0  0  0  0
 18 16  1  0  0  0  0
 19 20  1  0  0  0  0
 19 18  2  0  0  0  0
 20 14  2  0  0  0  0
M  END
>  <minimizedAffinity>
-3.94951749

$$$$

 OpenBabel03252504273D

 20 21  0  0  0  0  0  0  0  0999 V2000
   37.8470   28.4280   43.5420 C   0  0  0  0  0  0  0  0  0  0  0  0
   38.7510   29.0820   43.7220 H   0  0  0  0  0  0  0  0  0  0  0  0
   37.3510   28.4210   44.5420 H   0  0  0  0  0  0  0  0  0  0  0  0
   37.5660   26.2830   42.4880 C   0  0  0  0  0  0  0  0  0  0  0  0
   38.3760   27.0920   43.2580 C   0  0  0  0  0  0  0  0  0  0  0  0
   39.5820   26.5720   43.6800 C   0  0  0  0  0  0  0  0  0  0  0  0
   39.8960   25.3140   43.3180 N   0  0  0  0  0  0  0  0  0  0  0  0
   39.0910   24.5340   42.5620 C   0  0  0  0  0  0  0  0  0  0  0  0
   37.8960   25.0020   42.1230 N   0  0  0  0  0  0  0  0  0  0  0  0
   36.6000   26.5820   42.1000 H   0  0  0  0  0  0  0  0  0  0  0  0
   40.1950   27.2080   44.2740 H   0  0  0  0  0  0  0  0  0  0  0  0
   39.5580   23.5680   42.4030 H   0  0  0  0  0  0  0  0  0  0  0  0
   37.0560   28.9510   42.5320 O   0  0  0  0  0  0  0  0  0  0  0  0
   37.5040   30.0490   41.8110 C   0  0  0  0  0  0  0  0  0  0  0  0
   36.5520   30.7280   41.0470 C   0  0  0  0  0  3  0  0  0  0  0  0
   36.9460   31.8380   40.3030 C   0  0  0  0  0  0  0  0  0  0  0  0
   36.2860   32.4200   39.6890 H   0  0  0  0  0  0  0  0  0  0  0  0
   38.2280   32.2460   40.3230 N   0  0  0  0  0  0  0  0  0  0  0  0
   39.1180   31.5880   41.0550 C   0  0  0  0  0  3  0  0  0  0  0  0
   38.7810   30.4960   41.8000 N   0  0  0  0  0  0  0  0  0  0  0  0
  1  2  1  0  0  0  0
  1  3  1  0  0  0  0
  4  5  1  0  0  0  0
  5  1  1  0  0  0  0
  5  6  2  0  0  0  0
  6 11  1  0  0  0  0
  7  6  1  0  0  0  0
  8  7  2  0  0  0  0
  9  4  2  0  0  0  0
  9  8  1  0  0  0  0
 10  4  1  0  0  0  0
 12  8  1  0  0  0  0
 13  1  1  0  0  0  0
 14 13  1  0  0  0  0
 15 14  2  0  0  0  0
 16 18  2  0  0  0  0
 16 15  1  0  0  0  0
 17 16  1  0  0  0  0
 18 19  1  0  0  0  0
 19 20  2  0  0  0  0
 20 14  1  0  0  0  0
M  END
>  <minimizedAffinity>
-3.91042948

$$$$

 OpenBabel03252504273D

 20 21  0  0  0  0  0  0  0  0999 V2000
   35.3500   28.9960   40.3860 C   0  0  0  0  0  0  0  0  0  0  0  0
   34.4180   28.8970   39.7540 H   0  0  0  0  0  0  0  0  0  0  0  0
   34.9380   29.2910   41.3810 H   0  0  0  0  0  0  0  0  0  0  0  0
   36.4490   31.1110   40.7140 C   0  0  0  0  0  0  0  0  0  0  0  0
   36.0930   30.1240   39.8190 C   0  0  0  0  0  0  0  0  0  0  0  0
   36.4630   30.2940   38.5010 C   0  0  0  0  0  0  0  0  0  0  0  0
   37.1450   31.4050   38.1670 N   0  0  0  0  0  0  0  0  0  0  0  0
   37.4870   32.3640   39.0570 C   0  0  0  0  0  0  0  0  0  0  0  0
   37.1460   32.2410   40.3640 N   0  0  0  0  0  0  0  0  0  0  0  0
   36.2150   31.0880   41.7720 H   0  0  0  0  0  0  0  0  0  0  0  0
   36.1800   29.5230   37.8220 H   0  0  0  0  0  0  0  0  0  0  0  0
   38.0300   33.1560   38.5540 H   0  0  0  0  0  0  0  0  0  0  0  0
   36.0570   27.8060   40.4080 O   0  0  0  0  0  0  0  0  0  0  0  0
   37.0660   27.6260   41.3460 C   0  0  0  0  0  0  0  0  0  0  0  0
   36.7080   27.7740   42.6880 C   0  0  0  0  0  3  0  0  0  0  0  0
   37.6800   27.6050   43.6720 C   0  0  0  0  0  0  0  0  0  0  0  0
   37.4970   27.6980   44.7240 H   0  0  0  0  0  0  0  0  0  0  0  0
   38.9460   27.3040   43.3280 N   0  0  0  0  0  0  0  0  0  0  0  0
   39.2660   27.1680   42.0470 C   0  0  0  0  0  3  0  0  0  0  0  0
   38.3500   27.3240   41.0480 N   0  0  0  0  0  0  0  0  0  0  0  0
  1 13  1  0  0  0  0
  1  3  1  0  0  0  0
  2  1  1  0  0  0  0
  4 10  1  0  0  0  0
  5  1  1  0  0  0  0
  5  4  2  0  0  0  0
  6  5  1  0  0  0  0
  7  6  2  0  0  0  0
  7  8  1  0  0  0  0
  8  9  2  0  0  0  0
  9  4  1  0  0  0  0
 11  6  1  0  0  0  0
 12  8  1  0  0  0  0
 13 14  1  0  0  0  0
 14 15  1  0  0  0  0
 15 16  2  0  0  0  0
 16 17  1  0  0  0  0
 18 16  1  0  0  0  0
 19 18  2  0  0  0  0
 20 14  2  0  0  0  0
 20 19  1  0  0  0  0
M  END
>  <minimizedAffinity>
-3.89404082

$$$$

 OpenBabel03252504273D

 20 21  0  0  0  0  0  0  0  0999 V2000
   36.1570   30.7190   40.8930 C   0  0  0  0  0  0  0  0  0  0  0  0
   35.4200   29.8620   40.9190 H   0  0  0  0  0  0  0  0  0  0  0  0
   35.5140   31.5990   41.1360 H   0  0  0  0  0  0  0  0  0  0  0  0
   36.2820   29.7390   38.6990 C   0  0  0  0  0  0  0  0  0  0  0  0
   36.6000   30.8150   39.5000 C   0  0  0  0  0  0  0  0  0  0  0  0
   37.2950   31.8570   38.9230 C   0  0  0  0  0  0  0  0  0  0  0  0
   37.6200   31.7650   37.6200 N   0  0  0  0  0  0  0  0  0  0  0  0
   37.2990   30.7020   36.8470 C   0  0  0  0  0  0  0  0  0  0  0  0
   36.6160   29.6530   37.3700 N   0  0  0  0  0  0  0  0  0  0  0  0
   35.7400   28.8650   39.0400 H   0  0  0  0  0  0  0  0  0  0  0  0
   37.5350   32.6810   39.5550 H   0  0  0  0  0  0  0  0  0  0  0  0
   37.6640   30.8570   35.8380 H   0  0  0  0  0  0  0  0  0  0  0  0
   37.1830   30.5120   41.8010 O   0  0  0  0  0  0  0  0  0  0  0  0
   37.4790   29.2210   42.2170 C   0  0  0  0  0  0  0  0  0  0  0  0
   38.7160   29.0310   42.8370 C   0  0  0  0  0  3  0  0  0  0  0  0
   39.0660   27.7550   43.2760 C   0  0  0  0  0  0  0  0  0  0  0  0
   39.9910   27.5160   43.7620 H   0  0  0  0  0  0  0  0  0  0  0  0
   38.2190   26.7240   43.1010 N   0  0  0  0  0  0  0  0  0  0  0  0
   37.0480   26.9250   42.5100 C   0  0  0  0  0  3  0  0  0  0  0  0
   36.6610   28.1550   42.0630 N   0  0  0  0  0  0  0  0  0  0  0  0
  1  2  1  0  0  0  0
  1  3  1  0  0  0  0
  1 13  1  0  0  0  0
  4 10  1  0  0  0  0
  4  5  1  0  0  0  0
  5  1  1  0  0  0  0
  6  5  2  0  0  0  0
  6 11  1  0  0  0  0
  7  6  1  0  0  0  0
  8  9  1  0  0  0  0
  8  7  2  0  0  0  0
  9  4  2  0  0  0  0
 12  8  1  0  0  0  0
 13 14  1  0  0  0  0
 14 15  1  0  0  0  0
 15 16  2  0  0  0  0
 16 17  1  0  0  0  0
 18 16  1  0  0  0  0
 19 18  2  0  0  0  0
 20 14  2  0  0  0  0
 20 19  1  0  0  0  0
M  END
>  <minimizedAffinity>
-3.83270001

$$$$

 OpenBabel03252504273D

 20 21  0  0  0  0  0  0  0  0999 V2000
   36.4040   30.3720   41.1150 C   0  0  0  0  0  0  0  0  0  0  0  0
   36.3690   31.1710   41.9150 H   0  0  0  0  0  0  0  0  0  0  0  0
   35.3230   30.2120   40.8860 H   0  0  0  0  0  0  0  0  0  0  0  0
   36.7610   27.9930   41.0910 C   0  0  0  0  0  0  0  0  0  0  0  0
   36.9390   29.1780   41.7730 C   0  0  0  0  0  0  0  0  0  0  0  0
   37.5890   29.1230   42.9880 C   0  0  0  0  0  0  0  0  0  0  0  0
   38.0100   27.9250   43.4340 N   0  0  0  0  0  0  0  0  0  0  0  0
   37.8280   26.7710   42.7520 C   0  0  0  0  0  0  0  0  0  0  0  0
   37.1940   26.7750   41.5530 N   0  0  0  0  0  0  0  0  0  0  0  0
   36.2660   27.9120   40.1300 H   0  0  0  0  0  0  0  0  0  0  0  0
   37.7180   30.0460   43.5040 H   0  0  0  0  0  0  0  0  0  0  0  0
   38.2510   25.9430   43.3100 H   0  0  0  0  0  0  0  0  0  0  0  0
   37.1450   30.7990   40.0260 O   0  0  0  0  0  0  0  0  0  0  0  0
   38.0900   31.8030   40.1930 C   0  0  0  0  0  0  0  0  0  0  0  0
   37.6580   33.1130   39.9730 C   0  0  0  0  0  3  0  0  0  0  0  0
   38.5640   34.1610   40.1260 C   0  0  0  0  0  0  0  0  0  0  0  0
   38.3220   35.1950   39.9800 H   0  0  0  0  0  0  0  0  0  0  0  0
   39.8370   33.9080   40.4800 N   0  0  0  0  0  0  0  0  0  0  0  0
   40.2290   32.6570   40.6840 C   0  0  0  0  0  3  0  0  0  0  0  0
   39.3790   31.5970   40.5470 N   0  0  0  0  0  0  0  0  0  0  0  0
  1  5  1  0  0  0  0
  1  2  1  0  0  0  0
  3  1  1  0  0  0  0
  4  9  2  0  0  0  0
  4  5  1  0  0  0  0
  5  6  2  0  0  0  0
  6  7  1  0  0  0  0
  6 11  1  0  0  0  0
  8 12  1  0  0  0  0
  8  7  2  0  0  0  0
  9  8  1  0  0  0  0
 10  4  1  0  0  0  0
 13 14  1  0  0  0  0
 13  1  1  0  0  0  0
 14 20  1  0  0  0  0
 15 16  1  0  0  0  0
 15 14  2  0  0  0  0
 16 18  2  0  0  0  0
 17 16  1  0  0  0  0
 18 19  1  0  0  0  0
 20 19  2  0  0  0  0
M  END
>  <minimizedAffinity>
-3.76892567

$$$$

 OpenBabel03252504273D

 20 21  0  0  0  0  0  0  0  0999 V2000
   36.2420   28.2150   41.7350 C   0  0  0  0  0  0  0  0  0  0  0  0
   36.2850   27.2740   41.1100 H   0  0  0  0  0  0  0  0  0  0  0  0
   35.1750   28.2370   42.0650 H   0  0  0  0  0  0  0  0  0  0  0  0
   36.7420   28.9500   39.4990 C   0  0  0  0  0  0  0  0  0  0  0  0
   36.4800   29.3190   40.8020 C   0  0  0  0  0  0  0  0  0  0  0  0
   36.4720   30.6670   41.0940 C   0  0  0  0  0  0  0  0  0  0  0  0
   36.7170   31.5380   40.0980 N   0  0  0  0  0  0  0  0  0  0  0  0
   36.9710   31.1600   38.8250 C   0  0  0  0  0  0  0  0  0  0  0  0
   36.9900   29.8460   38.4890 N   0  0  0  0  0  0  0  0  0  0  0  0
   36.7750   27.9240   39.1510 H   0  0  0  0  0  0  0  0  0  0  0  0
   36.2680   30.9350   42.1050 H   0  0  0  0  0  0  0  0  0  0  0  0
   37.1360   32.0350   38.2070 H   0  0  0  0  0  0  0  0  0  0  0  0
   37.1460   28.1530   42.7810 O   0  0  0  0  0  0  0  0  0  0  0  0
   37.9940   27.0580   42.8890 C   0  0  0  0  0  0  0  0  0  0  0  0
   37.6430   25.9200   42.1600 C   0  0  0  0  0  3  0  0  0  0  0  0
   38.4590   24.7920   42.2310 C   0  0  0  0  0  0  0  0  0  0  0  0
   38.2700   23.8760   41.7060 H   0  0  0  0  0  0  0  0  0  0  0  0
   39.5670   24.8050   42.9940 N   0  0  0  0  0  0  0  0  0  0  0  0
   39.8830   25.8960   43.6800 C   0  0  0  0  0  3  0  0  0  0  0  0
   39.1170   27.0250   43.6430 N   0  0  0  0  0  0  0  0  0  0  0  0
  1  3  1  0  0  0  0
  1 13  1  0  0  0  0
  2  1  1  0  0  0  0
  4  5  1  0  0  0  0
  5  6  2  0  0  0  0
  5  1  1  0  0  0  0
  6 11  1  0  0  0  0
  7  6  1  0  0  0  0
  8  7  2  0  0  0  0
  9  8  1  0  0  0  0
  9  4  2  0  0  0  0
 10  4  1  0  0  0  0
 12  8  1  0  0  0  0
 13 14  1  0  0  0  0
 14 20  1  0  0  0  0
 15 16  1  0  0  0  0
 15 14  2  0  0  0  0
 16 18  2  0  0  0  0
 17 16  1  0  0  0  0
 18 19  1  0  0  0  0
 20 19  2  0  0  0  0
M  END
>  <minimizedAffinity>
-3.73324299

$$$$

 OpenBabel03252504273D

 20 21  0  0  0  0  0  0  0  0999 V2000
   36.3960   30.9020   40.4880 C   0  0  0  0  0  0  0  0  0  0  0  0
   35.6130   31.7170   40.5270 H   0  0  0  0  0  0  0  0  0  0  0  0
   37.3180   31.4360   40.8240 H   0  0  0  0  0  0  0  0  0  0  0  0
   37.3220   31.3990   38.3230 C   0  0  0  0  0  0  0  0  0  0  0  0
   36.5310   30.5520   39.0720 C   0  0  0  0  0  0  0  0  0  0  0  0
   35.9520   29.4810   38.4250 C   0  0  0  0  0  0  0  0  0  0  0  0
   36.1910   29.3230   37.1100 N   0  0  0  0  0  0  0  0  0  0  0  0
   36.9700   30.1620   36.3900 C   0  0  0  0  0  0  0  0  0  0  0  0
   37.5610   31.2290   36.9820 N   0  0  0  0  0  0  0  0  0  0  0  0
   37.8270   32.2700   38.7210 H   0  0  0  0  0  0  0  0  0  0  0  0
   35.3430   28.8370   39.0170 H   0  0  0  0  0  0  0  0  0  0  0  0
   37.0130   29.8300   35.3590 H   0  0  0  0  0  0  0  0  0  0  0  0
   36.0410   29.8400   41.3030 O   0  0  0  0  0  0  0  0  0  0  0  0
   37.0270   29.1430   41.9880 C   0  0  0  0  0  0  0  0  0  0  0  0
   36.7140   27.8410   42.3830 C   0  0  0  0  0  3  0  0  0  0  0  0
   37.6670   27.0940   43.0740 C   0  0  0  0  0  0  0  0  0  0  0  0
   37.5160   26.0890   43.4150 H   0  0  0  0  0  0  0  0  0  0  0  0
   38.8710   27.6270   43.3530 N   0  0  0  0  0  0  0  0  0  0  0  0
   39.1490   28.8660   42.9690 C   0  0  0  0  0  3  0  0  0  0  0  0
   38.2500   29.6360   42.2910 N   0  0  0  0  0  0  0  0  0  0  0  0
  1  2  1  0  0  0  0
  1  3  1  0  0  0  0
  1 13  1  0  0  0  0
  4 10  1  0  0  0  0
  4  5  1  0  0  0  0
  5  1  1  0  0  0  0
  6 11  1  0  0  0  0
  6  5  2  0  0  0  0
  7  6  1  0  0  0  0
  8  9  1  0  0  0  0
  8  7  2  0  0  0  0
  9  4  2  0  0  0  0
 12  8  1  0  0  0  0
 13 14  1  0  0  0  0
 14 20  2  0  0  0  0
 14 15  1  0  0  0  0
 15 16  2  0  0  0  0
 16 18  1  0  0  0  0
 16 17  1  0  0  0  0
 19 18  2  0  0  0  0
 20 19  1  0  0  0  0
M  END
>  <minimizedAffinity>
-3.70338225

$$$$

 OpenBabel03252504273D

 20 21  0  0  0  0  0  0  0  0999 V2000
   37.0970   30.7580   40.0360 C   0  0  0  0  0  0  0  0  0  0  0  0
   37.5160   29.8330   39.5410 H   0  0  0  0  0  0  0  0  0  0  0  0
   36.2390   31.0210   39.3710 H   0  0  0  0  0  0  0  0  0  0  0  0
   37.7390   33.0730   40.1810 C   0  0  0  0  0  0  0  0  0  0  0  0
   38.1380   31.7810   39.9060 C   0  0  0  0  0  0  0  0  0  0  0  0
   39.4520   31.5840   39.5390 C   0  0  0  0  0  0  0  0  0  0  0  0
   40.2650   32.6540   39.4720 N   0  0  0  0  0  0  0  0  0  0  0  0
   39.8590   33.9150   39.7460 C   0  0  0  0  0  0  0  0  0  0  0  0
   38.5760   34.1590   40.1110 N   0  0  0  0  0  0  0  0  0  0  0  0
   36.7350   33.3500   40.4780 H   0  0  0  0  0  0  0  0  0  0  0  0
   39.7440   30.5810   39.3290 H   0  0  0  0  0  0  0  0  0  0  0  0
   40.6880   34.6030   39.6240 H   0  0  0  0  0  0  0  0  0  0  0  0
   36.7260   30.4910   41.3430 O   0  0  0  0  0  0  0  0  0  0  0  0
   37.0150   29.2510   41.8970 C   0  0  0  0  0  0  0  0  0  0  0  0
   36.8020   28.1360   41.0830 C   0  0  0  0  0  3  0  0  0  0  0  0
   37.0760   26.8660   41.5870 C   0  0  0  0  0  0  0  0  0  0  0  0
   36.9430   25.9560   41.0360 H   0  0  0  0  0  0  0  0  0  0  0  0
   37.5390   26.7220   42.8420 N   0  0  0  0  0  0  0  0  0  0  0  0
   37.7350   27.7930   43.6000 C   0  0  0  0  0  3  0  0  0  0  0  0
   37.4820   29.0570   43.1520 N   0  0  0  0  0  0  0  0  0  0  0  0
  1 13  1  0  0  0  0
  2  1  1  0  0  0  0
  3  1  1  0  0  0  0
  4 10  1  0  0  0  0
  5  1  1  0  0  0  0
  5  4  2  0  0  0  0
  6  5  1  0  0  0  0
  7  6  2  0  0  0  0
  7  8  1  0  0  0  0
  8  9  2  0  0  0  0
  9  4  1  0  0  0  0
 11  6  1  0  0  0  0
 12  8  1  0  0  0  0
 13 14  1  0  0  0  0
 14 20  1  0  0  0  0
 15 16  1  0  0  0  0
 15 14  2  0  0  0  0
 16 18  2  0  0  0  0
 17 16  1  0  0  0  0
 18 19  1  0  0  0  0
 20 19  2  0  0  0  0
M  END
>  <minimizedAffinity>
-3.70191336

$$$$
