
 OpenBabel03252509293D

 19 20  0  0  0  0  0  0  0  0999 V2000
   47.3870   34.9970   41.9430 C   0  0  0  0  0  0  0  0  0  0  0  0
   48.3400   34.5190   42.2540 H   0  0  0  0  0  0  0  0  0  0  0  0
   47.6870   36.0560   41.6980 H   0  0  0  0  0  0  0  0  0  0  0  0
   44.6560   36.0100   44.2620 C   0  0  0  0  0  0  0  0  0  0  0  0
   45.5550   36.0110   43.1630 C   0  0  0  0  0  0  0  0  0  0  0  0
   46.4730   34.9750   43.0820 C   0  0  0  0  0  0  0  0  0  0  0  0
   46.4750   34.0110   44.0500 N   0  0  0  0  0  0  0  0  0  0  0  0
   45.6010   34.0520   45.0770 C   0  0  0  0  0  0  0  0  0  0  0  0
   44.7000   35.0420   45.1820 N   0  0  0  0  0  0  0  0  0  0  0  0
   43.9580   36.8380   44.2810 H   0  0  0  0  0  0  0  0  0  0  0  0
   45.5080   36.7920   42.4350 H   0  0  0  0  0  0  0  0  0  0  0  0
   45.6820   33.2310   45.8020 H   0  0  0  0  0  0  0  0  0  0  0  0
   46.9160   34.2920   40.7370 C   0  0  0  0  0  0  0  0  0  0  0  0
   47.7680   34.1710   39.6550 C   0  0  0  0  0  3  0  0  0  0  0  0
   47.4090   33.5210   38.4730 C   0  0  0  0  0  0  0  0  0  0  0  0
   48.0310   33.4050   37.6190 H   0  0  0  0  0  0  0  0  0  0  0  0
   46.1770   32.9930   38.3980 N   0  0  0  0  0  0  0  0  0  0  0  0
   45.3480   33.1070   39.4440 C   0  0  0  0  0  3  0  0  0  0  0  0
   45.6750   33.7380   40.6100 N   0  0  0  0  0  0  0  0  0  0  0  0
  1  2  1  0  0  0  0
  1  6  1  0  0  0  0
  3  1  1  0  0  0  0
  4 10  1  0  0  0  0
  4  9  1  0  0  0  0
  5  4  2  0  0  0  0
  6  5  1  0  0  0  0
  6  7  2  0  0  0  0
  7  8  1  0  0  0  0
  8  9  2  0  0  0  0
  8 12  1  0  0  0  0
 11  5  1  0  0  0  0
 13  1  1  0  0  0  0
 14 13  2  0  0  0  0
 15 14  1  0  0  0  0
 16 15  1  0  0  0  0
 17 15  2  0  0  0  0
 17 18  1  0  0  0  0
 18 19  2  0  0  0  0
 19 13  1  0  0  0  0
M  END
>  <minimizedAffinity>
-3.9782548

>  <minimizedRMSD>
0.762937546

$$$$
