
 OpenBabel03252509033D

 46 48  0  0  1  0  0  0  0  0999 V2000
   46.6950   34.4250   43.5710 N   0  0  0  0  0  0  0  0  0  0  0  0
   46.2240   35.4960   42.7720 C   0  0  0  0  0  0  0  0  0  0  0  0
   44.7360   35.7590   42.8590 C   0  0  0  0  0  0  0  0  0  0  0  0
   44.1210   35.4440   44.2020 C   0  0  0  0  0  0  0  0  0  0  0  0
   45.1740   35.0500   45.2110 C   0  0  0  0  0  0  0  0  0  0  0  0
   45.8940   33.8270   44.5220 C   0  0  2  0  0  0  0  0  0  0  0  0
   46.7260   36.4290   43.1570 H   0  0  0  0  0  0  0  0  0  0  0  0
   46.4720   35.4690   41.7060 H   0  0  0  0  0  0  0  0  0  0  0  0
   44.2150   35.2120   42.0280 H   0  0  0  0  0  0  0  0  0  0  0  0
   44.5370   36.8430   42.6670 H   0  0  0  0  0  0  0  0  0  0  0  0
   43.4180   36.2140   44.5580 H   0  0  0  0  0  0  0  0  0  0  0  0
   43.5030   34.5150   44.0510 H   0  0  0  0  0  0  0  0  0  0  0  0
   45.9140   35.8330   45.3990 H   0  0  0  0  0  0  0  0  0  0  0  0
   44.6420   34.6900   46.1120 H   0  0  0  0  0  0  0  0  0  0  0  0
   45.0800   33.1520   44.1900 H   0  0  0  0  0  0  0  0  0  0  0  0
   47.7190   33.6230   42.9330 C   0  0  0  0  0  0  0  0  0  0  0  0
   48.3770   34.3370   42.3950 H   0  0  0  0  0  0  0  0  0  0  0  0
   48.3770   33.1230   43.6880 H   0  0  0  0  0  0  0  0  0  0  0  0
   47.0670   32.6890   41.9850 C   0  0  0  0  0  0  0  0  0  0  0  0
   47.1440   31.6590   42.3350 H   0  0  0  0  0  0  0  0  0  0  0  0
   45.9530   32.8850   41.9200 H   0  0  0  0  0  0  0  0  0  0  0  0
   49.0690   31.9900   38.8710 C   0  0  0  0  0  0  0  0  0  0  0  0
   48.4710   31.8660   40.1420 C   0  0  0  0  0  0  0  0  0  0  0  0
   47.6800   32.8510   40.6430 C   0  0  0  0  0  0  0  0  0  0  0  0
   47.5000   33.9300   39.8780 N   0  0  0  0  0  0  0  0  0  0  0  0
   48.0560   34.0730   38.6650 C   0  0  0  0  0  0  0  0  0  0  0  0
   48.8430   33.1150   38.1450 N   0  0  0  0  0  0  0  0  0  0  0  0
   49.6930   31.2430   38.4450 H   0  0  0  0  0  0  0  0  0  0  0  0
   48.7220   30.9350   40.6170 H   0  0  0  0  0  0  0  0  0  0  0  0
   47.8230   35.0030   38.1540 H   0  0  0  0  0  0  0  0  0  0  0  0
   46.6160   33.3120   45.5730 O   0  0  0  0  0  0  0  0  0  0  0  0
   45.5470   31.0120   44.7360 O   0  0  0  0  0  0  0  0  0  0  0  0
   46.2260   31.7280   45.9270 P   0  0  2  0  0  0  0  0  0  0  0  0
   44.9740   31.7890   47.1130 O   0  0  0  0  0  0  0  0  0  0  0  0
   45.2650   32.4540   47.7930 H   0  0  0  0  0  0  0  0  0  0  0  0
   47.4560   30.8230   46.5510 O   0  0  0  0  0  0  0  0  0  0  0  0
   47.7030   29.7190   45.7780 C   0  0  0  0  0  0  0  0  0  0  0  0
   46.7360   29.5410   45.2060 H   0  0  0  0  0  0  0  0  0  0  0  0
   47.7100   28.8380   46.4880 H   0  0  0  0  0  0  0  0  0  0  0  0
   48.8620   29.7400   44.9000 C   0  0  0  0  0  0  0  0  0  0  0  0
   49.9300   29.0610   45.4950 C   0  0  0  0  0  3  0  0  0  0  0  0
   51.1110   28.9490   44.7500 C   0  0  0  0  0  0  0  0  0  0  0  0
   52.0050   28.4330   45.1320 H   0  0  0  0  0  0  0  0  0  0  0  0
   51.2520   29.4600   43.5140 N   0  0  0  0  0  0  0  0  0  0  0  0
   50.1960   30.1050   42.9870 C   0  0  0  0  0  3  0  0  0  0  0  0
   49.0320   30.2470   43.6480 N   0  0  0  0  0  0  0  0  0  0  0  0
  1  6  1  0  0  0  0
  2  3  1  0  0  0  0
  2  7  1  0  0  0  0
  2  1  1  0  0  0  0
  3  4  1  0  0  0  0
  4 11  1  0  0  0  0
  4  5  1  0  0  0  0
  5 13  1  0  0  0  0
  5 14  1  0  0  0  0
  6 15  1  6  0  0  0
  6  5  1  0  0  0  0
  6 31  1  0  0  0  0
  8  2  1  0  0  0  0
  9  3  1  0  0  0  0
 10  3  1  0  0  0  0
 12  4  1  0  0  0  0
 16  1  1  0  0  0  0
 16 18  1  0  0  0  0
 17 16  1  0  0  0  0
 19 20  1  0  0  0  0
 19 16  1  0  0  0  0
 21 19  1  0  0  0  0
 22 23  1  0  0  0  0
 23 29  1  0  0  0  0
 23 24  2  0  0  0  0
 24 19  1  0  0  0  0
 25 24  1  0  0  0  0
 26 25  2  0  0  0  0
 27 26  1  0  0  0  0
 27 22  2  0  0  0  0
 28 22  1  0  0  0  0
 30 26  1  0  0  0  0
 31 33  1  0  0  0  0
 33 32  2  6  0  0  0
 33 36  1  0  0  0  0
 33 34  1  0  0  0  0
 34 35  1  0  0  0  0
 37 39  1  0  0  0  0
 37 36  1  0  0  0  0
 38 37  1  0  0  0  0
 40 41  1  0  0  0  0
 40 37  1  0  0  0  0
 42 43  1  0  0  0  0
 42 41  2  0  0  0  0
 44 42  1  0  0  0  0
 45 44  2  0  0  0  0
 45 46  1  0  0  0  0
 46 40  2  0  0  0  0
M  END
>  <minimizedAffinity>
-4.02495718

>  <minimizedRMSD>
1.60606396

$$$$
