
 OpenBabel03252508423D

 26 28  0  0  0  0  0  0  0  0999 V2000
   36.5400   28.4590   41.3890 C   0  0  0  0  0  0  0  0  0  0  0  0
   37.4510   29.5020   41.4820 C   0  0  0  0  0  0  0  0  0  0  0  0
   38.1900   29.6290   42.6500 C   0  0  0  0  0  0  0  0  0  0  0  0
   38.0110   28.7350   43.6770 C   0  0  0  0  0  0  0  0  0  0  0  0
   37.1150   27.6950   43.6070 C   0  0  0  0  0  0  0  0  0  0  0  0
   36.3800   27.5840   42.4200 C   0  0  0  0  0  0  0  0  0  0  0  0
   38.9180   30.4290   42.7750 H   0  0  0  0  0  0  0  0  0  0  0  0
   38.5860   28.8300   44.5930 H   0  0  0  0  0  0  0  0  0  0  0  0
   36.9810   27.0030   44.4070 H   0  0  0  0  0  0  0  0  0  0  0  0
   35.6600   26.7760   42.3220 H   0  0  0  0  0  0  0  0  0  0  0  0
   33.9690   28.9500   38.6500 C   0  0  0  0  0  0  0  0  0  0  0  0
   34.6230   29.0990   39.8840 C   0  0  0  0  0  0  0  0  0  0  0  0
   35.7930   28.3710   40.1390 C   0  0  0  0  0  0  0  0  0  0  0  0
   36.2350   27.5480   39.1600 N   0  0  0  0  0  0  0  0  0  0  0  0
   35.5950   27.4140   37.9760 C   0  0  0  0  0  0  0  0  0  0  0  0
   34.4670   28.1080   37.7150 N   0  0  0  0  0  0  0  0  0  0  0  0
   33.0820   29.5710   38.5930 H   0  0  0  0  0  0  0  0  0  0  0  0
   34.2890   29.7500   40.6780 H   0  0  0  0  0  0  0  0  0  0  0  0
   35.9780   26.7410   37.2080 H   0  0  0  0  0  0  0  0  0  0  0  0
   37.7220   30.5080   40.4560 C   0  0  0  0  0  0  0  0  0  0  0  0
   37.0800   31.7330   40.4490 C   0  0  0  0  0  3  0  0  0  0  0  0
   37.3410   32.6920   39.4700 C   0  0  0  0  0  0  0  0  0  0  0  0
   36.8080   33.6370   39.5130 H   0  0  0  0  0  0  0  0  0  0  0  0
   38.2560   32.3850   38.5100 N   0  0  0  0  0  0  0  0  0  0  0  0
   38.8860   31.1760   38.5210 C   0  0  0  0  0  3  0  0  0  0  0  0
   38.6190   30.2690   39.4740 N   0  0  0  0  0  0  0  0  0  0  0  0
  1  2  2  0  0  0  0
  1  6  1  0  0  0  0
  2  3  1  0  0  0  0
  3  7  1  0  0  0  0
  3  4  2  0  0  0  0
  4  8  1  0  0  0  0
  5  4  1  0  0  0  0
  5  9  1  0  0  0  0
  6  5  2  0  0  0  0
 10  6  1  0  0  0  0
 11 12  1  0  0  0  0
 12 13  2  0  0  0  0
 12 18  1  0  0  0  0
 13  1  1  0  0  0  0
 14 13  1  0  0  0  0
 15 14  2  0  0  0  0
 16 15  1  0  0  0  0
 16 11  2  0  0  0  0
 17 11  1  0  0  0  0
 19 15  1  0  0  0  0
 20  2  1  0  0  0  0
 21 20  1  0  0  0  0
 22 23  1  0  0  0  0
 22 21  2  0  0  0  0
 24 25  2  0  0  0  0
 24 22  1  0  0  0  0
 25 26  1  0  0  0  0
 26 20  2  0  0  0  0
M  END
>  <minimizedAffinity>
-5.05556059

$$$$

 OpenBabel03252508423D

 26 28  0  0  0  0  0  0  0  0999 V2000
   38.5510   31.5770   40.8040 C   0  0  0  0  0  0  0  0  0  0  0  0
   37.4370   31.7340   39.9910 C   0  0  0  0  0  0  0  0  0  0  0  0
   37.1350   33.0070   39.5270 C   0  0  0  0  0  0  0  0  0  0  0  0
   37.9290   34.0720   39.8740 C   0  0  0  0  0  0  0  0  0  0  0  0
   39.0360   33.9400   40.6780 C   0  0  0  0  0  0  0  0  0  0  0  0
   39.3240   32.6480   41.1350 C   0  0  0  0  0  0  0  0  0  0  0  0
   36.2730   33.1850   38.8860 H   0  0  0  0  0  0  0  0  0  0  0  0
   37.6960   35.0690   39.5140 H   0  0  0  0  0  0  0  0  0  0  0  0
   39.6510   34.7700   40.9440 H   0  0  0  0  0  0  0  0  0  0  0  0
   40.1910   32.4990   41.7740 H   0  0  0  0  0  0  0  0  0  0  0  0
   38.7940   28.4250   42.8920 C   0  0  0  0  0  0  0  0  0  0  0  0
   38.4910   29.7500   42.5390 C   0  0  0  0  0  0  0  0  0  0  0  0
   38.8240   30.2190   41.2610 C   0  0  0  0  0  0  0  0  0  0  0  0
   39.4310   29.3470   40.4210 N   0  0  0  0  0  0  0  0  0  0  0  0
   39.7160   28.0740   40.7750 C   0  0  0  0  0  0  0  0  0  0  0  0
   39.4020   27.6080   42.0020 N   0  0  0  0  0  0  0  0  0  0  0  0
   38.4810   28.2030   43.9060 H   0  0  0  0  0  0  0  0  0  0  0  0
   38.0070   30.4620   43.1920 H   0  0  0  0  0  0  0  0  0  0  0  0
   40.2070   27.3970   40.0740 H   0  0  0  0  0  0  0  0  0  0  0  0
   36.5240   30.6760   39.5590 C   0  0  0  0  0  0  0  0  0  0  0  0
   36.5470   30.1740   38.2710 C   0  0  0  0  0  3  0  0  0  0  0  0
   35.6770   29.1640   37.8620 C   0  0  0  0  0  0  0  0  0  0  0  0
   35.7390   28.8070   36.8380 H   0  0  0  0  0  0  0  0  0  0  0  0
   34.7930   28.6790   38.7770 N   0  0  0  0  0  0  0  0  0  0  0  0
   34.7740   29.1780   40.0460 C   0  0  0  0  0  3  0  0  0  0  0  0
   35.6230   30.1500   40.4170 N   0  0  0  0  0  0  0  0  0  0  0  0
  1  6  1  0  0  0  0
  1 13  1  0  0  0  0
  2  1  2  0  0  0  0
  3  4  2  0  0  0  0
  3  2  1  0  0  0  0
  4  5  1  0  0  0  0
  5  9  1  0  0  0  0
  5  6  2  0  0  0  0
  6 10  1  0  0  0  0
  7  3  1  0  0  0  0
  8  4  1  0  0  0  0
 11 17  1  0  0  0  0
 12 11  1  0  0  0  0
 12 18  1  0  0  0  0
 13 12  2  0  0  0  0
 14 15  2  0  0  0  0
 14 13  1  0  0  0  0
 15 16  1  0  0  0  0
 16 11  2  0  0  0  0
 19 15  1  0  0  0  0
 20  2  1  0  0  0  0
 20 26  1  0  0  0  0
 21 20  2  0  0  0  0
 22 21  1  0  0  0  0
 22 24  2  0  0  0  0
 23 22  1  0  0  0  0
 24 25  1  0  0  0  0
 25 26  2  0  0  0  0
M  END
>  <minimizedAffinity>
-4.89251184

$$$$

 OpenBabel03252508423D

 26 28  0  0  0  0  0  0  0  0999 V2000
   37.6240   29.4580   41.6500 C   0  0  0  0  0  0  0  0  0  0  0  0
   36.8660   28.4900   41.0070 C   0  0  0  0  0  0  0  0  0  0  0  0
   36.5170   27.3490   41.7170 C   0  0  0  0  0  0  0  0  0  0  0  0
   36.9220   27.2000   43.0210 C   0  0  0  0  0  0  0  0  0  0  0  0
   37.6740   28.1450   43.6770 C   0  0  0  0  0  0  0  0  0  0  0  0
   38.0150   29.2890   42.9430 C   0  0  0  0  0  0  0  0  0  0  0  0
   35.9230   26.5580   41.2620 H   0  0  0  0  0  0  0  0  0  0  0  0
   36.6530   26.3090   43.5800 H   0  0  0  0  0  0  0  0  0  0  0  0
   37.9850   28.0260   44.6890 H   0  0  0  0  0  0  0  0  0  0  0  0
   38.6080   30.0620   43.4230 H   0  0  0  0  0  0  0  0  0  0  0  0
   37.4880   32.8030   39.8760 C   0  0  0  0  0  0  0  0  0  0  0  0
   37.0790   31.7090   40.6550 C   0  0  0  0  0  0  0  0  0  0  0  0
   37.9590   30.6370   40.8580 C   0  0  0  0  0  0  0  0  0  0  0  0
   39.1800   30.7210   40.2790 N   0  0  0  0  0  0  0  0  0  0  0  0
   39.5600   31.7820   39.5320 C   0  0  0  0  0  0  0  0  0  0  0  0
   38.7240   32.8210   39.3260 N   0  0  0  0  0  0  0  0  0  0  0  0
   36.7080   33.5530   39.8050 H   0  0  0  0  0  0  0  0  0  0  0  0
   36.1110   31.6210   41.1260 H   0  0  0  0  0  0  0  0  0  0  0  0
   40.5520   31.8180   39.0790 H   0  0  0  0  0  0  0  0  0  0  0  0
   36.3820   28.5420   39.6280 C   0  0  0  0  0  0  0  0  0  0  0  0
   35.0880   28.9230   39.3240 C   0  0  0  0  0  3  0  0  0  0  0  0
   34.6280   28.9740   38.0080 C   0  0  0  0  0  0  0  0  0  0  0  0
   33.6020   29.2810   37.8270 H   0  0  0  0  0  0  0  0  0  0  0  0
   35.5000   28.6340   37.0190 N   0  0  0  0  0  0  0  0  0  0  0  0
   36.7750   28.2590   37.3240 C   0  0  0  0  0  3  0  0  0  0  0  0
   37.1940   28.2180   38.5990 N   0  0  0  0  0  0  0  0  0  0  0  0
  1  6  1  0  0  0  0
  2  1  2  0  0  0  0
  2  3  1  0  0  0  0
  3  4  2  0  0  0  0
  4  8  1  0  0  0  0
  4  5  1  0  0  0  0
  5  9  1  0  0  0  0
  6 10  1  0  0  0  0
  6  5  2  0  0  0  0
  7  3  1  0  0  0  0
 11 12  1  0  0  0  0
 12 13  2  0  0  0  0
 12 18  1  0  0  0  0
 13  1  1  0  0  0  0
 14 13  1  0  0  0  0
 15 14  2  0  0  0  0
 16 15  1  0  0  0  0
 16 11  2  0  0  0  0
 17 11  1  0  0  0  0
 19 15  1  0  0  0  0
 20  2  1  0  0  0  0
 21 20  1  0  0  0  0
 22 21  2  0  0  0  0
 23 22  1  0  0  0  0
 24 25  2  0  0  0  0
 24 22  1  0  0  0  0
 25 26  1  0  0  0  0
 26 20  2  0  0  0  0
M  END
>  <minimizedAffinity>
-4.88495731

$$$$

 OpenBabel03252508423D

 26 28  0  0  0  0  0  0  0  0999 V2000
   37.5140   31.8440   39.9350 C   0  0  0  0  0  0  0  0  0  0  0  0
   38.6080   31.4880   40.7120 C   0  0  0  0  0  0  0  0  0  0  0  0
   39.4910   32.4870   41.1000 C   0  0  0  0  0  0  0  0  0  0  0  0
   39.2700   33.7870   40.7170 C   0  0  0  0  0  0  0  0  0  0  0  0
   38.1940   34.1610   39.9480 C   0  0  0  0  0  0  0  0  0  0  0  0
   37.3160   33.1390   39.5670 C   0  0  0  0  0  0  0  0  0  0  0  0
   40.3650   32.2630   41.7100 H   0  0  0  0  0  0  0  0  0  0  0  0
   39.9580   34.5710   41.0180 H   0  0  0  0  0  0  0  0  0  0  0  0
   38.0270   35.1720   39.6540 H   0  0  0  0  0  0  0  0  0  0  0  0
   36.4510   33.3910   38.9580 H   0  0  0  0  0  0  0  0  0  0  0  0
   35.6910   29.1400   38.0050 C   0  0  0  0  0  0  0  0  0  0  0  0
   36.5910   30.1840   38.2780 C   0  0  0  0  0  0  0  0  0  0  0  0
   36.6180   30.7560   39.5570 C   0  0  0  0  0  0  0  0  0  0  0  0
   35.7580   30.2570   40.4760 N   0  0  0  0  0  0  0  0  0  0  0  0
   34.8970   29.2520   40.1980 C   0  0  0  0  0  0  0  0  0  0  0  0
   34.8590   28.6910   38.9710 N   0  0  0  0  0  0  0  0  0  0  0  0
   35.7810   28.7980   36.9800 H   0  0  0  0  0  0  0  0  0  0  0  0
   37.2850   30.5970   37.5610 H   0  0  0  0  0  0  0  0  0  0  0  0
   34.2170   28.8730   40.9620 H   0  0  0  0  0  0  0  0  0  0  0  0
   38.9400   30.1420   41.1760 C   0  0  0  0  0  0  0  0  0  0  0  0
   38.6640   29.7270   42.4650 C   0  0  0  0  0  3  0  0  0  0  0  0
   38.9810   28.4420   42.9060 C   0  0  0  0  0  0  0  0  0  0  0  0
   38.7400   28.1690   43.9290 H   0  0  0  0  0  0  0  0  0  0  0  0
   39.5760   27.5970   42.0200 N   0  0  0  0  0  0  0  0  0  0  0  0
   39.8470   28.0110   40.7490 C   0  0  0  0  0  3  0  0  0  0  0  0
   39.5320   29.2530   40.3480 N   0  0  0  0  0  0  0  0  0  0  0  0
  1  2  1  0  0  0  0
  2  3  2  0  0  0  0
  2 20  1  0  0  0  0
  3  7  1  0  0  0  0
  4  8  1  0  0  0  0
  4  3  1  0  0  0  0
  5  4  2  0  0  0  0
  6  1  2  0  0  0  0
  6  5  1  0  0  0  0
  9  5  1  0  0  0  0
 10  6  1  0  0  0  0
 11 12  2  0  0  0  0
 11 16  1  0  0  0  0
 12 13  1  0  0  0  0
 13  1  1  0  0  0  0
 13 14  2  0  0  0  0
 15 14  1  0  0  0  0
 15 19  1  0  0  0  0
 16 15  2  0  0  0  0
 17 11  1  0  0  0  0
 18 12  1  0  0  0  0
 20 21  1  0  0  0  0
 21 22  2  0  0  0  0
 22 23  1  0  0  0  0
 24 22  1  0  0  0  0
 25 24  2  0  0  0  0
 26 25  1  0  0  0  0
 26 20  2  0  0  0  0
M  END
>  <minimizedAffinity>
-4.81376123

$$$$

 OpenBabel03252508423D

 26 28  0  0  0  0  0  0  0  0999 V2000
   36.8390   28.2830   41.0890 C   0  0  0  0  0  0  0  0  0  0  0  0
   37.5590   29.3620   41.5820 C   0  0  0  0  0  0  0  0  0  0  0  0
   37.9930   29.3170   42.9000 C   0  0  0  0  0  0  0  0  0  0  0  0
   37.7090   28.2230   43.6800 C   0  0  0  0  0  0  0  0  0  0  0  0
   36.9980   27.1430   43.2130 C   0  0  0  0  0  0  0  0  0  0  0  0
   36.5690   27.2080   41.8810 C   0  0  0  0  0  0  0  0  0  0  0  0
   38.5610   30.1360   43.3370 H   0  0  0  0  0  0  0  0  0  0  0  0
   38.0460   28.1830   44.7110 H   0  0  0  0  0  0  0  0  0  0  0  0
   36.7810   26.2950   43.8220 H   0  0  0  0  0  0  0  0  0  0  0  0
   36.0040   26.3760   41.4700 H   0  0  0  0  0  0  0  0  0  0  0  0
   34.8210   28.9100   37.9440 C   0  0  0  0  0  0  0  0  0  0  0  0
   35.1470   28.8510   39.3090 C   0  0  0  0  0  0  0  0  0  0  0  0
   36.4100   28.3820   39.6980 C   0  0  0  0  0  0  0  0  0  0  0  0
   37.2600   28.0060   38.7140 N   0  0  0  0  0  0  0  0  0  0  0  0
   36.9320   28.0690   37.4040 C   0  0  0  0  0  0  0  0  0  0  0  0
   35.7200   28.5170   37.0130 N   0  0  0  0  0  0  0  0  0  0  0  0
   33.8170   29.2900   37.7930 H   0  0  0  0  0  0  0  0  0  0  0  0
   34.4860   29.1450   40.1100 H   0  0  0  0  0  0  0  0  0  0  0  0
   37.6410   27.7580   36.6360 H   0  0  0  0  0  0  0  0  0  0  0  0
   37.9170   30.5740   40.8450 C   0  0  0  0  0  0  0  0  0  0  0  0
   39.1720   30.7450   40.2920 C   0  0  0  0  0  3  0  0  0  0  0  0
   39.5120   31.9010   39.5890 C   0  0  0  0  0  0  0  0  0  0  0  0
   40.5130   31.9820   39.1740 H   0  0  0  0  0  0  0  0  0  0  0  0
   38.5610   32.8670   39.4590 N   0  0  0  0  0  0  0  0  0  0  0  0
   37.3240   32.6930   40.0070 C   0  0  0  0  0  3  0  0  0  0  0  0
   37.0210   31.5710   40.6800 N   0  0  0  0  0  0  0  0  0  0  0  0
  1  2  2  0  0  0  0
  1  6  1  0  0  0  0
  2  3  1  0  0  0  0
  3  7  1  0  0  0  0
  3  4  2  0  0  0  0
  4  8  1  0  0  0  0
  5  4  1  0  0  0  0
  5  9  1  0  0  0  0
  6  5  2  0  0  0  0
 10  6  1  0  0  0  0
 11 12  1  0  0  0  0
 12 13  2  0  0  0  0
 12 18  1  0  0  0  0
 13  1  1  0  0  0  0
 14 13  1  0  0  0  0
 15 14  2  0  0  0  0
 16 15  1  0  0  0  0
 16 11  2  0  0  0  0
 17 11  1  0  0  0  0
 19 15  1  0  0  0  0
 20  2  1  0  0  0  0
 21 20  2  0  0  0  0
 22 21  1  0  0  0  0
 23 22  1  0  0  0  0
 24 22  2  0  0  0  0
 24 25  1  0  0  0  0
 25 26  2  0  0  0  0
 26 20  1  0  0  0  0
M  END
>  <minimizedAffinity>
-4.76672554

$$$$

 OpenBabel03252508423D

 26 28  0  0  0  0  0  0  0  0999 V2000
   36.5740   26.1370   39.5320 C   0  0  0  0  0  0  0  0  0  0  0  0
   37.0240   25.9810   40.8350 C   0  0  0  0  0  0  0  0  0  0  0  0
   36.9670   24.7160   41.4040 C   0  0  0  0  0  0  0  0  0  0  0  0
   36.4750   23.6590   40.6800 C   0  0  0  0  0  0  0  0  0  0  0  0
   36.0250   23.7900   39.3880 C   0  0  0  0  0  0  0  0  0  0  0  0
   36.0910   25.0740   38.8320 C   0  0  0  0  0  0  0  0  0  0  0  0
   37.3070   24.5380   42.4230 H   0  0  0  0  0  0  0  0  0  0  0  0
   36.4280   22.6670   41.1200 H   0  0  0  0  0  0  0  0  0  0  0  0
   35.6450   22.9650   38.8290 H   0  0  0  0  0  0  0  0  0  0  0  0
   35.7450   25.2230   37.8130 H   0  0  0  0  0  0  0  0  0  0  0  0
   35.8240   29.7260   38.5760 C   0  0  0  0  0  0  0  0  0  0  0  0
   35.6560   28.4520   39.1420 C   0  0  0  0  0  0  0  0  0  0  0  0
   36.6600   27.4870   38.9830 C   0  0  0  0  0  0  0  0  0  0  0  0
   37.7580   27.8470   38.2780 N   0  0  0  0  0  0  0  0  0  0  0  0
   37.9060   29.0780   37.7390 C   0  0  0  0  0  0  0  0  0  0  0  0
   36.9490   30.0180   37.8830 N   0  0  0  0  0  0  0  0  0  0  0  0
   34.9720   30.3660   38.7790 H   0  0  0  0  0  0  0  0  0  0  0  0
   34.7890   28.1430   39.7080 H   0  0  0  0  0  0  0  0  0  0  0  0
   38.8040   29.3350   37.1750 H   0  0  0  0  0  0  0  0  0  0  0  0
   37.5650   27.0330   41.6960 C   0  0  0  0  0  0  0  0  0  0  0  0
   36.8070   27.6190   42.6930 C   0  0  0  0  0  3  0  0  0  0  0  0
   37.3240   28.6210   43.5140 C   0  0  0  0  0  0  0  0  0  0  0  0
   36.6840   29.0460   44.2820 H   0  0  0  0  0  0  0  0  0  0  0  0
   38.6120   29.0100   43.3050 N   0  0  0  0  0  0  0  0  0  0  0  0
   39.3550   28.4290   42.3200 C   0  0  0  0  0  3  0  0  0  0  0  0
   38.8350   27.4660   41.5420 N   0  0  0  0  0  0  0  0  0  0  0  0
  1  2  1  0  0  0  0
  2  3  2  0  0  0  0
  2 20  1  0  0  0  0
  3  7  1  0  0  0  0
  4  8  1  0  0  0  0
  4  3  1  0  0  0  0
  5  4  2  0  0  0  0
  6  5  1  0  0  0  0
  6  1  2  0  0  0  0
  9  5  1  0  0  0  0
 10  6  1  0  0  0  0
 11 17  1  0  0  0  0
 11 12  1  0  0  0  0
 12 18  1  0  0  0  0
 13 12  2  0  0  0  0
 13  1  1  0  0  0  0
 14 13  1  0  0  0  0
 15 16  1  0  0  0  0
 15 14  2  0  0  0  0
 16 11  2  0  0  0  0
 19 15  1  0  0  0  0
 20 21  1  0  0  0  0
 21 22  2  0  0  0  0
 22 23  1  0  0  0  0
 24 22  1  0  0  0  0
 25 24  2  0  0  0  0
 26 20  2  0  0  0  0
 26 25  1  0  0  0  0
M  END
>  <minimizedAffinity>
-4.62313843

$$$$

 OpenBabel03252508423D

 26 28  0  0  0  0  0  0  0  0999 V2000
   36.2800   26.7080   39.2430 C   0  0  0  0  0  0  0  0  0  0  0  0
   36.2060   27.9080   39.9350 C   0  0  0  0  0  0  0  0  0  0  0  0
   35.3590   28.8960   39.4520 C   0  0  0  0  0  0  0  0  0  0  0  0
   34.6210   28.6730   38.3160 C   0  0  0  0  0  0  0  0  0  0  0  0
   34.6780   27.4920   37.6140 C   0  0  0  0  0  0  0  0  0  0  0  0
   35.5380   26.5080   38.1180 C   0  0  0  0  0  0  0  0  0  0  0  0
   35.2640   29.8560   39.9560 H   0  0  0  0  0  0  0  0  0  0  0  0
   33.9570   29.4430   37.9340 H   0  0  0  0  0  0  0  0  0  0  0  0
   34.1010   27.3230   36.7330 H   0  0  0  0  0  0  0  0  0  0  0  0
   35.6140   25.5590   37.5940 H   0  0  0  0  0  0  0  0  0  0  0  0
   37.7030   23.7370   41.1150 C   0  0  0  0  0  0  0  0  0  0  0  0
   36.7610   24.6570   40.6270 C   0  0  0  0  0  0  0  0  0  0  0  0
   37.1830   25.7040   39.7960 C   0  0  0  0  0  0  0  0  0  0  0  0
   38.5030   25.7690   39.5050 N   0  0  0  0  0  0  0  0  0  0  0  0
   39.3990   24.8750   39.9820 C   0  0  0  0  0  0  0  0  0  0  0  0
   39.0090   23.8620   40.7830 N   0  0  0  0  0  0  0  0  0  0  0  0
   37.2360   22.9860   41.7410 H   0  0  0  0  0  0  0  0  0  0  0  0
   35.7040   24.6240   40.8450 H   0  0  0  0  0  0  0  0  0  0  0  0
   40.4570   24.9570   39.7280 H   0  0  0  0  0  0  0  0  0  0  0  0
   36.9440   28.2540   41.1500 C   0  0  0  0  0  0  0  0  0  0  0  0
   36.5020   27.8730   42.4040 C   0  0  0  0  0  3  0  0  0  0  0  0
   37.2080   28.2030   43.5610 C   0  0  0  0  0  0  0  0  0  0  0  0
   36.8150   27.8770   44.5200 H   0  0  0  0  0  0  0  0  0  0  0  0
   38.3580   28.9180   43.4200 N   0  0  0  0  0  0  0  0  0  0  0  0
   38.7890   29.2900   42.1810 C   0  0  0  0  0  3  0  0  0  0  0  0
   38.0930   28.9610   41.0820 N   0  0  0  0  0  0  0  0  0  0  0  0
  1 13  1  0  0  0  0
  1  2  1  0  0  0  0
  2 20  1  0  0  0  0
  3  2  2  0  0  0  0
  3  7  1  0  0  0  0
  4  3  1  0  0  0  0
  5  6  1  0  0  0  0
  5  4  2  0  0  0  0
  6  1  2  0  0  0  0
  8  4  1  0  0  0  0
  9  5  1  0  0  0  0
 10  6  1  0  0  0  0
 11 17  1  0  0  0  0
 12 18  1  0  0  0  0
 12 11  2  0  0  0  0
 13 12  1  0  0  0  0
 14 13  2  0  0  0  0
 14 15  1  0  0  0  0
 15 16  2  0  0  0  0
 16 11  1  0  0  0  0
 19 15  1  0  0  0  0
 20 21  1  0  0  0  0
 21 22  2  0  0  0  0
 22 23  1  0  0  0  0
 24 22  1  0  0  0  0
 25 24  2  0  0  0  0
 26 20  2  0  0  0  0
 26 25  1  0  0  0  0
M  END
>  <minimizedAffinity>
-4.57804108

$$$$

 OpenBabel03252508423D

 26 28  0  0  0  0  0  0  0  0999 V2000
   37.5330   29.0930   41.6040 C   0  0  0  0  0  0  0  0  0  0  0  0
   38.7770   28.9760   42.2100 C   0  0  0  0  0  0  0  0  0  0  0  0
   38.9140   28.0810   43.2620 C   0  0  0  0  0  0  0  0  0  0  0  0
   37.8360   27.3400   43.6800 C   0  0  0  0  0  0  0  0  0  0  0  0
   36.5960   27.4400   43.0950 C   0  0  0  0  0  0  0  0  0  0  0  0
   36.4780   28.3480   42.0350 C   0  0  0  0  0  0  0  0  0  0  0  0
   39.8660   27.9500   43.7730 H   0  0  0  0  0  0  0  0  0  0  0  0
   37.9380   26.6400   44.5030 H   0  0  0  0  0  0  0  0  0  0  0  0
   35.7620   26.8610   43.4220 H   0  0  0  0  0  0  0  0  0  0  0  0
   35.5150   28.4590   41.5430 H   0  0  0  0  0  0  0  0  0  0  0  0
   37.0900   32.2480   39.5530 C   0  0  0  0  0  0  0  0  0  0  0  0
   37.1540   31.4050   40.6750 C   0  0  0  0  0  0  0  0  0  0  0  0
   37.4460   30.0450   40.5020 C   0  0  0  0  0  0  0  0  0  0  0  0
   37.6540   29.6140   39.2360 N   0  0  0  0  0  0  0  0  0  0  0  0
   37.5890   30.4380   38.1660 C   0  0  0  0  0  0  0  0  0  0  0  0
   37.3080   31.7490   38.3150 N   0  0  0  0  0  0  0  0  0  0  0  0
   36.8550   33.2680   39.8370 H   0  0  0  0  0  0  0  0  0  0  0  0
   36.9920   31.7280   41.6930 H   0  0  0  0  0  0  0  0  0  0  0  0
   37.7610   30.0570   37.1580 H   0  0  0  0  0  0  0  0  0  0  0  0
   39.9880   29.7120   41.8500 C   0  0  0  0  0  0  0  0  0  0  0  0
   40.3870   30.8410   42.5410 C   0  0  0  0  0  3  0  0  0  0  0  0
   41.5420   31.5410   42.1970 C   0  0  0  0  0  0  0  0  0  0  0  0
   41.8090   32.4220   42.7760 H   0  0  0  0  0  0  0  0  0  0  0  0
   42.2770   31.0770   41.1500 N   0  0  0  0  0  0  0  0  0  0  0  0
   41.8800   29.9630   40.4710 C   0  0  0  0  0  3  0  0  0  0  0  0
   40.7630   29.3050   40.8210 N   0  0  0  0  0  0  0  0  0  0  0  0
  1  6  2  0  0  0  0
  1  2  1  0  0  0  0
  2  3  2  0  0  0  0
  3  4  1  0  0  0  0
  3  7  1  0  0  0  0
  4  8  1  0  0  0  0
  5  9  1  0  0  0  0
  5  4  2  0  0  0  0
  6  5  1  0  0  0  0
 10  6  1  0  0  0  0
 11 17  1  0  0  0  0
 11 12  1  0  0  0  0
 12 18  1  0  0  0  0
 13 12  2  0  0  0  0
 13  1  1  0  0  0  0
 14 13  1  0  0  0  0
 15 16  1  0  0  0  0
 15 14  2  0  0  0  0
 16 11  2  0  0  0  0
 19 15  1  0  0  0  0
 20  2  1  0  0  0  0
 20 21  1  0  0  0  0
 22 21  2  0  0  0  0
 22 23  1  0  0  0  0
 24 22  1  0  0  0  0
 25 26  1  0  0  0  0
 25 24  2  0  0  0  0
 26 20  2  0  0  0  0
M  END
>  <minimizedAffinity>
-4.57603836

$$$$

 OpenBabel03252508423D

 26 28  0  0  0  0  0  0  0  0999 V2000
   36.1610   27.9580   39.9040 C   0  0  0  0  0  0  0  0  0  0  0  0
   36.3420   26.7070   39.3310 C   0  0  0  0  0  0  0  0  0  0  0  0
   35.6400   26.4080   38.1710 C   0  0  0  0  0  0  0  0  0  0  0  0
   34.7950   27.3390   37.6200 C   0  0  0  0  0  0  0  0  0  0  0  0
   34.6000   28.5830   38.1700 C   0  0  0  0  0  0  0  0  0  0  0  0
   35.3180   28.8660   39.3400 C   0  0  0  0  0  0  0  0  0  0  0  0
   35.7450   25.4420   37.6810 H   0  0  0  0  0  0  0  0  0  0  0  0
   34.2430   27.1090   36.7130 H   0  0  0  0  0  0  0  0  0  0  0  0
   33.9430   29.3020   37.7370 H   0  0  0  0  0  0  0  0  0  0  0  0
   35.1940   29.8380   39.8090 H   0  0  0  0  0  0  0  0  0  0  0  0
   37.2860   28.1620   43.5170 C   0  0  0  0  0  0  0  0  0  0  0  0
   36.4830   27.8680   42.4030 C   0  0  0  0  0  0  0  0  0  0  0  0
   36.9250   28.2210   41.1200 C   0  0  0  0  0  0  0  0  0  0  0  0
   38.1260   28.8390   41.0270 N   0  0  0  0  0  0  0  0  0  0  0  0
   38.8870   29.1160   42.1100 C   0  0  0  0  0  0  0  0  0  0  0  0
   38.4770   28.7820   43.3510 N   0  0  0  0  0  0  0  0  0  0  0  0
   36.8200   27.8330   44.4390 H   0  0  0  0  0  0  0  0  0  0  0  0
   35.5230   27.3750   42.4530 H   0  0  0  0  0  0  0  0  0  0  0  0
   39.8510   29.6150   42.0000 H   0  0  0  0  0  0  0  0  0  0  0  0
   37.2120   25.6430   39.8300 C   0  0  0  0  0  0  0  0  0  0  0  0
   36.7290   24.6170   40.6200 C   0  0  0  0  0  3  0  0  0  0  0  0
   37.5600   23.6030   41.0940 C   0  0  0  0  0  0  0  0  0  0  0  0
   37.1260   22.8200   41.7100 H   0  0  0  0  0  0  0  0  0  0  0  0
   38.8780   23.6520   40.7540 N   0  0  0  0  0  0  0  0  0  0  0  0
   39.3500   24.6660   39.9750 C   0  0  0  0  0  3  0  0  0  0  0  0
   38.5290   25.6320   39.5300 N   0  0  0  0  0  0  0  0  0  0  0  0
  1 13  1  0  0  0  0
  2 20  1  0  0  0  0
  2  1  2  0  0  0  0
  3  2  1  0  0  0  0
  4  5  1  0  0  0  0
  4  3  2  0  0  0  0
  5  6  2  0  0  0  0
  6 10  1  0  0  0  0
  6  1  1  0  0  0  0
  7  3  1  0  0  0  0
  8  4  1  0  0  0  0
  9  5  1  0  0  0  0
 11 17  1  0  0  0  0
 12 18  1  0  0  0  0
 12 11  2  0  0  0  0
 13 12  1  0  0  0  0
 14 13  2  0  0  0  0
 14 15  1  0  0  0  0
 15 16  2  0  0  0  0
 16 11  1  0  0  0  0
 19 15  1  0  0  0  0
 20 21  1  0  0  0  0
 21 22  2  0  0  0  0
 22 23  1  0  0  0  0
 24 22  1  0  0  0  0
 25 24  2  0  0  0  0
 26 20  2  0  0  0  0
 26 25  1  0  0  0  0
M  END
>  <minimizedAffinity>
-4.55908155

$$$$
