
 OpenBabel03252509043D

 46 48  0  0  1  0  0  0  0  0999 V2000
   46.7860   34.3720   43.5960 N   0  0  0  0  0  0  0  0  0  0  0  0
   46.3510   35.3640   42.6830 C   0  0  0  0  0  0  0  0  0  0  0  0
   44.8550   35.5890   42.6410 C   0  0  0  0  0  0  0  0  0  0  0  0
   44.1490   35.3600   43.9550 C   0  0  0  0  0  0  0  0  0  0  0  0
   45.1320   35.0750   45.0670 C   0  0  0  0  0  0  0  0  0  0  0  0
   45.9310   33.8250   44.5300 C   0  0  2  0  0  0  0  0  0  0  0  0
   46.8010   36.3370   43.0290 H   0  0  0  0  0  0  0  0  0  0  0  0
   46.6790   35.2620   41.6440 H   0  0  0  0  0  0  0  0  0  0  0  0
   44.4100   34.9640   41.8200 H   0  0  0  0  0  0  0  0  0  0  0  0
   44.6460   36.6490   42.3500 H   0  0  0  0  0  0  0  0  0  0  0  0
   43.4030   36.1340   44.1980 H   0  0  0  0  0  0  0  0  0  0  0  0
   43.5650   34.4040   43.8340 H   0  0  0  0  0  0  0  0  0  0  0  0
   45.8380   35.8920   45.2460 H   0  0  0  0  0  0  0  0  0  0  0  0
   44.5430   34.7700   45.9520 H   0  0  0  0  0  0  0  0  0  0  0  0
   45.1600   33.1020   44.1940 H   0  0  0  0  0  0  0  0  0  0  0  0
   47.8730   33.5530   43.0990 C   0  0  0  0  0  0  0  0  0  0  0  0
   48.5200   34.2310   42.5030 H   0  0  0  0  0  0  0  0  0  0  0  0
   48.5210   33.1820   43.9340 H   0  0  0  0  0  0  0  0  0  0  0  0
   47.3080   32.4800   42.2480 C   0  0  0  0  0  0  0  0  0  0  0  0
   47.4830   31.4970   42.6900 H   0  0  0  0  0  0  0  0  0  0  0  0
   46.1810   32.5640   42.1800 H   0  0  0  0  0  0  0  0  0  0  0  0
   49.5560   31.8750   39.2870 C   0  0  0  0  0  0  0  0  0  0  0  0
   48.9730   31.8070   40.5680 C   0  0  0  0  0  0  0  0  0  0  0  0
   47.8980   32.5740   40.8900 C   0  0  0  0  0  0  0  0  0  0  0  0
   47.4290   33.3860   39.9390 N   0  0  0  0  0  0  0  0  0  0  0  0
   47.9640   33.4690   38.7120 C   0  0  0  0  0  0  0  0  0  0  0  0
   49.0280   32.7230   38.3670 N   0  0  0  0  0  0  0  0  0  0  0  0
   50.3960   31.2920   38.9980 H   0  0  0  0  0  0  0  0  0  0  0  0
   49.4760   31.1020   41.2040 H   0  0  0  0  0  0  0  0  0  0  0  0
   47.4790   34.1720   38.0400 H   0  0  0  0  0  0  0  0  0  0  0  0
   46.5840   33.4140   45.6680 O   0  0  0  0  0  0  0  0  0  0  0  0
   45.5600   31.0540   44.9480 O   0  0  0  0  0  0  0  0  0  0  0  0
   46.2280   31.8410   46.1000 P   0  0  2  0  0  0  0  0  0  0  0  0
   44.9790   31.9330   47.2870 O   0  0  0  0  0  0  0  0  0  0  0  0
   45.2580   32.6370   47.9340 H   0  0  0  0  0  0  0  0  0  0  0  0
   47.4790   30.9930   46.7620 O   0  0  0  0  0  0  0  0  0  0  0  0
   47.6610   29.7950   46.1210 C   0  0  0  0  0  0  0  0  0  0  0  0
   46.8170   29.7390   45.3620 H   0  0  0  0  0  0  0  0  0  0  0  0
   47.3540   28.9970   46.8610 H   0  0  0  0  0  0  0  0  0  0  0  0
   48.9580   29.5290   45.5190 C   0  0  0  0  0  0  0  0  0  0  0  0
   48.9330   29.8540   44.1570 C   0  0  0  0  0  3  0  0  0  0  0  0
   50.1270   29.7010   43.4420 C   0  0  0  0  0  0  0  0  0  0  0  0
   50.2070   29.9300   42.3690 H   0  0  0  0  0  0  0  0  0  0  0  0
   51.2690   29.2630   44.0010 N   0  0  0  0  0  0  0  0  0  0  0  0
   51.2400   28.9650   45.3130 C   0  0  0  0  0  3  0  0  0  0  0  0
   50.1270   29.0890   46.0580 N   0  0  0  0  0  0  0  0  0  0  0  0
  1  6  1  0  0  0  0
  2  7  1  0  0  0  0
  2  1  1  0  0  0  0
  3  2  1  0  0  0  0
  3  4  1  0  0  0  0
  4 11  1  0  0  0  0
  4  5  1  0  0  0  0
  5 13  1  0  0  0  0
  5 14  1  0  0  0  0
  6 15  1  6  0  0  0
  6  5  1  0  0  0  0
  6 31  1  0  0  0  0
  8  2  1  0  0  0  0
  9  3  1  0  0  0  0
 10  3  1  0  0  0  0
 12  4  1  0  0  0  0
 16  1  1  0  0  0  0
 16 18  1  0  0  0  0
 17 16  1  0  0  0  0
 19 20  1  0  0  0  0
 19 16  1  0  0  0  0
 21 19  1  0  0  0  0
 22 23  1  0  0  0  0
 23 24  2  0  0  0  0
 23 29  1  0  0  0  0
 24 19  1  0  0  0  0
 25 24  1  0  0  0  0
 26 25  2  0  0  0  0
 27 26  1  0  0  0  0
 27 22  2  0  0  0  0
 28 22  1  0  0  0  0
 30 26  1  0  0  0  0
 31 33  1  0  0  0  0
 33 32  2  6  0  0  0
 33 36  1  0  0  0  0
 33 34  1  0  0  0  0
 34 35  1  0  0  0  0
 37 36  1  0  0  0  0
 37 39  1  0  0  0  0
 38 37  1  0  0  0  0
 40 46  1  0  0  0  0
 40 37  1  0  0  0  0
 41 40  2  0  0  0  0
 42 44  2  0  0  0  0
 42 41  1  0  0  0  0
 43 42  1  0  0  0  0
 44 45  1  0  0  0  0
 45 46  2  0  0  0  0
M  END
>  <minimizedAffinity>
-4.06345606

>  <minimizedRMSD>
1.88255858

$$$$
