
 OpenBabel03252500553D

 28 29  0  0  0  0  0  0  0  0999 V2000
   37.8980   26.5880   42.0980 C   0  0  0  0  0  0  0  0  0  0  0  0
   37.6080   27.9310   42.1990 C   0  0  0  0  0  0  0  0  0  0  0  0
   38.5800   28.7760   42.7700 C   0  0  0  0  0  0  0  0  0  0  0  0
   39.7320   28.2030   43.1800 N   0  0  0  0  0  0  0  0  0  0  0  0
   39.9890   26.8990   43.0700 C   0  0  0  0  0  0  0  0  0  0  0  0
   39.0670   26.0890   42.5270 N   0  0  0  0  0  0  0  0  0  0  0  0
   38.3150   29.8100   42.8310 H   0  0  0  0  0  0  0  0  0  0  0  0
   40.9310   26.4790   43.4140 H   0  0  0  0  0  0  0  0  0  0  0  0
   36.9340   25.6540   41.5140 C   0  0  0  0  0  0  0  0  0  0  0  0
   35.9280   25.8500   41.9450 H   0  0  0  0  0  0  0  0  0  0  0  0
   36.8490   25.8160   40.4040 H   0  0  0  0  0  0  0  0  0  0  0  0
   37.3870   24.2440   41.7780 C   0  0  0  0  0  0  0  0  0  0  0  0
   36.4710   23.6340   41.9880 H   0  0  0  0  0  0  0  0  0  0  0  0
   38.1010   24.2440   42.6350 H   0  0  0  0  0  0  0  0  0  0  0  0
   37.9230   23.7990   40.9200 H   0  0  0  0  0  0  0  0  0  0  0  0
   36.3660   28.3380   41.7210 O   0  0  0  0  0  0  0  0  0  0  0  0
   34.9370   29.2030   39.6920 O   0  0  0  0  0  0  0  0  0  0  0  0
   36.0710   29.6000   40.6330 P   0  0  1  0  0  0  0  0  0  0  0  0
   35.5600   30.9490   41.5290 O   0  0  0  0  0  0  0  0  0  0  0  0
   34.7240   30.6840   42.0190 H   0  0  0  0  0  0  0  0  0  0  0  0
   37.4370   30.0580   39.7530 O   0  0  0  0  0  0  0  0  0  0  0  0
   37.8870   31.3680   39.8600 C   0  0  0  0  0  0  0  0  0  0  0  0
   39.2010   31.5500   40.2870 C   0  0  0  0  0  3  0  0  0  0  0  0
   39.7480   32.8200   40.4280 C   0  0  0  0  0  0  0  0  0  0  0  0
   40.7780   32.8660   40.7640 H   0  0  0  0  0  0  0  0  0  0  0  0
   38.9600   33.8940   40.1340 N   0  0  0  0  0  0  0  0  0  0  0  0
   37.7000   33.7090   39.7260 C   0  0  0  0  0  3  0  0  0  0  0  0
   37.1820   32.4830   39.5940 N   0  0  0  0  0  0  0  0  0  0  0  0
  1  2  2  0  0  0  0
  1  6  1  0  0  0  0
  2  3  1  0  0  0  0
  3  7  1  0  0  0  0
  3  4  2  0  0  0  0
  5  4  1  0  0  0  0
  5  8  1  0  0  0  0
  6  5  2  0  0  0  0
  9 12  1  0  0  0  0
  9 10  1  0  0  0  0
  9  1  1  0  0  0  0
 11  9  1  0  0  0  0
 12 13  1  0  0  0  0
 12 14  1  0  0  0  0
 15 12  1  0  0  0  0
 16  2  1  0  0  0  0
 18 17  2  6  0  0  0
 18 19  1  0  0  0  0
 18 16  1  0  0  0  0
 19 20  1  0  0  0  0
 21 22  1  0  0  0  0
 21 18  1  0  0  0  0
 22 23  1  0  0  0  0
 23 24  2  0  0  0  0
 24 25  1  0  0  0  0
 26 24  1  0  0  0  0
 27 26  2  0  0  0  0
 28 27  1  0  0  0  0
 28 22  2  0  0  0  0
M  END
>  <minimizedAffinity>
-4.94907331

$$$$

 OpenBabel03252500553D

 28 29  0  0  0  0  0  0  0  0999 V2000
   37.8050   26.9500   42.3480 C   0  0  0  0  0  0  0  0  0  0  0  0
   36.8970   27.1610   41.3320 C   0  0  0  0  0  0  0  0  0  0  0  0
   36.9140   26.2760   40.2360 C   0  0  0  0  0  0  0  0  0  0  0  0
   37.8250   25.2790   40.2620 N   0  0  0  0  0  0  0  0  0  0  0  0
   38.6930   25.0950   41.2580 C   0  0  0  0  0  0  0  0  0  0  0  0
   38.6810   25.9360   42.3050 N   0  0  0  0  0  0  0  0  0  0  0  0
   36.1960   26.4750   39.4710 H   0  0  0  0  0  0  0  0  0  0  0  0
   39.4100   24.2790   41.2380 H   0  0  0  0  0  0  0  0  0  0  0  0
   37.8420   27.8310   43.5160 C   0  0  0  0  0  0  0  0  0  0  0  0
   36.8070   28.1490   43.7670 H   0  0  0  0  0  0  0  0  0  0  0  0
   38.2410   27.2820   44.4130 H   0  0  0  0  0  0  0  0  0  0  0  0
   38.7290   29.0090   43.2190 C   0  0  0  0  0  0  0  0  0  0  0  0
   38.2590   29.9080   43.6960 H   0  0  0  0  0  0  0  0  0  0  0  0
   38.8310   29.1210   42.1150 H   0  0  0  0  0  0  0  0  0  0  0  0
   39.7520   28.8880   43.6210 H   0  0  0  0  0  0  0  0  0  0  0  0
   36.0360   28.2420   41.4820 O   0  0  0  0  0  0  0  0  0  0  0  0
   34.8700   29.4370   39.4520 O   0  0  0  0  0  0  0  0  0  0  0  0
   35.9660   29.6170   40.4980 P   0  0  1  0  0  0  0  0  0  0  0  0
   35.5430   30.9370   41.4790 O   0  0  0  0  0  0  0  0  0  0  0  0
   34.6480   30.7330   41.8870 H   0  0  0  0  0  0  0  0  0  0  0  0
   37.4380   29.9830   39.7550 O   0  0  0  0  0  0  0  0  0  0  0  0
   37.9590   31.2620   39.9080 C   0  0  0  0  0  0  0  0  0  0  0  0
   39.2720   31.3570   40.3620 C   0  0  0  0  0  3  0  0  0  0  0  0
   39.8870   32.5900   40.5490 C   0  0  0  0  0  0  0  0  0  0  0  0
   40.9110   32.5680   40.9050 H   0  0  0  0  0  0  0  0  0  0  0  0
   39.1660   33.7140   40.2740 N   0  0  0  0  0  0  0  0  0  0  0  0
   37.9060   33.6120   39.8390 C   0  0  0  0  0  3  0  0  0  0  0  0
   37.3220   32.4220   39.6620 N   0  0  0  0  0  0  0  0  0  0  0  0
  1  9  1  0  0  0  0
  2 16  1  0  0  0  0
  2  1  2  0  0  0  0
  3  4  2  0  0  0  0
  3  2  1  0  0  0  0
  4  5  1  0  0  0  0
  5  6  2  0  0  0  0
  6  1  1  0  0  0  0
  7  3  1  0  0  0  0
  8  5  1  0  0  0  0
  9 10  1  0  0  0  0
  9 11  1  0  0  0  0
 12  9  1  0  0  0  0
 12 15  1  0  0  0  0
 12 13  1  0  0  0  0
 14 12  1  0  0  0  0
 18 17  2  6  0  0  0
 18 19  1  0  0  0  0
 18 16  1  0  0  0  0
 19 20  1  0  0  0  0
 21 22  1  0  0  0  0
 21 18  1  0  0  0  0
 22 23  1  0  0  0  0
 23 24  2  0  0  0  0
 24 25  1  0  0  0  0
 26 24  1  0  0  0  0
 27 26  2  0  0  0  0
 28 27  1  0  0  0  0
 28 22  2  0  0  0  0
M  END
>  <minimizedAffinity>
-4.81901979

$$$$

 OpenBabel03252500553D

 28 29  0  0  0  0  0  0  0  0999 V2000
   36.4640   28.9480   41.4410 C   0  0  0  0  0  0  0  0  0  0  0  0
   37.2950   30.0230   41.6690 C   0  0  0  0  0  0  0  0  0  0  0  0
   38.4140   29.8280   42.5030 C   0  0  0  0  0  0  0  0  0  0  0  0
   38.5910   28.5930   43.0220 N   0  0  0  0  0  0  0  0  0  0  0  0
   37.7710   27.5680   42.7840 C   0  0  0  0  0  0  0  0  0  0  0  0
   36.7030   27.7480   41.9910 N   0  0  0  0  0  0  0  0  0  0  0  0
   39.0320   30.6870   42.6550 H   0  0  0  0  0  0  0  0  0  0  0  0
   37.9500   26.5900   43.2230 H   0  0  0  0  0  0  0  0  0  0  0  0
   35.2840   29.0800   40.5860 C   0  0  0  0  0  0  0  0  0  0  0  0
   34.4120   28.6100   41.0900 H   0  0  0  0  0  0  0  0  0  0  0  0
   35.0250   30.1660   40.4340 H   0  0  0  0  0  0  0  0  0  0  0  0
   35.5640   28.4450   39.2520 C   0  0  0  0  0  0  0  0  0  0  0  0
   34.6210   27.9400   38.9190 H   0  0  0  0  0  0  0  0  0  0  0  0
   36.4120   27.7290   39.3600 H   0  0  0  0  0  0  0  0  0  0  0  0
   35.8660   29.1790   38.4820 H   0  0  0  0  0  0  0  0  0  0  0  0
   36.9510   31.2190   41.0490 O   0  0  0  0  0  0  0  0  0  0  0  0
   37.2170   33.0690   39.1990 O   0  0  0  0  0  0  0  0  0  0  0  0
   38.0010   32.2700   40.2380 P   0  0  1  0  0  0  0  0  0  0  0  0
   38.6250   33.3630   41.3780 O   0  0  0  0  0  0  0  0  0  0  0  0
   37.8460   33.8580   41.7760 H   0  0  0  0  0  0  0  0  0  0  0  0
   39.3090   31.4840   39.5150 O   0  0  0  0  0  0  0  0  0  0  0  0
   40.2680   32.2510   38.8660 C   0  0  0  0  0  0  0  0  0  0  0  0
   40.8770   31.6850   37.7480 C   0  0  0  0  0  3  0  0  0  0  0  0
   41.8500   32.3700   37.0280 C   0  0  0  0  0  0  0  0  0  0  0  0
   42.2680   31.8520   36.1720 H   0  0  0  0  0  0  0  0  0  0  0  0
   42.1960   33.6210   37.4470 N   0  0  0  0  0  0  0  0  0  0  0  0
   41.6060   34.1550   38.5210 C   0  0  0  0  0  3  0  0  0  0  0  0
   40.6710   33.4890   39.2080 N   0  0  0  0  0  0  0  0  0  0  0  0
  1  2  2  0  0  0  0
  1  6  1  0  0  0  0
  2  3  1  0  0  0  0
  3  7  1  0  0  0  0
  3  4  2  0  0  0  0
  5  4  1  0  0  0  0
  5  8  1  0  0  0  0
  6  5  2  0  0  0  0
  9 10  1  0  0  0  0
  9  1  1  0  0  0  0
 11  9  1  0  0  0  0
 12 14  1  0  0  0  0
 12  9  1  0  0  0  0
 13 12  1  0  0  0  0
 15 12  1  0  0  0  0
 16  2  1  0  0  0  0
 18 17  2  6  0  0  0
 18 16  1  0  0  0  0
 18 19  1  0  0  0  0
 19 20  1  0  0  0  0
 21 18  1  0  0  0  0
 22 28  1  0  0  0  0
 22 21  1  0  0  0  0
 23 22  2  0  0  0  0
 24 26  2  0  0  0  0
 24 23  1  0  0  0  0
 25 24  1  0  0  0  0
 26 27  1  0  0  0  0
 27 28  2  0  0  0  0
M  END
>  <minimizedAffinity>
-4.75791502

$$$$

 OpenBabel03252500553D

 28 29  0  0  0  0  0  0  0  0999 V2000
   37.1580   29.9040   39.2380 C   0  0  0  0  0  0  0  0  0  0  0  0
   38.3430   30.0940   39.9180 C   0  0  0  0  0  0  0  0  0  0  0  0
   39.1080   31.2360   39.6050 C   0  0  0  0  0  0  0  0  0  0  0  0
   38.6220   32.0650   38.6560 N   0  0  0  0  0  0  0  0  0  0  0  0
   37.4710   31.8580   38.0130 C   0  0  0  0  0  0  0  0  0  0  0  0
   36.7380   30.7730   38.3060 N   0  0  0  0  0  0  0  0  0  0  0  0
   40.0180   31.3450   40.1530 H   0  0  0  0  0  0  0  0  0  0  0  0
   37.1170   32.5520   37.2540 H   0  0  0  0  0  0  0  0  0  0  0  0
   36.3150   28.7400   39.5120 C   0  0  0  0  0  0  0  0  0  0  0  0
   36.2060   28.1400   38.5830 H   0  0  0  0  0  0  0  0  0  0  0  0
   36.8010   28.0710   40.2760 H   0  0  0  0  0  0  0  0  0  0  0  0
   34.9830   29.2050   40.0340 C   0  0  0  0  0  0  0  0  0  0  0  0
   34.2020   28.5270   39.6040 H   0  0  0  0  0  0  0  0  0  0  0  0
   34.8270   30.2690   39.7400 H   0  0  0  0  0  0  0  0  0  0  0  0
   34.9180   29.1690   41.1370 H   0  0  0  0  0  0  0  0  0  0  0  0
   38.6800   29.1320   40.8620 O   0  0  0  0  0  0  0  0  0  0  0  0
   39.3650   30.5660   42.9560 O   0  0  0  0  0  0  0  0  0  0  0  0
   38.6110   29.3050   42.5440 P   0  0  1  0  0  0  0  0  0  0  0  0
   36.9810   29.5040   42.9800 O   0  0  0  0  0  0  0  0  0  0  0  0
   36.6450   30.3270   42.5120 H   0  0  0  0  0  0  0  0  0  0  0  0
   39.2030   27.9630   43.3800 O   0  0  0  0  0  0  0  0  0  0  0  0
   38.7640   26.6990   43.0040 C   0  0  0  0  0  0  0  0  0  0  0  0
   39.6560   25.6440   43.1800 C   0  0  0  0  0  3  0  0  0  0  0  0
   39.3130   24.3410   42.8350 C   0  0  0  0  0  0  0  0  0  0  0  0
   40.0700   23.5840   43.0060 H   0  0  0  0  0  0  0  0  0  0  0  0
   38.0710   24.1200   42.3170 N   0  0  0  0  0  0  0  0  0  0  0  0
   37.2230   25.1400   42.1520 C   0  0  0  0  0  3  0  0  0  0  0  0
   37.5600   26.3900   42.4860 N   0  0  0  0  0  0  0  0  0  0  0  0
  1  9  1  0  0  0  0
  1  2  1  0  0  0  0
  2 16  1  0  0  0  0
  3  2  2  0  0  0  0
  3  7  1  0  0  0  0
  4  3  1  0  0  0  0
  5  6  1  0  0  0  0
  5  4  2  0  0  0  0
  6  1  2  0  0  0  0
  8  5  1  0  0  0  0
  9 12  1  0  0  0  0
  9 11  1  0  0  0  0
 10  9  1  0  0  0  0
 12 15  1  0  0  0  0
 13 12  1  0  0  0  0
 14 12  1  0  0  0  0
 16 18  1  0  0  0  0
 18 17  2  1  0  0  0
 18 19  1  0  0  0  0
 18 21  1  0  0  0  0
 20 19  1  0  0  0  0
 22 23  1  0  0  0  0
 22 21  1  0  0  0  0
 24 25  1  0  0  0  0
 24 23  2  0  0  0  0
 26 24  1  0  0  0  0
 27 26  2  0  0  0  0
 27 28  1  0  0  0  0
 28 22  2  0  0  0  0
M  END
>  <minimizedAffinity>
-4.68251896

$$$$

 OpenBabel03252500553D

 28 29  0  0  0  0  0  0  0  0999 V2000
   37.2240   26.7150   40.3400 C   0  0  0  0  0  0  0  0  0  0  0  0
   37.1900   27.8630   41.1010 C   0  0  0  0  0  0  0  0  0  0  0  0
   37.0010   27.7300   42.4910 C   0  0  0  0  0  0  0  0  0  0  0  0
   36.8660   26.4770   42.9780 N   0  0  0  0  0  0  0  0  0  0  0  0
   36.9040   25.3810   42.2190 C   0  0  0  0  0  0  0  0  0  0  0  0
   37.0830   25.5020   40.8950 N   0  0  0  0  0  0  0  0  0  0  0  0
   36.9790   28.6440   43.0440 H   0  0  0  0  0  0  0  0  0  0  0  0
   36.7900   24.3900   42.6530 H   0  0  0  0  0  0  0  0  0  0  0  0
   37.4170   26.7810   38.8900 C   0  0  0  0  0  0  0  0  0  0  0  0
   37.7100   27.8150   38.6070 H   0  0  0  0  0  0  0  0  0  0  0  0
   38.2610   26.1060   38.5730 H   0  0  0  0  0  0  0  0  0  0  0  0
   36.1510   26.3520   38.2020 C   0  0  0  0  0  0  0  0  0  0  0  0
   36.0280   27.0010   37.2960 H   0  0  0  0  0  0  0  0  0  0  0  0
   35.2980   26.4510   38.9120 H   0  0  0  0  0  0  0  0  0  0  0  0
   36.1750   25.2940   37.8800 H   0  0  0  0  0  0  0  0  0  0  0  0
   37.3470   29.0660   40.4210 O   0  0  0  0  0  0  0  0  0  0  0  0
   34.8900   29.3950   39.5470 O   0  0  0  0  0  0  0  0  0  0  0  0
   36.1220   30.1620   40.0190 P   0  0  1  0  0  0  0  0  0  0  0  0
   35.7020   31.0110   41.4290 O   0  0  0  0  0  0  0  0  0  0  0  0
   35.3840   30.3360   42.1020 H   0  0  0  0  0  0  0  0  0  0  0  0
   36.5920   31.2970   38.8600 O   0  0  0  0  0  0  0  0  0  0  0  0
   37.5950   32.2010   39.1850 C   0  0  0  0  0  0  0  0  0  0  0  0
   38.8760   31.9170   38.7180 C   0  0  0  0  0  3  0  0  0  0  0  0
   39.9490   32.7580   38.9890 C   0  0  0  0  0  0  0  0  0  0  0  0
   40.9090   32.4580   38.5840 H   0  0  0  0  0  0  0  0  0  0  0  0
   39.7150   33.8790   39.7290 N   0  0  0  0  0  0  0  0  0  0  0  0
   38.4820   34.1430   40.1730 C   0  0  0  0  0  3  0  0  0  0  0  0
   37.4550   33.3280   39.9080 N   0  0  0  0  0  0  0  0  0  0  0  0
  1  6  2  0  0  0  0
  1  2  1  0  0  0  0
  2  3  2  0  0  0  0
  3  4  1  0  0  0  0
  3  7  1  0  0  0  0
  5  8  1  0  0  0  0
  5  4  2  0  0  0  0
  6  5  1  0  0  0  0
  9  1  1  0  0  0  0
 10  9  1  0  0  0  0
 11  9  1  0  0  0  0
 12  9  1  0  0  0  0
 12 14  1  0  0  0  0
 13 12  1  0  0  0  0
 15 12  1  0  0  0  0
 16  2  1  0  0  0  0
 18 17  2  6  0  0  0
 18 16  1  0  0  0  0
 18 19  1  0  0  0  0
 19 20  1  0  0  0  0
 21 22  1  0  0  0  0
 21 18  1  0  0  0  0
 22 28  1  0  0  0  0
 23 24  1  0  0  0  0
 23 22  2  0  0  0  0
 24 26  2  0  0  0  0
 25 24  1  0  0  0  0
 26 27  1  0  0  0  0
 28 27  2  0  0  0  0
M  END
>  <minimizedAffinity>
-4.61603689

$$$$

 OpenBabel03252500553D

 28 29  0  0  0  0  0  0  0  0999 V2000
   38.9780   28.8870   42.1680 C   0  0  0  0  0  0  0  0  0  0  0  0
   37.8710   28.6310   41.3860 C   0  0  0  0  0  0  0  0  0  0  0  0
   36.9910   27.6110   41.8000 C   0  0  0  0  0  0  0  0  0  0  0  0
   37.2990   26.9550   42.9400 N   0  0  0  0  0  0  0  0  0  0  0  0
   38.3760   27.2230   43.6800 C   0  0  0  0  0  0  0  0  0  0  0  0
   39.2180   28.1930   43.2900 N   0  0  0  0  0  0  0  0  0  0  0  0
   36.1480   27.4440   41.1660 H   0  0  0  0  0  0  0  0  0  0  0  0
   38.5860   26.6700   44.5920 H   0  0  0  0  0  0  0  0  0  0  0  0
   39.9330   29.9320   41.7960 C   0  0  0  0  0  0  0  0  0  0  0  0
   39.6180   30.3900   40.8340 H   0  0  0  0  0  0  0  0  0  0  0  0
   39.9350   30.7560   42.5630 H   0  0  0  0  0  0  0  0  0  0  0  0
   41.3100   29.3340   41.7040 C   0  0  0  0  0  0  0  0  0  0  0  0
   41.8290   29.8270   40.8410 H   0  0  0  0  0  0  0  0  0  0  0  0
   41.2210   28.2310   41.5690 H   0  0  0  0  0  0  0  0  0  0  0  0
   41.9090   29.4950   42.6190 H   0  0  0  0  0  0  0  0  0  0  0  0
   37.7210   29.4110   40.2450 O   0  0  0  0  0  0  0  0  0  0  0  0
   35.3220   29.5920   39.1860 O   0  0  0  0  0  0  0  0  0  0  0  0
   36.4080   30.4130   39.8770 P   0  0  1  0  0  0  0  0  0  0  0  0
   35.7730   30.9960   41.3400 O   0  0  0  0  0  0  0  0  0  0  0  0
   35.4870   30.1990   41.8810 H   0  0  0  0  0  0  0  0  0  0  0  0
   36.8280   31.7480   38.9340 O   0  0  0  0  0  0  0  0  0  0  0  0
   38.0320   32.3920   39.1930 C   0  0  0  0  0  0  0  0  0  0  0  0
   37.9990   33.4480   40.1010 C   0  0  0  0  0  3  0  0  0  0  0  0
   39.1490   34.1570   40.4300 C   0  0  0  0  0  0  0  0  0  0  0  0
   39.0280   34.9630   41.1460 H   0  0  0  0  0  0  0  0  0  0  0  0
   40.3200   33.7900   39.8370 N   0  0  0  0  0  0  0  0  0  0  0  0
   40.3410   32.7750   38.9660 C   0  0  0  0  0  3  0  0  0  0  0  0
   39.2310   32.0990   38.6560 N   0  0  0  0  0  0  0  0  0  0  0  0
  1  6  1  0  0  0  0
  2  3  1  0  0  0  0
  2  1  2  0  0  0  0
  3  4  2  0  0  0  0
  4  5  1  0  0  0  0
  5  8  1  0  0  0  0
  6  5  2  0  0  0  0
  7  3  1  0  0  0  0
  9  1  1  0  0  0  0
  9 11  1  0  0  0  0
 10  9  1  0  0  0  0
 12  9  1  0  0  0  0
 12 15  1  0  0  0  0
 13 12  1  0  0  0  0
 14 12  1  0  0  0  0
 16  2  1  0  0  0  0
 18 17  2  6  0  0  0
 18 16  1  0  0  0  0
 18 19  1  0  0  0  0
 19 20  1  0  0  0  0
 21 22  1  0  0  0  0
 21 18  1  0  0  0  0
 22 23  1  0  0  0  0
 23 24  2  0  0  0  0
 24 25  1  0  0  0  0
 26 24  1  0  0  0  0
 27 26  2  0  0  0  0
 28 27  1  0  0  0  0
 28 22  2  0  0  0  0
M  END
>  <minimizedAffinity>
-4.60369873

$$$$

 OpenBabel03252500553D

 28 29  0  0  0  0  0  0  0  0999 V2000
   36.9190   29.6840   38.0900 C   0  0  0  0  0  0  0  0  0  0  0  0
   36.7840   28.7750   39.1170 C   0  0  0  0  0  0  0  0  0  0  0  0
   35.7750   27.7970   39.0060 C   0  0  0  0  0  0  0  0  0  0  0  0
   35.0100   27.8230   37.8930 N   0  0  0  0  0  0  0  0  0  0  0  0
   35.1620   28.7140   36.9120 C   0  0  0  0  0  0  0  0  0  0  0  0
   36.1210   29.6480   37.0130 N   0  0  0  0  0  0  0  0  0  0  0  0
   35.7030   27.1130   39.8240 H   0  0  0  0  0  0  0  0  0  0  0  0
   34.5230   28.6990   36.0330 H   0  0  0  0  0  0  0  0  0  0  0  0
   37.9460   30.7260   38.1410 C   0  0  0  0  0  0  0  0  0  0  0  0
   38.7550   30.4080   38.8340 H   0  0  0  0  0  0  0  0  0  0  0  0
   38.4200   30.8640   37.1290 H   0  0  0  0  0  0  0  0  0  0  0  0
   37.3170   32.0200   38.5760 C   0  0  0  0  0  0  0  0  0  0  0  0
   38.0530   32.5400   39.2430 H   0  0  0  0  0  0  0  0  0  0  0  0
   36.3550   31.8030   39.0970 H   0  0  0  0  0  0  0  0  0  0  0  0
   37.0740   32.6860   37.7270 H   0  0  0  0  0  0  0  0  0  0  0  0
   37.6660   28.9050   40.1850 O   0  0  0  0  0  0  0  0  0  0  0  0
   38.4490   30.3680   42.2230 O   0  0  0  0  0  0  0  0  0  0  0  0
   37.2980   29.4980   41.7270 P   0  0  1  0  0  0  0  0  0  0  0  0
   35.9200   30.4810   41.5900 O   0  0  0  0  0  0  0  0  0  0  0  0
   36.1450   31.2260   40.9550 H   0  0  0  0  0  0  0  0  0  0  0  0
   36.9500   28.2830   42.8460 O   0  0  0  0  0  0  0  0  0  0  0  0
   37.7320   27.1340   42.8430 C   0  0  0  0  0  0  0  0  0  0  0  0
   38.8910   27.1600   43.6150 C   0  0  0  0  0  3  0  0  0  0  0  0
   39.7430   26.0620   43.6790 C   0  0  0  0  0  0  0  0  0  0  0  0
   40.6210   26.1720   44.3050 H   0  0  0  0  0  0  0  0  0  0  0  0
   39.4110   24.9500   42.9640 N   0  0  0  0  0  0  0  0  0  0  0  0
   38.2960   24.9360   42.2260 C   0  0  0  0  0  3  0  0  0  0  0  0
   37.4830   25.9960   42.1690 N   0  0  0  0  0  0  0  0  0  0  0  0
  1  9  1  0  0  0  0
  1  2  1  0  0  0  0
  2 16  1  0  0  0  0
  3  2  2  0  0  0  0
  3  7  1  0  0  0  0
  4  3  1  0  0  0  0
  5  6  1  0  0  0  0
  5  4  2  0  0  0  0
  6  1  2  0  0  0  0
  8  5  1  0  0  0  0
  9 12  1  0  0  0  0
  9 10  1  0  0  0  0
 11  9  1  0  0  0  0
 12 14  1  0  0  0  0
 12 13  1  0  0  0  0
 15 12  1  0  0  0  0
 16 18  1  0  0  0  0
 18 17  2  1  0  0  0
 18 21  1  0  0  0  0
 19 18  1  0  0  0  0
 20 19  1  0  0  0  0
 22 21  1  0  0  0  0
 22 23  1  0  0  0  0
 23 24  2  0  0  0  0
 24 25  1  0  0  0  0
 26 24  1  0  0  0  0
 27 26  2  0  0  0  0
 28 27  1  0  0  0  0
 28 22  2  0  0  0  0
M  END
>  <minimizedAffinity>
-4.52566195

$$$$

 OpenBabel03252500553D

 28 29  0  0  0  0  0  0  0  0999 V2000
   37.9620   27.5500   41.7120 C   0  0  0  0  0  0  0  0  0  0  0  0
   38.6520   28.7310   41.5370 C   0  0  0  0  0  0  0  0  0  0  0  0
   39.9820   28.6570   41.0790 C   0  0  0  0  0  0  0  0  0  0  0  0
   40.4880   27.4260   40.8440 N   0  0  0  0  0  0  0  0  0  0  0  0
   39.7980   26.2980   41.0210 C   0  0  0  0  0  0  0  0  0  0  0  0
   38.5310   26.3620   41.4570 N   0  0  0  0  0  0  0  0  0  0  0  0
   40.4810   29.5940   40.9570 H   0  0  0  0  0  0  0  0  0  0  0  0
   40.2440   25.3270   40.8200 H   0  0  0  0  0  0  0  0  0  0  0  0
   36.5770   27.5530   42.1850 C   0  0  0  0  0  0  0  0  0  0  0  0
   36.0870   28.5010   41.8730 H   0  0  0  0  0  0  0  0  0  0  0  0
   35.9950   26.7140   41.7110 H   0  0  0  0  0  0  0  0  0  0  0  0
   36.5640   27.3860   43.6800 C   0  0  0  0  0  0  0  0  0  0  0  0
   35.7410   28.0330   44.0800 H   0  0  0  0  0  0  0  0  0  0  0  0
   37.5610   27.6690   44.0880 H   0  0  0  0  0  0  0  0  0  0  0  0
   36.3790   26.3410   43.9920 H   0  0  0  0  0  0  0  0  0  0  0  0
   37.9640   29.9030   41.8310 O   0  0  0  0  0  0  0  0  0  0  0  0
   37.0150   30.1570   39.3930 O   0  0  0  0  0  0  0  0  0  0  0  0
   37.1250   30.8800   40.7330 P   0  0  1  0  0  0  0  0  0  0  0  0
   35.5540   31.1080   41.3360 O   0  0  0  0  0  0  0  0  0  0  0  0
   35.1300   30.2010   41.4180 H   0  0  0  0  0  0  0  0  0  0  0  0
   37.8210   32.4040   40.5270 O   0  0  0  0  0  0  0  0  0  0  0  0
   39.1790   32.4820   40.2450 C   0  0  0  0  0  0  0  0  0  0  0  0
   39.5380   32.6180   38.9060 C   0  0  0  0  0  3  0  0  0  0  0  0
   40.8710   32.7040   38.5180 C   0  0  0  0  0  0  0  0  0  0  0  0
   41.0560   32.8080   37.4550 H   0  0  0  0  0  0  0  0  0  0  0  0
   41.8260   32.6520   39.4900 N   0  0  0  0  0  0  0  0  0  0  0  0
   41.4710   32.5220   40.7720 C   0  0  0  0  0  3  0  0  0  0  0  0
   40.1870   32.4390   41.1360 N   0  0  0  0  0  0  0  0  0  0  0  0
  1  9  1  0  0  0  0
  2  1  1  0  0  0  0
  2 16  1  0  0  0  0
  3  2  2  0  0  0  0
  4  5  2  0  0  0  0
  4  3  1  0  0  0  0
  5  6  1  0  0  0  0
  6  1  2  0  0  0  0
  7  3  1  0  0  0  0
  8  5  1  0  0  0  0
  9 12  1  0  0  0  0
 10  9  1  0  0  0  0
 11  9  1  0  0  0  0
 12 15  1  0  0  0  0
 12 13  1  0  0  0  0
 12 14  1  0  0  0  0
 18 17  2  6  0  0  0
 18 19  1  0  0  0  0
 18 16  1  0  0  0  0
 19 20  1  0  0  0  0
 21 18  1  0  0  0  0
 22 21  1  0  0  0  0
 22 28  1  0  0  0  0
 23 22  2  0  0  0  0
 24 23  1  0  0  0  0
 24 26  2  0  0  0  0
 25 24  1  0  0  0  0
 26 27  1  0  0  0  0
 27 28  2  0  0  0  0
M  END
>  <minimizedAffinity>
-4.48634672

$$$$

 OpenBabel03252500553D

 28 29  0  0  0  0  0  0  0  0999 V2000
   40.1530   30.3410   37.8490 C   0  0  0  0  0  0  0  0  0  0  0  0
   39.8120   31.6440   38.1440 C   0  0  0  0  0  0  0  0  0  0  0  0
   40.7300   32.6590   37.8080 C   0  0  0  0  0  0  0  0  0  0  0  0
   41.8840   32.2790   37.2180 N   0  0  0  0  0  0  0  0  0  0  0  0
   42.1900   31.0100   36.9430 C   0  0  0  0  0  0  0  0  0  0  0  0
   41.3200   30.0380   37.2610 N   0  0  0  0  0  0  0  0  0  0  0  0
   40.4280   33.6540   38.0530 H   0  0  0  0  0  0  0  0  0  0  0  0
   43.1320   30.7470   36.4670 H   0  0  0  0  0  0  0  0  0  0  0  0
   39.2470   29.2380   38.1710 C   0  0  0  0  0  0  0  0  0  0  0  0
   39.5140   28.8260   39.1680 H   0  0  0  0  0  0  0  0  0  0  0  0
   38.1860   29.6070   38.2450 H   0  0  0  0  0  0  0  0  0  0  0  0
   39.3370   28.1920   37.0940 C   0  0  0  0  0  0  0  0  0  0  0  0
   39.2630   27.1920   37.5940 H   0  0  0  0  0  0  0  0  0  0  0  0
   40.2970   28.3190   36.5410 H   0  0  0  0  0  0  0  0  0  0  0  0
   38.5270   28.2770   36.3460 H   0  0  0  0  0  0  0  0  0  0  0  0
   38.5790   31.8420   38.7530 O   0  0  0  0  0  0  0  0  0  0  0  0
   38.9090   33.6490   40.6340 O   0  0  0  0  0  0  0  0  0  0  0  0
   38.3120   32.2700   40.3690 P   0  0  1  0  0  0  0  0  0  0  0  0
   36.6330   32.3710   40.6090 O   0  0  0  0  0  0  0  0  0  0  0  0
   36.2830   33.0730   39.9810 H   0  0  0  0  0  0  0  0  0  0  0  0
   38.9180   31.1420   41.4690 O   0  0  0  0  0  0  0  0  0  0  0  0
   38.1210   30.0590   41.8170 C   0  0  0  0  0  0  0  0  0  0  0  0
   38.3970   29.4380   43.0330 C   0  0  0  0  0  3  0  0  0  0  0  0
   37.6580   28.3460   43.4730 C   0  0  0  0  0  0  0  0  0  0  0  0
   37.9430   27.9270   44.4320 H   0  0  0  0  0  0  0  0  0  0  0  0
   36.6460   27.8940   42.6790 N   0  0  0  0  0  0  0  0  0  0  0  0
   36.3890   28.4970   41.5130 C   0  0  0  0  0  3  0  0  0  0  0  0
   37.1060   29.5460   41.0970 N   0  0  0  0  0  0  0  0  0  0  0  0
  1  2  1  0  0  0  0
  1  9  1  0  0  0  0
  2 16  1  0  0  0  0
  3  7  1  0  0  0  0
  3  2  2  0  0  0  0
  4  3  1  0  0  0  0
  5  4  2  0  0  0  0
  5  6  1  0  0  0  0
  6  1  2  0  0  0  0
  8  5  1  0  0  0  0
  9 11  1  0  0  0  0
  9 10  1  0  0  0  0
 12 13  1  0  0  0  0
 12  9  1  0  0  0  0
 14 12  1  0  0  0  0
 15 12  1  0  0  0  0
 16 18  1  0  0  0  0
 18 19  1  0  0  0  0
 18 17  2  1  0  0  0
 18 21  1  0  0  0  0
 20 19  1  0  0  0  0
 21 22  1  0  0  0  0
 22 23  1  0  0  0  0
 23 24  2  0  0  0  0
 24 25  1  0  0  0  0
 26 24  1  0  0  0  0
 27 26  2  0  0  0  0
 28 27  1  0  0  0  0
 28 22  2  0  0  0  0
M  END
>  <minimizedAffinity>
-4.47892046

$$$$
