
 OpenBabel03252502383D

 36 38  0  0  1  0  0  0  0  0999 V2000
   37.7920   30.2840   39.9290 C   0  0  1  0  0  0  0  0  0  0  0  0
   38.4230   29.6960   39.2190 H   0  0  0  0  0  0  0  0  0  0  0  0
   38.4470   31.5690   40.0680 N   0  0  0  0  0  0  0  0  0  0  0  0
   39.5390   31.7790   39.2050 C   0  0  0  0  0  0  0  0  0  0  0  0
   40.2930   32.9920   39.7980 C   0  0  0  0  0  0  0  0  0  0  0  0
   39.4400   34.1020   39.5020 N   0  0  0  0  0  0  0  0  0  0  0  0
   38.1210   34.0090   40.0020 C   0  0  0  0  0  0  0  0  0  0  0  0
   37.5310   32.6520   40.1830 C   0  0  0  0  0  0  0  0  0  0  0  0
   40.2520   30.9270   39.3230 H   0  0  0  0  0  0  0  0  0  0  0  0
   39.2940   31.9760   38.1550 H   0  0  0  0  0  0  0  0  0  0  0  0
   41.1960   33.0790   39.1690 H   0  0  0  0  0  0  0  0  0  0  0  0
   40.4570   32.8510   40.8630 H   0  0  0  0  0  0  0  0  0  0  0  0
   39.5710   34.5260   38.5770 H   0  0  0  0  0  0  0  0  0  0  0  0
   37.4720   34.6450   39.3240 H   0  0  0  0  0  0  0  0  0  0  0  0
   38.0980   34.5640   40.9680 H   0  0  0  0  0  0  0  0  0  0  0  0
   36.7240   32.5180   39.4370 H   0  0  0  0  0  0  0  0  0  0  0  0
   37.0340   32.6700   41.1830 H   0  0  0  0  0  0  0  0  0  0  0  0
   36.6600   28.5890   41.3450 C   0  0  0  0  0  0  0  0  0  0  0  0
   37.6370   29.5500   41.1500 C   0  0  0  0  0  0  0  0  0  0  0  0
   38.4750   29.7740   42.2490 C   0  0  0  0  0  0  0  0  0  0  0  0
   38.2960   29.0660   43.4090 N   0  0  0  0  0  0  0  0  0  0  0  0
   37.3200   28.1440   43.5250 C   0  0  0  0  0  0  0  0  0  0  0  0
   36.4910   27.8980   42.4880 N   0  0  0  0  0  0  0  0  0  0  0  0
   35.9920   28.3920   40.5060 H   0  0  0  0  0  0  0  0  0  0  0  0
   39.2640   30.4970   42.2010 H   0  0  0  0  0  0  0  0  0  0  0  0
   37.3170   27.6810   44.4990 H   0  0  0  0  0  0  0  0  0  0  0  0
   36.4230   30.4950   39.2780 C   0  0  0  0  0  0  0  0  0  0  0  0
   35.6440   29.9370   39.8790 H   0  0  0  0  0  0  0  0  0  0  0  0
   36.1790   31.5920   39.2800 H   0  0  0  0  0  0  0  0  0  0  0  0
   36.3190   30.0260   37.8900 C   0  0  0  0  0  0  0  0  0  0  0  0
   36.9870   30.0560   36.7010 C   0  0  0  0  0  3  0  0  0  0  0  0
   36.5670   29.4960   35.5240 C   0  0  0  0  0  0  0  0  0  0  0  0
   37.2570   29.6460   34.7210 H   0  0  0  0  0  0  0  0  0  0  0  0
   35.3910   28.8600   35.5330 N   0  0  0  0  0  0  0  0  0  0  0  0
   34.6940   28.7960   36.6550 C   0  0  0  0  0  3  0  0  0  0  0  0
   35.1300   29.3490   37.7800 N   0  0  0  0  0  0  0  0  0  0  0  0
  1  2  1  6  0  0  0
  1  3  1  0  0  0  0
  1 19  1  0  0  0  0
  3  8  1  0  0  0  0
  4  9  1  0  0  0  0
  4  5  1  0  0  0  0
  4  3  1  0  0  0  0
  5 12  1  0  0  0  0
  6  5  1  0  0  0  0
  6  7  1  0  0  0  0
  7  8  1  0  0  0  0
  7 15  1  0  0  0  0
  8 17  1  0  0  0  0
 10  4  1  0  0  0  0
 11  5  1  0  0  0  0
 13  6  1  0  0  0  0
 14  7  1  0  0  0  0
 16  8  1  0  0  0  0
 18 23  1  0  0  0  0
 19 18  2  0  0  0  0
 19 20  1  0  0  0  0
 20 21  2  0  0  0  0
 21 22  1  0  0  0  0
 22 26  1  0  0  0  0
 23 22  2  0  0  0  0
 24 18  1  0  0  0  0
 25 20  1  0  0  0  0
 27 29  1  0  0  0  0
 27 28  1  0  0  0  0
 27  1  1  0  0  0  0
 30 27  1  0  0  0  0
 31 30  2  0  0  0  0
 32 34  2  0  0  0  0
 32 31  1  0  0  0  0
 33 32  1  0  0  0  0
 34 35  1  0  0  0  0
 35 36  2  0  0  0  0
 36 30  1  0  0  0  0
M  END
>  <minimizedAffinity>
-4.76405334

$$$$

 OpenBabel03252502383D

 36 38  0  0  1  0  0  0  0  0999 V2000
   36.6290   30.8580   39.5700 C   0  0  1  0  0  0  0  0  0  0  0  0
   35.8860   31.5470   39.1010 H   0  0  0  0  0  0  0  0  0  0  0  0
   37.9140   31.5150   39.4380 N   0  0  0  0  0  0  0  0  0  0  0  0
   38.3190   31.7730   38.1160 C   0  0  0  0  0  0  0  0  0  0  0  0
   39.8310   32.0860   38.2120 C   0  0  0  0  0  0  0  0  0  0  0  0
   39.8720   33.3840   38.8130 N   0  0  0  0  0  0  0  0  0  0  0  0
   39.2320   33.4970   40.0680 C   0  0  0  0  0  0  0  0  0  0  0  0
   38.0900   32.5850   40.3600 C   0  0  0  0  0  0  0  0  0  0  0  0
   38.2730   30.8180   37.5380 H   0  0  0  0  0  0  0  0  0  0  0  0
   37.8060   32.5950   37.6040 H   0  0  0  0  0  0  0  0  0  0  0  0
   40.1510   32.1870   37.1600 H   0  0  0  0  0  0  0  0  0  0  0  0
   40.3380   31.3260   38.8010 H   0  0  0  0  0  0  0  0  0  0  0  0
   39.7920   34.1740   38.1640 H   0  0  0  0  0  0  0  0  0  0  0  0
   38.9210   34.5820   40.1760 H   0  0  0  0  0  0  0  0  0  0  0  0
   40.0190   33.3800   40.8480 H   0  0  0  0  0  0  0  0  0  0  0  0
   37.1610   33.1840   40.3930 H   0  0  0  0  0  0  0  0  0  0  0  0
   38.2590   32.2120   41.3990 H   0  0  0  0  0  0  0  0  0  0  0  0
   37.6390   28.7510   38.7300 C   0  0  0  0  0  0  0  0  0  0  0  0
   36.5430   29.5700   38.9480 C   0  0  0  0  0  0  0  0  0  0  0  0
   35.3220   29.0530   38.5020 C   0  0  0  0  0  0  0  0  0  0  0  0
   35.2700   27.8230   37.8990 N   0  0  0  0  0  0  0  0  0  0  0  0
   36.3820   27.0820   37.7210 C   0  0  0  0  0  0  0  0  0  0  0  0
   37.5800   27.5440   38.1380 N   0  0  0  0  0  0  0  0  0  0  0  0
   38.6060   29.1270   39.0680 H   0  0  0  0  0  0  0  0  0  0  0  0
   34.4130   29.6090   38.6230 H   0  0  0  0  0  0  0  0  0  0  0  0
   36.1670   26.1440   37.2330 H   0  0  0  0  0  0  0  0  0  0  0  0
   36.2860   30.7370   41.0570 C   0  0  0  0  0  0  0  0  0  0  0  0
   36.7580   31.6020   41.6120 H   0  0  0  0  0  0  0  0  0  0  0  0
   35.1700   30.7790   41.1820 H   0  0  0  0  0  0  0  0  0  0  0  0
   36.7530   29.5010   41.7000 C   0  0  0  0  0  0  0  0  0  0  0  0
   36.3860   28.2060   41.9140 C   0  0  0  0  0  3  0  0  0  0  0  0
   37.0950   27.2710   42.6220 C   0  0  0  0  0  0  0  0  0  0  0  0
   36.6110   26.3180   42.6560 H   0  0  0  0  0  0  0  0  0  0  0  0
   38.2580   27.6600   43.1560 N   0  0  0  0  0  0  0  0  0  0  0  0
   38.6700   28.9040   42.9850 C   0  0  0  0  0  3  0  0  0  0  0  0
   37.9580   29.7860   42.2940 N   0  0  0  0  0  0  0  0  0  0  0  0
  1  2  1  6  0  0  0
  1 27  1  0  0  0  0
  3  1  1  0  0  0  0
  3  8  1  0  0  0  0
  4  5  1  0  0  0  0
  4  3  1  0  0  0  0
  5 12  1  0  0  0  0
  5  6  1  0  0  0  0
  6  7  1  0  0  0  0
  7 14  1  0  0  0  0
  7  8  1  0  0  0  0
  7 15  1  0  0  0  0
  8 16  1  0  0  0  0
  8 17  1  0  0  0  0
  9  4  1  0  0  0  0
 10  4  1  0  0  0  0
 11  5  1  0  0  0  0
 13  6  1  0  0  0  0
 18 19  1  0  0  0  0
 18 24  1  0  0  0  0
 19  1  1  0  0  0  0
 20 25  1  0  0  0  0
 20 19  2  0  0  0  0
 21 20  1  0  0  0  0
 22 21  2  0  0  0  0
 22 23  1  0  0  0  0
 23 18  2  0  0  0  0
 26 22  1  0  0  0  0
 27 29  1  0  0  0  0
 27 28  1  0  0  0  0
 27 30  1  0  0  0  0
 30 31  2  0  0  0  0
 30 36  1  0  0  0  0
 31 32  1  0  0  0  0
 32 33  1  0  0  0  0
 32 34  2  0  0  0  0
 35 34  1  0  0  0  0
 36 35  2  0  0  0  0
M  END
>  <minimizedAffinity>
-4.67698765

$$$$

 OpenBabel03252502383D

 36 38  0  0  1  0  0  0  0  0999 V2000
   37.4760   30.0670   40.0440 C   0  0  1  0  0  0  0  0  0  0  0  0
   38.0200   29.4430   39.2940 H   0  0  0  0  0  0  0  0  0  0  0  0
   38.1970   31.3220   40.1120 N   0  0  0  0  0  0  0  0  0  0  0  0
   39.3040   31.4200   39.2490 C   0  0  0  0  0  0  0  0  0  0  0  0
   40.1180   32.6250   39.7750 C   0  0  0  0  0  0  0  0  0  0  0  0
   39.3280   33.7590   39.4030 N   0  0  0  0  0  0  0  0  0  0  0  0
   38.0020   33.7670   39.8940 C   0  0  0  0  0  0  0  0  0  0  0  0
   37.3390   32.4560   40.1500 C   0  0  0  0  0  0  0  0  0  0  0  0
   39.9710   30.5410   39.4250 H   0  0  0  0  0  0  0  0  0  0  0  0
   39.0780   31.5660   38.1860 H   0  0  0  0  0  0  0  0  0  0  0  0
   41.0290   32.6260   39.1510 H   0  0  0  0  0  0  0  0  0  0  0  0
   40.2670   32.5410   40.8480 H   0  0  0  0  0  0  0  0  0  0  0  0
   39.4880   34.1180   38.4560 H   0  0  0  0  0  0  0  0  0  0  0  0
   37.3930   34.3930   39.1720 H   0  0  0  0  0  0  0  0  0  0  0  0
   38.0010   34.3800   40.8250 H   0  0  0  0  0  0  0  0  0  0  0  0
   36.5320   32.3200   39.4060 H   0  0  0  0  0  0  0  0  0  0  0  0
   36.8370   32.5610   41.1430 H   0  0  0  0  0  0  0  0  0  0  0  0
   38.1900   29.6220   42.3790 C   0  0  0  0  0  0  0  0  0  0  0  0
   37.3860   29.3540   41.2830 C   0  0  0  0  0  0  0  0  0  0  0  0
   36.4700   28.3120   41.4630 C   0  0  0  0  0  0  0  0  0  0  0  0
   36.4150   27.6380   42.6550 N   0  0  0  0  0  0  0  0  0  0  0  0
   37.2320   27.9560   43.6790 C   0  0  0  0  0  0  0  0  0  0  0  0
   38.1300   28.9550   43.5470 N   0  0  0  0  0  0  0  0  0  0  0  0
   38.9150   30.4290   42.2690 H   0  0  0  0  0  0  0  0  0  0  0  0
   35.8010   28.0260   40.6760 H   0  0  0  0  0  0  0  0  0  0  0  0
   37.0590   27.3310   44.5410 H   0  0  0  0  0  0  0  0  0  0  0  0
   36.0690   30.3350   39.5010 C   0  0  0  0  0  0  0  0  0  0  0  0
   35.3120   30.0280   40.2840 H   0  0  0  0  0  0  0  0  0  0  0  0
   35.9600   31.4320   39.2870 H   0  0  0  0  0  0  0  0  0  0  0  0
   35.7340   29.6110   38.2670 C   0  0  0  0  0  0  0  0  0  0  0  0
   34.8650   28.6800   37.7800 C   0  0  0  0  0  3  0  0  0  0  0  0
   34.8450   28.1830   36.5030 C   0  0  0  0  0  0  0  0  0  0  0  0
   34.0720   27.4610   36.3480 H   0  0  0  0  0  0  0  0  0  0  0  0
   35.7620   28.6510   35.6500 N   0  0  0  0  0  0  0  0  0  0  0  0
   36.6350   29.5550   36.0620 C   0  0  0  0  0  3  0  0  0  0  0  0
   36.6270   30.0160   37.3060 N   0  0  0  0  0  0  0  0  0  0  0  0
  1  2  1  6  0  0  0
  1  3  1  0  0  0  0
  1 19  1  0  0  0  0
  3  8  1  0  0  0  0
  4  9  1  0  0  0  0
  4  5  1  0  0  0  0
  4  3  1  0  0  0  0
  5 12  1  0  0  0  0
  6  5  1  0  0  0  0
  6  7  1  0  0  0  0
  7  8  1  0  0  0  0
  7 15  1  0  0  0  0
  8 17  1  0  0  0  0
 10  4  1  0  0  0  0
 11  5  1  0  0  0  0
 13  6  1  0  0  0  0
 14  7  1  0  0  0  0
 16  8  1  0  0  0  0
 18 23  1  0  0  0  0
 19 20  1  0  0  0  0
 19 18  2  0  0  0  0
 20 21  2  0  0  0  0
 21 22  1  0  0  0  0
 22 26  1  0  0  0  0
 23 22  2  0  0  0  0
 24 18  1  0  0  0  0
 25 20  1  0  0  0  0
 27  1  1  0  0  0  0
 27 28  1  0  0  0  0
 29 27  1  0  0  0  0
 30 27  1  0  0  0  0
 31 30  1  0  0  0  0
 32 31  2  0  0  0  0
 33 32  1  0  0  0  0
 34 35  2  0  0  0  0
 34 32  1  0  0  0  0
 35 36  1  0  0  0  0
 36 30  2  0  0  0  0
M  END
>  <minimizedAffinity>
-4.67279005

$$$$

 OpenBabel03252502383D

 36 38  0  0  1  0  0  0  0  0999 V2000
   36.5860   29.2190   39.7160 C   0  0  1  0  0  0  0  0  0  0  0  0
   37.6240   29.3830   39.3380 H   0  0  0  0  0  0  0  0  0  0  0  0
   36.6520   28.0350   40.5490 N   0  0  0  0  0  0  0  0  0  0  0  0
   37.7280   27.1720   40.2740 C   0  0  0  0  0  0  0  0  0  0  0  0
   37.3670   25.8420   40.9750 C   0  0  0  0  0  0  0  0  0  0  0  0
   37.5430   26.1320   42.3660 N   0  0  0  0  0  0  0  0  0  0  0  0
   36.7810   27.2120   42.8660 C   0  0  0  0  0  0  0  0  0  0  0  0
   36.4120   28.3080   41.9250 C   0  0  0  0  0  0  0  0  0  0  0  0
   37.7130   26.9210   39.1850 H   0  0  0  0  0  0  0  0  0  0  0  0
   38.7160   27.5080   40.6100 H   0  0  0  0  0  0  0  0  0  0  0  0
   38.1700   25.1490   40.6680 H   0  0  0  0  0  0  0  0  0  0  0  0
   36.3510   25.5460   40.7260 H   0  0  0  0  0  0  0  0  0  0  0  0
   38.4960   26.0130   42.7250 H   0  0  0  0  0  0  0  0  0  0  0  0
   37.3470   27.6200   43.7600 H   0  0  0  0  0  0  0  0  0  0  0  0
   35.8610   26.7800   43.3240 H   0  0  0  0  0  0  0  0  0  0  0  0
   36.9700   29.2190   42.2110 H   0  0  0  0  0  0  0  0  0  0  0  0
   35.3340   28.5250   42.1220 H   0  0  0  0  0  0  0  0  0  0  0  0
   36.0730   29.2910   37.2880 C   0  0  0  0  0  0  0  0  0  0  0  0
   35.6830   29.1280   38.6070 C   0  0  0  0  0  0  0  0  0  0  0  0
   34.3190   28.8750   38.7940 C   0  0  0  0  0  0  0  0  0  0  0  0
   33.4750   28.8050   37.7160 N   0  0  0  0  0  0  0  0  0  0  0  0
   33.9290   28.9760   36.4580 C   0  0  0  0  0  0  0  0  0  0  0  0
   35.2380   29.2220   36.2350 N   0  0  0  0  0  0  0  0  0  0  0  0
   37.1310   29.4890   37.1120 H   0  0  0  0  0  0  0  0  0  0  0  0
   33.9160   28.7330   39.7760 H   0  0  0  0  0  0  0  0  0  0  0  0
   33.1380   28.8900   35.7300 H   0  0  0  0  0  0  0  0  0  0  0  0
   36.2090   30.4180   40.5900 C   0  0  0  0  0  0  0  0  0  0  0  0
   35.1610   30.7490   40.3220 H   0  0  0  0  0  0  0  0  0  0  0  0
   36.2360   30.1090   41.6710 H   0  0  0  0  0  0  0  0  0  0  0  0
   37.0850   31.5890   40.4460 C   0  0  0  0  0  0  0  0  0  0  0  0
   37.1350   32.8160   39.8560 C   0  0  0  0  0  3  0  0  0  0  0  0
   38.1810   33.6980   39.9120 C   0  0  0  0  0  0  0  0  0  0  0  0
   37.9940   34.6030   39.3730 H   0  0  0  0  0  0  0  0  0  0  0  0
   39.2590   33.3260   40.6110 N   0  0  0  0  0  0  0  0  0  0  0  0
   39.2730   32.1460   41.2070 C   0  0  0  0  0  3  0  0  0  0  0  0
   38.2420   31.3140   41.1320 N   0  0  0  0  0  0  0  0  0  0  0  0
  1  2  1  6  0  0  0
  1  3  1  0  0  0  0
  1 27  1  0  0  0  0
  3  8  1  0  0  0  0
  4  3  1  0  0  0  0
  4 10  1  0  0  0  0
  4  5  1  0  0  0  0
  5  6  1  0  0  0  0
  6 13  1  0  0  0  0
  6  7  1  0  0  0  0
  7 15  1  0  0  0  0
  7 14  1  0  0  0  0
  8 17  1  0  0  0  0
  8 16  1  0  0  0  0
  8  7  1  0  0  0  0
  9  4  1  0  0  0  0
 11  5  1  0  0  0  0
 12  5  1  0  0  0  0
 18 19  1  0  0  0  0
 19 20  2  0  0  0  0
 19  1  1  0  0  0  0
 20 25  1  0  0  0  0
 21 20  1  0  0  0  0
 22 21  2  0  0  0  0
 23 22  1  0  0  0  0
 23 18  2  0  0  0  0
 24 18  1  0  0  0  0
 26 22  1  0  0  0  0
 27 29  1  0  0  0  0
 28 27  1  0  0  0  0
 30 27  1  0  0  0  0
 30 36  1  0  0  0  0
 31 32  1  0  0  0  0
 31 30  2  0  0  0  0
 32 34  2  0  0  0  0
 33 32  1  0  0  0  0
 34 35  1  0  0  0  0
 36 35  2  0  0  0  0
M  END
>  <minimizedAffinity>
-4.6270175

$$$$

 OpenBabel03252502383D

 36 38  0  0  1  0  0  0  0  0999 V2000
   37.2570   30.1880   39.5990 C   0  0  1  0  0  0  0  0  0  0  0  0
   38.1310   29.4930   39.5850 H   0  0  0  0  0  0  0  0  0  0  0  0
   36.6060   30.0310   38.3140 N   0  0  0  0  0  0  0  0  0  0  0  0
   37.4360   29.5640   37.2780 C   0  0  0  0  0  0  0  0  0  0  0  0
   36.6580   29.8590   35.9750 C   0  0  0  0  0  0  0  0  0  0  0  0
   35.5980   28.8980   35.9860 N   0  0  0  0  0  0  0  0  0  0  0  0
   34.7540   28.9320   37.1200 C   0  0  0  0  0  0  0  0  0  0  0  0
   35.3270   29.4140   38.4090 C   0  0  0  0  0  0  0  0  0  0  0  0
   38.3340   30.2250   37.2180 H   0  0  0  0  0  0  0  0  0  0  0  0
   37.7030   28.5010   37.3140 H   0  0  0  0  0  0  0  0  0  0  0  0
   37.3630   29.5790   35.1730 H   0  0  0  0  0  0  0  0  0  0  0  0
   36.3040   30.8870   35.9710 H   0  0  0  0  0  0  0  0  0  0  0  0
   35.8290   27.9800   35.5910 H   0  0  0  0  0  0  0  0  0  0  0  0
   34.3230   27.8900   37.2340 H   0  0  0  0  0  0  0  0  0  0  0  0
   33.8650   29.5470   36.8470 H   0  0  0  0  0  0  0  0  0  0  0  0
   35.3940   28.5570   39.1050 H   0  0  0  0  0  0  0  0  0  0  0  0
   34.5640   30.1080   38.8380 H   0  0  0  0  0  0  0  0  0  0  0  0
   37.0890   32.6570   39.4070 C   0  0  0  0  0  0  0  0  0  0  0  0
   37.7090   31.5160   39.8880 C   0  0  0  0  0  0  0  0  0  0  0  0
   38.8380   31.7480   40.6830 C   0  0  0  0  0  0  0  0  0  0  0  0
   39.2560   33.0290   40.9330 N   0  0  0  0  0  0  0  0  0  0  0  0
   38.5990   34.0920   40.4290 C   0  0  0  0  0  0  0  0  0  0  0  0
   37.5050   33.9120   39.6570 N   0  0  0  0  0  0  0  0  0  0  0  0
   36.2050   32.5080   38.7850 H   0  0  0  0  0  0  0  0  0  0  0  0
   39.3900   30.9320   41.1040 H   0  0  0  0  0  0  0  0  0  0  0  0
   39.0580   35.0240   40.7210 H   0  0  0  0  0  0  0  0  0  0  0  0
   36.3000   29.7190   40.6980 C   0  0  0  0  0  0  0  0  0  0  0  0
   35.9120   30.6240   41.2550 H   0  0  0  0  0  0  0  0  0  0  0  0
   35.4370   29.1740   40.2270 H   0  0  0  0  0  0  0  0  0  0  0  0
   36.8960   28.8190   41.6950 C   0  0  0  0  0  0  0  0  0  0  0  0
   37.4370   28.8230   42.9460 C   0  0  0  0  0  3  0  0  0  0  0  0
   37.9500   27.7390   43.6090 C   0  0  0  0  0  0  0  0  0  0  0  0
   38.3190   27.9810   44.5820 H   0  0  0  0  0  0  0  0  0  0  0  0
   37.9210   26.5630   42.9730 N   0  0  0  0  0  0  0  0  0  0  0  0
   37.4090   26.4930   41.7560 C   0  0  0  0  0  3  0  0  0  0  0  0
   36.9210   27.5630   41.1410 N   0  0  0  0  0  0  0  0  0  0  0  0
  1  2  1  1  0  0  0
  1 19  1  0  0  0  0
  1 27  1  0  0  0  0
  3  8  1  0  0  0  0
  3  1  1  0  0  0  0
  4 10  1  0  0  0  0
  4  3  1  0  0  0  0
  5  6  1  0  0  0  0
  5  4  1  0  0  0  0
  6  7  1  0  0  0  0
  7 14  1  0  0  0  0
  7  8  1  0  0  0  0
  8 17  1  0  0  0  0
  8 16  1  0  0  0  0
  9  4  1  0  0  0  0
 11  5  1  0  0  0  0
 12  5  1  0  0  0  0
 13  6  1  0  0  0  0
 15  7  1  0  0  0  0
 18 23  2  0  0  0  0
 18 19  1  0  0  0  0
 19 20  2  0  0  0  0
 20 21  1  0  0  0  0
 20 25  1  0  0  0  0
 22 26  1  0  0  0  0
 22 21  2  0  0  0  0
 23 22  1  0  0  0  0
 24 18  1  0  0  0  0
 27 28  1  0  0  0  0
 27 30  1  0  0  0  0
 29 27  1  0  0  0  0
 30 31  1  0  0  0  0
 31 32  2  0  0  0  0
 32 33  1  0  0  0  0
 34 32  1  0  0  0  0
 35 34  2  0  0  0  0
 36 30  2  0  0  0  0
 36 35  1  0  0  0  0
M  END
>  <minimizedAffinity>
-4.62300634

$$$$

 OpenBabel03252502383D

 36 38  0  0  1  0  0  0  0  0999 V2000
   36.1620   29.2290   39.9960 C   0  0  1  0  0  0  0  0  0  0  0  0
   35.1190   29.0940   39.6200 H   0  0  0  0  0  0  0  0  0  0  0  0
   36.9690   29.5190   38.8280 N   0  0  0  0  0  0  0  0  0  0  0  0
   38.1360   28.7430   38.7020 C   0  0  0  0  0  0  0  0  0  0  0  0
   39.0000   29.4830   37.6550 C   0  0  0  0  0  0  0  0  0  0  0  0
   38.3230   29.2370   36.4190 N   0  0  0  0  0  0  0  0  0  0  0  0
   36.9710   29.6490   36.3690 C   0  0  0  0  0  0  0  0  0  0  0  0
   36.1970   29.6740   37.6430 C   0  0  0  0  0  0  0  0  0  0  0  0
   38.7210   28.8270   39.6500 H   0  0  0  0  0  0  0  0  0  0  0  0
   37.9930   27.7020   38.3910 H   0  0  0  0  0  0  0  0  0  0  0  0
   39.9490   28.9190   37.6430 H   0  0  0  0  0  0  0  0  0  0  0  0
   39.0690   30.5400   37.9010 H   0  0  0  0  0  0  0  0  0  0  0  0
   38.5730   28.3620   35.9450 H   0  0  0  0  0  0  0  0  0  0  0  0
   36.4610   28.9920   35.5990 H   0  0  0  0  0  0  0  0  0  0  0  0
   36.9540   30.6570   35.8950 H   0  0  0  0  0  0  0  0  0  0  0  0
   35.4340   28.8740   37.6060 H   0  0  0  0  0  0  0  0  0  0  0  0
   35.6380   30.6410   37.6370 H   0  0  0  0  0  0  0  0  0  0  0  0
   36.5970   26.7920   40.1840 C   0  0  0  0  0  0  0  0  0  0  0  0
   36.5590   28.0650   40.7300 C   0  0  0  0  0  0  0  0  0  0  0  0
   36.9280   28.1400   42.0780 C   0  0  0  0  0  0  0  0  0  0  0  0
   37.2920   27.0080   42.7600 N   0  0  0  0  0  0  0  0  0  0  0  0
   37.3050   25.8020   42.1590 C   0  0  0  0  0  0  0  0  0  0  0  0
   36.9550   25.6850   40.8600 N   0  0  0  0  0  0  0  0  0  0  0  0
   36.3140   26.7020   39.1340 H   0  0  0  0  0  0  0  0  0  0  0  0
   36.9330   29.0790   42.5950 H   0  0  0  0  0  0  0  0  0  0  0  0
   37.6140   25.0190   42.8350 H   0  0  0  0  0  0  0  0  0  0  0  0
   36.1740   30.4500   40.9210 C   0  0  0  0  0  0  0  0  0  0  0  0
   35.2610   31.0810   40.7040 H   0  0  0  0  0  0  0  0  0  0  0  0
   36.1410   30.1030   41.9890 H   0  0  0  0  0  0  0  0  0  0  0  0
   37.3480   31.3220   40.7780 C   0  0  0  0  0  0  0  0  0  0  0  0
   38.6650   31.4010   41.1200 C   0  0  0  0  0  3  0  0  0  0  0  0
   39.5170   32.4320   40.8240 C   0  0  0  0  0  0  0  0  0  0  0  0
   40.5070   32.2750   41.1940 H   0  0  0  0  0  0  0  0  0  0  0  0
   39.0150   33.4620   40.1330 N   0  0  0  0  0  0  0  0  0  0  0  0
   37.7440   33.4450   39.7720 C   0  0  0  0  0  3  0  0  0  0  0  0
   36.9440   32.4300   40.0760 N   0  0  0  0  0  0  0  0  0  0  0  0
  1  2  1  6  0  0  0
  1 19  1  0  0  0  0
  1 27  1  0  0  0  0
  3  1  1  0  0  0  0
  4  3  1  0  0  0  0
  4  9  1  0  0  0  0
  5 12  1  0  0  0  0
  5  4  1  0  0  0  0
  6  5  1  0  0  0  0
  7  6  1  0  0  0  0
  7  8  1  0  0  0  0
  8  3  1  0  0  0  0
 10  4  1  0  0  0  0
 11  5  1  0  0  0  0
 13  6  1  0  0  0  0
 14  7  1  0  0  0  0
 15  7  1  0  0  0  0
 16  8  1  0  0  0  0
 17  8  1  0  0  0  0
 18 19  2  0  0  0  0
 18 23  1  0  0  0  0
 19 20  1  0  0  0  0
 20 25  1  0  0  0  0
 20 21  2  0  0  0  0
 22 21  1  0  0  0  0
 22 26  1  0  0  0  0
 23 22  2  0  0  0  0
 24 18  1  0  0  0  0
 27 29  1  0  0  0  0
 28 27  1  0  0  0  0
 30 27  1  0  0  0  0
 30 31  1  0  0  0  0
 32 31  2  0  0  0  0
 32 33  1  0  0  0  0
 34 32  1  0  0  0  0
 35 36  1  0  0  0  0
 35 34  2  0  0  0  0
 36 30  2  0  0  0  0
M  END
>  <minimizedAffinity>
-4.5995636

$$$$

 OpenBabel03252502383D

 36 38  0  0  1  0  0  0  0  0999 V2000
   37.1620   29.2080   40.0830 C   0  0  1  0  0  0  0  0  0  0  0  0
   37.4570   28.5560   39.2250 H   0  0  0  0  0  0  0  0  0  0  0  0
   37.7500   30.5050   39.8130 N   0  0  0  0  0  0  0  0  0  0  0  0
   38.2290   30.6810   38.5020 C   0  0  0  0  0  0  0  0  0  0  0  0
   39.1390   31.9290   38.5700 C   0  0  0  0  0  0  0  0  0  0  0  0
   38.2190   33.0150   38.7180 N   0  0  0  0  0  0  0  0  0  0  0  0
   37.3540   32.9350   39.8340 C   0  0  0  0  0  0  0  0  0  0  0  0
   36.9900   31.5830   40.3450 C   0  0  0  0  0  0  0  0  0  0  0  0
   38.9290   29.8430   38.2630 H   0  0  0  0  0  0  0  0  0  0  0  0
   37.4690   30.8230   37.7250 H   0  0  0  0  0  0  0  0  0  0  0  0
   39.5820   31.9930   37.5610 H   0  0  0  0  0  0  0  0  0  0  0  0
   39.8360   31.8430   39.4000 H   0  0  0  0  0  0  0  0  0  0  0  0
   37.8370   33.3930   37.8450 H   0  0  0  0  0  0  0  0  0  0  0  0
   36.4270   33.5290   39.5670 H   0  0  0  0  0  0  0  0  0  0  0  0
   37.8160   33.5370   40.6500 H   0  0  0  0  0  0  0  0  0  0  0  0
   35.9190   31.4040   40.1330 H   0  0  0  0  0  0  0  0  0  0  0  0
   37.0820   31.6450   41.4570 H   0  0  0  0  0  0  0  0  0  0  0  0
   38.9070   28.4640   41.6840 C   0  0  0  0  0  0  0  0  0  0  0  0
   37.5810   28.5990   41.3100 C   0  0  0  0  0  0  0  0  0  0  0  0
   36.6540   28.0800   42.2220 C   0  0  0  0  0  0  0  0  0  0  0  0
   37.0820   27.4910   43.3830 N   0  0  0  0  0  0  0  0  0  0  0  0
   38.3940   27.3960   43.6790 C   0  0  0  0  0  0  0  0  0  0  0  0
   39.3200   27.8840   42.8260 N   0  0  0  0  0  0  0  0  0  0  0  0
   39.6530   28.8600   40.9930 H   0  0  0  0  0  0  0  0  0  0  0  0
   35.6020   28.1340   42.0270 H   0  0  0  0  0  0  0  0  0  0  0  0
   38.5580   26.9070   44.6270 H   0  0  0  0  0  0  0  0  0  0  0  0
   35.6370   29.3440   40.0690 C   0  0  0  0  0  0  0  0  0  0  0  0
   35.2200   28.8640   41.0040 H   0  0  0  0  0  0  0  0  0  0  0  0
   35.3650   30.4340   40.0570 H   0  0  0  0  0  0  0  0  0  0  0  0
   34.9710   28.7130   38.9220 C   0  0  0  0  0  0  0  0  0  0  0  0
   33.8770   28.8450   38.1190 C   0  0  0  0  0  3  0  0  0  0  0  0
   33.5230   28.0130   37.0910 C   0  0  0  0  0  0  0  0  0  0  0  0
   32.6230   28.3160   36.5990 H   0  0  0  0  0  0  0  0  0  0  0  0
   34.3220   26.9690   36.8460 N   0  0  0  0  0  0  0  0  0  0  0  0
   35.3990   26.7840   37.5890 C   0  0  0  0  0  3  0  0  0  0  0  0
   35.7130   27.6100   38.5800 N   0  0  0  0  0  0  0  0  0  0  0  0
  1  2  1  6  0  0  0
  1 19  1  0  0  0  0
  3  1  1  0  0  0  0
  3  8  1  0  0  0  0
  4  5  1  0  0  0  0
  4  3  1  0  0  0  0
  5  6  1  0  0  0  0
  5 12  1  0  0  0  0
  6  7  1  0  0  0  0
  7  8  1  0  0  0  0
  7 15  1  0  0  0  0
  8 17  1  0  0  0  0
  9  4  1  0  0  0  0
 10  4  1  0  0  0  0
 11  5  1  0  0  0  0
 13  6  1  0  0  0  0
 14  7  1  0  0  0  0
 16  8  1  0  0  0  0
 18 23  1  0  0  0  0
 19 18  2  0  0  0  0
 19 20  1  0  0  0  0
 20 21  2  0  0  0  0
 21 22  1  0  0  0  0
 22 26  1  0  0  0  0
 23 22  2  0  0  0  0
 24 18  1  0  0  0  0
 25 20  1  0  0  0  0
 27  1  1  0  0  0  0
 27 28  1  0  0  0  0
 29 27  1  0  0  0  0
 30 27  1  0  0  0  0
 31 30  2  0  0  0  0
 32 31  1  0  0  0  0
 33 32  1  0  0  0  0
 34 32  2  0  0  0  0
 34 35  1  0  0  0  0
 35 36  2  0  0  0  0
 36 30  1  0  0  0  0
M  END
>  <minimizedAffinity>
-4.51409769

$$$$

 OpenBabel03252502383D

 36 38  0  0  1  0  0  0  0  0999 V2000
   40.0210   30.7450   40.3580 C   0  0  1  0  0  0  0  0  0  0  0  0
   39.5100   29.8080   40.0270 H   0  0  0  0  0  0  0  0  0  0  0  0
   39.1670   31.8340   39.9290 N   0  0  0  0  0  0  0  0  0  0  0  0
   37.8040   31.5070   39.8020 C   0  0  0  0  0  0  0  0  0  0  0  0
   37.1900   32.6600   38.9740 C   0  0  0  0  0  0  0  0  0  0  0  0
   37.1670   33.7610   39.8880 N   0  0  0  0  0  0  0  0  0  0  0  0
   38.4160   34.1220   40.4440 C   0  0  0  0  0  0  0  0  0  0  0  0
   39.4510   33.0600   40.5930 C   0  0  0  0  0  0  0  0  0  0  0  0
   37.7140   30.6140   39.1370 H   0  0  0  0  0  0  0  0  0  0  0  0
   37.2460   31.3890   40.7380 H   0  0  0  0  0  0  0  0  0  0  0  0
   36.1480   32.3400   38.8000 H   0  0  0  0  0  0  0  0  0  0  0  0
   37.7920   32.8520   38.0890 H   0  0  0  0  0  0  0  0  0  0  0  0
   36.3420   33.8140   40.4960 H   0  0  0  0  0  0  0  0  0  0  0  0
   38.1970   34.6160   41.4400 H   0  0  0  0  0  0  0  0  0  0  0  0
   38.8180   34.9590   39.8280 H   0  0  0  0  0  0  0  0  0  0  0  0
   39.5940   32.8580   41.6710 H   0  0  0  0  0  0  0  0  0  0  0  0
   40.4050   33.5150   40.2300 H   0  0  0  0  0  0  0  0  0  0  0  0
   41.6320   30.8160   38.4700 C   0  0  0  0  0  0  0  0  0  0  0  0
   41.3510   30.7750   39.8250 C   0  0  0  0  0  0  0  0  0  0  0  0
   42.4740   30.7530   40.6610 C   0  0  0  0  0  0  0  0  0  0  0  0
   43.7350   30.7700   40.1250 N   0  0  0  0  0  0  0  0  0  0  0  0
   43.9300   30.8090   38.7910 C   0  0  0  0  0  0  0  0  0  0  0  0
   42.8730   30.8320   37.9500 N   0  0  0  0  0  0  0  0  0  0  0  0
   40.7760   30.8340   37.7930 H   0  0  0  0  0  0  0  0  0  0  0  0
   42.3660   30.7210   41.7270 H   0  0  0  0  0  0  0  0  0  0  0  0
   44.9790   30.8180   38.5380 H   0  0  0  0  0  0  0  0  0  0  0  0
   40.0790   30.7350   41.8880 C   0  0  0  0  0  0  0  0  0  0  0  0
   41.1610   30.6620   42.2110 H   0  0  0  0  0  0  0  0  0  0  0  0
   39.6380   31.6920   42.2790 H   0  0  0  0  0  0  0  0  0  0  0  0
   39.3590   29.6250   42.5270 C   0  0  0  0  0  0  0  0  0  0  0  0
   38.1400   29.3040   43.0450 C   0  0  0  0  0  3  0  0  0  0  0  0
   37.7950   28.1090   43.6190 C   0  0  0  0  0  0  0  0  0  0  0  0
   36.7810   28.0840   43.9560 H   0  0  0  0  0  0  0  0  0  0  0  0
   38.7390   27.1640   43.6800 N   0  0  0  0  0  0  0  0  0  0  0  0
   39.9430   27.4140   43.1950 C   0  0  0  0  0  3  0  0  0  0  0  0
   40.2450   28.5840   42.6450 N   0  0  0  0  0  0  0  0  0  0  0  0
  1  2  1  6  0  0  0
  1 27  1  0  0  0  0
  3  1  1  0  0  0  0
  3  8  1  0  0  0  0
  4  3  1  0  0  0  0
  4 10  1  0  0  0  0
  5  4  1  0  0  0  0
  5  6  1  0  0  0  0
  6  7  1  0  0  0  0
  6 13  1  0  0  0  0
  7  8  1  0  0  0  0
  7 14  1  0  0  0  0
  8 16  1  0  0  0  0
  9  4  1  0  0  0  0
 11  5  1  0  0  0  0
 12  5  1  0  0  0  0
 15  7  1  0  0  0  0
 17  8  1  0  0  0  0
 18 19  1  0  0  0  0
 19  1  1  0  0  0  0
 19 20  2  0  0  0  0
 20 25  1  0  0  0  0
 21 20  1  0  0  0  0
 22 21  2  0  0  0  0
 23 18  2  0  0  0  0
 23 22  1  0  0  0  0
 24 18  1  0  0  0  0
 26 22  1  0  0  0  0
 27 28  1  0  0  0  0
 27 29  1  0  0  0  0
 27 30  1  0  0  0  0
 30 36  2  0  0  0  0
 30 31  1  0  0  0  0
 31 32  2  0  0  0  0
 32 34  1  0  0  0  0
 32 33  1  0  0  0  0
 35 34  2  0  0  0  0
 36 35  1  0  0  0  0
M  END
>  <minimizedAffinity>
-4.3933959

$$$$

 OpenBabel03252502383D

 36 38  0  0  1  0  0  0  0  0999 V2000
   37.4750   30.1140   39.1710 C   0  0  1  0  0  0  0  0  0  0  0  0
   36.5080   30.0570   39.7280 H   0  0  0  0  0  0  0  0  0  0  0  0
   37.8280   31.5190   39.1340 N   0  0  0  0  0  0  0  0  0  0  0  0
   37.0570   32.3490   39.9680 C   0  0  0  0  0  0  0  0  0  0  0  0
   37.3320   33.7870   39.4690 C   0  0  0  0  0  0  0  0  0  0  0  0
   38.6680   34.0510   39.9090 N   0  0  0  0  0  0  0  0  0  0  0  0
   39.6510   33.1420   39.4560 C   0  0  0  0  0  0  0  0  0  0  0  0
   39.2330   31.7410   39.1650 C   0  0  0  0  0  0  0  0  0  0  0  0
   35.9770   32.1800   39.7380 H   0  0  0  0  0  0  0  0  0  0  0  0
   37.2690   32.2870   41.0420 H   0  0  0  0  0  0  0  0  0  0  0  0
   36.6460   34.4140   40.0660 H   0  0  0  0  0  0  0  0  0  0  0  0
   37.2190   33.8400   38.3890 H   0  0  0  0  0  0  0  0  0  0  0  0
   38.7550   34.4120   40.8650 H   0  0  0  0  0  0  0  0  0  0  0  0
   40.4880   33.1640   40.2200 H   0  0  0  0  0  0  0  0  0  0  0  0
   40.1210   33.5920   38.5510 H   0  0  0  0  0  0  0  0  0  0  0  0
   39.6830   31.0750   39.9260 H   0  0  0  0  0  0  0  0  0  0  0  0
   39.7150   31.4770   38.1930 H   0  0  0  0  0  0  0  0  0  0  0  0
   36.1940   29.6410   37.0980 C   0  0  0  0  0  0  0  0  0  0  0  0
   37.3220   29.4950   37.8880 C   0  0  0  0  0  0  0  0  0  0  0  0
   38.3210   28.6780   37.3470 C   0  0  0  0  0  0  0  0  0  0  0  0
   38.1440   28.0880   36.1220 N   0  0  0  0  0  0  0  0  0  0  0  0
   37.0150   28.2770   35.4100 C   0  0  0  0  0  0  0  0  0  0  0  0
   36.0270   29.0590   35.8960 N   0  0  0  0  0  0  0  0  0  0  0  0
   35.3980   30.2730   37.4930 H   0  0  0  0  0  0  0  0  0  0  0  0
   39.2340   28.5010   37.8780 H   0  0  0  0  0  0  0  0  0  0  0  0
   37.0370   27.7440   34.4720 H   0  0  0  0  0  0  0  0  0  0  0  0
   38.5310   29.3600   39.9840 C   0  0  0  0  0  0  0  0  0  0  0  0
   38.8370   28.4330   39.4120 H   0  0  0  0  0  0  0  0  0  0  0  0
   39.4280   30.0230   40.1260 H   0  0  0  0  0  0  0  0  0  0  0  0
   38.0910   28.9230   41.3160 C   0  0  0  0  0  0  0  0  0  0  0  0
   38.0980   29.3130   42.6220 C   0  0  0  0  0  3  0  0  0  0  0  0
   37.5860   28.6080   43.6790 C   0  0  0  0  0  0  0  0  0  0  0  0
   37.7030   29.1140   44.6140 H   0  0  0  0  0  0  0  0  0  0  0  0
   37.0250   27.4240   43.4110 N   0  0  0  0  0  0  0  0  0  0  0  0
   36.9880   26.9880   42.1640 C   0  0  0  0  0  3  0  0  0  0  0  0
   37.4940   27.6960   41.1610 N   0  0  0  0  0  0  0  0  0  0  0  0
  1  2  1  1  0  0  0
  1 27  1  0  0  0  0
  3  8  1  0  0  0  0
  3  1  1  0  0  0  0
  3  4  1  0  0  0  0
  4 10  1  0  0  0  0
  5  6  1  0  0  0  0
  5  4  1  0  0  0  0
  5 11  1  0  0  0  0
  6 13  1  0  0  0  0
  7  6  1  0  0  0  0
  7 14  1  0  0  0  0
  8  7  1  0  0  0  0
  8 16  1  0  0  0  0
  9  4  1  0  0  0  0
 12  5  1  0  0  0  0
 15  7  1  0  0  0  0
 17  8  1  0  0  0  0
 18 24  1  0  0  0  0
 18 19  1  0  0  0  0
 19  1  1  0  0  0  0
 20 25  1  0  0  0  0
 20 19  2  0  0  0  0
 21 20  1  0  0  0  0
 22 23  1  0  0  0  0
 22 21  2  0  0  0  0
 23 18  2  0  0  0  0
 26 22  1  0  0  0  0
 27 29  1  0  0  0  0
 27 30  1  0  0  0  0
 28 27  1  0  0  0  0
 30 31  1  0  0  0  0
 31 32  2  0  0  0  0
 32 33  1  0  0  0  0
 34 32  1  0  0  0  0
 35 34  2  0  0  0  0
 36 30  2  0  0  0  0
 36 35  1  0  0  0  0
M  END
>  <minimizedAffinity>
-4.38745451

$$$$
