
 OpenBabel03242511153D

 42 46  0  0  1  0  0  0  0  0999 V2000
   37.0510   27.4200   42.8700 C   0  0  1  0  0  0  0  0  0  0  0  0
   36.8080   28.1210   44.1790 C   0  0  0  0  0  0  0  0  0  0  0  0
   37.4330   28.8300   42.9440 C   0  0  2  0  0  0  0  0  0  0  0  0
   36.1570   27.1900   42.2940 H   0  0  0  0  0  0  0  0  0  0  0  0
   37.4910   27.8940   45.0190 H   0  0  0  0  0  0  0  0  0  0  0  0
   35.7820   28.4220   44.4620 H   0  0  0  0  0  0  0  0  0  0  0  0
   38.5030   29.1150   43.0660 H   0  0  0  0  0  0  0  0  0  0  0  0
   38.7290   24.1610   42.3300 C   0  0  0  0  0  0  0  0  0  0  0  0
   40.0790   24.4700   42.7220 C   0  0  0  0  0  0  0  0  0  0  0  0
   40.3720   25.7990   43.1590 C   0  0  0  0  0  0  0  0  0  0  0  0
   39.3920   26.6940   43.1890 N   0  0  0  0  0  0  0  0  0  0  0  0
   38.1230   26.3600   42.8090 C   0  0  0  0  0  0  0  0  0  0  0  0
   37.7740   25.1020   42.3790 N   0  0  0  0  0  0  0  0  0  0  0  0
   38.4990   23.1710   42.0010 H   0  0  0  0  0  0  0  0  0  0  0  0
   40.8110   23.6960   42.6700 H   0  0  0  0  0  0  0  0  0  0  0  0
   41.7430   26.0840   43.5480 C   0  0  0  0  0  0  0  0  0  0  0  0
   41.9980   27.2100   44.2840 C   0  0  0  0  0  3  0  0  0  0  0  0
   43.3210   27.4150   44.6170 C   0  0  0  0  0  0  0  0  0  0  0  0
   43.5490   28.3150   45.2080 H   0  0  0  0  0  0  0  0  0  0  0  0
   44.3290   26.5720   44.2530 N   0  0  0  0  0  0  0  0  0  0  0  0
   44.0170   25.4640   43.5200 C   0  0  0  0  0  3  0  0  0  0  0  0
   42.7180   25.2400   43.1790 N   0  0  0  0  0  0  0  0  0  0  0  0
   36.6220   29.8080   42.2890 N   0  0  0  0  0  0  0  0  0  0  0  0
   36.3730   30.4750   43.0430 H   0  0  0  0  0  0  0  0  0  0  0  0
   36.3060   29.7240   40.9260 C   0  0  0  0  0  0  0  0  0  0  0  0
   35.1960   29.0120   40.5340 C   0  0  0  0  0  0  0  0  0  0  0  0
   34.7730   28.9450   39.2130 C   0  0  0  0  0  0  0  0  0  0  0  0
   35.4650   29.6020   38.2220 C   0  0  0  0  0  0  0  0  0  0  0  0
   36.5750   30.3170   38.5890 C   0  0  0  0  0  0  0  0  0  0  0  0
   37.2850   30.9820   37.6110 C   0  0  0  0  0  0  0  0  0  0  0  0
   38.4060   31.7120   37.8870 C   0  0  0  0  0  0  0  0  0  0  0  0
   38.8090   31.7570   39.2160 C   0  0  0  0  0  0  0  0  0  0  0  0
   38.0910   31.0900   40.1850 C   0  0  0  0  0  0  0  0  0  0  0  0
   36.9730   30.3660   39.9070 C   0  0  0  0  0  0  0  0  0  0  0  0
   34.6150   28.4730   41.2890 H   0  0  0  0  0  0  0  0  0  0  0  0
   33.8950   28.3670   38.9870 H   0  0  0  0  0  0  0  0  0  0  0  0
   35.1140   29.5350   37.1970 H   0  0  0  0  0  0  0  0  0  0  0  0
   36.9370   30.9210   36.5840 H   0  0  0  0  0  0  0  0  0  0  0  0
   38.9090   32.2050   37.0790 H   0  0  0  0  0  0  0  0  0  0  0  0
   39.6950   32.3270   39.4650 H   0  0  0  0  0  0  0  0  0  0  0  0
   38.5300   31.1550   41.4850 O   0  0  0  0  0  0  0  0  0  0  0  0
   39.4430   30.8600   41.7660 H   0  0  0  0  0  0  0  0  0  0  0  0
  1  4  1  6  0  0  0
  1  3  1  0  0  0  0
  1  2  1  0  0  0  0
  2  6  1  0  0  0  0
  2  5  1  0  0  0  0
  3  7  1  1  0  0  0
  3  2  1  0  0  0  0
  8 13  2  0  0  0  0
  8  9  1  0  0  0  0
  9 10  2  0  0  0  0
 10 11  1  0  0  0  0
 10 16  1  0  0  0  0
 12  1  1  0  0  0  0
 12 11  2  0  0  0  0
 13 12  1  0  0  0  0
 14  8  1  0  0  0  0
 15  9  1  0  0  0  0
 16 17  1  0  0  0  0
 17 18  2  0  0  0  0
 18 19  1  0  0  0  0
 20 18  1  0  0  0  0
 21 20  2  0  0  0  0
 22 21  1  0  0  0  0
 22 16  2  0  0  0  0
 23  3  1  0  0  0  0
 23 24  1  0  0  0  0
 25 23  1  0  0  0  0
 26 25  1  0  0  0  0
 26 35  1  0  0  0  0
 27 26  2  0  0  0  0
 28 29  2  0  0  0  0
 28 27  1  0  0  0  0
 29 34  1  0  0  0  0
 30 31  2  0  0  0  0
 30 29  1  0  0  0  0
 31 32  1  0  0  0  0
 32 40  1  0  0  0  0
 32 33  2  0  0  0  0
 33 41  1  0  0  0  0
 34 33  1  0  0  0  0
 34 25  2  0  0  0  0
 36 27  1  0  0  0  0
 37 28  1  0  0  0  0
 38 30  1  0  0  0  0
 39 31  1  0  0  0  0
 41 42  1  0  0  0  0
M  END
>  <minimizedAffinity>
-7.02253008

$$$$

 OpenBabel03242511153D

 42 46  0  0  1  0  0  0  0  0999 V2000
   37.2940   31.9510   39.3680 C   0  0  1  0  0  0  0  0  0  0  0  0
   37.2320   31.1940   38.0700 C   0  0  0  0  0  0  0  0  0  0  0  0
   37.6420   30.5310   39.4150 C   0  0  2  0  0  0  0  0  0  0  0  0
   36.3300   32.2270   39.7910 H   0  0  0  0  0  0  0  0  0  0  0  0
   38.0400   31.3660   37.3340 H   0  0  0  0  0  0  0  0  0  0  0  0
   36.2520   30.9030   37.6470 H   0  0  0  0  0  0  0  0  0  0  0  0
   38.7100   30.2180   39.4690 H   0  0  0  0  0  0  0  0  0  0  0  0
   39.0200   35.0800   40.3490 C   0  0  0  0  0  0  0  0  0  0  0  0
   40.3440   34.8450   39.8370 C   0  0  0  0  0  0  0  0  0  0  0  0
   40.6040   33.6090   39.1690 C   0  0  0  0  0  0  0  0  0  0  0  0
   39.6180   32.7280   39.0450 N   0  0  0  0  0  0  0  0  0  0  0  0
   38.3750   32.9900   39.5450 C   0  0  0  0  0  0  0  0  0  0  0  0
   38.0580   34.1580   40.1980 N   0  0  0  0  0  0  0  0  0  0  0  0
   38.8140   36.0010   40.8510 H   0  0  0  0  0  0  0  0  0  0  0  0
   41.0820   35.6020   39.9770 H   0  0  0  0  0  0  0  0  0  0  0  0
   41.9490   33.3960   38.6620 C   0  0  0  0  0  0  0  0  0  0  0  0
   42.1430   32.4660   37.6770 C   0  0  0  0  0  3  0  0  0  0  0  0
   43.4450   32.3200   37.2450 C   0  0  0  0  0  0  0  0  0  0  0  0
   43.6230   31.5770   36.4530 H   0  0  0  0  0  0  0  0  0  0  0  0
   44.4900   33.0380   37.7460 N   0  0  0  0  0  0  0  0  0  0  0  0
   44.2400   33.9520   38.7280 C   0  0  0  0  0  3  0  0  0  0  0  0
   42.9620   34.1150   39.1700 N   0  0  0  0  0  0  0  0  0  0  0  0
   36.7140   29.6040   39.9800 N   0  0  0  0  0  0  0  0  0  0  0  0
   35.8650   29.7080   39.3950 H   0  0  0  0  0  0  0  0  0  0  0  0
   37.0310   28.8170   41.0970 C   0  0  0  0  0  0  0  0  0  0  0  0
   37.3580   29.4320   42.2830 C   0  0  0  0  0  0  0  0  0  0  0  0
   37.6100   28.7260   43.4520 C   0  0  0  0  0  0  0  0  0  0  0  0
   37.5410   27.3520   43.4700 C   0  0  0  0  0  0  0  0  0  0  0  0
   37.2180   26.7180   42.2980 C   0  0  0  0  0  0  0  0  0  0  0  0
   37.1450   25.3400   42.2920 C   0  0  0  0  0  0  0  0  0  0  0  0
   36.8370   24.6280   41.1690 C   0  0  0  0  0  0  0  0  0  0  0  0
   36.5960   25.3590   40.0130 C   0  0  0  0  0  0  0  0  0  0  0  0
   36.6700   26.7350   40.0310 C   0  0  0  0  0  0  0  0  0  0  0  0
   36.9740   27.4420   41.1520 C   0  0  0  0  0  0  0  0  0  0  0  0
   37.4250   30.5250   42.3160 H   0  0  0  0  0  0  0  0  0  0  0  0
   37.8600   29.2810   44.3390 H   0  0  0  0  0  0  0  0  0  0  0  0
   37.7410   26.8240   44.3950 H   0  0  0  0  0  0  0  0  0  0  0  0
   37.3410   24.8060   43.2170 H   0  0  0  0  0  0  0  0  0  0  0  0
   36.7960   23.5580   41.2350 H   0  0  0  0  0  0  0  0  0  0  0  0
   36.3500   24.8220   39.1060 H   0  0  0  0  0  0  0  0  0  0  0  0
   36.4310   27.4180   38.8630 O   0  0  0  0  0  0  0  0  0  0  0  0
   36.9580   27.2650   38.0270 H   0  0  0  0  0  0  0  0  0  0  0  0
  1  3  1  0  0  0  0
  1 12  1  0  0  0  0
  1  4  1  1  0  0  0
  2  1  1  0  0  0  0
  2  3  1  0  0  0  0
  3  7  1  1  0  0  0
  3 23  1  0  0  0  0
  5  2  1  0  0  0  0
  6  2  1  0  0  0  0
  8 14  1  0  0  0  0
  9 15  1  0  0  0  0
  9  8  2  0  0  0  0
 10  9  1  0  0  0  0
 11 10  2  0  0  0  0
 11 12  1  0  0  0  0
 12 13  2  0  0  0  0
 13  8  1  0  0  0  0
 16 10  1  0  0  0  0
 16 22  1  0  0  0  0
 17 16  2  0  0  0  0
 18 17  1  0  0  0  0
 18 20  2  0  0  0  0
 19 18  1  0  0  0  0
 20 21  1  0  0  0  0
 21 22  2  0  0  0  0
 23 25  1  0  0  0  0
 24 23  1  0  0  0  0
 25 34  2  0  0  0  0
 25 26  1  0  0  0  0
 26 35  1  0  0  0  0
 26 27  2  0  0  0  0
 27 28  1  0  0  0  0
 27 36  1  0  0  0  0
 28 37  1  0  0  0  0
 29 28  2  0  0  0  0
 30 29  1  0  0  0  0
 30 38  1  0  0  0  0
 31 39  1  0  0  0  0
 31 30  2  0  0  0  0
 32 33  2  0  0  0  0
 32 31  1  0  0  0  0
 33 34  1  0  0  0  0
 34 29  1  0  0  0  0
 40 32  1  0  0  0  0
 41 33  1  0  0  0  0
 42 41  1  0  0  0  0
M  END
>  <minimizedAffinity>
-6.98681545

$$$$

 OpenBabel03242511153D

 42 46  0  0  1  0  0  0  0  0999 V2000
   38.2260   28.6120   42.7690 C   0  0  1  0  0  0  0  0  0  0  0  0
   37.3270   28.1590   43.8860 C   0  0  0  0  0  0  0  0  0  0  0  0
   37.6070   27.2960   42.6240 C   0  0  2  0  0  0  0  0  0  0  0  0
   39.2890   28.6240   43.0050 H   0  0  0  0  0  0  0  0  0  0  0  0
   36.3240   28.6210   43.9590 H   0  0  0  0  0  0  0  0  0  0  0  0
   37.7640   27.8080   44.8400 H   0  0  0  0  0  0  0  0  0  0  0  0
   36.7290   27.1610   41.9510 H   0  0  0  0  0  0  0  0  0  0  0  0
   36.1120   30.7010   40.5560 C   0  0  0  0  0  0  0  0  0  0  0  0
   36.9800   31.8230   40.3120 C   0  0  0  0  0  0  0  0  0  0  0  0
   38.2730   31.8260   40.9220 C   0  0  0  0  0  0  0  0  0  0  0  0
   38.6230   30.7990   41.6860 N   0  0  0  0  0  0  0  0  0  0  0  0
   37.7690   29.7530   41.8930 C   0  0  0  0  0  0  0  0  0  0  0  0
   36.5130   29.6870   41.3370 N   0  0  0  0  0  0  0  0  0  0  0  0
   35.1430   30.6880   40.1060 H   0  0  0  0  0  0  0  0  0  0  0  0
   36.6270   32.6090   39.6850 H   0  0  0  0  0  0  0  0  0  0  0  0
   39.1300   32.9700   40.6590 C   0  0  0  0  0  0  0  0  0  0  0  0
   40.4860   32.7910   40.6570 C   0  0  0  0  0  3  0  0  0  0  0  0
   41.2360   33.9200   40.4000 C   0  0  0  0  0  0  0  0  0  0  0  0
   42.3290   33.7980   40.3930 H   0  0  0  0  0  0  0  0  0  0  0  0
   40.6900   35.1460   40.1590 N   0  0  0  0  0  0  0  0  0  0  0  0
   39.3310   35.2680   40.1730 C   0  0  0  0  0  3  0  0  0  0  0  0
   38.5710   34.1670   40.4250 N   0  0  0  0  0  0  0  0  0  0  0  0
   38.4040   26.1250   42.8130 N   0  0  0  0  0  0  0  0  0  0  0  0
   38.0050   25.6830   43.6630 H   0  0  0  0  0  0  0  0  0  0  0  0
   39.4690   25.8010   41.9610 C   0  0  0  0  0  0  0  0  0  0  0  0
   39.2150   25.5330   40.6360 C   0  0  0  0  0  0  0  0  0  0  0  0
   40.2210   25.2780   39.7130 C   0  0  0  0  0  0  0  0  0  0  0  0
   41.5420   25.2830   40.0980 C   0  0  0  0  0  0  0  0  0  0  0  0
   41.8190   25.5460   41.4150 C   0  0  0  0  0  0  0  0  0  0  0  0
   43.1370   25.5540   41.8230 C   0  0  0  0  0  0  0  0  0  0  0  0
   43.5020   25.7990   43.1150 C   0  0  0  0  0  0  0  0  0  0  0  0
   42.4750   26.0450   44.0180 C   0  0  0  0  0  0  0  0  0  0  0  0
   41.1620   26.0360   43.5990 C   0  0  0  0  0  0  0  0  0  0  0  0
   40.8020   25.7940   42.3090 C   0  0  0  0  0  0  0  0  0  0  0  0
   38.1780   25.5180   40.2850 H   0  0  0  0  0  0  0  0  0  0  0  0
   39.9400   25.0780   38.6950 H   0  0  0  0  0  0  0  0  0  0  0  0
   42.3090   25.0820   39.3580 H   0  0  0  0  0  0  0  0  0  0  0  0
   43.9100   25.3570   41.0860 H   0  0  0  0  0  0  0  0  0  0  0  0
   44.5450   25.7920   43.3640 H   0  0  0  0  0  0  0  0  0  0  0  0
   42.7340   26.2410   45.0500 H   0  0  0  0  0  0  0  0  0  0  0  0
   40.1770   26.2760   44.5260 O   0  0  0  0  0  0  0  0  0  0  0  0
   40.0600   25.7210   45.3500 H   0  0  0  0  0  0  0  0  0  0  0  0
  1  4  1  1  0  0  0
  1  2  1  0  0  0  0
  2  5  1  0  0  0  0
  2  6  1  0  0  0  0
  3  7  1  6  0  0  0
  3  1  1  0  0  0  0
  3 23  1  0  0  0  0
  3  2  1  0  0  0  0
  8 13  1  0  0  0  0
  9  8  2  0  0  0  0
  9 10  1  0  0  0  0
 10 11  2  0  0  0  0
 11 12  1  0  0  0  0
 12  1  1  0  0  0  0
 13 12  2  0  0  0  0
 14  8  1  0  0  0  0
 15  9  1  0  0  0  0
 16 10  1  0  0  0  0
 17 16  1  0  0  0  0
 18 17  2  0  0  0  0
 19 18  1  0  0  0  0
 20 21  2  0  0  0  0
 20 18  1  0  0  0  0
 21 22  1  0  0  0  0
 22 16  2  0  0  0  0
 23 24  1  0  0  0  0
 25 34  1  0  0  0  0
 25 23  1  0  0  0  0
 26 25  2  0  0  0  0
 27 28  2  0  0  0  0
 27 26  1  0  0  0  0
 28 29  1  0  0  0  0
 29 30  2  0  0  0  0
 29 34  1  0  0  0  0
 30 31  1  0  0  0  0
 31 39  1  0  0  0  0
 31 32  2  0  0  0  0
 32 40  1  0  0  0  0
 33 32  1  0  0  0  0
 33 41  1  0  0  0  0
 34 33  2  0  0  0  0
 35 26  1  0  0  0  0
 36 27  1  0  0  0  0
 37 28  1  0  0  0  0
 38 30  1  0  0  0  0
 41 42  1  0  0  0  0
M  END
>  <minimizedAffinity>
-6.64043665

$$$$

 OpenBabel03242511153D

 42 46  0  0  1  0  0  0  0  0999 V2000
   37.4850   32.1620   40.4210 C   0  0  1  0  0  0  0  0  0  0  0  0
   36.8090   31.4710   39.2690 C   0  0  0  0  0  0  0  0  0  0  0  0
   37.7130   30.7240   40.2890 C   0  0  2  0  0  0  0  0  0  0  0  0
   36.8230   32.4760   41.2260 H   0  0  0  0  0  0  0  0  0  0  0  0
   37.2270   31.6280   38.2560 H   0  0  0  0  0  0  0  0  0  0  0  0
   35.7240   31.2570   39.3120 H   0  0  0  0  0  0  0  0  0  0  0  0
   38.6730   30.3460   39.8660 H   0  0  0  0  0  0  0  0  0  0  0  0
   39.4710   35.2860   40.2610 C   0  0  0  0  0  0  0  0  0  0  0  0
   40.6460   34.8390   39.5620 C   0  0  0  0  0  0  0  0  0  0  0  0
   40.7200   33.4670   39.1670 C   0  0  0  0  0  0  0  0  0  0  0  0
   39.7060   32.6610   39.4580 N   0  0  0  0  0  0  0  0  0  0  0  0
   38.6070   33.1260   40.1230 C   0  0  0  0  0  0  0  0  0  0  0  0
   38.4720   34.4320   40.5310 N   0  0  0  0  0  0  0  0  0  0  0  0
   39.4040   36.3100   40.5610 H   0  0  0  0  0  0  0  0  0  0  0  0
   41.4180   35.5470   39.3650 H   0  0  0  0  0  0  0  0  0  0  0  0
   41.9180   33.0410   38.4630 C   0  0  0  0  0  0  0  0  0  0  0  0
   43.0970   33.6890   38.7150 C   0  0  0  0  0  3  0  0  0  0  0  0
   44.1900   33.2310   38.0110 C   0  0  0  0  0  0  0  0  0  0  0  0
   45.1480   33.7380   38.1990 H   0  0  0  0  0  0  0  0  0  0  0  0
   44.1330   32.2020   37.1170 N   0  0  0  0  0  0  0  0  0  0  0  0
   42.9320   31.5910   36.9040 C   0  0  0  0  0  3  0  0  0  0  0  0
   41.8380   32.0270   37.5880 N   0  0  0  0  0  0  0  0  0  0  0  0
   37.0580   29.8280   41.1890 N   0  0  0  0  0  0  0  0  0  0  0  0
   36.5980   30.4530   41.8770 H   0  0  0  0  0  0  0  0  0  0  0  0
   37.1390   28.4360   41.0480 C   0  0  0  0  0  0  0  0  0  0  0  0
   36.4830   27.8240   40.0060 C   0  0  0  0  0  0  0  0  0  0  0  0
   36.5750   26.4620   39.7530 C   0  0  0  0  0  0  0  0  0  0  0  0
   37.3440   25.6510   40.5560 C   0  0  0  0  0  0  0  0  0  0  0  0
   38.0060   26.2390   41.6030 C   0  0  0  0  0  0  0  0  0  0  0  0
   38.7820   25.4440   42.4220 C   0  0  0  0  0  0  0  0  0  0  0  0
   39.4700   25.9450   43.4900 C   0  0  0  0  0  0  0  0  0  0  0  0
   39.3550   27.3090   43.7220 C   0  0  0  0  0  0  0  0  0  0  0  0
   38.5780   28.0940   42.8960 C   0  0  0  0  0  0  0  0  0  0  0  0
   37.8970   27.5920   41.8310 C   0  0  0  0  0  0  0  0  0  0  0  0
   35.8580   28.4310   39.3410 H   0  0  0  0  0  0  0  0  0  0  0  0
   36.0300   26.0600   38.9180 H   0  0  0  0  0  0  0  0  0  0  0  0
   37.4010   24.5900   40.3380 H   0  0  0  0  0  0  0  0  0  0  0  0
   38.8450   24.3820   42.2060 H   0  0  0  0  0  0  0  0  0  0  0  0
   40.0550   25.2710   44.0850 H   0  0  0  0  0  0  0  0  0  0  0  0
   39.8880   27.7350   44.5620 H   0  0  0  0  0  0  0  0  0  0  0  0
   38.4870   29.4370   43.1670 O   0  0  0  0  0  0  0  0  0  0  0  0
   38.1580   29.7940   44.0410 H   0  0  0  0  0  0  0  0  0  0  0  0
  1  4  1  1  0  0  0
  2  6  1  0  0  0  0
  2  3  1  0  0  0  0
  2  1  1  0  0  0  0
  3  7  1  6  0  0  0
  3  1  1  0  0  0  0
  3 23  1  0  0  0  0
  5  2  1  0  0  0  0
  8 13  1  0  0  0  0
  8 14  1  0  0  0  0
  9  8  2  0  0  0  0
 10 11  2  0  0  0  0
 10  9  1  0  0  0  0
 11 12  1  0  0  0  0
 12  1  1  0  0  0  0
 12 13  2  0  0  0  0
 15  9  1  0  0  0  0
 16 17  1  0  0  0  0
 16 10  1  0  0  0  0
 18 19  1  0  0  0  0
 18 17  2  0  0  0  0
 20 18  1  0  0  0  0
 21 20  2  0  0  0  0
 21 22  1  0  0  0  0
 22 16  2  0  0  0  0
 23 24  1  0  0  0  0
 25 23  1  0  0  0  0
 25 34  1  0  0  0  0
 26 25  2  0  0  0  0
 27 26  1  0  0  0  0
 27 28  2  0  0  0  0
 28 29  1  0  0  0  0
 29 34  2  0  0  0  0
 29 30  1  0  0  0  0
 30 31  2  0  0  0  0
 31 32  1  0  0  0  0
 31 39  1  0  0  0  0
 32 40  1  0  0  0  0
 33 41  1  0  0  0  0
 33 32  2  0  0  0  0
 34 33  1  0  0  0  0
 35 26  1  0  0  0  0
 36 27  1  0  0  0  0
 37 28  1  0  0  0  0
 38 30  1  0  0  0  0
 41 42  1  0  0  0  0
M  END
>  <minimizedAffinity>
-6.57641935

$$$$

 OpenBabel03242511153D

 42 46  0  0  1  0  0  0  0  0999 V2000
   36.9040   27.2290   42.3490 C   0  0  1  0  0  0  0  0  0  0  0  0
   36.2820   27.3940   43.7080 C   0  0  0  0  0  0  0  0  0  0  0  0
   37.6110   28.0890   43.2970 C   0  0  2  0  0  0  0  0  0  0  0  0
   36.3820   27.7310   41.5360 H   0  0  0  0  0  0  0  0  0  0  0  0
   36.3630   26.5480   44.4170 H   0  0  0  0  0  0  0  0  0  0  0  0
   35.3960   28.0440   43.8350 H   0  0  0  0  0  0  0  0  0  0  0  0
   38.5140   27.7110   43.8300 H   0  0  0  0  0  0  0  0  0  0  0  0
   39.2050   24.3280   42.2050 C   0  0  0  0  0  0  0  0  0  0  0  0
   38.5130   23.4630   41.2870 C   0  0  0  0  0  0  0  0  0  0  0  0
   37.2670   23.9070   40.7450 C   0  0  0  0  0  0  0  0  0  0  0  0
   36.7980   25.0950   41.1060 N   0  0  0  0  0  0  0  0  0  0  0  0
   37.4870   25.8860   41.9810 C   0  0  0  0  0  0  0  0  0  0  0  0
   38.6890   25.5210   42.5380 N   0  0  0  0  0  0  0  0  0  0  0  0
   40.1380   24.0070   42.6170 H   0  0  0  0  0  0  0  0  0  0  0  0
   38.9540   22.5230   41.0470 H   0  0  0  0  0  0  0  0  0  0  0  0
   36.5880   23.0140   39.8210 C   0  0  0  0  0  0  0  0  0  0  0  0
   35.4080   23.4200   39.2580 C   0  0  0  0  0  3  0  0  0  0  0  0
   34.8220   22.5220   38.3920 C   0  0  0  0  0  0  0  0  0  0  0  0
   33.8720   22.8290   37.9280 H   0  0  0  0  0  0  0  0  0  0  0  0
   35.3560   21.3030   38.0950 N   0  0  0  0  0  0  0  0  0  0  0  0
   36.5350   20.9490   38.6850 C   0  0  0  0  0  3  0  0  0  0  0  0
   37.1330   21.8200   39.5440 N   0  0  0  0  0  0  0  0  0  0  0  0
   37.5650   29.5060   43.1230 N   0  0  0  0  0  0  0  0  0  0  0  0
   36.7210   29.7970   43.6500 H   0  0  0  0  0  0  0  0  0  0  0  0
   38.5150   30.1960   42.3570 C   0  0  0  0  0  0  0  0  0  0  0  0
   39.8460   30.1050   42.6930 C   0  0  0  0  0  0  0  0  0  0  0  0
   40.8530   30.6950   41.9410 C   0  0  0  0  0  0  0  0  0  0  0  0
   40.5530   31.4120   40.8060 C   0  0  0  0  0  0  0  0  0  0  0  0
   39.2320   31.5170   40.4530 C   0  0  0  0  0  0  0  0  0  0  0  0
   38.9070   32.2340   39.3200 C   0  0  0  0  0  0  0  0  0  0  0  0
   37.6180   32.3950   38.8990 C   0  0  0  0  0  0  0  0  0  0  0  0
   36.6300   31.7990   39.6730 C   0  0  0  0  0  0  0  0  0  0  0  0
   36.9670   31.0840   40.8030 C   0  0  0  0  0  0  0  0  0  0  0  0
   38.2520   30.9230   41.2170 C   0  0  0  0  0  0  0  0  0  0  0  0
   40.1320   29.5440   43.5890 H   0  0  0  0  0  0  0  0  0  0  0  0
   41.8700   30.5780   42.2700 H   0  0  0  0  0  0  0  0  0  0  0  0
   41.3570   31.8630   40.2360 H   0  0  0  0  0  0  0  0  0  0  0  0
   39.7090   32.6840   38.7430 H   0  0  0  0  0  0  0  0  0  0  0  0
   37.4360   32.9620   38.0080 H   0  0  0  0  0  0  0  0  0  0  0  0
   35.5990   31.9100   39.3650 H   0  0  0  0  0  0  0  0  0  0  0  0
   35.9570   30.5170   41.5430 O   0  0  0  0  0  0  0  0  0  0  0  0
   35.2080   31.0500   41.9370 H   0  0  0  0  0  0  0  0  0  0  0  0
  1  4  1  6  0  0  0
  1  3  1  0  0  0  0
  1  2  1  0  0  0  0
  2  6  1  0  0  0  0
  2  5  1  0  0  0  0
  3  2  1  0  0  0  0
  3  7  1  1  0  0  0
  8 13  1  0  0  0  0
  8 14  1  0  0  0  0
  9  8  2  0  0  0  0
 10 11  2  0  0  0  0
 10  9  1  0  0  0  0
 11 12  1  0  0  0  0
 12  1  1  0  0  0  0
 12 13  2  0  0  0  0
 15  9  1  0  0  0  0
 16 10  1  0  0  0  0
 17 16  2  0  0  0  0
 18 17  1  0  0  0  0
 19 18  1  0  0  0  0
 20 18  2  0  0  0  0
 20 21  1  0  0  0  0
 21 22  2  0  0  0  0
 22 16  1  0  0  0  0
 23  3  1  0  0  0  0
 23 24  1  0  0  0  0
 25 26  1  0  0  0  0
 25 23  1  0  0  0  0
 26 35  1  0  0  0  0
 27 36  1  0  0  0  0
 27 26  2  0  0  0  0
 28 27  1  0  0  0  0
 29 28  2  0  0  0  0
 29 34  1  0  0  0  0
 30 29  1  0  0  0  0
 31 30  2  0  0  0  0
 31 32  1  0  0  0  0
 32 33  2  0  0  0  0
 33 34  1  0  0  0  0
 33 41  1  0  0  0  0
 34 25  2  0  0  0  0
 37 28  1  0  0  0  0
 38 30  1  0  0  0  0
 39 31  1  0  0  0  0
 40 32  1  0  0  0  0
 41 42  1  0  0  0  0
M  END
>  <minimizedAffinity>
-6.57186985

$$$$

 OpenBabel03242511153D

 42 46  0  0  1  0  0  0  0  0999 V2000
   38.2550   32.7560   40.4590 C   0  0  1  0  0  0  0  0  0  0  0  0
   36.9570   32.9820   39.7330 C   0  0  0  0  0  0  0  0  0  0  0  0
   37.6740   31.6030   39.7720 C   0  0  2  0  0  0  0  0  0  0  0  0
   38.1860   32.7580   41.5450 H   0  0  0  0  0  0  0  0  0  0  0  0
   36.9920   33.5330   38.7750 H   0  0  0  0  0  0  0  0  0  0  0  0
   36.0130   33.0710   40.3040 H   0  0  0  0  0  0  0  0  0  0  0  0
   38.0870   31.2680   38.7930 H   0  0  0  0  0  0  0  0  0  0  0  0
   40.8590   35.2840   39.7150 C   0  0  0  0  0  0  0  0  0  0  0  0
   41.7690   34.5230   38.9010 C   0  0  0  0  0  0  0  0  0  0  0  0
   41.4570   33.1540   38.6340 C   0  0  0  0  0  0  0  0  0  0  0  0
   40.3440   32.6390   39.1440 N   0  0  0  0  0  0  0  0  0  0  0  0
   39.5070   33.3970   39.9120 C   0  0  0  0  0  0  0  0  0  0  0  0
   39.7480   34.7180   40.2070 N   0  0  0  0  0  0  0  0  0  0  0  0
   41.0830   36.3090   39.9220 H   0  0  0  0  0  0  0  0  0  0  0  0
   42.6420   35.0080   38.5280 H   0  0  0  0  0  0  0  0  0  0  0  0
   42.3920   32.4070   37.8090 C   0  0  0  0  0  0  0  0  0  0  0  0
   41.9190   31.3720   37.0490 C   0  0  0  0  0  3  0  0  0  0  0  0
   42.8630   30.7090   36.2920 C   0  0  0  0  0  0  0  0  0  0  0  0
   42.5040   29.8740   35.6730 H   0  0  0  0  0  0  0  0  0  0  0  0
   44.1860   31.0400   36.2800 N   0  0  0  0  0  0  0  0  0  0  0  0
   44.6030   32.0810   37.0580 C   0  0  0  0  0  3  0  0  0  0  0  0
   43.6890   32.7500   37.8140 N   0  0  0  0  0  0  0  0  0  0  0  0
   37.0460   30.5760   40.5420 N   0  0  0  0  0  0  0  0  0  0  0  0
   36.7440   31.0600   41.4080 H   0  0  0  0  0  0  0  0  0  0  0  0
   36.9600   29.2510   40.0920 C   0  0  0  0  0  0  0  0  0  0  0  0
   36.9480   28.9980   38.7400 C   0  0  0  0  0  0  0  0  0  0  0  0
   36.9420   27.7130   38.2140 C   0  0  0  0  0  0  0  0  0  0  0  0
   36.9470   26.6170   39.0450 C   0  0  0  0  0  0  0  0  0  0  0  0
   36.9570   26.8450   40.3970 C   0  0  0  0  0  0  0  0  0  0  0  0
   36.9590   25.7590   41.2490 C   0  0  0  0  0  0  0  0  0  0  0  0
   36.9630   25.8950   42.6080 C   0  0  0  0  0  0  0  0  0  0  0  0
   36.9630   27.1920   43.1060 C   0  0  0  0  0  0  0  0  0  0  0  0
   36.9620   28.2680   42.2450 C   0  0  0  0  0  0  0  0  0  0  0  0
   36.9620   28.1300   40.8920 C   0  0  0  0  0  0  0  0  0  0  0  0
   36.9440   29.8410   38.0400 H   0  0  0  0  0  0  0  0  0  0  0  0
   36.9330   27.5990   37.1450 H   0  0  0  0  0  0  0  0  0  0  0  0
   36.9420   25.6230   38.6110 H   0  0  0  0  0  0  0  0  0  0  0  0
   36.9590   24.7620   40.8200 H   0  0  0  0  0  0  0  0  0  0  0  0
   36.9660   25.0090   43.2120 H   0  0  0  0  0  0  0  0  0  0  0  0
   36.9640   27.3310   44.1790 H   0  0  0  0  0  0  0  0  0  0  0  0
   36.9550   29.5340   42.7800 O   0  0  0  0  0  0  0  0  0  0  0  0
   36.2410   29.8560   43.4020 H   0  0  0  0  0  0  0  0  0  0  0  0
  1  4  1  1  0  0  0
  2  3  1  0  0  0  0
  2  6  1  0  0  0  0
  2  1  1  0  0  0  0
  3  7  1  6  0  0  0
  3  1  1  0  0  0  0
  3 23  1  0  0  0  0
  5  2  1  0  0  0  0
  8 14  1  0  0  0  0
  8 13  1  0  0  0  0
  9  8  2  0  0  0  0
 10  9  1  0  0  0  0
 10 11  2  0  0  0  0
 11 12  1  0  0  0  0
 12 13  2  0  0  0  0
 12  1  1  0  0  0  0
 15  9  1  0  0  0  0
 16 22  1  0  0  0  0
 16 10  1  0  0  0  0
 17 16  2  0  0  0  0
 18 17  1  0  0  0  0
 19 18  1  0  0  0  0
 20 18  2  0  0  0  0
 20 21  1  0  0  0  0
 21 22  2  0  0  0  0
 23 24  1  0  0  0  0
 25 23  1  0  0  0  0
 25 34  1  0  0  0  0
 26 25  2  0  0  0  0
 27 26  1  0  0  0  0
 27 28  2  0  0  0  0
 28 29  1  0  0  0  0
 29 34  2  0  0  0  0
 29 30  1  0  0  0  0
 30 31  2  0  0  0  0
 31 32  1  0  0  0  0
 31 39  1  0  0  0  0
 32 40  1  0  0  0  0
 33 41  1  0  0  0  0
 33 32  2  0  0  0  0
 34 33  1  0  0  0  0
 35 26  1  0  0  0  0
 36 27  1  0  0  0  0
 37 28  1  0  0  0  0
 38 30  1  0  0  0  0
 41 42  1  0  0  0  0
M  END
>  <minimizedAffinity>
-6.57113028

$$$$

 OpenBabel03242511153D

 42 46  0  0  1  0  0  0  0  0999 V2000
   38.1890   28.5990   42.8420 C   0  0  1  0  0  0  0  0  0  0  0  0
   37.2220   28.1420   43.9000 C   0  0  0  0  0  0  0  0  0  0  0  0
   37.5500   27.3000   42.6350 C   0  0  2  0  0  0  0  0  0  0  0  0
   39.2380   28.5820   43.1330 H   0  0  0  0  0  0  0  0  0  0  0  0
   36.2270   28.6250   43.9310 H   0  0  0  0  0  0  0  0  0  0  0  0
   37.6010   27.7600   44.8670 H   0  0  0  0  0  0  0  0  0  0  0  0
   36.7050   27.2010   41.9140 H   0  0  0  0  0  0  0  0  0  0  0  0
   36.2140   30.8140   40.6240 C   0  0  0  0  0  0  0  0  0  0  0  0
   37.1440   31.8880   40.3950 C   0  0  0  0  0  0  0  0  0  0  0  0
   38.4290   31.8170   41.0170 C   0  0  0  0  0  0  0  0  0  0  0  0
   38.7150   30.7670   41.7780 N   0  0  0  0  0  0  0  0  0  0  0  0
   37.8030   29.7690   41.9700 C   0  0  0  0  0  0  0  0  0  0  0  0
   36.5510   29.7750   41.4020 N   0  0  0  0  0  0  0  0  0  0  0  0
   35.2490   30.8570   40.1640 H   0  0  0  0  0  0  0  0  0  0  0  0
   36.8400   32.6970   39.7710 H   0  0  0  0  0  0  0  0  0  0  0  0
   39.3490   32.9140   40.7700 C   0  0  0  0  0  0  0  0  0  0  0  0
   38.8390   34.1600   40.5220 C   0  0  0  0  0  3  0  0  0  0  0  0
   39.7710   35.1510   40.2970 C   0  0  0  0  0  0  0  0  0  0  0  0
   39.3820   36.1600   40.0960 H   0  0  0  0  0  0  0  0  0  0  0  0
   41.1170   34.9360   40.3140 N   0  0  0  0  0  0  0  0  0  0  0  0
   41.5720   33.6740   40.5670 C   0  0  0  0  0  3  0  0  0  0  0  0
   40.6700   32.6790   40.7920 N   0  0  0  0  0  0  0  0  0  0  0  0
   38.3100   26.1080   42.8390 N   0  0  0  0  0  0  0  0  0  0  0  0
   37.5930   25.3690   42.9630 H   0  0  0  0  0  0  0  0  0  0  0  0
   39.7120   26.1110   42.8620 C   0  0  0  0  0  0  0  0  0  0  0  0
   40.3660   26.4410   44.0260 C   0  0  0  0  0  0  0  0  0  0  0  0
   41.7480   26.3940   44.1510 C   0  0  0  0  0  0  0  0  0  0  0  0
   42.5360   26.0070   43.0910 C   0  0  0  0  0  0  0  0  0  0  0  0
   41.9050   25.6750   41.9200 C   0  0  0  0  0  0  0  0  0  0  0  0
   42.6750   25.2860   40.8440 C   0  0  0  0  0  0  0  0  0  0  0  0
   42.1310   24.9440   39.6390 C   0  0  0  0  0  0  0  0  0  0  0  0
   40.7470   25.0060   39.5400 C   0  0  0  0  0  0  0  0  0  0  0  0
   39.9870   25.3950   40.6220 C   0  0  0  0  0  0  0  0  0  0  0  0
   40.5320   25.7310   41.8220 C   0  0  0  0  0  0  0  0  0  0  0  0
   39.7800   26.7550   44.8950 H   0  0  0  0  0  0  0  0  0  0  0  0
   42.1840   26.6690   45.0950 H   0  0  0  0  0  0  0  0  0  0  0  0
   43.6130   25.9780   43.2150 H   0  0  0  0  0  0  0  0  0  0  0  0
   43.7540   25.2520   40.9630 H   0  0  0  0  0  0  0  0  0  0  0  0
   42.7880   24.6500   38.8440 H   0  0  0  0  0  0  0  0  0  0  0  0
   40.2870   24.7420   38.5970 H   0  0  0  0  0  0  0  0  0  0  0  0
   38.6220   25.4480   40.4780 O   0  0  0  0  0  0  0  0  0  0  0  0
   38.1710   26.0130   39.7860 H   0  0  0  0  0  0  0  0  0  0  0  0
  1  4  1  1  0  0  0
  1  2  1  0  0  0  0
  2  5  1  0  0  0  0
  2  6  1  0  0  0  0
  3  7  1  6  0  0  0
  3 23  1  0  0  0  0
  3  1  1  0  0  0  0
  3  2  1  0  0  0  0
  8 13  1  0  0  0  0
  9  8  2  0  0  0  0
  9 10  1  0  0  0  0
 10 11  2  0  0  0  0
 11 12  1  0  0  0  0
 12  1  1  0  0  0  0
 13 12  2  0  0  0  0
 14  8  1  0  0  0  0
 15  9  1  0  0  0  0
 16 22  1  0  0  0  0
 16 10  1  0  0  0  0
 17 16  2  0  0  0  0
 18 20  2  0  0  0  0
 18 17  1  0  0  0  0
 19 18  1  0  0  0  0
 20 21  1  0  0  0  0
 21 22  2  0  0  0  0
 23 25  1  0  0  0  0
 23 24  1  0  0  0  0
 25 26  1  0  0  0  0
 26 27  2  0  0  0  0
 26 35  1  0  0  0  0
 27 36  1  0  0  0  0
 28 37  1  0  0  0  0
 28 27  1  0  0  0  0
 29 28  2  0  0  0  0
 30 38  1  0  0  0  0
 30 29  1  0  0  0  0
 31 30  2  0  0  0  0
 32 31  1  0  0  0  0
 32 33  2  0  0  0  0
 33 34  1  0  0  0  0
 34 29  1  0  0  0  0
 34 25  2  0  0  0  0
 39 31  1  0  0  0  0
 40 32  1  0  0  0  0
 41 33  1  0  0  0  0
 42 41  1  0  0  0  0
M  END
>  <minimizedAffinity>
-6.56783056

$$$$

 OpenBabel03242511153D

 42 46  0  0  1  0  0  0  0  0999 V2000
   37.0360   27.4880   42.7910 C   0  0  1  0  0  0  0  0  0  0  0  0
   36.9820   27.9150   44.2320 C   0  0  0  0  0  0  0  0  0  0  0  0
   37.8460   28.6460   43.1670 C   0  0  2  0  0  0  0  0  0  0  0  0
   36.1370   27.6920   42.2120 H   0  0  0  0  0  0  0  0  0  0  0  0
   37.5240   27.2980   44.9740 H   0  0  0  0  0  0  0  0  0  0  0  0
   36.0950   28.4560   44.6150 H   0  0  0  0  0  0  0  0  0  0  0  0
   38.9460   28.5380   43.3100 H   0  0  0  0  0  0  0  0  0  0  0  0
   39.5440   24.7620   42.6990 C   0  0  0  0  0  0  0  0  0  0  0  0
   38.9100   23.8230   41.8110 C   0  0  0  0  0  0  0  0  0  0  0  0
   37.6300   24.1590   41.2710 C   0  0  0  0  0  0  0  0  0  0  0  0
   37.0770   25.3190   41.6060 N   0  0  0  0  0  0  0  0  0  0  0  0
   37.7140   26.1820   42.4520 C   0  0  0  0  0  0  0  0  0  0  0  0
   38.9440   25.9210   43.0060 N   0  0  0  0  0  0  0  0  0  0  0  0
   40.5020   24.5210   43.1090 H   0  0  0  0  0  0  0  0  0  0  0  0
   39.4180   22.9130   41.5900 H   0  0  0  0  0  0  0  0  0  0  0  0
   37.0100   23.1940   40.3780 C   0  0  0  0  0  0  0  0  0  0  0  0
   35.7930   23.4920   39.8290 C   0  0  0  0  0  3  0  0  0  0  0  0
   35.2670   22.5300   38.9910 C   0  0  0  0  0  0  0  0  0  0  0  0
   34.2880   22.7490   38.5390 H   0  0  0  0  0  0  0  0  0  0  0  0
   35.8940   21.3520   38.7100 N   0  0  0  0  0  0  0  0  0  0  0  0
   37.1070   21.1070   39.2860 C   0  0  0  0  0  3  0  0  0  0  0  0
   37.6460   22.0420   40.1160 N   0  0  0  0  0  0  0  0  0  0  0  0
   37.4160   29.9530   42.7800 N   0  0  0  0  0  0  0  0  0  0  0  0
   37.2090   30.4260   43.6800 H   0  0  0  0  0  0  0  0  0  0  0  0
   37.3260   30.3430   41.4370 C   0  0  0  0  0  0  0  0  0  0  0  0
   36.2600   29.9150   40.6810 C   0  0  0  0  0  0  0  0  0  0  0  0
   36.0590   30.3170   39.3670 C   0  0  0  0  0  0  0  0  0  0  0  0
   36.9400   31.1800   38.7560 C   0  0  0  0  0  0  0  0  0  0  0  0
   38.0110   31.6180   39.4910 C   0  0  0  0  0  0  0  0  0  0  0  0
   38.9080   32.4820   38.8970 C   0  0  0  0  0  0  0  0  0  0  0  0
   40.0060   32.9630   39.5520 C   0  0  0  0  0  0  0  0  0  0  0  0
   40.1850   32.5390   40.8630 C   0  0  0  0  0  0  0  0  0  0  0  0
   39.2810   31.6770   41.4460 C   0  0  0  0  0  0  0  0  0  0  0  0
   38.1870   31.2020   40.7910 C   0  0  0  0  0  0  0  0  0  0  0  0
   35.5330   29.2270   41.1260 H   0  0  0  0  0  0  0  0  0  0  0  0
   35.2000   29.9370   38.8430 H   0  0  0  0  0  0  0  0  0  0  0  0
   36.7600   31.4800   37.7300 H   0  0  0  0  0  0  0  0  0  0  0  0
   38.7320   32.7890   37.8700 H   0  0  0  0  0  0  0  0  0  0  0  0
   40.6620   33.6330   39.0320 H   0  0  0  0  0  0  0  0  0  0  0  0
   41.0460   32.9020   41.4070 H   0  0  0  0  0  0  0  0  0  0  0  0
   39.5010   31.2770   42.7420 O   0  0  0  0  0  0  0  0  0  0  0  0
   40.3380   30.8130   43.0330 H   0  0  0  0  0  0  0  0  0  0  0  0
  1  4  1  6  0  0  0
  1  3  1  0  0  0  0
  1  2  1  0  0  0  0
  2  6  1  0  0  0  0
  2  5  1  0  0  0  0
  3  7  1  1  0  0  0
  3  2  1  0  0  0  0
  8 13  1  0  0  0  0
  8 14  1  0  0  0  0
  9  8  2  0  0  0  0
 10 11  2  0  0  0  0
 10  9  1  0  0  0  0
 11 12  1  0  0  0  0
 12  1  1  0  0  0  0
 12 13  2  0  0  0  0
 15  9  1  0  0  0  0
 16 10  1  0  0  0  0
 17 16  2  0  0  0  0
 18 17  1  0  0  0  0
 19 18  1  0  0  0  0
 20 18  2  0  0  0  0
 20 21  1  0  0  0  0
 21 22  2  0  0  0  0
 22 16  1  0  0  0  0
 23  3  1  0  0  0  0
 23 24  1  0  0  0  0
 25 23  1  0  0  0  0
 26 35  1  0  0  0  0
 26 25  2  0  0  0  0
 27 26  1  0  0  0  0
 28 27  2  0  0  0  0
 28 29  1  0  0  0  0
 29 34  1  0  0  0  0
 30 29  2  0  0  0  0
 30 31  1  0  0  0  0
 31 32  2  0  0  0  0
 32 40  1  0  0  0  0
 32 33  1  0  0  0  0
 33 41  1  0  0  0  0
 34 25  1  0  0  0  0
 34 33  2  0  0  0  0
 36 27  1  0  0  0  0
 37 28  1  0  0  0  0
 38 30  1  0  0  0  0
 39 31  1  0  0  0  0
 41 42  1  0  0  0  0
M  END
>  <minimizedAffinity>
-6.48909569

$$$$

 OpenBabel03242511153D

 42 46  0  0  1  0  0  0  0  0999 V2000
   39.5050   28.0920   42.5000 C   0  0  1  0  0  0  0  0  0  0  0  0
   39.5410   27.2580   43.7510 C   0  0  0  0  0  0  0  0  0  0  0  0
   38.3260   28.1470   43.3630 C   0  0  2  0  0  0  0  0  0  0  0  0
   39.4000   27.5320   41.5720 H   0  0  0  0  0  0  0  0  0  0  0  0
   40.1690   27.6140   44.5900 H   0  0  0  0  0  0  0  0  0  0  0  0
   39.3990   26.1620   43.6890 H   0  0  0  0  0  0  0  0  0  0  0  0
   38.1610   29.0230   44.0310 H   0  0  0  0  0  0  0  0  0  0  0  0
   42.4880   30.2610   42.8540 C   0  0  0  0  0  0  0  0  0  0  0  0
   42.0320   31.4740   42.2280 C   0  0  0  0  0  0  0  0  0  0  0  0
   40.7050   31.5060   41.6980 C   0  0  0  0  0  0  0  0  0  0  0  0
   39.9460   30.4220   41.8040 N   0  0  0  0  0  0  0  0  0  0  0  0
   40.4170   29.2900   42.4060 C   0  0  0  0  0  0  0  0  0  0  0  0
   41.6820   29.1920   42.9360 N   0  0  0  0  0  0  0  0  0  0  0  0
   43.4790   30.2250   43.2540 H   0  0  0  0  0  0  0  0  0  0  0  0
   42.7010   32.3020   42.1830 H   0  0  0  0  0  0  0  0  0  0  0  0
   40.2690   32.7430   41.0710 C   0  0  0  0  0  0  0  0  0  0  0  0
   38.9280   32.9690   40.9220 C   0  0  0  0  0  3  0  0  0  0  0  0
   38.5890   34.1630   40.3200 C   0  0  0  0  0  0  0  0  0  0  0  0
   37.5150   34.3650   40.1900 H   0  0  0  0  0  0  0  0  0  0  0  0
   39.5060   35.0770   39.8910 N   0  0  0  0  0  0  0  0  0  0  0  0
   40.8310   34.8000   40.0640 C   0  0  0  0  0  3  0  0  0  0  0  0
   41.1890   33.6270   40.6570 N   0  0  0  0  0  0  0  0  0  0  0  0
   37.1360   27.4640   42.9630 N   0  0  0  0  0  0  0  0  0  0  0  0
   36.5610   27.4320   43.8260 H   0  0  0  0  0  0  0  0  0  0  0  0
   36.9520   26.9860   41.6580 C   0  0  0  0  0  0  0  0  0  0  0  0
   37.2820   25.6830   41.3650 C   0  0  0  0  0  0  0  0  0  0  0  0
   37.0600   25.1120   40.1190 C   0  0  0  0  0  0  0  0  0  0  0  0
   36.4890   25.8450   39.1040 C   0  0  0  0  0  0  0  0  0  0  0  0
   36.1530   27.1470   39.3730 C   0  0  0  0  0  0  0  0  0  0  0  0
   35.5800   27.9010   38.3700 C   0  0  0  0  0  0  0  0  0  0  0  0
   35.2200   29.2060   38.5480 C   0  0  0  0  0  0  0  0  0  0  0  0
   35.4590   29.7530   39.8030 C   0  0  0  0  0  0  0  0  0  0  0  0
   36.0310   28.9900   40.7980 C   0  0  0  0  0  0  0  0  0  0  0  0
   36.3850   27.6890   40.6180 C   0  0  0  0  0  0  0  0  0  0  0  0
   37.7400   25.0620   42.1420 H   0  0  0  0  0  0  0  0  0  0  0  0
   37.3470   24.0870   39.9690 H   0  0  0  0  0  0  0  0  0  0  0  0
   36.3250   25.3770   38.1400 H   0  0  0  0  0  0  0  0  0  0  0  0
   35.4100   27.4360   37.4030 H   0  0  0  0  0  0  0  0  0  0  0  0
   34.7780   29.7340   37.7260 H   0  0  0  0  0  0  0  0  0  0  0  0
   35.1860   30.7860   39.9740 H   0  0  0  0  0  0  0  0  0  0  0  0
   36.2560   29.5730   42.0220 O   0  0  0  0  0  0  0  0  0  0  0  0
   36.8200   30.3910   42.1380 H   0  0  0  0  0  0  0  0  0  0  0  0
  1  4  1  6  0  0  0
  1  3  1  0  0  0  0
  1  2  1  0  0  0  0
  2  5  1  0  0  0  0
  3  2  1  0  0  0  0
  3  7  1  1  0  0  0
  6  2  1  0  0  0  0
  8 13  1  0  0  0  0
  8 14  1  0  0  0  0
  9  8  2  0  0  0  0
 10 11  2  0  0  0  0
 10  9  1  0  0  0  0
 11 12  1  0  0  0  0
 12  1  1  0  0  0  0
 12 13  2  0  0  0  0
 15  9  1  0  0  0  0
 16 10  1  0  0  0  0
 17 16  1  0  0  0  0
 18 17  2  0  0  0  0
 19 18  1  0  0  0  0
 20 21  2  0  0  0  0
 20 18  1  0  0  0  0
 21 22  1  0  0  0  0
 22 16  2  0  0  0  0
 23  3  1  0  0  0  0
 23 24  1  0  0  0  0
 25 23  1  0  0  0  0
 26 25  1  0  0  0  0
 26 35  1  0  0  0  0
 27 26  2  0  0  0  0
 28 29  2  0  0  0  0
 28 27  1  0  0  0  0
 29 34  1  0  0  0  0
 30 31  2  0  0  0  0
 30 29  1  0  0  0  0
 31 32  1  0  0  0  0
 32 40  1  0  0  0  0
 32 33  2  0  0  0  0
 33 41  1  0  0  0  0
 34 33  1  0  0  0  0
 34 25  2  0  0  0  0
 36 27  1  0  0  0  0
 37 28  1  0  0  0  0
 38 30  1  0  0  0  0
 39 31  1  0  0  0  0
 41 42  1  0  0  0  0
M  END
>  <minimizedAffinity>
-6.46491718

$$$$
