
 OpenBabel03252504253D

 19 20  0  0  0  0  0  0  0  0999 V2000
   37.4910   28.3820   43.6800 C   0  0  0  0  0  0  0  0  0  0  0  0
   37.8550   28.6040   44.6820 H   0  0  0  0  0  0  0  0  0  0  0  0
   36.3910   28.3000   43.6070 H   0  0  0  0  0  0  0  0  0  0  0  0
   36.9490   29.8500   41.8050 C   0  0  0  0  0  0  0  0  0  0  0  0
   37.9230   29.4150   42.7240 C   0  0  0  0  0  0  0  0  0  0  0  0
   39.1760   29.9980   42.6370 C   0  0  0  0  0  0  0  0  0  0  0  0
   39.4100   30.9430   41.6890 N   0  0  0  0  0  0  0  0  0  0  0  0
   38.4430   31.3260   40.8310 C   0  0  0  0  0  0  0  0  0  0  0  0
   37.1980   30.7870   40.8730 N   0  0  0  0  0  0  0  0  0  0  0  0
   35.9390   29.4580   41.7890 H   0  0  0  0  0  0  0  0  0  0  0  0
   39.8900   29.6460   43.3480 H   0  0  0  0  0  0  0  0  0  0  0  0
   38.6390   32.0840   40.0760 H   0  0  0  0  0  0  0  0  0  0  0  0
   38.0660   27.0610   43.2700 C   0  0  0  0  0  0  0  0  0  0  0  0
   37.3260   26.2200   42.4480 C   0  0  0  0  0  3  0  0  0  0  0  0
   37.9060   25.0090   42.0990 C   0  0  0  0  0  0  0  0  0  0  0  0
   37.3180   24.3620   41.4570 H   0  0  0  0  0  0  0  0  0  0  0  0
   39.1270   24.6700   42.5410 N   0  0  0  0  0  0  0  0  0  0  0  0
   39.8360   25.4950   43.3410 C   0  0  0  0  0  3  0  0  0  0  0  0
   39.2900   26.6580   43.6800 N   0  0  0  0  0  0  0  0  0  0  0  0
  1  2  1  0  0  0  0
  3  1  1  0  0  0  0
  4  5  1  0  0  0  0
  5  1  1  0  0  0  0
  6  5  2  0  0  0  0
  6 11  1  0  0  0  0
  7  6  1  0  0  0  0
  8  9  1  0  0  0  0
  8  7  2  0  0  0  0
  9  4  2  0  0  0  0
 10  4  1  0  0  0  0
 12  8  1  0  0  0  0
 13  1  1  0  0  0  0
 13 19  1  0  0  0  0
 14 13  2  0  0  0  0
 15 14  1  0  0  0  0
 15 17  2  0  0  0  0
 16 15  1  0  0  0  0
 17 18  1  0  0  0  0
 18 19  2  0  0  0  0
M  END
>  <minimizedAffinity>
-3.95613718

$$$$

 OpenBabel03252504253D

 19 20  0  0  0  0  0  0  0  0999 V2000
   35.4590   28.9320   40.7570 C   0  0  0  0  0  0  0  0  0  0  0  0
   34.7210   29.2390   41.4970 H   0  0  0  0  0  0  0  0  0  0  0  0
   35.0420   28.3350   39.9250 H   0  0  0  0  0  0  0  0  0  0  0  0
   36.3800   30.0410   38.7860 C   0  0  0  0  0  0  0  0  0  0  0  0
   36.1330   30.1020   40.1710 C   0  0  0  0  0  0  0  0  0  0  0  0
   36.5440   31.2460   40.8340 C   0  0  0  0  0  0  0  0  0  0  0  0
   37.1560   32.2390   40.1380 N   0  0  0  0  0  0  0  0  0  0  0  0
   37.3700   32.1330   38.8120 C   0  0  0  0  0  0  0  0  0  0  0  0
   36.9870   31.0340   38.1130 N   0  0  0  0  0  0  0  0  0  0  0  0
   36.0980   29.1910   38.1750 H   0  0  0  0  0  0  0  0  0  0  0  0
   36.3410   31.2590   41.8820 H   0  0  0  0  0  0  0  0  0  0  0  0
   37.8610   32.9330   38.2630 H   0  0  0  0  0  0  0  0  0  0  0  0
   36.4730   28.0770   41.4550 C   0  0  0  0  0  0  0  0  0  0  0  0
   36.9630   26.9440   40.8190 C   0  0  0  0  0  3  0  0  0  0  0  0
   37.9000   26.1880   41.5100 C   0  0  0  0  0  0  0  0  0  0  0  0
   38.2740   25.3050   41.0030 H   0  0  0  0  0  0  0  0  0  0  0  0
   38.3100   26.5430   42.7380 N   0  0  0  0  0  0  0  0  0  0  0  0
   37.8250   27.6470   43.3450 C   0  0  0  0  0  3  0  0  0  0  0  0
   36.9280   28.3770   42.6920 N   0  0  0  0  0  0  0  0  0  0  0  0
  1 13  1  0  0  0  0
  1  2  1  0  0  0  0
  3  1  1  0  0  0  0
  4  5  1  0  0  0  0
  5  1  1  0  0  0  0
  5  6  2  0  0  0  0
  6 11  1  0  0  0  0
  7  6  1  0  0  0  0
  8  7  2  0  0  0  0
  9  4  2  0  0  0  0
  9  8  1  0  0  0  0
 10  4  1  0  0  0  0
 12  8  1  0  0  0  0
 13 19  1  0  0  0  0
 14 13  2  0  0  0  0
 14 15  1  0  0  0  0
 15 17  2  0  0  0  0
 16 15  1  0  0  0  0
 17 18  1  0  0  0  0
 19 18  2  0  0  0  0
M  END
>  <minimizedAffinity>
-3.91491294

$$$$

 OpenBabel03252504253D

 19 20  0  0  0  0  0  0  0  0999 V2000
   37.6860   28.3330   43.6790 C   0  0  0  0  0  0  0  0  0  0  0  0
   36.6100   28.1960   43.7730 H   0  0  0  0  0  0  0  0  0  0  0  0
   38.1820   28.6650   44.6110 H   0  0  0  0  0  0  0  0  0  0  0  0
   37.6360   26.3200   42.2990 C   0  0  0  0  0  0  0  0  0  0  0  0
   38.3380   27.0850   43.2490 C   0  0  0  0  0  0  0  0  0  0  0  0
   39.5590   26.5920   43.6780 C   0  0  0  0  0  0  0  0  0  0  0  0
   40.0180   25.4160   43.1760 N   0  0  0  0  0  0  0  0  0  0  0  0
   39.3080   24.7190   42.2670 C   0  0  0  0  0  0  0  0  0  0  0  0
   38.1060   25.1580   41.8130 N   0  0  0  0  0  0  0  0  0  0  0  0
   36.6730   26.6170   41.8990 H   0  0  0  0  0  0  0  0  0  0  0  0
   40.0650   27.1970   44.3980 H   0  0  0  0  0  0  0  0  0  0  0  0
   39.6830   23.7790   41.8710 H   0  0  0  0  0  0  0  0  0  0  0  0
   37.9210   29.3930   42.6460 C   0  0  0  0  0  0  0  0  0  0  0  0
   39.1740   29.9840   42.5480 C   0  0  0  0  0  3  0  0  0  0  0  0
   39.3370   30.9590   41.5750 C   0  0  0  0  0  0  0  0  0  0  0  0
   40.3210   31.4130   41.5080 H   0  0  0  0  0  0  0  0  0  0  0  0
   38.3240   31.3130   40.7680 N   0  0  0  0  0  0  0  0  0  0  0  0
   37.1100   30.7320   40.8750 C   0  0  0  0  0  3  0  0  0  0  0  0
   36.9440   29.7960   41.8030 N   0  0  0  0  0  0  0  0  0  0  0  0
  1  2  1  0  0  0  0
  1  3  1  0  0  0  0
  4  5  1  0  0  0  0
  5  6  2  0  0  0  0
  5  1  1  0  0  0  0
  6 11  1  0  0  0  0
  7  6  1  0  0  0  0
  8  7  2  0  0  0  0
  9  8  1  0  0  0  0
  9  4  2  0  0  0  0
 10  4  1  0  0  0  0
 12  8  1  0  0  0  0
 13  1  1  0  0  0  0
 14 13  1  0  0  0  0
 15 14  2  0  0  0  0
 16 15  1  0  0  0  0
 17 18  2  0  0  0  0
 17 15  1  0  0  0  0
 18 19  1  0  0  0  0
 19 13  2  0  0  0  0
M  END
>  <minimizedAffinity>
-3.86487842

$$$$

 OpenBabel03252504253D

 19 20  0  0  0  0  0  0  0  0999 V2000
   35.5090   29.1740   40.7470 C   0  0  0  0  0  0  0  0  0  0  0  0
   34.9400   28.6290   39.9950 H   0  0  0  0  0  0  0  0  0  0  0  0
   34.8870   29.6370   41.5360 H   0  0  0  0  0  0  0  0  0  0  0  0
   36.8020   27.1030   40.7250 C   0  0  0  0  0  0  0  0  0  0  0  0
   36.4830   28.2920   41.4090 C   0  0  0  0  0  0  0  0  0  0  0  0
   37.1120   28.5080   42.6240 C   0  0  0  0  0  0  0  0  0  0  0  0
   37.9910   27.5850   43.0960 N   0  0  0  0  0  0  0  0  0  0  0  0
   38.2630   26.4620   42.4020 C   0  0  0  0  0  0  0  0  0  0  0  0
   37.6740   26.2010   41.2070 N   0  0  0  0  0  0  0  0  0  0  0  0
   36.3650   26.8400   39.7690 H   0  0  0  0  0  0  0  0  0  0  0  0
   36.8480   29.4180   43.1150 H   0  0  0  0  0  0  0  0  0  0  0  0
   38.9680   25.7290   42.7870 H   0  0  0  0  0  0  0  0  0  0  0  0
   36.2400   30.2800   40.0490 C   0  0  0  0  0  0  0  0  0  0  0  0
   36.5000   30.1740   38.6890 C   0  0  0  0  0  3  0  0  0  0  0  0
   37.1810   31.2250   38.0920 C   0  0  0  0  0  0  0  0  0  0  0  0
   37.3780   31.1300   37.0300 H   0  0  0  0  0  0  0  0  0  0  0  0
   37.5690   32.2950   38.8040 N   0  0  0  0  0  0  0  0  0  0  0  0
   37.3100   32.3870   40.1260 C   0  0  0  0  0  3  0  0  0  0  0  0
   36.6590   31.3850   40.7060 N   0  0  0  0  0  0  0  0  0  0  0  0
  1  5  1  0  0  0  0
  1  3  1  0  0  0  0
  2  1  1  0  0  0  0
  4  9  2  0  0  0  0
  4  5  1  0  0  0  0
  5  6  2  0  0  0  0
  6  7  1  0  0  0  0
  6 11  1  0  0  0  0
  8 12  1  0  0  0  0
  8  7  2  0  0  0  0
  9  8  1  0  0  0  0
 10  4  1  0  0  0  0
 13 19  1  0  0  0  0
 13  1  1  0  0  0  0
 14 13  2  0  0  0  0
 15 14  1  0  0  0  0
 15 17  2  0  0  0  0
 16 15  1  0  0  0  0
 17 18  1  0  0  0  0
 18 19  2  0  0  0  0
M  END
>  <minimizedAffinity>
-3.84439683

$$$$

 OpenBabel03252504253D

 19 20  0  0  0  0  0  0  0  0999 V2000
   37.7000   28.4710   43.6800 C   0  0  0  0  0  0  0  0  0  0  0  0
   38.2990   28.7860   44.5330 H   0  0  0  0  0  0  0  0  0  0  0  0
   36.6190   28.3840   43.8950 H   0  0  0  0  0  0  0  0  0  0  0  0
   39.1100   30.0360   42.4460 C   0  0  0  0  0  0  0  0  0  0  0  0
   37.8550   29.4080   42.5550 C   0  0  0  0  0  0  0  0  0  0  0  0
   36.9040   29.7300   41.6010 C   0  0  0  0  0  0  0  0  0  0  0  0
   37.2130   30.6220   40.6230 N   0  0  0  0  0  0  0  0  0  0  0  0
   38.4300   31.1970   40.5620 C   0  0  0  0  0  0  0  0  0  0  0  0
   39.3990   30.9160   41.4710 N   0  0  0  0  0  0  0  0  0  0  0  0
   39.9220   29.8530   43.1400 H   0  0  0  0  0  0  0  0  0  0  0  0
   35.9650   29.2360   41.7140 H   0  0  0  0  0  0  0  0  0  0  0  0
   38.6690   31.9090   39.7760 H   0  0  0  0  0  0  0  0  0  0  0  0
   38.1830   27.1150   43.2620 C   0  0  0  0  0  0  0  0  0  0  0  0
   39.4340   26.6790   43.6800 C   0  0  0  0  0  3  0  0  0  0  0  0
   39.8330   25.4160   43.2650 C   0  0  0  0  0  0  0  0  0  0  0  0
   40.8120   25.0880   43.5970 H   0  0  0  0  0  0  0  0  0  0  0  0
   39.0400   24.6560   42.4940 N   0  0  0  0  0  0  0  0  0  0  0  0
   37.8260   25.0910   42.0940 C   0  0  0  0  0  3  0  0  0  0  0  0
   37.4360   26.2990   42.4870 N   0  0  0  0  0  0  0  0  0  0  0  0
  1  3  1  0  0  0  0
  1  2  1  0  0  0  0
  4  5  1  0  0  0  0
  4 10  1  0  0  0  0
  5  1  1  0  0  0  0
  6 11  1  0  0  0  0
  6  5  2  0  0  0  0
  7  6  1  0  0  0  0
  8  7  2  0  0  0  0
  8  9  1  0  0  0  0
  9  4  2  0  0  0  0
 12  8  1  0  0  0  0
 13 14  1  0  0  0  0
 13  1  1  0  0  0  0
 15 16  1  0  0  0  0
 15 14  2  0  0  0  0
 17 15  1  0  0  0  0
 18 19  1  0  0  0  0
 18 17  2  0  0  0  0
 19 13  2  0  0  0  0
M  END
>  <minimizedAffinity>
-3.83107948

$$$$

 OpenBabel03252504253D

 19 20  0  0  0  0  0  0  0  0999 V2000
   36.8130   27.0830   43.0600 C   0  0  0  0  0  0  0  0  0  0  0  0
   37.3510   27.2340   43.9960 H   0  0  0  0  0  0  0  0  0  0  0  0
   35.7650   26.7580   43.1910 H   0  0  0  0  0  0  0  0  0  0  0  0
   35.8690   28.3540   41.2020 C   0  0  0  0  0  0  0  0  0  0  0  0
   36.8000   28.3170   42.2580 C   0  0  0  0  0  0  0  0  0  0  0  0
   37.6000   29.4340   42.4330 C   0  0  0  0  0  0  0  0  0  0  0  0
   37.4580   30.4960   41.5970 N   0  0  0  0  0  0  0  0  0  0  0  0
   36.5510   30.4830   40.5990 C   0  0  0  0  0  0  0  0  0  0  0  0
   35.7430   29.4140   40.3840 N   0  0  0  0  0  0  0  0  0  0  0  0
   35.1980   27.5330   40.9800 H   0  0  0  0  0  0  0  0  0  0  0  0
   38.2930   29.3720   43.2420 H   0  0  0  0  0  0  0  0  0  0  0  0
   36.4450   31.3370   39.9350 H   0  0  0  0  0  0  0  0  0  0  0  0
   37.5240   26.0060   42.2970 C   0  0  0  0  0  0  0  0  0  0  0  0
   36.9000   24.7800   42.1090 C   0  0  0  0  0  3  0  0  0  0  0  0
   37.6020   23.8180   41.3960 C   0  0  0  0  0  0  0  0  0  0  0  0
   37.1040   22.8640   41.2560 H   0  0  0  0  0  0  0  0  0  0  0  0
   38.8290   24.0690   40.9120 N   0  0  0  0  0  0  0  0  0  0  0  0
   39.4240   25.2660   41.1030 C   0  0  0  0  0  3  0  0  0  0  0  0
   38.7600   26.1930   41.7840 N   0  0  0  0  0  0  0  0  0  0  0  0
  1  3  1  0  0  0  0
  1  2  1  0  0  0  0
  4  5  1  0  0  0  0
  5  6  2  0  0  0  0
  5  1  1  0  0  0  0
  6 11  1  0  0  0  0
  7  6  1  0  0  0  0
  8  7  2  0  0  0  0
  9  8  1  0  0  0  0
  9  4  2  0  0  0  0
 10  4  1  0  0  0  0
 12  8  1  0  0  0  0
 13  1  1  0  0  0  0
 14 13  1  0  0  0  0
 15 14  2  0  0  0  0
 16 15  1  0  0  0  0
 17 18  2  0  0  0  0
 17 15  1  0  0  0  0
 18 19  1  0  0  0  0
 19 13  2  0  0  0  0
M  END
>  <minimizedAffinity>
-3.82659864

$$$$

 OpenBabel03252504253D

 19 20  0  0  0  0  0  0  0  0999 V2000
   36.1780   30.6420   41.0870 C   0  0  0  0  0  0  0  0  0  0  0  0
   36.3790   31.5810   41.6000 H   0  0  0  0  0  0  0  0  0  0  0  0
   35.1130   30.3430   41.0950 H   0  0  0  0  0  0  0  0  0  0  0  0
   37.1950   31.9220   39.2740 C   0  0  0  0  0  0  0  0  0  0  0  0
   36.6100   30.7080   39.6810 C   0  0  0  0  0  0  0  0  0  0  0  0
   36.5020   29.7090   38.7280 C   0  0  0  0  0  0  0  0  0  0  0  0
   36.9530   29.9370   37.4670 N   0  0  0  0  0  0  0  0  0  0  0  0
   37.5060   31.1170   37.1250 C   0  0  0  0  0  0  0  0  0  0  0  0
   37.6360   32.1300   38.0210 N   0  0  0  0  0  0  0  0  0  0  0  0
   37.3260   32.7660   39.9420 H   0  0  0  0  0  0  0  0  0  0  0  0
   36.0540   28.8030   39.0710 H   0  0  0  0  0  0  0  0  0  0  0  0
   37.8650   31.2900   36.1140 H   0  0  0  0  0  0  0  0  0  0  0  0
   36.9500   29.5660   41.7900 C   0  0  0  0  0  0  0  0  0  0  0  0
   38.2330   29.8360   42.2460 C   0  0  0  0  0  3  0  0  0  0  0  0
   38.9040   28.8060   42.8900 C   0  0  0  0  0  0  0  0  0  0  0  0
   39.9060   29.0290   43.2410 H   0  0  0  0  0  0  0  0  0  0  0  0
   38.3310   27.6040   43.0600 N   0  0  0  0  0  0  0  0  0  0  0  0
   37.0830   27.3540   42.6100 C   0  0  0  0  0  3  0  0  0  0  0  0
   36.4320   28.3340   41.9930 N   0  0  0  0  0  0  0  0  0  0  0  0
  1  3  1  0  0  0  0
  1  2  1  0  0  0  0
  1 13  1  0  0  0  0
  4  5  1  0  0  0  0
  4 10  1  0  0  0  0
  5  1  1  0  0  0  0
  6 11  1  0  0  0  0
  6  5  2  0  0  0  0
  7  6  1  0  0  0  0
  8  7  2  0  0  0  0
  8  9  1  0  0  0  0
  9  4  2  0  0  0  0
 12  8  1  0  0  0  0
 13 19  2  0  0  0  0
 13 14  1  0  0  0  0
 14 15  2  0  0  0  0
 15 17  1  0  0  0  0
 15 16  1  0  0  0  0
 18 17  2  0  0  0  0
 19 18  1  0  0  0  0
M  END
>  <minimizedAffinity>
-3.75973892

$$$$

 OpenBabel03252504253D

 19 20  0  0  0  0  0  0  0  0999 V2000
   37.4010   28.0840   43.0350 C   0  0  0  0  0  0  0  0  0  0  0  0
   36.4380   27.9830   43.5330 H   0  0  0  0  0  0  0  0  0  0  0  0
   38.0840   28.8100   43.5140 H   0  0  0  0  0  0  0  0  0  0  0  0
   39.3360   26.7250   43.6470 C   0  0  0  0  0  0  0  0  0  0  0  0
   38.1000   26.7890   42.9760 C   0  0  0  0  0  0  0  0  0  0  0  0
   37.6700   25.6390   42.3350 C   0  0  0  0  0  0  0  0  0  0  0  0
   38.4420   24.5210   42.3790 N   0  0  0  0  0  0  0  0  0  0  0  0
   39.6190   24.5100   43.0350 C   0  0  0  0  0  0  0  0  0  0  0  0
   40.0860   25.6100   43.6800 N   0  0  0  0  0  0  0  0  0  0  0  0
   39.7610   27.5690   44.1790 H   0  0  0  0  0  0  0  0  0  0  0  0
   36.7300   25.7220   41.8370 H   0  0  0  0  0  0  0  0  0  0  0  0
   40.2300   23.6120   43.0650 H   0  0  0  0  0  0  0  0  0  0  0  0
   37.1420   28.5670   41.6400 C   0  0  0  0  0  0  0  0  0  0  0  0
   35.8320   28.7240   41.2060 C   0  0  0  0  0  3  0  0  0  0  0  0
   35.6480   29.1740   39.9070 C   0  0  0  0  0  0  0  0  0  0  0  0
   34.6200   29.2920   39.5790 H   0  0  0  0  0  0  0  0  0  0  0  0
   36.6940   29.4440   39.1090 N   0  0  0  0  0  0  0  0  0  0  0  0
   37.9630   29.2870   39.5440 C   0  0  0  0  0  3  0  0  0  0  0  0
   38.1490   28.8570   40.7870 N   0  0  0  0  0  0  0  0  0  0  0  0
  1  3  1  0  0  0  0
  1  2  1  0  0  0  0
  4  9  1  0  0  0  0
  4 10  1  0  0  0  0
  5  1  1  0  0  0  0
  5  4  2  0  0  0  0
  6  7  2  0  0  0  0
  6  5  1  0  0  0  0
  7  8  1  0  0  0  0
  8 12  1  0  0  0  0
  8  9  2  0  0  0  0
 11  6  1  0  0  0  0
 13  1  1  0  0  0  0
 14 13  1  0  0  0  0
 15 14  2  0  0  0  0
 16 15  1  0  0  0  0
 17 18  2  0  0  0  0
 17 15  1  0  0  0  0
 18 19  1  0  0  0  0
 19 13  2  0  0  0  0
M  END
>  <minimizedAffinity>
-3.65292978

$$$$

 OpenBabel03252504253D

 19 20  0  0  0  0  0  0  0  0999 V2000
   38.0600   28.5030   43.4200 C   0  0  0  0  0  0  0  0  0  0  0  0
   38.8610   28.4610   44.1570 H   0  0  0  0  0  0  0  0  0  0  0  0
   37.0460   28.5520   43.8580 H   0  0  0  0  0  0  0  0  0  0  0  0
   37.1160   29.9790   41.7190 C   0  0  0  0  0  0  0  0  0  0  0  0
   38.2190   29.6700   42.5370 C   0  0  0  0  0  0  0  0  0  0  0  0
   39.3310   30.4890   42.4310 C   0  0  0  0  0  0  0  0  0  0  0  0
   39.3130   31.5310   41.5590 N   0  0  0  0  0  0  0  0  0  0  0  0
   38.2310   31.7860   40.7970 C   0  0  0  0  0  0  0  0  0  0  0  0
   37.1150   31.0150   40.8620 N   0  0  0  0  0  0  0  0  0  0  0  0
   36.1980   29.4020   41.7270 H   0  0  0  0  0  0  0  0  0  0  0  0
   40.1490   30.2270   43.0650 H   0  0  0  0  0  0  0  0  0  0  0  0
   38.2250   32.6220   40.1020 H   0  0  0  0  0  0  0  0  0  0  0  0
   38.1320   27.2510   42.5990 C   0  0  0  0  0  0  0  0  0  0  0  0
   37.0520   26.3780   42.5920 C   0  0  0  0  0  3  0  0  0  0  0  0
   37.1710   25.2340   41.8160 C   0  0  0  0  0  0  0  0  0  0  0  0
   36.3210   24.5600   41.8180 H   0  0  0  0  0  0  0  0  0  0  0  0
   38.2840   24.9880   41.1060 N   0  0  0  0  0  0  0  0  0  0  0  0
   39.3280   25.8450   41.1230 C   0  0  0  0  0  3  0  0  0  0  0  0
   39.2230   26.9430   41.8630 N   0  0  0  0  0  0  0  0  0  0  0  0
  1  3  1  0  0  0  0
  1  2  1  0  0  0  0
  4 10  1  0  0  0  0
  4  5  1  0  0  0  0
  5  1  1  0  0  0  0
  6  5  2  0  0  0  0
  6 11  1  0  0  0  0
  7  6  1  0  0  0  0
  8  9  1  0  0  0  0
  8  7  2  0  0  0  0
  9  4  2  0  0  0  0
 12  8  1  0  0  0  0
 13  1  1  0  0  0  0
 14 13  1  0  0  0  0
 15 16  1  0  0  0  0
 15 14  2  0  0  0  0
 17 18  2  0  0  0  0
 17 15  1  0  0  0  0
 18 19  1  0  0  0  0
 19 13  2  0  0  0  0
M  END
>  <minimizedAffinity>
-3.65198731

$$$$
