
 OpenBabel03252504283D

 25 26  0  0  0  0  0  0  0  0999 V2000
   43.7760   35.3350   40.8640 O   0  0  0  0  0  0  0  0  0  0  0  0
   44.5070   34.2810   41.3480 C   0  0  0  0  0  0  0  0  0  0  0  0
   45.5360   34.3660   40.8430 H   0  0  0  0  0  0  0  0  0  0  0  0
   44.1240   33.2910   41.0610 H   0  0  0  0  0  0  0  0  0  0  0  0
   44.4030   35.5220   43.3780 C   0  0  0  0  0  0  0  0  0  0  0  0
   44.7380   34.2870   42.8060 C   0  0  0  0  0  0  0  0  0  0  0  0
   45.2260   33.3170   43.6340 C   0  0  0  0  0  0  0  0  0  0  0  0
   45.3500   33.6240   44.9370 N   0  0  0  0  0  0  0  0  0  0  0  0
   45.0330   34.7950   45.4750 C   0  0  0  0  0  0  0  0  0  0  0  0
   44.5300   35.8290   44.7010 N   0  0  0  0  0  0  0  0  0  0  0  0
   44.0010   36.3910   42.8380 H   0  0  0  0  0  0  0  0  0  0  0  0
   45.4570   32.3980   43.1150 H   0  0  0  0  0  0  0  0  0  0  0  0
   45.1630   34.9600   46.5310 H   0  0  0  0  0  0  0  0  0  0  0  0
   42.5310   35.3050   40.2650 C   0  0  0  0  0  0  0  0  0  0  0  0
   41.4830   35.7850   40.9560 C   0  0  0  0  0  0  0  0  0  0  0  0
   40.0530   35.8720   40.4750 C   0  0  0  0  0  0  0  0  0  0  0  0
   39.4480   36.4810   41.1760 H   0  0  0  0  0  0  0  0  0  0  0  0
   40.0910   36.4110   39.5030 H   0  0  0  0  0  0  0  0  0  0  0  0
   39.4800   34.5270   40.2160 C   0  0  0  0  0  0  0  0  0  0  0  0
   38.9570   34.1510   38.9770 C   0  0  0  0  0  0  0  0  0  0  0  0
   38.4350   32.8890   38.7800 C   0  0  0  0  0  0  0  0  0  0  0  0
   38.0300   32.5920   37.8240 H   0  0  0  0  0  0  0  0  0  0  0  0
   38.4310   32.0130   39.8020 N   0  0  0  0  0  0  0  0  0  0  0  0
   38.9390   32.3730   41.0180 C   0  0  0  0  0  0  0  0  0  0  0  0
   39.4480   33.6050   41.2070 N   0  0  0  0  0  0  0  0  0  0  0  0
  1  2  1  0  0  0  0
  2  6  1  0  0  0  0
  3  2  1  0  0  0  0
  4  2  1  0  0  0  0
  5 10  1  0  0  0  0
  6  5  2  0  0  0  0
  6  7  1  0  0  0  0
  7  8  2  0  0  0  0
  8  9  1  0  0  0  0
  9 13  1  0  0  0  0
 10  9  2  0  0  0  0
 11  5  1  0  0  0  0
 12  7  1  0  0  0  0
 14  1  1  0  0  0  0
 14 15  2  0  0  0  0
 16 15  1  0  0  0  0
 16 17  1  0  0  0  0
 18 16  1  0  0  0  0
 19 16  1  0  0  0  0
 19 25  1  0  0  0  0
 20 19  2  0  0  0  0
 21 20  1  0  0  0  0
 21 23  2  0  0  0  0
 22 21  1  0  0  0  0
 23 24  1  0  0  0  0
 24 25  2  0  0  0  0
M  END
>  <minimizedAffinity>
-4.7794981

>  <minimizedRMSD>
1.49193275

$$$$
