
 OpenBabel03252506423D

 38 41  0  0  1  0  0  0  0  0999 V2000
   49.3920   33.3260   41.4640 N   0  0  1  0  0  0  0  0  0  0  0  0
   50.6920   33.1470   42.1140 C   0  0  0  0  0  0  0  0  0  0  0  0
   51.3260   31.8390   41.7610 C   0  0  0  0  0  0  0  0  0  0  0  0
   50.5200   30.7400   42.4100 C   0  0  0  0  0  0  0  0  0  0  0  0
   49.0440   31.0420   42.3690 C   0  0  0  0  0  0  0  0  0  0  0  0
   48.7770   32.0360   41.2580 C   0  0  2  0  0  0  0  0  0  0  0  0
   51.3370   33.9530   41.6640 H   0  0  0  0  0  0  0  0  0  0  0  0
   50.6680   33.3110   43.1930 H   0  0  0  0  0  0  0  0  0  0  0  0
   52.3380   31.8450   42.2140 H   0  0  0  0  0  0  0  0  0  0  0  0
   51.4250   31.7140   40.6820 H   0  0  0  0  0  0  0  0  0  0  0  0
   50.8750   30.6820   43.4780 H   0  0  0  0  0  0  0  0  0  0  0  0
   50.7960   29.7700   41.9720 H   0  0  0  0  0  0  0  0  0  0  0  0
   48.7570   31.5210   43.3140 H   0  0  0  0  0  0  0  0  0  0  0  0
   48.4890   30.1340   42.1110 H   0  0  0  0  0  0  0  0  0  0  0  0
   47.6660   32.2310   41.3330 H   0  0  0  0  0  0  0  0  0  0  0  0
   47.2280   34.6190   41.9970 C   0  0  1  0  0  0  0  0  0  0  0  0
   48.3440   35.5480   41.7500 C   0  0  0  0  0  0  0  0  0  0  0  0
   48.6340   34.1970   42.2940 C   0  0  2  0  0  0  0  0  0  0  0  0
   46.7590   34.1740   41.1050 H   0  0  0  0  0  0  0  0  0  0  0  0
   48.6060   35.8000   40.7040 H   0  0  0  0  0  0  0  0  0  0  0  0
   48.4360   36.4020   42.4550 H   0  0  0  0  0  0  0  0  0  0  0  0
   48.8640   34.0870   43.3790 H   0  0  0  0  0  0  0  0  0  0  0  0
   45.5120   36.0410   43.1660 C   0  0  0  0  0  0  0  0  0  0  0  0
   46.3050   34.8730   43.1430 C   0  0  0  0  0  0  0  0  0  0  0  0
   46.1980   33.9670   44.2120 C   0  0  0  0  0  0  0  0  0  0  0  0
   45.3330   34.2650   45.2180 N   0  0  0  0  0  0  0  0  0  0  0  0
   44.5830   35.4010   45.2100 C   0  0  0  0  0  0  0  0  0  0  0  0
   44.6670   36.2980   44.1830 N   0  0  0  0  0  0  0  0  0  0  0  0
   45.6450   36.6900   42.3150 H   0  0  0  0  0  0  0  0  0  0  0  0
   46.7960   33.0720   44.2100 H   0  0  0  0  0  0  0  0  0  0  0  0
   43.9180   35.5510   46.0620 H   0  0  0  0  0  0  0  0  0  0  0  0
   48.9910   31.4660   39.9200 C   0  0  0  0  0  0  0  0  0  0  0  0
   49.1180   32.4300   38.9120 C   0  0  0  0  0  0  0  0  0  0  0  0
   49.3230   31.9620   37.6100 C   0  0  0  0  0  0  0  0  0  0  0  0
   49.4280   32.6760   36.8000 H   0  0  0  0  0  0  0  0  0  0  0  0
   49.4060   30.6500   37.2750 N   0  0  0  0  0  0  0  0  0  0  0  0
   49.2730   29.7860   38.3000 C   0  0  0  0  0  0  0  0  0  0  0  0
   49.0730   30.1510   39.5800 N   0  0  0  0  0  0  0  0  0  0  0  0
  1  2  1  1  0  0  0
  1 18  1  0  0  0  0
  2  8  1  0  0  0  0
  3  2  1  0  0  0  0
  3  9  1  0  0  0  0
  3  4  1  0  0  0  0
  4 11  1  0  0  0  0
  5  4  1  0  0  0  0
  5 13  1  0  0  0  0
  6 15  1  1  0  0  0
  6  1  1  0  0  0  0
  6  5  1  0  0  0  0
  7  2  1  0  0  0  0
 10  3  1  0  0  0  0
 12  4  1  0  0  0  0
 14  5  1  0  0  0  0
 16 19  1  6  0  0  0
 16 18  1  0  0  0  0
 16 24  1  0  0  0  0
 17 16  1  0  0  0  0
 17 18  1  0  0  0  0
 17 21  1  0  0  0  0
 18 22  1  1  0  0  0
 20 17  1  0  0  0  0
 23 28  1  0  0  0  0
 24 23  2  0  0  0  0
 24 25  1  0  0  0  0
 25 26  2  0  0  0  0
 27 26  1  0  0  0  0
 27 31  1  0  0  0  0
 28 27  2  0  0  0  0
 29 23  1  0  0  0  0
 30 25  1  0  0  0  0
 32  6  1  0  0  0  0
 33 32  2  0  0  0  0
 34 33  1  0  0  0  0
 35 34  1  0  0  0  0
 36 34  2  0  0  0  0
 36 37  1  0  0  0  0
 37 38  2  0  0  0  0
 38 32  1  0  0  0  0
M  END
>  <minimizedAffinity>
-4.89017105

>  <minimizedRMSD>
0.517472923

$$$$
