
 OpenBabel03242514593D

 35 37  0  0  0  0  0  0  0  0999 V2000
   43.5050   34.9440   40.7500 S   0  0  0  0  0  0  0  0  0  0  0  0
   44.7680   34.6930   41.9910 C   0  0  0  0  0  0  0  0  0  0  0  0
   46.0850   34.5730   41.5300 C   0  0  0  0  0  0  0  0  0  0  0  0
   47.0970   34.3750   42.4640 C   0  0  0  0  0  0  0  0  0  0  0  0
   46.7580   34.3070   43.7910 N   0  0  0  0  0  0  0  0  0  0  0  0
   45.4980   34.4240   44.2010 C   0  0  0  0  0  0  0  0  0  0  0  0
   44.5140   34.6140   43.3150 N   0  0  0  0  0  0  0  0  0  0  0  0
   46.4130   34.6180   40.5010 H   0  0  0  0  0  0  0  0  0  0  0  0
   48.1370   34.2730   42.1930 H   0  0  0  0  0  0  0  0  0  0  0  0
   45.2150   34.3420   45.6210 C   0  0  0  0  0  0  0  0  0  0  0  0
   44.5230   35.2490   46.1510 O   0  0  0  0  0  0  0  0  0  0  0  0
   45.7250   33.2270   46.4130 C   0  0  0  0  0  0  0  0  0  0  0  0
   46.7350   32.4280   45.9210 C   0  0  0  0  0  0  0  0  0  0  0  0
   47.1980   31.3710   46.7060 C   0  0  0  0  0  0  0  0  0  0  0  0
   48.0000   30.7140   46.3500 H   0  0  0  0  0  0  0  0  0  0  0  0
   46.6310   31.1800   47.9150 N   0  0  0  0  0  0  0  0  0  0  0  0
   45.6470   31.9530   48.4000 C   0  0  0  0  0  0  0  0  0  0  0  0
   45.2080   32.9780   47.6220 N   0  0  0  0  0  0  0  0  0  0  0  0
   41.8590   35.0700   41.4570 C   0  0  0  0  0  0  0  0  0  0  0  0
   41.9230   35.4840   42.4940 H   0  0  0  0  0  0  0  0  0  0  0  0
   41.3630   34.0660   41.5670 H   0  0  0  0  0  0  0  0  0  0  0  0
   40.9490   35.9710   40.6900 C   0  0  0  0  0  0  0  0  0  0  0  0
   40.2420   36.5210   41.3660 H   0  0  0  0  0  0  0  0  0  0  0  0
   41.5820   36.7250   40.1640 H   0  0  0  0  0  0  0  0  0  0  0  0
   41.7860   36.2430   37.7710 Cl  0  0  0  0  0  0  0  0  0  0  0  0
   40.4580   35.2820   38.3180 C   0  0  0  0  0  0  0  0  0  0  0  0
   40.1480   35.2210   39.6920 C   0  0  0  0  0  0  0  0  0  0  0  0
   39.0830   34.4410   40.0500 C   0  0  0  0  0  0  0  0  0  0  0  0
   38.2710   33.6990   39.1890 C   0  0  0  0  0  0  0  0  0  0  0  0
   38.5980   33.7780   37.8410 C   0  0  0  0  0  0  0  0  0  0  0  0
   37.6350   32.8790   36.6730 Cl  0  0  0  0  0  0  0  0  0  0  0  0
   39.6610   34.5510   37.4360 C   0  0  0  0  0  0  0  0  0  0  0  0
   38.8510   34.3980   41.1090 H   0  0  0  0  0  0  0  0  0  0  0  0
   37.4500   33.1100   39.5720 H   0  0  0  0  0  0  0  0  0  0  0  0
   39.9230   34.6180   36.3900 H   0  0  0  0  0  0  0  0  0  0  0  0
  1 19  1  0  0  0  0
  1  2  1  0  0  0  0
  2  7  1  0  0  0  0
  3  2  2  0  0  0  0
  3  4  1  0  0  0  0
  4  5  2  0  0  0  0
  5  6  1  0  0  0  0
  6 10  1  0  0  0  0
  7  6  2  0  0  0  0
  8  3  1  0  0  0  0
  9  4  1  0  0  0  0
 10 11  2  0  0  0  0
 10 12  1  0  0  0  0
 12 18  1  0  0  0  0
 13 12  2  0  0  0  0
 13 14  1  0  0  0  0
 14 16  2  0  0  0  0
 15 14  1  0  0  0  0
 16 17  1  0  0  0  0
 18 17  2  0  0  0  0
 19 21  1  0  0  0  0
 19 20  1  0  0  0  0
 22 23  1  0  0  0  0
 22 19  1  0  0  0  0
 24 22  1  0  0  0  0
 25 26  1  0  0  0  0
 26 27  1  0  0  0  0
 27 28  2  0  0  0  0
 27 22  1  0  0  0  0
 28 33  1  0  0  0  0
 29 34  1  0  0  0  0
 29 28  1  0  0  0  0
 30 29  2  0  0  0  0
 31 30  1  0  0  0  0
 32 30  1  0  0  0  0
 32 26  2  0  0  0  0
 35 32  1  0  0  0  0
M  END
>  <minimizedAffinity>
-6.88463163

>  <minimizedRMSD>
0.335715652

$$$$
