
 OpenBabel03252508323D

 30 32  0  0  1  0  0  0  0  0999 V2000
   44.1410   34.3140   42.1680 N   0  0  0  0  0  0  0  0  0  0  0  0
   44.4550   33.6480   40.9580 C   0  0  1  0  0  0  0  0  0  0  0  0
   43.6630   34.0410   39.7720 C   0  0  0  0  0  0  0  0  0  0  0  0
   42.3450   34.4740   39.9670 N   0  0  0  0  0  0  0  0  0  0  0  0
   41.9970   35.0130   41.2130 C   0  0  0  0  0  0  0  0  0  0  0  0
   43.2210   35.3960   42.0130 C   0  0  0  0  0  0  0  0  0  0  0  0
   44.3340   32.5480   41.1270 H   0  0  0  0  0  0  0  0  0  0  0  0
   44.2170   34.8600   39.2200 H   0  0  0  0  0  0  0  0  0  0  0  0
   43.6700   33.1950   39.0330 H   0  0  0  0  0  0  0  0  0  0  0  0
   42.0610   35.1170   39.1930 H   0  0  0  0  0  0  0  0  0  0  0  0
   41.3820   34.2570   41.7640 H   0  0  0  0  0  0  0  0  0  0  0  0
   41.3610   35.9300   41.1270 H   0  0  0  0  0  0  0  0  0  0  0  0
   42.9420   35.9450   42.9140 H   0  0  0  0  0  0  0  0  0  0  0  0
   43.7290   36.1780   41.3630 H   0  0  0  0  0  0  0  0  0  0  0  0
   44.9250   34.8600   44.3530 C   0  0  0  0  0  0  0  0  0  0  0  0
   44.7400   33.8970   43.3660 C   0  0  0  0  0  0  0  0  0  0  0  0
   45.1850   32.5930   43.6290 C   0  0  0  0  0  0  0  0  0  0  0  0
   45.7780   32.2960   44.8170 N   0  0  0  0  0  0  0  0  0  0  0  0
   45.9400   33.2690   45.7580 C   0  0  0  0  0  0  0  0  0  0  0  0
   45.5210   34.5280   45.5280 N   0  0  0  0  0  0  0  0  0  0  0  0
   44.6590   35.9030   44.3510 H   0  0  0  0  0  0  0  0  0  0  0  0
   45.0480   31.8440   42.8950 H   0  0  0  0  0  0  0  0  0  0  0  0
   46.4230   32.9640   46.6870 H   0  0  0  0  0  0  0  0  0  0  0  0
   45.9040   33.8360   40.5680 C   0  0  0  0  0  0  0  0  0  0  0  0
   46.8740   34.6770   41.0660 C   0  0  0  0  0  3  0  0  0  0  0  0
   48.1260   34.6290   40.5060 C   0  0  0  0  0  0  0  0  0  0  0  0
   48.8260   35.3230   40.9580 H   0  0  0  0  0  0  0  0  0  0  0  0
   48.3900   33.7800   39.4960 N   0  0  0  0  0  0  0  0  0  0  0  0
   47.4460   32.9760   39.0260 C   0  0  0  0  0  3  0  0  0  0  0  0
   46.1960   32.9840   39.5430 N   0  0  0  0  0  0  0  0  0  0  0  0
  1 16  1  0  0  0  0
  2  7  1  1  0  0  0
  2  1  1  0  0  0  0
  3  4  1  0  0  0  0
  3  2  1  0  0  0  0
  4  5  1  0  0  0  0
  5 11  1  0  0  0  0
  5  6  1  0  0  0  0
  6  1  1  0  0  0  0
  6 13  1  0  0  0  0
  8  3  1  0  0  0  0
  9  3  1  0  0  0  0
 10  4  1  0  0  0  0
 12  5  1  0  0  0  0
 14  6  1  0  0  0  0
 15 20  1  0  0  0  0
 16 17  1  0  0  0  0
 16 15  2  0  0  0  0
 17 18  2  0  0  0  0
 18 19  1  0  0  0  0
 19 23  1  0  0  0  0
 20 19  2  0  0  0  0
 21 15  1  0  0  0  0
 22 17  1  0  0  0  0
 24  2  1  0  0  0  0
 24 25  1  0  0  0  0
 26 27  1  0  0  0  0
 26 25  2  0  0  0  0
 28 26  1  0  0  0  0
 29 28  2  0  0  0  0
 29 30  1  0  0  0  0
 30 24  2  0  0  0  0
M  END
>  <minimizedAffinity>
-4.204

>  <minimizedRMSD>
0.726845145

$$$$
