
 OpenBabel03242516523D

 43 46  0  0  1  0  0  0  0  0999 V2000
   47.8330   32.8920   41.8220 C   0  0  1  0  0  0  0  0  0  0  0  0
   47.5240   32.2610   40.5390 C   0  0  0  0  0  0  0  0  0  0  0  0
   48.5420   32.7960   39.5390 C   0  0  0  0  0  0  0  0  0  0  0  0
   48.2000   34.2440   39.3050 C   0  0  0  0  0  0  0  0  0  0  0  0
   48.1260   35.0610   40.5590 C   0  0  0  0  0  0  0  0  0  0  0  0
   47.6270   34.4100   41.7790 C   0  0  1  0  0  0  0  0  0  0  0  0
   48.9500   32.8110   42.0000 H   0  0  0  0  0  0  0  0  0  0  0  0
   46.5260   32.4550   40.1550 H   0  0  0  0  0  0  0  0  0  0  0  0
   47.6430   31.1510   40.6620 H   0  0  0  0  0  0  0  0  0  0  0  0
   49.5810   32.6770   39.8860 H   0  0  0  0  0  0  0  0  0  0  0  0
   48.3280   32.2790   38.5670 H   0  0  0  0  0  0  0  0  0  0  0  0
   47.2490   34.2950   38.7050 H   0  0  0  0  0  0  0  0  0  0  0  0
   48.9910   34.6450   38.6340 H   0  0  0  0  0  0  0  0  0  0  0  0
   49.1490   35.5090   40.7140 H   0  0  0  0  0  0  0  0  0  0  0  0
   47.4910   35.9510   40.3290 H   0  0  0  0  0  0  0  0  0  0  0  0
   48.2160   34.7980   42.6540 H   0  0  0  0  0  0  0  0  0  0  0  0
   45.4010   30.9410   43.9500 C   0  0  0  0  0  0  0  0  0  0  0  0
   46.0800   31.4990   42.8640 C   0  0  0  0  0  0  0  0  0  0  0  0
   47.1820   32.3470   42.9940 C   0  0  0  0  0  0  0  0  0  0  0  0
   47.5660   32.6050   44.2450 N   0  0  0  0  0  0  0  0  0  0  0  0
   46.9150   32.0690   45.3090 C   0  0  0  0  0  0  0  0  0  0  0  0
   45.8620   31.2590   45.1780 N   0  0  0  0  0  0  0  0  0  0  0  0
   44.5660   30.3010   43.8050 H   0  0  0  0  0  0  0  0  0  0  0  0
   45.7230   31.2560   41.8530 H   0  0  0  0  0  0  0  0  0  0  0  0
   47.2890   32.3280   46.2910 H   0  0  0  0  0  0  0  0  0  0  0  0
   46.2400   34.7720   42.0830 C   0  0  0  0  0  0  0  0  0  0  0  0
   45.7780   35.3180   43.2840 C   0  0  0  0  0  0  0  0  0  0  0  0
   44.4110   35.6000   43.3440 C   0  0  0  0  0  0  0  0  0  0  0  0
   43.6420   35.3190   42.2270 C   0  0  0  0  0  0  0  0  0  0  0  0
   44.1170   34.7770   41.0420 C   0  0  0  0  0  0  0  0  0  0  0  0
   45.4550   34.5120   41.0140 N   0  0  0  0  0  0  0  0  0  0  0  0
   46.5000   35.4730   44.0510 H   0  0  0  0  0  0  0  0  0  0  0  0
   44.0420   36.0140   44.2490 H   0  0  0  0  0  0  0  0  0  0  0  0
   42.5850   35.5570   42.3260 H   0  0  0  0  0  0  0  0  0  0  0  0
   43.2130   34.5260   39.9260 C   0  0  0  0  0  0  0  0  0  0  0  0
   42.2700   35.3620   39.7500 O   0  0  0  0  0  0  0  0  0  0  0  0
   43.2530   33.4250   38.9720 C   0  0  0  0  0  0  0  0  0  0  0  0
   44.4570   33.1390   38.3690 C   0  0  0  0  0  3  0  0  0  0  0  0
   44.5320   32.0910   37.4450 C   0  0  0  0  0  0  0  0  0  0  0  0
   45.4670   31.8460   36.9570 H   0  0  0  0  0  0  0  0  0  0  0  0
   43.4110   31.3730   37.1610 N   0  0  0  0  0  0  0  0  0  0  0  0
   42.2510   31.6470   37.7420 C   0  0  0  0  0  3  0  0  0  0  0  0
   42.2230   32.6450   38.6080 N   0  0  0  0  0  0  0  0  0  0  0  0
  1  7  1  1  0  0  0
  1 19  1  0  0  0  0
  2  9  1  0  0  0  0
  2  1  1  0  0  0  0
  3 10  1  0  0  0  0
  3  2  1  0  0  0  0
  4  3  1  0  0  0  0
  4  5  1  0  0  0  0
  5 14  1  0  0  0  0
  5  6  1  0  0  0  0
  6  1  1  0  0  0  0
  6 26  1  0  0  0  0
  6 16  1  1  0  0  0
  8  2  1  0  0  0  0
 11  3  1  0  0  0  0
 12  4  1  0  0  0  0
 13  4  1  0  0  0  0
 15  5  1  0  0  0  0
 17 22  1  0  0  0  0
 18 19  1  0  0  0  0
 18 17  2  0  0  0  0
 19 20  2  0  0  0  0
 20 21  1  0  0  0  0
 21 25  1  0  0  0  0
 22 21  2  0  0  0  0
 23 17  1  0  0  0  0
 24 18  1  0  0  0  0
 26 27  1  0  0  0  0
 27 28  2  0  0  0  0
 27 32  1  0  0  0  0
 28 33  1  0  0  0  0
 29 34  1  0  0  0  0
 29 28  1  0  0  0  0
 30 29  2  0  0  0  0
 31 30  1  0  0  0  0
 31 26  2  0  0  0  0
 35 30  1  0  0  0  0
 36 35  2  0  0  0  0
 37 35  1  0  0  0  0
 38 37  2  0  0  0  0
 39 38  1  0  0  0  0
 40 39  1  0  0  0  0
 41 39  2  0  0  0  0
 41 42  1  0  0  0  0
 42 43  2  0  0  0  0
 43 37  1  0  0  0  0
M  END
>  <minimizedAffinity>
-5.4100399

>  <minimizedRMSD>
0.446650326

$$$$
