
 OpenBabel03252508303D

 37 40  0  0  1  0  0  0  0  0999 V2000
   39.1550   31.5500   39.5940 N   0  0  0  0  0  0  0  0  0  0  0  0
   37.8030   31.0010   39.7340 C   0  0  2  0  0  0  0  0  0  0  0  0
   36.8010   32.0260   40.1100 C   0  0  0  0  0  0  0  0  0  0  0  0
   37.3260   33.3780   40.0380 N   0  0  0  0  0  0  0  0  0  0  0  0
   38.5780   33.5800   40.6730 C   0  0  0  0  0  0  0  0  0  0  0  0
   39.3690   32.3040   40.8510 C   0  0  2  0  0  0  0  0  0  0  0  0
   39.8270   30.7540   39.6170 H   0  0  0  0  0  0  0  0  0  0  0  0
   37.5660   30.4910   38.7770 H   0  0  0  0  0  0  0  0  0  0  0  0
   35.9730   32.0000   39.3480 H   0  0  0  0  0  0  0  0  0  0  0  0
   36.4070   32.0120   41.1360 H   0  0  0  0  0  0  0  0  0  0  0  0
   36.6280   34.0360   40.4080 H   0  0  0  0  0  0  0  0  0  0  0  0
   39.1860   34.2390   40.0020 H   0  0  0  0  0  0  0  0  0  0  0  0
   38.5130   34.1390   41.6410 H   0  0  0  0  0  0  0  0  0  0  0  0
   38.9550   31.6930   41.6650 H   0  0  0  0  0  0  0  0  0  0  0  0
   38.3760   28.1970   41.9250 C   0  0  0  0  0  0  0  0  0  0  0  0
   37.3210   28.8900   42.5300 C   0  0  0  0  0  0  0  0  0  0  0  0
   36.9910   30.0010   41.7760 C   0  0  0  0  0  0  0  0  0  0  0  0
   37.8370   29.9640   40.7500 N   0  0  0  0  0  0  0  0  0  0  0  0
   38.6450   28.9140   40.8340 N   0  0  0  0  0  0  0  0  0  0  0  0
   36.9120   28.4980   43.4620 H   0  0  0  0  0  0  0  0  0  0  0  0
   36.1690   30.5410   42.2330 H   0  0  0  0  0  0  0  0  0  0  0  0
   40.5220   25.6550   43.6800 C   0  0  0  0  0  0  0  0  0  0  0  0
   40.0770   26.9510   43.2530 C   0  0  0  0  0  0  0  0  0  0  0  0
   38.9690   26.9640   42.4430 C   0  0  0  0  0  0  0  0  0  0  0  0
   38.3640   25.7920   42.0920 N   0  0  0  0  0  0  0  0  0  0  0  0
   38.8180   24.5920   42.5180 C   0  0  0  0  0  0  0  0  0  0  0  0
   39.8880   24.5520   43.3020 N   0  0  0  0  0  0  0  0  0  0  0  0
   41.3960   25.6520   44.3180 H   0  0  0  0  0  0  0  0  0  0  0  0
   40.5470   27.8680   43.5260 H   0  0  0  0  0  0  0  0  0  0  0  0
   38.2420   23.7390   42.1630 H   0  0  0  0  0  0  0  0  0  0  0  0
   40.7940   32.6110   41.0310 C   0  0  0  0  0  0  0  0  0  0  0  0
   41.6160   31.8010   41.7570 C   0  0  0  0  0  3  0  0  0  0  0  0
   42.9430   32.1720   41.8720 C   0  0  0  0  0  0  0  0  0  0  0  0
   43.6200   31.5530   42.4390 H   0  0  0  0  0  0  0  0  0  0  0  0
   43.4160   33.2850   41.2940 N   0  0  0  0  0  0  0  0  0  0  0  0
   42.5600   34.0640   40.5790 C   0  0  0  0  0  3  0  0  0  0  0  0
   41.2550   33.7310   40.4450 N   0  0  0  0  0  0  0  0  0  0  0  0
  1  7  1  0  0  0  0
  1  2  1  0  0  0  0
  1  6  1  0  0  0  0
  2  8  1  6  0  0  0
  2  3  1  0  0  0  0
  2 18  1  0  0  0  0
  3 10  1  0  0  0  0
  4  3  1  0  0  0  0
  4 11  1  0  0  0  0
  4  5  1  0  0  0  0
  5  6  1  0  0  0  0
  5 13  1  0  0  0  0
  6 31  1  0  0  0  0
  6 14  1  1  0  0  0
  9  3  1  0  0  0  0
 12  5  1  0  0  0  0
 15 24  1  0  0  0  0
 15 16  1  0  0  0  0
 16 20  1  0  0  0  0
 17 21  1  0  0  0  0
 17 16  2  0  0  0  0
 18 19  1  0  0  0  0
 18 17  1  0  0  0  0
 19 15  2  0  0  0  0
 22 28  1  0  0  0  0
 23 29  1  0  0  0  0
 23 22  2  0  0  0  0
 24 23  1  0  0  0  0
 25 24  2  0  0  0  0
 25 26  1  0  0  0  0
 26 27  2  0  0  0  0
 27 22  1  0  0  0  0
 30 26  1  0  0  0  0
 31 32  1  0  0  0  0
 32 33  2  0  0  0  0
 33 34  1  0  0  0  0
 35 33  1  0  0  0  0
 36 35  2  0  0  0  0
 37 36  1  0  0  0  0
 37 31  2  0  0  0  0
M  END
>  <minimizedAffinity>
-5.5669632

$$$$

 OpenBabel03252508303D

 37 40  0  0  1  0  0  0  0  0999 V2000
   38.6460   32.2940   38.3660 N   0  0  0  0  0  0  0  0  0  0  0  0
   37.5750   31.4730   38.9380 C   0  0  2  0  0  0  0  0  0  0  0  0
   36.9280   32.1050   40.1110 C   0  0  0  0  0  0  0  0  0  0  0  0
   37.3370   33.4850   40.3030 N   0  0  0  0  0  0  0  0  0  0  0  0
   38.7350   33.7170   40.2600 C   0  0  0  0  0  0  0  0  0  0  0  0
   39.4970   32.6350   39.5310 C   0  0  2  0  0  0  0  0  0  0  0  0
   39.2260   31.6820   37.7550 H   0  0  0  0  0  0  0  0  0  0  0  0
   36.8640   31.2580   38.1130 H   0  0  0  0  0  0  0  0  0  0  0  0
   35.8210   32.1590   39.9130 H   0  0  0  0  0  0  0  0  0  0  0  0
   37.1400   31.6860   41.1060 H   0  0  0  0  0  0  0  0  0  0  0  0
   36.9430   33.8380   41.1850 H   0  0  0  0  0  0  0  0  0  0  0  0
   38.8950   34.6630   39.6810 H   0  0  0  0  0  0  0  0  0  0  0  0
   39.1960   33.9140   41.2610 H   0  0  0  0  0  0  0  0  0  0  0  0
   39.5780   31.7270   40.1440 H   0  0  0  0  0  0  0  0  0  0  0  0
   38.7810   28.4530   40.4930 C   0  0  0  0  0  0  0  0  0  0  0  0
   39.0980   28.2880   39.1380 C   0  0  0  0  0  0  0  0  0  0  0  0
   38.6900   29.3950   38.4190 C   0  0  0  0  0  0  0  0  0  0  0  0
   38.1420   30.1950   39.3290 N   0  0  0  0  0  0  0  0  0  0  0  0
   38.1940   29.6490   40.5390 N   0  0  0  0  0  0  0  0  0  0  0  0
   39.5950   27.3660   38.8330 H   0  0  0  0  0  0  0  0  0  0  0  0
   38.9380   29.2800   37.3690 H   0  0  0  0  0  0  0  0  0  0  0  0
   39.8450   26.7600   43.6780 C   0  0  0  0  0  0  0  0  0  0  0  0
   39.6180   27.8380   42.7570 C   0  0  0  0  0  0  0  0  0  0  0  0
   39.0840   27.4820   41.5440 C   0  0  0  0  0  0  0  0  0  0  0  0
   38.8040   26.1730   41.2760 N   0  0  0  0  0  0  0  0  0  0  0  0
   39.0340   25.1900   42.1740 C   0  0  0  0  0  0  0  0  0  0  0  0
   39.5500   25.5070   43.3550 N   0  0  0  0  0  0  0  0  0  0  0  0
   40.2660   27.0470   44.6330 H   0  0  0  0  0  0  0  0  0  0  0  0
   39.8350   28.8600   42.9640 H   0  0  0  0  0  0  0  0  0  0  0  0
   38.7660   24.1930   41.8300 H   0  0  0  0  0  0  0  0  0  0  0  0
   40.8000   33.1450   39.0840 C   0  0  0  0  0  0  0  0  0  0  0  0
   41.6860   33.7090   39.9530 C   0  0  0  0  0  3  0  0  0  0  0  0
   42.8880   34.1610   39.4410 C   0  0  0  0  0  0  0  0  0  0  0  0
   43.6110   34.6120   40.1020 H   0  0  0  0  0  0  0  0  0  0  0  0
   43.1840   34.0530   38.1380 N   0  0  0  0  0  0  0  0  0  0  0  0
   42.2700   33.4830   37.3060 C   0  0  0  0  0  3  0  0  0  0  0  0
   41.0840   33.0290   37.7740 N   0  0  0  0  0  0  0  0  0  0  0  0
  1  2  1  0  0  0  0
  1  6  1  0  0  0  0
  2  8  1  6  0  0  0
  2 18  1  0  0  0  0
  2  3  1  0  0  0  0
  3  4  1  0  0  0  0
  3 10  1  0  0  0  0
  4 11  1  0  0  0  0
  5  4  1  0  0  0  0
  5 13  1  0  0  0  0
  6 14  1  1  0  0  0
  6  5  1  0  0  0  0
  7  1  1  0  0  0  0
  9  3  1  0  0  0  0
 12  5  1  0  0  0  0
 15 19  2  0  0  0  0
 15 24  1  0  0  0  0
 16 15  1  0  0  0  0
 17 16  2  0  0  0  0
 17 18  1  0  0  0  0
 18 19  1  0  0  0  0
 20 16  1  0  0  0  0
 21 17  1  0  0  0  0
 22 28  1  0  0  0  0
 23 29  1  0  0  0  0
 23 22  2  0  0  0  0
 24 23  1  0  0  0  0
 25 24  2  0  0  0  0
 25 26  1  0  0  0  0
 26 27  2  0  0  0  0
 27 22  1  0  0  0  0
 30 26  1  0  0  0  0
 31  6  1  0  0  0  0
 31 32  1  0  0  0  0
 33 32  2  0  0  0  0
 33 34  1  0  0  0  0
 35 33  1  0  0  0  0
 36 37  1  0  0  0  0
 36 35  2  0  0  0  0
 37 31  2  0  0  0  0
M  END
>  <minimizedAffinity>
-5.56647873

$$$$

 OpenBabel03252508303D

 37 40  0  0  1  0  0  0  0  0999 V2000
   38.5450   32.3010   37.6160 N   0  0  0  0  0  0  0  0  0  0  0  0
   37.3190   32.2720   38.4180 C   0  0  2  0  0  0  0  0  0  0  0  0
   37.4230   33.0770   39.6580 C   0  0  0  0  0  0  0  0  0  0  0  0
   38.6240   33.8930   39.7000 N   0  0  0  0  0  0  0  0  0  0  0  0
   39.8310   33.2160   39.3840 C   0  0  0  0  0  0  0  0  0  0  0  0
   39.6140   31.9540   38.5820 C   0  0  2  0  0  0  0  0  0  0  0  0
   38.5020   31.5100   36.9380 H   0  0  0  0  0  0  0  0  0  0  0  0
   36.4950   32.6050   37.7520 H   0  0  0  0  0  0  0  0  0  0  0  0
   36.5750   33.8160   39.6670 H   0  0  0  0  0  0  0  0  0  0  0  0
   37.5040   32.5420   40.6160 H   0  0  0  0  0  0  0  0  0  0  0  0
   38.6980   34.3440   40.6200 H   0  0  0  0  0  0  0  0  0  0  0  0
   40.4340   33.9040   38.7380 H   0  0  0  0  0  0  0  0  0  0  0  0
   40.4830   33.0110   40.2700 H   0  0  0  0  0  0  0  0  0  0  0  0
   39.2240   31.1460   39.2150 H   0  0  0  0  0  0  0  0  0  0  0  0
   36.8410   28.9960   39.8410 C   0  0  0  0  0  0  0  0  0  0  0  0
   36.3230   28.8820   38.5450 C   0  0  0  0  0  0  0  0  0  0  0  0
   36.4530   30.0850   37.8760 C   0  0  0  0  0  0  0  0  0  0  0  0
   37.0320   30.8910   38.7620 N   0  0  0  0  0  0  0  0  0  0  0  0
   37.2590   30.2590   39.9070 N   0  0  0  0  0  0  0  0  0  0  0  0
   35.9070   27.9220   38.2380 H   0  0  0  0  0  0  0  0  0  0  0  0
   36.0620   30.0050   36.8680 H   0  0  0  0  0  0  0  0  0  0  0  0
   37.1650   25.6690   41.5660 C   0  0  0  0  0  0  0  0  0  0  0  0
   37.1550   26.6080   40.4800 C   0  0  0  0  0  0  0  0  0  0  0  0
   36.8820   27.9100   40.8200 C   0  0  0  0  0  0  0  0  0  0  0  0
   36.6410   28.2410   42.1220 N   0  0  0  0  0  0  0  0  0  0  0  0
   36.6600   27.3230   43.1130 C   0  0  0  0  0  0  0  0  0  0  0  0
   36.9220   26.0570   42.8120 N   0  0  0  0  0  0  0  0  0  0  0  0
   37.3800   24.6450   41.2900 H   0  0  0  0  0  0  0  0  0  0  0  0
   37.3430   26.3520   39.4630 H   0  0  0  0  0  0  0  0  0  0  0  0
   36.4510   27.7230   44.1040 H   0  0  0  0  0  0  0  0  0  0  0  0
   40.8480   31.5860   37.8740 C   0  0  0  0  0  0  0  0  0  0  0  0
   41.0650   30.3160   37.4260 C   0  0  0  0  0  3  0  0  0  0  0  0
   42.2560   30.0630   36.7710 C   0  0  0  0  0  0  0  0  0  0  0  0
   42.4590   29.0700   36.4030 H   0  0  0  0  0  0  0  0  0  0  0  0
   43.1710   31.0220   36.5760 N   0  0  0  0  0  0  0  0  0  0  0  0
   42.9130   32.2750   37.0410 C   0  0  0  0  0  3  0  0  0  0  0  0
   41.7580   32.5590   37.6860 N   0  0  0  0  0  0  0  0  0  0  0  0
  1  2  1  0  0  0  0
  1  6  1  0  0  0  0
  2  8  1  6  0  0  0
  2 18  1  0  0  0  0
  2  3  1  0  0  0  0
  3  9  1  0  0  0  0
  3  4  1  0  0  0  0
  3 10  1  0  0  0  0
  4 11  1  0  0  0  0
  5  4  1  0  0  0  0
  5 13  1  0  0  0  0
  6 14  1  1  0  0  0
  6  5  1  0  0  0  0
  7  1  1  0  0  0  0
 12  5  1  0  0  0  0
 15 19  2  0  0  0  0
 15 24  1  0  0  0  0
 16 15  1  0  0  0  0
 17 16  2  0  0  0  0
 17 18  1  0  0  0  0
 18 19  1  0  0  0  0
 20 16  1  0  0  0  0
 21 17  1  0  0  0  0
 22 27  1  0  0  0  0
 23 24  1  0  0  0  0
 23 22  2  0  0  0  0
 24 25  2  0  0  0  0
 25 26  1  0  0  0  0
 26 30  1  0  0  0  0
 27 26  2  0  0  0  0
 28 22  1  0  0  0  0
 29 23  1  0  0  0  0
 31  6  1  0  0  0  0
 32 31  2  0  0  0  0
 33 32  1  0  0  0  0
 34 33  1  0  0  0  0
 35 33  2  0  0  0  0
 35 36  1  0  0  0  0
 36 37  2  0  0  0  0
 37 31  1  0  0  0  0
M  END
>  <minimizedAffinity>
-5.45110798

$$$$

 OpenBabel03252508303D

 37 40  0  0  1  0  0  0  0  0999 V2000
   36.5450   30.0000   41.8330 N   0  0  0  0  0  0  0  0  0  0  0  0
   36.3600   28.5460   41.8650 C   0  0  2  0  0  0  0  0  0  0  0  0
   37.5270   27.8300   42.4330 C   0  0  0  0  0  0  0  0  0  0  0  0
   38.4980   28.7270   43.0360 N   0  0  0  0  0  0  0  0  0  0  0  0
   38.8740   29.8400   42.2420 C   0  0  0  0  0  0  0  0  0  0  0  0
   37.8600   30.1810   41.1750 C   0  0  2  0  0  0  0  0  0  0  0  0
   35.8380   30.3970   41.1780 H   0  0  0  0  0  0  0  0  0  0  0  0
   35.4200   28.3570   42.4240 H   0  0  0  0  0  0  0  0  0  0  0  0
   37.1630   27.1890   43.2830 H   0  0  0  0  0  0  0  0  0  0  0  0
   38.1700   27.2630   41.7440 H   0  0  0  0  0  0  0  0  0  0  0  0
   39.3290   28.1910   43.3160 H   0  0  0  0  0  0  0  0  0  0  0  0
   38.9280   30.7280   42.9230 H   0  0  0  0  0  0  0  0  0  0  0  0
   39.8980   29.7580   41.7980 H   0  0  0  0  0  0  0  0  0  0  0  0
   37.9040   29.4630   40.3440 H   0  0  0  0  0  0  0  0  0  0  0  0
   35.4120   27.9230   38.4440 C   0  0  0  0  0  0  0  0  0  0  0  0
   36.2970   26.8800   38.7470 C   0  0  0  0  0  0  0  0  0  0  0  0
   36.7370   26.9970   40.0520 C   0  0  0  0  0  0  0  0  0  0  0  0
   36.1270   28.0880   40.5070 N   0  0  0  0  0  0  0  0  0  0  0  0
   35.3540   28.6300   39.5730 N   0  0  0  0  0  0  0  0  0  0  0  0
   36.5190   26.1500   37.9680 H   0  0  0  0  0  0  0  0  0  0  0  0
   37.4170   26.1900   40.2990 H   0  0  0  0  0  0  0  0  0  0  0  0
   34.4180   29.0200   34.9870 C   0  0  0  0  0  0  0  0  0  0  0  0
   35.1880   28.9780   36.1980 C   0  0  0  0  0  0  0  0  0  0  0  0
   34.7430   28.1010   37.1550 C   0  0  0  0  0  0  0  0  0  0  0  0
   33.6340   27.3390   36.9240 N   0  0  0  0  0  0  0  0  0  0  0  0
   32.9400   27.4120   35.7670 C   0  0  0  0  0  0  0  0  0  0  0  0
   33.3480   28.2520   34.8250 N   0  0  0  0  0  0  0  0  0  0  0  0
   34.7740   29.7140   34.2360 H   0  0  0  0  0  0  0  0  0  0  0  0
   36.0540   29.5710   36.3810 H   0  0  0  0  0  0  0  0  0  0  0  0
   32.0770   26.7500   35.7170 H   0  0  0  0  0  0  0  0  0  0  0  0
   38.0300   31.5740   40.7390 C   0  0  0  0  0  0  0  0  0  0  0  0
   37.0990   32.2030   39.9680 C   0  0  0  0  0  3  0  0  0  0  0  0
   37.3460   33.5150   39.6070 C   0  0  0  0  0  0  0  0  0  0  0  0
   36.6290   34.0410   38.9980 H   0  0  0  0  0  0  0  0  0  0  0  0
   38.4570   34.1550   39.9950 N   0  0  0  0  0  0  0  0  0  0  0  0
   39.3610   33.4890   40.7640 C   0  0  0  0  0  3  0  0  0  0  0  0
   39.1510   32.2040   41.1370 N   0  0  0  0  0  0  0  0  0  0  0  0
  1  2  1  0  0  0  0
  2  8  1  1  0  0  0
  2  3  1  0  0  0  0
  3  4  1  0  0  0  0
  3  9  1  0  0  0  0
  4 11  1  0  0  0  0
  5 12  1  0  0  0  0
  5  4  1  0  0  0  0
  6 14  1  6  0  0  0
  6  1  1  0  0  0  0
  6  5  1  0  0  0  0
  7  1  1  0  0  0  0
 10  3  1  0  0  0  0
 13  5  1  0  0  0  0
 15 16  1  0  0  0  0
 15 19  2  0  0  0  0
 16 17  2  0  0  0  0
 17 21  1  0  0  0  0
 17 18  1  0  0  0  0
 18  2  1  0  0  0  0
 19 18  1  0  0  0  0
 20 16  1  0  0  0  0
 22 23  1  0  0  0  0
 23 29  1  0  0  0  0
 23 24  2  0  0  0  0
 24 15  1  0  0  0  0
 25 24  1  0  0  0  0
 26 25  2  0  0  0  0
 27 22  2  0  0  0  0
 27 26  1  0  0  0  0
 28 22  1  0  0  0  0
 30 26  1  0  0  0  0
 31 37  1  0  0  0  0
 31  6  1  0  0  0  0
 32 31  2  0  0  0  0
 33 32  1  0  0  0  0
 33 35  2  0  0  0  0
 34 33  1  0  0  0  0
 35 36  1  0  0  0  0
 36 37  2  0  0  0  0
M  END
>  <minimizedAffinity>
-5.4249692

$$$$

 OpenBabel03252508303D

 37 40  0  0  1  0  0  0  0  0999 V2000
   38.3670   32.1660   37.8880 N   0  0  0  0  0  0  0  0  0  0  0  0
   37.2730   32.3830   38.8390 C   0  0  2  0  0  0  0  0  0  0  0  0
   37.6080   33.3760   39.8860 C   0  0  0  0  0  0  0  0  0  0  0  0
   38.8500   34.0800   39.6170 N   0  0  0  0  0  0  0  0  0  0  0  0
   39.9530   33.2580   39.2710 C   0  0  0  0  0  0  0  0  0  0  0  0
   39.5440   31.9000   38.7480 C   0  0  2  0  0  0  0  0  0  0  0  0
   38.1760   31.2780   37.3780 H   0  0  0  0  0  0  0  0  0  0  0  0
   36.3820   32.6660   38.2400 H   0  0  0  0  0  0  0  0  0  0  0  0
   36.8170   34.1770   39.8740 H   0  0  0  0  0  0  0  0  0  0  0  0
   37.7960   33.0090   40.9060 H   0  0  0  0  0  0  0  0  0  0  0  0
   39.0860   34.6750   40.4210 H   0  0  0  0  0  0  0  0  0  0  0  0
   40.4950   33.7690   38.4350 H   0  0  0  0  0  0  0  0  0  0  0  0
   40.7140   33.1520   40.0840 H   0  0  0  0  0  0  0  0  0  0  0  0
   39.2020   31.2490   39.5650 H   0  0  0  0  0  0  0  0  0  0  0  0
   36.6650   28.9730   39.8370 C   0  0  0  0  0  0  0  0  0  0  0  0
   36.3620   29.7210   40.9820 C   0  0  0  0  0  0  0  0  0  0  0  0
   36.5490   31.0680   40.7300 C   0  0  0  0  0  0  0  0  0  0  0  0
   36.9560   31.1110   39.4640 N   0  0  0  0  0  0  0  0  0  0  0  0
   37.0240   29.8920   38.9410 N   0  0  0  0  0  0  0  0  0  0  0  0
   36.0380   29.1880   41.8760 H   0  0  0  0  0  0  0  0  0  0  0  0
   36.3090   31.6560   41.6080 H   0  0  0  0  0  0  0  0  0  0  0  0
   36.7890   25.2720   40.4910 C   0  0  0  0  0  0  0  0  0  0  0  0
   36.9700   26.6730   40.7450 C   0  0  0  0  0  0  0  0  0  0  0  0
   36.5620   27.5170   39.7420 C   0  0  0  0  0  0  0  0  0  0  0  0
   36.0260   27.0080   38.5940 N   0  0  0  0  0  0  0  0  0  0  0  0
   35.8750   25.6800   38.3980 C   0  0  0  0  0  0  0  0  0  0  0  0
   36.2610   24.8410   39.3520 N   0  0  0  0  0  0  0  0  0  0  0  0
   37.1120   24.6120   41.2860 H   0  0  0  0  0  0  0  0  0  0  0  0
   37.3870   27.0730   41.6400 H   0  0  0  0  0  0  0  0  0  0  0  0
   35.4350   25.4120   37.4390 H   0  0  0  0  0  0  0  0  0  0  0  0
   40.6340   31.3100   37.9610 C   0  0  0  0  0  0  0  0  0  0  0  0
   40.6550   29.9830   37.6470 C   0  0  0  0  0  3  0  0  0  0  0  0
   41.7230   29.5180   36.9020 C   0  0  0  0  0  0  0  0  0  0  0  0
   41.7700   28.4740   36.6370 H   0  0  0  0  0  0  0  0  0  0  0  0
   42.7080   30.3320   36.4970 N   0  0  0  0  0  0  0  0  0  0  0  0
   42.6460   31.6490   36.8330 C   0  0  0  0  0  3  0  0  0  0  0  0
   41.6150   32.1390   37.5600 N   0  0  0  0  0  0  0  0  0  0  0  0
  1  6  1  0  0  0  0
  1  2  1  0  0  0  0
  2  8  1  6  0  0  0
  2 18  1  0  0  0  0
  2  3  1  0  0  0  0
  3 10  1  0  0  0  0
  4  3  1  0  0  0  0
  4 11  1  0  0  0  0
  5  4  1  0  0  0  0
  5 13  1  0  0  0  0
  6  5  1  0  0  0  0
  6 14  1  1  0  0  0
  7  1  1  0  0  0  0
  9  3  1  0  0  0  0
 12  5  1  0  0  0  0
 15 16  1  0  0  0  0
 16 20  1  0  0  0  0
 17 16  2  0  0  0  0
 17 21  1  0  0  0  0
 18 17  1  0  0  0  0
 19 18  1  0  0  0  0
 19 15  2  0  0  0  0
 22 23  1  0  0  0  0
 22 28  1  0  0  0  0
 23 29  1  0  0  0  0
 24 15  1  0  0  0  0
 24 23  2  0  0  0  0
 25 24  1  0  0  0  0
 26 25  2  0  0  0  0
 26 27  1  0  0  0  0
 27 22  2  0  0  0  0
 30 26  1  0  0  0  0
 31  6  1  0  0  0  0
 32 31  1  0  0  0  0
 33 32  2  0  0  0  0
 34 33  1  0  0  0  0
 35 36  2  0  0  0  0
 35 33  1  0  0  0  0
 36 37  1  0  0  0  0
 37 31  2  0  0  0  0
M  END
>  <minimizedAffinity>
-5.29156208

$$$$

 OpenBabel03252508303D

 37 40  0  0  1  0  0  0  0  0999 V2000
   39.0610   25.5470   40.6740 N   0  0  0  0  0  0  0  0  0  0  0  0
   39.7720   26.1650   41.7970 C   0  0  2  0  0  0  0  0  0  0  0  0
   39.5920   25.4270   43.0700 C   0  0  0  0  0  0  0  0  0  0  0  0
   38.9410   24.1410   42.8860 N   0  0  0  0  0  0  0  0  0  0  0  0
   37.7640   24.1610   42.0950 C   0  0  0  0  0  0  0  0  0  0  0  0
   37.6810   25.3620   41.1820 C   0  0  2  0  0  0  0  0  0  0  0  0
   38.9950   26.2530   39.9110 H   0  0  0  0  0  0  0  0  0  0  0  0
   40.8360   26.2500   41.4920 H   0  0  0  0  0  0  0  0  0  0  0  0
   40.6110   25.1770   43.4760 H   0  0  0  0  0  0  0  0  0  0  0  0
   38.9480   25.8760   43.8400 H   0  0  0  0  0  0  0  0  0  0  0  0
   38.7470   23.7230   43.8050 H   0  0  0  0  0  0  0  0  0  0  0  0
   37.7980   23.2600   41.4310 H   0  0  0  0  0  0  0  0  0  0  0  0
   36.8180   24.0490   42.6820 H   0  0  0  0  0  0  0  0  0  0  0  0
   37.4230   26.2700   41.7450 H   0  0  0  0  0  0  0  0  0  0  0  0
   38.6330   29.5760   41.5560 C   0  0  0  0  0  0  0  0  0  0  0  0
   38.4970   29.2680   42.9160 C   0  0  0  0  0  0  0  0  0  0  0  0
   38.9130   27.9700   43.1500 C   0  0  0  0  0  0  0  0  0  0  0  0
   39.2830   27.5230   41.9540 N   0  0  0  0  0  0  0  0  0  0  0  0
   39.1210   28.4560   41.0230 N   0  0  0  0  0  0  0  0  0  0  0  0
   38.1050   30.0360   43.5820 H   0  0  0  0  0  0  0  0  0  0  0  0
   38.8200   27.7250   44.2020 H   0  0  0  0  0  0  0  0  0  0  0  0
   37.0820   32.3720   39.5770 C   0  0  0  0  0  0  0  0  0  0  0  0
   37.2770   31.0340   40.0590 C   0  0  0  0  0  0  0  0  0  0  0  0
   38.3010   30.8690   40.9580 C   0  0  0  0  0  0  0  0  0  0  0  0
   39.0590   31.9380   41.3360 N   0  0  0  0  0  0  0  0  0  0  0  0
   38.8400   33.1820   40.8560 C   0  0  0  0  0  0  0  0  0  0  0  0
   37.8560   33.3700   39.9860 N   0  0  0  0  0  0  0  0  0  0  0  0
   36.2720   32.4960   38.8690 H   0  0  0  0  0  0  0  0  0  0  0  0
   36.6860   30.1980   39.7650 H   0  0  0  0  0  0  0  0  0  0  0  0
   39.5190   33.9410   41.2410 H   0  0  0  0  0  0  0  0  0  0  0  0
   36.7560   25.0930   40.0720 C   0  0  0  0  0  0  0  0  0  0  0  0
   36.1200   23.8940   39.9430 C   0  0  0  0  0  3  0  0  0  0  0  0
   35.2690   23.7330   38.8660 C   0  0  0  0  0  0  0  0  0  0  0  0
   34.7500   22.7970   38.7360 H   0  0  0  0  0  0  0  0  0  0  0  0
   35.0670   24.7120   37.9740 N   0  0  0  0  0  0  0  0  0  0  0  0
   35.7230   25.8930   38.1410 C   0  0  0  0  0  3  0  0  0  0  0  0
   36.5640   26.0860   39.1840 N   0  0  0  0  0  0  0  0  0  0  0  0
  1  6  1  0  0  0  0
  1  2  1  0  0  0  0
  2  8  1  6  0  0  0
  2 18  1  0  0  0  0
  2  3  1  0  0  0  0
  3  9  1  0  0  0  0
  3 10  1  0  0  0  0
  4  3  1  0  0  0  0
  4 11  1  0  0  0  0
  5 13  1  0  0  0  0
  5  4  1  0  0  0  0
  6 14  1  1  0  0  0
  6  5  1  0  0  0  0
  7  1  1  0  0  0  0
 12  5  1  0  0  0  0
 15 16  1  0  0  0  0
 16 17  2  0  0  0  0
 16 20  1  0  0  0  0
 17 21  1  0  0  0  0
 18 17  1  0  0  0  0
 19 15  2  0  0  0  0
 19 18  1  0  0  0  0
 22 27  2  0  0  0  0
 22 23  1  0  0  0  0
 23 24  2  0  0  0  0
 24 25  1  0  0  0  0
 24 15  1  0  0  0  0
 26 30  1  0  0  0  0
 26 25  2  0  0  0  0
 27 26  1  0  0  0  0
 28 22  1  0  0  0  0
 29 23  1  0  0  0  0
 31  6  1  0  0  0  0
 32 31  1  0  0  0  0
 33 32  2  0  0  0  0
 34 33  1  0  0  0  0
 35 36  2  0  0  0  0
 35 33  1  0  0  0  0
 36 37  1  0  0  0  0
 37 31  2  0  0  0  0
M  END
>  <minimizedAffinity>
-5.2873807

$$$$

 OpenBabel03252508303D

 37 40  0  0  1  0  0  0  0  0999 V2000
   37.0680   28.8790   42.2510 N   0  0  0  0  0  0  0  0  0  0  0  0
   37.4150   30.2680   41.9340 C   0  0  2  0  0  0  0  0  0  0  0  0
   36.4320   30.9150   41.0340 C   0  0  0  0  0  0  0  0  0  0  0  0
   35.2330   30.1170   40.8430 N   0  0  0  0  0  0  0  0  0  0  0  0
   35.4540   28.7540   40.5190 C   0  0  0  0  0  0  0  0  0  0  0  0
   36.8220   28.2590   40.9280 C   0  0  2  0  0  0  0  0  0  0  0  0
   37.9210   28.4160   42.6330 H   0  0  0  0  0  0  0  0  0  0  0  0
   37.5300   30.7960   42.9040 H   0  0  0  0  0  0  0  0  0  0  0  0
   36.0710   31.8590   41.5310 H   0  0  0  0  0  0  0  0  0  0  0  0
   36.7280   31.0960   39.9910 H   0  0  0  0  0  0  0  0  0  0  0  0
   34.6380   30.5610   40.1320 H   0  0  0  0  0  0  0  0  0  0  0  0
   34.7120   28.1520   41.1040 H   0  0  0  0  0  0  0  0  0  0  0  0
   35.2500   28.5010   39.4490 H   0  0  0  0  0  0  0  0  0  0  0  0
   37.5990   28.6370   40.2480 H   0  0  0  0  0  0  0  0  0  0  0  0
   40.3550   30.5060   39.8630 C   0  0  0  0  0  0  0  0  0  0  0  0
   40.8460   30.0780   41.1030 C   0  0  0  0  0  0  0  0  0  0  0  0
   39.8050   29.9370   42.0020 C   0  0  0  0  0  0  0  0  0  0  0  0
   38.7240   30.2780   41.3060 N   0  0  0  0  0  0  0  0  0  0  0  0
   39.0410   30.6100   40.0600 N   0  0  0  0  0  0  0  0  0  0  0  0
   41.9200   29.9180   41.2060 H   0  0  0  0  0  0  0  0  0  0  0  0
   40.1740   29.5980   42.9630 H   0  0  0  0  0  0  0  0  0  0  0  0
   42.4360   32.0390   37.1320 C   0  0  0  0  0  0  0  0  0  0  0  0
   41.6330   31.9870   38.3210 C   0  0  0  0  0  0  0  0  0  0  0  0
   41.1780   30.7420   38.6780 C   0  0  0  0  0  0  0  0  0  0  0  0
   41.4950   29.6530   37.9180 N   0  0  0  0  0  0  0  0  0  0  0  0
   42.2560   29.7490   36.8050 C   0  0  0  0  0  0  0  0  0  0  0  0
   42.7090   30.9410   36.4380 N   0  0  0  0  0  0  0  0  0  0  0  0
   42.7920   33.0230   36.8570 H   0  0  0  0  0  0  0  0  0  0  0  0
   41.3840   32.8350   38.9150 H   0  0  0  0  0  0  0  0  0  0  0  0
   42.4310   28.8030   36.2950 H   0  0  0  0  0  0  0  0  0  0  0  0
   36.8200   26.7940   41.0390 C   0  0  0  0  0  0  0  0  0  0  0  0
   37.0610   26.1640   42.2230 C   0  0  0  0  0  3  0  0  0  0  0  0
   37.0390   24.7810   42.2300 C   0  0  0  0  0  0  0  0  0  0  0  0
   37.2250   24.2520   43.1510 H   0  0  0  0  0  0  0  0  0  0  0  0
   36.7890   24.0750   41.1190 N   0  0  0  0  0  0  0  0  0  0  0  0
   36.5540   24.7450   39.9580 C   0  0  0  0  0  3  0  0  0  0  0  0
   36.5680   26.0980   39.9150 N   0  0  0  0  0  0  0  0  0  0  0  0
  1  7  1  0  0  0  0
  2  1  1  0  0  0  0
  2  8  1  1  0  0  0
  3  9  1  0  0  0  0
  3  2  1  0  0  0  0
  4  3  1  0  0  0  0
  5  4  1  0  0  0  0
  5  6  1  0  0  0  0
  5 12  1  0  0  0  0
  6 14  1  6  0  0  0
  6 31  1  0  0  0  0
  6  1  1  0  0  0  0
 10  3  1  0  0  0  0
 11  4  1  0  0  0  0
 13  5  1  0  0  0  0
 15 19  2  0  0  0  0
 15 16  1  0  0  0  0
 16 20  1  0  0  0  0
 16 17  2  0  0  0  0
 17 21  1  0  0  0  0
 18  2  1  0  0  0  0
 18 17  1  0  0  0  0
 19 18  1  0  0  0  0
 22 23  1  0  0  0  0
 23 24  2  0  0  0  0
 23 29  1  0  0  0  0
 24 15  1  0  0  0  0
 25 24  1  0  0  0  0
 26 25  2  0  0  0  0
 27 26  1  0  0  0  0
 27 22  2  0  0  0  0
 28 22  1  0  0  0  0
 30 26  1  0  0  0  0
 31 32  1  0  0  0  0
 32 33  2  0  0  0  0
 33 34  1  0  0  0  0
 35 33  1  0  0  0  0
 36 35  2  0  0  0  0
 37 36  1  0  0  0  0
 37 31  2  0  0  0  0
M  END
>  <minimizedAffinity>
-5.27234077

$$$$

 OpenBabel03252508303D

 37 40  0  0  1  0  0  0  0  0999 V2000
   35.4310   30.0160   40.3600 N   0  0  0  0  0  0  0  0  0  0  0  0
   36.4180   29.9730   41.4430 C   0  0  2  0  0  0  0  0  0  0  0  0
   37.6460   30.7440   41.1350 C   0  0  0  0  0  0  0  0  0  0  0  0
   37.5160   31.5530   39.9350 N   0  0  0  0  0  0  0  0  0  0  0  0
   36.9950   30.8790   38.8010 C   0  0  0  0  0  0  0  0  0  0  0  0
   36.2050   29.6400   39.1540 C   0  0  2  0  0  0  0  0  0  0  0  0
   34.7500   29.2440   40.5180 H   0  0  0  0  0  0  0  0  0  0  0  0
   35.9010   30.3280   42.3590 H   0  0  0  0  0  0  0  0  0  0  0  0
   37.8090   31.4880   41.9640 H   0  0  0  0  0  0  0  0  0  0  0  0
   38.5640   30.1840   40.9080 H   0  0  0  0  0  0  0  0  0  0  0  0
   38.4230   31.9790   39.7110 H   0  0  0  0  0  0  0  0  0  0  0  0
   36.2780   31.5800   38.3010 H   0  0  0  0  0  0  0  0  0  0  0  0
   37.7600   30.6460   38.0170 H   0  0  0  0  0  0  0  0  0  0  0  0
   36.8720   28.8160   39.4460 H   0  0  0  0  0  0  0  0  0  0  0  0
   37.3930   26.5040   41.4160 C   0  0  0  0  0  0  0  0  0  0  0  0
   37.1520   26.7780   42.7680 C   0  0  0  0  0  0  0  0  0  0  0  0
   36.7570   28.0940   42.9200 C   0  0  0  0  0  0  0  0  0  0  0  0
   36.7680   28.5850   41.6840 N   0  0  0  0  0  0  0  0  0  0  0  0
   37.1380   27.6610   40.8050 N   0  0  0  0  0  0  0  0  0  0  0  0
   37.2960   25.9750   43.4910 H   0  0  0  0  0  0  0  0  0  0  0  0
   36.5610   28.3150   43.9630 H   0  0  0  0  0  0  0  0  0  0  0  0
   37.6880   22.8500   40.5750 C   0  0  0  0  0  0  0  0  0  0  0  0
   37.1500   24.0350   41.1800 C   0  0  0  0  0  0  0  0  0  0  0  0
   37.8110   25.2040   40.8910 C   0  0  0  0  0  0  0  0  0  0  0  0
   38.9050   25.1880   40.0760 N   0  0  0  0  0  0  0  0  0  0  0  0
   39.3780   24.0470   39.5270 C   0  0  0  0  0  0  0  0  0  0  0  0
   38.7580   22.9030   39.7900 N   0  0  0  0  0  0  0  0  0  0  0  0
   37.1630   21.9320   40.8060 H   0  0  0  0  0  0  0  0  0  0  0  0
   36.2960   24.0500   41.8160 H   0  0  0  0  0  0  0  0  0  0  0  0
   40.2560   24.1790   38.8980 H   0  0  0  0  0  0  0  0  0  0  0  0
   35.3010   29.2830   38.0530 C   0  0  0  0  0  0  0  0  0  0  0  0
   34.0220   28.8680   38.2800 C   0  0  0  0  0  3  0  0  0  0  0  0
   33.2450   28.5530   37.1810 C   0  0  0  0  0  0  0  0  0  0  0  0
   32.2290   28.2230   37.3270 H   0  0  0  0  0  0  0  0  0  0  0  0
   33.7200   28.6490   35.9320 N   0  0  0  0  0  0  0  0  0  0  0  0
   35.0020   29.0680   35.7500 C   0  0  0  0  0  3  0  0  0  0  0  0
   35.7910   29.3840   36.8030 N   0  0  0  0  0  0  0  0  0  0  0  0
  1  7  1  0  0  0  0
  1  2  1  0  0  0  0
  2 18  1  0  0  0  0
  2  8  1  1  0  0  0
  3  2  1  0  0  0  0
  3  9  1  0  0  0  0
  4  3  1  0  0  0  0
  5  6  1  0  0  0  0
  5  4  1  0  0  0  0
  6 14  1  1  0  0  0
  6  1  1  0  0  0  0
 10  3  1  0  0  0  0
 11  4  1  0  0  0  0
 12  5  1  0  0  0  0
 13  5  1  0  0  0  0
 15 16  1  0  0  0  0
 16 17  2  0  0  0  0
 16 20  1  0  0  0  0
 17 21  1  0  0  0  0
 18 17  1  0  0  0  0
 19 15  2  0  0  0  0
 19 18  1  0  0  0  0
 22 28  1  0  0  0  0
 22 23  1  0  0  0  0
 23 29  1  0  0  0  0
 24 23  2  0  0  0  0
 24 15  1  0  0  0  0
 25 24  1  0  0  0  0
 26 27  1  0  0  0  0
 26 25  2  0  0  0  0
 27 22  2  0  0  0  0
 30 26  1  0  0  0  0
 31 32  1  0  0  0  0
 31  6  1  0  0  0  0
 33 34  1  0  0  0  0
 33 32  2  0  0  0  0
 35 33  1  0  0  0  0
 36 35  2  0  0  0  0
 36 37  1  0  0  0  0
 37 31  2  0  0  0  0
M  END
>  <minimizedAffinity>
-5.25732327

$$$$

 OpenBabel03252508303D

 37 40  0  0  1  0  0  0  0  0999 V2000
   36.2150   30.8920   39.7390 N   0  0  0  0  0  0  0  0  0  0  0  0
   37.0120   31.5330   40.7890 C   0  0  2  0  0  0  0  0  0  0  0  0
   37.7990   32.6860   40.2920 C   0  0  0  0  0  0  0  0  0  0  0  0
   37.4410   33.0690   38.9370 N   0  0  0  0  0  0  0  0  0  0  0  0
   37.3800   32.0050   38.0000 C   0  0  0  0  0  0  0  0  0  0  0  0
   37.1860   30.6530   38.6460 C   0  0  2  0  0  0  0  0  0  0  0  0
   35.9310   29.9510   40.0840 H   0  0  0  0  0  0  0  0  0  0  0  0
   36.3080   31.8060   41.6020 H   0  0  0  0  0  0  0  0  0  0  0  0
   37.5390   33.5830   40.9200 H   0  0  0  0  0  0  0  0  0  0  0  0
   38.8870   32.5650   40.1910 H   0  0  0  0  0  0  0  0  0  0  0  0
   38.0850   33.7980   38.6070 H   0  0  0  0  0  0  0  0  0  0  0  0
   36.4780   32.1830   37.3590 H   0  0  0  0  0  0  0  0  0  0  0  0
   38.2390   31.9790   37.2840 H   0  0  0  0  0  0  0  0  0  0  0  0
   38.1160   30.3020   39.1150 H   0  0  0  0  0  0  0  0  0  0  0  0
   38.7790   28.6550   42.0480 C   0  0  0  0  0  0  0  0  0  0  0  0
   39.6940   29.7060   42.1940 C   0  0  0  0  0  0  0  0  0  0  0  0
   39.1310   30.8880   41.7490 C   0  0  0  0  0  0  0  0  0  0  0  0
   37.9130   30.5390   41.3460 N   0  0  0  0  0  0  0  0  0  0  0  0
   37.7050   29.2390   41.5190 N   0  0  0  0  0  0  0  0  0  0  0  0
   40.6750   29.4820   42.6130 H   0  0  0  0  0  0  0  0  0  0  0  0
   39.8290   31.7090   41.8640 H   0  0  0  0  0  0  0  0  0  0  0  0
   40.0490   25.5140   43.6800 C   0  0  0  0  0  0  0  0  0  0  0  0
   39.9250   26.9200   43.4210 C   0  0  0  0  0  0  0  0  0  0  0  0
   39.0360   27.2680   42.4340 C   0  0  0  0  0  0  0  0  0  0  0  0
   38.3390   26.3010   41.7690 N   0  0  0  0  0  0  0  0  0  0  0  0
   38.4880   24.9870   42.0460 C   0  0  0  0  0  0  0  0  0  0  0  0
   39.3410   24.6230   42.9960 N   0  0  0  0  0  0  0  0  0  0  0  0
   40.7510   25.2460   44.4590 H   0  0  0  0  0  0  0  0  0  0  0  0
   40.4670   27.6770   43.9390 H   0  0  0  0  0  0  0  0  0  0  0  0
   37.8720   24.3250   41.4400 H   0  0  0  0  0  0  0  0  0  0  0  0
   36.6400   29.6990   37.6720 C   0  0  0  0  0  0  0  0  0  0  0  0
   35.4560   29.0550   37.8840 C   0  0  0  0  0  3  0  0  0  0  0  0
   35.0220   28.1750   36.9110 C   0  0  0  0  0  0  0  0  0  0  0  0
   34.0900   27.6500   37.0480 H   0  0  0  0  0  0  0  0  0  0  0  0
   35.7290   27.9540   35.7940 N   0  0  0  0  0  0  0  0  0  0  0  0
   36.9050   28.6170   35.6230 C   0  0  0  0  0  3  0  0  0  0  0  0
   37.3600   29.4870   36.5550 N   0  0  0  0  0  0  0  0  0  0  0  0
  1  7  1  0  0  0  0
  1  2  1  0  0  0  0
  2 18  1  0  0  0  0
  2  8  1  1  0  0  0
  3  2  1  0  0  0  0
  3  9  1  0  0  0  0
  4  3  1  0  0  0  0
  5  6  1  0  0  0  0
  5  4  1  0  0  0  0
  6 14  1  1  0  0  0
  6  1  1  0  0  0  0
 10  3  1  0  0  0  0
 11  4  1  0  0  0  0
 12  5  1  0  0  0  0
 13  5  1  0  0  0  0
 15 16  1  0  0  0  0
 15 24  1  0  0  0  0
 16 20  1  0  0  0  0
 17 21  1  0  0  0  0
 17 16  2  0  0  0  0
 18 19  1  0  0  0  0
 18 17  1  0  0  0  0
 19 15  2  0  0  0  0
 22 28  1  0  0  0  0
 23 22  1  0  0  0  0
 23 29  1  0  0  0  0
 24 23  2  0  0  0  0
 25 26  2  0  0  0  0
 25 24  1  0  0  0  0
 26 27  1  0  0  0  0
 27 22  2  0  0  0  0
 30 26  1  0  0  0  0
 31 32  1  0  0  0  0
 31  6  1  0  0  0  0
 33 34  1  0  0  0  0
 33 32  2  0  0  0  0
 35 33  1  0  0  0  0
 36 35  2  0  0  0  0
 36 37  1  0  0  0  0
 37 31  2  0  0  0  0
M  END
>  <minimizedAffinity>
-5.23352528

$$$$
