
 OpenBabel03242516523D

 43 46  0  0  1  0  0  0  0  0999 V2000
   47.8200   32.8720   41.8050 C   0  0  1  0  0  0  0  0  0  0  0  0
   47.4890   32.2190   40.5390 C   0  0  0  0  0  0  0  0  0  0  0  0
   48.4960   32.7310   39.5150 C   0  0  0  0  0  0  0  0  0  0  0  0
   48.1570   34.1760   39.2590 C   0  0  0  0  0  0  0  0  0  0  0  0
   48.1040   35.0160   40.4980 C   0  0  0  0  0  0  0  0  0  0  0  0
   47.6190   34.3900   41.7380 C   0  0  1  0  0  0  0  0  0  0  0  0
   48.9380   32.7900   41.9700 H   0  0  0  0  0  0  0  0  0  0  0  0
   46.4870   32.4100   40.1650 H   0  0  0  0  0  0  0  0  0  0  0  0
   47.6060   31.1110   40.6820 H   0  0  0  0  0  0  0  0  0  0  0  0
   49.5390   32.6140   39.8500 H   0  0  0  0  0  0  0  0  0  0  0  0
   48.2660   32.1970   38.5570 H   0  0  0  0  0  0  0  0  0  0  0  0
   47.1970   34.2200   38.6720 H   0  0  0  0  0  0  0  0  0  0  0  0
   48.9390   34.5610   38.5690 H   0  0  0  0  0  0  0  0  0  0  0  0
   49.1310   35.4630   40.6300 H   0  0  0  0  0  0  0  0  0  0  0  0
   47.4690   35.9040   40.2600 H   0  0  0  0  0  0  0  0  0  0  0  0
   48.2230   34.7920   42.5970 H   0  0  0  0  0  0  0  0  0  0  0  0
   45.4230   30.9560   44.0040 C   0  0  0  0  0  0  0  0  0  0  0  0
   46.0880   31.4920   42.8980 C   0  0  0  0  0  0  0  0  0  0  0  0
   47.1830   32.3520   42.9970 C   0  0  0  0  0  0  0  0  0  0  0  0
   47.5750   32.6470   44.2370 N   0  0  0  0  0  0  0  0  0  0  0  0
   46.9370   32.1320   45.3200 C   0  0  0  0  0  0  0  0  0  0  0  0
   45.8910   31.3100   45.2190 N   0  0  0  0  0  0  0  0  0  0  0  0
   44.5930   30.3050   43.8830 H   0  0  0  0  0  0  0  0  0  0  0  0
   45.7250   31.2190   41.8970 H   0  0  0  0  0  0  0  0  0  0  0  0
   47.3170   32.4200   46.2930 H   0  0  0  0  0  0  0  0  0  0  0  0
   46.2380   34.7640   42.0540 C   0  0  0  0  0  0  0  0  0  0  0  0
   45.8020   35.3740   43.2330 C   0  0  0  0  0  0  0  0  0  0  0  0
   44.4350   35.6540   43.3110 C   0  0  0  0  0  0  0  0  0  0  0  0
   43.6420   35.3090   42.2290 C   0  0  0  0  0  0  0  0  0  0  0  0
   44.0910   34.7040   41.0650 C   0  0  0  0  0  0  0  0  0  0  0  0
   45.4290   34.4430   41.0190 N   0  0  0  0  0  0  0  0  0  0  0  0
   46.5420   35.5740   43.9730 H   0  0  0  0  0  0  0  0  0  0  0  0
   44.0860   36.1160   44.2000 H   0  0  0  0  0  0  0  0  0  0  0  0
   42.5870   35.5490   42.3400 H   0  0  0  0  0  0  0  0  0  0  0  0
   43.1620   34.3900   39.9870 C   0  0  0  0  0  0  0  0  0  0  0  0
   42.6470   35.3730   39.3650 O   0  0  0  0  0  0  0  0  0  0  0  0
   42.7420   33.0730   39.5230 C   0  0  0  0  0  0  0  0  0  0  0  0
   42.7730   32.0340   40.4260 C   0  0  0  0  0  3  0  0  0  0  0  0
   42.3800   30.7550   40.0160 C   0  0  0  0  0  0  0  0  0  0  0  0
   42.3940   29.9200   40.7060 H   0  0  0  0  0  0  0  0  0  0  0  0
   41.9730   30.5640   38.7310 N   0  0  0  0  0  0  0  0  0  0  0  0
   41.9420   31.5640   37.8620 C   0  0  0  0  0  3  0  0  0  0  0  0
   42.3220   32.7570   38.2890 N   0  0  0  0  0  0  0  0  0  0  0  0
  1  7  1  1  0  0  0
  1 19  1  0  0  0  0
  2  9  1  0  0  0  0
  2  1  1  0  0  0  0
  3 10  1  0  0  0  0
  3  2  1  0  0  0  0
  4  3  1  0  0  0  0
  4  5  1  0  0  0  0
  5 14  1  0  0  0  0
  5  6  1  0  0  0  0
  6  1  1  0  0  0  0
  6 26  1  0  0  0  0
  6 16  1  1  0  0  0
  8  2  1  0  0  0  0
 11  3  1  0  0  0  0
 12  4  1  0  0  0  0
 13  4  1  0  0  0  0
 15  5  1  0  0  0  0
 17 22  1  0  0  0  0
 18 19  1  0  0  0  0
 18 17  2  0  0  0  0
 19 20  2  0  0  0  0
 20 21  1  0  0  0  0
 21 25  1  0  0  0  0
 22 21  2  0  0  0  0
 23 17  1  0  0  0  0
 24 18  1  0  0  0  0
 26 27  1  0  0  0  0
 27 28  2  0  0  0  0
 27 32  1  0  0  0  0
 28 33  1  0  0  0  0
 29 34  1  0  0  0  0
 29 28  1  0  0  0  0
 30 29  2  0  0  0  0
 31 30  1  0  0  0  0
 31 26  2  0  0  0  0
 35 30  1  0  0  0  0
 36 35  2  0  0  0  0
 37 35  1  0  0  0  0
 37 38  1  0  0  0  0
 39 38  2  0  0  0  0
 39 40  1  0  0  0  0
 41 39  1  0  0  0  0
 42 43  1  0  0  0  0
 42 41  2  0  0  0  0
 43 37  2  0  0  0  0
M  END
>  <minimizedAffinity>
-5.2039485

>  <minimizedRMSD>
0.535167277

$$$$
