
 OpenBabel03242518433D

 17 18  0  0  0  0  0  0  0  0999 V2000
   37.7540   33.3360   39.8890 C   0  0  0  0  0  0  0  0  0  0  0  0
   39.0910   33.7610   39.9890 C   0  0  0  0  0  0  0  0  0  0  0  0
   39.9770   32.9180   40.6770 C   0  0  0  0  0  0  0  0  0  0  0  0
   39.5020   31.7470   41.2040 N   0  0  0  0  0  0  0  0  0  0  0  0
   38.2070   31.3950   41.0740 C   0  0  0  0  0  0  0  0  0  0  0  0
   37.3500   32.1850   40.4240 N   0  0  0  0  0  0  0  0  0  0  0  0
   39.4160   34.7000   39.5530 H   0  0  0  0  0  0  0  0  0  0  0  0
   41.0120   33.2060   40.7760 H   0  0  0  0  0  0  0  0  0  0  0  0
   37.7750   30.1310   41.6630 C   0  0  0  0  0  0  0  0  0  0  0  0
   38.4440   29.6490   42.7680 C   0  0  0  0  0  3  0  0  0  0  0  0
   37.9500   28.4380   43.2500 C   0  0  0  0  0  0  0  0  0  0  0  0
   38.4750   28.0420   44.1330 H   0  0  0  0  0  0  0  0  0  0  0  0
   36.9190   27.7520   42.7270 N   0  0  0  0  0  0  0  0  0  0  0  0
   36.3120   28.2800   41.6480 C   0  0  0  0  0  3  0  0  0  0  0  0
   36.7420   29.4600   41.1250 N   0  0  0  0  0  0  0  0  0  0  0  0
   36.8820   34.1550   39.2200 O   0  0  0  0  0  0  0  0  0  0  0  0
   36.6230   33.9800   38.2460 H   0  0  0  0  0  0  0  0  0  0  0  0
  1  2  2  0  0  0  0
  1  6  1  0  0  0  0
  2  3  1  0  0  0  0
  3  8  1  0  0  0  0
  3  4  2  0  0  0  0
  5  4  1  0  0  0  0
  5  9  1  0  0  0  0
  6  5  2  0  0  0  0
  7  2  1  0  0  0  0
  9 10  1  0  0  0  0
 10 11  2  0  0  0  0
 11 12  1  0  0  0  0
 13 11  1  0  0  0  0
 14 13  2  0  0  0  0
 15 14  1  0  0  0  0
 15  9  2  0  0  0  0
 16  1  1  0  0  0  0
 17 16  1  0  0  0  0
M  END
>  <minimizedAffinity>
-4.37283611

$$$$

 OpenBabel03242518433D

 17 18  0  0  0  0  0  0  0  0999 V2000
   37.2260   32.4180   39.8030 C   0  0  0  0  0  0  0  0  0  0  0  0
   37.2810   32.1030   38.4330 C   0  0  0  0  0  0  0  0  0  0  0  0
   37.3280   30.7430   38.0940 C   0  0  0  0  0  0  0  0  0  0  0  0
   37.3160   29.8100   39.0970 N   0  0  0  0  0  0  0  0  0  0  0  0
   37.2620   30.1760   40.3930 C   0  0  0  0  0  0  0  0  0  0  0  0
   37.2180   31.4660   40.7330 N   0  0  0  0  0  0  0  0  0  0  0  0
   37.2880   32.8820   37.6780 H   0  0  0  0  0  0  0  0  0  0  0  0
   37.3710   30.4570   37.0550 H   0  0  0  0  0  0  0  0  0  0  0  0
   37.2530   29.1240   41.4060 C   0  0  0  0  0  0  0  0  0  0  0  0
   37.0170   27.8240   41.0120 C   0  0  0  0  0  3  0  0  0  0  0  0
   37.0320   26.9010   42.0560 C   0  0  0  0  0  0  0  0  0  0  0  0
   36.8450   25.8580   41.7560 H   0  0  0  0  0  0  0  0  0  0  0  0
   37.2500   27.1900   43.3510 N   0  0  0  0  0  0  0  0  0  0  0  0
   37.4740   28.4790   43.6650 C   0  0  0  0  0  3  0  0  0  0  0  0
   37.4730   29.4340   42.6950 N   0  0  0  0  0  0  0  0  0  0  0  0
   37.1800   33.7460   40.1420 O   0  0  0  0  0  0  0  0  0  0  0  0
   36.3000   34.2080   40.3780 H   0  0  0  0  0  0  0  0  0  0  0  0
  1 16  1  0  0  0  0
  1  6  1  0  0  0  0
  2  1  2  0  0  0  0
  3  2  1  0  0  0  0
  3  4  2  0  0  0  0
  4  5  1  0  0  0  0
  5  6  2  0  0  0  0
  5  9  1  0  0  0  0
  7  2  1  0  0  0  0
  8  3  1  0  0  0  0
  9 15  1  0  0  0  0
 10  9  2  0  0  0  0
 10 11  1  0  0  0  0
 11 13  2  0  0  0  0
 12 11  1  0  0  0  0
 13 14  1  0  0  0  0
 15 14  2  0  0  0  0
 16 17  1  0  0  0  0
M  END
>  <minimizedAffinity>
-4.35005426

$$$$

 OpenBabel03242518433D

 17 18  0  0  0  0  0  0  0  0999 V2000
   36.1040   29.8840   41.0260 C   0  0  0  0  0  0  0  0  0  0  0  0
   35.4700   29.4080   39.8640 C   0  0  0  0  0  0  0  0  0  0  0  0
   35.7600   28.0920   39.4740 C   0  0  0  0  0  0  0  0  0  0  0  0
   36.6280   27.3530   40.2320 N   0  0  0  0  0  0  0  0  0  0  0  0
   37.2040   27.8670   41.3380 C   0  0  0  0  0  0  0  0  0  0  0  0
   36.9400   29.1170   41.7230 N   0  0  0  0  0  0  0  0  0  0  0  0
   34.7890   30.0370   39.2990 H   0  0  0  0  0  0  0  0  0  0  0  0
   35.2950   27.6880   38.5890 H   0  0  0  0  0  0  0  0  0  0  0  0
   38.1200   27.0170   42.0940 C   0  0  0  0  0  0  0  0  0  0  0  0
   38.9630   27.6020   43.0150 C   0  0  0  0  0  3  0  0  0  0  0  0
   39.7930   26.7010   43.6800 C   0  0  0  0  0  0  0  0  0  0  0  0
   40.4720   27.1540   44.4190 H   0  0  0  0  0  0  0  0  0  0  0  0
   39.8170   25.3710   43.4840 N   0  0  0  0  0  0  0  0  0  0  0  0
   38.9680   24.8670   42.5700 C   0  0  0  0  0  3  0  0  0  0  0  0
   38.1290   25.6900   41.8830 N   0  0  0  0  0  0  0  0  0  0  0  0
   35.8250   31.1690   41.4140 O   0  0  0  0  0  0  0  0  0  0  0  0
   35.1440   31.3710   42.1480 H   0  0  0  0  0  0  0  0  0  0  0  0
  1 16  1  0  0  0  0
  1  6  1  0  0  0  0
  2  1  2  0  0  0  0
  3  2  1  0  0  0  0
  3  4  2  0  0  0  0
  4  5  1  0  0  0  0
  5  6  2  0  0  0  0
  5  9  1  0  0  0  0
  7  2  1  0  0  0  0
  8  3  1  0  0  0  0
  9 10  1  0  0  0  0
 10 11  2  0  0  0  0
 11 12  1  0  0  0  0
 13 11  1  0  0  0  0
 14 13  2  0  0  0  0
 15  9  2  0  0  0  0
 15 14  1  0  0  0  0
 16 17  1  0  0  0  0
M  END
>  <minimizedAffinity>
-4.29443502

$$$$

 OpenBabel03242518433D

 17 18  0  0  0  0  0  0  0  0999 V2000
   36.5970   30.2070   41.2660 C   0  0  0  0  0  0  0  0  0  0  0  0
   37.9070   30.7080   41.1620 C   0  0  0  0  0  0  0  0  0  0  0  0
   38.9390   29.7680   41.0170 C   0  0  0  0  0  0  0  0  0  0  0  0
   38.6210   28.4370   40.9860 N   0  0  0  0  0  0  0  0  0  0  0  0
   37.3440   28.0190   41.0910 C   0  0  0  0  0  0  0  0  0  0  0  0
   36.3510   28.8990   41.2290 N   0  0  0  0  0  0  0  0  0  0  0  0
   38.1040   31.7750   41.1930 H   0  0  0  0  0  0  0  0  0  0  0  0
   39.9580   30.1100   40.9330 H   0  0  0  0  0  0  0  0  0  0  0  0
   37.0850   26.5820   41.0490 C   0  0  0  0  0  0  0  0  0  0  0  0
   37.2870   25.8360   42.1900 C   0  0  0  0  0  3  0  0  0  0  0  0
   37.0090   24.4780   42.0390 C   0  0  0  0  0  0  0  0  0  0  0  0
   37.1670   23.8700   42.9440 H   0  0  0  0  0  0  0  0  0  0  0  0
   36.5810   23.8900   40.9090 N   0  0  0  0  0  0  0  0  0  0  0  0
   36.4040   24.6770   39.8330 C   0  0  0  0  0  3  0  0  0  0  0  0
   36.6570   26.0120   39.9090 N   0  0  0  0  0  0  0  0  0  0  0  0
   35.5840   31.1190   41.4080 O   0  0  0  0  0  0  0  0  0  0  0  0
   35.0130   31.4130   40.6130 H   0  0  0  0  0  0  0  0  0  0  0  0
  1 16  1  0  0  0  0
  2  7  1  0  0  0  0
  2  1  2  0  0  0  0
  3  2  1  0  0  0  0
  4  3  2  0  0  0  0
  4  5  1  0  0  0  0
  5  6  2  0  0  0  0
  6  1  1  0  0  0  0
  8  3  1  0  0  0  0
  9  5  1  0  0  0  0
  9 10  1  0  0  0  0
 11 10  2  0  0  0  0
 11 12  1  0  0  0  0
 13 11  1  0  0  0  0
 14 15  1  0  0  0  0
 14 13  2  0  0  0  0
 15  9  2  0  0  0  0
 17 16  1  0  0  0  0
M  END
>  <minimizedAffinity>
-4.24845028

$$$$

 OpenBabel03242518433D

 17 18  0  0  0  0  0  0  0  0999 V2000
   37.3290   28.1920   43.2020 C   0  0  0  0  0  0  0  0  0  0  0  0
   38.5220   27.4940   43.4610 C   0  0  0  0  0  0  0  0  0  0  0  0
   39.7100   28.0640   42.9790 C   0  0  0  0  0  0  0  0  0  0  0  0
   39.6460   29.2480   42.2950 N   0  0  0  0  0  0  0  0  0  0  0  0
   38.4690   29.8690   42.0790 C   0  0  0  0  0  0  0  0  0  0  0  0
   37.3290   29.3410   42.5290 N   0  0  0  0  0  0  0  0  0  0  0  0
   38.5170   26.5580   44.0090 H   0  0  0  0  0  0  0  0  0  0  0  0
   40.6480   27.5620   43.1560 H   0  0  0  0  0  0  0  0  0  0  0  0
   38.4810   31.1290   41.3410 C   0  0  0  0  0  0  0  0  0  0  0  0
   39.6060   31.9250   41.4000 C   0  0  0  0  0  3  0  0  0  0  0  0
   39.5110   33.1020   40.6600 C   0  0  0  0  0  0  0  0  0  0  0  0
   40.4030   33.7470   40.6980 H   0  0  0  0  0  0  0  0  0  0  0  0
   38.4460   33.4840   39.9340 N   0  0  0  0  0  0  0  0  0  0  0  0
   37.3820   32.6600   39.9190 C   0  0  0  0  0  3  0  0  0  0  0  0
   37.4060   31.4930   40.6200 N   0  0  0  0  0  0  0  0  0  0  0  0
   36.1640   27.6400   43.6690 O   0  0  0  0  0  0  0  0  0  0  0  0
   35.7300   27.9620   44.5370 H   0  0  0  0  0  0  0  0  0  0  0  0
  1  2  1  0  0  0  0
  1 16  1  0  0  0  0
  2  7  1  0  0  0  0
  3  8  1  0  0  0  0
  3  2  2  0  0  0  0
  4  3  1  0  0  0  0
  5  4  2  0  0  0  0
  5  6  1  0  0  0  0
  6  1  2  0  0  0  0
  9 10  1  0  0  0  0
  9  5  1  0  0  0  0
 11 12  1  0  0  0  0
 11 10  2  0  0  0  0
 13 11  1  0  0  0  0
 14 13  2  0  0  0  0
 14 15  1  0  0  0  0
 15  9  2  0  0  0  0
 16 17  1  0  0  0  0
M  END
>  <minimizedAffinity>
-4.22143984

$$$$

 OpenBabel03242518433D

 17 18  0  0  0  0  0  0  0  0999 V2000
   36.4580   30.9430   40.3360 C   0  0  0  0  0  0  0  0  0  0  0  0
   36.1120   29.9130   39.4420 C   0  0  0  0  0  0  0  0  0  0  0  0
   36.9340   29.7420   38.3190 C   0  0  0  0  0  0  0  0  0  0  0  0
   38.0120   30.5710   38.1550 N   0  0  0  0  0  0  0  0  0  0  0  0
   38.2910   31.5410   39.0490 C   0  0  0  0  0  0  0  0  0  0  0  0
   37.5190   31.7180   40.1230 N   0  0  0  0  0  0  0  0  0  0  0  0
   35.2460   29.2840   39.6190 H   0  0  0  0  0  0  0  0  0  0  0  0
   36.7050   28.9640   37.6080 H   0  0  0  0  0  0  0  0  0  0  0  0
   39.4580   32.3850   38.8060 C   0  0  0  0  0  0  0  0  0  0  0  0
   39.7390   33.4040   39.6920 C   0  0  0  0  0  3  0  0  0  0  0  0
   40.8720   34.1460   39.3650 C   0  0  0  0  0  0  0  0  0  0  0  0
   41.1090   34.9630   40.0650 H   0  0  0  0  0  0  0  0  0  0  0  0
   41.6610   33.9380   38.2970 N   0  0  0  0  0  0  0  0  0  0  0  0
   41.3290   32.9270   37.4730 C   0  0  0  0  0  3  0  0  0  0  0  0
   40.2340   32.1610   37.7320 N   0  0  0  0  0  0  0  0  0  0  0  0
   35.6580   31.1160   41.4360 O   0  0  0  0  0  0  0  0  0  0  0  0
   35.9160   30.7390   42.3500 H   0  0  0  0  0  0  0  0  0  0  0  0
  1 16  1  0  0  0  0
  2  7  1  0  0  0  0
  2  1  2  0  0  0  0
  3  2  1  0  0  0  0
  4  3  2  0  0  0  0
  4  5  1  0  0  0  0
  5  6  2  0  0  0  0
  6  1  1  0  0  0  0
  8  3  1  0  0  0  0
  9  5  1  0  0  0  0
  9 10  1  0  0  0  0
 11 10  2  0  0  0  0
 11 12  1  0  0  0  0
 13 11  1  0  0  0  0
 14 15  1  0  0  0  0
 14 13  2  0  0  0  0
 15  9  2  0  0  0  0
 16 17  1  0  0  0  0
M  END
>  <minimizedAffinity>
-4.13163424

$$$$

 OpenBabel03242518433D

 17 18  0  0  0  0  0  0  0  0999 V2000
   36.7810   30.3430   41.2800 C   0  0  0  0  0  0  0  0  0  0  0  0
   37.7370   31.1350   40.6180 C   0  0  0  0  0  0  0  0  0  0  0  0
   39.0300   30.6040   40.4970 C   0  0  0  0  0  0  0  0  0  0  0  0
   39.2880   29.3660   41.0210 N   0  0  0  0  0  0  0  0  0  0  0  0
   38.3280   28.6550   41.6460 C   0  0  0  0  0  0  0  0  0  0  0  0
   37.0930   29.1450   41.7700 N   0  0  0  0  0  0  0  0  0  0  0  0
   37.4790   32.1110   40.2200 H   0  0  0  0  0  0  0  0  0  0  0  0
   39.7930   31.1780   39.9960 H   0  0  0  0  0  0  0  0  0  0  0  0
   38.6800   27.3420   42.1790 C   0  0  0  0  0  0  0  0  0  0  0  0
   38.0570   26.2250   41.6630 C   0  0  0  0  0  3  0  0  0  0  0  0
   38.4680   25.0260   42.2420 C   0  0  0  0  0  0  0  0  0  0  0  0
   37.9790   24.1250   41.8390 H   0  0  0  0  0  0  0  0  0  0  0  0
   39.3830   24.9040   43.2200 N   0  0  0  0  0  0  0  0  0  0  0  0
   39.9510   26.0340   43.6770 C   0  0  0  0  0  3  0  0  0  0  0  0
   39.5970   27.2410   43.1560 N   0  0  0  0  0  0  0  0  0  0  0  0
   35.5150   30.8560   41.4020 O   0  0  0  0  0  0  0  0  0  0  0  0
   34.7630   30.5790   40.7680 H   0  0  0  0  0  0  0  0  0  0  0  0
  1 16  1  0  0  0  0
  1  6  1  0  0  0  0
  2  1  2  0  0  0  0
  3  2  1  0  0  0  0
  3  4  2  0  0  0  0
  4  5  1  0  0  0  0
  5  6  2  0  0  0  0
  5  9  1  0  0  0  0
  7  2  1  0  0  0  0
  8  3  1  0  0  0  0
  9 15  1  0  0  0  0
 10  9  2  0  0  0  0
 10 11  1  0  0  0  0
 11 13  2  0  0  0  0
 12 11  1  0  0  0  0
 13 14  1  0  0  0  0
 15 14  2  0  0  0  0
 17 16  1  0  0  0  0
M  END
>  <minimizedAffinity>
-4.10689688

$$$$

 OpenBabel03242518433D

 17 18  0  0  0  0  0  0  0  0999 V2000
   36.1180   30.1700   40.5730 C   0  0  0  0  0  0  0  0  0  0  0  0
   36.6260   30.6260   39.3440 C   0  0  0  0  0  0  0  0  0  0  0  0
   37.1860   29.6640   38.4900 C   0  0  0  0  0  0  0  0  0  0  0  0
   37.2070   28.3550   38.8920 N   0  0  0  0  0  0  0  0  0  0  0  0
   36.7020   27.9810   40.0840 C   0  0  0  0  0  0  0  0  0  0  0  0
   36.1660   28.8830   40.9090 N   0  0  0  0  0  0  0  0  0  0  0  0
   36.5850   31.6770   39.0740 H   0  0  0  0  0  0  0  0  0  0  0  0
   37.5880   29.9710   37.5370 H   0  0  0  0  0  0  0  0  0  0  0  0
   36.7600   26.5660   40.4420 C   0  0  0  0  0  0  0  0  0  0  0  0
   36.4760   25.6230   39.4770 C   0  0  0  0  0  3  0  0  0  0  0  0
   36.5620   24.3060   39.9250 C   0  0  0  0  0  0  0  0  0  0  0  0
   36.3370   23.5420   39.1640 H   0  0  0  0  0  0  0  0  0  0  0  0
   36.8860   23.9250   41.1730 N   0  0  0  0  0  0  0  0  0  0  0  0
   37.1520   24.8980   42.0640 C   0  0  0  0  0  3  0  0  0  0  0  0
   37.0870   26.2060   41.6950 N   0  0  0  0  0  0  0  0  0  0  0  0
   35.5690   31.1050   41.4130 O   0  0  0  0  0  0  0  0  0  0  0  0
   34.5590   31.2470   41.4680 H   0  0  0  0  0  0  0  0  0  0  0  0
  1  6  1  0  0  0  0
  1 16  1  0  0  0  0
  2  1  2  0  0  0  0
  3  4  2  0  0  0  0
  3  2  1  0  0  0  0
  4  5  1  0  0  0  0
  5  9  1  0  0  0  0
  5  6  2  0  0  0  0
  7  2  1  0  0  0  0
  8  3  1  0  0  0  0
  9 15  1  0  0  0  0
 10 11  1  0  0  0  0
 10  9  2  0  0  0  0
 11 13  2  0  0  0  0
 12 11  1  0  0  0  0
 13 14  1  0  0  0  0
 15 14  2  0  0  0  0
 16 17  1  0  0  0  0
M  END
>  <minimizedAffinity>
-4.10226059

$$$$

 OpenBabel03242518433D

 17 18  0  0  0  0  0  0  0  0999 V2000
   38.8230   24.9840   42.5970 C   0  0  0  0  0  0  0  0  0  0  0  0
   39.9260   25.2860   43.4160 C   0  0  0  0  0  0  0  0  0  0  0  0
   40.1710   26.6420   43.6800 C   0  0  0  0  0  0  0  0  0  0  0  0
   39.3370   27.5830   43.1360 N   0  0  0  0  0  0  0  0  0  0  0  0
   38.2940   27.2290   42.3590 C   0  0  0  0  0  0  0  0  0  0  0  0
   38.0480   25.9440   42.0970 N   0  0  0  0  0  0  0  0  0  0  0  0
   40.5560   24.5010   43.8210 H   0  0  0  0  0  0  0  0  0  0  0  0
   41.0070   26.9180   44.3030 H   0  0  0  0  0  0  0  0  0  0  0  0
   37.4500   28.2890   41.8150 C   0  0  0  0  0  0  0  0  0  0  0  0
   37.8410   29.6010   41.9800 C   0  0  0  0  0  3  0  0  0  0  0  0
   36.9650   30.5310   41.4230 C   0  0  0  0  0  0  0  0  0  0  0  0
   37.2660   31.5830   41.5460 H   0  0  0  0  0  0  0  0  0  0  0  0
   35.8250   30.2380   40.7740 N   0  0  0  0  0  0  0  0  0  0  0  0
   35.5030   28.9370   40.6490 C   0  0  0  0  0  3  0  0  0  0  0  0
   36.3140   27.9750   41.1690 N   0  0  0  0  0  0  0  0  0  0  0  0
   38.5780   23.6610   42.3350 O   0  0  0  0  0  0  0  0  0  0  0  0
   37.8700   23.1350   42.8510 H   0  0  0  0  0  0  0  0  0  0  0  0
  1  2  1  0  0  0  0
  2  3  2  0  0  0  0
  2  7  1  0  0  0  0
  3  8  1  0  0  0  0
  4  3  1  0  0  0  0
  5  4  2  0  0  0  0
  6  5  1  0  0  0  0
  6  1  2  0  0  0  0
  9 10  1  0  0  0  0
  9  5  1  0  0  0  0
 11 12  1  0  0  0  0
 11 10  2  0  0  0  0
 13 11  1  0  0  0  0
 14 13  2  0  0  0  0
 14 15  1  0  0  0  0
 15  9  2  0  0  0  0
 16  1  1  0  0  0  0
 16 17  1  0  0  0  0
M  END
>  <minimizedAffinity>
-4.09059906

$$$$
