
 OpenBabel03252506193D

 21 22  0  0  0  0  0  0  0  0999 V2000
   44.8770   35.6680   44.0000 C   0  0  0  0  0  0  0  0  0  0  0  0
   44.3740   35.2490   42.7540 C   0  0  0  0  0  0  0  0  0  0  0  0
   44.4510   33.8800   42.4390 C   0  0  0  0  0  0  0  0  0  0  0  0
   45.0060   33.0450   43.3540 N   0  0  0  0  0  0  0  0  0  0  0  0
   45.4860   33.4860   44.5560 C   0  0  0  0  0  0  0  0  0  0  0  0
   45.4090   34.8020   44.8530 N   0  0  0  0  0  0  0  0  0  0  0  0
   43.9400   35.9590   42.0580 H   0  0  0  0  0  0  0  0  0  0  0  0
   44.0790   33.5150   41.4990 H   0  0  0  0  0  0  0  0  0  0  0  0
   46.0780   32.5690   45.5230 C   0  0  0  0  0  0  0  0  0  0  0  0
   46.0620   31.2100   45.2450 C   0  0  0  0  0  3  0  0  0  0  0  0
   46.6250   30.3320   46.1650 C   0  0  0  0  0  0  0  0  0  0  0  0
   46.6190   29.2690   45.9590 H   0  0  0  0  0  0  0  0  0  0  0  0
   47.1510   30.8750   47.2710 N   0  0  0  0  0  0  0  0  0  0  0  0
   47.1820   32.1700   47.5650 C   0  0  0  0  0  3  0  0  0  0  0  0
   46.6330   33.0400   46.6700 N   0  0  0  0  0  0  0  0  0  0  0  0
   44.7940   37.0850   44.3220 C   0  0  0  0  0  3  0  0  0  0  0  0
   45.4220   37.9620   43.5680 C   0  0  0  0  0  3  0  0  0  0  0  0
   45.3860   39.4180   43.8300 C   0  0  0  0  0  0  0  0  0  0  0  0
   45.1330   39.6410   44.8730 H   0  0  0  0  0  0  0  0  0  0  0  0
   44.6030   39.8620   43.2030 H   0  0  0  0  0  0  0  0  0  0  0  0
   46.3900   39.8750   43.6470 H   0  0  0  0  0  0  0  0  0  0  0  0
  1 16  1  0  0  0  0
  1  6  1  0  0  0  0
  2  1  2  0  0  0  0
  3  2  1  0  0  0  0
  3  4  2  0  0  0  0
  4  5  1  0  0  0  0
  5  6  2  0  0  0  0
  5  9  1  0  0  0  0
  7  2  1  0  0  0  0
  8  3  1  0  0  0  0
  9 15  1  0  0  0  0
 10  9  2  0  0  0  0
 10 11  1  0  0  0  0
 11 13  2  0  0  0  0
 12 11  1  0  0  0  0
 13 14  1  0  0  0  0
 15 14  2  0  0  0  0
 17 18  1  0  0  0  0
 17 16  2  0  0  0  0
 18 19  1  0  0  0  0
 20 18  1  0  0  0  0
 21 18  1  0  0  0  0
M  END
>  <minimizedAffinity>
-3.61664844

>  <minimizedRMSD>
1.3222729

$$$$
