
 OpenBabel03242516513D

 43 46  0  0  1  0  0  0  0  0999 V2000
   47.8220   32.8780   41.8100 C   0  0  1  0  0  0  0  0  0  0  0  0
   47.4950   32.2270   40.5410 C   0  0  0  0  0  0  0  0  0  0  0  0
   48.5030   32.7430   39.5200 C   0  0  0  0  0  0  0  0  0  0  0  0
   48.1620   34.1880   39.2670 C   0  0  0  0  0  0  0  0  0  0  0  0
   48.1060   35.0250   40.5080 C   0  0  0  0  0  0  0  0  0  0  0  0
   47.6200   34.3960   41.7450 C   0  0  1  0  0  0  0  0  0  0  0  0
   48.9410   32.7970   41.9760 H   0  0  0  0  0  0  0  0  0  0  0  0
   46.4930   32.4180   40.1660 H   0  0  0  0  0  0  0  0  0  0  0  0
   47.6130   31.1190   40.6810 H   0  0  0  0  0  0  0  0  0  0  0  0
   49.5460   32.6270   39.8570 H   0  0  0  0  0  0  0  0  0  0  0  0
   48.2760   32.2120   38.5600 H   0  0  0  0  0  0  0  0  0  0  0  0
   47.2040   34.2330   38.6780 H   0  0  0  0  0  0  0  0  0  0  0  0
   48.9460   34.5760   38.5800 H   0  0  0  0  0  0  0  0  0  0  0  0
   49.1320   35.4730   40.6430 H   0  0  0  0  0  0  0  0  0  0  0  0
   47.4710   35.9140   40.2720 H   0  0  0  0  0  0  0  0  0  0  0  0
   48.2210   34.7970   42.6060 H   0  0  0  0  0  0  0  0  0  0  0  0
   45.4230   30.9550   43.9990 C   0  0  0  0  0  0  0  0  0  0  0  0
   46.0890   31.4940   42.8960 C   0  0  0  0  0  0  0  0  0  0  0  0
   47.1840   32.3540   42.9990 C   0  0  0  0  0  0  0  0  0  0  0  0
   47.5740   32.6450   44.2410 N   0  0  0  0  0  0  0  0  0  0  0  0
   46.9350   32.1270   45.3210 C   0  0  0  0  0  0  0  0  0  0  0  0
   45.8890   31.3050   45.2160 N   0  0  0  0  0  0  0  0  0  0  0  0
   44.5940   30.3030   43.8750 H   0  0  0  0  0  0  0  0  0  0  0  0
   45.7280   31.2230   41.8930 H   0  0  0  0  0  0  0  0  0  0  0  0
   47.3130   32.4130   46.2950 H   0  0  0  0  0  0  0  0  0  0  0  0
   46.2380   34.7670   42.0600 C   0  0  0  0  0  0  0  0  0  0  0  0
   45.7990   35.3750   43.2390 C   0  0  0  0  0  0  0  0  0  0  0  0
   44.4320   35.6530   43.3150 C   0  0  0  0  0  0  0  0  0  0  0  0
   43.6400   35.3090   42.2320 C   0  0  0  0  0  0  0  0  0  0  0  0
   44.0920   34.7060   41.0680 C   0  0  0  0  0  0  0  0  0  0  0  0
   45.4310   34.4470   41.0240 N   0  0  0  0  0  0  0  0  0  0  0  0
   46.5380   35.5750   43.9810 H   0  0  0  0  0  0  0  0  0  0  0  0
   44.0810   36.1140   44.2050 H   0  0  0  0  0  0  0  0  0  0  0  0
   42.5850   35.5470   42.3420 H   0  0  0  0  0  0  0  0  0  0  0  0
   43.1660   34.3920   39.9880 C   0  0  0  0  0  0  0  0  0  0  0  0
   42.6540   35.3750   39.3630 O   0  0  0  0  0  0  0  0  0  0  0  0
   42.7450   33.0750   39.5250 C   0  0  0  0  0  0  0  0  0  0  0  0
   42.7780   32.0350   40.4270 C   0  0  0  0  0  3  0  0  0  0  0  0
   42.3830   30.7560   40.0170 C   0  0  0  0  0  0  0  0  0  0  0  0
   42.3990   29.9210   40.7070 H   0  0  0  0  0  0  0  0  0  0  0  0
   41.9740   30.5660   38.7330 N   0  0  0  0  0  0  0  0  0  0  0  0
   41.9420   31.5670   37.8640 C   0  0  0  0  0  3  0  0  0  0  0  0
   42.3220   32.7590   38.2910 N   0  0  0  0  0  0  0  0  0  0  0  0
  1  7  1  1  0  0  0
  1 19  1  0  0  0  0
  2  9  1  0  0  0  0
  2  1  1  0  0  0  0
  3 10  1  0  0  0  0
  3  2  1  0  0  0  0
  4  3  1  0  0  0  0
  4  5  1  0  0  0  0
  5 14  1  0  0  0  0
  5  6  1  0  0  0  0
  6  1  1  0  0  0  0
  6 26  1  0  0  0  0
  6 16  1  1  0  0  0
  8  2  1  0  0  0  0
 11  3  1  0  0  0  0
 12  4  1  0  0  0  0
 13  4  1  0  0  0  0
 15  5  1  0  0  0  0
 17 22  1  0  0  0  0
 18 19  1  0  0  0  0
 18 17  2  0  0  0  0
 19 20  2  0  0  0  0
 20 21  1  0  0  0  0
 21 25  1  0  0  0  0
 22 21  2  0  0  0  0
 23 17  1  0  0  0  0
 24 18  1  0  0  0  0
 26 27  1  0  0  0  0
 27 28  2  0  0  0  0
 27 32  1  0  0  0  0
 28 33  1  0  0  0  0
 29 34  1  0  0  0  0
 29 28  1  0  0  0  0
 30 29  2  0  0  0  0
 31 30  1  0  0  0  0
 31 26  2  0  0  0  0
 35 30  1  0  0  0  0
 36 35  2  0  0  0  0
 37 35  1  0  0  0  0
 37 38  1  0  0  0  0
 39 38  2  0  0  0  0
 39 40  1  0  0  0  0
 41 39  1  0  0  0  0
 42 43  1  0  0  0  0
 42 41  2  0  0  0  0
 43 37  2  0  0  0  0
M  END
>  <minimizedAffinity>
-5.19796133

>  <minimizedRMSD>
0.54389745

$$$$
