
 OpenBabel03242514143D

 32 34  0  0  0  0  0  0  0  0999 V2000
   35.8800   28.2180   40.2040 C   0  0  0  0  0  0  0  0  0  0  0  0
   36.8070   27.9110   39.0790 C   0  0  0  0  0  0  0  0  0  0  0  0
   36.6580   28.8300   37.9890 C   0  0  0  0  0  0  0  0  0  0  0  0
   35.2460   29.1860   37.5390 C   0  0  0  0  0  0  0  0  0  0  0  0
   34.1990   28.9620   38.6110 C   0  0  0  0  0  0  0  0  0  0  0  0
   34.8270   29.2030   39.9830 C   0  0  0  0  0  0  0  0  0  0  0  0
   35.2760   27.2620   40.3950 H   0  0  0  0  0  0  0  0  0  0  0  0
   37.8400   27.9690   39.4770 H   0  0  0  0  0  0  0  0  0  0  0  0
   36.7270   26.8220   38.7600 H   0  0  0  0  0  0  0  0  0  0  0  0
   37.2610   29.6940   37.7980 H   0  0  0  0  0  0  0  0  0  0  0  0
   36.9930   28.1940   37.0660 H   0  0  0  0  0  0  0  0  0  0  0  0
   34.8910   28.5970   36.6710 H   0  0  0  0  0  0  0  0  0  0  0  0
   35.1800   30.2470   37.2050 H   0  0  0  0  0  0  0  0  0  0  0  0
   33.7420   27.9710   38.5620 H   0  0  0  0  0  0  0  0  0  0  0  0
   33.3950   29.7200   38.4990 H   0  0  0  0  0  0  0  0  0  0  0  0
   33.9820   29.0090   40.7180 H   0  0  0  0  0  0  0  0  0  0  0  0
   34.9920   30.2530   40.0100 H   0  0  0  0  0  0  0  0  0  0  0  0
   36.5700   28.4220   41.4660 C   0  0  0  0  0  0  0  0  0  0  0  0
   37.4000   29.5280   41.4490 C   0  0  0  0  0  0  0  0  0  0  0  0
   38.1700   29.6990   42.6030 C   0  0  0  0  0  0  0  0  0  0  0  0
   38.0500   28.8070   43.6220 N   0  0  0  0  0  0  0  0  0  0  0  0
   37.2220   27.7500   43.5970 C   0  0  0  0  0  0  0  0  0  0  0  0
   36.4800   27.5600   42.5100 N   0  0  0  0  0  0  0  0  0  0  0  0
   38.8990   30.4180   42.9250 H   0  0  0  0  0  0  0  0  0  0  0  0
   37.0750   27.0180   44.3570 H   0  0  0  0  0  0  0  0  0  0  0  0
   37.8060   30.6520   40.6380 C   0  0  0  0  0  0  0  0  0  0  0  0
   37.0880   31.8320   40.4790 C   0  0  0  0  0  3  0  0  0  0  0  0
   37.4800   32.9540   39.7850 C   0  0  0  0  0  0  0  0  0  0  0  0
   36.9020   33.8350   39.6850 H   0  0  0  0  0  0  0  0  0  0  0  0
   38.6940   32.8190   39.2320 N   0  0  0  0  0  0  0  0  0  0  0  0
   39.4500   31.7220   39.3370 C   0  0  0  0  0  3  0  0  0  0  0  0
   39.0180   30.6600   40.0260 N   0  0  0  0  0  0  0  0  0  0  0  0
  1  7  1  0  0  0  0
  1 18  1  0  0  0  0
  2  8  1  0  0  0  0
  2  1  1  0  0  0  0
  3  2  1  0  0  0  0
  4  3  1  0  0  0  0
  4  5  1  0  0  0  0
  5  6  1  0  0  0  0
  6 17  1  0  0  0  0
  6  1  1  0  0  0  0
  6 16  1  0  0  0  0
  9  2  1  0  0  0  0
 10  3  1  0  0  0  0
 11  3  1  0  0  0  0
 12  4  1  0  0  0  0
 13  4  1  0  0  0  0
 14  5  1  0  0  0  0
 15  5  1  0  0  0  0
 18 23  1  0  0  0  0
 19 18  2  0  0  0  0
 19 20  1  0  0  0  0
 20 24  1  0  0  0  0
 20 21  2  0  0  0  0
 22 21  1  0  0  0  0
 22 25  1  0  0  0  0
 23 22  2  0  0  0  0
 26 19  1  0  0  0  0
 27 26  1  0  0  0  0
 28 27  2  0  0  0  0
 29 28  1  0  0  0  0
 30 31  2  0  0  0  0
 30 28  1  0  0  0  0
 31 32  1  0  0  0  0
 32 26  2  0  0  0  0
M  END
>  <minimizedAffinity>
-5.16764593

$$$$

 OpenBabel03242514143D

 32 34  0  0  0  0  0  0  0  0999 V2000
   35.9480   29.6360   39.5560 C   0  0  0  0  0  0  0  0  0  0  0  0
   34.5100   29.2630   39.4480 C   0  0  0  0  0  0  0  0  0  0  0  0
   34.2580   28.3940   38.3360 C   0  0  0  0  0  0  0  0  0  0  0  0
   34.9030   28.7360   36.9980 C   0  0  0  0  0  0  0  0  0  0  0  0
   36.1310   29.6130   37.1300 C   0  0  0  0  0  0  0  0  0  0  0  0
   36.8350   29.2960   38.4490 C   0  0  0  0  0  0  0  0  0  0  0  0
   35.9860   30.7820   39.5480 H   0  0  0  0  0  0  0  0  0  0  0  0
   34.2290   28.7520   40.3910 H   0  0  0  0  0  0  0  0  0  0  0  0
   33.8400   30.1820   39.4580 H   0  0  0  0  0  0  0  0  0  0  0  0
   34.1790   27.3260   38.3680 H   0  0  0  0  0  0  0  0  0  0  0  0
   33.1430   28.6290   38.0710 H   0  0  0  0  0  0  0  0  0  0  0  0
   34.2370   29.2870   36.3070 H   0  0  0  0  0  0  0  0  0  0  0  0
   35.1910   27.8160   36.4390 H   0  0  0  0  0  0  0  0  0  0  0  0
   35.9060   30.6790   37.0590 H   0  0  0  0  0  0  0  0  0  0  0  0
   36.8510   29.3560   36.3240 H   0  0  0  0  0  0  0  0  0  0  0  0
   37.7310   29.9950   38.4670 H   0  0  0  0  0  0  0  0  0  0  0  0
   37.2370   28.3220   38.2990 H   0  0  0  0  0  0  0  0  0  0  0  0
   36.5240   29.3020   40.8470 C   0  0  0  0  0  0  0  0  0  0  0  0
   37.5190   30.1800   41.2330 C   0  0  0  0  0  0  0  0  0  0  0  0
   38.1790   29.8340   42.4160 C   0  0  0  0  0  0  0  0  0  0  0  0
   37.8070   28.7080   43.0810 N   0  0  0  0  0  0  0  0  0  0  0  0
   36.8260   27.8880   42.6710 C   0  0  0  0  0  0  0  0  0  0  0  0
   36.1830   28.1900   41.5470 N   0  0  0  0  0  0  0  0  0  0  0  0
   38.9760   30.2650   42.9900 H   0  0  0  0  0  0  0  0  0  0  0  0
   36.4810   26.9960   43.1420 H   0  0  0  0  0  0  0  0  0  0  0  0
   38.1880   31.4040   40.8540 C   0  0  0  0  0  0  0  0  0  0  0  0
   37.5620   32.5470   40.3700 C   0  0  0  0  0  3  0  0  0  0  0  0
   38.1530   33.7550   40.0790 C   0  0  0  0  0  0  0  0  0  0  0  0
   37.6410   34.6050   39.7090 H   0  0  0  0  0  0  0  0  0  0  0  0
   39.4740   33.7520   40.3140 N   0  0  0  0  0  0  0  0  0  0  0  0
   40.1520   32.6990   40.7790 C   0  0  0  0  0  3  0  0  0  0  0  0
   39.5240   31.5480   41.0460 N   0  0  0  0  0  0  0  0  0  0  0  0
  1 18  1  0  0  0  0
  2  9  1  0  0  0  0
  2  1  1  0  0  0  0
  2  8  1  0  0  0  0
  3 10  1  0  0  0  0
  3  2  1  0  0  0  0
  4  5  1  0  0  0  0
  4  3  1  0  0  0  0
  5  6  1  0  0  0  0
  6 16  1  0  0  0  0
  6  1  1  0  0  0  0
  7  1  1  0  0  0  0
 11  3  1  0  0  0  0
 12  4  1  0  0  0  0
 13  4  1  0  0  0  0
 14  5  1  0  0  0  0
 15  5  1  0  0  0  0
 17  6  1  0  0  0  0
 18 19  2  0  0  0  0
 18 23  1  0  0  0  0
 19 20  1  0  0  0  0
 20 24  1  0  0  0  0
 20 21  2  0  0  0  0
 22 21  1  0  0  0  0
 22 25  1  0  0  0  0
 23 22  2  0  0  0  0
 26 32  1  0  0  0  0
 26 19  1  0  0  0  0
 27 26  2  0  0  0  0
 28 30  2  0  0  0  0
 28 27  1  0  0  0  0
 29 28  1  0  0  0  0
 30 31  1  0  0  0  0
 31 32  2  0  0  0  0
M  END
>  <minimizedAffinity>
-4.96314859

$$$$

 OpenBabel03242514143D

 32 34  0  0  0  0  0  0  0  0999 V2000
   37.8960   30.7370   40.4420 C   0  0  0  0  0  0  0  0  0  0  0  0
   39.3390   31.0850   40.3190 C   0  0  0  0  0  0  0  0  0  0  0  0
   39.5810   32.4810   40.5400 C   0  0  0  0  0  0  0  0  0  0  0  0
   38.6500   33.4840   39.8710 C   0  0  0  0  0  0  0  0  0  0  0  0
   37.2980   32.9020   39.5090 C   0  0  0  0  0  0  0  0  0  0  0  0
   36.9280   31.8240   40.5270 C   0  0  0  0  0  0  0  0  0  0  0  0
   37.6010   30.2300   39.4570 H   0  0  0  0  0  0  0  0  0  0  0  0
   39.8900   30.4880   41.0730 H   0  0  0  0  0  0  0  0  0  0  0  0
   39.7760   30.7060   39.3390 H   0  0  0  0  0  0  0  0  0  0  0  0
   39.9030   32.9330   41.4560 H   0  0  0  0  0  0  0  0  0  0  0  0
   40.5490   32.6790   39.9150 H   0  0  0  0  0  0  0  0  0  0  0  0
   39.0420   33.8960   38.9200 H   0  0  0  0  0  0  0  0  0  0  0  0
   38.4820   34.3770   40.5160 H   0  0  0  0  0  0  0  0  0  0  0  0
   37.2620   32.5040   38.4920 H   0  0  0  0  0  0  0  0  0  0  0  0
   36.5250   33.6940   39.5990 H   0  0  0  0  0  0  0  0  0  0  0  0
   35.9160   31.4430   40.1790 H   0  0  0  0  0  0  0  0  0  0  0  0
   36.7360   32.3680   41.4200 H   0  0  0  0  0  0  0  0  0  0  0  0
   37.6480   29.6980   41.4270 C   0  0  0  0  0  0  0  0  0  0  0  0
   36.6990   28.7830   41.0120 C   0  0  0  0  0  0  0  0  0  0  0  0
   36.3450   27.8300   41.9730 C   0  0  0  0  0  0  0  0  0  0  0  0
   36.9390   27.8650   43.1950 N   0  0  0  0  0  0  0  0  0  0  0  0
   37.8640   28.7710   43.5510 C   0  0  0  0  0  0  0  0  0  0  0  0
   38.2180   29.6910   42.6590 N   0  0  0  0  0  0  0  0  0  0  0  0
   35.6650   27.0010   41.9990 H   0  0  0  0  0  0  0  0  0  0  0  0
   38.3710   28.8540   44.4850 H   0  0  0  0  0  0  0  0  0  0  0  0
   35.8730   28.4080   39.8880 C   0  0  0  0  0  0  0  0  0  0  0  0
   34.7350   29.0840   39.4630 C   0  0  0  0  0  3  0  0  0  0  0  0
   33.9730   28.8070   38.3510 C   0  0  0  0  0  0  0  0  0  0  0  0
   33.1090   29.3460   38.0610 H   0  0  0  0  0  0  0  0  0  0  0  0
   34.4400   27.7610   37.6540 N   0  0  0  0  0  0  0  0  0  0  0  0
   35.5250   27.0580   37.9910 C   0  0  0  0  0  3  0  0  0  0  0  0
   36.2300   27.3730   39.0840 N   0  0  0  0  0  0  0  0  0  0  0  0
  1  6  1  0  0  0  0
  1 18  1  0  0  0  0
  2  1  1  0  0  0  0
  2  3  1  0  0  0  0
  2  8  1  0  0  0  0
  3 10  1  0  0  0  0
  4 13  1  0  0  0  0
  4  3  1  0  0  0  0
  5 15  1  0  0  0  0
  5  4  1  0  0  0  0
  5  6  1  0  0  0  0
  6 17  1  0  0  0  0
  7  1  1  0  0  0  0
  9  2  1  0  0  0  0
 11  3  1  0  0  0  0
 12  4  1  0  0  0  0
 14  5  1  0  0  0  0
 16  6  1  0  0  0  0
 18 23  1  0  0  0  0
 19 18  2  0  0  0  0
 19 20  1  0  0  0  0
 20 24  1  0  0  0  0
 20 21  2  0  0  0  0
 21 22  1  0  0  0  0
 22 25  1  0  0  0  0
 23 22  2  0  0  0  0
 26 19  1  0  0  0  0
 27 26  1  0  0  0  0
 28 27  2  0  0  0  0
 29 28  1  0  0  0  0
 30 31  2  0  0  0  0
 30 28  1  0  0  0  0
 31 32  1  0  0  0  0
 32 26  2  0  0  0  0
M  END
>  <minimizedAffinity>
-4.86596918

$$$$

 OpenBabel03242514143D

 32 34  0  0  0  0  0  0  0  0999 V2000
   37.5330   28.8460   41.3410 C   0  0  0  0  0  0  0  0  0  0  0  0
   38.9630   28.4310   41.3240 C   0  0  0  0  0  0  0  0  0  0  0  0
   39.2080   27.2970   42.1660 C   0  0  0  0  0  0  0  0  0  0  0  0
   38.5850   27.2880   43.5560 C   0  0  0  0  0  0  0  0  0  0  0  0
   37.3750   28.1920   43.6790 C   0  0  0  0  0  0  0  0  0  0  0  0
   36.6500   28.2440   42.3340 C   0  0  0  0  0  0  0  0  0  0  0  0
   37.5200   29.9500   41.6490 H   0  0  0  0  0  0  0  0  0  0  0  0
   39.2230   28.1800   40.2760 H   0  0  0  0  0  0  0  0  0  0  0  0
   39.6530   29.3090   41.5440 H   0  0  0  0  0  0  0  0  0  0  0  0
   39.2640   26.2740   41.8540 H   0  0  0  0  0  0  0  0  0  0  0  0
   40.3310   27.4340   42.4650 H   0  0  0  0  0  0  0  0  0  0  0  0
   39.2710   27.6270   44.3570 H   0  0  0  0  0  0  0  0  0  0  0  0
   38.2830   26.2600   43.8610 H   0  0  0  0  0  0  0  0  0  0  0  0
   37.6250   29.1980   44.0230 H   0  0  0  0  0  0  0  0  0  0  0  0
   36.6590   27.7460   44.4010 H   0  0  0  0  0  0  0  0  0  0  0  0
   35.7700   28.9400   42.5140 H   0  0  0  0  0  0  0  0  0  0  0  0
   36.2290   27.2730   42.2310 H   0  0  0  0  0  0  0  0  0  0  0  0
   36.9360   28.8720   40.0160 C   0  0  0  0  0  0  0  0  0  0  0  0
   37.1530   30.0670   39.3560 C   0  0  0  0  0  0  0  0  0  0  0  0
   36.5020   30.1810   38.1230 C   0  0  0  0  0  0  0  0  0  0  0  0
   35.7390   29.1480   37.6760 N   0  0  0  0  0  0  0  0  0  0  0  0
   35.5640   28.0010   38.3510 C   0  0  0  0  0  0  0  0  0  0  0  0
   36.1680   27.8660   39.5270 N   0  0  0  0  0  0  0  0  0  0  0  0
   36.4440   30.9400   37.3670 H   0  0  0  0  0  0  0  0  0  0  0  0
   34.9860   27.1540   38.0590 H   0  0  0  0  0  0  0  0  0  0  0  0
   37.8410   31.3330   39.4580 C   0  0  0  0  0  0  0  0  0  0  0  0
   37.2460   32.5510   39.7680 C   0  0  0  0  0  3  0  0  0  0  0  0
   37.8780   33.7590   39.9560 C   0  0  0  0  0  0  0  0  0  0  0  0
   37.3880   34.6670   40.1910 H   0  0  0  0  0  0  0  0  0  0  0  0
   39.2090   33.6720   39.8090 N   0  0  0  0  0  0  0  0  0  0  0  0
   39.8600   32.5430   39.5130 C   0  0  0  0  0  3  0  0  0  0  0  0
   39.1930   31.3960   39.3420 N   0  0  0  0  0  0  0  0  0  0  0  0
  1  7  1  0  0  0  0
  1  6  1  0  0  0  0
  2  1  1  0  0  0  0
  2  9  1  0  0  0  0
  2  3  1  0  0  0  0
  3 11  1  0  0  0  0
  3  4  1  0  0  0  0
  4  5  1  0  0  0  0
  4 13  1  0  0  0  0
  4 12  1  0  0  0  0
  5 14  1  0  0  0  0
  5 15  1  0  0  0  0
  6 16  1  0  0  0  0
  6  5  1  0  0  0  0
  8  2  1  0  0  0  0
 10  3  1  0  0  0  0
 17  6  1  0  0  0  0
 18  1  1  0  0  0  0
 19 26  1  0  0  0  0
 19 18  2  0  0  0  0
 20 19  1  0  0  0  0
 21 20  2  0  0  0  0
 21 22  1  0  0  0  0
 22 23  2  0  0  0  0
 23 18  1  0  0  0  0
 24 20  1  0  0  0  0
 25 22  1  0  0  0  0
 26 27  1  0  0  0  0
 27 28  2  0  0  0  0
 28 29  1  0  0  0  0
 30 28  1  0  0  0  0
 31 30  2  0  0  0  0
 32 26  2  0  0  0  0
 32 31  1  0  0  0  0
M  END
>  <minimizedAffinity>
-4.86126995

$$$$

 OpenBabel03242514143D

 32 34  0  0  0  0  0  0  0  0999 V2000
   37.4440   30.8460   39.6900 C   0  0  0  0  0  0  0  0  0  0  0  0
   36.2120   30.9040   40.5260 C   0  0  0  0  0  0  0  0  0  0  0  0
   35.4050   29.7280   40.3840 C   0  0  0  0  0  0  0  0  0  0  0  0
   35.1650   29.1890   38.9790 C   0  0  0  0  0  0  0  0  0  0  0  0
   36.2200   29.6210   37.9810 C   0  0  0  0  0  0  0  0  0  0  0  0
   37.5580   29.7790   38.7020 C   0  0  0  0  0  0  0  0  0  0  0  0
   37.4300   31.7830   39.0280 H   0  0  0  0  0  0  0  0  0  0  0  0
   36.5340   31.0100   41.5820 H   0  0  0  0  0  0  0  0  0  0  0  0
   35.6340   31.8680   40.3470 H   0  0  0  0  0  0  0  0  0  0  0  0
   35.3950   28.8800   41.0380 H   0  0  0  0  0  0  0  0  0  0  0  0
   34.3290   30.1230   40.6180 H   0  0  0  0  0  0  0  0  0  0  0  0
   34.2050   29.5120   38.5320 H   0  0  0  0  0  0  0  0  0  0  0  0
   35.1180   28.0750   38.9730 H   0  0  0  0  0  0  0  0  0  0  0  0
   35.9560   30.5380   37.4490 H   0  0  0  0  0  0  0  0  0  0  0  0
   36.3640   28.8150   37.2310 H   0  0  0  0  0  0  0  0  0  0  0  0
   38.2800   30.1070   37.8880 H   0  0  0  0  0  0  0  0  0  0  0  0
   37.8380   28.7830   38.9470 H   0  0  0  0  0  0  0  0  0  0  0  0
   38.6610   31.0140   40.4640 C   0  0  0  0  0  0  0  0  0  0  0  0
   38.8110   30.0480   41.4410 C   0  0  0  0  0  0  0  0  0  0  0  0
   39.9110   30.2350   42.2850 C   0  0  0  0  0  0  0  0  0  0  0  0
   40.7260   31.3060   42.0890 N   0  0  0  0  0  0  0  0  0  0  0  0
   40.5440   32.2150   41.1190 C   0  0  0  0  0  0  0  0  0  0  0  0
   39.5050   32.0650   40.3030 N   0  0  0  0  0  0  0  0  0  0  0  0
   40.3170   29.7040   43.1240 H   0  0  0  0  0  0  0  0  0  0  0  0
   41.1430   33.0720   40.9060 H   0  0  0  0  0  0  0  0  0  0  0  0
   38.2250   28.8350   41.9640 C   0  0  0  0  0  0  0  0  0  0  0  0
   37.5120   28.7320   43.1530 C   0  0  0  0  0  3  0  0  0  0  0  0
   36.8700   27.6170   43.6410 C   0  0  0  0  0  0  0  0  0  0  0  0
   36.3380   27.5780   44.5540 H   0  0  0  0  0  0  0  0  0  0  0  0
   36.9890   26.5570   42.8270 N   0  0  0  0  0  0  0  0  0  0  0  0
   37.6540   26.5710   41.6680 C   0  0  0  0  0  3  0  0  0  0  0  0
   38.2590   27.6860   41.2420 N   0  0  0  0  0  0  0  0  0  0  0  0
  1 18  1  0  0  0  0
  1  2  1  0  0  0  0
  2  8  1  0  0  0  0
  3  2  1  0  0  0  0
  3 11  1  0  0  0  0
  3 10  1  0  0  0  0
  4  3  1  0  0  0  0
  5  6  1  0  0  0  0
  5  4  1  0  0  0  0
  6 17  1  0  0  0  0
  6  1  1  0  0  0  0
  7  1  1  0  0  0  0
  9  2  1  0  0  0  0
 12  4  1  0  0  0  0
 13  4  1  0  0  0  0
 14  5  1  0  0  0  0
 15  5  1  0  0  0  0
 16  6  1  0  0  0  0
 18 19  1  0  0  0  0
 19 26  1  0  0  0  0
 19 20  2  0  0  0  0
 20 24  1  0  0  0  0
 21 20  1  0  0  0  0
 22 21  2  0  0  0  0
 23 18  2  0  0  0  0
 23 22  1  0  0  0  0
 25 22  1  0  0  0  0
 26 27  1  0  0  0  0
 27 28  2  0  0  0  0
 28 29  1  0  0  0  0
 30 28  1  0  0  0  0
 31 30  2  0  0  0  0
 32 31  1  0  0  0  0
 32 26  2  0  0  0  0
M  END
>  <minimizedAffinity>
-4.77326727

$$$$

 OpenBabel03242514143D

 32 34  0  0  0  0  0  0  0  0999 V2000
   38.1590   29.3530   41.2360 C   0  0  0  0  0  0  0  0  0  0  0  0
   37.1550   29.0110   42.2810 C   0  0  0  0  0  0  0  0  0  0  0  0
   37.7680   28.5700   43.4990 C   0  0  0  0  0  0  0  0  0  0  0  0
   38.9160   27.5720   43.4040 C   0  0  0  0  0  0  0  0  0  0  0  0
   39.6100   27.5810   42.0570 C   0  0  0  0  0  0  0  0  0  0  0  0
   39.5530   28.9920   41.4730 C   0  0  0  0  0  0  0  0  0  0  0  0
   37.9010   28.7160   40.3180 H   0  0  0  0  0  0  0  0  0  0  0  0
   36.5550   29.9230   42.4750 H   0  0  0  0  0  0  0  0  0  0  0  0
   36.3740   28.2830   41.8850 H   0  0  0  0  0  0  0  0  0  0  0  0
   37.9610   29.1680   44.3670 H   0  0  0  0  0  0  0  0  0  0  0  0
   36.9520   27.8720   43.9630 H   0  0  0  0  0  0  0  0  0  0  0  0
   38.6080   26.5190   43.5550 H   0  0  0  0  0  0  0  0  0  0  0  0
   39.6830   27.7570   44.1910 H   0  0  0  0  0  0  0  0  0  0  0  0
   39.1940   26.8550   41.3560 H   0  0  0  0  0  0  0  0  0  0  0  0
   40.6860   27.3470   42.2000 H   0  0  0  0  0  0  0  0  0  0  0  0
   40.0850   28.9060   40.4730 H   0  0  0  0  0  0  0  0  0  0  0  0
   40.2050   29.5560   42.0950 H   0  0  0  0  0  0  0  0  0  0  0  0
   38.0170   30.7100   40.7390 C   0  0  0  0  0  0  0  0  0  0  0  0
   37.1930   30.7910   39.6320 C   0  0  0  0  0  0  0  0  0  0  0  0
   37.1160   32.0610   39.0510 C   0  0  0  0  0  0  0  0  0  0  0  0
   37.8230   33.0860   39.5960 N   0  0  0  0  0  0  0  0  0  0  0  0
   38.6070   32.9610   40.6790 C   0  0  0  0  0  0  0  0  0  0  0  0
   38.7010   31.7650   41.2510 N   0  0  0  0  0  0  0  0  0  0  0  0
   36.5960   32.4760   38.2090 H   0  0  0  0  0  0  0  0  0  0  0  0
   39.1830   33.7190   41.1590 H   0  0  0  0  0  0  0  0  0  0  0  0
   36.3190   30.0120   38.7850 C   0  0  0  0  0  0  0  0  0  0  0  0
   35.1310   29.4120   39.1870 C   0  0  0  0  0  3  0  0  0  0  0  0
   34.2340   28.7350   38.3930 C   0  0  0  0  0  0  0  0  0  0  0  0
   33.3380   28.2900   38.7390 H   0  0  0  0  0  0  0  0  0  0  0  0
   34.6150   28.6920   37.1080 N   0  0  0  0  0  0  0  0  0  0  0  0
   35.7380   29.2430   36.6380 C   0  0  0  0  0  3  0  0  0  0  0  0
   36.5740   29.8910   37.4570 N   0  0  0  0  0  0  0  0  0  0  0  0
  1  6  1  0  0  0  0
  1  2  1  0  0  0  0
  2  8  1  0  0  0  0
  2  3  1  0  0  0  0
  3 11  1  0  0  0  0
  3 10  1  0  0  0  0
  4  3  1  0  0  0  0
  4 12  1  0  0  0  0
  4 13  1  0  0  0  0
  5 15  1  0  0  0  0
  5  4  1  0  0  0  0
  6  5  1  0  0  0  0
  6 17  1  0  0  0  0
  7  1  1  0  0  0  0
  9  2  1  0  0  0  0
 14  5  1  0  0  0  0
 16  6  1  0  0  0  0
 18  1  1  0  0  0  0
 18 23  1  0  0  0  0
 19 18  2  0  0  0  0
 20 21  2  0  0  0  0
 20 19  1  0  0  0  0
 21 22  1  0  0  0  0
 22 25  1  0  0  0  0
 22 23  2  0  0  0  0
 24 20  1  0  0  0  0
 26 27  1  0  0  0  0
 26 19  1  0  0  0  0
 28 29  1  0  0  0  0
 28 27  2  0  0  0  0
 30 28  1  0  0  0  0
 31 30  2  0  0  0  0
 31 32  1  0  0  0  0
 32 26  2  0  0  0  0
M  END
>  <minimizedAffinity>
-4.74382877

$$$$

 OpenBabel03242514143D

 32 34  0  0  0  0  0  0  0  0999 V2000
   36.5670   28.0650   40.8820 C   0  0  0  0  0  0  0  0  0  0  0  0
   36.3800   27.8800   42.3480 C   0  0  0  0  0  0  0  0  0  0  0  0
   37.2290   26.8520   42.8770 C   0  0  0  0  0  0  0  0  0  0  0  0
   37.3360   25.5430   42.1040 C   0  0  0  0  0  0  0  0  0  0  0  0
   36.9790   25.6790   40.6380 C   0  0  0  0  0  0  0  0  0  0  0  0
   37.3610   27.0780   40.1570 C   0  0  0  0  0  0  0  0  0  0  0  0
   35.5320   27.9350   40.4060 H   0  0  0  0  0  0  0  0  0  0  0  0
   36.6180   28.8460   42.8370 H   0  0  0  0  0  0  0  0  0  0  0  0
   35.2840   27.7330   42.6130 H   0  0  0  0  0  0  0  0  0  0  0  0
   38.1730   26.9940   43.3620 H   0  0  0  0  0  0  0  0  0  0  0  0
   36.6280   26.4720   43.8060 H   0  0  0  0  0  0  0  0  0  0  0  0
   36.6710   24.7430   42.4830 H   0  0  0  0  0  0  0  0  0  0  0  0
   38.3620   25.1130   42.1730 H   0  0  0  0  0  0  0  0  0  0  0  0
   35.9260   25.4730   40.4330 H   0  0  0  0  0  0  0  0  0  0  0  0
   37.5920   24.9680   40.0460 H   0  0  0  0  0  0  0  0  0  0  0  0
   37.0550   27.0940   39.0620 H   0  0  0  0  0  0  0  0  0  0  0  0
   38.4240   27.0690   40.1560 H   0  0  0  0  0  0  0  0  0  0  0  0
   36.9190   29.4280   40.5250 C   0  0  0  0  0  0  0  0  0  0  0  0
   36.4150   29.8050   39.2940 C   0  0  0  0  0  0  0  0  0  0  0  0
   36.8230   31.0700   38.8580 C   0  0  0  0  0  0  0  0  0  0  0  0
   37.6470   31.8120   39.6450 N   0  0  0  0  0  0  0  0  0  0  0  0
   38.1060   31.4050   40.8390 C   0  0  0  0  0  0  0  0  0  0  0  0
   37.7370   30.2050   41.2780 N   0  0  0  0  0  0  0  0  0  0  0  0
   36.6370   31.6630   37.9830 H   0  0  0  0  0  0  0  0  0  0  0  0
   38.7480   31.9340   41.5060 H   0  0  0  0  0  0  0  0  0  0  0  0
   35.5700   29.3630   38.2090 C   0  0  0  0  0  0  0  0  0  0  0  0
   34.2410   28.9720   38.3300 C   0  0  0  0  0  3  0  0  0  0  0  0
   33.3830   28.6260   37.3120 C   0  0  0  0  0  0  0  0  0  0  0  0
   32.3750   28.3310   37.4450 H   0  0  0  0  0  0  0  0  0  0  0  0
   33.9620   28.6980   36.1040 N   0  0  0  0  0  0  0  0  0  0  0  0
   35.2300   29.0650   35.8990 C   0  0  0  0  0  3  0  0  0  0  0  0
   36.0200   29.3920   36.9280 N   0  0  0  0  0  0  0  0  0  0  0  0
  1  2  1  0  0  0  0
  2  9  1  0  0  0  0
  2  8  1  0  0  0  0
  2  3  1  0  0  0  0
  3 10  1  0  0  0  0
  3 11  1  0  0  0  0
  4 13  1  0  0  0  0
  4 12  1  0  0  0  0
  4  3  1  0  0  0  0
  5  4  1  0  0  0  0
  6  5  1  0  0  0  0
  6  1  1  0  0  0  0
  7  1  1  0  0  0  0
 14  5  1  0  0  0  0
 15  5  1  0  0  0  0
 16  6  1  0  0  0  0
 17  6  1  0  0  0  0
 18  1  1  0  0  0  0
 18 23  1  0  0  0  0
 19 18  2  0  0  0  0
 20 19  1  0  0  0  0
 20 21  2  0  0  0  0
 21 22  1  0  0  0  0
 22 23  2  0  0  0  0
 22 25  1  0  0  0  0
 24 20  1  0  0  0  0
 26 27  1  0  0  0  0
 26 19  1  0  0  0  0
 28 29  1  0  0  0  0
 28 27  2  0  0  0  0
 30 28  1  0  0  0  0
 31 30  2  0  0  0  0
 31 32  1  0  0  0  0
 32 26  2  0  0  0  0
M  END
>  <minimizedAffinity>
-4.70222902

$$$$

 OpenBabel03242514143D

 32 34  0  0  0  0  0  0  0  0999 V2000
   37.6250   25.8690   41.5760 C   0  0  0  0  0  0  0  0  0  0  0  0
   36.8350   26.5190   42.6590 C   0  0  0  0  0  0  0  0  0  0  0  0
   37.5640   27.5710   43.3050 C   0  0  0  0  0  0  0  0  0  0  0  0
   39.0180   27.3110   43.6800 C   0  0  0  0  0  0  0  0  0  0  0  0
   39.6610   26.2080   42.8640 C   0  0  0  0  0  0  0  0  0  0  0  0
   39.0430   26.1930   41.4660 C   0  0  0  0  0  0  0  0  0  0  0  0
   37.6540   24.7500   41.8240 H   0  0  0  0  0  0  0  0  0  0  0  0
   35.9160   26.9320   42.1970 H   0  0  0  0  0  0  0  0  0  0  0  0
   36.4200   25.7510   43.3880 H   0  0  0  0  0  0  0  0  0  0  0  0
   37.4910   28.6190   43.0930 H   0  0  0  0  0  0  0  0  0  0  0  0
   37.0960   27.5910   44.3770 H   0  0  0  0  0  0  0  0  0  0  0  0
   39.1610   27.0010   44.7330 H   0  0  0  0  0  0  0  0  0  0  0  0
   39.6380   28.2310   43.5700 H   0  0  0  0  0  0  0  0  0  0  0  0
   39.5810   25.2250   43.3330 H   0  0  0  0  0  0  0  0  0  0  0  0
   40.7380   26.4380   42.7250 H   0  0  0  0  0  0  0  0  0  0  0  0
   39.5740   25.3420   40.9320 H   0  0  0  0  0  0  0  0  0  0  0  0
   39.4070   27.0840   41.0140 H   0  0  0  0  0  0  0  0  0  0  0  0
   36.9510   25.8990   40.2900 C   0  0  0  0  0  0  0  0  0  0  0  0
   36.7150   27.1850   39.8390 C   0  0  0  0  0  0  0  0  0  0  0  0
   35.9680   27.2630   38.6590 C   0  0  0  0  0  0  0  0  0  0  0  0
   35.5490   26.1170   38.0590 N   0  0  0  0  0  0  0  0  0  0  0  0
   35.8100   24.8880   38.5310 C   0  0  0  0  0  0  0  0  0  0  0  0
   36.5150   24.7830   39.6530 N   0  0  0  0  0  0  0  0  0  0  0  0
   35.6070   28.0660   38.0460 H   0  0  0  0  0  0  0  0  0  0  0  0
   35.5180   23.9520   38.1120 H   0  0  0  0  0  0  0  0  0  0  0  0
   36.9600   28.5760   40.1410 C   0  0  0  0  0  0  0  0  0  0  0  0
   36.0260   29.4640   40.6630 C   0  0  0  0  0  3  0  0  0  0  0  0
   36.2440   30.7690   41.0410 C   0  0  0  0  0  0  0  0  0  0  0  0
   35.5030   31.4150   41.4340 H   0  0  0  0  0  0  0  0  0  0  0  0
   37.5160   31.1530   40.8570 N   0  0  0  0  0  0  0  0  0  0  0  0
   38.4740   30.3640   40.3630 C   0  0  0  0  0  3  0  0  0  0  0  0
   38.2060   29.1010   40.0120 N   0  0  0  0  0  0  0  0  0  0  0  0
  1  7  1  0  0  0  0
  1  2  1  0  0  0  0
  2  3  1  0  0  0  0
  2  9  1  0  0  0  0
  3  4  1  0  0  0  0
  3 11  1  0  0  0  0
  4 12  1  0  0  0  0
  5 14  1  0  0  0  0
  5  4  1  0  0  0  0
  6  1  1  0  0  0  0
  6  5  1  0  0  0  0
  8  2  1  0  0  0  0
 10  3  1  0  0  0  0
 13  4  1  0  0  0  0
 15  5  1  0  0  0  0
 16  6  1  0  0  0  0
 17  6  1  0  0  0  0
 18  1  1  0  0  0  0
 19 26  1  0  0  0  0
 19 18  1  0  0  0  0
 20 19  2  0  0  0  0
 21 22  2  0  0  0  0
 21 20  1  0  0  0  0
 22 23  1  0  0  0  0
 23 18  2  0  0  0  0
 24 20  1  0  0  0  0
 25 22  1  0  0  0  0
 26 27  1  0  0  0  0
 27 28  2  0  0  0  0
 28 29  1  0  0  0  0
 30 28  1  0  0  0  0
 31 30  2  0  0  0  0
 32 26  2  0  0  0  0
 32 31  1  0  0  0  0
M  END
>  <minimizedAffinity>
-4.69213772

$$$$

 OpenBabel03242514143D

 32 34  0  0  0  0  0  0  0  0999 V2000
   37.0580   29.8120   39.3110 C   0  0  0  0  0  0  0  0  0  0  0  0
   37.3330   29.5060   37.8800 C   0  0  0  0  0  0  0  0  0  0  0  0
   36.1670   29.6560   37.0590 C   0  0  0  0  0  0  0  0  0  0  0  0
   34.8530   29.0750   37.5680 C   0  0  0  0  0  0  0  0  0  0  0  0
   34.8170   28.8950   39.0710 C   0  0  0  0  0  0  0  0  0  0  0  0
   35.6690   29.9810   39.7270 C   0  0  0  0  0  0  0  0  0  0  0  0
   37.3730   28.8840   39.9070 H   0  0  0  0  0  0  0  0  0  0  0  0
   38.1220   30.2060   37.5370 H   0  0  0  0  0  0  0  0  0  0  0  0
   37.8350   28.4920   37.7600 H   0  0  0  0  0  0  0  0  0  0  0  0
   35.9090   30.5130   36.4710 H   0  0  0  0  0  0  0  0  0  0  0  0
   36.3710   28.9140   36.1790 H   0  0  0  0  0  0  0  0  0  0  0  0
   34.6180   28.0730   37.1590 H   0  0  0  0  0  0  0  0  0  0  0  0
   33.9860   29.7100   37.2720 H   0  0  0  0  0  0  0  0  0  0  0  0
   35.1410   27.9020   39.3920 H   0  0  0  0  0  0  0  0  0  0  0  0
   33.7790   29.0540   39.4330 H   0  0  0  0  0  0  0  0  0  0  0  0
   35.5910   29.7680   40.8400 H   0  0  0  0  0  0  0  0  0  0  0  0
   35.1160   30.8740   39.5680 H   0  0  0  0  0  0  0  0  0  0  0  0
   37.9230   30.8490   39.8440 C   0  0  0  0  0  0  0  0  0  0  0  0
   38.4850   30.5050   41.0600 C   0  0  0  0  0  0  0  0  0  0  0  0
   39.2370   31.5180   41.6650 C   0  0  0  0  0  0  0  0  0  0  0  0
   39.3620   32.7180   41.0380 N   0  0  0  0  0  0  0  0  0  0  0  0
   38.8040   33.0040   39.8520 C   0  0  0  0  0  0  0  0  0  0  0  0
   38.0810   32.0610   39.2540 N   0  0  0  0  0  0  0  0  0  0  0  0
   39.7920   31.6020   42.5790 H   0  0  0  0  0  0  0  0  0  0  0  0
   38.8640   33.9170   39.3040 H   0  0  0  0  0  0  0  0  0  0  0  0
   38.6000   29.4250   42.0130 C   0  0  0  0  0  0  0  0  0  0  0  0
   37.5740   28.9540   42.8240 C   0  0  0  0  0  3  0  0  0  0  0  0
   37.6220   27.8780   43.6800 C   0  0  0  0  0  0  0  0  0  0  0  0
   36.8170   27.5500   44.2840 H   0  0  0  0  0  0  0  0  0  0  0  0
   38.8180   27.2700   43.6760 N   0  0  0  0  0  0  0  0  0  0  0  0
   39.8550   27.6560   42.9270 C   0  0  0  0  0  3  0  0  0  0  0  0
   39.7510   28.7110   42.1110 N   0  0  0  0  0  0  0  0  0  0  0  0
  1  6  1  0  0  0  0
  1 18  1  0  0  0  0
  1  7  1  0  0  0  0
  2  1  1  0  0  0  0
  3  4  1  0  0  0  0
  3  2  1  0  0  0  0
  4  5  1  0  0  0  0
  5 14  1  0  0  0  0
  5 15  1  0  0  0  0
  5  6  1  0  0  0  0
  6 16  1  0  0  0  0
  8  2  1  0  0  0  0
  9  2  1  0  0  0  0
 10  3  1  0  0  0  0
 11  3  1  0  0  0  0
 12  4  1  0  0  0  0
 13  4  1  0  0  0  0
 17  6  1  0  0  0  0
 18 19  1  0  0  0  0
 19 20  2  0  0  0  0
 19 26  1  0  0  0  0
 20 24  1  0  0  0  0
 21 20  1  0  0  0  0
 22 21  2  0  0  0  0
 23 18  2  0  0  0  0
 23 22  1  0  0  0  0
 25 22  1  0  0  0  0
 26 32  2  0  0  0  0
 26 27  1  0  0  0  0
 27 28  2  0  0  0  0
 28 29  1  0  0  0  0
 30 28  1  0  0  0  0
 31 30  2  0  0  0  0
 32 31  1  0  0  0  0
M  END
>  <minimizedAffinity>
-4.68953228

$$$$
