
 OpenBabel03252506183D

 21 22  0  0  0  0  0  0  0  0999 V2000
   44.8610   35.5630   43.9550 C   0  0  0  0  0  0  0  0  0  0  0  0
   44.3490   35.1510   42.7090 C   0  0  0  0  0  0  0  0  0  0  0  0
   44.4300   33.7850   42.3830 C   0  0  0  0  0  0  0  0  0  0  0  0
   44.9950   32.9450   43.2870 N   0  0  0  0  0  0  0  0  0  0  0  0
   45.4830   33.3780   44.4890 C   0  0  0  0  0  0  0  0  0  0  0  0
   45.4030   34.6910   44.7970 N   0  0  0  0  0  0  0  0  0  0  0  0
   43.9070   35.8650   42.0230 H   0  0  0  0  0  0  0  0  0  0  0  0
   44.0520   33.4260   41.4430 H   0  0  0  0  0  0  0  0  0  0  0  0
   46.0860   32.4560   45.4440 C   0  0  0  0  0  0  0  0  0  0  0  0
   46.0160   32.7600   46.7960 C   0  0  0  0  0  3  0  0  0  0  0  0
   46.5910   31.8820   47.7090 C   0  0  0  0  0  0  0  0  0  0  0  0
   46.5430   32.1080   48.7670 H   0  0  0  0  0  0  0  0  0  0  0  0
   47.1790   30.7890   47.2060 N   0  0  0  0  0  0  0  0  0  0  0  0
   47.2620   30.4720   45.9190 C   0  0  0  0  0  3  0  0  0  0  0  0
   46.7020   31.3240   45.0140 N   0  0  0  0  0  0  0  0  0  0  0  0
   44.7740   36.9760   44.2900 C   0  0  0  0  0  3  0  0  0  0  0  0
   45.4080   37.8600   43.5480 C   0  0  0  0  0  3  0  0  0  0  0  0
   45.3690   39.3130   43.8230 C   0  0  0  0  0  0  0  0  0  0  0  0
   45.1070   39.5280   44.8660 H   0  0  0  0  0  0  0  0  0  0  0  0
   44.5910   39.7630   43.1940 H   0  0  0  0  0  0  0  0  0  0  0  0
   46.3740   39.7730   43.6530 H   0  0  0  0  0  0  0  0  0  0  0  0
  1 16  1  0  0  0  0
  1  6  1  0  0  0  0
  2  1  2  0  0  0  0
  3  2  1  0  0  0  0
  3  4  2  0  0  0  0
  4  5  1  0  0  0  0
  5  6  2  0  0  0  0
  5  9  1  0  0  0  0
  7  2  1  0  0  0  0
  8  3  1  0  0  0  0
  9 10  1  0  0  0  0
 10 11  2  0  0  0  0
 11 12  1  0  0  0  0
 13 11  1  0  0  0  0
 14 13  2  0  0  0  0
 15  9  2  0  0  0  0
 15 14  1  0  0  0  0
 17 18  1  0  0  0  0
 17 16  2  0  0  0  0
 18 19  1  0  0  0  0
 20 18  1  0  0  0  0
 21 18  1  0  0  0  0
M  END
>  <minimizedAffinity>
-3.49522567

>  <minimizedRMSD>
1.20480978

$$$$
