
 OpenBabel03242519593D

 26 28  0  0  0  0  0  0  0  0999 V2000
   38.2710   28.2700   39.1790 Br  0  0  0  0  0  0  0  0  0  0  0  0
   37.7420   28.0530   41.0090 C   0  0  0  0  0  0  0  0  0  0  0  0
   37.6560   29.1080   41.9040 C   0  0  0  0  0  0  0  0  0  0  0  0
   37.2740   28.8550   43.1930 C   0  0  0  0  0  0  0  0  0  0  0  0
   36.9710   27.5800   43.6300 C   0  0  0  0  0  0  0  0  0  0  0  0
   37.0500   26.5160   42.7560 C   0  0  0  0  0  0  0  0  0  0  0  0
   37.4350   26.7820   41.4650 C   0  0  0  0  0  0  0  0  0  0  0  0
   37.2150   29.7040   43.8730 H   0  0  0  0  0  0  0  0  0  0  0  0
   36.6730   27.4290   44.6620 H   0  0  0  0  0  0  0  0  0  0  0  0
   36.8020   25.5470   43.1530 H   0  0  0  0  0  0  0  0  0  0  0  0
   37.4100   32.5090   40.2370 C   0  0  0  0  0  0  0  0  0  0  0  0
   37.0760   31.2410   40.7240 C   0  0  0  0  0  0  0  0  0  0  0  0
   37.9860   30.4340   41.3870 C   0  0  0  0  0  0  0  0  0  0  0  0
   39.2320   30.9800   41.5230 N   0  0  0  0  0  0  0  0  0  0  0  0
   39.5510   32.2010   41.0540 C   0  0  0  0  0  0  0  0  0  0  0  0
   38.6470   32.9510   40.4190 N   0  0  0  0  0  0  0  0  0  0  0  0
   36.5660   32.9820   39.7510 H   0  0  0  0  0  0  0  0  0  0  0  0
   36.0750   30.7920   40.6190 H   0  0  0  0  0  0  0  0  0  0  0  0
   40.5550   32.6010   41.1820 H   0  0  0  0  0  0  0  0  0  0  0  0
   37.5300   25.6830   40.5100 C   0  0  0  0  0  0  0  0  0  0  0  0
   36.4910   25.2340   39.7280 C   0  0  0  0  0  3  0  0  0  0  0  0
   36.5810   24.1940   38.8260 C   0  0  0  0  0  0  0  0  0  0  0  0
   35.7250   23.8820   38.2330 H   0  0  0  0  0  0  0  0  0  0  0  0
   37.7670   23.5660   38.6910 N   0  0  0  0  0  0  0  0  0  0  0  0
   38.8150   23.9920   39.4550 C   0  0  0  0  0  3  0  0  0  0  0  0
   38.6820   25.0000   40.3140 N   0  0  0  0  0  0  0  0  0  0  0  0
  1  2  1  0  0  0  0
  2  7  2  0  0  0  0
  2  3  1  0  0  0  0
  3  4  2  0  0  0  0
  4  5  1  0  0  0  0
  4  8  1  0  0  0  0
  5  9  1  0  0  0  0
  6 10  1  0  0  0  0
  6  5  2  0  0  0  0
  7  6  1  0  0  0  0
 11 16  2  0  0  0  0
 11 12  1  0  0  0  0
 12 13  2  0  0  0  0
 13 14  1  0  0  0  0
 13  3  1  0  0  0  0
 15 19  1  0  0  0  0
 15 14  2  0  0  0  0
 16 15  1  0  0  0  0
 17 11  1  0  0  0  0
 18 12  1  0  0  0  0
 20  7  1  0  0  0  0
 21 20  2  0  0  0  0
 22 21  1  0  0  0  0
 23 22  1  0  0  0  0
 24 22  2  0  0  0  0
 24 25  1  0  0  0  0
 25 26  2  0  0  0  0
 26 20  1  0  0  0  0
M  END
>  <minimizedAffinity>
-4.87159681

$$$$

 OpenBabel03242519593D

 26 28  0  0  0  0  0  0  0  0999 V2000
   38.2670   28.3460   39.1880 Br  0  0  0  0  0  0  0  0  0  0  0  0
   37.7370   27.9640   40.9910 C   0  0  0  0  0  0  0  0  0  0  0  0
   37.4270   26.6880   41.4360 C   0  0  0  0  0  0  0  0  0  0  0  0
   37.0530   26.5140   42.7410 C   0  0  0  0  0  0  0  0  0  0  0  0
   36.9750   27.5700   43.6270 C   0  0  0  0  0  0  0  0  0  0  0  0
   37.2780   28.8480   43.2050 C   0  0  0  0  0  0  0  0  0  0  0  0
   37.6520   29.0110   41.8940 C   0  0  0  0  0  0  0  0  0  0  0  0
   36.8170   25.5000   43.0610 H   0  0  0  0  0  0  0  0  0  0  0  0
   36.6730   27.3820   44.6520 H   0  0  0  0  0  0  0  0  0  0  0  0
   37.1990   29.6300   43.9400 H   0  0  0  0  0  0  0  0  0  0  0  0
   36.5840   24.1560   38.7380 C   0  0  0  0  0  0  0  0  0  0  0  0
   36.4670   25.1900   39.6730 C   0  0  0  0  0  0  0  0  0  0  0  0
   37.5290   25.6090   40.4560 C   0  0  0  0  0  0  0  0  0  0  0  0
   38.6960   24.9300   40.2400 N   0  0  0  0  0  0  0  0  0  0  0  0
   38.8060   23.9360   39.3390 C   0  0  0  0  0  0  0  0  0  0  0  0
   37.7590   23.5570   38.6000 N   0  0  0  0  0  0  0  0  0  0  0  0
   35.6470   23.9750   38.2260 H   0  0  0  0  0  0  0  0  0  0  0  0
   35.5320   25.7430   39.8560 H   0  0  0  0  0  0  0  0  0  0  0  0
   39.7520   23.4180   39.1940 H   0  0  0  0  0  0  0  0  0  0  0  0
   37.9820   30.3470   41.4090 C   0  0  0  0  0  0  0  0  0  0  0  0
   37.1030   31.1820   40.7590 C   0  0  0  0  0  3  0  0  0  0  0  0
   37.4150   32.4440   40.2990 C   0  0  0  0  0  0  0  0  0  0  0  0
   36.6790   33.0610   39.7920 H   0  0  0  0  0  0  0  0  0  0  0  0
   38.6680   32.9040   40.4950 N   0  0  0  0  0  0  0  0  0  0  0  0
   39.5600   32.0960   41.1380 C   0  0  0  0  0  3  0  0  0  0  0  0
   39.2150   30.8830   41.5640 N   0  0  0  0  0  0  0  0  0  0  0  0
  1  2  1  0  0  0  0
  2  3  2  0  0  0  0
  2  7  1  0  0  0  0
  3  4  1  0  0  0  0
  4  8  1  0  0  0  0
  4  5  2  0  0  0  0
  5  9  1  0  0  0  0
  6  5  1  0  0  0  0
  6 10  1  0  0  0  0
  7  6  2  0  0  0  0
 11 12  1  0  0  0  0
 12 18  1  0  0  0  0
 12 13  2  0  0  0  0
 13  3  1  0  0  0  0
 14 13  1  0  0  0  0
 15 14  2  0  0  0  0
 16 11  2  0  0  0  0
 16 15  1  0  0  0  0
 17 11  1  0  0  0  0
 19 15  1  0  0  0  0
 20 26  1  0  0  0  0
 20  7  1  0  0  0  0
 21 20  2  0  0  0  0
 22 24  2  0  0  0  0
 22 21  1  0  0  0  0
 23 22  1  0  0  0  0
 24 25  1  0  0  0  0
 25 26  2  0  0  0  0
M  END
>  <minimizedAffinity>
-4.83981037

$$$$

 OpenBabel03242519593D

 26 28  0  0  0  0  0  0  0  0999 V2000
   38.2870   28.3280   39.2010 Br  0  0  0  0  0  0  0  0  0  0  0  0
   37.7730   28.0990   41.0340 C   0  0  0  0  0  0  0  0  0  0  0  0
   37.7350   29.1410   41.9470 C   0  0  0  0  0  0  0  0  0  0  0  0
   37.3600   28.8790   43.2360 C   0  0  0  0  0  0  0  0  0  0  0  0
   37.0160   27.6090   43.6560 C   0  0  0  0  0  0  0  0  0  0  0  0
   37.0460   26.5570   42.7640 C   0  0  0  0  0  0  0  0  0  0  0  0
   37.4250   26.8310   41.4720 C   0  0  0  0  0  0  0  0  0  0  0  0
   37.3400   29.7190   43.9310 H   0  0  0  0  0  0  0  0  0  0  0  0
   36.7250   27.4510   44.6890 H   0  0  0  0  0  0  0  0  0  0  0  0
   36.7680   25.5910   43.1470 H   0  0  0  0  0  0  0  0  0  0  0  0
   39.7190   32.2590   41.0850 C   0  0  0  0  0  0  0  0  0  0  0  0
   39.3810   30.9920   41.5710 C   0  0  0  0  0  0  0  0  0  0  0  0
   38.1070   30.4630   41.4480 C   0  0  0  0  0  0  0  0  0  0  0  0
   37.2130   31.2800   40.8160 N   0  0  0  0  0  0  0  0  0  0  0  0
   37.5400   32.5000   40.3490 C   0  0  0  0  0  0  0  0  0  0  0  0
   38.7800   32.9780   40.4850 N   0  0  0  0  0  0  0  0  0  0  0  0
   40.7590   32.4940   41.2770 H   0  0  0  0  0  0  0  0  0  0  0  0
   40.0940   30.3250   42.0830 H   0  0  0  0  0  0  0  0  0  0  0  0
   36.8000   33.1220   39.8500 H   0  0  0  0  0  0  0  0  0  0  0  0
   37.4690   25.7470   40.4980 C   0  0  0  0  0  0  0  0  0  0  0  0
   38.5510   24.9230   40.2920 C   0  0  0  0  0  3  0  0  0  0  0  0
   38.5930   23.8980   39.3700 C   0  0  0  0  0  0  0  0  0  0  0  0
   39.4780   23.2790   39.2510 H   0  0  0  0  0  0  0  0  0  0  0  0
   37.5010   23.6770   38.6110 N   0  0  0  0  0  0  0  0  0  0  0  0
   36.4120   24.4790   38.7950 C   0  0  0  0  0  3  0  0  0  0  0  0
   36.4160   25.4580   39.6970 N   0  0  0  0  0  0  0  0  0  0  0  0
  1  2  1  0  0  0  0
  2  7  2  0  0  0  0
  2  3  1  0  0  0  0
  3  4  2  0  0  0  0
  4  5  1  0  0  0  0
  4  8  1  0  0  0  0
  5  9  1  0  0  0  0
  6 10  1  0  0  0  0
  6  5  2  0  0  0  0
  7  6  1  0  0  0  0
 11 17  1  0  0  0  0
 11 12  1  0  0  0  0
 12 18  1  0  0  0  0
 13 12  2  0  0  0  0
 13  3  1  0  0  0  0
 14 13  1  0  0  0  0
 15 16  1  0  0  0  0
 15 14  2  0  0  0  0
 16 11  2  0  0  0  0
 19 15  1  0  0  0  0
 20  7  1  0  0  0  0
 21 20  1  0  0  0  0
 22 21  2  0  0  0  0
 23 22  1  0  0  0  0
 24 25  2  0  0  0  0
 24 22  1  0  0  0  0
 25 26  1  0  0  0  0
 26 20  2  0  0  0  0
M  END
>  <minimizedAffinity>
-4.81952047

$$$$

 OpenBabel03242519593D

 26 28  0  0  0  0  0  0  0  0999 V2000
   38.2220   28.4290   39.1680 Br  0  0  0  0  0  0  0  0  0  0  0  0
   37.7350   28.0240   40.9780 C   0  0  0  0  0  0  0  0  0  0  0  0
   37.3890   26.7510   41.4040 C   0  0  0  0  0  0  0  0  0  0  0  0
   37.0510   26.5600   42.7150 C   0  0  0  0  0  0  0  0  0  0  0  0
   37.0450   27.5960   43.6290 C   0  0  0  0  0  0  0  0  0  0  0  0
   37.3860   28.8710   43.2270 C   0  0  0  0  0  0  0  0  0  0  0  0
   37.7230   29.0510   41.9080 C   0  0  0  0  0  0  0  0  0  0  0  0
   36.7840   25.5480   43.0200 H   0  0  0  0  0  0  0  0  0  0  0  0
   36.7700   27.3950   44.6590 H   0  0  0  0  0  0  0  0  0  0  0  0
   37.3640   29.6370   43.9820 H   0  0  0  0  0  0  0  0  0  0  0  0
   38.5200   23.8720   39.2040 C   0  0  0  0  0  0  0  0  0  0  0  0
   38.5140   24.8810   40.1730 C   0  0  0  0  0  0  0  0  0  0  0  0
   37.4150   25.6940   40.3960 C   0  0  0  0  0  0  0  0  0  0  0  0
   36.3420   25.4280   39.5920 N   0  0  0  0  0  0  0  0  0  0  0  0
   36.3490   24.4560   38.6600 C   0  0  0  0  0  0  0  0  0  0  0  0
   37.4290   23.6910   38.4730 N   0  0  0  0  0  0  0  0  0  0  0  0
   39.4670   23.3490   39.1810 H   0  0  0  0  0  0  0  0  0  0  0  0
   39.3730   25.1040   40.8260 H   0  0  0  0  0  0  0  0  0  0  0  0
   35.4750   24.2740   38.0380 H   0  0  0  0  0  0  0  0  0  0  0  0
   38.0910   30.3840   41.4430 C   0  0  0  0  0  0  0  0  0  0  0  0
   39.3420   30.9400   41.5700 C   0  0  0  0  0  3  0  0  0  0  0  0
   39.6900   32.2010   41.1320 C   0  0  0  0  0  0  0  0  0  0  0  0
   40.6970   32.5880   41.2600 H   0  0  0  0  0  0  0  0  0  0  0  0
   38.7430   32.9520   40.5330 N   0  0  0  0  0  0  0  0  0  0  0  0
   37.4920   32.4240   40.3930 C   0  0  0  0  0  3  0  0  0  0  0  0
   37.2010   31.2020   40.8330 N   0  0  0  0  0  0  0  0  0  0  0  0
  1  2  1  0  0  0  0
  2  3  2  0  0  0  0
  2  7  1  0  0  0  0
  3  4  1  0  0  0  0
  4  8  1  0  0  0  0
  4  5  2  0  0  0  0
  5  9  1  0  0  0  0
  6  5  1  0  0  0  0
  6 10  1  0  0  0  0
  7  6  2  0  0  0  0
 11 12  1  0  0  0  0
 12 13  2  0  0  0  0
 12 18  1  0  0  0  0
 13  3  1  0  0  0  0
 14 13  1  0  0  0  0
 15 14  2  0  0  0  0
 16 15  1  0  0  0  0
 16 11  2  0  0  0  0
 17 11  1  0  0  0  0
 19 15  1  0  0  0  0
 20 21  1  0  0  0  0
 20  7  1  0  0  0  0
 22 23  1  0  0  0  0
 22 21  2  0  0  0  0
 24 22  1  0  0  0  0
 25 24  2  0  0  0  0
 25 26  1  0  0  0  0
 26 20  2  0  0  0  0
M  END
>  <minimizedAffinity>
-4.80428267

$$$$

 OpenBabel03242519593D

 26 28  0  0  0  0  0  0  0  0999 V2000
   40.6230   29.2860   40.4490 Br  0  0  0  0  0  0  0  0  0  0  0  0
   38.8300   29.9510   40.5770 C   0  0  0  0  0  0  0  0  0  0  0  0
   38.4210   31.1470   40.0060 C   0  0  0  0  0  0  0  0  0  0  0  0
   37.1200   31.5420   40.1550 C   0  0  0  0  0  0  0  0  0  0  0  0
   36.2010   30.7870   40.8550 C   0  0  0  0  0  0  0  0  0  0  0  0
   36.5850   29.5940   41.4310 C   0  0  0  0  0  0  0  0  0  0  0  0
   37.8940   29.2060   41.2750 C   0  0  0  0  0  0  0  0  0  0  0  0
   36.8300   32.4860   39.6950 H   0  0  0  0  0  0  0  0  0  0  0  0
   35.1800   31.1420   40.9460 H   0  0  0  0  0  0  0  0  0  0  0  0
   35.8260   29.0480   41.9630 H   0  0  0  0  0  0  0  0  0  0  0  0
   41.0890   33.6910   39.1040 C   0  0  0  0  0  0  0  0  0  0  0  0
   40.1200   32.9790   39.8180 C   0  0  0  0  0  0  0  0  0  0  0  0
   39.4360   31.9040   39.2760 C   0  0  0  0  0  0  0  0  0  0  0  0
   39.7850   31.6000   37.9900 N   0  0  0  0  0  0  0  0  0  0  0  0
   40.7190   32.2870   37.3040 C   0  0  0  0  0  0  0  0  0  0  0  0
   41.3600   33.3190   37.8600 N   0  0  0  0  0  0  0  0  0  0  0  0
   41.5100   34.4940   39.6970 H   0  0  0  0  0  0  0  0  0  0  0  0
   39.8300   33.2160   40.8540 H   0  0  0  0  0  0  0  0  0  0  0  0
   40.9710   32.0140   36.2820 H   0  0  0  0  0  0  0  0  0  0  0  0
   38.3400   27.9510   41.8680 C   0  0  0  0  0  0  0  0  0  0  0  0
   38.8990   27.8310   43.1190 C   0  0  0  0  0  3  0  0  0  0  0  0
   39.3220   26.6440   43.6800 C   0  0  0  0  0  0  0  0  0  0  0  0
   39.7570   26.6090   44.6740 H   0  0  0  0  0  0  0  0  0  0  0  0
   39.1810   25.5120   42.9600 N   0  0  0  0  0  0  0  0  0  0  0  0
   38.6290   25.6020   41.7140 C   0  0  0  0  0  3  0  0  0  0  0  0
   38.2350   26.7710   41.2130 N   0  0  0  0  0  0  0  0  0  0  0  0
  1  2  1  0  0  0  0
  2  7  1  0  0  0  0
  3  4  1  0  0  0  0
  3  2  2  0  0  0  0
  4  5  2  0  0  0  0
  5  9  1  0  0  0  0
  5  6  1  0  0  0  0
  6 10  1  0  0  0  0
  7  6  2  0  0  0  0
  7 20  1  0  0  0  0
  8  4  1  0  0  0  0
 11 17  1  0  0  0  0
 11 12  1  0  0  0  0
 12 18  1  0  0  0  0
 13 12  2  0  0  0  0
 13  3  1  0  0  0  0
 14 13  1  0  0  0  0
 15 16  1  0  0  0  0
 15 14  2  0  0  0  0
 16 11  2  0  0  0  0
 19 15  1  0  0  0  0
 20 21  1  0  0  0  0
 21 22  2  0  0  0  0
 22 23  1  0  0  0  0
 24 22  1  0  0  0  0
 25 24  2  0  0  0  0
 26 25  1  0  0  0  0
 26 20  2  0  0  0  0
M  END
>  <minimizedAffinity>
-4.72803116

$$$$

 OpenBabel03242519593D

 26 28  0  0  0  0  0  0  0  0999 V2000
   37.2860   30.7450   38.4050 Br  0  0  0  0  0  0  0  0  0  0  0  0
   37.3080   29.9500   40.1490 C   0  0  0  0  0  0  0  0  0  0  0  0
   38.1210   30.3990   41.1780 C   0  0  0  0  0  0  0  0  0  0  0  0
   38.0710   29.7640   42.3880 C   0  0  0  0  0  0  0  0  0  0  0  0
   37.2340   28.6900   42.6180 C   0  0  0  0  0  0  0  0  0  0  0  0
   36.4160   28.2260   41.6090 C   0  0  0  0  0  0  0  0  0  0  0  0
   36.4750   28.8710   40.3970 C   0  0  0  0  0  0  0  0  0  0  0  0
   38.7220   30.1400   43.1770 H   0  0  0  0  0  0  0  0  0  0  0  0
   37.2300   28.2190   43.5950 H   0  0  0  0  0  0  0  0  0  0  0  0
   35.7860   27.3870   41.8450 H   0  0  0  0  0  0  0  0  0  0  0  0
   41.1350   32.5190   40.2680 C   0  0  0  0  0  0  0  0  0  0  0  0
   40.3240   31.4150   40.5520 C   0  0  0  0  0  0  0  0  0  0  0  0
   38.9840   31.5400   40.8790 C   0  0  0  0  0  0  0  0  0  0  0  0
   38.5240   32.8260   40.9020 N   0  0  0  0  0  0  0  0  0  0  0  0
   39.3060   33.8880   40.6270 C   0  0  0  0  0  0  0  0  0  0  0  0
   40.5950   33.7300   40.3150 N   0  0  0  0  0  0  0  0  0  0  0  0
   42.1490   32.2180   40.0360 H   0  0  0  0  0  0  0  0  0  0  0  0
   40.6850   30.3740   40.5380 H   0  0  0  0  0  0  0  0  0  0  0  0
   38.9030   34.8980   40.6550 H   0  0  0  0  0  0  0  0  0  0  0  0
   35.6250   28.4120   39.3040 C   0  0  0  0  0  0  0  0  0  0  0  0
   34.4460   29.0100   38.9250 C   0  0  0  0  0  3  0  0  0  0  0  0
   33.6420   28.5750   37.8920 C   0  0  0  0  0  0  0  0  0  0  0  0
   32.7200   29.0890   37.6360 H   0  0  0  0  0  0  0  0  0  0  0  0
   34.0290   27.4870   37.1970 N   0  0  0  0  0  0  0  0  0  0  0  0
   35.1950   26.8720   37.5520 C   0  0  0  0  0  3  0  0  0  0  0  0
   35.9390   27.3270   38.5580 N   0  0  0  0  0  0  0  0  0  0  0  0
  1  2  1  0  0  0  0
  2  7  2  0  0  0  0
  2  3  1  0  0  0  0
  3  4  2  0  0  0  0
  4  5  1  0  0  0  0
  4  8  1  0  0  0  0
  5  9  1  0  0  0  0
  6 10  1  0  0  0  0
  6  5  2  0  0  0  0
  7  6  1  0  0  0  0
 11 16  2  0  0  0  0
 11 12  1  0  0  0  0
 12 13  2  0  0  0  0
 13 14  1  0  0  0  0
 13  3  1  0  0  0  0
 15 19  1  0  0  0  0
 15 14  2  0  0  0  0
 16 15  1  0  0  0  0
 17 11  1  0  0  0  0
 18 12  1  0  0  0  0
 20  7  1  0  0  0  0
 21 20  1  0  0  0  0
 22 21  2  0  0  0  0
 23 22  1  0  0  0  0
 24 25  2  0  0  0  0
 24 22  1  0  0  0  0
 25 26  1  0  0  0  0
 26 20  2  0  0  0  0
M  END
>  <minimizedAffinity>
-4.69979286

$$$$

 OpenBabel03242519593D

 26 28  0  0  0  0  0  0  0  0999 V2000
   36.2800   26.1860   38.5190 Br  0  0  0  0  0  0  0  0  0  0  0  0
   36.3050   27.7460   39.6330 C   0  0  0  0  0  0  0  0  0  0  0  0
   35.6740   28.9330   39.2920 C   0  0  0  0  0  0  0  0  0  0  0  0
   35.7520   29.9950   40.1500 C   0  0  0  0  0  0  0  0  0  0  0  0
   36.4380   29.9230   41.3460 C   0  0  0  0  0  0  0  0  0  0  0  0
   37.0730   28.7520   41.7060 C   0  0  0  0  0  0  0  0  0  0  0  0
   36.9880   27.6920   40.8370 C   0  0  0  0  0  0  0  0  0  0  0  0
   35.2460   30.9140   39.8540 H   0  0  0  0  0  0  0  0  0  0  0  0
   36.4710   30.7930   41.9930 H   0  0  0  0  0  0  0  0  0  0  0  0
   37.5910   28.7540   42.6490 H   0  0  0  0  0  0  0  0  0  0  0  0
   32.9260   28.8120   36.6770 C   0  0  0  0  0  0  0  0  0  0  0  0
   33.5910   28.7890   37.9080 C   0  0  0  0  0  0  0  0  0  0  0  0
   34.9620   28.9520   38.0160 C   0  0  0  0  0  0  0  0  0  0  0  0
   35.6070   29.1360   36.8250 N   0  0  0  0  0  0  0  0  0  0  0  0
   34.9650   29.1580   35.6420 C   0  0  0  0  0  0  0  0  0  0  0  0
   33.6400   28.9970   35.5750 N   0  0  0  0  0  0  0  0  0  0  0  0
   31.8600   28.6670   36.7990 H   0  0  0  0  0  0  0  0  0  0  0  0
   33.0810   28.6410   38.8730 H   0  0  0  0  0  0  0  0  0  0  0  0
   35.5120   29.3070   34.7140 H   0  0  0  0  0  0  0  0  0  0  0  0
   37.6450   26.4350   41.1810 C   0  0  0  0  0  0  0  0  0  0  0  0
   37.0510   25.4060   41.8730 C   0  0  0  0  0  3  0  0  0  0  0  0
   37.6730   24.2180   42.2000 C   0  0  0  0  0  0  0  0  0  0  0  0
   37.1530   23.4380   42.7480 H   0  0  0  0  0  0  0  0  0  0  0  0
   38.9540   24.0420   41.8180 N   0  0  0  0  0  0  0  0  0  0  0  0
   39.5680   25.0490   41.1300 C   0  0  0  0  0  3  0  0  0  0  0  0
   38.9290   26.1790   40.8370 N   0  0  0  0  0  0  0  0  0  0  0  0
  1  2  1  0  0  0  0
  2  7  1  0  0  0  0
  3  2  2  0  0  0  0
  3  4  1  0  0  0  0
  4  5  2  0  0  0  0
  5  6  1  0  0  0  0
  5  9  1  0  0  0  0
  6 10  1  0  0  0  0
  7 20  1  0  0  0  0
  7  6  2  0  0  0  0
  8  4  1  0  0  0  0
 11 17  1  0  0  0  0
 11 12  1  0  0  0  0
 12 13  2  0  0  0  0
 12 18  1  0  0  0  0
 13  3  1  0  0  0  0
 14 13  1  0  0  0  0
 15 14  2  0  0  0  0
 16 15  1  0  0  0  0
 16 11  2  0  0  0  0
 19 15  1  0  0  0  0
 20 21  1  0  0  0  0
 21 22  2  0  0  0  0
 22 23  1  0  0  0  0
 24 22  1  0  0  0  0
 25 24  2  0  0  0  0
 26 25  1  0  0  0  0
 26 20  2  0  0  0  0
M  END
>  <minimizedAffinity>
-4.65311575

$$$$

 OpenBabel03242519593D

 26 28  0  0  0  0  0  0  0  0999 V2000
   40.4080   29.4110   40.4840 Br  0  0  0  0  0  0  0  0  0  0  0  0
   39.0580   30.7380   40.1790 C   0  0  0  0  0  0  0  0  0  0  0  0
   39.2740   31.8810   39.4250 C   0  0  0  0  0  0  0  0  0  0  0  0
   38.2510   32.7740   39.2660 C   0  0  0  0  0  0  0  0  0  0  0  0
   37.0080   32.5720   39.8330 C   0  0  0  0  0  0  0  0  0  0  0  0
   36.7700   31.4420   40.5870 C   0  0  0  0  0  0  0  0  0  0  0  0
   37.8050   30.5520   40.7400 C   0  0  0  0  0  0  0  0  0  0  0  0
   38.4510   33.6630   38.6680 H   0  0  0  0  0  0  0  0  0  0  0  0
   36.2270   33.3100   39.6790 H   0  0  0  0  0  0  0  0  0  0  0  0
   35.7840   31.3390   41.0040 H   0  0  0  0  0  0  0  0  0  0  0  0
   42.2050   31.8370   37.0140 C   0  0  0  0  0  0  0  0  0  0  0  0
   40.9230   31.6730   37.5500 C   0  0  0  0  0  0  0  0  0  0  0  0
   40.6070   32.0420   38.8470 C   0  0  0  0  0  0  0  0  0  0  0  0
   41.6480   32.5750   39.5550 N   0  0  0  0  0  0  0  0  0  0  0  0
   42.8800   32.7320   39.0360 C   0  0  0  0  0  0  0  0  0  0  0  0
   43.1500   32.3640   37.7800 N   0  0  0  0  0  0  0  0  0  0  0  0
   42.2540   31.4900   35.9890 H   0  0  0  0  0  0  0  0  0  0  0  0
   40.0780   31.2440   36.9890 H   0  0  0  0  0  0  0  0  0  0  0  0
   43.6840   33.1610   39.6310 H   0  0  0  0  0  0  0  0  0  0  0  0
   37.5940   29.3440   41.5300 C   0  0  0  0  0  0  0  0  0  0  0  0
   37.7760   29.2560   42.8900 C   0  0  0  0  0  3  0  0  0  0  0  0
   37.5780   28.1140   43.6370 C   0  0  0  0  0  0  0  0  0  0  0  0
   37.7370   28.1030   44.7110 H   0  0  0  0  0  0  0  0  0  0  0  0
   37.1760   26.9960   42.9980 N   0  0  0  0  0  0  0  0  0  0  0  0
   36.9870   27.0540   41.6470 C   0  0  0  0  0  3  0  0  0  0  0  0
   37.1920   28.1800   40.9670 N   0  0  0  0  0  0  0  0  0  0  0  0
  2  1  1  0  0  0  0
  2  7  1  0  0  0  0
  3  2  2  0  0  0  0
  4  3  1  0  0  0  0
  4  5  2  0  0  0  0
  5  6  1  0  0  0  0
  6  7  2  0  0  0  0
  6 10  1  0  0  0  0
  7 20  1  0  0  0  0
  8  4  1  0  0  0  0
  9  5  1  0  0  0  0
 11 12  2  0  0  0  0
 11 16  1  0  0  0  0
 12 13  1  0  0  0  0
 13  3  1  0  0  0  0
 13 14  2  0  0  0  0
 15 14  1  0  0  0  0
 15 19  1  0  0  0  0
 16 15  2  0  0  0  0
 17 11  1  0  0  0  0
 18 12  1  0  0  0  0
 20 21  1  0  0  0  0
 21 22  2  0  0  0  0
 22 23  1  0  0  0  0
 24 22  1  0  0  0  0
 25 24  2  0  0  0  0
 26 20  2  0  0  0  0
 26 25  1  0  0  0  0
M  END
>  <minimizedAffinity>
-4.64551878

$$$$

 OpenBabel03242519593D

 26 28  0  0  0  0  0  0  0  0999 V2000
   40.5300   29.5130   40.3790 Br  0  0  0  0  0  0  0  0  0  0  0  0
   39.0740   30.7490   40.2130 C   0  0  0  0  0  0  0  0  0  0  0  0
   37.8290   30.5370   40.7880 C   0  0  0  0  0  0  0  0  0  0  0  0
   36.8490   31.4750   40.6100 C   0  0  0  0  0  0  0  0  0  0  0  0
   37.0610   32.6260   39.8770 C   0  0  0  0  0  0  0  0  0  0  0  0
   38.2910   32.8570   39.2970 C   0  0  0  0  0  0  0  0  0  0  0  0
   39.2680   31.9090   39.4810 C   0  0  0  0  0  0  0  0  0  0  0  0
   35.8830   31.2810   41.0740 H   0  0  0  0  0  0  0  0  0  0  0  0
   36.2520   33.3400   39.7640 H   0  0  0  0  0  0  0  0  0  0  0  0
   38.3970   33.7700   38.7380 H   0  0  0  0  0  0  0  0  0  0  0  0
   37.7230   28.0290   43.6340 C   0  0  0  0  0  0  0  0  0  0  0  0
   37.8900   29.2190   42.9170 C   0  0  0  0  0  0  0  0  0  0  0  0
   37.6630   29.3040   41.5530 C   0  0  0  0  0  0  0  0  0  0  0  0
   37.2650   28.1330   40.9710 N   0  0  0  0  0  0  0  0  0  0  0  0
   37.1060   26.9890   41.6630 C   0  0  0  0  0  0  0  0  0  0  0  0
   37.3340   26.9440   42.9780 N   0  0  0  0  0  0  0  0  0  0  0  0
   37.9490   28.1640   44.6840 H   0  0  0  0  0  0  0  0  0  0  0  0
   38.2100   30.1670   43.3760 H   0  0  0  0  0  0  0  0  0  0  0  0
   36.7870   26.0770   41.1640 H   0  0  0  0  0  0  0  0  0  0  0  0
   40.5830   32.1160   38.8850 C   0  0  0  0  0  0  0  0  0  0  0  0
   40.9220   31.7670   37.5990 C   0  0  0  0  0  3  0  0  0  0  0  0
   42.1660   31.9610   37.0340 C   0  0  0  0  0  0  0  0  0  0  0  0
   42.3770   31.6640   36.0110 H   0  0  0  0  0  0  0  0  0  0  0  0
   43.1260   32.5360   37.7880 N   0  0  0  0  0  0  0  0  0  0  0  0
   42.8160   32.8930   39.0680 C   0  0  0  0  0  3  0  0  0  0  0  0
   41.6010   32.6850   39.5720 N   0  0  0  0  0  0  0  0  0  0  0  0
  2  1  1  0  0  0  0
  2  3  1  0  0  0  0
  3 13  1  0  0  0  0
  4  3  2  0  0  0  0
  4  8  1  0  0  0  0
  5  4  1  0  0  0  0
  6  7  1  0  0  0  0
  6  5  2  0  0  0  0
  7  2  2  0  0  0  0
  9  5  1  0  0  0  0
 10  6  1  0  0  0  0
 11 17  1  0  0  0  0
 12 18  1  0  0  0  0
 12 11  2  0  0  0  0
 13 12  1  0  0  0  0
 14 13  2  0  0  0  0
 14 15  1  0  0  0  0
 15 16  2  0  0  0  0
 16 11  1  0  0  0  0
 19 15  1  0  0  0  0
 20  7  1  0  0  0  0
 20 26  1  0  0  0  0
 21 20  2  0  0  0  0
 22 21  1  0  0  0  0
 22 24  2  0  0  0  0
 23 22  1  0  0  0  0
 24 25  1  0  0  0  0
 25 26  2  0  0  0  0
M  END
>  <minimizedAffinity>
-4.64547729

$$$$
