
 OpenBabel03252506583D

 36 40  0  0  0  0  0  0  0  0999 V2000
   36.4790   30.5740   38.6200 C   0  0  0  0  0  0  0  0  0  0  0  0
   35.6320   29.4680   38.6830 C   0  0  0  0  0  0  0  0  0  0  0  0
   35.5420   28.6590   39.7900 C   0  0  0  0  0  0  0  0  0  0  0  0
   36.3190   28.9320   40.9100 C   0  0  0  0  0  0  0  0  0  0  0  0
   36.4860   28.3700   42.1410 N   0  0  0  0  0  0  0  0  0  0  0  0
   37.4070   29.1020   42.8170 C   0  0  0  0  0  0  0  0  0  0  0  0
   37.8010   30.1100   42.0040 N   0  0  0  0  0  0  0  0  0  0  0  0
   37.1500   30.0280   40.8310 C   0  0  0  0  0  0  0  0  0  0  0  0
   37.2610   30.8490   39.7480 C   0  0  0  0  0  0  0  0  0  0  0  0
   36.5610   31.2230   37.7540 H   0  0  0  0  0  0  0  0  0  0  0  0
   34.8940   27.8080   39.8460 H   0  0  0  0  0  0  0  0  0  0  0  0
   35.9320   27.5080   42.4010 H   0  0  0  0  0  0  0  0  0  0  0  0
   37.7180   28.8710   43.8100 H   0  0  0  0  0  0  0  0  0  0  0  0
   32.7460   28.5480   36.5990 C   0  0  0  0  0  0  0  0  0  0  0  0
   33.2780   28.5710   35.3180 C   0  0  0  0  0  0  0  0  0  0  0  0
   34.6220   28.9010   35.1590 C   0  0  0  0  0  0  0  0  0  0  0  0
   35.3460   29.1840   36.2810 N   0  0  0  0  0  0  0  0  0  0  0  0
   34.8030   29.1540   37.5240 C   0  0  0  0  0  0  0  0  0  0  0  0
   33.5140   28.8390   37.6820 N   0  0  0  0  0  0  0  0  0  0  0  0
   31.6920   28.2870   36.6880 H   0  0  0  0  0  0  0  0  0  0  0  0
   32.7450   28.3560   34.4090 H   0  0  0  0  0  0  0  0  0  0  0  0
   35.1720   28.9590   34.2250 H   0  0  0  0  0  0  0  0  0  0  0  0
   38.1780   31.9970   39.7570 C   0  0  0  0  0  0  0  0  0  0  0  0
   37.8480   33.2640   40.1750 C   0  0  0  0  0  0  0  0  0  0  0  0
   39.0170   34.0060   40.0060 C   0  0  0  0  0  0  0  0  0  0  0  0
   39.9780   33.1590   39.5010 C   0  0  0  0  0  0  0  0  0  0  0  0
   39.4160   31.9750   39.3740 O   0  0  0  0  0  0  0  0  0  0  0  0
   36.9050   33.6480   40.5580 H   0  0  0  0  0  0  0  0  0  0  0  0
   39.1920   35.0590   40.2170 H   0  0  0  0  0  0  0  0  0  0  0  0
   41.3610   33.4650   39.1570 C   0  0  0  0  0  0  0  0  0  0  0  0
   41.6870   33.6500   37.8290 C   0  0  0  0  0  3  0  0  0  0  0  0
   43.0360   33.9390   37.5920 C   0  0  0  0  0  0  0  0  0  0  0  0
   43.3430   34.0930   36.5680 H   0  0  0  0  0  0  0  0  0  0  0  0
   43.9460   34.0300   38.5780 N   0  0  0  0  0  0  0  0  0  0  0  0
   43.5850   33.8430   39.8510 C   0  0  0  0  0  3  0  0  0  0  0  0
   42.2930   33.5620   40.1300 N   0  0  0  0  0  0  0  0  0  0  0  0
  1  2  2  0  0  0  0
  1  9  1  0  0  0  0
  2  3  1  0  0  0  0
  3 11  1  0  0  0  0
  3  4  2  0  0  0  0
  4  5  1  0  0  0  0
  5 12  1  0  0  0  0
  5  6  1  0  0  0  0
  6 13  1  0  0  0  0
  7  6  2  0  0  0  0
  8  4  1  0  0  0  0
  8  7  1  0  0  0  0
  9 23  1  0  0  0  0
  9  8  2  0  0  0  0
 10  1  1  0  0  0  0
 14 20  1  0  0  0  0
 14 19  1  0  0  0  0
 15 14  2  0  0  0  0
 16 15  1  0  0  0  0
 16 17  2  0  0  0  0
 17 18  1  0  0  0  0
 18 19  2  0  0  0  0
 18  2  1  0  0  0  0
 21 15  1  0  0  0  0
 22 16  1  0  0  0  0
 23 24  2  0  0  0  0
 24 28  1  0  0  0  0
 25 24  1  0  0  0  0
 25 29  1  0  0  0  0
 26 25  2  0  0  0  0
 27 26  1  0  0  0  0
 27 23  1  0  0  0  0
 30 26  1  0  0  0  0
 30 36  1  0  0  0  0
 31 30  2  0  0  0  0
 32 31  1  0  0  0  0
 32 34  2  0  0  0  0
 33 32  1  0  0  0  0
 34 35  1  0  0  0  0
 35 36  2  0  0  0  0
M  END
>  <minimizedAffinity>
-6.1500349

$$$$

 OpenBabel03252506583D

 36 40  0  0  0  0  0  0  0  0999 V2000
   36.9360   26.4330   40.1400 C   0  0  0  0  0  0  0  0  0  0  0  0
   36.7040   25.0930   39.8290 C   0  0  0  0  0  0  0  0  0  0  0  0
   37.3110   24.0570   40.4960 C   0  0  0  0  0  0  0  0  0  0  0  0
   38.1990   24.3260   41.5310 C   0  0  0  0  0  0  0  0  0  0  0  0
   38.9580   23.5810   42.3830 N   0  0  0  0  0  0  0  0  0  0  0  0
   39.6380   24.4300   43.1940 C   0  0  0  0  0  0  0  0  0  0  0  0
   39.2970   25.6910   42.8400 N   0  0  0  0  0  0  0  0  0  0  0  0
   38.4170   25.6550   41.8240 C   0  0  0  0  0  0  0  0  0  0  0  0
   37.8310   26.7040   41.1810 C   0  0  0  0  0  0  0  0  0  0  0  0
   36.4650   27.2630   39.6220 H   0  0  0  0  0  0  0  0  0  0  0  0
   37.1380   23.0250   40.2640 H   0  0  0  0  0  0  0  0  0  0  0  0
   38.9320   22.5260   42.3190 H   0  0  0  0  0  0  0  0  0  0  0  0
   40.3060   24.0970   43.9550 H   0  0  0  0  0  0  0  0  0  0  0  0
   34.1530   23.3870   37.8040 C   0  0  0  0  0  0  0  0  0  0  0  0
   34.0440   24.2150   36.6960 C   0  0  0  0  0  0  0  0  0  0  0  0
   34.8380   25.3580   36.6340 C   0  0  0  0  0  0  0  0  0  0  0  0
   35.6860   25.6000   37.6740 N   0  0  0  0  0  0  0  0  0  0  0  0
   35.7760   24.7760   38.7480 C   0  0  0  0  0  0  0  0  0  0  0  0
   35.0160   23.6780   38.8120 N   0  0  0  0  0  0  0  0  0  0  0  0
   33.5190   22.5020   37.8200 H   0  0  0  0  0  0  0  0  0  0  0  0
   33.3900   24.0610   35.8550 H   0  0  0  0  0  0  0  0  0  0  0  0
   34.8600   26.0930   35.8360 H   0  0  0  0  0  0  0  0  0  0  0  0
   38.1270   28.0910   41.5660 C   0  0  0  0  0  0  0  0  0  0  0  0
   38.6610   28.4760   42.7730 C   0  0  0  0  0  0  0  0  0  0  0  0
   38.7640   29.8640   42.6860 C   0  0  0  0  0  0  0  0  0  0  0  0
   38.2920   30.2390   41.4470 C   0  0  0  0  0  0  0  0  0  0  0  0
   37.9270   29.1370   40.8270 O   0  0  0  0  0  0  0  0  0  0  0  0
   38.9540   27.8730   43.6290 H   0  0  0  0  0  0  0  0  0  0  0  0
   39.1380   30.5680   43.4260 H   0  0  0  0  0  0  0  0  0  0  0  0
   38.1950   31.5810   40.8870 C   0  0  0  0  0  0  0  0  0  0  0  0
   37.1540   31.8650   40.0280 C   0  0  0  0  0  3  0  0  0  0  0  0
   37.1380   33.1760   39.5380 C   0  0  0  0  0  0  0  0  0  0  0  0
   36.3430   33.4500   38.8600 H   0  0  0  0  0  0  0  0  0  0  0  0
   38.0650   34.0910   39.8760 N   0  0  0  0  0  0  0  0  0  0  0  0
   39.0570   33.7710   40.7130 C   0  0  0  0  0  3  0  0  0  0  0  0
   39.1130   32.5170   41.2120 N   0  0  0  0  0  0  0  0  0  0  0  0
  1  9  1  0  0  0  0
  2  1  2  0  0  0  0
  2  3  1  0  0  0  0
  3  4  2  0  0  0  0
  4  8  1  0  0  0  0
  4  5  1  0  0  0  0
  5  6  1  0  0  0  0
  6 13  1  0  0  0  0
  7  6  2  0  0  0  0
  8  7  1  0  0  0  0
  9 23  1  0  0  0  0
  9  8  2  0  0  0  0
 10  1  1  0  0  0  0
 11  3  1  0  0  0  0
 12  5  1  0  0  0  0
 14 20  1  0  0  0  0
 14 19  1  0  0  0  0
 15 14  2  0  0  0  0
 16 15  1  0  0  0  0
 16 17  2  0  0  0  0
 17 18  1  0  0  0  0
 18 19  2  0  0  0  0
 18  2  1  0  0  0  0
 21 15  1  0  0  0  0
 22 16  1  0  0  0  0
 23 24  2  0  0  0  0
 24 28  1  0  0  0  0
 25 24  1  0  0  0  0
 25 29  1  0  0  0  0
 26 25  2  0  0  0  0
 27 26  1  0  0  0  0
 27 23  1  0  0  0  0
 30 36  1  0  0  0  0
 30 26  1  0  0  0  0
 31 30  2  0  0  0  0
 32 34  2  0  0  0  0
 32 31  1  0  0  0  0
 33 32  1  0  0  0  0
 34 35  1  0  0  0  0
 35 36  2  0  0  0  0
M  END
>  <minimizedAffinity>
-6.0710845

$$$$

 OpenBabel03252506583D

 36 40  0  0  0  0  0  0  0  0999 V2000
   34.3820   28.7670   38.1550 C   0  0  0  0  0  0  0  0  0  0  0  0
   34.0270   29.0000   36.8260 C   0  0  0  0  0  0  0  0  0  0  0  0
   34.9280   28.9360   35.7910 C   0  0  0  0  0  0  0  0  0  0  0  0
   36.2580   28.6280   36.0510 C   0  0  0  0  0  0  0  0  0  0  0  0
   37.3880   28.4800   35.3030 N   0  0  0  0  0  0  0  0  0  0  0  0
   38.4100   28.1680   36.1400 C   0  0  0  0  0  0  0  0  0  0  0  0
   37.9070   28.1220   37.3960 N   0  0  0  0  0  0  0  0  0  0  0  0
   36.5910   28.4000   37.3680 C   0  0  0  0  0  0  0  0  0  0  0  0
   35.7210   28.4560   38.4160 C   0  0  0  0  0  0  0  0  0  0  0  0
   33.6830   28.8140   38.9840 H   0  0  0  0  0  0  0  0  0  0  0  0
   34.6630   29.1140   34.7690 H   0  0  0  0  0  0  0  0  0  0  0  0
   37.3430   28.6160   34.2560 H   0  0  0  0  0  0  0  0  0  0  0  0
   39.4070   28.0000   35.8020 H   0  0  0  0  0  0  0  0  0  0  0  0
   30.9030   29.5890   34.9790 C   0  0  0  0  0  0  0  0  0  0  0  0
   30.0190   29.9470   35.9860 C   0  0  0  0  0  0  0  0  0  0  0  0
   30.4830   29.9890   37.2990 C   0  0  0  0  0  0  0  0  0  0  0  0
   31.7910   29.6740   37.5220 N   0  0  0  0  0  0  0  0  0  0  0  0
   32.6380   29.3270   36.5210 C   0  0  0  0  0  0  0  0  0  0  0  0
   32.1980   29.2850   35.2590 N   0  0  0  0  0  0  0  0  0  0  0  0
   30.5090   29.5660   33.9640 H   0  0  0  0  0  0  0  0  0  0  0  0
   28.9820   30.2030   35.8540 H   0  0  0  0  0  0  0  0  0  0  0  0
   29.9100   30.2500   38.1830 H   0  0  0  0  0  0  0  0  0  0  0  0
   36.1720   28.1980   39.7910 C   0  0  0  0  0  0  0  0  0  0  0  0
   35.7290   28.8740   40.9040 C   0  0  0  0  0  0  0  0  0  0  0  0
   36.4230   28.2940   41.9660 C   0  0  0  0  0  0  0  0  0  0  0  0
   37.2370   27.3130   41.4450 C   0  0  0  0  0  0  0  0  0  0  0  0
   37.0430   27.3050   40.1440 O   0  0  0  0  0  0  0  0  0  0  0  0
   35.0050   29.6800   40.9870 H   0  0  0  0  0  0  0  0  0  0  0  0
   36.3700   28.5330   43.0260 H   0  0  0  0  0  0  0  0  0  0  0  0
   38.1550   26.4300   42.1540 C   0  0  0  0  0  0  0  0  0  0  0  0
   38.8440   26.9260   43.2410 C   0  0  0  0  0  3  0  0  0  0  0  0
   39.7010   26.0100   43.8610 C   0  0  0  0  0  0  0  0  0  0  0  0
   40.2640   26.3500   44.7170 H   0  0  0  0  0  0  0  0  0  0  0  0
   39.8450   24.7430   43.4320 N   0  0  0  0  0  0  0  0  0  0  0  0
   39.1570   24.3040   42.3740 C   0  0  0  0  0  3  0  0  0  0  0  0
   38.3160   25.1530   41.7440 N   0  0  0  0  0  0  0  0  0  0  0  0
  1  9  1  0  0  0  0
  1 10  1  0  0  0  0
  2  1  2  0  0  0  0
  3  4  2  0  0  0  0
  3  2  1  0  0  0  0
  4  8  1  0  0  0  0
  5  4  1  0  0  0  0
  5  6  1  0  0  0  0
  6  7  2  0  0  0  0
  8  7  1  0  0  0  0
  8  9  2  0  0  0  0
  9 23  1  0  0  0  0
 11  3  1  0  0  0  0
 12  5  1  0  0  0  0
 13  6  1  0  0  0  0
 14 19  2  0  0  0  0
 14 15  1  0  0  0  0
 15 16  2  0  0  0  0
 16 17  1  0  0  0  0
 16 22  1  0  0  0  0
 18  2  1  0  0  0  0
 18 17  2  0  0  0  0
 19 18  1  0  0  0  0
 20 14  1  0  0  0  0
 21 15  1  0  0  0  0
 23 27  1  0  0  0  0
 23 24  2  0  0  0  0
 24 28  1  0  0  0  0
 24 25  1  0  0  0  0
 25 29  1  0  0  0  0
 26 25  2  0  0  0  0
 26 30  1  0  0  0  0
 27 26  1  0  0  0  0
 30 31  1  0  0  0  0
 31 32  2  0  0  0  0
 32 33  1  0  0  0  0
 34 32  1  0  0  0  0
 35 34  2  0  0  0  0
 36 30  2  0  0  0  0
 36 35  1  0  0  0  0
M  END
>  <minimizedAffinity>
-5.88273859

$$$$

 OpenBabel03252506583D

 36 40  0  0  0  0  0  0  0  0999 V2000
   40.4760   30.5010   37.9240 C   0  0  0  0  0  0  0  0  0  0  0  0
   41.4130   31.5230   37.7740 C   0  0  0  0  0  0  0  0  0  0  0  0
   41.2280   32.7850   38.2840 C   0  0  0  0  0  0  0  0  0  0  0  0
   40.0660   33.0840   38.9850 C   0  0  0  0  0  0  0  0  0  0  0  0
   39.5600   34.1860   39.6090 N   0  0  0  0  0  0  0  0  0  0  0  0
   38.3500   33.8570   40.1290 C   0  0  0  0  0  0  0  0  0  0  0  0
   38.1160   32.5590   39.8240 N   0  0  0  0  0  0  0  0  0  0  0  0
   39.1510   32.0630   39.1240 C   0  0  0  0  0  0  0  0  0  0  0  0
   39.3060   30.8020   38.6300 C   0  0  0  0  0  0  0  0  0  0  0  0
   40.6070   29.4990   37.5270 H   0  0  0  0  0  0  0  0  0  0  0  0
   41.9420   33.5760   38.1720 H   0  0  0  0  0  0  0  0  0  0  0  0
   40.1160   35.0840   39.6150 H   0  0  0  0  0  0  0  0  0  0  0  0
   37.7430   34.5460   40.6700 H   0  0  0  0  0  0  0  0  0  0  0  0
   44.9200   31.6160   36.6720 C   0  0  0  0  0  0  0  0  0  0  0  0
   44.9380   30.6850   35.6430 C   0  0  0  0  0  0  0  0  0  0  0  0
   43.7560   30.0220   35.3210 C   0  0  0  0  0  0  0  0  0  0  0  0
   42.6380   30.3280   36.0400 N   0  0  0  0  0  0  0  0  0  0  0  0
   42.6430   31.2420   37.0420 C   0  0  0  0  0  0  0  0  0  0  0  0
   43.7750   31.8810   37.3560 N   0  0  0  0  0  0  0  0  0  0  0  0
   45.8600   32.1160   36.8990 H   0  0  0  0  0  0  0  0  0  0  0  0
   45.7950   30.4140   35.0520 H   0  0  0  0  0  0  0  0  0  0  0  0
   43.6200   29.2740   34.5460 H   0  0  0  0  0  0  0  0  0  0  0  0
   38.2720   29.7770   38.8300 C   0  0  0  0  0  0  0  0  0  0  0  0
   37.0300   29.7860   38.2400 C   0  0  0  0  0  0  0  0  0  0  0  0
   36.4060   28.6330   38.7160 C   0  0  0  0  0  0  0  0  0  0  0  0
   37.2910   27.9990   39.5590 C   0  0  0  0  0  0  0  0  0  0  0  0
   38.3850   28.7290   39.5850 O   0  0  0  0  0  0  0  0  0  0  0  0
   36.5910   30.5040   37.5520 H   0  0  0  0  0  0  0  0  0  0  0  0
   35.4080   28.2580   38.4970 H   0  0  0  0  0  0  0  0  0  0  0  0
   37.1010   26.7580   40.3000 C   0  0  0  0  0  0  0  0  0  0  0  0
   37.3450   26.7540   41.6580 C   0  0  0  0  0  3  0  0  0  0  0  0
   37.1370   25.5220   42.2880 C   0  0  0  0  0  0  0  0  0  0  0  0
   37.3150   25.4660   43.3520 H   0  0  0  0  0  0  0  0  0  0  0  0
   36.7310   24.4240   41.6250 N   0  0  0  0  0  0  0  0  0  0  0  0
   36.5060   24.4740   40.3080 C   0  0  0  0  0  3  0  0  0  0  0  0
   36.6930   25.6430   39.6570 N   0  0  0  0  0  0  0  0  0  0  0  0
  1  9  1  0  0  0  0
  2  1  2  0  0  0  0
  2  3  1  0  0  0  0
  3  4  2  0  0  0  0
  4  8  1  0  0  0  0
  4  5  1  0  0  0  0
  5 12  1  0  0  0  0
  5  6  1  0  0  0  0
  6 13  1  0  0  0  0
  7  6  2  0  0  0  0
  8  7  1  0  0  0  0
  9 23  1  0  0  0  0
  9  8  2  0  0  0  0
 10  1  1  0  0  0  0
 11  3  1  0  0  0  0
 14 20  1  0  0  0  0
 14 19  1  0  0  0  0
 15 14  2  0  0  0  0
 16 15  1  0  0  0  0
 16 17  2  0  0  0  0
 17 18  1  0  0  0  0
 18 19  2  0  0  0  0
 18  2  1  0  0  0  0
 21 15  1  0  0  0  0
 22 16  1  0  0  0  0
 23 27  1  0  0  0  0
 24 25  1  0  0  0  0
 24 23  2  0  0  0  0
 25 26  2  0  0  0  0
 26 27  1  0  0  0  0
 26 30  1  0  0  0  0
 28 24  1  0  0  0  0
 29 25  1  0  0  0  0
 30 31  1  0  0  0  0
 31 32  2  0  0  0  0
 32 33  1  0  0  0  0
 34 32  1  0  0  0  0
 35 34  2  0  0  0  0
 36 30  2  0  0  0  0
 36 35  1  0  0  0  0
M  END
>  <minimizedAffinity>
-5.72647285

$$$$

 OpenBabel03252506583D

 36 40  0  0  0  0  0  0  0  0999 V2000
   37.1010   27.5140   39.4360 C   0  0  0  0  0  0  0  0  0  0  0  0
   36.8450   26.3200   40.1110 C   0  0  0  0  0  0  0  0  0  0  0  0
   36.9160   26.2060   41.4780 C   0  0  0  0  0  0  0  0  0  0  0  0
   37.2550   27.3130   42.2480 C   0  0  0  0  0  0  0  0  0  0  0  0
   37.4140   27.5630   43.5780 N   0  0  0  0  0  0  0  0  0  0  0  0
   37.7590   28.8680   43.7230 C   0  0  0  0  0  0  0  0  0  0  0  0
   37.8080   29.4150   42.4860 N   0  0  0  0  0  0  0  0  0  0  0  0
   37.5040   28.4840   41.5650 C   0  0  0  0  0  0  0  0  0  0  0  0
   37.4420   28.6280   40.2110 C   0  0  0  0  0  0  0  0  0  0  0  0
   37.0500   27.6210   38.3570 H   0  0  0  0  0  0  0  0  0  0  0  0
   36.7210   25.2930   42.0030 H   0  0  0  0  0  0  0  0  0  0  0  0
   37.2670   26.7840   44.2770 H   0  0  0  0  0  0  0  0  0  0  0  0
   37.9420   29.3180   44.6720 H   0  0  0  0  0  0  0  0  0  0  0  0
   35.7500   22.9260   39.2170 C   0  0  0  0  0  0  0  0  0  0  0  0
   35.8230   22.9400   37.8320 C   0  0  0  0  0  0  0  0  0  0  0  0
   36.2450   24.1050   37.1960 C   0  0  0  0  0  0  0  0  0  0  0  0
   36.5670   25.1760   37.9780 N   0  0  0  0  0  0  0  0  0  0  0  0
   36.4880   25.1390   39.3320 C   0  0  0  0  0  0  0  0  0  0  0  0
   36.0830   24.0240   39.9470 N   0  0  0  0  0  0  0  0  0  0  0  0
   35.4160   22.0000   39.6830 H   0  0  0  0  0  0  0  0  0  0  0  0
   35.5800   22.1200   37.1790 H   0  0  0  0  0  0  0  0  0  0  0  0
   36.3510   24.2620   36.1280 H   0  0  0  0  0  0  0  0  0  0  0  0
   37.7260   29.9210   39.5720 C   0  0  0  0  0  0  0  0  0  0  0  0
   36.7810   30.7400   39.0010 C   0  0  0  0  0  0  0  0  0  0  0  0
   37.5040   31.8370   38.5310 C   0  0  0  0  0  0  0  0  0  0  0  0
   38.8290   31.6240   38.8390 C   0  0  0  0  0  0  0  0  0  0  0  0
   38.8970   30.4650   39.4590 O   0  0  0  0  0  0  0  0  0  0  0  0
   35.7060   30.6080   38.9120 H   0  0  0  0  0  0  0  0  0  0  0  0
   37.1410   32.7210   38.0120 H   0  0  0  0  0  0  0  0  0  0  0  0
   39.9720   32.4830   38.5550 C   0  0  0  0  0  0  0  0  0  0  0  0
   40.7720   32.1840   37.4720 C   0  0  0  0  0  3  0  0  0  0  0  0
   41.8450   33.0610   37.2750 C   0  0  0  0  0  0  0  0  0  0  0  0
   42.5020   32.8700   36.4400 H   0  0  0  0  0  0  0  0  0  0  0  0
   42.0810   34.1150   38.0770 N   0  0  0  0  0  0  0  0  0  0  0  0
   41.2780   34.3670   39.1160 C   0  0  0  0  0  3  0  0  0  0  0  0
   40.2290   33.5480   39.3450 N   0  0  0  0  0  0  0  0  0  0  0  0
  1  2  2  0  0  0  0
  1  9  1  0  0  0  0
  2  3  1  0  0  0  0
  3 11  1  0  0  0  0
  3  4  2  0  0  0  0
  4  5  1  0  0  0  0
  5  6  1  0  0  0  0
  5 12  1  0  0  0  0
  6 13  1  0  0  0  0
  7  6  2  0  0  0  0
  8  4  1  0  0  0  0
  8  7  1  0  0  0  0
  9  8  2  0  0  0  0
 10  1  1  0  0  0  0
 14 20  1  0  0  0  0
 14 19  1  0  0  0  0
 15 14  2  0  0  0  0
 16 15  1  0  0  0  0
 16 17  2  0  0  0  0
 17 18  1  0  0  0  0
 18 19  2  0  0  0  0
 18  2  1  0  0  0  0
 21 15  1  0  0  0  0
 22 16  1  0  0  0  0
 23  9  1  0  0  0  0
 24 23  2  0  0  0  0
 25 26  2  0  0  0  0
 25 24  1  0  0  0  0
 26 27  1  0  0  0  0
 27 23  1  0  0  0  0
 28 24  1  0  0  0  0
 29 25  1  0  0  0  0
 30 26  1  0  0  0  0
 30 36  1  0  0  0  0
 31 30  2  0  0  0  0
 32 31  1  0  0  0  0
 32 34  2  0  0  0  0
 33 32  1  0  0  0  0
 34 35  1  0  0  0  0
 35 36  2  0  0  0  0
M  END
>  <minimizedAffinity>
-5.6975975

$$$$

 OpenBabel03252506583D

 36 40  0  0  0  0  0  0  0  0999 V2000
   37.8040   30.7850   40.2610 C   0  0  0  0  0  0  0  0  0  0  0  0
   38.7700   31.1040   41.2160 C   0  0  0  0  0  0  0  0  0  0  0  0
   38.9410   30.3840   42.3730 C   0  0  0  0  0  0  0  0  0  0  0  0
   38.1310   29.2850   42.6300 C   0  0  0  0  0  0  0  0  0  0  0  0
   38.0190   28.3690   43.6340 N   0  0  0  0  0  0  0  0  0  0  0  0
   37.0160   27.5130   43.3140 C   0  0  0  0  0  0  0  0  0  0  0  0
   36.5170   27.9010   42.1170 N   0  0  0  0  0  0  0  0  0  0  0  0
   37.1820   28.9840   41.6770 C   0  0  0  0  0  0  0  0  0  0  0  0
   36.9870   29.6780   40.5200 C   0  0  0  0  0  0  0  0  0  0  0  0
   37.6550   31.3430   39.3430 H   0  0  0  0  0  0  0  0  0  0  0  0
   39.6810   30.6230   43.1100 H   0  0  0  0  0  0  0  0  0  0  0  0
   38.6650   28.4290   44.4690 H   0  0  0  0  0  0  0  0  0  0  0  0
   36.7260   26.6990   43.9380 H   0  0  0  0  0  0  0  0  0  0  0  0
   39.9230   34.4970   40.3930 C   0  0  0  0  0  0  0  0  0  0  0  0
   41.2990   34.3920   40.5360 C   0  0  0  0  0  0  0  0  0  0  0  0
   41.8390   33.1650   40.9140 C   0  0  0  0  0  0  0  0  0  0  0  0
   40.9790   32.1270   41.1230 N   0  0  0  0  0  0  0  0  0  0  0  0
   39.6360   32.2530   40.9760 C   0  0  0  0  0  0  0  0  0  0  0  0
   39.1120   33.4290   40.6140 N   0  0  0  0  0  0  0  0  0  0  0  0
   39.5330   35.4690   40.0960 H   0  0  0  0  0  0  0  0  0  0  0  0
   42.0120   35.1830   40.3820 H   0  0  0  0  0  0  0  0  0  0  0  0
   42.8900   32.9350   41.0650 H   0  0  0  0  0  0  0  0  0  0  0  0
   35.9460   29.2800   39.5620 C   0  0  0  0  0  0  0  0  0  0  0  0
   34.5950   29.2990   39.8150 C   0  0  0  0  0  0  0  0  0  0  0  0
   34.0100   28.8460   38.6330 C   0  0  0  0  0  0  0  0  0  0  0  0
   35.0250   28.5790   37.7420 C   0  0  0  0  0  0  0  0  0  0  0  0
   36.1560   28.8580   38.3550 O   0  0  0  0  0  0  0  0  0  0  0  0
   34.0590   29.5930   40.7140 H   0  0  0  0  0  0  0  0  0  0  0  0
   32.9550   28.7080   38.4040 H   0  0  0  0  0  0  0  0  0  0  0  0
   34.9200   28.0840   36.3750 C   0  0  0  0  0  0  0  0  0  0  0  0
   33.9770   27.1170   36.0920 C   0  0  0  0  0  3  0  0  0  0  0  0
   33.9470   26.7000   34.7560 C   0  0  0  0  0  0  0  0  0  0  0  0
   33.2260   25.9440   34.4830 H   0  0  0  0  0  0  0  0  0  0  0  0
   34.7700   27.2010   33.8180 N   0  0  0  0  0  0  0  0  0  0  0  0
   35.6690   28.1380   34.1380 C   0  0  0  0  0  3  0  0  0  0  0  0
   35.7350   28.5720   35.4150 N   0  0  0  0  0  0  0  0  0  0  0  0
  1  9  2  0  0  0  0
  1  2  1  0  0  0  0
  2  3  2  0  0  0  0
  3  4  1  0  0  0  0
  3 11  1  0  0  0  0
  4  5  1  0  0  0  0
  5 12  1  0  0  0  0
  6  5  1  0  0  0  0
  6 13  1  0  0  0  0
  7  6  2  0  0  0  0
  8  7  1  0  0  0  0
  8  4  2  0  0  0  0
  9  8  1  0  0  0  0
 10  1  1  0  0  0  0
 14 15  2  0  0  0  0
 14 19  1  0  0  0  0
 15 16  1  0  0  0  0
 16 22  1  0  0  0  0
 16 17  2  0  0  0  0
 18 17  1  0  0  0  0
 18  2  1  0  0  0  0
 19 18  2  0  0  0  0
 20 14  1  0  0  0  0
 21 15  1  0  0  0  0
 23 24  2  0  0  0  0
 23  9  1  0  0  0  0
 24 28  1  0  0  0  0
 25 24  1  0  0  0  0
 26 27  1  0  0  0  0
 26 25  2  0  0  0  0
 27 23  1  0  0  0  0
 29 25  1  0  0  0  0
 30 26  1  0  0  0  0
 31 30  1  0  0  0  0
 32 31  2  0  0  0  0
 33 32  1  0  0  0  0
 34 35  2  0  0  0  0
 34 32  1  0  0  0  0
 35 36  1  0  0  0  0
 36 30  2  0  0  0  0
M  END
>  <minimizedAffinity>
-5.65034056

$$$$

 OpenBabel03252506583D

 36 40  0  0  0  0  0  0  0  0999 V2000
   36.8700   27.4750   40.3450 C   0  0  0  0  0  0  0  0  0  0  0  0
   37.9100   27.6850   41.2490 C   0  0  0  0  0  0  0  0  0  0  0  0
   38.3990   28.9340   41.5490 C   0  0  0  0  0  0  0  0  0  0  0  0
   37.8500   30.0550   40.9380 C   0  0  0  0  0  0  0  0  0  0  0  0
   38.0710   31.3990   40.9890 N   0  0  0  0  0  0  0  0  0  0  0  0
   37.1970   32.0030   40.1440 C   0  0  0  0  0  0  0  0  0  0  0  0
   36.4430   31.0310   39.5780 N   0  0  0  0  0  0  0  0  0  0  0  0
   36.8230   29.8300   40.0470 C   0  0  0  0  0  0  0  0  0  0  0  0
   36.3170   28.6040   39.7300 C   0  0  0  0  0  0  0  0  0  0  0  0
   36.4730   26.4960   40.0970 H   0  0  0  0  0  0  0  0  0  0  0  0
   39.1970   29.1030   42.2420 H   0  0  0  0  0  0  0  0  0  0  0  0
   38.8270   31.7800   41.6210 H   0  0  0  0  0  0  0  0  0  0  0  0
   37.1620   33.0580   40.0000 H   0  0  0  0  0  0  0  0  0  0  0  0
   38.8090   24.2180   42.0810 C   0  0  0  0  0  0  0  0  0  0  0  0
   39.6540   24.3780   43.1700 C   0  0  0  0  0  0  0  0  0  0  0  0
   39.9220   25.6670   43.6250 C   0  0  0  0  0  0  0  0  0  0  0  0
   39.3320   26.7080   42.9700 N   0  0  0  0  0  0  0  0  0  0  0  0
   38.5090   26.5280   41.9070 C   0  0  0  0  0  0  0  0  0  0  0  0
   38.2490   25.2930   41.4670 N   0  0  0  0  0  0  0  0  0  0  0  0
   38.6210   23.1980   41.7510 H   0  0  0  0  0  0  0  0  0  0  0  0
   40.1390   23.5860   43.7140 H   0  0  0  0  0  0  0  0  0  0  0  0
   40.5590   25.9430   44.4590 H   0  0  0  0  0  0  0  0  0  0  0  0
   35.2180   28.4640   38.7640 C   0  0  0  0  0  0  0  0  0  0  0  0
   35.1480   27.5000   37.7860 C   0  0  0  0  0  0  0  0  0  0  0  0
   33.9460   27.7560   37.1260 C   0  0  0  0  0  0  0  0  0  0  0  0
   33.3630   28.8460   37.7320 C   0  0  0  0  0  0  0  0  0  0  0  0
   34.1690   29.2230   38.7010 O   0  0  0  0  0  0  0  0  0  0  0  0
   35.8440   26.7010   37.5450 H   0  0  0  0  0  0  0  0  0  0  0  0
   33.5050   27.2260   36.2840 H   0  0  0  0  0  0  0  0  0  0  0  0
   32.1000   29.4950   37.4010 C   0  0  0  0  0  0  0  0  0  0  0  0
   31.8020   29.7260   36.0740 C   0  0  0  0  0  3  0  0  0  0  0  0
   30.5710   30.3530   35.8500 C   0  0  0  0  0  0  0  0  0  0  0  0
   30.2910   30.5560   34.8270 H   0  0  0  0  0  0  0  0  0  0  0  0
   29.7400   30.7040   36.8480 N   0  0  0  0  0  0  0  0  0  0  0  0
   30.0690   30.4600   38.1200 C   0  0  0  0  0  3  0  0  0  0  0  0
   31.2480   29.8560   38.3860 N   0  0  0  0  0  0  0  0  0  0  0  0
  1  2  1  0  0  0  0
  2  3  2  0  0  0  0
  2 18  1  0  0  0  0
  3 11  1  0  0  0  0
  4  5  1  0  0  0  0
  4  3  1  0  0  0  0
  5 12  1  0  0  0  0
  6  5  1  0  0  0  0
  7  8  1  0  0  0  0
  7  6  2  0  0  0  0
  8  4  2  0  0  0  0
  9  8  1  0  0  0  0
  9  1  2  0  0  0  0
 10  1  1  0  0  0  0
 13  6  1  0  0  0  0
 14 15  1  0  0  0  0
 15 16  2  0  0  0  0
 15 21  1  0  0  0  0
 16 22  1  0  0  0  0
 17 16  1  0  0  0  0
 18 17  2  0  0  0  0
 19 18  1  0  0  0  0
 19 14  2  0  0  0  0
 20 14  1  0  0  0  0
 23  9  1  0  0  0  0
 24 23  2  0  0  0  0
 25 26  2  0  0  0  0
 25 24  1  0  0  0  0
 26 27  1  0  0  0  0
 27 23  1  0  0  0  0
 28 24  1  0  0  0  0
 29 25  1  0  0  0  0
 30 26  1  0  0  0  0
 30 36  1  0  0  0  0
 31 30  2  0  0  0  0
 32 31  1  0  0  0  0
 32 34  2  0  0  0  0
 33 32  1  0  0  0  0
 34 35  1  0  0  0  0
 35 36  2  0  0  0  0
M  END
>  <minimizedAffinity>
-5.58741045

$$$$

 OpenBabel03252506583D

 36 40  0  0  0  0  0  0  0  0999 V2000
   41.2860   31.1660   40.4270 C   0  0  0  0  0  0  0  0  0  0  0  0
   41.6930   32.2900   39.7090 C   0  0  0  0  0  0  0  0  0  0  0  0
   40.8150   33.2460   39.2580 C   0  0  0  0  0  0  0  0  0  0  0  0
   39.4560   33.1120   39.5160 C   0  0  0  0  0  0  0  0  0  0  0  0
   38.3350   33.8360   39.2360 N   0  0  0  0  0  0  0  0  0  0  0  0
   37.2680   33.1820   39.7610 C   0  0  0  0  0  0  0  0  0  0  0  0
   37.7350   32.0620   40.3630 N   0  0  0  0  0  0  0  0  0  0  0  0
   39.0710   31.9960   40.2260 C   0  0  0  0  0  0  0  0  0  0  0  0
   39.9170   31.0320   40.6860 C   0  0  0  0  0  0  0  0  0  0  0  0
   41.9660   30.4020   40.7890 H   0  0  0  0  0  0  0  0  0  0  0  0
   41.1200   34.1120   38.7060 H   0  0  0  0  0  0  0  0  0  0  0  0
   38.4180   34.7380   38.6910 H   0  0  0  0  0  0  0  0  0  0  0  0
   36.2680   33.5410   39.6810 H   0  0  0  0  0  0  0  0  0  0  0  0
   44.8650   33.6850   38.4790 C   0  0  0  0  0  0  0  0  0  0  0  0
   45.7930   32.7440   38.9020 C   0  0  0  0  0  0  0  0  0  0  0  0
   45.3430   31.6320   39.6080 C   0  0  0  0  0  0  0  0  0  0  0  0
   44.0030   31.5280   39.8450 N   0  0  0  0  0  0  0  0  0  0  0  0
   43.1140   32.4600   39.4210 C   0  0  0  0  0  0  0  0  0  0  0  0
   43.5410   33.5300   38.7430 N   0  0  0  0  0  0  0  0  0  0  0  0
   45.2500   34.5420   37.9290 H   0  0  0  0  0  0  0  0  0  0  0  0
   46.8550   32.7870   38.7370 H   0  0  0  0  0  0  0  0  0  0  0  0
   45.9480   30.8200   40.0000 H   0  0  0  0  0  0  0  0  0  0  0  0
   39.4120   29.8740   41.4370 C   0  0  0  0  0  0  0  0  0  0  0  0
   39.1150   29.8750   42.7790 C   0  0  0  0  0  0  0  0  0  0  0  0
   38.6750   28.5780   43.0430 C   0  0  0  0  0  0  0  0  0  0  0  0
   38.7300   27.8720   41.8620 C   0  0  0  0  0  0  0  0  0  0  0  0
   39.1770   28.6990   40.9420 O   0  0  0  0  0  0  0  0  0  0  0  0
   39.1890   30.6780   43.5080 H   0  0  0  0  0  0  0  0  0  0  0  0
   38.3410   28.1510   43.9860 H   0  0  0  0  0  0  0  0  0  0  0  0
   38.3740   26.4780   41.6260 C   0  0  0  0  0  0  0  0  0  0  0  0
   37.2760   25.9560   42.2780 C   0  0  0  0  0  3  0  0  0  0  0  0
   37.0090   24.6120   41.9920 C   0  0  0  0  0  0  0  0  0  0  0  0
   36.1590   24.1550   42.4780 H   0  0  0  0  0  0  0  0  0  0  0  0
   37.7610   23.8830   41.1490 N   0  0  0  0  0  0  0  0  0  0  0  0
   38.8170   24.4310   40.5390 C   0  0  0  0  0  3  0  0  0  0  0  0
   39.1140   25.7260   40.7830 N   0  0  0  0  0  0  0  0  0  0  0  0
  1  9  1  0  0  0  0
  1 10  1  0  0  0  0
  2  1  2  0  0  0  0
  3  4  2  0  0  0  0
  3  2  1  0  0  0  0
  4  8  1  0  0  0  0
  5  4  1  0  0  0  0
  5  6  1  0  0  0  0
  6  7  2  0  0  0  0
  8  7  1  0  0  0  0
  8  9  2  0  0  0  0
  9 23  1  0  0  0  0
 11  3  1  0  0  0  0
 12  5  1  0  0  0  0
 13  6  1  0  0  0  0
 14 19  2  0  0  0  0
 14 15  1  0  0  0  0
 15 16  2  0  0  0  0
 16 17  1  0  0  0  0
 16 22  1  0  0  0  0
 18  2  1  0  0  0  0
 18 17  2  0  0  0  0
 19 18  1  0  0  0  0
 20 14  1  0  0  0  0
 21 15  1  0  0  0  0
 23 24  2  0  0  0  0
 24 25  1  0  0  0  0
 24 28  1  0  0  0  0
 25 29  1  0  0  0  0
 26 25  2  0  0  0  0
 27 23  1  0  0  0  0
 27 26  1  0  0  0  0
 30 26  1  0  0  0  0
 30 31  1  0  0  0  0
 32 31  2  0  0  0  0
 32 33  1  0  0  0  0
 34 32  1  0  0  0  0
 35 36  1  0  0  0  0
 35 34  2  0  0  0  0
 36 30  2  0  0  0  0
M  END
>  <minimizedAffinity>
-5.53484106

$$$$

 OpenBabel03252506583D

 36 40  0  0  0  0  0  0  0  0999 V2000
   37.8270   30.2490   40.0370 C   0  0  0  0  0  0  0  0  0  0  0  0
   38.5020   30.8990   41.0710 C   0  0  0  0  0  0  0  0  0  0  0  0
   38.4410   30.4840   42.3790 C   0  0  0  0  0  0  0  0  0  0  0  0
   37.6820   29.3690   42.7150 C   0  0  0  0  0  0  0  0  0  0  0  0
   37.4000   28.6930   43.8650 N   0  0  0  0  0  0  0  0  0  0  0  0
   36.5770   27.6590   43.5550 C   0  0  0  0  0  0  0  0  0  0  0  0
   36.3570   27.7010   42.2200 N   0  0  0  0  0  0  0  0  0  0  0  0
   37.0220   28.7390   41.6820 C   0  0  0  0  0  0  0  0  0  0  0  0
   37.0630   29.1270   40.3760 C   0  0  0  0  0  0  0  0  0  0  0  0
   37.8640   30.5650   39.0000 H   0  0  0  0  0  0  0  0  0  0  0  0
   38.9560   30.9780   43.1780 H   0  0  0  0  0  0  0  0  0  0  0  0
   37.8150   29.0220   44.7800 H   0  0  0  0  0  0  0  0  0  0  0  0
   36.2080   26.9720   44.2810 H   0  0  0  0  0  0  0  0  0  0  0  0
   41.3610   33.0420   40.2040 C   0  0  0  0  0  0  0  0  0  0  0  0
   40.7870   34.3050   40.1510 C   0  0  0  0  0  0  0  0  0  0  0  0
   39.4250   34.4310   40.4090 C   0  0  0  0  0  0  0  0  0  0  0  0
   38.7250   33.2980   40.7030 N   0  0  0  0  0  0  0  0  0  0  0  0
   39.3070   32.0730   40.7510 C   0  0  0  0  0  0  0  0  0  0  0  0
   40.6150   31.9470   40.5030 N   0  0  0  0  0  0  0  0  0  0  0  0
   42.4280   32.9790   39.9970 H   0  0  0  0  0  0  0  0  0  0  0  0
   41.3010   35.2220   39.9230 H   0  0  0  0  0  0  0  0  0  0  0  0
   38.8430   35.3480   40.4030 H   0  0  0  0  0  0  0  0  0  0  0  0
   36.3230   28.3900   39.3420 C   0  0  0  0  0  0  0  0  0  0  0  0
   36.7320   27.2050   38.7780 C   0  0  0  0  0  0  0  0  0  0  0  0
   35.7280   26.8870   37.8630 C   0  0  0  0  0  0  0  0  0  0  0  0
   34.7800   27.8840   37.9230 C   0  0  0  0  0  0  0  0  0  0  0  0
   35.1920   28.7510   38.8230 O   0  0  0  0  0  0  0  0  0  0  0  0
   37.6230   26.6130   38.9680 H   0  0  0  0  0  0  0  0  0  0  0  0
   35.6570   26.0270   37.2000 H   0  0  0  0  0  0  0  0  0  0  0  0
   33.5440   28.0020   37.1580 C   0  0  0  0  0  0  0  0  0  0  0  0
   33.1610   26.9510   36.3520 C   0  0  0  0  0  3  0  0  0  0  0  0
   31.9630   27.1510   35.6560 C   0  0  0  0  0  0  0  0  0  0  0  0
   31.6190   26.3560   35.0110 H   0  0  0  0  0  0  0  0  0  0  0  0
   31.2400   28.2800   35.7620 N   0  0  0  0  0  0  0  0  0  0  0  0
   31.6490   29.2740   36.5550 C   0  0  0  0  0  3  0  0  0  0  0  0
   32.8000   29.1260   37.2480 N   0  0  0  0  0  0  0  0  0  0  0  0
  1  9  2  0  0  0  0
  1  2  1  0  0  0  0
  2  3  2  0  0  0  0
  3  4  1  0  0  0  0
  3 11  1  0  0  0  0
  4  5  1  0  0  0  0
  5 12  1  0  0  0  0
  6  5  1  0  0  0  0
  6 13  1  0  0  0  0
  7  6  2  0  0  0  0
  8  7  1  0  0  0  0
  8  4  2  0  0  0  0
  9  8  1  0  0  0  0
 10  1  1  0  0  0  0
 14 19  1  0  0  0  0
 15 14  2  0  0  0  0
 15 16  1  0  0  0  0
 16 17  2  0  0  0  0
 17 18  1  0  0  0  0
 18  2  1  0  0  0  0
 19 18  2  0  0  0  0
 20 14  1  0  0  0  0
 21 15  1  0  0  0  0
 22 16  1  0  0  0  0
 23  9  1  0  0  0  0
 24 28  1  0  0  0  0
 24 23  2  0  0  0  0
 25 26  2  0  0  0  0
 25 24  1  0  0  0  0
 26 27  1  0  0  0  0
 27 23  1  0  0  0  0
 29 25  1  0  0  0  0
 30 36  1  0  0  0  0
 30 26  1  0  0  0  0
 31 30  2  0  0  0  0
 32 34  2  0  0  0  0
 32 31  1  0  0  0  0
 33 32  1  0  0  0  0
 34 35  1  0  0  0  0
 35 36  2  0  0  0  0
M  END
>  <minimizedAffinity>
-5.53026485

$$$$
