
 OpenBabel03252508323D

 30 32  0  0  1  0  0  0  0  0999 V2000
   45.1940   34.3660   42.3220 N   0  0  0  0  0  0  0  0  0  0  0  0
   46.1440   33.5970   41.6060 C   0  0  1  0  0  0  0  0  0  0  0  0
   46.0300   33.6250   40.1310 C   0  0  0  0  0  0  0  0  0  0  0  0
   44.7600   33.8030   39.5670 N   0  0  0  0  0  0  0  0  0  0  0  0
   43.7760   34.4480   40.3270 C   0  0  0  0  0  0  0  0  0  0  0  0
   44.3790   35.1970   41.4940 C   0  0  0  0  0  0  0  0  0  0  0  0
   46.0650   32.5360   41.9550 H   0  0  0  0  0  0  0  0  0  0  0  0
   46.7030   34.4440   39.7300 H   0  0  0  0  0  0  0  0  0  0  0  0
   46.4960   32.6930   39.7120 H   0  0  0  0  0  0  0  0  0  0  0  0
   44.8470   34.2440   38.6220 H   0  0  0  0  0  0  0  0  0  0  0  0
   43.0450   33.6790   40.6830 H   0  0  0  0  0  0  0  0  0  0  0  0
   43.1840   35.1890   39.7320 H   0  0  0  0  0  0  0  0  0  0  0  0
   43.6270   35.8120   41.9930 H   0  0  0  0  0  0  0  0  0  0  0  0
   45.0660   35.9540   40.9970 H   0  0  0  0  0  0  0  0  0  0  0  0
   44.6260   35.3710   44.4080 C   0  0  0  0  0  0  0  0  0  0  0  0
   45.1400   34.2760   43.7210 C   0  0  0  0  0  0  0  0  0  0  0  0
   45.5860   33.1790   44.4710 C   0  0  0  0  0  0  0  0  0  0  0  0
   45.5120   33.2000   45.8300 N   0  0  0  0  0  0  0  0  0  0  0  0
   45.0020   34.2920   46.4650 C   0  0  0  0  0  0  0  0  0  0  0  0
   44.5670   35.3580   45.7660 N   0  0  0  0  0  0  0  0  0  0  0  0
   44.2360   36.2990   44.0260 H   0  0  0  0  0  0  0  0  0  0  0  0
   45.9740   32.3330   43.9680 H   0  0  0  0  0  0  0  0  0  0  0  0
   44.9720   34.2450   47.5540 H   0  0  0  0  0  0  0  0  0  0  0  0
   47.5630   34.0150   41.9180 C   0  0  0  0  0  0  0  0  0  0  0  0
   48.5820   33.3490   42.5650 C   0  0  0  0  0  3  0  0  0  0  0  0
   49.7880   33.9870   42.7060 C   0  0  0  0  0  0  0  0  0  0  0  0
   50.5310   33.3920   43.2260 H   0  0  0  0  0  0  0  0  0  0  0  0
   49.9640   35.2300   42.2230 N   0  0  0  0  0  0  0  0  0  0  0  0
   48.9750   35.8590   41.6030 C   0  0  0  0  0  3  0  0  0  0  0  0
   47.7660   35.2750   41.4360 N   0  0  0  0  0  0  0  0  0  0  0  0
  1 16  1  0  0  0  0
  2 24  1  0  0  0  0
  2  7  1  1  0  0  0
  2  1  1  0  0  0  0
  3  2  1  0  0  0  0
  4  3  1  0  0  0  0
  4  5  1  0  0  0  0
  5 11  1  0  0  0  0
  5  6  1  0  0  0  0
  6 13  1  0  0  0  0
  6  1  1  0  0  0  0
  8  3  1  0  0  0  0
  9  3  1  0  0  0  0
 10  4  1  0  0  0  0
 12  5  1  0  0  0  0
 14  6  1  0  0  0  0
 15 20  1  0  0  0  0
 16 15  2  0  0  0  0
 16 17  1  0  0  0  0
 17 18  2  0  0  0  0
 18 19  1  0  0  0  0
 19 23  1  0  0  0  0
 20 19  2  0  0  0  0
 21 15  1  0  0  0  0
 22 17  1  0  0  0  0
 24 25  1  0  0  0  0
 25 26  2  0  0  0  0
 26 27  1  0  0  0  0
 28 26  1  0  0  0  0
 29 28  2  0  0  0  0
 30 29  1  0  0  0  0
 30 24  2  0  0  0  0
M  END
>  <minimizedAffinity>
-4.83823299

>  <minimizedRMSD>
2.06457639

$$$$
