
 OpenBabel03252508293D

 37 40  0  0  1  0  0  0  0  0999 V2000
   39.8220   33.4140   42.2480 N   0  0  0  0  0  0  0  0  0  0  0  0
   40.0050   34.5750   41.3720 C   0  0  2  0  0  0  0  0  0  0  0  0
   39.0620   34.5870   40.2280 C   0  0  0  0  0  0  0  0  0  0  0  0
   38.0240   33.5780   40.3440 N   0  0  0  0  0  0  0  0  0  0  0  0
   38.4770   32.2730   40.6640 C   0  0  0  0  0  0  0  0  0  0  0  0
   39.8380   32.2580   41.3200 C   0  0  2  0  0  0  0  0  0  0  0  0
   40.6760   33.3220   42.8380 H   0  0  0  0  0  0  0  0  0  0  0  0
   39.9190   35.4760   42.0150 H   0  0  0  0  0  0  0  0  0  0  0  0
   38.5100   35.5680   40.2410 H   0  0  0  0  0  0  0  0  0  0  0  0
   39.4610   34.3600   39.2280 H   0  0  0  0  0  0  0  0  0  0  0  0
   37.4670   33.5610   39.4800 H   0  0  0  0  0  0  0  0  0  0  0  0
   37.7600   31.8490   41.4130 H   0  0  0  0  0  0  0  0  0  0  0  0
   38.4490   31.5570   39.8040 H   0  0  0  0  0  0  0  0  0  0  0  0
   40.6330   32.4490   40.5860 H   0  0  0  0  0  0  0  0  0  0  0  0
   43.5530   34.4800   40.7470 C   0  0  0  0  0  0  0  0  0  0  0  0
   42.9840   34.5560   39.4680 C   0  0  0  0  0  0  0  0  0  0  0  0
   41.6060   34.6070   39.5660 C   0  0  0  0  0  0  0  0  0  0  0  0
   41.3680   34.5590   40.8740 N   0  0  0  0  0  0  0  0  0  0  0  0
   42.5000   34.4850   41.5640 N   0  0  0  0  0  0  0  0  0  0  0  0
   43.6520   34.5650   38.6060 H   0  0  0  0  0  0  0  0  0  0  0  0
   41.1570   34.6740   38.5820 H   0  0  0  0  0  0  0  0  0  0  0  0
   47.2540   33.8300   40.6100 C   0  0  0  0  0  0  0  0  0  0  0  0
   45.8790   33.7750   40.2010 C   0  0  0  0  0  0  0  0  0  0  0  0
   44.9890   34.4270   41.0180 C   0  0  0  0  0  0  0  0  0  0  0  0
   45.4320   35.0720   42.1360 N   0  0  0  0  0  0  0  0  0  0  0  0
   46.7370   35.0970   42.4830 C   0  0  0  0  0  0  0  0  0  0  0  0
   47.6190   34.4750   41.7110 N   0  0  0  0  0  0  0  0  0  0  0  0
   47.9510   33.3140   39.9620 H   0  0  0  0  0  0  0  0  0  0  0  0
   45.5310   33.2730   39.3280 H   0  0  0  0  0  0  0  0  0  0  0  0
   46.9510   35.6460   43.3990 H   0  0  0  0  0  0  0  0  0  0  0  0
   40.0310   31.0060   42.0630 C   0  0  0  0  0  0  0  0  0  0  0  0
   41.1430   30.7830   42.8190 C   0  0  0  0  0  0  0  0  0  0  0  0
   41.2370   29.5740   43.4820 C   0  0  0  0  0  0  0  0  0  0  0  0
   42.1030   29.3670   44.0890 H   0  0  0  0  0  0  0  0  0  0  0  0
   40.2750   28.6450   43.3920 N   0  0  0  0  0  0  0  0  0  0  0  0
   39.1820   28.9080   42.6250 C   0  0  0  0  0  0  0  0  0  0  0  0
   39.0570   30.0820   41.9630 N   0  0  0  0  0  0  0  0  0  0  0  0
  1  7  1  0  0  0  0
  2  8  1  1  0  0  0
  2  1  1  0  0  0  0
  3  9  1  0  0  0  0
  3  4  1  0  0  0  0
  3  2  1  0  0  0  0
  4  5  1  0  0  0  0
  5  6  1  0  0  0  0
  5 12  1  0  0  0  0
  6 14  1  6  0  0  0
  6 31  1  0  0  0  0
  6  1  1  0  0  0  0
 10  3  1  0  0  0  0
 11  4  1  0  0  0  0
 13  5  1  0  0  0  0
 15 24  1  0  0  0  0
 15 19  2  0  0  0  0
 16 17  2  0  0  0  0
 16 15  1  0  0  0  0
 17 18  1  0  0  0  0
 18  2  1  0  0  0  0
 18 19  1  0  0  0  0
 20 16  1  0  0  0  0
 21 17  1  0  0  0  0
 22 27  1  0  0  0  0
 23 22  2  0  0  0  0
 23 24  1  0  0  0  0
 24 25  2  0  0  0  0
 25 26  1  0  0  0  0
 26 30  1  0  0  0  0
 27 26  2  0  0  0  0
 28 22  1  0  0  0  0
 29 23  1  0  0  0  0
 31 32  1  0  0  0  0
 32 33  2  0  0  0  0
 33 34  1  0  0  0  0
 35 33  1  0  0  0  0
 36 35  2  0  0  0  0
 37 31  2  0  0  0  0
 37 36  1  0  0  0  0
M  END
>  <minimizedAffinity>
-6.17490864

>  <minimizedRMSD>
5.32331371

$$$$
