
 OpenBabel03252507083D

 22 23  0  0  0  0  0  0  0  0999 V2000
   44.5440   35.9700   44.5440 C   0  0  0  0  0  0  0  0  0  0  0  0
   45.1670   35.9140   43.2850 C   0  0  0  0  0  0  0  0  0  0  0  0
   46.0790   34.8750   43.0660 C   0  0  0  0  0  0  0  0  0  0  0  0
   46.3190   33.9840   44.0610 N   0  0  0  0  0  0  0  0  0  0  0  0
   45.7030   34.0640   45.2640 C   0  0  0  0  0  0  0  0  0  0  0  0
   44.8270   35.0480   45.4980 N   0  0  0  0  0  0  0  0  0  0  0  0
   43.8410   36.8040   44.6510 H   0  0  0  0  0  0  0  0  0  0  0  0
   44.9660   36.6300   42.5010 H   0  0  0  0  0  0  0  0  0  0  0  0
   46.0020   33.0760   46.2960 C   0  0  0  0  0  0  0  0  0  0  0  0
   45.2410   33.0340   47.4400 C   0  0  0  0  0  3  0  0  0  0  0  0
   45.5860   32.0760   48.3600 C   0  0  0  0  0  0  0  0  0  0  0  0
   45.0660   31.9360   49.3070 H   0  0  0  0  0  0  0  0  0  0  0  0
   46.5900   31.2120   48.2060 N   0  0  0  0  0  0  0  0  0  0  0  0
   47.3280   31.2780   47.0600 C   0  0  0  0  0  3  0  0  0  0  0  0
   47.0130   32.2090   46.1370 N   0  0  0  0  0  0  0  0  0  0  0  0
   46.6860   34.8360   41.8150 O   0  0  0  0  0  0  0  0  0  0  0  0
   48.6340   33.1780   41.1450 O   0  0  0  0  0  0  0  0  0  0  0  0
   48.3750   34.5580   41.7210 P   0  0  0  0  0  0  0  0  0  0  0  0
   49.0510   35.7670   40.7830 O   0  0  0  0  0  0  0  0  0  0  0  0
   49.9870   35.5040   40.5560 H   0  0  0  0  0  0  0  0  0  0  0  0
   48.9790   34.5830   43.3170 O   0  0  0  0  0  0  0  0  0  0  0  0
   48.7610   35.5020   43.6590 H   0  0  0  0  0  0  0  0  0  0  0  0
  1  7  1  0  0  0  0
  1  6  1  0  0  0  0
  2  1  2  0  0  0  0
  3  2  1  0  0  0  0
  3  4  2  0  0  0  0
  4  5  1  0  0  0  0
  5  6  2  0  0  0  0
  5  9  1  0  0  0  0
  8  2  1  0  0  0  0
  9 10  1  0  0  0  0
 10 11  2  0  0  0  0
 11 12  1  0  0  0  0
 13 11  1  0  0  0  0
 14 13  2  0  0  0  0
 15  9  2  0  0  0  0
 15 14  1  0  0  0  0
 16  3  1  0  0  0  0
 17 18  2  0  0  0  0
 18 16  1  0  0  0  0
 18 21  1  0  0  0  0
 19 18  1  0  0  0  0
 20 19  1  0  0  0  0
 21 22  1  0  0  0  0
M  END
>  <minimizedAffinity>
-5.62898254

>  <minimizedRMSD>
0.589893162

$$$$
