
 OpenBabel03242523483D

 17 18  0  0  0  0  0  0  0  0999 V2000
   37.7910   33.3520   39.8560 C   0  0  0  0  0  0  0  0  0  0  0  0
   37.3140   32.1500   40.4100 C   0  0  0  0  0  0  0  0  0  0  0  0
   38.2340   31.3410   41.0860 C   0  0  0  0  0  0  0  0  0  0  0  0
   39.5160   31.7450   41.1730 N   0  0  0  0  0  0  0  0  0  0  0  0
   39.9380   32.9020   40.6320 C   0  0  0  0  0  0  0  0  0  0  0  0
   39.0890   33.6970   39.9810 N   0  0  0  0  0  0  0  0  0  0  0  0
   36.2750   31.8610   40.3180 H   0  0  0  0  0  0  0  0  0  0  0  0
   40.9740   33.2490   40.6900 H   0  0  0  0  0  0  0  0  0  0  0  0
   37.7900   30.0920   41.6760 C   0  0  0  0  0  0  0  0  0  0  0  0
   38.4350   29.6210   42.8000 C   0  0  0  0  0  3  0  0  0  0  0  0
   37.9730   28.4230   43.3260 C   0  0  0  0  0  0  0  0  0  0  0  0
   38.3800   27.9290   44.2060 H   0  0  0  0  0  0  0  0  0  0  0  0
   36.9390   27.7740   42.7440 N   0  0  0  0  0  0  0  0  0  0  0  0
   36.3310   28.2640   41.6430 C   0  0  0  0  0  3  0  0  0  0  0  0
   36.7590   29.4390   41.1000 N   0  0  0  0  0  0  0  0  0  0  0  0
   36.8950   34.1410   39.1980 O   0  0  0  0  0  0  0  0  0  0  0  0
   36.8430   34.2680   38.2110 H   0  0  0  0  0  0  0  0  0  0  0  0
  1  6  2  0  0  0  0
  1  2  1  0  0  0  0
  2  3  2  0  0  0  0
  3  4  1  0  0  0  0
  3  9  1  0  0  0  0
  5  8  1  0  0  0  0
  5  4  2  0  0  0  0
  6  5  1  0  0  0  0
  7  2  1  0  0  0  0
  9 10  1  0  0  0  0
 10 11  2  0  0  0  0
 11 12  1  0  0  0  0
 13 11  1  0  0  0  0
 14 13  2  0  0  0  0
 15 14  1  0  0  0  0
 15  9  2  0  0  0  0
 16  1  1  0  0  0  0
 17 16  1  0  0  0  0
M  END
>  <minimizedAffinity>
-4.42648172

$$$$

 OpenBabel03242523483D

 17 18  0  0  0  0  0  0  0  0999 V2000
   37.1300   32.4330   39.5500 C   0  0  0  0  0  0  0  0  0  0  0  0
   37.1090   31.5000   40.6020 C   0  0  0  0  0  0  0  0  0  0  0  0
   37.3080   30.1530   40.2750 C   0  0  0  0  0  0  0  0  0  0  0  0
   37.5070   29.8190   38.9850 N   0  0  0  0  0  0  0  0  0  0  0  0
   37.5220   30.7390   38.0040 C   0  0  0  0  0  0  0  0  0  0  0  0
   37.3360   32.0290   38.2790 N   0  0  0  0  0  0  0  0  0  0  0  0
   36.9460   31.8090   41.6260 H   0  0  0  0  0  0  0  0  0  0  0  0
   37.6810   30.4890   36.9510 H   0  0  0  0  0  0  0  0  0  0  0  0
   37.2960   29.1530   41.3250 C   0  0  0  0  0  0  0  0  0  0  0  0
   36.9480   27.8570   41.0050 C   0  0  0  0  0  3  0  0  0  0  0  0
   36.9520   26.9380   42.0440 C   0  0  0  0  0  0  0  0  0  0  0  0
   36.7000   25.8840   41.9460 H   0  0  0  0  0  0  0  0  0  0  0  0
   37.2860   27.3230   43.2970 N   0  0  0  0  0  0  0  0  0  0  0  0
   37.6210   28.6000   43.5750 C   0  0  0  0  0  3  0  0  0  0  0  0
   37.6280   29.5300   42.5780 N   0  0  0  0  0  0  0  0  0  0  0  0
   36.9370   33.7440   39.8680 O   0  0  0  0  0  0  0  0  0  0  0  0
   36.1150   34.2760   39.6810 H   0  0  0  0  0  0  0  0  0  0  0  0
  1 16  1  0  0  0  0
  1  2  1  0  0  0  0
  2  7  1  0  0  0  0
  3  2  2  0  0  0  0
  3  9  1  0  0  0  0
  4  3  1  0  0  0  0
  5  6  1  0  0  0  0
  5  4  2  0  0  0  0
  6  1  2  0  0  0  0
  8  5  1  0  0  0  0
  9 15  1  0  0  0  0
 10  9  2  0  0  0  0
 10 11  1  0  0  0  0
 11 13  2  0  0  0  0
 12 11  1  0  0  0  0
 13 14  1  0  0  0  0
 15 14  2  0  0  0  0
 17 16  1  0  0  0  0
M  END
>  <minimizedAffinity>
-4.34641504

$$$$

 OpenBabel03242523483D

 17 18  0  0  0  0  0  0  0  0999 V2000
   36.5610   30.3030   41.0860 C   0  0  0  0  0  0  0  0  0  0  0  0
   36.2890   28.9250   41.1580 C   0  0  0  0  0  0  0  0  0  0  0  0
   37.3430   28.0450   40.8850 C   0  0  0  0  0  0  0  0  0  0  0  0
   38.5510   28.5520   40.5700 N   0  0  0  0  0  0  0  0  0  0  0  0
   38.7750   29.8770   40.5120 C   0  0  0  0  0  0  0  0  0  0  0  0
   37.7960   30.7440   40.7660 N   0  0  0  0  0  0  0  0  0  0  0  0
   35.3040   28.5570   41.4140 H   0  0  0  0  0  0  0  0  0  0  0  0
   39.7470   30.3090   40.2580 H   0  0  0  0  0  0  0  0  0  0  0  0
   37.1130   26.6130   40.9460 C   0  0  0  0  0  0  0  0  0  0  0  0
   37.2710   25.9660   42.1530 C   0  0  0  0  0  3  0  0  0  0  0  0
   37.0400   24.5980   42.1600 C   0  0  0  0  0  0  0  0  0  0  0  0
   37.1250   23.9540   43.0330 H   0  0  0  0  0  0  0  0  0  0  0  0
   36.6760   23.9600   41.0240 N   0  0  0  0  0  0  0  0  0  0  0  0
   36.5300   24.6260   39.8590 C   0  0  0  0  0  3  0  0  0  0  0  0
   36.7500   25.9700   39.8170 N   0  0  0  0  0  0  0  0  0  0  0  0
   35.5360   31.1610   41.3530 O   0  0  0  0  0  0  0  0  0  0  0  0
   35.0460   31.7130   40.6820 H   0  0  0  0  0  0  0  0  0  0  0  0
  1  2  1  0  0  0  0
  1 16  1  0  0  0  0
  2  7  1  0  0  0  0
  3  9  1  0  0  0  0
  3  2  2  0  0  0  0
  4  3  1  0  0  0  0
  5  4  2  0  0  0  0
  5  6  1  0  0  0  0
  6  1  2  0  0  0  0
  8  5  1  0  0  0  0
  9 10  1  0  0  0  0
 10 11  2  0  0  0  0
 11 12  1  0  0  0  0
 13 11  1  0  0  0  0
 14 13  2  0  0  0  0
 15 14  1  0  0  0  0
 15  9  2  0  0  0  0
 17 16  1  0  0  0  0
M  END
>  <minimizedAffinity>
-4.19320917

$$$$

 OpenBabel03242523483D

 17 18  0  0  0  0  0  0  0  0999 V2000
   39.4380   33.2290   40.7130 C   0  0  0  0  0  0  0  0  0  0  0  0
   39.1970   31.9880   41.3290 C   0  0  0  0  0  0  0  0  0  0  0  0
   37.9780   31.3570   41.0540 C   0  0  0  0  0  0  0  0  0  0  0  0
   37.1050   31.9600   40.2240 N   0  0  0  0  0  0  0  0  0  0  0  0
   37.3690   33.1480   39.6520 C   0  0  0  0  0  0  0  0  0  0  0  0
   38.5190   33.7780   39.8910 N   0  0  0  0  0  0  0  0  0  0  0  0
   39.9250   31.5360   41.9890 H   0  0  0  0  0  0  0  0  0  0  0  0
   36.6740   33.6560   38.9760 H   0  0  0  0  0  0  0  0  0  0  0  0
   37.6830   30.0740   41.6640 C   0  0  0  0  0  0  0  0  0  0  0  0
   38.4530   29.6520   42.7280 C   0  0  0  0  0  3  0  0  0  0  0  0
   38.1310   28.4190   43.2760 C   0  0  0  0  0  0  0  0  0  0  0  0
   38.6460   27.9550   44.1160 H   0  0  0  0  0  0  0  0  0  0  0  0
   37.1070   27.6920   42.7730 N   0  0  0  0  0  0  0  0  0  0  0  0
   36.3750   28.1360   41.7300 C   0  0  0  0  0  3  0  0  0  0  0  0
   36.6640   29.3430   41.1660 N   0  0  0  0  0  0  0  0  0  0  0  0
   40.6250   33.8440   40.9800 O   0  0  0  0  0  0  0  0  0  0  0  0
   40.7510   34.6490   41.5550 H   0  0  0  0  0  0  0  0  0  0  0  0
  1 16  1  0  0  0  0
  1  2  1  0  0  0  0
  2  7  1  0  0  0  0
  3  2  2  0  0  0  0
  3  9  1  0  0  0  0
  4  3  1  0  0  0  0
  5  6  1  0  0  0  0
  5  4  2  0  0  0  0
  6  1  2  0  0  0  0
  8  5  1  0  0  0  0
  9 10  1  0  0  0  0
 10 11  2  0  0  0  0
 11 12  1  0  0  0  0
 13 11  1  0  0  0  0
 14 13  2  0  0  0  0
 15  9  2  0  0  0  0
 15 14  1  0  0  0  0
 16 17  1  0  0  0  0
M  END
>  <minimizedAffinity>
-4.1477685

$$$$

 OpenBabel03242523483D

 17 18  0  0  0  0  0  0  0  0999 V2000
   35.5820   29.4740   40.6800 C   0  0  0  0  0  0  0  0  0  0  0  0
   36.2430   28.3600   41.2270 C   0  0  0  0  0  0  0  0  0  0  0  0
   37.5420   28.5550   41.7120 C   0  0  0  0  0  0  0  0  0  0  0  0
   38.0890   29.7840   41.6330 N   0  0  0  0  0  0  0  0  0  0  0  0
   37.4260   30.8270   41.1040 C   0  0  0  0  0  0  0  0  0  0  0  0
   36.1890   30.6780   40.6320 N   0  0  0  0  0  0  0  0  0  0  0  0
   35.7680   27.3890   41.2720 H   0  0  0  0  0  0  0  0  0  0  0  0
   37.8520   31.8320   41.0290 H   0  0  0  0  0  0  0  0  0  0  0  0
   38.2660   27.4370   42.2860 C   0  0  0  0  0  0  0  0  0  0  0  0
   37.8890   26.1550   41.9440 C   0  0  0  0  0  3  0  0  0  0  0  0
   38.6120   25.1200   42.5190 C   0  0  0  0  0  0  0  0  0  0  0  0
   38.4320   24.0610   42.3470 H   0  0  0  0  0  0  0  0  0  0  0  0
   39.6320   25.3870   43.3670 N   0  0  0  0  0  0  0  0  0  0  0  0
   39.9740   26.6540   43.6800 C   0  0  0  0  0  3  0  0  0  0  0  0
   39.2840   27.6950   43.1330 N   0  0  0  0  0  0  0  0  0  0  0  0
   34.3160   29.2850   40.2080 O   0  0  0  0  0  0  0  0  0  0  0  0
   34.0480   29.2610   39.2480 H   0  0  0  0  0  0  0  0  0  0  0  0
  1  2  1  0  0  0  0
  2  7  1  0  0  0  0
  2  3  2  0  0  0  0
  3  9  1  0  0  0  0
  4  3  1  0  0  0  0
  5  4  2  0  0  0  0
  6  1  2  0  0  0  0
  6  5  1  0  0  0  0
  8  5  1  0  0  0  0
  9 15  1  0  0  0  0
 10  9  2  0  0  0  0
 10 11  1  0  0  0  0
 11 13  2  0  0  0  0
 12 11  1  0  0  0  0
 13 14  1  0  0  0  0
 15 14  2  0  0  0  0
 16  1  1  0  0  0  0
 17 16  1  0  0  0  0
M  END
>  <minimizedAffinity>
-4.12713051

$$$$

 OpenBabel03242523483D

 17 18  0  0  0  0  0  0  0  0999 V2000
   38.6540   24.9840   42.5550 C   0  0  0  0  0  0  0  0  0  0  0  0
   37.8410   25.9760   41.9780 C   0  0  0  0  0  0  0  0  0  0  0  0
   38.1190   27.3090   42.3040 C   0  0  0  0  0  0  0  0  0  0  0  0
   39.1380   27.5750   43.1440 N   0  0  0  0  0  0  0  0  0  0  0  0
   39.8960   26.6000   43.6770 C   0  0  0  0  0  0  0  0  0  0  0  0
   39.6600   25.3210   43.3890 N   0  0  0  0  0  0  0  0  0  0  0  0
   37.0320   25.7210   41.3060 H   0  0  0  0  0  0  0  0  0  0  0  0
   40.7270   26.7940   44.3620 H   0  0  0  0  0  0  0  0  0  0  0  0
   37.3090   28.3690   41.7340 C   0  0  0  0  0  0  0  0  0  0  0  0
   36.2000   28.0290   40.9880 C   0  0  0  0  0  3  0  0  0  0  0  0
   35.4580   29.0780   40.4650 C   0  0  0  0  0  0  0  0  0  0  0  0
   34.5610   28.9670   39.8580 H   0  0  0  0  0  0  0  0  0  0  0  0
   35.8280   30.3590   40.6940 N   0  0  0  0  0  0  0  0  0  0  0  0
   36.9200   30.6550   41.4290 C   0  0  0  0  0  3  0  0  0  0  0  0
   37.6720   29.6490   41.9580 N   0  0  0  0  0  0  0  0  0  0  0  0
   38.3850   23.6860   42.2360 O   0  0  0  0  0  0  0  0  0  0  0  0
   37.9650   23.0120   42.8390 H   0  0  0  0  0  0  0  0  0  0  0  0
  1  6  1  0  0  0  0
  2  3  1  0  0  0  0
  2  1  2  0  0  0  0
  3  4  2  0  0  0  0
  4  5  1  0  0  0  0
  5  8  1  0  0  0  0
  6  5  2  0  0  0  0
  7  2  1  0  0  0  0
  9 15  1  0  0  0  0
  9  3  1  0  0  0  0
 10  9  2  0  0  0  0
 11 13  2  0  0  0  0
 11 10  1  0  0  0  0
 12 11  1  0  0  0  0
 13 14  1  0  0  0  0
 14 15  2  0  0  0  0
 16  1  1  0  0  0  0
 16 17  1  0  0  0  0
M  END
>  <minimizedAffinity>
-4.04408169

$$$$

 OpenBabel03242523483D

 17 18  0  0  0  0  0  0  0  0999 V2000
   36.0710   29.9810   40.5800 C   0  0  0  0  0  0  0  0  0  0  0  0
   36.2500   28.6680   41.0520 C   0  0  0  0  0  0  0  0  0  0  0  0
   36.7920   27.7320   40.1640 C   0  0  0  0  0  0  0  0  0  0  0  0
   37.1130   28.1270   38.9170 N   0  0  0  0  0  0  0  0  0  0  0  0
   36.9290   29.3920   38.4990 C   0  0  0  0  0  0  0  0  0  0  0  0
   36.4150   30.3090   39.3180 N   0  0  0  0  0  0  0  0  0  0  0  0
   35.9790   28.3900   42.0630 H   0  0  0  0  0  0  0  0  0  0  0  0
   37.1820   29.7330   37.4920 H   0  0  0  0  0  0  0  0  0  0  0  0
   36.9970   26.3640   40.6040 C   0  0  0  0  0  0  0  0  0  0  0  0
   36.4640   25.3380   39.8520 C   0  0  0  0  0  3  0  0  0  0  0  0
   36.6880   24.0490   40.3140 C   0  0  0  0  0  0  0  0  0  0  0  0
   36.3310   23.1410   39.8300 H   0  0  0  0  0  0  0  0  0  0  0  0
   37.3970   23.8410   41.4470 N   0  0  0  0  0  0  0  0  0  0  0  0
   37.9040   24.8700   42.1580 C   0  0  0  0  0  3  0  0  0  0  0  0
   37.7030   26.1500   41.7330 N   0  0  0  0  0  0  0  0  0  0  0  0
   35.5430   30.8940   41.4450 O   0  0  0  0  0  0  0  0  0  0  0  0
   34.6200   31.2690   41.4070 H   0  0  0  0  0  0  0  0  0  0  0  0
  1  2  1  0  0  0  0
  1 16  1  0  0  0  0
  2  7  1  0  0  0  0
  3  9  1  0  0  0  0
  3  2  2  0  0  0  0
  4  3  1  0  0  0  0
  5  4  2  0  0  0  0
  5  6  1  0  0  0  0
  6  1  2  0  0  0  0
  8  5  1  0  0  0  0
  9 15  1  0  0  0  0
 10 11  1  0  0  0  0
 10  9  2  0  0  0  0
 11 13  2  0  0  0  0
 12 11  1  0  0  0  0
 13 14  1  0  0  0  0
 15 14  2  0  0  0  0
 17 16  1  0  0  0  0
M  END
>  <minimizedAffinity>
-4.00197506

$$$$

 OpenBabel03242523483D

 17 18  0  0  0  0  0  0  0  0999 V2000
   37.4080   28.0610   43.1830 C   0  0  0  0  0  0  0  0  0  0  0  0
   37.3300   29.3000   42.5230 C   0  0  0  0  0  0  0  0  0  0  0  0
   38.5190   29.8350   42.0120 C   0  0  0  0  0  0  0  0  0  0  0  0
   39.6660   29.1480   42.1760 N   0  0  0  0  0  0  0  0  0  0  0  0
   39.7040   27.9640   42.8140 C   0  0  0  0  0  0  0  0  0  0  0  0
   38.5910   27.4250   43.3120 N   0  0  0  0  0  0  0  0  0  0  0  0
   36.3880   29.8210   42.4110 H   0  0  0  0  0  0  0  0  0  0  0  0
   40.6230   27.3900   42.9580 H   0  0  0  0  0  0  0  0  0  0  0  0
   38.4910   31.1110   41.3220 C   0  0  0  0  0  0  0  0  0  0  0  0
   39.6000   31.9270   41.3870 C   0  0  0  0  0  3  0  0  0  0  0  0
   39.5240   33.1350   40.7100 C   0  0  0  0  0  0  0  0  0  0  0  0
   40.3160   33.8810   40.6710 H   0  0  0  0  0  0  0  0  0  0  0  0
   38.4040   33.4680   40.0280 N   0  0  0  0  0  0  0  0  0  0  0  0
   37.3360   32.6440   39.9850 C   0  0  0  0  0  3  0  0  0  0  0  0
   37.3770   31.4490   40.6390 N   0  0  0  0  0  0  0  0  0  0  0  0
   36.2510   27.5390   43.6800 O   0  0  0  0  0  0  0  0  0  0  0  0
   35.9970   27.4910   44.6420 H   0  0  0  0  0  0  0  0  0  0  0  0
  1  6  1  0  0  0  0
  1 16  1  0  0  0  0
  2  1  2  0  0  0  0
  3  4  2  0  0  0  0
  3  2  1  0  0  0  0
  4  5  1  0  0  0  0
  5  8  1  0  0  0  0
  5  6  2  0  0  0  0
  7  2  1  0  0  0  0
  9 10  1  0  0  0  0
  9  3  1  0  0  0  0
 11 10  2  0  0  0  0
 12 11  1  0  0  0  0
 13 11  1  0  0  0  0
 14 13  2  0  0  0  0
 14 15  1  0  0  0  0
 15  9  2  0  0  0  0
 16 17  1  0  0  0  0
M  END
>  <minimizedAffinity>
-3.99884224

$$$$

 OpenBabel03242523483D

 17 18  0  0  0  0  0  0  0  0999 V2000
   39.9180   32.3500   38.2030 C   0  0  0  0  0  0  0  0  0  0  0  0
   39.1890   31.4160   38.9600 C   0  0  0  0  0  0  0  0  0  0  0  0
   39.3520   31.4440   40.3500 C   0  0  0  0  0  0  0  0  0  0  0  0
   40.1890   32.3520   40.8900 N   0  0  0  0  0  0  0  0  0  0  0  0
   40.8700   33.2320   40.1340 C   0  0  0  0  0  0  0  0  0  0  0  0
   40.7380   33.2340   38.8080 N   0  0  0  0  0  0  0  0  0  0  0  0
   38.5260   30.7020   38.4880 H   0  0  0  0  0  0  0  0  0  0  0  0
   41.5540   33.9760   40.5510 H   0  0  0  0  0  0  0  0  0  0  0  0
   38.6210   30.5000   41.1750 C   0  0  0  0  0  0  0  0  0  0  0  0
   39.1110   30.1940   42.4270 C   0  0  0  0  0  3  0  0  0  0  0  0
   38.3760   29.2870   43.1770 C   0  0  0  0  0  0  0  0  0  0  0  0
   38.6360   28.9490   44.1780 H   0  0  0  0  0  0  0  0  0  0  0  0
   37.2400   28.7490   42.6790 N   0  0  0  0  0  0  0  0  0  0  0  0
   36.7890   29.0720   41.4490 C   0  0  0  0  0  3  0  0  0  0  0  0
   37.4870   29.9600   40.6840 N   0  0  0  0  0  0  0  0  0  0  0  0
   39.7580   32.3240   36.8490 O   0  0  0  0  0  0  0  0  0  0  0  0
   40.4260   31.9910   36.1880 H   0  0  0  0  0  0  0  0  0  0  0  0
  1  6  2  0  0  0  0
  1  2  1  0  0  0  0
  2  3  2  0  0  0  0
  3  4  1  0  0  0  0
  3  9  1  0  0  0  0
  5  8  1  0  0  0  0
  5  4  2  0  0  0  0
  6  5  1  0  0  0  0
  7  2  1  0  0  0  0
  9 10  1  0  0  0  0
 10 11  2  0  0  0  0
 11 12  1  0  0  0  0
 13 11  1  0  0  0  0
 14 13  2  0  0  0  0
 15  9  2  0  0  0  0
 15 14  1  0  0  0  0
 16  1  1  0  0  0  0
 17 16  1  0  0  0  0
M  END
>  <minimizedAffinity>
-3.95188642

$$$$
