
 OpenBabel03242516523D

 43 46  0  0  1  0  0  0  0  0999 V2000
   47.8530   32.9060   41.8340 C   0  0  1  0  0  0  0  0  0  0  0  0
   47.5580   32.2960   40.5370 C   0  0  0  0  0  0  0  0  0  0  0  0
   48.5900   32.8450   39.5590 C   0  0  0  0  0  0  0  0  0  0  0  0
   48.2550   34.2970   39.3440 C   0  0  0  0  0  0  0  0  0  0  0  0
   48.1660   35.0940   40.6090 C   0  0  0  0  0  0  0  0  0  0  0  0
   47.6500   34.4260   41.8130 C   0  0  1  0  0  0  0  0  0  0  0  0
   48.9660   32.8200   42.0250 H   0  0  0  0  0  0  0  0  0  0  0  0
   46.5660   32.4990   40.1430 H   0  0  0  0  0  0  0  0  0  0  0  0
   47.6730   31.1840   40.6450 H   0  0  0  0  0  0  0  0  0  0  0  0
   49.6240   32.7180   39.9170 H   0  0  0  0  0  0  0  0  0  0  0  0
   48.3880   32.3440   38.5770 H   0  0  0  0  0  0  0  0  0  0  0  0
   47.3110   34.3600   38.7320 H   0  0  0  0  0  0  0  0  0  0  0  0
   49.0540   34.7070   38.6890 H   0  0  0  0  0  0  0  0  0  0  0  0
   49.1880   35.5370   40.7840 H   0  0  0  0  0  0  0  0  0  0  0  0
   47.5360   35.9890   40.3850 H   0  0  0  0  0  0  0  0  0  0  0  0
   48.2290   34.7990   42.7010 H   0  0  0  0  0  0  0  0  0  0  0  0
   45.4050   30.9080   43.9000 C   0  0  0  0  0  0  0  0  0  0  0  0
   46.0980   31.4830   42.8310 C   0  0  0  0  0  0  0  0  0  0  0  0
   47.1850   32.3450   42.9890 C   0  0  0  0  0  0  0  0  0  0  0  0
   47.5400   32.6010   44.2490 N   0  0  0  0  0  0  0  0  0  0  0  0
   46.8750   32.0480   45.2960 C   0  0  0  0  0  0  0  0  0  0  0  0
   45.8370   31.2250   45.1390 N   0  0  0  0  0  0  0  0  0  0  0  0
   44.5830   30.2570   43.7340 H   0  0  0  0  0  0  0  0  0  0  0  0
   45.7650   31.2400   41.8110 H   0  0  0  0  0  0  0  0  0  0  0  0
   47.2250   32.3060   46.2880 H   0  0  0  0  0  0  0  0  0  0  0  0
   46.2600   34.7860   42.1040 C   0  0  0  0  0  0  0  0  0  0  0  0
   45.7940   35.3670   43.2860 C   0  0  0  0  0  0  0  0  0  0  0  0
   44.4240   35.6400   43.3380 C   0  0  0  0  0  0  0  0  0  0  0  0
   43.6580   35.3160   42.2300 C   0  0  0  0  0  0  0  0  0  0  0  0
   44.1370   34.7400   41.0640 C   0  0  0  0  0  0  0  0  0  0  0  0
   45.4780   34.4850   41.0440 N   0  0  0  0  0  0  0  0  0  0  0  0
   46.5140   35.5530   44.0480 H   0  0  0  0  0  0  0  0  0  0  0  0
   44.0520   36.0810   44.2290 H   0  0  0  0  0  0  0  0  0  0  0  0
   42.6000   35.5490   42.3220 H   0  0  0  0  0  0  0  0  0  0  0  0
   43.2360   34.4460   39.9570 C   0  0  0  0  0  0  0  0  0  0  0  0
   42.4960   35.3970   39.5480 O   0  0  0  0  0  0  0  0  0  0  0  0
   43.0720   33.1830   39.2470 C   0  0  0  0  0  0  0  0  0  0  0  0
   43.9330   32.9120   38.2090 C   0  0  0  0  0  3  0  0  0  0  0  0
   43.8040   31.7120   37.5010 C   0  0  0  0  0  0  0  0  0  0  0  0
   44.4690   31.4730   36.6800 H   0  0  0  0  0  0  0  0  0  0  0  0
   42.8260   30.8340   37.8560 N   0  0  0  0  0  0  0  0  0  0  0  0
   41.9950   31.0930   38.8570 C   0  0  0  0  0  3  0  0  0  0  0  0
   42.1520   32.2390   39.4990 N   0  0  0  0  0  0  0  0  0  0  0  0
  1  7  1  1  0  0  0
  1 19  1  0  0  0  0
  2  9  1  0  0  0  0
  2  1  1  0  0  0  0
  3 10  1  0  0  0  0
  3  2  1  0  0  0  0
  4  3  1  0  0  0  0
  4  5  1  0  0  0  0
  5 14  1  0  0  0  0
  5  6  1  0  0  0  0
  6  1  1  0  0  0  0
  6 26  1  0  0  0  0
  6 16  1  1  0  0  0
  8  2  1  0  0  0  0
 11  3  1  0  0  0  0
 12  4  1  0  0  0  0
 13  4  1  0  0  0  0
 15  5  1  0  0  0  0
 17 22  1  0  0  0  0
 18 19  1  0  0  0  0
 18 17  2  0  0  0  0
 19 20  2  0  0  0  0
 20 21  1  0  0  0  0
 21 25  1  0  0  0  0
 22 21  2  0  0  0  0
 23 17  1  0  0  0  0
 24 18  1  0  0  0  0
 26 27  1  0  0  0  0
 27 28  2  0  0  0  0
 27 32  1  0  0  0  0
 28 33  1  0  0  0  0
 29 34  1  0  0  0  0
 29 28  1  0  0  0  0
 30 29  2  0  0  0  0
 31 30  1  0  0  0  0
 31 26  2  0  0  0  0
 35 30  1  0  0  0  0
 36 35  2  0  0  0  0
 37 43  1  0  0  0  0
 37 35  1  0  0  0  0
 38 37  2  0  0  0  0
 39 41  2  0  0  0  0
 39 38  1  0  0  0  0
 40 39  1  0  0  0  0
 41 42  1  0  0  0  0
 42 43  2  0  0  0  0
M  END
>  <minimizedAffinity>
-5.25292826

>  <minimizedRMSD>
0.403040528

$$$$
