
 OpenBabel03242510093D

 26 28  0  0  0  0  0  0  0  0999 V2000
   44.7800   32.9840   41.1900 Br  0  0  0  0  0  0  0  0  0  0  0  0
   46.4290   33.9450   40.9330 C   0  0  0  0  0  0  0  0  0  0  0  0
   46.8940   34.7560   41.9370 C   0  0  0  0  0  0  0  0  0  0  0  0
   48.0940   35.4620   41.7660 C   0  0  0  0  0  0  0  0  0  0  0  0
   48.7750   35.3230   40.5910 C   0  0  0  0  0  0  0  0  0  0  0  0
   48.2640   34.5000   39.6240 C   0  0  0  0  0  0  0  0  0  0  0  0
   47.1160   33.8070   39.7540 C   0  0  0  0  0  0  0  0  0  0  0  0
   48.4170   36.0960   42.6020 H   0  0  0  0  0  0  0  0  0  0  0  0
   49.7010   35.8650   40.4490 H   0  0  0  0  0  0  0  0  0  0  0  0
   48.8340   34.4200   38.7110 H   0  0  0  0  0  0  0  0  0  0  0  0
   45.6410   34.0450   45.2880 C   0  0  0  0  0  0  0  0  0  0  0  0
   44.7100   35.0770   45.5260 C   0  0  0  0  0  0  0  0  0  0  0  0
   44.5290   36.0190   44.5020 C   0  0  0  0  0  0  0  0  0  0  0  0
   45.2520   35.8800   43.3630 N   0  0  0  0  0  0  0  0  0  0  0  0
   46.1400   34.8740   43.1680 C   0  0  0  0  0  0  0  0  0  0  0  0
   46.3270   33.9530   44.1480 N   0  0  0  0  0  0  0  0  0  0  0  0
   45.7990   33.3130   46.0520 H   0  0  0  0  0  0  0  0  0  0  0  0
   44.1790   35.1090   46.4650 H   0  0  0  0  0  0  0  0  0  0  0  0
   43.8240   36.8180   44.6580 H   0  0  0  0  0  0  0  0  0  0  0  0
   46.5510   32.9240   38.7370 C   0  0  0  0  0  0  0  0  0  0  0  0
   46.9160   31.6000   38.5980 C   0  0  0  0  0  3  0  0  0  0  0  0
   46.3630   30.8000   37.6290 C   0  0  0  0  0  0  0  0  0  0  0  0
   46.6410   29.7660   37.5120 H   0  0  0  0  0  0  0  0  0  0  0  0
   45.4530   31.2580   36.7810 N   0  0  0  0  0  0  0  0  0  0  0  0
   45.0830   32.5540   36.9040 C   0  0  0  0  0  3  0  0  0  0  0  0
   45.6220   33.3450   37.8520 N   0  0  0  0  0  0  0  0  0  0  0  0
  2  1  1  0  0  0  0
  2  3  1  0  0  0  0
  3 15  1  0  0  0  0
  4  3  2  0  0  0  0
  4  8  1  0  0  0  0
  5  4  1  0  0  0  0
  6  7  1  0  0  0  0
  6  5  2  0  0  0  0
  7  2  2  0  0  0  0
  9  5  1  0  0  0  0
 10  6  1  0  0  0  0
 11 12  1  0  0  0  0
 11 17  1  0  0  0  0
 12 18  1  0  0  0  0
 13 19  1  0  0  0  0
 13 12  2  0  0  0  0
 14 13  1  0  0  0  0
 15 14  2  0  0  0  0
 15 16  1  0  0  0  0
 16 11  2  0  0  0  0
 20  7  1  0  0  0  0
 21 20  1  0  0  0  0
 22 21  2  0  0  0  0
 23 22  1  0  0  0  0
 24 25  2  0  0  0  0
 24 22  1  0  0  0  0
 25 26  1  0  0  0  0
 26 20  2  0  0  0  0
M  END
>  <minimizedAffinity>
-5.38405228

>  <minimizedRMSD>
0.508681715

$$$$
