
 OpenBabel03252508323D

 30 32  0  0  1  0  0  0  0  0999 V2000
   44.6170   33.9550   42.5020 N   0  0  0  0  0  0  0  0  0  0  0  0
   44.6900   33.2930   41.2520 C   0  0  1  0  0  0  0  0  0  0  0  0
   43.9820   33.9430   40.1270 C   0  0  0  0  0  0  0  0  0  0  0  0
   42.8390   34.7010   40.4110 N   0  0  0  0  0  0  0  0  0  0  0  0
   42.7010   35.2470   41.6930 C   0  0  0  0  0  0  0  0  0  0  0  0
   44.0160   35.2490   42.4390 C   0  0  0  0  0  0  0  0  0  0  0  0
   44.2860   32.2570   41.3840 H   0  0  0  0  0  0  0  0  0  0  0  0
   44.7120   34.6130   39.5770 H   0  0  0  0  0  0  0  0  0  0  0  0
   43.7310   33.1650   39.3570 H   0  0  0  0  0  0  0  0  0  0  0  0
   42.7050   35.4350   39.6780 H   0  0  0  0  0  0  0  0  0  0  0  0
   41.9300   34.6550   42.2480 H   0  0  0  0  0  0  0  0  0  0  0  0
   42.3310   36.3040   41.6770 H   0  0  0  0  0  0  0  0  0  0  0  0
   43.9330   35.8050   43.3750 H   0  0  0  0  0  0  0  0  0  0  0  0
   44.6870   35.9000   41.7930 H   0  0  0  0  0  0  0  0  0  0  0  0
   45.5020   34.1560   44.7070 C   0  0  0  0  0  0  0  0  0  0  0  0
   45.1330   33.3320   43.6490 C   0  0  0  0  0  0  0  0  0  0  0  0
   45.3240   31.9510   43.7930 C   0  0  0  0  0  0  0  0  0  0  0  0
   45.8560   31.4470   44.9400 N   0  0  0  0  0  0  0  0  0  0  0  0
   46.2050   32.2880   45.9540 C   0  0  0  0  0  0  0  0  0  0  0  0
   46.0310   33.6190   45.8380 N   0  0  0  0  0  0  0  0  0  0  0  0
   45.4390   35.2270   44.7970 H   0  0  0  0  0  0  0  0  0  0  0  0
   45.0440   31.3050   43.0030 H   0  0  0  0  0  0  0  0  0  0  0  0
   46.6270   31.8200   46.8440 H   0  0  0  0  0  0  0  0  0  0  0  0
   46.1180   33.1090   40.7900 C   0  0  0  0  0  0  0  0  0  0  0  0
   46.8380   31.9680   40.5130 C   0  0  0  0  0  3  0  0  0  0  0  0
   48.1400   32.1050   40.1050 C   0  0  0  0  0  0  0  0  0  0  0  0
   48.6320   31.1570   39.9080 H   0  0  0  0  0  0  0  0  0  0  0  0
   48.6920   33.3250   39.9800 N   0  0  0  0  0  0  0  0  0  0  0  0
   47.9880   34.4150   40.2500 C   0  0  0  0  0  3  0  0  0  0  0  0
   46.6990   34.3350   40.6570 N   0  0  0  0  0  0  0  0  0  0  0  0
  1 16  1  0  0  0  0
  2  7  1  1  0  0  0
  2  1  1  0  0  0  0
  3  4  1  0  0  0  0
  3  2  1  0  0  0  0
  4  5  1  0  0  0  0
  5 11  1  0  0  0  0
  5  6  1  0  0  0  0
  6  1  1  0  0  0  0
  6 13  1  0  0  0  0
  8  3  1  0  0  0  0
  9  3  1  0  0  0  0
 10  4  1  0  0  0  0
 12  5  1  0  0  0  0
 14  6  1  0  0  0  0
 15 21  1  0  0  0  0
 15 20  1  0  0  0  0
 16 17  1  0  0  0  0
 16 15  2  0  0  0  0
 17 18  2  0  0  0  0
 18 19  1  0  0  0  0
 19 23  1  0  0  0  0
 20 19  2  0  0  0  0
 22 17  1  0  0  0  0
 24  2  1  0  0  0  0
 25 24  2  0  0  0  0
 26 25  1  0  0  0  0
 27 26  1  0  0  0  0
 28 26  2  0  0  0  0
 28 29  1  0  0  0  0
 29 30  2  0  0  0  0
 30 24  1  0  0  0  0
M  END
>  <minimizedAffinity>
-4.01404238

>  <minimizedRMSD>
1.08899605

$$$$
