
 OpenBabel03252506183D

 21 22  0  0  0  0  0  0  0  0999 V2000
   44.8530   35.7930   43.9020 C   0  0  0  0  0  0  0  0  0  0  0  0
   44.2640   35.4290   42.6750 C   0  0  0  0  0  0  0  0  0  0  0  0
   44.3030   34.0730   42.3020 C   0  0  0  0  0  0  0  0  0  0  0  0
   44.9050   33.1960   43.1450 N   0  0  0  0  0  0  0  0  0  0  0  0
   45.4690   33.5830   44.3290 C   0  0  0  0  0  0  0  0  0  0  0  0
   45.4290   34.8870   44.6830 N   0  0  0  0  0  0  0  0  0  0  0  0
   43.7940   36.1710   42.0390 H   0  0  0  0  0  0  0  0  0  0  0  0
   43.8650   33.7500   41.3740 H   0  0  0  0  0  0  0  0  0  0  0  0
   46.1110   32.6220   45.2180 C   0  0  0  0  0  0  0  0  0  0  0  0
   46.2800   31.3170   44.7750 C   0  0  0  0  0  3  0  0  0  0  0  0
   46.8900   30.3980   45.6200 C   0  0  0  0  0  0  0  0  0  0  0  0
   47.0280   29.3770   45.2870 H   0  0  0  0  0  0  0  0  0  0  0  0
   47.2790   30.8490   46.8210 N   0  0  0  0  0  0  0  0  0  0  0  0
   47.1320   32.0900   47.2720 C   0  0  0  0  0  3  0  0  0  0  0  0
   46.5330   33.0000   46.4520 N   0  0  0  0  0  0  0  0  0  0  0  0
   44.8090   37.1960   44.2850 C   0  0  0  0  0  3  0  0  0  0  0  0
   45.4020   38.0950   43.5290 C   0  0  0  0  0  3  0  0  0  0  0  0
   45.4020   39.5400   43.8500 C   0  0  0  0  0  0  0  0  0  0  0  0
   45.2160   39.7230   44.9150 H   0  0  0  0  0  0  0  0  0  0  0  0
   44.5880   40.0180   43.2920 H   0  0  0  0  0  0  0  0  0  0  0  0
   46.3990   39.9920   43.6240 H   0  0  0  0  0  0  0  0  0  0  0  0
  1 16  1  0  0  0  0
  1  6  1  0  0  0  0
  2  1  2  0  0  0  0
  3  2  1  0  0  0  0
  3  4  2  0  0  0  0
  4  5  1  0  0  0  0
  5  6  2  0  0  0  0
  5  9  1  0  0  0  0
  7  2  1  0  0  0  0
  8  3  1  0  0  0  0
  9 15  1  0  0  0  0
 10  9  2  0  0  0  0
 10 11  1  0  0  0  0
 11 13  2  0  0  0  0
 12 11  1  0  0  0  0
 13 14  1  0  0  0  0
 15 14  2  0  0  0  0
 17 18  1  0  0  0  0
 17 16  2  0  0  0  0
 18 19  1  0  0  0  0
 20 18  1  0  0  0  0
 21 18  1  0  0  0  0
M  END
>  <minimizedAffinity>
-3.52478385

>  <minimizedRMSD>
1.21443534

$$$$
