
 OpenBabel03252506183D

 21 22  0  0  0  0  0  0  0  0999 V2000
   44.8390   35.7720   43.9200 C   0  0  0  0  0  0  0  0  0  0  0  0
   44.2890   35.4350   42.6690 C   0  0  0  0  0  0  0  0  0  0  0  0
   44.3070   34.0810   42.2840 C   0  0  0  0  0  0  0  0  0  0  0  0
   44.8520   33.1810   43.1410 N   0  0  0  0  0  0  0  0  0  0  0  0
   45.3800   33.5430   44.3490 C   0  0  0  0  0  0  0  0  0  0  0  0
   45.3600   34.8440   44.7140 N   0  0  0  0  0  0  0  0  0  0  0  0
   43.8640   36.1950   42.0220 H   0  0  0  0  0  0  0  0  0  0  0  0
   43.8970   33.7790   41.3370 H   0  0  0  0  0  0  0  0  0  0  0  0
   45.9610   32.5570   45.2530 C   0  0  0  0  0  0  0  0  0  0  0  0
   46.5580   33.0000   46.4250 C   0  0  0  0  0  3  0  0  0  0  0  0
   47.1140   32.0620   47.2880 C   0  0  0  0  0  0  0  0  0  0  0  0
   47.5820   32.3960   48.2060 H   0  0  0  0  0  0  0  0  0  0  0  0
   47.0290   30.7780   46.9180 N   0  0  0  0  0  0  0  0  0  0  0  0
   46.4640   30.3240   45.8050 C   0  0  0  0  0  3  0  0  0  0  0  0
   45.9170   31.2340   44.9500 N   0  0  0  0  0  0  0  0  0  0  0  0
   44.8180   37.1720   44.3150 C   0  0  0  0  0  3  0  0  0  0  0  0
   45.4030   38.0720   43.5530 C   0  0  0  0  0  3  0  0  0  0  0  0
   45.4240   39.5140   43.8860 C   0  0  0  0  0  0  0  0  0  0  0  0
   45.2630   39.6910   44.9560 H   0  0  0  0  0  0  0  0  0  0  0  0
   44.6040   40.0040   43.3490 H   0  0  0  0  0  0  0  0  0  0  0  0
   46.4210   39.9580   43.6420 H   0  0  0  0  0  0  0  0  0  0  0  0
  1 16  1  0  0  0  0
  1  6  1  0  0  0  0
  2  1  2  0  0  0  0
  3  2  1  0  0  0  0
  3  4  2  0  0  0  0
  4  5  1  0  0  0  0
  5  6  2  0  0  0  0
  5  9  1  0  0  0  0
  7  2  1  0  0  0  0
  8  3  1  0  0  0  0
  9 10  1  0  0  0  0
 10 11  2  0  0  0  0
 11 12  1  0  0  0  0
 13 11  1  0  0  0  0
 14 13  2  0  0  0  0
 15  9  2  0  0  0  0
 15 14  1  0  0  0  0
 17 18  1  0  0  0  0
 17 16  2  0  0  0  0
 18 19  1  0  0  0  0
 20 18  1  0  0  0  0
 21 18  1  0  0  0  0
M  END
>  <minimizedAffinity>
-3.63061309

>  <minimizedRMSD>
1.05173159

$$$$
