
 OpenBabel03242516213D

 26 28  0  0  0  0  0  0  0  0999 V2000
   37.5180   28.2980   41.5860 C   0  0  0  0  0  0  0  0  0  0  0  0
   38.0880   29.5380   41.3440 C   0  0  0  0  0  0  0  0  0  0  0  0
   37.3670   30.5740   40.7850 C   0  0  0  0  0  0  0  0  0  0  0  0
   36.0500   30.4020   40.4500 C   0  0  0  0  0  0  0  0  0  0  0  0
   35.4550   29.1770   40.6810 C   0  0  0  0  0  0  0  0  0  0  0  0
   36.1980   28.1530   41.2410 C   0  0  0  0  0  0  0  0  0  0  0  0
   39.1330   29.6330   41.6230 H   0  0  0  0  0  0  0  0  0  0  0  0
   35.4820   31.2030   40.0150 H   0  0  0  0  0  0  0  0  0  0  0  0
   34.4210   29.0110   40.4280 H   0  0  0  0  0  0  0  0  0  0  0  0
   35.7240   27.1970   41.4190 H   0  0  0  0  0  0  0  0  0  0  0  0
   40.0150   26.6560   43.6790 C   0  0  0  0  0  0  0  0  0  0  0  0
   39.8720   25.2970   43.3780 C   0  0  0  0  0  0  0  0  0  0  0  0
   38.9000   24.9360   42.4380 C   0  0  0  0  0  0  0  0  0  0  0  0
   38.1330   25.9080   41.8530 N   0  0  0  0  0  0  0  0  0  0  0  0
   38.3120   27.2200   42.1810 C   0  0  0  0  0  0  0  0  0  0  0  0
   39.2430   27.5740   43.0820 N   0  0  0  0  0  0  0  0  0  0  0  0
   40.7730   26.8780   44.4040 H   0  0  0  0  0  0  0  0  0  0  0  0
   40.4490   24.4860   43.8080 H   0  0  0  0  0  0  0  0  0  0  0  0
   38.6720   23.9450   42.1040 H   0  0  0  0  0  0  0  0  0  0  0  0
   38.0790   31.8300   40.5800 C   0  0  0  0  0  0  0  0  0  0  0  0
   37.5000   32.9870   40.1040 C   0  0  0  0  0  3  0  0  0  0  0  0
   38.2220   34.1520   39.9280 C   0  0  0  0  0  0  0  0  0  0  0  0
   37.7670   35.0490   39.5570 H   0  0  0  0  0  0  0  0  0  0  0  0
   39.5440   34.1590   40.2330 N   0  0  0  0  0  0  0  0  0  0  0  0
   40.1170   33.0360   40.6980 C   0  0  0  0  0  3  0  0  0  0  0  0
   39.3910   31.8950   40.8660 N   0  0  0  0  0  0  0  0  0  0  0  0
  1 15  1  0  0  0  0
  2  1  1  0  0  0  0
  2  7  1  0  0  0  0
  3  2  2  0  0  0  0
  4  5  2  0  0  0  0
  4  3  1  0  0  0  0
  5  6  1  0  0  0  0
  6 10  1  0  0  0  0
  6  1  2  0  0  0  0
  8  4  1  0  0  0  0
  9  5  1  0  0  0  0
 11 17  1  0  0  0  0
 12 11  1  0  0  0  0
 12 18  1  0  0  0  0
 13 12  2  0  0  0  0
 14 15  2  0  0  0  0
 14 13  1  0  0  0  0
 15 16  1  0  0  0  0
 16 11  2  0  0  0  0
 19 13  1  0  0  0  0
 20  3  1  0  0  0  0
 20 26  1  0  0  0  0
 21 20  2  0  0  0  0
 22 21  1  0  0  0  0
 22 24  2  0  0  0  0
 23 22  1  0  0  0  0
 24 25  1  0  0  0  0
 25 26  2  0  0  0  0
M  END
>  <minimizedAffinity>
-5.23857689

$$$$

 OpenBabel03242516213D

 26 28  0  0  0  0  0  0  0  0999 V2000
   37.5600   30.6030   40.8490 C   0  0  0  0  0  0  0  0  0  0  0  0
   38.1770   29.4990   41.4170 C   0  0  0  0  0  0  0  0  0  0  0  0
   37.5040   28.3110   41.6170 C   0  0  0  0  0  0  0  0  0  0  0  0
   36.1890   28.1880   41.2540 C   0  0  0  0  0  0  0  0  0  0  0  0
   35.5490   29.2720   40.6840 C   0  0  0  0  0  0  0  0  0  0  0  0
   36.2440   30.4520   40.4940 C   0  0  0  0  0  0  0  0  0  0  0  0
   39.2190   29.6370   41.6910 H   0  0  0  0  0  0  0  0  0  0  0  0
   35.6580   27.2670   41.4060 H   0  0  0  0  0  0  0  0  0  0  0  0
   34.5140   29.2060   40.3870 H   0  0  0  0  0  0  0  0  0  0  0  0
   35.7350   31.2960   40.0460 H   0  0  0  0  0  0  0  0  0  0  0  0
   40.3970   32.8910   40.6720 C   0  0  0  0  0  0  0  0  0  0  0  0
   39.8260   34.1140   40.3080 C   0  0  0  0  0  0  0  0  0  0  0  0
   38.4390   34.1570   40.1190 C   0  0  0  0  0  0  0  0  0  0  0  0
   37.6990   33.0180   40.2950 N   0  0  0  0  0  0  0  0  0  0  0  0
   38.3050   31.8480   40.6500 C   0  0  0  0  0  0  0  0  0  0  0  0
   39.6340   31.8000   40.8320 N   0  0  0  0  0  0  0  0  0  0  0  0
   41.4610   32.9120   40.8030 H   0  0  0  0  0  0  0  0  0  0  0  0
   40.3600   35.0460   40.1560 H   0  0  0  0  0  0  0  0  0  0  0  0
   37.8590   35.0120   39.8430 H   0  0  0  0  0  0  0  0  0  0  0  0
   38.2630   27.2240   42.2240 C   0  0  0  0  0  0  0  0  0  0  0  0
   39.2840   27.3960   43.1340 C   0  0  0  0  0  3  0  0  0  0  0  0
   39.9710   26.3290   43.6800 C   0  0  0  0  0  0  0  0  0  0  0  0
   40.7650   26.4680   44.3870 H   0  0  0  0  0  0  0  0  0  0  0  0
   39.6300   25.0690   43.3100 N   0  0  0  0  0  0  0  0  0  0  0  0
   38.6350   24.8910   42.4240 C   0  0  0  0  0  3  0  0  0  0  0  0
   37.9670   25.9540   41.8940 N   0  0  0  0  0  0  0  0  0  0  0  0
  1  2  1  0  0  0  0
  2  3  2  0  0  0  0
  2  7  1  0  0  0  0
  3 20  1  0  0  0  0
  4  8  1  0  0  0  0
  4  3  1  0  0  0  0
  5  4  2  0  0  0  0
  6  5  1  0  0  0  0
  6  1  2  0  0  0  0
  9  5  1  0  0  0  0
 10  6  1  0  0  0  0
 11 17  1  0  0  0  0
 11 16  1  0  0  0  0
 12 11  2  0  0  0  0
 13 14  2  0  0  0  0
 13 12  1  0  0  0  0
 14 15  1  0  0  0  0
 15 16  2  0  0  0  0
 15  1  1  0  0  0  0
 18 12  1  0  0  0  0
 19 13  1  0  0  0  0
 20 21  1  0  0  0  0
 21 22  2  0  0  0  0
 22 23  1  0  0  0  0
 24 22  1  0  0  0  0
 25 24  2  0  0  0  0
 26 20  2  0  0  0  0
 26 25  1  0  0  0  0
M  END
>  <minimizedAffinity>
-5.17169857

$$$$

 OpenBabel03242516213D

 26 28  0  0  0  0  0  0  0  0999 V2000
   37.6200   29.4450   41.7140 C   0  0  0  0  0  0  0  0  0  0  0  0
   37.2980   28.3200   40.9710 C   0  0  0  0  0  0  0  0  0  0  0  0
   37.1360   27.0820   41.5580 C   0  0  0  0  0  0  0  0  0  0  0  0
   37.2900   26.9290   42.9100 C   0  0  0  0  0  0  0  0  0  0  0  0
   37.6100   28.0330   43.6770 C   0  0  0  0  0  0  0  0  0  0  0  0
   37.7680   29.2640   43.0660 C   0  0  0  0  0  0  0  0  0  0  0  0
   37.1850   28.4830   39.9040 H   0  0  0  0  0  0  0  0  0  0  0  0
   37.1660   25.9680   43.3760 H   0  0  0  0  0  0  0  0  0  0  0  0
   37.7380   27.9450   44.7430 H   0  0  0  0  0  0  0  0  0  0  0  0
   38.0180   30.1240   43.6730 H   0  0  0  0  0  0  0  0  0  0  0  0
   39.1130   32.6530   40.8250 C   0  0  0  0  0  0  0  0  0  0  0  0
   38.2170   33.2020   39.9010 C   0  0  0  0  0  0  0  0  0  0  0  0
   37.0780   32.4570   39.5770 C   0  0  0  0  0  0  0  0  0  0  0  0
   36.8790   31.2360   40.1640 N   0  0  0  0  0  0  0  0  0  0  0  0
   37.7830   30.7450   41.0590 C   0  0  0  0  0  0  0  0  0  0  0  0
   38.8790   31.4540   41.3750 N   0  0  0  0  0  0  0  0  0  0  0  0
   39.9690   33.2630   41.0380 H   0  0  0  0  0  0  0  0  0  0  0  0
   38.3220   34.1610   39.4060 H   0  0  0  0  0  0  0  0  0  0  0  0
   36.3040   32.7400   38.8930 H   0  0  0  0  0  0  0  0  0  0  0  0
   36.7990   25.9760   40.6700 C   0  0  0  0  0  0  0  0  0  0  0  0
   36.7880   24.6490   41.0440 C   0  0  0  0  0  3  0  0  0  0  0  0
   36.4610   23.6380   40.1600 C   0  0  0  0  0  0  0  0  0  0  0  0
   36.4540   22.6080   40.4560 H   0  0  0  0  0  0  0  0  0  0  0  0
   36.1370   23.9610   38.8830 N   0  0  0  0  0  0  0  0  0  0  0  0
   36.1440   25.2520   38.5090 C   0  0  0  0  0  3  0  0  0  0  0  0
   36.4710   26.2370   39.3930 N   0  0  0  0  0  0  0  0  0  0  0  0
  1  6  1  0  0  0  0
  2  3  1  0  0  0  0
  2  1  2  0  0  0  0
  3  4  2  0  0  0  0
  4  8  1  0  0  0  0
  4  5  1  0  0  0  0
  5  9  1  0  0  0  0
  6 10  1  0  0  0  0
  6  5  2  0  0  0  0
  7  2  1  0  0  0  0
 11 17  1  0  0  0  0
 11 16  1  0  0  0  0
 12 11  2  0  0  0  0
 13 12  1  0  0  0  0
 13 14  2  0  0  0  0
 14 15  1  0  0  0  0
 15 16  2  0  0  0  0
 15  1  1  0  0  0  0
 18 12  1  0  0  0  0
 19 13  1  0  0  0  0
 20 21  1  0  0  0  0
 20  3  1  0  0  0  0
 22 23  1  0  0  0  0
 22 21  2  0  0  0  0
 24 22  1  0  0  0  0
 25 24  2  0  0  0  0
 25 26  1  0  0  0  0
 26 20  2  0  0  0  0
M  END
>  <minimizedAffinity>
-5.05729866

$$$$

 OpenBabel03242516213D

 26 28  0  0  0  0  0  0  0  0999 V2000
   38.3920   29.6010   42.2200 C   0  0  0  0  0  0  0  0  0  0  0  0
   39.6120   28.9690   42.3990 C   0  0  0  0  0  0  0  0  0  0  0  0
   39.7250   27.7950   43.1170 C   0  0  0  0  0  0  0  0  0  0  0  0
   38.6190   27.2150   43.6780 C   0  0  0  0  0  0  0  0  0  0  0  0
   37.3890   27.8220   43.5140 C   0  0  0  0  0  0  0  0  0  0  0  0
   37.3000   28.9980   42.7920 C   0  0  0  0  0  0  0  0  0  0  0  0
   40.4640   29.4610   41.9400 H   0  0  0  0  0  0  0  0  0  0  0  0
   38.6970   26.3010   44.2370 H   0  0  0  0  0  0  0  0  0  0  0  0
   36.5000   27.3900   43.9430 H   0  0  0  0  0  0  0  0  0  0  0  0
   36.3330   29.4680   42.6680 H   0  0  0  0  0  0  0  0  0  0  0  0
   37.0350   32.1440   39.9820 C   0  0  0  0  0  0  0  0  0  0  0  0
   38.0170   33.1400   39.9640 C   0  0  0  0  0  0  0  0  0  0  0  0
   39.1680   32.9370   40.7340 C   0  0  0  0  0  0  0  0  0  0  0  0
   39.2940   31.7880   41.4680 N   0  0  0  0  0  0  0  0  0  0  0  0
   38.3070   30.8460   41.4520 C   0  0  0  0  0  0  0  0  0  0  0  0
   37.2010   31.0350   40.7160 N   0  0  0  0  0  0  0  0  0  0  0  0
   36.1750   32.3490   39.3760 H   0  0  0  0  0  0  0  0  0  0  0  0
   37.9720   34.0680   39.4030 H   0  0  0  0  0  0  0  0  0  0  0  0
   40.0020   33.6010   40.8230 H   0  0  0  0  0  0  0  0  0  0  0  0
   41.0630   27.2270   43.2360 C   0  0  0  0  0  0  0  0  0  0  0  0
   42.1880   27.9450   43.5800 C   0  0  0  0  0  3  0  0  0  0  0  0
   43.4340   27.3570   43.6790 C   0  0  0  0  0  0  0  0  0  0  0  0
   44.3070   27.9200   43.9470 H   0  0  0  0  0  0  0  0  0  0  0  0
   43.5570   26.0290   43.4310 N   0  0  0  0  0  0  0  0  0  0  0  0
   42.4650   25.3200   43.0950 C   0  0  0  0  0  3  0  0  0  0  0  0
   41.2420   25.9160   43.0010 N   0  0  0  0  0  0  0  0  0  0  0  0
  1  2  2  0  0  0  0
  1  6  1  0  0  0  0
  2  3  1  0  0  0  0
  3 20  1  0  0  0  0
  3  4  2  0  0  0  0
  4  8  1  0  0  0  0
  5  4  1  0  0  0  0
  5  9  1  0  0  0  0
  6  5  2  0  0  0  0
  7  2  1  0  0  0  0
 10  6  1  0  0  0  0
 11 16  1  0  0  0  0
 12 11  2  0  0  0  0
 12 13  1  0  0  0  0
 13 19  1  0  0  0  0
 13 14  2  0  0  0  0
 15 14  1  0  0  0  0
 15  1  1  0  0  0  0
 16 15  2  0  0  0  0
 17 11  1  0  0  0  0
 18 12  1  0  0  0  0
 20 21  1  0  0  0  0
 21 22  2  0  0  0  0
 22 23  1  0  0  0  0
 24 22  1  0  0  0  0
 25 24  2  0  0  0  0
 26 25  1  0  0  0  0
 26 20  2  0  0  0  0
M  END
>  <minimizedAffinity>
-5.01152802

$$$$

 OpenBabel03242516213D

 26 28  0  0  0  0  0  0  0  0999 V2000
   37.2860   27.0980   41.5200 C   0  0  0  0  0  0  0  0  0  0  0  0
   37.4390   28.3780   41.0120 C   0  0  0  0  0  0  0  0  0  0  0  0
   37.8210   29.4380   41.8090 C   0  0  0  0  0  0  0  0  0  0  0  0
   38.0630   29.2500   43.1440 C   0  0  0  0  0  0  0  0  0  0  0  0
   37.9200   27.9840   43.6780 C   0  0  0  0  0  0  0  0  0  0  0  0
   37.5360   26.9380   42.8600 C   0  0  0  0  0  0  0  0  0  0  0  0
   37.2370   28.4850   39.9500 H   0  0  0  0  0  0  0  0  0  0  0  0
   38.3610   30.0690   43.7720 H   0  0  0  0  0  0  0  0  0  0  0  0
   38.1040   27.8040   44.7250 H   0  0  0  0  0  0  0  0  0  0  0  0
   37.4270   25.9490   43.2860 H   0  0  0  0  0  0  0  0  0  0  0  0
   36.5210   23.6940   40.4520 C   0  0  0  0  0  0  0  0  0  0  0  0
   36.1380   23.8340   39.1140 C   0  0  0  0  0  0  0  0  0  0  0  0
   36.1420   25.1220   38.5670 C   0  0  0  0  0  0  0  0  0  0  0  0
   36.5150   26.1860   39.3450 N   0  0  0  0  0  0  0  0  0  0  0  0
   36.8800   25.9960   40.6450 C   0  0  0  0  0  0  0  0  0  0  0  0
   36.8790   24.7630   41.1770 N   0  0  0  0  0  0  0  0  0  0  0  0
   36.5000   22.6880   40.8230 H   0  0  0  0  0  0  0  0  0  0  0  0
   35.8340   23.0310   38.4510 H   0  0  0  0  0  0  0  0  0  0  0  0
   35.8770   25.3900   37.5650 H   0  0  0  0  0  0  0  0  0  0  0  0
   37.9460   30.7360   41.1570 C   0  0  0  0  0  0  0  0  0  0  0  0
   37.0270   31.2570   40.2710 C   0  0  0  0  0  3  0  0  0  0  0  0
   37.1950   32.4940   39.6800 C   0  0  0  0  0  0  0  0  0  0  0  0
   36.4770   32.8950   38.9910 H   0  0  0  0  0  0  0  0  0  0  0  0
   38.2980   33.2230   39.9820 N   0  0  0  0  0  0  0  0  0  0  0  0
   39.1990   32.7240   40.8460 C   0  0  0  0  0  3  0  0  0  0  0  0
   39.0190   31.5010   41.4190 N   0  0  0  0  0  0  0  0  0  0  0  0
  1  6  1  0  0  0  0
  2  1  2  0  0  0  0
  2  3  1  0  0  0  0
  3  4  2  0  0  0  0
  4  5  1  0  0  0  0
  4  8  1  0  0  0  0
  5  9  1  0  0  0  0
  6 10  1  0  0  0  0
  6  5  2  0  0  0  0
  7  2  1  0  0  0  0
 11 17  1  0  0  0  0
 11 16  1  0  0  0  0
 12 11  2  0  0  0  0
 13 12  1  0  0  0  0
 13 14  2  0  0  0  0
 14 15  1  0  0  0  0
 15 16  2  0  0  0  0
 15  1  1  0  0  0  0
 18 12  1  0  0  0  0
 19 13  1  0  0  0  0
 20 26  1  0  0  0  0
 20  3  1  0  0  0  0
 21 20  2  0  0  0  0
 22 24  2  0  0  0  0
 22 21  1  0  0  0  0
 23 22  1  0  0  0  0
 24 25  1  0  0  0  0
 25 26  2  0  0  0  0
M  END
>  <minimizedAffinity>
-5.00091743

$$$$

 OpenBabel03242516213D

 26 28  0  0  0  0  0  0  0  0999 V2000
   36.5450   27.7730   39.5150 C   0  0  0  0  0  0  0  0  0  0  0  0
   37.0770   28.9920   39.9050 C   0  0  0  0  0  0  0  0  0  0  0  0
   36.8980   30.1380   39.1570 C   0  0  0  0  0  0  0  0  0  0  0  0
   36.1790   30.1010   37.9920 C   0  0  0  0  0  0  0  0  0  0  0  0
   35.6360   28.9000   37.5780 C   0  0  0  0  0  0  0  0  0  0  0  0
   35.8300   27.7640   38.3440 C   0  0  0  0  0  0  0  0  0  0  0  0
   37.6400   28.9790   40.8340 H   0  0  0  0  0  0  0  0  0  0  0  0
   36.0350   30.9880   37.4030 H   0  0  0  0  0  0  0  0  0  0  0  0
   35.0660   28.8380   36.6660 H   0  0  0  0  0  0  0  0  0  0  0  0
   35.4010   26.8270   38.0130 H   0  0  0  0  0  0  0  0  0  0  0  0
   37.5030   25.7200   42.3750 C   0  0  0  0  0  0  0  0  0  0  0  0
   37.1970   24.4150   41.9760 C   0  0  0  0  0  0  0  0  0  0  0  0
   36.6500   24.2350   40.7000 C   0  0  0  0  0  0  0  0  0  0  0  0
   36.4370   25.3230   39.8970 N   0  0  0  0  0  0  0  0  0  0  0  0
   36.7540   26.5760   40.3330 C   0  0  0  0  0  0  0  0  0  0  0  0
   37.2780   26.7570   41.5560 N   0  0  0  0  0  0  0  0  0  0  0  0
   37.9190   25.8040   43.3600 H   0  0  0  0  0  0  0  0  0  0  0  0
   37.3430   23.5180   42.5670 H   0  0  0  0  0  0  0  0  0  0  0  0
   36.3650   23.3040   40.2540 H   0  0  0  0  0  0  0  0  0  0  0  0
   37.5070   31.3580   39.6730 C   0  0  0  0  0  0  0  0  0  0  0  0
   37.1700   32.6310   39.2680 C   0  0  0  0  0  3  0  0  0  0  0  0
   37.7800   33.7550   39.7900 C   0  0  0  0  0  0  0  0  0  0  0  0
   37.5150   34.7440   39.4710 H   0  0  0  0  0  0  0  0  0  0  0  0
   38.7420   33.6030   40.7350 N   0  0  0  0  0  0  0  0  0  0  0  0
   39.0770   32.3650   41.1370 C   0  0  0  0  0  3  0  0  0  0  0  0
   38.4660   31.2660   40.6110 N   0  0  0  0  0  0  0  0  0  0  0  0
  1  2  1  0  0  0  0
  1 15  1  0  0  0  0
  2  7  1  0  0  0  0
  3 20  1  0  0  0  0
  3  2  2  0  0  0  0
  4  3  1  0  0  0  0
  5  4  2  0  0  0  0
  5  6  1  0  0  0  0
  6  1  2  0  0  0  0
  8  4  1  0  0  0  0
  9  5  1  0  0  0  0
 10  6  1  0  0  0  0
 11 17  1  0  0  0  0
 12 11  1  0  0  0  0
 12 18  1  0  0  0  0
 13 12  2  0  0  0  0
 14 15  2  0  0  0  0
 14 13  1  0  0  0  0
 15 16  1  0  0  0  0
 16 11  2  0  0  0  0
 19 13  1  0  0  0  0
 20 26  1  0  0  0  0
 21 20  2  0  0  0  0
 21 22  1  0  0  0  0
 22 24  2  0  0  0  0
 23 22  1  0  0  0  0
 24 25  1  0  0  0  0
 26 25  2  0  0  0  0
M  END
>  <minimizedAffinity>
-4.86296797

$$$$

 OpenBabel03242516213D

 26 28  0  0  0  0  0  0  0  0999 V2000
   36.5250   27.8310   39.4670 C   0  0  0  0  0  0  0  0  0  0  0  0
   37.0630   29.0400   39.8800 C   0  0  0  0  0  0  0  0  0  0  0  0
   36.9210   30.1930   39.1360 C   0  0  0  0  0  0  0  0  0  0  0  0
   36.2340   30.1740   37.9510 C   0  0  0  0  0  0  0  0  0  0  0  0
   35.6850   28.9840   37.5140 C   0  0  0  0  0  0  0  0  0  0  0  0
   35.8410   27.8410   38.2770 C   0  0  0  0  0  0  0  0  0  0  0  0
   37.6000   29.0130   40.8240 H   0  0  0  0  0  0  0  0  0  0  0  0
   36.1180   31.0670   37.3650 H   0  0  0  0  0  0  0  0  0  0  0  0
   35.1390   28.9370   36.5860 H   0  0  0  0  0  0  0  0  0  0  0  0
   35.4090   26.9130   37.9280 H   0  0  0  0  0  0  0  0  0  0  0  0
   37.2890   25.7540   42.3680 C   0  0  0  0  0  0  0  0  0  0  0  0
   37.0520   24.4490   41.9240 C   0  0  0  0  0  0  0  0  0  0  0  0
   36.6200   24.2770   40.6040 C   0  0  0  0  0  0  0  0  0  0  0  0
   36.4490   25.3730   39.8020 N   0  0  0  0  0  0  0  0  0  0  0  0
   36.6940   26.6260   40.2820 C   0  0  0  0  0  0  0  0  0  0  0  0
   37.1070   26.7990   41.5480 N   0  0  0  0  0  0  0  0  0  0  0  0
   37.6160   25.8310   43.3860 H   0  0  0  0  0  0  0  0  0  0  0  0
   37.1710   23.5460   42.5120 H   0  0  0  0  0  0  0  0  0  0  0  0
   36.3990   23.3480   40.1210 H   0  0  0  0  0  0  0  0  0  0  0  0
   37.5330   31.4010   39.6770 C   0  0  0  0  0  0  0  0  0  0  0  0
   38.5590   31.4120   40.5970 C   0  0  0  0  0  3  0  0  0  0  0  0
   39.1040   32.5870   41.0770 C   0  0  0  0  0  0  0  0  0  0  0  0
   39.9030   32.5900   41.7930 H   0  0  0  0  0  0  0  0  0  0  0  0
   38.6150   33.7700   40.6290 N   0  0  0  0  0  0  0  0  0  0  0  0
   37.6150   33.7700   39.7320 C   0  0  0  0  0  3  0  0  0  0  0  0
   37.0880   32.6010   39.2680 N   0  0  0  0  0  0  0  0  0  0  0  0
  1  2  1  0  0  0  0
  1 15  1  0  0  0  0
  2  7  1  0  0  0  0
  3 20  1  0  0  0  0
  3  2  2  0  0  0  0
  4  3  1  0  0  0  0
  5  4  2  0  0  0  0
  5  6  1  0  0  0  0
  6  1  2  0  0  0  0
  8  4  1  0  0  0  0
  9  5  1  0  0  0  0
 10  6  1  0  0  0  0
 11 17  1  0  0  0  0
 12 11  1  0  0  0  0
 12 18  1  0  0  0  0
 13 12  2  0  0  0  0
 14 15  2  0  0  0  0
 14 13  1  0  0  0  0
 15 16  1  0  0  0  0
 16 11  2  0  0  0  0
 19 13  1  0  0  0  0
 20 21  1  0  0  0  0
 21 22  2  0  0  0  0
 22 23  1  0  0  0  0
 24 22  1  0  0  0  0
 25 24  2  0  0  0  0
 26 20  2  0  0  0  0
 26 25  1  0  0  0  0
M  END
>  <minimizedAffinity>
-4.77278805

$$$$

 OpenBabel03242516213D

 26 28  0  0  0  0  0  0  0  0999 V2000
   35.8650   29.4430   37.9510 C   0  0  0  0  0  0  0  0  0  0  0  0
   36.8010   30.4070   38.2950 C   0  0  0  0  0  0  0  0  0  0  0  0
   36.9160   30.8820   39.5860 C   0  0  0  0  0  0  0  0  0  0  0  0
   36.0980   30.4080   40.5760 C   0  0  0  0  0  0  0  0  0  0  0  0
   35.1570   29.4460   40.2630 C   0  0  0  0  0  0  0  0  0  0  0  0
   35.0590   28.9850   38.9630 C   0  0  0  0  0  0  0  0  0  0  0  0
   37.4290   30.7570   37.4820 H   0  0  0  0  0  0  0  0  0  0  0  0
   36.1800   30.7720   41.5830 H   0  0  0  0  0  0  0  0  0  0  0  0
   34.4980   29.0520   41.0210 H   0  0  0  0  0  0  0  0  0  0  0  0
   34.3200   28.2310   38.7260 H   0  0  0  0  0  0  0  0  0  0  0  0
   36.4750   29.2350   34.3600 C   0  0  0  0  0  0  0  0  0  0  0  0
   35.6880   28.1570   33.9430 C   0  0  0  0  0  0  0  0  0  0  0  0
   34.9330   27.4870   34.9120 C   0  0  0  0  0  0  0  0  0  0  0  0
   34.9870   27.9020   36.2160 N   0  0  0  0  0  0  0  0  0  0  0  0
   35.7710   28.9600   36.5720 C   0  0  0  0  0  0  0  0  0  0  0  0
   36.4990   29.6070   35.6480 N   0  0  0  0  0  0  0  0  0  0  0  0
   37.0340   29.7130   33.5800 H   0  0  0  0  0  0  0  0  0  0  0  0
   35.6050   27.7850   32.9270 H   0  0  0  0  0  0  0  0  0  0  0  0
   34.2850   26.6500   34.7510 H   0  0  0  0  0  0  0  0  0  0  0  0
   37.9370   31.8960   39.8210 C   0  0  0  0  0  0  0  0  0  0  0  0
   37.6740   33.2160   40.1190 C   0  0  0  0  0  3  0  0  0  0  0  0
   38.6810   34.1360   40.3340 C   0  0  0  0  0  0  0  0  0  0  0  0
   38.4710   35.1620   40.5650 H   0  0  0  0  0  0  0  0  0  0  0  0
   39.9730   33.7300   40.2490 N   0  0  0  0  0  0  0  0  0  0  0  0
   40.2400   32.4450   39.9590 C   0  0  0  0  0  3  0  0  0  0  0  0
   39.2340   31.5490   39.7500 N   0  0  0  0  0  0  0  0  0  0  0  0
  1  2  2  0  0  0  0
  1  6  1  0  0  0  0
  2  3  1  0  0  0  0
  3 20  1  0  0  0  0
  3  4  2  0  0  0  0
  4  8  1  0  0  0  0
  5  4  1  0  0  0  0
  5  9  1  0  0  0  0
  6  5  2  0  0  0  0
  7  2  1  0  0  0  0
 10  6  1  0  0  0  0
 11 16  1  0  0  0  0
 12 11  2  0  0  0  0
 12 13  1  0  0  0  0
 13 14  2  0  0  0  0
 14 15  1  0  0  0  0
 15  1  1  0  0  0  0
 16 15  2  0  0  0  0
 17 11  1  0  0  0  0
 18 12  1  0  0  0  0
 19 13  1  0  0  0  0
 20 21  1  0  0  0  0
 21 22  2  0  0  0  0
 22 23  1  0  0  0  0
 24 22  1  0  0  0  0
 25 24  2  0  0  0  0
 26 20  2  0  0  0  0
 26 25  1  0  0  0  0
M  END
>  <minimizedAffinity>
-4.72584677

$$$$

 OpenBabel03242516213D

 26 28  0  0  0  0  0  0  0  0999 V2000
   38.2130   29.4270   41.6280 C   0  0  0  0  0  0  0  0  0  0  0  0
   37.7900   28.3060   40.9320 C   0  0  0  0  0  0  0  0  0  0  0  0
   37.3000   27.1890   41.5770 C   0  0  0  0  0  0  0  0  0  0  0  0
   37.2160   27.1580   42.9440 C   0  0  0  0  0  0  0  0  0  0  0  0
   37.6290   28.2620   43.6650 C   0  0  0  0  0  0  0  0  0  0  0  0
   38.1170   29.3690   42.9960 C   0  0  0  0  0  0  0  0  0  0  0  0
   37.8740   28.3700   39.8510 H   0  0  0  0  0  0  0  0  0  0  0  0
   36.8360   26.2930   43.4550 H   0  0  0  0  0  0  0  0  0  0  0  0
   37.5750   28.2680   44.7410 H   0  0  0  0  0  0  0  0  0  0  0  0
   38.4380   30.2300   43.5680 H   0  0  0  0  0  0  0  0  0  0  0  0
   39.0280   31.6300   38.8360 C   0  0  0  0  0  0  0  0  0  0  0  0
   39.6470   32.7300   39.4400 C   0  0  0  0  0  0  0  0  0  0  0  0
   39.7870   32.7170   40.8320 C   0  0  0  0  0  0  0  0  0  0  0  0
   39.3230   31.6450   41.5480 N   0  0  0  0  0  0  0  0  0  0  0  0
   38.7270   30.5960   40.9110 C   0  0  0  0  0  0  0  0  0  0  0  0
   38.5890   30.6020   39.5760 N   0  0  0  0  0  0  0  0  0  0  0  0
   38.9450   31.6900   37.7690 H   0  0  0  0  0  0  0  0  0  0  0  0
   40.0330   33.6040   38.9270 H   0  0  0  0  0  0  0  0  0  0  0  0
   40.2360   33.4790   41.4360 H   0  0  0  0  0  0  0  0  0  0  0  0
   36.8890   26.0730   40.7330 C   0  0  0  0  0  0  0  0  0  0  0  0
   36.5070   26.1910   39.4140 C   0  0  0  0  0  3  0  0  0  0  0  0
   36.1260   25.0990   38.6580 C   0  0  0  0  0  0  0  0  0  0  0  0
   35.8300   25.1960   37.6320 H   0  0  0  0  0  0  0  0  0  0  0  0
   36.1280   23.8690   39.2320 N   0  0  0  0  0  0  0  0  0  0  0  0
   36.4990   23.7450   40.5180 C   0  0  0  0  0  3  0  0  0  0  0  0
   36.8720   24.8320   41.2490 N   0  0  0  0  0  0  0  0  0  0  0  0
  1  6  1  0  0  0  0
  2  3  1  0  0  0  0
  2  1  2  0  0  0  0
  3  4  2  0  0  0  0
  4  8  1  0  0  0  0
  4  5  1  0  0  0  0
  5  9  1  0  0  0  0
  6 10  1  0  0  0  0
  6  5  2  0  0  0  0
  7  2  1  0  0  0  0
 11 12  2  0  0  0  0
 11 16  1  0  0  0  0
 12 13  1  0  0  0  0
 13 19  1  0  0  0  0
 13 14  2  0  0  0  0
 15 14  1  0  0  0  0
 15  1  1  0  0  0  0
 16 15  2  0  0  0  0
 17 11  1  0  0  0  0
 18 12  1  0  0  0  0
 20 26  1  0  0  0  0
 20  3  1  0  0  0  0
 21 20  2  0  0  0  0
 22 24  2  0  0  0  0
 22 21  1  0  0  0  0
 23 22  1  0  0  0  0
 24 25  1  0  0  0  0
 25 26  2  0  0  0  0
M  END
>  <minimizedAffinity>
-4.68035221

$$$$
