
 OpenBabel03242516523D

 43 46  0  0  1  0  0  0  0  0999 V2000
   47.8260   32.8810   41.8220 C   0  0  1  0  0  0  0  0  0  0  0  0
   47.5030   32.2280   40.5540 C   0  0  0  0  0  0  0  0  0  0  0  0
   48.5110   32.7460   39.5340 C   0  0  0  0  0  0  0  0  0  0  0  0
   48.1660   34.1890   39.2780 C   0  0  0  0  0  0  0  0  0  0  0  0
   48.1040   35.0280   40.5180 C   0  0  0  0  0  0  0  0  0  0  0  0
   47.6180   34.3990   41.7550 C   0  0  1  0  0  0  0  0  0  0  0  0
   48.9440   32.8040   41.9900 H   0  0  0  0  0  0  0  0  0  0  0  0
   46.5020   32.4140   40.1770 H   0  0  0  0  0  0  0  0  0  0  0  0
   47.6250   31.1200   40.6950 H   0  0  0  0  0  0  0  0  0  0  0  0
   49.5540   32.6340   39.8720 H   0  0  0  0  0  0  0  0  0  0  0  0
   48.2880   32.2120   38.5740 H   0  0  0  0  0  0  0  0  0  0  0  0
   47.2080   34.2290   38.6870 H   0  0  0  0  0  0  0  0  0  0  0  0
   48.9490   34.5790   38.5920 H   0  0  0  0  0  0  0  0  0  0  0  0
   49.1280   35.4800   40.6540 H   0  0  0  0  0  0  0  0  0  0  0  0
   47.4660   35.9130   40.2790 H   0  0  0  0  0  0  0  0  0  0  0  0
   48.2160   34.8020   42.6160 H   0  0  0  0  0  0  0  0  0  0  0  0
   45.4210   30.9640   44.0100 C   0  0  0  0  0  0  0  0  0  0  0  0
   46.0870   31.5030   42.9070 C   0  0  0  0  0  0  0  0  0  0  0  0
   47.1880   32.3570   43.0110 C   0  0  0  0  0  0  0  0  0  0  0  0
   47.5820   32.6400   44.2530 N   0  0  0  0  0  0  0  0  0  0  0  0
   46.9430   32.1220   45.3320 C   0  0  0  0  0  0  0  0  0  0  0  0
   45.8920   31.3070   45.2270 N   0  0  0  0  0  0  0  0  0  0  0  0
   44.5870   30.3180   43.8850 H   0  0  0  0  0  0  0  0  0  0  0  0
   45.7220   31.2390   41.9040 H   0  0  0  0  0  0  0  0  0  0  0  0
   47.3250   32.4010   46.3060 H   0  0  0  0  0  0  0  0  0  0  0  0
   46.2340   34.7650   42.0670 C   0  0  0  0  0  0  0  0  0  0  0  0
   45.7850   35.3400   43.2590 C   0  0  0  0  0  0  0  0  0  0  0  0
   44.4180   35.6200   43.3290 C   0  0  0  0  0  0  0  0  0  0  0  0
   43.6360   35.3090   42.2290 C   0  0  0  0  0  0  0  0  0  0  0  0
   44.0980   34.7380   41.0520 C   0  0  0  0  0  0  0  0  0  0  0  0
   45.4360   34.4760   41.0140 N   0  0  0  0  0  0  0  0  0  0  0  0
   46.5170   35.5160   44.0130 H   0  0  0  0  0  0  0  0  0  0  0  0
   44.0600   36.0560   44.2280 H   0  0  0  0  0  0  0  0  0  0  0  0
   42.5810   35.5470   42.3350 H   0  0  0  0  0  0  0  0  0  0  0  0
   43.1810   34.4580   39.9550 C   0  0  0  0  0  0  0  0  0  0  0  0
   42.5790   35.4530   39.4380 O   0  0  0  0  0  0  0  0  0  0  0  0
   42.8620   33.1650   39.3640 C   0  0  0  0  0  0  0  0  0  0  0  0
   43.4590   32.0470   39.9010 C   0  0  0  0  0  3  0  0  0  0  0  0
   43.1790   30.7890   39.3570 C   0  0  0  0  0  0  0  0  0  0  0  0
   43.6360   29.8930   39.7610 H   0  0  0  0  0  0  0  0  0  0  0  0
   42.3180   30.6940   38.3070 N   0  0  0  0  0  0  0  0  0  0  0  0
   41.7430   31.7700   37.7890 C   0  0  0  0  0  3  0  0  0  0  0  0
   42.0340   32.9400   38.3310 N   0  0  0  0  0  0  0  0  0  0  0  0
  1  7  1  1  0  0  0
  1 19  1  0  0  0  0
  2  9  1  0  0  0  0
  2  1  1  0  0  0  0
  3 10  1  0  0  0  0
  3  2  1  0  0  0  0
  4  3  1  0  0  0  0
  4  5  1  0  0  0  0
  5 14  1  0  0  0  0
  5  6  1  0  0  0  0
  6  1  1  0  0  0  0
  6 26  1  0  0  0  0
  6 16  1  1  0  0  0
  8  2  1  0  0  0  0
 11  3  1  0  0  0  0
 12  4  1  0  0  0  0
 13  4  1  0  0  0  0
 15  5  1  0  0  0  0
 17 22  1  0  0  0  0
 18 19  1  0  0  0  0
 18 17  2  0  0  0  0
 19 20  2  0  0  0  0
 20 21  1  0  0  0  0
 21 25  1  0  0  0  0
 22 21  2  0  0  0  0
 23 17  1  0  0  0  0
 24 18  1  0  0  0  0
 26 27  1  0  0  0  0
 27 28  2  0  0  0  0
 27 32  1  0  0  0  0
 28 33  1  0  0  0  0
 29 34  1  0  0  0  0
 29 28  1  0  0  0  0
 30 29  2  0  0  0  0
 31 30  1  0  0  0  0
 31 26  2  0  0  0  0
 35 30  1  0  0  0  0
 36 35  2  0  0  0  0
 37 38  1  0  0  0  0
 37 35  1  0  0  0  0
 39 40  1  0  0  0  0
 39 38  2  0  0  0  0
 41 39  1  0  0  0  0
 42 41  2  0  0  0  0
 42 43  1  0  0  0  0
 43 37  2  0  0  0  0
M  END
>  <minimizedAffinity>
-5.22262907

>  <minimizedRMSD>
0.448282391

$$$$
