
 OpenBabel03252506193D

 21 22  0  0  0  0  0  0  0  0999 V2000
   44.8820   35.4080   43.9930 C   0  0  0  0  0  0  0  0  0  0  0  0
   44.4070   34.9790   42.7390 C   0  0  0  0  0  0  0  0  0  0  0  0
   44.4990   33.6090   42.4330 C   0  0  0  0  0  0  0  0  0  0  0  0
   45.0410   32.7820   43.3630 N   0  0  0  0  0  0  0  0  0  0  0  0
   45.4950   33.2320   44.5710 C   0  0  0  0  0  0  0  0  0  0  0  0
   45.4030   34.5490   44.8610 N   0  0  0  0  0  0  0  0  0  0  0  0
   43.9810   35.6830   42.0320 H   0  0  0  0  0  0  0  0  0  0  0  0
   44.1480   33.2370   41.4870 H   0  0  0  0  0  0  0  0  0  0  0  0
   46.0730   32.3230   45.5540 C   0  0  0  0  0  0  0  0  0  0  0  0
   46.7050   32.8620   46.6670 C   0  0  0  0  0  3  0  0  0  0  0  0
   47.2580   31.9980   47.6060 C   0  0  0  0  0  0  0  0  0  0  0  0
   47.7540   32.4060   48.4780 H   0  0  0  0  0  0  0  0  0  0  0  0
   47.1380   30.6870   47.3610 N   0  0  0  0  0  0  0  0  0  0  0  0
   46.5400   30.1410   46.3070 C   0  0  0  0  0  3  0  0  0  0  0  0
   45.9940   30.9780   45.3800 N   0  0  0  0  0  0  0  0  0  0  0  0
   44.7830   36.8250   44.3070 C   0  0  0  0  0  3  0  0  0  0  0  0
   45.3850   37.7060   43.5360 C   0  0  0  0  0  3  0  0  0  0  0  0
   45.3320   39.1630   43.7880 C   0  0  0  0  0  0  0  0  0  0  0  0
   45.0930   39.3900   44.8350 H   0  0  0  0  0  0  0  0  0  0  0  0
   44.5320   39.5910   43.1730 H   0  0  0  0  0  0  0  0  0  0  0  0
   46.3250   39.6330   43.5860 H   0  0  0  0  0  0  0  0  0  0  0  0
  1 16  1  0  0  0  0
  1  6  1  0  0  0  0
  2  1  2  0  0  0  0
  3  2  1  0  0  0  0
  3  4  2  0  0  0  0
  4  5  1  0  0  0  0
  5  6  2  0  0  0  0
  5  9  1  0  0  0  0
  7  2  1  0  0  0  0
  8  3  1  0  0  0  0
  9 10  1  0  0  0  0
 10 11  2  0  0  0  0
 11 12  1  0  0  0  0
 13 11  1  0  0  0  0
 14 13  2  0  0  0  0
 15  9  2  0  0  0  0
 15 14  1  0  0  0  0
 17 18  1  0  0  0  0
 17 16  2  0  0  0  0
 18 19  1  0  0  0  0
 20 18  1  0  0  0  0
 21 18  1  0  0  0  0
M  END
>  <minimizedAffinity>
-3.62500548

>  <minimizedRMSD>
1.31812084

$$$$
