
 OpenBabel03252506193D

 21 22  0  0  0  0  0  0  0  0999 V2000
   37.4480   28.4950   42.1460 C   0  0  0  0  0  0  0  0  0  0  0  0
   36.1970   28.1640   41.5910 C   0  0  0  0  0  0  0  0  0  0  0  0
   35.6030   29.0870   40.7100 C   0  0  0  0  0  0  0  0  0  0  0  0
   36.2700   30.2390   40.4470 N   0  0  0  0  0  0  0  0  0  0  0  0
   37.4840   30.5300   41.0050 C   0  0  0  0  0  0  0  0  0  0  0  0
   38.0500   29.6400   41.8500 N   0  0  0  0  0  0  0  0  0  0  0  0
   35.7070   27.2280   41.8340 H   0  0  0  0  0  0  0  0  0  0  0  0
   34.6480   28.8760   40.2620 H   0  0  0  0  0  0  0  0  0  0  0  0
   38.1810   31.7760   40.7080 C   0  0  0  0  0  0  0  0  0  0  0  0
   37.4530   32.8360   40.1830 C   0  0  0  0  0  3  0  0  0  0  0  0
   38.1150   34.0240   39.8980 C   0  0  0  0  0  0  0  0  0  0  0  0
   37.5580   34.8590   39.4890 H   0  0  0  0  0  0  0  0  0  0  0  0
   39.4290   34.0580   40.1550 N   0  0  0  0  0  0  0  0  0  0  0  0
   40.1510   33.0630   40.6550 C   0  0  0  0  0  3  0  0  0  0  0  0
   39.5140   31.8910   40.9390 N   0  0  0  0  0  0  0  0  0  0  0  0
   38.0600   27.5380   43.0550 C   0  0  0  0  0  3  0  0  0  0  0  0
   39.2680   27.0800   42.8010 C   0  0  0  0  0  3  0  0  0  0  0  0
   39.9570   26.1060   43.6770 C   0  0  0  0  0  0  0  0  0  0  0  0
   39.2510   25.5400   44.2970 H   0  0  0  0  0  0  0  0  0  0  0  0
   40.6160   26.6590   44.3570 H   0  0  0  0  0  0  0  0  0  0  0  0
   40.5110   25.3510   43.0650 H   0  0  0  0  0  0  0  0  0  0  0  0
  1 16  1  0  0  0  0
  2  7  1  0  0  0  0
  2  1  2  0  0  0  0
  3  2  1  0  0  0  0
  4  3  2  0  0  0  0
  4  5  1  0  0  0  0
  5  6  2  0  0  0  0
  6  1  1  0  0  0  0
  8  3  1  0  0  0  0
  9 15  1  0  0  0  0
  9  5  1  0  0  0  0
 10  9  2  0  0  0  0
 11 13  2  0  0  0  0
 11 10  1  0  0  0  0
 12 11  1  0  0  0  0
 13 14  1  0  0  0  0
 14 15  2  0  0  0  0
 17 16  2  0  0  0  0
 17 18  1  0  0  0  0
 18 19  1  0  0  0  0
 18 20  1  0  0  0  0
 21 18  1  0  0  0  0
M  END
>  <minimizedAffinity>
-4.49086046

$$$$

 OpenBabel03252506193D

 21 22  0  0  0  0  0  0  0  0999 V2000
   37.2130   27.2170   41.4450 C   0  0  0  0  0  0  0  0  0  0  0  0
   37.1970   26.9960   42.8360 C   0  0  0  0  0  0  0  0  0  0  0  0
   37.4490   28.0940   43.6800 C   0  0  0  0  0  0  0  0  0  0  0  0
   37.6920   29.2990   43.1040 N   0  0  0  0  0  0  0  0  0  0  0  0
   37.7010   29.4780   41.7490 C   0  0  0  0  0  0  0  0  0  0  0  0
   37.4590   28.4210   40.9430 N   0  0  0  0  0  0  0  0  0  0  0  0
   36.9970   26.0110   43.2440 H   0  0  0  0  0  0  0  0  0  0  0  0
   37.4460   27.9720   44.7480 H   0  0  0  0  0  0  0  0  0  0  0  0
   37.9650   30.7830   41.1550 C   0  0  0  0  0  0  0  0  0  0  0  0
   37.0150   31.3310   40.3030 C   0  0  0  0  0  3  0  0  0  0  0  0
   37.2640   32.5740   39.7360 C   0  0  0  0  0  0  0  0  0  0  0  0
   36.5300   33.0120   39.0690 H   0  0  0  0  0  0  0  0  0  0  0  0
   38.4240   33.1620   40.0580 N   0  0  0  0  0  0  0  0  0  0  0  0
   39.3510   32.6640   40.8670 C   0  0  0  0  0  3  0  0  0  0  0  0
   39.1190   31.4450   41.4310 N   0  0  0  0  0  0  0  0  0  0  0  0
   36.9510   26.0790   40.5760 C   0  0  0  0  0  3  0  0  0  0  0  0
   36.9410   24.8640   41.0800 C   0  0  0  0  0  3  0  0  0  0  0  0
   36.6820   23.6580   40.2630 C   0  0  0  0  0  0  0  0  0  0  0  0
   36.8840   23.8320   39.1980 H   0  0  0  0  0  0  0  0  0  0  0  0
   35.6200   23.4000   40.3530 H   0  0  0  0  0  0  0  0  0  0  0  0
   37.3530   22.8200   40.5750 H   0  0  0  0  0  0  0  0  0  0  0  0
  1  2  1  0  0  0  0
  2  7  1  0  0  0  0
  2  3  2  0  0  0  0
  3  8  1  0  0  0  0
  4  3  1  0  0  0  0
  5  4  2  0  0  0  0
  6  1  2  0  0  0  0
  6  5  1  0  0  0  0
  9 15  1  0  0  0  0
  9  5  1  0  0  0  0
 10  9  2  0  0  0  0
 11 13  2  0  0  0  0
 11 10  1  0  0  0  0
 12 11  1  0  0  0  0
 13 14  1  0  0  0  0
 14 15  2  0  0  0  0
 16 17  2  0  0  0  0
 16  1  1  0  0  0  0
 18 20  1  0  0  0  0
 18 21  1  0  0  0  0
 18 17  1  0  0  0  0
 19 18  1  0  0  0  0
M  END
>  <minimizedAffinity>
-4.47973633

$$$$

 OpenBabel03252506193D

 21 22  0  0  0  0  0  0  0  0999 V2000
   35.7690   29.1210   40.6140 C   0  0  0  0  0  0  0  0  0  0  0  0
   36.3460   30.3460   40.9990 C   0  0  0  0  0  0  0  0  0  0  0  0
   37.5130   30.3070   41.7840 C   0  0  0  0  0  0  0  0  0  0  0  0
   38.0140   29.0920   42.1220 N   0  0  0  0  0  0  0  0  0  0  0  0
   37.4270   27.9200   41.7320 C   0  0  0  0  0  0  0  0  0  0  0  0
   36.3060   27.9640   40.9780 N   0  0  0  0  0  0  0  0  0  0  0  0
   35.9040   31.2910   40.7000 H   0  0  0  0  0  0  0  0  0  0  0  0
   37.9880   31.2180   42.1010 H   0  0  0  0  0  0  0  0  0  0  0  0
   37.9840   26.6260   42.1090 C   0  0  0  0  0  0  0  0  0  0  0  0
   37.3110   25.4740   41.7240 C   0  0  0  0  0  3  0  0  0  0  0  0
   37.8400   24.2400   42.0820 C   0  0  0  0  0  0  0  0  0  0  0  0
   37.3240   23.3340   41.7880 H   0  0  0  0  0  0  0  0  0  0  0  0
   38.9800   24.2550   42.7850 N   0  0  0  0  0  0  0  0  0  0  0  0
   39.6460   25.3380   43.1680 C   0  0  0  0  0  3  0  0  0  0  0  0
   39.1380   26.5550   42.8230 N   0  0  0  0  0  0  0  0  0  0  0  0
   34.5620   29.1660   39.8010 C   0  0  0  0  0  3  0  0  0  0  0  0
   34.6230   28.8390   38.5280 C   0  0  0  0  0  3  0  0  0  0  0  0
   33.4420   28.8590   37.6370 C   0  0  0  0  0  0  0  0  0  0  0  0
   32.6490   29.5140   38.0210 H   0  0  0  0  0  0  0  0  0  0  0  0
   33.0290   27.8450   37.5870 H   0  0  0  0  0  0  0  0  0  0  0  0
   33.7160   29.2590   36.6290 H   0  0  0  0  0  0  0  0  0  0  0  0
  1  6  2  0  0  0  0
  1  2  1  0  0  0  0
  2  3  2  0  0  0  0
  3  8  1  0  0  0  0
  3  4  1  0  0  0  0
  5  9  1  0  0  0  0
  5  4  2  0  0  0  0
  6  5  1  0  0  0  0
  7  2  1  0  0  0  0
  9 15  1  0  0  0  0
 10 11  1  0  0  0  0
 10  9  2  0  0  0  0
 11 13  2  0  0  0  0
 12 11  1  0  0  0  0
 13 14  1  0  0  0  0
 15 14  2  0  0  0  0
 16  1  1  0  0  0  0
 17 16  2  0  0  0  0
 18 19  1  0  0  0  0
 18 17  1  0  0  0  0
 20 18  1  0  0  0  0
 21 18  1  0  0  0  0
M  END
>  <minimizedAffinity>
-4.39134932

$$$$

 OpenBabel03252506193D

 21 22  0  0  0  0  0  0  0  0999 V2000
   35.8560   29.3610   40.5210 C   0  0  0  0  0  0  0  0  0  0  0  0
   36.1860   28.4580   41.5500 C   0  0  0  0  0  0  0  0  0  0  0  0
   37.3250   28.7350   42.3290 C   0  0  0  0  0  0  0  0  0  0  0  0
   38.0370   29.8530   42.0430 N   0  0  0  0  0  0  0  0  0  0  0  0
   37.6900   30.7090   41.0340 C   0  0  0  0  0  0  0  0  0  0  0  0
   36.5950   30.4390   40.2900 N   0  0  0  0  0  0  0  0  0  0  0  0
   35.5810   27.5770   41.7370 H   0  0  0  0  0  0  0  0  0  0  0  0
   37.6140   28.0730   43.1260 H   0  0  0  0  0  0  0  0  0  0  0  0
   38.4720   31.9050   40.7460 C   0  0  0  0  0  0  0  0  0  0  0  0
   39.8520   31.8470   40.8870 C   0  0  0  0  0  3  0  0  0  0  0  0
   40.6000   32.9860   40.6120 C   0  0  0  0  0  0  0  0  0  0  0  0
   41.6780   32.9530   40.7180 H   0  0  0  0  0  0  0  0  0  0  0  0
   39.9210   34.0740   40.2270 N   0  0  0  0  0  0  0  0  0  0  0  0
   38.6040   34.1600   40.0840 C   0  0  0  0  0  3  0  0  0  0  0  0
   37.8590   33.0500   40.3490 N   0  0  0  0  0  0  0  0  0  0  0  0
   34.6760   29.0720   39.7190 C   0  0  0  0  0  3  0  0  0  0  0  0
   34.7880   28.9700   38.4110 C   0  0  0  0  0  3  0  0  0  0  0  0
   33.6370   28.6790   37.5280 C   0  0  0  0  0  0  0  0  0  0  0  0
   32.6810   28.9360   38.0010 H   0  0  0  0  0  0  0  0  0  0  0  0
   33.6200   27.6010   37.3280 H   0  0  0  0  0  0  0  0  0  0  0  0
   33.6970   29.2870   36.5920 H   0  0  0  0  0  0  0  0  0  0  0  0
  1  2  1  0  0  0  0
  2  7  1  0  0  0  0
  2  3  2  0  0  0  0
  3  8  1  0  0  0  0
  4  3  1  0  0  0  0
  5  4  2  0  0  0  0
  6  1  2  0  0  0  0
  6  5  1  0  0  0  0
  9 10  1  0  0  0  0
  9  5  1  0  0  0  0
 11 12  1  0  0  0  0
 11 10  2  0  0  0  0
 13 11  1  0  0  0  0
 14 13  2  0  0  0  0
 14 15  1  0  0  0  0
 15  9  2  0  0  0  0
 16  1  1  0  0  0  0
 17 16  2  0  0  0  0
 18 19  1  0  0  0  0
 18 17  1  0  0  0  0
 20 18  1  0  0  0  0
 21 18  1  0  0  0  0
M  END
>  <minimizedAffinity>
-4.35392666

$$$$

 OpenBabel03252506193D

 21 22  0  0  0  0  0  0  0  0999 V2000
   38.1440   26.1970   42.3750 C   0  0  0  0  0  0  0  0  0  0  0  0
   39.2530   26.0460   43.2300 C   0  0  0  0  0  0  0  0  0  0  0  0
   39.9990   27.1950   43.5510 C   0  0  0  0  0  0  0  0  0  0  0  0
   39.6070   28.3800   43.0180 N   0  0  0  0  0  0  0  0  0  0  0  0
   38.5250   28.4910   42.1890 C   0  0  0  0  0  0  0  0  0  0  0  0
   37.8120   27.3850   41.8840 N   0  0  0  0  0  0  0  0  0  0  0  0
   39.5220   25.0740   43.6290 H   0  0  0  0  0  0  0  0  0  0  0  0
   40.8530   27.1260   44.2010 H   0  0  0  0  0  0  0  0  0  0  0  0
   38.1240   29.7760   41.6290 C   0  0  0  0  0  0  0  0  0  0  0  0
   36.7910   29.9670   41.2890 C   0  0  0  0  0  3  0  0  0  0  0  0
   36.4060   31.1910   40.7550 C   0  0  0  0  0  0  0  0  0  0  0  0
   35.3680   31.3520   40.4870 H   0  0  0  0  0  0  0  0  0  0  0  0
   37.3670   32.1110   40.6040 N   0  0  0  0  0  0  0  0  0  0  0  0
   38.6480   31.9580   40.9170 C   0  0  0  0  0  3  0  0  0  0  0  0
   39.0390   30.7630   41.4430 N   0  0  0  0  0  0  0  0  0  0  0  0
   37.3740   25.0060   42.0470 C   0  0  0  0  0  3  0  0  0  0  0  0
   36.8850   24.8620   40.8340 C   0  0  0  0  0  3  0  0  0  0  0  0
   36.0930   23.6820   40.4230 C   0  0  0  0  0  0  0  0  0  0  0  0
   35.6460   23.1670   41.2830 H   0  0  0  0  0  0  0  0  0  0  0  0
   36.7650   22.9680   39.9310 H   0  0  0  0  0  0  0  0  0  0  0  0
   35.2420   23.9890   39.7660 H   0  0  0  0  0  0  0  0  0  0  0  0
  1  2  1  0  0  0  0
  2  3  2  0  0  0  0
  2  7  1  0  0  0  0
  3  8  1  0  0  0  0
  4  3  1  0  0  0  0
  5  4  2  0  0  0  0
  6  5  1  0  0  0  0
  6  1  2  0  0  0  0
  9  5  1  0  0  0  0
 10  9  2  0  0  0  0
 11 10  1  0  0  0  0
 12 11  1  0  0  0  0
 13 11  2  0  0  0  0
 13 14  1  0  0  0  0
 14 15  2  0  0  0  0
 15  9  1  0  0  0  0
 16  1  1  0  0  0  0
 17 16  2  0  0  0  0
 18 17  1  0  0  0  0
 18 19  1  0  0  0  0
 20 18  1  0  0  0  0
 21 18  1  0  0  0  0
M  END
>  <minimizedAffinity>
-4.28419209

$$$$

 OpenBabel03252506193D

 21 22  0  0  0  0  0  0  0  0999 V2000
   38.1560   27.1830   42.3980 C   0  0  0  0  0  0  0  0  0  0  0  0
   39.3270   26.9580   43.1470 C   0  0  0  0  0  0  0  0  0  0  0  0
   40.2240   28.0310   43.3040 C   0  0  0  0  0  0  0  0  0  0  0  0
   39.9080   29.2170   42.7260 N   0  0  0  0  0  0  0  0  0  0  0  0
   38.7620   29.4010   42.0030 C   0  0  0  0  0  0  0  0  0  0  0  0
   37.9040   28.3680   41.8550 N   0  0  0  0  0  0  0  0  0  0  0  0
   39.5310   25.9890   43.5890 H   0  0  0  0  0  0  0  0  0  0  0  0
   41.1310   27.9050   43.8690 H   0  0  0  0  0  0  0  0  0  0  0  0
   38.4450   30.6860   41.3910 C   0  0  0  0  0  0  0  0  0  0  0  0
   39.3980   31.6950   41.4300 C   0  0  0  0  0  3  0  0  0  0  0  0
   39.0990   32.9200   40.8470 C   0  0  0  0  0  0  0  0  0  0  0  0
   39.8340   33.7150   40.8700 H   0  0  0  0  0  0  0  0  0  0  0  0
   37.8900   33.0390   40.2820 N   0  0  0  0  0  0  0  0  0  0  0  0
   36.9580   32.0950   40.2300 C   0  0  0  0  0  3  0  0  0  0  0  0
   37.2400   30.8880   40.7970 N   0  0  0  0  0  0  0  0  0  0  0  0
   37.2300   26.0720   42.2390 C   0  0  0  0  0  3  0  0  0  0  0  0
   37.4280   25.1920   41.2800 C   0  0  0  0  0  3  0  0  0  0  0  0
   36.5330   24.0360   41.0550 C   0  0  0  0  0  0  0  0  0  0  0  0
   35.5360   24.1990   41.4810 H   0  0  0  0  0  0  0  0  0  0  0  0
   36.9630   23.1620   41.5590 H   0  0  0  0  0  0  0  0  0  0  0  0
   36.3810   23.8650   39.9600 H   0  0  0  0  0  0  0  0  0  0  0  0
  1  2  1  0  0  0  0
  2  3  2  0  0  0  0
  2  7  1  0  0  0  0
  3  8  1  0  0  0  0
  4  3  1  0  0  0  0
  5  4  2  0  0  0  0
  6  5  1  0  0  0  0
  6  1  2  0  0  0  0
  9 10  1  0  0  0  0
  9  5  1  0  0  0  0
 11 12  1  0  0  0  0
 11 10  2  0  0  0  0
 13 11  1  0  0  0  0
 14 13  2  0  0  0  0
 14 15  1  0  0  0  0
 15  9  2  0  0  0  0
 16  1  1  0  0  0  0
 17 16  2  0  0  0  0
 18 17  1  0  0  0  0
 18 19  1  0  0  0  0
 18 20  1  0  0  0  0
 21 18  1  0  0  0  0
M  END
>  <minimizedAffinity>
-4.18853188

$$$$

 OpenBabel03252506193D

 21 22  0  0  0  0  0  0  0  0999 V2000
   37.1910   27.2310   41.4220 C   0  0  0  0  0  0  0  0  0  0  0  0
   37.2230   26.9560   42.8030 C   0  0  0  0  0  0  0  0  0  0  0  0
   37.5170   28.0160   43.6800 C   0  0  0  0  0  0  0  0  0  0  0  0
   37.7510   29.2410   43.1440 N   0  0  0  0  0  0  0  0  0  0  0  0
   37.7130   29.4740   41.7970 C   0  0  0  0  0  0  0  0  0  0  0  0
   37.4310   28.4520   40.9600 N   0  0  0  0  0  0  0  0  0  0  0  0
   37.0270   25.9570   43.1780 H   0  0  0  0  0  0  0  0  0  0  0  0
   37.5520   27.8510   44.7420 H   0  0  0  0  0  0  0  0  0  0  0  0
   37.9690   30.7990   41.2460 C   0  0  0  0  0  0  0  0  0  0  0  0
   39.2180   31.3730   41.4450 C   0  0  0  0  0  3  0  0  0  0  0  0
   39.4650   32.6360   40.9210 C   0  0  0  0  0  0  0  0  0  0  0  0
   40.4350   33.0940   41.0690 H   0  0  0  0  0  0  0  0  0  0  0  0
   38.4600   33.2170   40.2520 N   0  0  0  0  0  0  0  0  0  0  0  0
   37.2570   32.6950   40.0450 C   0  0  0  0  0  3  0  0  0  0  0  0
   37.0020   31.4560   40.5540 N   0  0  0  0  0  0  0  0  0  0  0  0
   36.8850   26.1320   40.5190 C   0  0  0  0  0  3  0  0  0  0  0  0
   36.7870   26.3610   39.2260 C   0  0  0  0  0  3  0  0  0  0  0  0
   36.4800   25.2970   38.2440 C   0  0  0  0  0  0  0  0  0  0  0  0
   35.9810   24.4390   38.7110 H   0  0  0  0  0  0  0  0  0  0  0  0
   37.4240   24.9340   37.8220 H   0  0  0  0  0  0  0  0  0  0  0  0
   35.7790   25.6770   37.4600 H   0  0  0  0  0  0  0  0  0  0  0  0
  1  2  1  0  0  0  0
  2  7  1  0  0  0  0
  2  3  2  0  0  0  0
  3  8  1  0  0  0  0
  4  3  1  0  0  0  0
  5  4  2  0  0  0  0
  6  1  2  0  0  0  0
  6  5  1  0  0  0  0
  9 10  1  0  0  0  0
  9  5  1  0  0  0  0
 11 12  1  0  0  0  0
 11 10  2  0  0  0  0
 13 11  1  0  0  0  0
 14 13  2  0  0  0  0
 14 15  1  0  0  0  0
 15  9  2  0  0  0  0
 16  1  1  0  0  0  0
 17 16  2  0  0  0  0
 18 19  1  0  0  0  0
 18 17  1  0  0  0  0
 20 18  1  0  0  0  0
 21 18  1  0  0  0  0
M  END
>  <minimizedAffinity>
-4.16737461

$$$$

 OpenBabel03252506193D

 21 22  0  0  0  0  0  0  0  0999 V2000
   37.5600   28.3610   41.5120 C   0  0  0  0  0  0  0  0  0  0  0  0
   36.1960   28.1760   41.2140 C   0  0  0  0  0  0  0  0  0  0  0  0
   35.4790   29.2740   40.7030 C   0  0  0  0  0  0  0  0  0  0  0  0
   36.1430   30.4440   40.5280 N   0  0  0  0  0  0  0  0  0  0  0  0
   37.4690   30.5900   40.8290 C   0  0  0  0  0  0  0  0  0  0  0  0
   38.1530   29.5320   41.3190 N   0  0  0  0  0  0  0  0  0  0  0  0
   35.7140   27.2170   41.3730 H   0  0  0  0  0  0  0  0  0  0  0  0
   34.4350   29.1780   40.4610 H   0  0  0  0  0  0  0  0  0  0  0  0
   38.1600   31.8580   40.6320 C   0  0  0  0  0  0  0  0  0  0  0  0
   39.5190   31.9260   40.9100 C   0  0  0  0  0  3  0  0  0  0  0  0
   40.1800   33.1330   40.7220 C   0  0  0  0  0  0  0  0  0  0  0  0
   41.2410   33.1990   40.9350 H   0  0  0  0  0  0  0  0  0  0  0  0
   39.4430   34.1610   40.2810 N   0  0  0  0  0  0  0  0  0  0  0  0
   38.1440   34.1280   40.0080 C   0  0  0  0  0  3  0  0  0  0  0  0
   37.4840   32.9490   40.1870 N   0  0  0  0  0  0  0  0  0  0  0  0
   38.2980   27.2230   42.0390 C   0  0  0  0  0  3  0  0  0  0  0  0
   37.7750   26.0170   41.9660 C   0  0  0  0  0  3  0  0  0  0  0  0
   38.4630   24.8110   42.4780 C   0  0  0  0  0  0  0  0  0  0  0  0
   39.2200   25.0590   43.2320 H   0  0  0  0  0  0  0  0  0  0  0  0
   38.9830   24.3290   41.6420 H   0  0  0  0  0  0  0  0  0  0  0  0
   37.7350   24.1270   42.9800 H   0  0  0  0  0  0  0  0  0  0  0  0
  1 16  1  0  0  0  0
  2  7  1  0  0  0  0
  2  1  2  0  0  0  0
  3  2  1  0  0  0  0
  4  3  2  0  0  0  0
  4  5  1  0  0  0  0
  5  6  2  0  0  0  0
  6  1  1  0  0  0  0
  8  3  1  0  0  0  0
  9  5  1  0  0  0  0
  9 10  1  0  0  0  0
 11 10  2  0  0  0  0
 11 12  1  0  0  0  0
 13 11  1  0  0  0  0
 14 15  1  0  0  0  0
 14 13  2  0  0  0  0
 15  9  2  0  0  0  0
 17 16  2  0  0  0  0
 17 18  1  0  0  0  0
 18 21  1  0  0  0  0
 18 19  1  0  0  0  0
 20 18  1  0  0  0  0
M  END
>  <minimizedAffinity>
-4.10734415

$$$$

 OpenBabel03252506193D

 21 22  0  0  0  0  0  0  0  0999 V2000
   37.0540   28.3670   40.9720 C   0  0  0  0  0  0  0  0  0  0  0  0
   35.8810   29.1170   40.7590 C   0  0  0  0  0  0  0  0  0  0  0  0
   35.9820   30.5200   40.7860 C   0  0  0  0  0  0  0  0  0  0  0  0
   37.2020   31.0680   41.0170 N   0  0  0  0  0  0  0  0  0  0  0  0
   38.3210   30.3100   41.2220 C   0  0  0  0  0  0  0  0  0  0  0  0
   38.2190   28.9630   41.1940 N   0  0  0  0  0  0  0  0  0  0  0  0
   34.9300   28.6270   40.5780 H   0  0  0  0  0  0  0  0  0  0  0  0
   35.1120   31.1320   40.6280 H   0  0  0  0  0  0  0  0  0  0  0  0
   39.6210   30.9220   41.4690 C   0  0  0  0  0  0  0  0  0  0  0  0
   40.3500   30.5140   42.5780 C   0  0  0  0  0  3  0  0  0  0  0  0
   41.5890   31.0960   42.8150 C   0  0  0  0  0  0  0  0  0  0  0  0
   42.1670   30.7860   43.6770 H   0  0  0  0  0  0  0  0  0  0  0  0
   41.9950   32.0250   41.9400 N   0  0  0  0  0  0  0  0  0  0  0  0
   41.3220   32.4370   40.8720 C   0  0  0  0  0  3  0  0  0  0  0  0
   40.1050   31.8730   40.6280 N   0  0  0  0  0  0  0  0  0  0  0  0
   36.9460   26.9160   40.9410 C   0  0  0  0  0  3  0  0  0  0  0  0
   37.1240   26.2270   42.0480 C   0  0  0  0  0  3  0  0  0  0  0  0
   37.0300   24.7510   42.0980 C   0  0  0  0  0  0  0  0  0  0  0  0
   37.1840   24.2960   41.1120 H   0  0  0  0  0  0  0  0  0  0  0  0
   36.0200   24.4800   42.4270 H   0  0  0  0  0  0  0  0  0  0  0  0
   37.8230   24.3290   42.7640 H   0  0  0  0  0  0  0  0  0  0  0  0
  1  6  1  0  0  0  0
  2  3  1  0  0  0  0
  2  1  2  0  0  0  0
  3  4  2  0  0  0  0
  4  5  1  0  0  0  0
  5  9  1  0  0  0  0
  6  5  2  0  0  0  0
  7  2  1  0  0  0  0
  8  3  1  0  0  0  0
  9 10  1  0  0  0  0
 10 11  2  0  0  0  0
 11 12  1  0  0  0  0
 13 11  1  0  0  0  0
 14 13  2  0  0  0  0
 15 14  1  0  0  0  0
 15  9  2  0  0  0  0
 16  1  1  0  0  0  0
 16 17  2  0  0  0  0
 17 18  1  0  0  0  0
 18 20  1  0  0  0  0
 18 21  1  0  0  0  0
 19 18  1  0  0  0  0
M  END
>  <minimizedAffinity>
-4.07351589

$$$$
