
 OpenBabel03252508323D

 30 32  0  0  1  0  0  0  0  0999 V2000
   44.1630   34.2140   42.0920 N   0  0  0  0  0  0  0  0  0  0  0  0
   44.4320   33.6350   40.8280 C   0  0  1  0  0  0  0  0  0  0  0  0
   43.6000   34.1120   39.7010 C   0  0  0  0  0  0  0  0  0  0  0  0
   42.2920   34.5310   39.9730 N   0  0  0  0  0  0  0  0  0  0  0  0
   41.9890   34.9810   41.2650 C   0  0  0  0  0  0  0  0  0  0  0  0
   43.2420   35.3050   42.0460 C   0  0  0  0  0  0  0  0  0  0  0  0
   44.3140   32.5260   40.9230 H   0  0  0  0  0  0  0  0  0  0  0  0
   44.1370   34.9670   39.1890 H   0  0  0  0  0  0  0  0  0  0  0  0
   43.5790   33.3200   38.9050 H   0  0  0  0  0  0  0  0  0  0  0  0
   41.9830   35.2280   39.2560 H   0  0  0  0  0  0  0  0  0  0  0  0
   41.3910   34.1880   41.7820 H   0  0  0  0  0  0  0  0  0  0  0  0
   41.3530   35.9020   41.2660 H   0  0  0  0  0  0  0  0  0  0  0  0
   42.9960   35.7890   42.9930 H   0  0  0  0  0  0  0  0  0  0  0  0
   43.7290   36.1310   41.4350 H   0  0  0  0  0  0  0  0  0  0  0  0
   45.1310   34.6280   44.2310 C   0  0  0  0  0  0  0  0  0  0  0  0
   44.8020   33.7130   43.2360 C   0  0  0  0  0  0  0  0  0  0  0  0
   45.1520   32.3700   43.4350 C   0  0  0  0  0  0  0  0  0  0  0  0
   45.7950   31.9890   44.5730 N   0  0  0  0  0  0  0  0  0  0  0  0
   46.1000   32.9160   45.5240 C   0  0  0  0  0  0  0  0  0  0  0  0
   45.7730   34.2120   45.3550 N   0  0  0  0  0  0  0  0  0  0  0  0
   44.9540   35.6880   44.2740 H   0  0  0  0  0  0  0  0  0  0  0  0
   44.9060   31.6570   42.6940 H   0  0  0  0  0  0  0  0  0  0  0  0
   46.6150   32.5450   46.4100 H   0  0  0  0  0  0  0  0  0  0  0  0
   45.8670   33.8490   40.4010 C   0  0  0  0  0  0  0  0  0  0  0  0
   46.8940   34.5440   40.9970 C   0  0  0  0  0  3  0  0  0  0  0  0
   48.1140   34.5660   40.3700 C   0  0  0  0  0  0  0  0  0  0  0  0
   48.8650   35.1360   40.9080 H   0  0  0  0  0  0  0  0  0  0  0  0
   48.2930   33.9220   39.2020 N   0  0  0  0  0  0  0  0  0  0  0  0
   47.2950   33.2560   38.6380 C   0  0  0  0  0  3  0  0  0  0  0  0
   46.0720   33.2040   39.2160 N   0  0  0  0  0  0  0  0  0  0  0  0
  1 16  1  0  0  0  0
  2  7  1  1  0  0  0
  2  1  1  0  0  0  0
  3  4  1  0  0  0  0
  3  2  1  0  0  0  0
  4  5  1  0  0  0  0
  5 12  1  0  0  0  0
  5 11  1  0  0  0  0
  5  6  1  0  0  0  0
  6  1  1  0  0  0  0
  6 13  1  0  0  0  0
  8  3  1  0  0  0  0
  9  3  1  0  0  0  0
 10  4  1  0  0  0  0
 14  6  1  0  0  0  0
 15 21  1  0  0  0  0
 15 20  1  0  0  0  0
 16 17  1  0  0  0  0
 16 15  2  0  0  0  0
 17 18  2  0  0  0  0
 18 19  1  0  0  0  0
 19 23  1  0  0  0  0
 20 19  2  0  0  0  0
 22 17  1  0  0  0  0
 24  2  1  0  0  0  0
 24 25  1  0  0  0  0
 26 27  1  0  0  0  0
 26 25  2  0  0  0  0
 28 26  1  0  0  0  0
 29 28  2  0  0  0  0
 29 30  1  0  0  0  0
 30 24  2  0  0  0  0
M  END
>  <minimizedAffinity>
-4.28578758

>  <minimizedRMSD>
0.878433347

$$$$
