
 OpenBabel03252508333D

 30 32  0  0  1  0  0  0  0  0999 V2000
   44.4220   34.3010   41.8970 N   0  0  0  0  0  0  0  0  0  0  0  0
   44.6980   33.3080   40.9250 C   0  0  1  0  0  0  0  0  0  0  0  0
   44.1320   33.5380   39.5770 C   0  0  0  0  0  0  0  0  0  0  0  0
   42.9310   34.2510   39.4740 N   0  0  0  0  0  0  0  0  0  0  0  0
   42.5910   35.1390   40.5030 C   0  0  0  0  0  0  0  0  0  0  0  0
   43.7850   35.4660   41.3700 C   0  0  0  0  0  0  0  0  0  0  0  0
   44.3200   32.3280   41.3150 H   0  0  0  0  0  0  0  0  0  0  0  0
   44.9060   34.0720   38.9450 H   0  0  0  0  0  0  0  0  0  0  0  0
   44.0240   32.5500   39.0550 H   0  0  0  0  0  0  0  0  0  0  0  0
   42.8740   34.7230   38.5430 H   0  0  0  0  0  0  0  0  0  0  0  0
   41.7730   34.6760   41.1110 H   0  0  0  0  0  0  0  0  0  0  0  0
   42.1850   36.1100   40.1220 H   0  0  0  0  0  0  0  0  0  0  0  0
   43.5480   36.2650   42.0750 H   0  0  0  0  0  0  0  0  0  0  0  0
   44.5150   35.9500   40.6440 H   0  0  0  0  0  0  0  0  0  0  0  0
   44.6610   35.1620   44.1070 C   0  0  0  0  0  0  0  0  0  0  0  0
   44.7940   34.0880   43.2330 C   0  0  0  0  0  0  0  0  0  0  0  0
   45.3090   32.8870   43.7390 C   0  0  0  0  0  0  0  0  0  0  0  0
   45.6640   32.7900   45.0500 N   0  0  0  0  0  0  0  0  0  0  0  0
   45.5180   33.8650   45.8740 C   0  0  0  0  0  0  0  0  0  0  0  0
   45.0250   35.0300   45.4100 N   0  0  0  0  0  0  0  0  0  0  0  0
   44.2910   36.1560   43.9230 H   0  0  0  0  0  0  0  0  0  0  0  0
   45.4130   32.0560   43.0930 H   0  0  0  0  0  0  0  0  0  0  0  0
   45.8220   33.7210   46.9120 H   0  0  0  0  0  0  0  0  0  0  0  0
   46.1830   33.1110   40.7220 C   0  0  0  0  0  0  0  0  0  0  0  0
   46.9550   31.9700   40.7360 C   0  0  0  0  0  3  0  0  0  0  0  0
   48.3030   32.0940   40.5150 C   0  0  0  0  0  0  0  0  0  0  0  0
   48.8330   31.1480   40.5430 H   0  0  0  0  0  0  0  0  0  0  0  0
   48.8500   33.3040   40.2910 N   0  0  0  0  0  0  0  0  0  0  0  0
   48.0950   34.3940   40.2800 C   0  0  0  0  0  3  0  0  0  0  0  0
   46.7600   34.3250   40.4920 N   0  0  0  0  0  0  0  0  0  0  0  0
  1 16  1  0  0  0  0
  2  7  1  1  0  0  0
  2  1  1  0  0  0  0
  3  2  1  0  0  0  0
  4  3  1  0  0  0  0
  4  5  1  0  0  0  0
  5 11  1  0  0  0  0
  5  6  1  0  0  0  0
  6  1  1  0  0  0  0
  6 13  1  0  0  0  0
  8  3  1  0  0  0  0
  9  3  1  0  0  0  0
 10  4  1  0  0  0  0
 12  5  1  0  0  0  0
 14  6  1  0  0  0  0
 15 20  1  0  0  0  0
 16 17  1  0  0  0  0
 16 15  2  0  0  0  0
 17 18  2  0  0  0  0
 18 19  1  0  0  0  0
 19 23  1  0  0  0  0
 20 19  2  0  0  0  0
 21 15  1  0  0  0  0
 22 17  1  0  0  0  0
 24 25  1  0  0  0  0
 24  2  1  0  0  0  0
 26 27  1  0  0  0  0
 26 25  2  0  0  0  0
 28 26  1  0  0  0  0
 29 28  2  0  0  0  0
 29 30  1  0  0  0  0
 30 24  2  0  0  0  0
M  END
>  <minimizedAffinity>
-4.1891818

>  <minimizedRMSD>
0.294707596

$$$$
