
 OpenBabel03242516523D

 43 46  0  0  1  0  0  0  0  0999 V2000
   47.8420   32.9040   41.8300 C   0  0  1  0  0  0  0  0  0  0  0  0
   47.5410   32.2930   40.5350 C   0  0  0  0  0  0  0  0  0  0  0  0
   48.5700   32.8410   39.5520 C   0  0  0  0  0  0  0  0  0  0  0  0
   48.2340   34.2930   39.3380 C   0  0  0  0  0  0  0  0  0  0  0  0
   48.1510   35.0900   40.6030 C   0  0  0  0  0  0  0  0  0  0  0  0
   47.6390   34.4230   41.8090 C   0  0  1  0  0  0  0  0  0  0  0  0
   48.9560   32.8170   42.0170 H   0  0  0  0  0  0  0  0  0  0  0  0
   46.5480   32.4960   40.1450 H   0  0  0  0  0  0  0  0  0  0  0  0
   47.6570   31.1810   40.6420 H   0  0  0  0  0  0  0  0  0  0  0  0
   49.6060   32.7140   39.9070 H   0  0  0  0  0  0  0  0  0  0  0  0
   48.3630   32.3400   38.5710 H   0  0  0  0  0  0  0  0  0  0  0  0
   47.2880   34.3560   38.7300 H   0  0  0  0  0  0  0  0  0  0  0  0
   49.0320   34.7020   38.6800 H   0  0  0  0  0  0  0  0  0  0  0  0
   49.1740   35.5340   40.7740 H   0  0  0  0  0  0  0  0  0  0  0  0
   47.5210   35.9860   40.3810 H   0  0  0  0  0  0  0  0  0  0  0  0
   48.2220   34.7960   42.6950 H   0  0  0  0  0  0  0  0  0  0  0  0
   45.3920   30.9190   43.9070 C   0  0  0  0  0  0  0  0  0  0  0  0
   46.0820   31.4920   42.8360 C   0  0  0  0  0  0  0  0  0  0  0  0
   47.1790   32.3430   42.9880 C   0  0  0  0  0  0  0  0  0  0  0  0
   47.5470   32.5890   44.2460 N   0  0  0  0  0  0  0  0  0  0  0  0
   46.8850   32.0370   45.2960 C   0  0  0  0  0  0  0  0  0  0  0  0
   45.8370   31.2250   45.1440 N   0  0  0  0  0  0  0  0  0  0  0  0
   44.5630   30.2770   43.7450 H   0  0  0  0  0  0  0  0  0  0  0  0
   45.7380   31.2580   41.8170 H   0  0  0  0  0  0  0  0  0  0  0  0
   47.2460   32.2870   46.2860 H   0  0  0  0  0  0  0  0  0  0  0  0
   46.2510   34.7840   42.1060 C   0  0  0  0  0  0  0  0  0  0  0  0
   45.7840   35.3330   43.3030 C   0  0  0  0  0  0  0  0  0  0  0  0
   44.4160   35.6130   43.3580 C   0  0  0  0  0  0  0  0  0  0  0  0
   43.6520   35.3280   42.2380 C   0  0  0  0  0  0  0  0  0  0  0  0
   44.1320   34.7840   41.0570 C   0  0  0  0  0  0  0  0  0  0  0  0
   45.4710   34.5210   41.0340 N   0  0  0  0  0  0  0  0  0  0  0  0
   46.5030   35.4910   44.0730 H   0  0  0  0  0  0  0  0  0  0  0  0
   44.0430   36.0290   44.2600 H   0  0  0  0  0  0  0  0  0  0  0  0
   42.5950   35.5660   42.3320 H   0  0  0  0  0  0  0  0  0  0  0  0
   43.2330   34.5300   39.9380 C   0  0  0  0  0  0  0  0  0  0  0  0
   42.2550   35.3290   39.7910 O   0  0  0  0  0  0  0  0  0  0  0  0
   43.3140   33.4600   38.9500 C   0  0  0  0  0  0  0  0  0  0  0  0
   42.1750   32.7270   38.7040 C   0  0  0  0  0  3  0  0  0  0  0  0
   42.2140   31.6900   37.7650 C   0  0  0  0  0  0  0  0  0  0  0  0
   41.3340   31.0960   37.5520 H   0  0  0  0  0  0  0  0  0  0  0  0
   43.3810   31.4270   37.1140 N   0  0  0  0  0  0  0  0  0  0  0  0
   44.4780   32.1320   37.3510 C   0  0  0  0  0  3  0  0  0  0  0  0
   44.3980   33.1030   38.2450 N   0  0  0  0  0  0  0  0  0  0  0  0
  1  7  1  1  0  0  0
  1 19  1  0  0  0  0
  2  9  1  0  0  0  0
  2  1  1  0  0  0  0
  3 10  1  0  0  0  0
  3  2  1  0  0  0  0
  4  3  1  0  0  0  0
  4  5  1  0  0  0  0
  5 14  1  0  0  0  0
  5  6  1  0  0  0  0
  6  1  1  0  0  0  0
  6 26  1  0  0  0  0
  6 16  1  1  0  0  0
  8  2  1  0  0  0  0
 11  3  1  0  0  0  0
 12  4  1  0  0  0  0
 13  4  1  0  0  0  0
 15  5  1  0  0  0  0
 17 22  1  0  0  0  0
 18 19  1  0  0  0  0
 18 17  2  0  0  0  0
 19 20  2  0  0  0  0
 20 21  1  0  0  0  0
 21 25  1  0  0  0  0
 22 21  2  0  0  0  0
 23 17  1  0  0  0  0
 24 18  1  0  0  0  0
 26 27  1  0  0  0  0
 27 28  2  0  0  0  0
 27 32  1  0  0  0  0
 28 33  1  0  0  0  0
 29 34  1  0  0  0  0
 29 28  1  0  0  0  0
 30 29  2  0  0  0  0
 31 30  1  0  0  0  0
 31 26  2  0  0  0  0
 35 30  1  0  0  0  0
 36 35  2  0  0  0  0
 37 35  1  0  0  0  0
 38 37  1  0  0  0  0
 39 38  2  0  0  0  0
 40 39  1  0  0  0  0
 41 42  2  0  0  0  0
 41 39  1  0  0  0  0
 42 43  1  0  0  0  0
 43 37  2  0  0  0  0
M  END
>  <minimizedAffinity>
-5.46118736

>  <minimizedRMSD>
0.49789691

$$$$
