
 OpenBabel03252508323D

 30 32  0  0  1  0  0  0  0  0999 V2000
   44.3390   34.4590   41.9050 N   0  0  0  0  0  0  0  0  0  0  0  0
   44.7610   33.5240   40.9280 C   0  0  1  0  0  0  0  0  0  0  0  0
   44.2070   33.7040   39.5680 C   0  0  0  0  0  0  0  0  0  0  0  0
   42.9300   34.2650   39.4410 N   0  0  0  0  0  0  0  0  0  0  0  0
   42.4550   35.0860   40.4710 C   0  0  0  0  0  0  0  0  0  0  0  0
   43.5760   35.5450   41.3760 C   0  0  0  0  0  0  0  0  0  0  0  0
   44.4980   32.4980   41.2940 H   0  0  0  0  0  0  0  0  0  0  0  0
   44.9250   34.3400   38.9650 H   0  0  0  0  0  0  0  0  0  0  0  0
   44.2370   32.7190   39.0300 H   0  0  0  0  0  0  0  0  0  0  0  0
   42.8390   34.7420   38.5140 H   0  0  0  0  0  0  0  0  0  0  0  0
   41.6850   34.5160   41.0500 H   0  0  0  0  0  0  0  0  0  0  0  0
   41.9420   36.0060   40.0910 H   0  0  0  0  0  0  0  0  0  0  0  0
   43.2230   36.2960   42.0840 H   0  0  0  0  0  0  0  0  0  0  0  0
   44.2590   36.1260   40.6780 H   0  0  0  0  0  0  0  0  0  0  0  0
   44.4810   35.3350   44.1180 C   0  0  0  0  0  0  0  0  0  0  0  0
   44.6990   34.2710   43.2480 C   0  0  0  0  0  0  0  0  0  0  0  0
   45.2790   33.1050   43.7670 C   0  0  0  0  0  0  0  0  0  0  0  0
   45.6150   33.0320   45.0840 N   0  0  0  0  0  0  0  0  0  0  0  0
   45.3860   34.0970   45.9030 C   0  0  0  0  0  0  0  0  0  0  0  0
   44.8290   35.2270   45.4270 N   0  0  0  0  0  0  0  0  0  0  0  0
   44.0530   36.3030   43.9240 H   0  0  0  0  0  0  0  0  0  0  0  0
   45.4470   32.2820   43.1240 H   0  0  0  0  0  0  0  0  0  0  0  0
   45.6790   33.9730   46.9460 H   0  0  0  0  0  0  0  0  0  0  0  0
   46.2640   33.5150   40.7650 C   0  0  0  0  0  0  0  0  0  0  0  0
   47.1880   34.5360   40.8270 C   0  0  0  0  0  3  0  0  0  0  0  0
   48.5100   34.2280   40.6340 C   0  0  0  0  0  0  0  0  0  0  0  0
   49.1670   35.0900   40.7020 H   0  0  0  0  0  0  0  0  0  0  0  0
   48.8880   32.9600   40.3900 N   0  0  0  0  0  0  0  0  0  0  0  0
   47.9890   31.9880   40.3320 C   0  0  0  0  0  3  0  0  0  0  0  0
   46.6710   32.2370   40.5150 N   0  0  0  0  0  0  0  0  0  0  0  0
  1 16  1  0  0  0  0
  2  7  1  1  0  0  0
  2  1  1  0  0  0  0
  3  2  1  0  0  0  0
  4  3  1  0  0  0  0
  4  5  1  0  0  0  0
  5 11  1  0  0  0  0
  5  6  1  0  0  0  0
  6  1  1  0  0  0  0
  6 13  1  0  0  0  0
  8  3  1  0  0  0  0
  9  3  1  0  0  0  0
 10  4  1  0  0  0  0
 12  5  1  0  0  0  0
 14  6  1  0  0  0  0
 15 20  1  0  0  0  0
 16 17  1  0  0  0  0
 16 15  2  0  0  0  0
 17 18  2  0  0  0  0
 18 19  1  0  0  0  0
 19 23  1  0  0  0  0
 20 19  2  0  0  0  0
 21 15  1  0  0  0  0
 22 17  1  0  0  0  0
 24 25  1  0  0  0  0
 24  2  1  0  0  0  0
 26 27  1  0  0  0  0
 26 25  2  0  0  0  0
 28 26  1  0  0  0  0
 29 28  2  0  0  0  0
 29 30  1  0  0  0  0
 30 24  2  0  0  0  0
M  END
>  <minimizedAffinity>
-4.31379461

>  <minimizedRMSD>
0.538567007

$$$$
