
 OpenBabel03242512323D

 36 38  0  0  1  0  0  0  0  0999 V2000
   38.5330   28.5780   41.5120 C   0  0  1  0  0  0  0  0  0  0  0  0
   37.7900   29.4150   42.5240 C   0  0  0  0  0  0  0  0  0  0  0  0
   37.3760   28.5510   43.6790 C   0  0  0  0  0  0  0  0  0  0  0  0
   36.6100   27.3700   43.2150 C   0  0  0  0  0  0  0  0  0  0  0  0
   37.3090   26.5750   42.1590 C   0  0  0  0  0  0  0  0  0  0  0  0
   37.5990   27.4640   40.9860 C   0  0  1  0  0  0  0  0  0  0  0  0
   39.3920   28.0180   41.9370 H   0  0  0  0  0  0  0  0  0  0  0  0
   38.4970   30.1820   42.9280 H   0  0  0  0  0  0  0  0  0  0  0  0
   36.9330   29.8820   42.0150 H   0  0  0  0  0  0  0  0  0  0  0  0
   38.2450   28.3130   44.3090 H   0  0  0  0  0  0  0  0  0  0  0  0
   36.6950   29.1760   44.3190 H   0  0  0  0  0  0  0  0  0  0  0  0
   36.5220   26.6790   44.1040 H   0  0  0  0  0  0  0  0  0  0  0  0
   35.5800   27.6490   42.9810 H   0  0  0  0  0  0  0  0  0  0  0  0
   38.2660   26.2360   42.5750 H   0  0  0  0  0  0  0  0  0  0  0  0
   36.6440   25.7540   41.8320 H   0  0  0  0  0  0  0  0  0  0  0  0
   38.2640   26.9110   40.2590 H   0  0  0  0  0  0  0  0  0  0  0  0
   36.4520   27.9600   40.2540 C   0  0  0  0  0  0  0  0  0  0  0  0
   36.3130   27.5250   38.9290 C   0  0  0  0  0  3  0  0  0  0  0  0
   35.2500   27.9210   38.1080 C   0  0  0  0  0  0  0  0  0  0  0  0
   35.1700   27.5680   37.0890 H   0  0  0  0  0  0  0  0  0  0  0  0
   34.3240   28.7670   38.6450 N   0  0  0  0  0  0  0  0  0  0  0  0
   34.5160   29.1460   39.9160 C   0  0  0  0  0  3  0  0  0  0  0  0
   35.5160   28.7940   40.7410 N   0  0  0  0  0  0  0  0  0  0  0  0
   39.0130   29.4380   40.4110 C   0  0  0  0  0  0  0  0  0  0  0  0
   39.9420   28.8630   39.7840 O   0  0  0  0  0  0  0  0  0  0  0  0
   38.4830   33.0110   40.6180 C   0  0  0  0  0  0  0  0  0  0  0  0
   37.5640   33.2760   39.6150 C   0  0  0  0  0  0  0  0  0  0  0  0
   37.1130   32.2130   38.8440 C   0  0  0  0  0  0  0  0  0  0  0  0
   37.6060   30.9900   39.1290 N   0  0  0  0  0  0  0  0  0  0  0  0
   38.4920   30.7410   40.0980 C   0  0  0  0  0  0  0  0  0  0  0  0
   38.9310   31.7650   40.8460 N   0  0  0  0  0  0  0  0  0  0  0  0
   38.9820   34.0680   41.4340 N   0  0  0  0  0  0  0  0  0  0  0  0
   37.2140   34.2830   39.4480 H   0  0  0  0  0  0  0  0  0  0  0  0
   36.4020   32.3570   38.0530 H   0  0  0  0  0  0  0  0  0  0  0  0
   39.9510   34.2000   41.7970 H   0  0  0  0  0  0  0  0  0  0  0  0
   38.3250   34.8010   41.7120 H   0  0  0  0  0  0  0  0  0  0  0  0
  1  7  1  1  0  0  0
  1  2  1  0  0  0  0
  2  8  1  0  0  0  0
  2  3  1  0  0  0  0
  3 10  1  0  0  0  0
  3 11  1  0  0  0  0
  4  3  1  0  0  0  0
  4 12  1  0  0  0  0
  5 14  1  0  0  0  0
  5  4  1  0  0  0  0
  6 16  1  6  0  0  0
  6  1  1  0  0  0  0
  6  5  1  0  0  0  0
  9  2  1  0  0  0  0
 13  4  1  0  0  0  0
 15  5  1  0  0  0  0
 17 23  1  0  0  0  0
 17  6  1  0  0  0  0
 18 17  2  0  0  0  0
 19 21  2  0  0  0  0
 19 18  1  0  0  0  0
 20 19  1  0  0  0  0
 21 22  1  0  0  0  0
 22 23  2  0  0  0  0
 24  1  1  0  0  0  0
 25 24  2  0  0  0  0
 26 31  1  0  0  0  0
 26 32  1  0  0  0  0
 27 26  2  0  0  0  0
 28 29  2  0  0  0  0
 28 27  1  0  0  0  0
 29 30  1  0  0  0  0
 30 24  1  0  0  0  0
 30 31  2  0  0  0  0
 32 36  1  0  0  0  0
 32 35  1  0  0  0  0
 33 27  1  0  0  0  0
 34 28  1  0  0  0  0
M  END
>  <minimizedAffinity>
-6.02030468

$$$$

 OpenBabel03242512323D

 36 38  0  0  1  0  0  0  0  0999 V2000
   36.9510   27.2150   41.9030 C   0  0  1  0  0  0  0  0  0  0  0  0
   37.1880   27.1490   40.4130 C   0  0  0  0  0  0  0  0  0  0  0  0
   36.5960   25.8820   39.8690 C   0  0  0  0  0  0  0  0  0  0  0  0
   37.1060   24.6980   40.6000 C   0  0  0  0  0  0  0  0  0  0  0  0
   36.9400   24.7870   42.0830 C   0  0  0  0  0  0  0  0  0  0  0  0
   37.6450   26.0130   42.5830 C   0  0  1  0  0  0  0  0  0  0  0  0
   35.8860   27.0990   42.1930 H   0  0  0  0  0  0  0  0  0  0  0  0
   36.6370   27.9980   39.9350 H   0  0  0  0  0  0  0  0  0  0  0  0
   38.2730   27.2200   40.2390 H   0  0  0  0  0  0  0  0  0  0  0  0
   35.5000   25.9580   39.8310 H   0  0  0  0  0  0  0  0  0  0  0  0
   36.9360   25.8030   38.8010 H   0  0  0  0  0  0  0  0  0  0  0  0
   36.4660   23.8250   40.2760 H   0  0  0  0  0  0  0  0  0  0  0  0
   38.1120   24.4410   40.2590 H   0  0  0  0  0  0  0  0  0  0  0  0
   35.8690   24.8990   42.2930 H   0  0  0  0  0  0  0  0  0  0  0  0
   37.3990   23.8940   42.5470 H   0  0  0  0  0  0  0  0  0  0  0  0
   37.3880   26.1690   43.6720 H   0  0  0  0  0  0  0  0  0  0  0  0
   39.0880   26.0230   42.4590 C   0  0  0  0  0  0  0  0  0  0  0  0
   39.8240   26.0250   43.6510 C   0  0  0  0  0  3  0  0  0  0  0  0
   41.2240   26.0310   43.6790 C   0  0  0  0  0  0  0  0  0  0  0  0
   41.7640   26.0320   44.6160 H   0  0  0  0  0  0  0  0  0  0  0  0
   41.8740   26.0330   42.4800 N   0  0  0  0  0  0  0  0  0  0  0  0
   41.1120   26.0320   41.3780 C   0  0  0  0  0  3  0  0  0  0  0  0
   39.7710   26.0270   41.3000 N   0  0  0  0  0  0  0  0  0  0  0  0
   37.4600   28.4970   42.4310 C   0  0  0  0  0  0  0  0  0  0  0  0
   37.2940   28.5480   43.6790 O   0  0  0  0  0  0  0  0  0  0  0  0
   37.7830   31.5960   40.5930 C   0  0  0  0  0  0  0  0  0  0  0  0
   39.0830   31.5730   40.1140 C   0  0  0  0  0  0  0  0  0  0  0  0
   39.8750   30.4760   40.4270 C   0  0  0  0  0  0  0  0  0  0  0  0
   39.3170   29.5050   41.1790 N   0  0  0  0  0  0  0  0  0  0  0  0
   38.0610   29.5330   41.6380 C   0  0  0  0  0  0  0  0  0  0  0  0
   37.2920   30.5920   41.3380 N   0  0  0  0  0  0  0  0  0  0  0  0
   36.9300   32.7020   40.3050 N   0  0  0  0  0  0  0  0  0  0  0  0
   39.4580   32.3890   39.5160 H   0  0  0  0  0  0  0  0  0  0  0  0
   40.8890   30.4020   40.0850 H   0  0  0  0  0  0  0  0  0  0  0  0
   36.2300   33.1580   40.9320 H   0  0  0  0  0  0  0  0  0  0  0  0
   36.9940   33.1190   39.3730 H   0  0  0  0  0  0  0  0  0  0  0  0
  1  7  1  1  0  0  0
  1 24  1  0  0  0  0
  1  6  1  0  0  0  0
  2  1  1  0  0  0  0
  3  2  1  0  0  0  0
  3  4  1  0  0  0  0
  4  5  1  0  0  0  0
  5 14  1  0  0  0  0
  5 15  1  0  0  0  0
  5  6  1  0  0  0  0
  6 16  1  1  0  0  0
  8  2  1  0  0  0  0
  9  2  1  0  0  0  0
 10  3  1  0  0  0  0
 11  3  1  0  0  0  0
 12  4  1  0  0  0  0
 13  4  1  0  0  0  0
 17  6  1  0  0  0  0
 17 18  1  0  0  0  0
 18 19  2  0  0  0  0
 19 20  1  0  0  0  0
 21 19  1  0  0  0  0
 22 21  2  0  0  0  0
 23 22  1  0  0  0  0
 23 17  2  0  0  0  0
 24 25  2  0  0  0  0
 26 31  1  0  0  0  0
 27 28  1  0  0  0  0
 27 26  2  0  0  0  0
 28 29  2  0  0  0  0
 29 30  1  0  0  0  0
 30 24  1  0  0  0  0
 31 30  2  0  0  0  0
 32 26  1  0  0  0  0
 32 35  1  0  0  0  0
 33 27  1  0  0  0  0
 34 28  1  0  0  0  0
 36 32  1  0  0  0  0
M  END
>  <minimizedAffinity>
-5.59675789

$$$$

 OpenBabel03242512323D

 36 38  0  0  1  0  0  0  0  0999 V2000
   36.7890   28.9530   41.4800 C   0  0  1  0  0  0  0  0  0  0  0  0
   37.3890   27.7940   40.7220 C   0  0  0  0  0  0  0  0  0  0  0  0
   37.0990   26.5160   41.4520 C   0  0  0  0  0  0  0  0  0  0  0  0
   37.5470   26.5920   42.8620 C   0  0  0  0  0  0  0  0  0  0  0  0
   37.0130   27.7770   43.6010 C   0  0  0  0  0  0  0  0  0  0  0  0
   37.4280   29.0290   42.8850 C   0  0  1  0  0  0  0  0  0  0  0  0
   35.7060   28.8360   41.6930 H   0  0  0  0  0  0  0  0  0  0  0  0
   36.8790   27.7260   39.7290 H   0  0  0  0  0  0  0  0  0  0  0  0
   38.4680   27.9840   40.6110 H   0  0  0  0  0  0  0  0  0  0  0  0
   36.0440   26.2330   41.3220 H   0  0  0  0  0  0  0  0  0  0  0  0
   37.6970   25.7130   40.9410 H   0  0  0  0  0  0  0  0  0  0  0  0
   37.1100   25.6900   43.3830 H   0  0  0  0  0  0  0  0  0  0  0  0
   38.6280   26.4510   42.9290 H   0  0  0  0  0  0  0  0  0  0  0  0
   35.9170   27.7190   43.5790 H   0  0  0  0  0  0  0  0  0  0  0  0
   37.4440   27.7870   44.6190 H   0  0  0  0  0  0  0  0  0  0  0  0
   36.8950   29.9130   43.3470 H   0  0  0  0  0  0  0  0  0  0  0  0
   38.8460   29.3230   42.8680 C   0  0  0  0  0  0  0  0  0  0  0  0
   39.7180   28.2290   42.9450 C   0  0  0  0  0  3  0  0  0  0  0  0
   41.1110   28.3670   42.9350 C   0  0  0  0  0  0  0  0  0  0  0  0
   41.7590   27.5030   42.9960 H   0  0  0  0  0  0  0  0  0  0  0  0
   41.6150   29.6310   42.8430 N   0  0  0  0  0  0  0  0  0  0  0  0
   40.7280   30.6320   42.7730 C   0  0  0  0  0  3  0  0  0  0  0  0
   39.3870   30.5510   42.7800 N   0  0  0  0  0  0  0  0  0  0  0  0
   37.0020   30.2050   40.7260 C   0  0  0  0  0  0  0  0  0  0  0  0
   36.2540   31.1140   41.1750 O   0  0  0  0  0  0  0  0  0  0  0  0
   38.3410   31.3050   37.5500 C   0  0  0  0  0  0  0  0  0  0  0  0
   39.6020   30.7320   37.4970 C   0  0  0  0  0  0  0  0  0  0  0  0
   40.0110   29.9520   38.5720 C   0  0  0  0  0  0  0  0  0  0  0  0
   39.1460   29.8090   39.5960 N   0  0  0  0  0  0  0  0  0  0  0  0
   37.9300   30.3640   39.6410 C   0  0  0  0  0  0  0  0  0  0  0  0
   37.5300   31.1180   38.6050 N   0  0  0  0  0  0  0  0  0  0  0  0
   37.8760   32.1190   36.4760 N   0  0  0  0  0  0  0  0  0  0  0  0
   40.2380   30.8930   36.6410 H   0  0  0  0  0  0  0  0  0  0  0  0
   40.9760   29.4840   38.5870 H   0  0  0  0  0  0  0  0  0  0  0  0
   37.3070   32.9930   36.5290 H   0  0  0  0  0  0  0  0  0  0  0  0
   38.1160   31.8300   35.5250 H   0  0  0  0  0  0  0  0  0  0  0  0
  1  7  1  1  0  0  0
  1  6  1  0  0  0  0
  2  3  1  0  0  0  0
  2  1  1  0  0  0  0
  3  4  1  0  0  0  0
  4 13  1  0  0  0  0
  4 12  1  0  0  0  0
  4  5  1  0  0  0  0
  5 15  1  0  0  0  0
  6 16  1  1  0  0  0
  6  5  1  0  0  0  0
  8  2  1  0  0  0  0
  9  2  1  0  0  0  0
 10  3  1  0  0  0  0
 11  3  1  0  0  0  0
 14  5  1  0  0  0  0
 17  6  1  0  0  0  0
 17 18  1  0  0  0  0
 19 18  2  0  0  0  0
 19 20  1  0  0  0  0
 21 19  1  0  0  0  0
 22 23  1  0  0  0  0
 22 21  2  0  0  0  0
 23 17  2  0  0  0  0
 24 25  2  0  0  0  0
 24  1  1  0  0  0  0
 26 31  1  0  0  0  0
 27 26  2  0  0  0  0
 27 28  1  0  0  0  0
 28 34  1  0  0  0  0
 28 29  2  0  0  0  0
 29 30  1  0  0  0  0
 30 24  1  0  0  0  0
 31 30  2  0  0  0  0
 32 35  1  0  0  0  0
 32 26  1  0  0  0  0
 33 27  1  0  0  0  0
 36 32  1  0  0  0  0
M  END
>  <minimizedAffinity>
-5.48143911

$$$$

 OpenBabel03242512323D

 36 38  0  0  1  0  0  0  0  0999 V2000
   36.7740   28.2950   40.6140 C   0  0  1  0  0  0  0  0  0  0  0  0
   35.4590   29.0370   40.6360 C   0  0  0  0  0  0  0  0  0  0  0  0
   34.8630   29.0380   39.2590 C   0  0  0  0  0  0  0  0  0  0  0  0
   35.8220   29.5700   38.2630 C   0  0  0  0  0  0  0  0  0  0  0  0
   37.1530   28.8880   38.2830 C   0  0  0  0  0  0  0  0  0  0  0  0
   37.7480   29.0140   39.6540 C   0  0  1  0  0  0  0  0  0  0  0  0
   36.7030   27.2710   40.1940 H   0  0  0  0  0  0  0  0  0  0  0  0
   34.7530   28.4730   41.2960 H   0  0  0  0  0  0  0  0  0  0  0  0
   35.6480   30.0520   41.0180 H   0  0  0  0  0  0  0  0  0  0  0  0
   34.4570   28.0450   39.0170 H   0  0  0  0  0  0  0  0  0  0  0  0
   33.9790   29.7320   39.2930 H   0  0  0  0  0  0  0  0  0  0  0  0
   35.3830   29.3440   37.2470 H   0  0  0  0  0  0  0  0  0  0  0  0
   35.8580   30.6610   38.3100 H   0  0  0  0  0  0  0  0  0  0  0  0
   36.9860   27.8220   38.0810 H   0  0  0  0  0  0  0  0  0  0  0  0
   37.8200   29.3860   37.5550 H   0  0  0  0  0  0  0  0  0  0  0  0
   38.6730   28.3670   39.7170 H   0  0  0  0  0  0  0  0  0  0  0  0
   38.1100   30.3510   40.0800 C   0  0  0  0  0  0  0  0  0  0  0  0
   39.4100   30.5280   40.5700 C   0  0  0  0  0  3  0  0  0  0  0  0
   39.8930   31.7660   41.0110 C   0  0  0  0  0  0  0  0  0  0  0  0
   40.9030   31.8700   41.3840 H   0  0  0  0  0  0  0  0  0  0  0  0
   39.0410   32.8290   40.9490 N   0  0  0  0  0  0  0  0  0  0  0  0
   37.8120   32.5920   40.4720 C   0  0  0  0  0  3  0  0  0  0  0  0
   37.3040   31.4270   40.0380 N   0  0  0  0  0  0  0  0  0  0  0  0
   37.3260   28.2210   41.9820 C   0  0  0  0  0  0  0  0  0  0  0  0
   36.8860   29.1720   42.6800 O   0  0  0  0  0  0  0  0  0  0  0  0
   38.7720   24.9420   42.4820 C   0  0  0  0  0  0  0  0  0  0  0  0
   39.8760   25.1770   43.2870 C   0  0  0  0  0  0  0  0  0  0  0  0
   40.1390   26.4860   43.6690 C   0  0  0  0  0  0  0  0  0  0  0  0
   39.2960   27.4410   43.2250 N   0  0  0  0  0  0  0  0  0  0  0  0
   38.2320   27.2080   42.4490 C   0  0  0  0  0  0  0  0  0  0  0  0
   37.9730   25.9440   42.0780 N   0  0  0  0  0  0  0  0  0  0  0  0
   38.4600   23.6170   42.0580 N   0  0  0  0  0  0  0  0  0  0  0  0
   40.5030   24.3590   43.6030 H   0  0  0  0  0  0  0  0  0  0  0  0
   40.9790   26.7290   44.2900 H   0  0  0  0  0  0  0  0  0  0  0  0
   38.0970   23.3060   41.1300 H   0  0  0  0  0  0  0  0  0  0  0  0
   38.6020   22.8590   42.7300 H   0  0  0  0  0  0  0  0  0  0  0  0
  1  7  1  6  0  0  0
  1  2  1  0  0  0  0
  1 24  1  0  0  0  0
  2  9  1  0  0  0  0
  2  8  1  0  0  0  0
  3 11  1  0  0  0  0
  3  2  1  0  0  0  0
  4  5  1  0  0  0  0
  4 13  1  0  0  0  0
  4  3  1  0  0  0  0
  5  6  1  0  0  0  0
  6 16  1  6  0  0  0
  6 17  1  0  0  0  0
  6  1  1  0  0  0  0
 10  3  1  0  0  0  0
 12  4  1  0  0  0  0
 14  5  1  0  0  0  0
 15  5  1  0  0  0  0
 17 18  1  0  0  0  0
 18 19  2  0  0  0  0
 19 20  1  0  0  0  0
 21 19  1  0  0  0  0
 22 21  2  0  0  0  0
 23 17  2  0  0  0  0
 23 22  1  0  0  0  0
 24 30  1  0  0  0  0
 24 25  2  0  0  0  0
 26 27  1  0  0  0  0
 27 33  1  0  0  0  0
 27 28  2  0  0  0  0
 28 34  1  0  0  0  0
 29 28  1  0  0  0  0
 30 29  2  0  0  0  0
 31 30  1  0  0  0  0
 31 26  2  0  0  0  0
 32 26  1  0  0  0  0
 32 36  1  0  0  0  0
 35 32  1  0  0  0  0
M  END
>  <minimizedAffinity>
-5.45227051

$$$$

 OpenBabel03242512323D

 36 38  0  0  1  0  0  0  0  0999 V2000
   36.5120   28.6050   41.7550 C   0  0  1  0  0  0  0  0  0  0  0  0
   36.9820   27.3910   40.9920 C   0  0  0  0  0  0  0  0  0  0  0  0
   37.3350   26.2990   41.9580 C   0  0  0  0  0  0  0  0  0  0  0  0
   38.3100   26.7740   42.9680 C   0  0  0  0  0  0  0  0  0  0  0  0
   37.8850   28.0180   43.6790 C   0  0  0  0  0  0  0  0  0  0  0  0
   37.6520   29.1050   42.6710 C   0  0  1  0  0  0  0  0  0  0  0  0
   35.6830   28.3960   42.4630 H   0  0  0  0  0  0  0  0  0  0  0  0
   36.1280   27.0160   40.3740 H   0  0  0  0  0  0  0  0  0  0  0  0
   37.8340   27.6940   40.3640 H   0  0  0  0  0  0  0  0  0  0  0  0
   36.4230   25.8520   42.3790 H   0  0  0  0  0  0  0  0  0  0  0  0
   37.8260   25.4860   41.3570 H   0  0  0  0  0  0  0  0  0  0  0  0
   38.3600   25.9730   43.7630 H   0  0  0  0  0  0  0  0  0  0  0  0
   39.3170   26.8020   42.5440 H   0  0  0  0  0  0  0  0  0  0  0  0
   36.9310   27.8070   44.1790 H   0  0  0  0  0  0  0  0  0  0  0  0
   38.6940   28.3310   44.3650 H   0  0  0  0  0  0  0  0  0  0  0  0
   37.1790   29.9920   43.1870 H   0  0  0  0  0  0  0  0  0  0  0  0
   38.8170   29.5760   41.9510 C   0  0  0  0  0  0  0  0  0  0  0  0
   39.5250   30.6410   42.5230 C   0  0  0  0  0  3  0  0  0  0  0  0
   40.6710   31.1930   41.9370 C   0  0  0  0  0  0  0  0  0  0  0  0
   41.1960   32.0150   42.4040 H   0  0  0  0  0  0  0  0  0  0  0  0
   41.0950   30.6510   40.7600 N   0  0  0  0  0  0  0  0  0  0  0  0
   40.3740   29.6360   40.2660 C   0  0  0  0  0  3  0  0  0  0  0  0
   39.2710   29.0740   40.7890 N   0  0  0  0  0  0  0  0  0  0  0  0
   36.0870   29.6560   40.8080 C   0  0  0  0  0  0  0  0  0  0  0  0
   36.0860   30.7790   41.3780 O   0  0  0  0  0  0  0  0  0  0  0  0
   36.3530   29.6330   37.2000 C   0  0  0  0  0  0  0  0  0  0  0  0
   35.1610   29.0660   36.7750 C   0  0  0  0  0  0  0  0  0  0  0  0
   34.2420   28.6770   37.7410 C   0  0  0  0  0  0  0  0  0  0  0  0
   34.5780   28.8810   39.0320 N   0  0  0  0  0  0  0  0  0  0  0  0
   35.7290   29.4290   39.4350 C   0  0  0  0  0  0  0  0  0  0  0  0
   36.6210   29.8060   38.5050 N   0  0  0  0  0  0  0  0  0  0  0  0
   37.3320   30.0430   36.2490 N   0  0  0  0  0  0  0  0  0  0  0  0
   34.9640   28.9370   35.7230 H   0  0  0  0  0  0  0  0  0  0  0  0
   33.3030   28.2330   37.4730 H   0  0  0  0  0  0  0  0  0  0  0  0
   38.3710   29.9620   36.3170 H   0  0  0  0  0  0  0  0  0  0  0  0
   37.0000   30.4740   35.3830 H   0  0  0  0  0  0  0  0  0  0  0  0
  1  7  1  1  0  0  0
  1  6  1  0  0  0  0
  2  1  1  0  0  0  0
  2  3  1  0  0  0  0
  3 10  1  0  0  0  0
  3  4  1  0  0  0  0
  4  5  1  0  0  0  0
  4 12  1  0  0  0  0
  5 14  1  0  0  0  0
  5 15  1  0  0  0  0
  6 16  1  1  0  0  0
  6  5  1  0  0  0  0
  8  2  1  0  0  0  0
  9  2  1  0  0  0  0
 11  3  1  0  0  0  0
 13  4  1  0  0  0  0
 17 18  1  0  0  0  0
 17  6  1  0  0  0  0
 19 20  1  0  0  0  0
 19 18  2  0  0  0  0
 21 19  1  0  0  0  0
 22 21  2  0  0  0  0
 22 23  1  0  0  0  0
 23 17  2  0  0  0  0
 24 25  2  0  0  0  0
 24  1  1  0  0  0  0
 26 31  1  0  0  0  0
 27 26  2  0  0  0  0
 27 28  1  0  0  0  0
 28 29  2  0  0  0  0
 29 30  1  0  0  0  0
 30 24  1  0  0  0  0
 31 30  2  0  0  0  0
 32 35  1  0  0  0  0
 32 26  1  0  0  0  0
 33 27  1  0  0  0  0
 34 28  1  0  0  0  0
 36 32  1  0  0  0  0
M  END
>  <minimizedAffinity>
-5.42348862

$$$$

 OpenBabel03242512323D

 36 38  0  0  1  0  0  0  0  0999 V2000
   36.5650   30.7760   39.3610 C   0  0  1  0  0  0  0  0  0  0  0  0
   37.0070   29.9080   38.2080 C   0  0  0  0  0  0  0  0  0  0  0  0
   35.8270   29.1560   37.6660 C   0  0  0  0  0  0  0  0  0  0  0  0
   35.1360   28.4030   38.7390 C   0  0  0  0  0  0  0  0  0  0  0  0
   34.7580   29.2420   39.9170 C   0  0  0  0  0  0  0  0  0  0  0  0
   35.9920   29.8810   40.4820 C   0  0  1  0  0  0  0  0  0  0  0  0
   35.7220   31.4540   39.1130 H   0  0  0  0  0  0  0  0  0  0  0  0
   37.3720   30.5770   37.3880 H   0  0  0  0  0  0  0  0  0  0  0  0
   37.8050   29.2420   38.5720 H   0  0  0  0  0  0  0  0  0  0  0  0
   35.1770   29.8300   37.0900 H   0  0  0  0  0  0  0  0  0  0  0  0
   36.2330   28.4130   36.9270 H   0  0  0  0  0  0  0  0  0  0  0  0
   34.1600   28.0450   38.2980 H   0  0  0  0  0  0  0  0  0  0  0  0
   35.6820   27.4870   38.9770 H   0  0  0  0  0  0  0  0  0  0  0  0
   34.0940   30.0400   39.5600 H   0  0  0  0  0  0  0  0  0  0  0  0
   34.3050   28.5910   40.6890 H   0  0  0  0  0  0  0  0  0  0  0  0
   35.6910   30.6360   41.2670 H   0  0  0  0  0  0  0  0  0  0  0  0
   36.9670   28.9880   41.0740 C   0  0  0  0  0  0  0  0  0  0  0  0
   37.3390   29.2480   42.3990 C   0  0  0  0  0  3  0  0  0  0  0  0
   38.2670   28.4630   43.0950 C   0  0  0  0  0  0  0  0  0  0  0  0
   38.5340   28.6900   44.1180 H   0  0  0  0  0  0  0  0  0  0  0  0
   38.8170   27.4060   42.4310 N   0  0  0  0  0  0  0  0  0  0  0  0
   38.4190   27.2130   41.1660 C   0  0  0  0  0  3  0  0  0  0  0  0
   37.5350   27.9350   40.4580 N   0  0  0  0  0  0  0  0  0  0  0  0
   37.7060   31.5790   39.8460 C   0  0  0  0  0  0  0  0  0  0  0  0
   37.3110   32.4290   40.6880 O   0  0  0  0  0  0  0  0  0  0  0  0
   40.7850   32.1650   38.0390 C   0  0  0  0  0  0  0  0  0  0  0  0
   41.6480   31.1900   38.5140 C   0  0  0  0  0  0  0  0  0  0  0  0
   41.1720   30.3100   39.4780 C   0  0  0  0  0  0  0  0  0  0  0  0
   39.8960   30.4690   39.8840 N   0  0  0  0  0  0  0  0  0  0  0  0
   39.0680   31.4120   39.4220 C   0  0  0  0  0  0  0  0  0  0  0  0
   39.5230   32.2650   38.4900 N   0  0  0  0  0  0  0  0  0  0  0  0
   41.2250   33.0970   37.0540 N   0  0  0  0  0  0  0  0  0  0  0  0
   42.6570   31.1260   38.1370 H   0  0  0  0  0  0  0  0  0  0  0  0
   41.7940   29.5350   39.8830 H   0  0  0  0  0  0  0  0  0  0  0  0
   40.9990   34.1140   36.9810 H   0  0  0  0  0  0  0  0  0  0  0  0
   41.8400   32.7490   36.3140 H   0  0  0  0  0  0  0  0  0  0  0  0
  1  7  1  6  0  0  0
  1 24  1  0  0  0  0
  1  6  1  0  0  0  0
  2  9  1  0  0  0  0
  2  1  1  0  0  0  0
  3  2  1  0  0  0  0
  3  4  1  0  0  0  0
  4 13  1  0  0  0  0
  4  5  1  0  0  0  0
  5  6  1  0  0  0  0
  5 15  1  0  0  0  0
  6 17  1  0  0  0  0
  6 16  1  1  0  0  0
  8  2  1  0  0  0  0
 10  3  1  0  0  0  0
 11  3  1  0  0  0  0
 12  4  1  0  0  0  0
 14  5  1  0  0  0  0
 17 18  1  0  0  0  0
 18 19  2  0  0  0  0
 19 20  1  0  0  0  0
 21 19  1  0  0  0  0
 22 21  2  0  0  0  0
 23 17  2  0  0  0  0
 23 22  1  0  0  0  0
 24 25  2  0  0  0  0
 26 31  2  0  0  0  0
 26 27  1  0  0  0  0
 27 28  2  0  0  0  0
 28 34  1  0  0  0  0
 28 29  1  0  0  0  0
 30 24  1  0  0  0  0
 30 29  2  0  0  0  0
 31 30  1  0  0  0  0
 32 26  1  0  0  0  0
 33 27  1  0  0  0  0
 35 32  1  0  0  0  0
 36 32  1  0  0  0  0
M  END
>  <minimizedAffinity>
-5.27886295

$$$$

 OpenBabel03242512323D

 36 38  0  0  1  0  0  0  0  0999 V2000
   36.2010   29.6890   37.8030 C   0  0  1  0  0  0  0  0  0  0  0  0
   36.3340   28.5010   36.8810 C   0  0  0  0  0  0  0  0  0  0  0  0
   34.9740   28.0800   36.4070 C   0  0  0  0  0  0  0  0  0  0  0  0
   34.0620   27.8390   37.5500 C   0  0  0  0  0  0  0  0  0  0  0  0
   33.9790   28.9830   38.5080 C   0  0  0  0  0  0  0  0  0  0  0  0
   35.3520   29.2870   39.0310 C   0  0  1  0  0  0  0  0  0  0  0  0
   35.6360   30.5360   37.3630 H   0  0  0  0  0  0  0  0  0  0  0  0
   36.9080   28.8260   35.9770 H   0  0  0  0  0  0  0  0  0  0  0  0
   36.8580   27.7030   37.4290 H   0  0  0  0  0  0  0  0  0  0  0  0
   34.5920   28.7920   35.6610 H   0  0  0  0  0  0  0  0  0  0  0  0
   35.1110   27.1080   35.8620 H   0  0  0  0  0  0  0  0  0  0  0  0
   33.0260   27.7350   37.1130 H   0  0  0  0  0  0  0  0  0  0  0  0
   34.2670   26.8670   38.0040 H   0  0  0  0  0  0  0  0  0  0  0  0
   33.6240   29.8600   37.9510 H   0  0  0  0  0  0  0  0  0  0  0  0
   33.3280   28.6940   39.3540 H   0  0  0  0  0  0  0  0  0  0  0  0
   35.3170   30.2470   39.6270 H   0  0  0  0  0  0  0  0  0  0  0  0
   35.9660   28.2700   39.8600 C   0  0  0  0  0  0  0  0  0  0  0  0
   36.1430   28.5810   41.2140 C   0  0  0  0  0  3  0  0  0  0  0  0
   36.7190   27.6910   42.1280 C   0  0  0  0  0  0  0  0  0  0  0  0
   36.8430   27.9600   43.1680 H   0  0  0  0  0  0  0  0  0  0  0  0
   37.1140   26.4740   41.6540 N   0  0  0  0  0  0  0  0  0  0  0  0
   36.9170   26.2400   40.3500 C   0  0  0  0  0  3  0  0  0  0  0  0
   36.3710   27.0590   39.4360 N   0  0  0  0  0  0  0  0  0  0  0  0
   37.5410   30.1570   38.2090 C   0  0  0  0  0  0  0  0  0  0  0  0
   38.4270   29.3900   37.7470 O   0  0  0  0  0  0  0  0  0  0  0  0
   38.9670   32.2300   40.8100 C   0  0  0  0  0  0  0  0  0  0  0  0
   38.3630   33.4640   40.6290 C   0  0  0  0  0  0  0  0  0  0  0  0
   37.4470   33.5980   39.5930 C   0  0  0  0  0  0  0  0  0  0  0  0
   37.2110   32.5100   38.8320 N   0  0  0  0  0  0  0  0  0  0  0  0
   37.7970   31.3210   39.0120 C   0  0  0  0  0  0  0  0  0  0  0  0
   38.6820   31.1860   40.0120 N   0  0  0  0  0  0  0  0  0  0  0  0
   39.9180   32.0400   41.8550 N   0  0  0  0  0  0  0  0  0  0  0  0
   38.6030   34.2890   41.2820 H   0  0  0  0  0  0  0  0  0  0  0  0
   36.9480   34.5290   39.4050 H   0  0  0  0  0  0  0  0  0  0  0  0
   40.7980   31.4790   41.8320 H   0  0  0  0  0  0  0  0  0  0  0  0
   39.7370   32.5030   42.7490 H   0  0  0  0  0  0  0  0  0  0  0  0
  1  7  1  6  0  0  0
  1 24  1  0  0  0  0
  1  6  1  0  0  0  0
  2  9  1  0  0  0  0
  2  1  1  0  0  0  0
  3  2  1  0  0  0  0
  3  4  1  0  0  0  0
  4 13  1  0  0  0  0
  4  5  1  0  0  0  0
  5  6  1  0  0  0  0
  5 15  1  0  0  0  0
  6 16  1  1  0  0  0
  6 17  1  0  0  0  0
  8  2  1  0  0  0  0
 10  3  1  0  0  0  0
 11  3  1  0  0  0  0
 12  4  1  0  0  0  0
 14  5  1  0  0  0  0
 17 18  1  0  0  0  0
 18 19  2  0  0  0  0
 19 20  1  0  0  0  0
 21 19  1  0  0  0  0
 22 21  2  0  0  0  0
 23 17  2  0  0  0  0
 23 22  1  0  0  0  0
 24 30  1  0  0  0  0
 25 24  2  0  0  0  0
 26 32  1  0  0  0  0
 27 26  1  0  0  0  0
 27 33  1  0  0  0  0
 28 27  2  0  0  0  0
 29 30  2  0  0  0  0
 29 28  1  0  0  0  0
 30 31  1  0  0  0  0
 31 26  2  0  0  0  0
 32 36  1  0  0  0  0
 34 28  1  0  0  0  0
 35 32  1  0  0  0  0
M  END
>  <minimizedAffinity>
-5.21472216

$$$$

 OpenBabel03242512323D

 36 38  0  0  1  0  0  0  0  0999 V2000
   38.3350   29.5920   42.0080 C   0  0  1  0  0  0  0  0  0  0  0  0
   37.0810   29.0870   42.6800 C   0  0  0  0  0  0  0  0  0  0  0  0
   37.4400   28.0240   43.6760 C   0  0  0  0  0  0  0  0  0  0  0  0
   38.2430   26.9510   43.0450 C   0  0  0  0  0  0  0  0  0  0  0  0
   39.4490   27.4490   42.3150 C   0  0  0  0  0  0  0  0  0  0  0  0
   39.0180   28.4250   41.2610 C   0  0  1  0  0  0  0  0  0  0  0  0
   39.1150   29.9380   42.7180 H   0  0  0  0  0  0  0  0  0  0  0  0
   36.6290   29.9340   43.2550 H   0  0  0  0  0  0  0  0  0  0  0  0
   36.4000   28.7210   41.8960 H   0  0  0  0  0  0  0  0  0  0  0  0
   37.9010   28.4760   44.5660 H   0  0  0  0  0  0  0  0  0  0  0  0
   36.4720   27.5730   44.0260 H   0  0  0  0  0  0  0  0  0  0  0  0
   38.6420   26.3140   43.8880 H   0  0  0  0  0  0  0  0  0  0  0  0
   37.6000   26.2770   42.4730 H   0  0  0  0  0  0  0  0  0  0  0  0
   40.0790   27.9840   43.0380 H   0  0  0  0  0  0  0  0  0  0  0  0
   39.9520   26.5920   41.8280 H   0  0  0  0  0  0  0  0  0  0  0  0
   39.9330   28.9200   40.8190 H   0  0  0  0  0  0  0  0  0  0  0  0
   38.2310   27.8880   40.1690 C   0  0  0  0  0  0  0  0  0  0  0  0
   38.8090   27.9290   38.8940 C   0  0  0  0  0  3  0  0  0  0  0  0
   38.1620   27.4420   37.7520 C   0  0  0  0  0  0  0  0  0  0  0  0
   38.6340   27.4880   36.7800 H   0  0  0  0  0  0  0  0  0  0  0  0
   36.9180   26.9080   37.9160 N   0  0  0  0  0  0  0  0  0  0  0  0
   36.4220   26.8990   39.1600 C   0  0  0  0  0  3  0  0  0  0  0  0
   37.0020   27.3530   40.2840 N   0  0  0  0  0  0  0  0  0  0  0  0
   37.9960   30.6940   41.0850 C   0  0  0  0  0  0  0  0  0  0  0  0
   36.7460   30.8150   40.9940 O   0  0  0  0  0  0  0  0  0  0  0  0
   39.7550   32.2600   38.3370 C   0  0  0  0  0  0  0  0  0  0  0  0
   40.7380   33.0180   38.9530 C   0  0  0  0  0  0  0  0  0  0  0  0
   40.8060   33.0000   40.3400 C   0  0  0  0  0  0  0  0  0  0  0  0
   39.9020   32.2410   40.9920 N   0  0  0  0  0  0  0  0  0  0  0  0
   38.9550   31.5110   40.3930 C   0  0  0  0  0  0  0  0  0  0  0  0
   38.8860   31.5250   39.0530 N   0  0  0  0  0  0  0  0  0  0  0  0
   39.6390   32.2480   36.9170 N   0  0  0  0  0  0  0  0  0  0  0  0
   41.4280   33.6000   38.3610 H   0  0  0  0  0  0  0  0  0  0  0  0
   41.5450   33.5670   40.8720 H   0  0  0  0  0  0  0  0  0  0  0  0
   38.7690   32.2350   36.3400 H   0  0  0  0  0  0  0  0  0  0  0  0
   40.5050   32.2520   36.3710 H   0  0  0  0  0  0  0  0  0  0  0  0
  1  2  1  0  0  0  0
  1  7  1  1  0  0  0
  2  8  1  0  0  0  0
  2  3  1  0  0  0  0
  3 11  1  0  0  0  0
  3 10  1  0  0  0  0
  4  3  1  0  0  0  0
  4 12  1  0  0  0  0
  5 14  1  0  0  0  0
  5  4  1  0  0  0  0
  6 16  1  6  0  0  0
  6  1  1  0  0  0  0
  6  5  1  0  0  0  0
  9  2  1  0  0  0  0
 13  4  1  0  0  0  0
 15  5  1  0  0  0  0
 17 23  1  0  0  0  0
 17  6  1  0  0  0  0
 18 17  2  0  0  0  0
 19 21  2  0  0  0  0
 19 18  1  0  0  0  0
 20 19  1  0  0  0  0
 21 22  1  0  0  0  0
 22 23  2  0  0  0  0
 24  1  1  0  0  0  0
 25 24  2  0  0  0  0
 26 27  2  0  0  0  0
 26 31  1  0  0  0  0
 27 28  1  0  0  0  0
 28 34  1  0  0  0  0
 28 29  2  0  0  0  0
 30 29  1  0  0  0  0
 30 24  1  0  0  0  0
 31 30  2  0  0  0  0
 32 26  1  0  0  0  0
 33 27  1  0  0  0  0
 35 32  1  0  0  0  0
 36 32  1  0  0  0  0
M  END
>  <minimizedAffinity>
-5.13868761

$$$$

 OpenBabel03242512323D

 36 38  0  0  1  0  0  0  0  0999 V2000
   37.4530   27.4180   40.2560 C   0  0  1  0  0  0  0  0  0  0  0  0
   37.7490   25.9670   39.9650 C   0  0  0  0  0  0  0  0  0  0  0  0
   36.9280   25.0970   40.8700 C   0  0  0  0  0  0  0  0  0  0  0  0
   37.1300   25.4650   42.2910 C   0  0  0  0  0  0  0  0  0  0  0  0
   36.9080   26.9160   42.5760 C   0  0  0  0  0  0  0  0  0  0  0  0
   37.8330   27.7310   41.7210 C   0  0  1  0  0  0  0  0  0  0  0  0
   36.3750   27.6730   40.2070 H   0  0  0  0  0  0  0  0  0  0  0  0
   37.4220   25.7480   38.9170 H   0  0  0  0  0  0  0  0  0  0  0  0
   38.8320   25.8090   40.0920 H   0  0  0  0  0  0  0  0  0  0  0  0
   35.8770   25.0910   40.5450 H   0  0  0  0  0  0  0  0  0  0  0  0
   37.2990   24.0460   40.7280 H   0  0  0  0  0  0  0  0  0  0  0  0
   36.3340   24.9170   42.8770 H   0  0  0  0  0  0  0  0  0  0  0  0
   38.0730   25.0570   42.6620 H   0  0  0  0  0  0  0  0  0  0  0  0
   35.8770   27.1590   42.2900 H   0  0  0  0  0  0  0  0  0  0  0  0
   37.1380   27.1100   43.6400 H   0  0  0  0  0  0  0  0  0  0  0  0
   37.5580   28.8230   41.8160 H   0  0  0  0  0  0  0  0  0  0  0  0
   39.2490   27.6020   41.9990 C   0  0  0  0  0  0  0  0  0  0  0  0
   39.9030   28.7410   42.4860 C   0  0  0  0  0  3  0  0  0  0  0  0
   41.2680   28.7560   42.8000 C   0  0  0  0  0  0  0  0  0  0  0  0
   41.7440   29.6520   43.1750 H   0  0  0  0  0  0  0  0  0  0  0  0
   41.9660   27.5990   42.6160 N   0  0  0  0  0  0  0  0  0  0  0  0
   41.2820   26.5470   42.1470 C   0  0  0  0  0  3  0  0  0  0  0  0
   39.9780   26.4830   41.8320 N   0  0  0  0  0  0  0  0  0  0  0  0
   38.1990   28.2770   39.3140 C   0  0  0  0  0  0  0  0  0  0  0  0
   39.0740   27.6020   38.7110 O   0  0  0  0  0  0  0  0  0  0  0  0
   38.4720   31.5890   37.8830 C   0  0  0  0  0  0  0  0  0  0  0  0
   37.5990   32.3580   38.6370 C   0  0  0  0  0  0  0  0  0  0  0  0
   36.8950   31.7340   39.6590 C   0  0  0  0  0  0  0  0  0  0  0  0
   37.1130   30.4160   39.8440 N   0  0  0  0  0  0  0  0  0  0  0  0
   37.9570   29.6800   39.1130 C   0  0  0  0  0  0  0  0  0  0  0  0
   38.6400   30.2780   38.1250 N   0  0  0  0  0  0  0  0  0  0  0  0
   39.2140   32.1790   36.8180 N   0  0  0  0  0  0  0  0  0  0  0  0
   37.4800   33.4090   38.4280 H   0  0  0  0  0  0  0  0  0  0  0  0
   36.2060   32.2770   40.2750 H   0  0  0  0  0  0  0  0  0  0  0  0
   39.4460   31.7670   35.8870 H   0  0  0  0  0  0  0  0  0  0  0  0
   39.5770   33.1250   36.9620 H   0  0  0  0  0  0  0  0  0  0  0  0
  1  7  1  6  0  0  0
  1  6  1  0  0  0  0
  2  9  1  0  0  0  0
  2  1  1  0  0  0  0
  2  3  1  0  0  0  0
  3  4  1  0  0  0  0
  4  5  1  0  0  0  0
  4 13  1  0  0  0  0
  4 12  1  0  0  0  0
  5 15  1  0  0  0  0
  6 16  1  1  0  0  0
  6 17  1  0  0  0  0
  6  5  1  0  0  0  0
  8  2  1  0  0  0  0
 10  3  1  0  0  0  0
 11  3  1  0  0  0  0
 14  5  1  0  0  0  0
 17 18  1  0  0  0  0
 18 19  2  0  0  0  0
 19 20  1  0  0  0  0
 21 19  1  0  0  0  0
 22 21  2  0  0  0  0
 23 17  2  0  0  0  0
 23 22  1  0  0  0  0
 24  1  1  0  0  0  0
 25 24  2  0  0  0  0
 26 31  2  0  0  0  0
 26 27  1  0  0  0  0
 27 28  2  0  0  0  0
 28 29  1  0  0  0  0
 28 34  1  0  0  0  0
 30 24  1  0  0  0  0
 30 29  2  0  0  0  0
 31 30  1  0  0  0  0
 32 36  1  0  0  0  0
 32 26  1  0  0  0  0
 33 27  1  0  0  0  0
 35 32  1  0  0  0  0
M  END
>  <minimizedAffinity>
-5.09051704

$$$$
