
 OpenBabel03252507073D

 22 23  0  0  0  0  0  0  0  0999 V2000
   44.5430   35.9700   44.5450 C   0  0  0  0  0  0  0  0  0  0  0  0
   45.1660   35.9150   43.2860 C   0  0  0  0  0  0  0  0  0  0  0  0
   46.0780   34.8750   43.0670 C   0  0  0  0  0  0  0  0  0  0  0  0
   46.3180   33.9850   44.0620 N   0  0  0  0  0  0  0  0  0  0  0  0
   45.7030   34.0650   45.2650 C   0  0  0  0  0  0  0  0  0  0  0  0
   44.8260   35.0480   45.4990 N   0  0  0  0  0  0  0  0  0  0  0  0
   43.8410   36.8050   44.6520 H   0  0  0  0  0  0  0  0  0  0  0  0
   44.9650   36.6310   42.5020 H   0  0  0  0  0  0  0  0  0  0  0  0
   46.0010   33.0770   46.2970 C   0  0  0  0  0  0  0  0  0  0  0  0
   45.2390   33.0350   47.4410 C   0  0  0  0  0  3  0  0  0  0  0  0
   45.5850   32.0770   48.3620 C   0  0  0  0  0  0  0  0  0  0  0  0
   45.0650   31.9370   49.3080 H   0  0  0  0  0  0  0  0  0  0  0  0
   46.5900   31.2140   48.2090 N   0  0  0  0  0  0  0  0  0  0  0  0
   47.3280   31.2810   47.0620 C   0  0  0  0  0  3  0  0  0  0  0  0
   47.0130   32.2100   46.1390 N   0  0  0  0  0  0  0  0  0  0  0  0
   46.6850   34.8360   41.8160 O   0  0  0  0  0  0  0  0  0  0  0  0
   48.6320   33.1770   41.1460 O   0  0  0  0  0  0  0  0  0  0  0  0
   48.3740   34.5570   41.7220 P   0  0  0  0  0  0  0  0  0  0  0  0
   49.0510   35.7660   40.7830 O   0  0  0  0  0  0  0  0  0  0  0  0
   49.9860   35.5020   40.5560 H   0  0  0  0  0  0  0  0  0  0  0  0
   48.9780   34.5830   43.3180 O   0  0  0  0  0  0  0  0  0  0  0  0
   48.7600   35.5020   43.6590 H   0  0  0  0  0  0  0  0  0  0  0  0
  1  7  1  0  0  0  0
  1  6  1  0  0  0  0
  2  1  2  0  0  0  0
  3  2  1  0  0  0  0
  3  4  2  0  0  0  0
  4  5  1  0  0  0  0
  5  6  2  0  0  0  0
  5  9  1  0  0  0  0
  8  2  1  0  0  0  0
  9 10  1  0  0  0  0
 10 11  2  0  0  0  0
 11 12  1  0  0  0  0
 13 11  1  0  0  0  0
 14 13  2  0  0  0  0
 15  9  2  0  0  0  0
 15 14  1  0  0  0  0
 16  3  1  0  0  0  0
 17 18  2  0  0  0  0
 18 16  1  0  0  0  0
 18 21  1  0  0  0  0
 19 18  1  0  0  0  0
 20 19  1  0  0  0  0
 21 22  1  0  0  0  0
M  END
>  <minimizedAffinity>
-5.62853622

>  <minimizedRMSD>
0.431072444

$$$$
