
 OpenBabel03252508323D

 30 32  0  0  1  0  0  0  0  0999 V2000
   45.2390   34.3070   42.2410 N   0  0  0  0  0  0  0  0  0  0  0  0
   46.2120   33.5350   41.5600 C   0  0  1  0  0  0  0  0  0  0  0  0
   46.1210   33.5240   40.0830 C   0  0  0  0  0  0  0  0  0  0  0  0
   44.8580   33.6660   39.4950 N   0  0  0  0  0  0  0  0  0  0  0  0
   43.8520   34.3140   40.2230 C   0  0  0  0  0  0  0  0  0  0  0  0
   44.4240   35.1030   41.3790 C   0  0  0  0  0  0  0  0  0  0  0  0
   46.1450   32.4830   41.9360 H   0  0  0  0  0  0  0  0  0  0  0  0
   46.7870   34.3420   39.6710 H   0  0  0  0  0  0  0  0  0  0  0  0
   46.6090   32.5890   39.6970 H   0  0  0  0  0  0  0  0  0  0  0  0
   44.9520   34.0830   38.5410 H   0  0  0  0  0  0  0  0  0  0  0  0
   43.1280   33.5420   40.5880 H   0  0  0  0  0  0  0  0  0  0  0  0
   43.2570   35.0290   39.5990 H   0  0  0  0  0  0  0  0  0  0  0  0
   43.6550   35.7180   41.8500 H   0  0  0  0  0  0  0  0  0  0  0  0
   45.1060   35.8580   40.8730 H   0  0  0  0  0  0  0  0  0  0  0  0
   44.6540   35.3710   44.2930 C   0  0  0  0  0  0  0  0  0  0  0  0
   45.1640   34.2530   43.6410 C   0  0  0  0  0  0  0  0  0  0  0  0
   45.5860   33.1700   44.4240 C   0  0  0  0  0  0  0  0  0  0  0  0
   45.4930   33.2260   45.7810 N   0  0  0  0  0  0  0  0  0  0  0  0
   44.9880   34.3400   46.3820 C   0  0  0  0  0  0  0  0  0  0  0  0
   44.5760   35.3920   45.6500 N   0  0  0  0  0  0  0  0  0  0  0  0
   44.2810   36.2930   43.8830 H   0  0  0  0  0  0  0  0  0  0  0  0
   45.9710   32.3070   43.9480 H   0  0  0  0  0  0  0  0  0  0  0  0
   44.9420   34.3200   47.4710 H   0  0  0  0  0  0  0  0  0  0  0  0
   47.6200   33.9850   41.8830 C   0  0  0  0  0  0  0  0  0  0  0  0
   48.6500   33.3400   42.5310 C   0  0  0  0  0  3  0  0  0  0  0  0
   49.8400   34.0050   42.6830 C   0  0  0  0  0  0  0  0  0  0  0  0
   50.5950   33.4230   43.2040 H   0  0  0  0  0  0  0  0  0  0  0  0
   49.9890   35.2550   42.2090 N   0  0  0  0  0  0  0  0  0  0  0  0
   48.9890   35.8640   41.5870 C   0  0  0  0  0  3  0  0  0  0  0  0
   47.7950   35.2530   41.4110 N   0  0  0  0  0  0  0  0  0  0  0  0
  1 16  1  0  0  0  0
  2 24  1  0  0  0  0
  2  7  1  1  0  0  0
  2  1  1  0  0  0  0
  3  2  1  0  0  0  0
  4  3  1  0  0  0  0
  4  5  1  0  0  0  0
  5 11  1  0  0  0  0
  5  6  1  0  0  0  0
  6 13  1  0  0  0  0
  6  1  1  0  0  0  0
  8  3  1  0  0  0  0
  9  3  1  0  0  0  0
 10  4  1  0  0  0  0
 12  5  1  0  0  0  0
 14  6  1  0  0  0  0
 15 20  1  0  0  0  0
 16 15  2  0  0  0  0
 16 17  1  0  0  0  0
 17 18  2  0  0  0  0
 18 19  1  0  0  0  0
 19 23  1  0  0  0  0
 20 19  2  0  0  0  0
 21 15  1  0  0  0  0
 22 17  1  0  0  0  0
 24 25  1  0  0  0  0
 25 26  2  0  0  0  0
 26 27  1  0  0  0  0
 28 26  1  0  0  0  0
 29 28  2  0  0  0  0
 30 29  1  0  0  0  0
 30 24  2  0  0  0  0
M  END
>  <minimizedAffinity>
-4.80317354

>  <minimizedRMSD>
2.0500493

$$$$
