
 OpenBabel03252509193D

 41 44  0  0  1  0  0  0  0  0999 V2000
   36.5720   30.4330   38.2610 C   0  0  1  0  0  0  0  0  0  0  0  0
   36.9820   30.4880   36.8220 C   0  0  0  0  0  0  0  0  0  0  0  0
   36.8340   29.1860   36.0830 C   0  0  0  0  0  0  0  0  0  0  0  0
   35.5400   28.4860   36.3910 C   0  0  0  0  0  0  0  0  0  0  0  0
   35.2420   28.4560   37.8590 C   0  0  0  0  0  0  0  0  0  0  0  0
   36.4570   28.9470   38.6750 C   0  0  2  0  0  0  0  0  0  0  0  0
   35.5760   30.8570   38.4050 H   0  0  0  0  0  0  0  0  0  0  0  0
   36.3490   31.2550   36.2970 H   0  0  0  0  0  0  0  0  0  0  0  0
   38.0210   30.8410   36.7410 H   0  0  0  0  0  0  0  0  0  0  0  0
   37.6930   28.5270   36.3570 H   0  0  0  0  0  0  0  0  0  0  0  0
   36.8870   29.4080   35.0180 H   0  0  0  0  0  0  0  0  0  0  0  0
   34.7350   29.1280   35.9300 H   0  0  0  0  0  0  0  0  0  0  0  0
   35.5360   27.5080   35.9020 H   0  0  0  0  0  0  0  0  0  0  0  0
   34.3520   29.0150   38.1700 H   0  0  0  0  0  0  0  0  0  0  0  0
   35.1530   27.3770   38.1380 H   0  0  0  0  0  0  0  0  0  0  0  0
   37.3530   28.3740   38.3640 H   0  0  0  0  0  0  0  0  0  0  0  0
   39.6820   31.9860   40.4320 C   0  0  0  0  0  0  0  0  0  0  0  0
   38.4690   32.6340   40.6840 C   0  0  0  0  0  0  0  0  0  0  0  0
   37.3890   32.2080   40.0250 C   0  0  0  0  0  0  0  0  0  0  0  0
   37.4910   31.1340   39.1090 C   0  0  0  0  0  0  0  0  0  0  0  0
   39.2620   30.6940   39.1810 S   0  0  0  0  0  0  0  0  0  0  0  0
   38.4080   33.4500   41.3890 H   0  0  0  0  0  0  0  0  0  0  0  0
   36.3820   32.5870   40.0930 H   0  0  0  0  0  0  0  0  0  0  0  0
   42.7950   32.0570   42.4880 C   0  0  0  0  0  0  0  0  0  0  0  0
   43.2990   33.3120   42.1360 C   0  0  0  0  0  0  0  0  0  0  0  0
   42.5650   34.0640   41.2110 C   0  0  0  0  0  0  0  0  0  0  0  0
   41.4030   33.5360   40.7050 N   0  0  0  0  0  0  0  0  0  0  0  0
   40.9590   32.3240   41.0750 C   0  0  0  0  0  0  0  0  0  0  0  0
   41.6600   31.5790   41.9710 N   0  0  0  0  0  0  0  0  0  0  0  0
   43.3260   31.4310   43.2020 H   0  0  0  0  0  0  0  0  0  0  0  0
   44.2060   33.6930   42.5510 H   0  0  0  0  0  0  0  0  0  0  0  0
   42.9030   35.0330   40.9050 H   0  0  0  0  0  0  0  0  0  0  0  0
   36.1520   28.8440   40.0930 C   0  0  0  0  0  0  0  0  0  0  0  0
   35.0780   29.2260   40.5490 O   0  0  0  0  0  0  0  0  0  0  0  0
   36.7350   28.3860   41.3160 C   0  0  0  0  0  0  0  0  0  0  0  0
   37.2850   29.2100   42.3210 C   0  0  0  0  0  3  0  0  0  0  0  0
   37.9130   28.8370   43.4870 C   0  0  0  0  0  0  0  0  0  0  0  0
   38.2820   29.5820   44.1610 H   0  0  0  0  0  0  0  0  0  0  0  0
   38.0060   27.5190   43.6800 N   0  0  0  0  0  0  0  0  0  0  0  0
   37.5190   26.6610   42.7910 C   0  0  0  0  0  3  0  0  0  0  0  0
   36.9370   27.1280   41.7070 N   0  0  0  0  0  0  0  0  0  0  0  0
  1  7  1  1  0  0  0
  1  6  1  0  0  0  0
  1 20  1  0  0  0  0
  2  1  1  0  0  0  0
  3 10  1  0  0  0  0
  3  4  1  0  0  0  0
  3  2  1  0  0  0  0
  4  5  1  0  0  0  0
  5 15  1  0  0  0  0
  5 14  1  0  0  0  0
  5  6  1  0  0  0  0
  6 16  1  6  0  0  0
  6 33  1  0  0  0  0
  8  2  1  0  0  0  0
  9  2  1  0  0  0  0
 11  3  1  0  0  0  0
 12  4  1  0  0  0  0
 13  4  1  0  0  0  0
 17 18  2  0  0  0  0
 17 28  1  0  0  0  0
 18 22  1  0  0  0  0
 19 23  1  0  0  0  0
 19 18  1  0  0  0  0
 20 21  1  0  0  0  0
 20 19  2  0  0  0  0
 21 17  1  0  0  0  0
 24 30  1  0  0  0  0
 25 24  1  0  0  0  0
 25 31  1  0  0  0  0
 26 25  2  0  0  0  0
 27 28  2  0  0  0  0
 27 26  1  0  0  0  0
 28 29  1  0  0  0  0
 29 24  2  0  0  0  0
 32 26  1  0  0  0  0
 33 34  2  0  0  0  0
 33 35  1  0  0  0  0
 35 41  2  0  0  0  0
 35 36  1  0  0  0  0
 36 37  2  0  0  0  0
 37 39  1  0  0  0  0
 37 38  1  0  0  0  0
 40 39  2  0  0  0  0
 41 40  1  0  0  0  0
M  END
>  <minimizedAffinity>
-5.71457481

$$$$

 OpenBabel03252509193D

 41 44  0  0  1  0  0  0  0  0999 V2000
   37.3970   27.3240   42.1530 C   0  0  1  0  0  0  0  0  0  0  0  0
   37.4320   25.8300   42.0620 C   0  0  0  0  0  0  0  0  0  0  0  0
   38.7950   25.2270   42.2650 C   0  0  0  0  0  0  0  0  0  0  0  0
   39.5440   25.8530   43.4080 C   0  0  0  0  0  0  0  0  0  0  0  0
   39.4750   27.3490   43.3860 C   0  0  0  0  0  0  0  0  0  0  0  0
   38.8490   27.8490   42.0660 C   0  0  2  0  0  0  0  0  0  0  0  0
   37.0230   27.6530   43.1240 H   0  0  0  0  0  0  0  0  0  0  0  0
   36.7490   25.4060   42.8470 H   0  0  0  0  0  0  0  0  0  0  0  0
   37.0260   25.5030   41.0930 H   0  0  0  0  0  0  0  0  0  0  0  0
   39.3790   25.3510   41.3200 H   0  0  0  0  0  0  0  0  0  0  0  0
   38.6560   24.1630   42.4550 H   0  0  0  0  0  0  0  0  0  0  0  0
   38.9890   25.5360   44.3380 H   0  0  0  0  0  0  0  0  0  0  0  0
   40.5560   25.4400   43.4430 H   0  0  0  0  0  0  0  0  0  0  0  0
   38.9470   27.8080   44.2290 H   0  0  0  0  0  0  0  0  0  0  0  0
   40.5310   27.7100   43.3330 H   0  0  0  0  0  0  0  0  0  0  0  0
   39.3920   27.3890   41.2160 H   0  0  0  0  0  0  0  0  0  0  0  0
   35.3900   28.5420   38.7930 C   0  0  0  0  0  0  0  0  0  0  0  0
   35.0030   29.2440   39.9390 C   0  0  0  0  0  0  0  0  0  0  0  0
   35.5940   28.9230   41.0930 C   0  0  0  0  0  0  0  0  0  0  0  0
   36.5770   27.9060   41.1310 C   0  0  0  0  0  0  0  0  0  0  0  0
   36.6700   27.3540   39.3920 S   0  0  0  0  0  0  0  0  0  0  0  0
   34.2530   30.0200   39.8930 H   0  0  0  0  0  0  0  0  0  0  0  0
   35.4210   29.3540   42.0650 H   0  0  0  0  0  0  0  0  0  0  0  0
   34.8820   29.1400   35.1460 C   0  0  0  0  0  0  0  0  0  0  0  0
   33.4920   29.2830   35.1070 C   0  0  0  0  0  0  0  0  0  0  0  0
   32.7980   29.1560   36.3150 C   0  0  0  0  0  0  0  0  0  0  0  0
   33.5100   28.9030   37.4620 N   0  0  0  0  0  0  0  0  0  0  0  0
   34.8460   28.7740   37.4480 C   0  0  0  0  0  0  0  0  0  0  0  0
   35.5370   28.8930   36.2830 N   0  0  0  0  0  0  0  0  0  0  0  0
   35.4700   29.2290   34.2340 H   0  0  0  0  0  0  0  0  0  0  0  0
   32.9700   29.4810   34.1960 H   0  0  0  0  0  0  0  0  0  0  0  0
   31.7320   29.2560   36.3460 H   0  0  0  0  0  0  0  0  0  0  0  0
   38.8580   29.3030   42.0560 C   0  0  0  0  0  0  0  0  0  0  0  0
   38.6890   29.9540   43.0830 O   0  0  0  0  0  0  0  0  0  0  0  0
   39.0220   30.3990   41.1510 C   0  0  0  0  0  0  0  0  0  0  0  0
   39.1420   30.2940   39.7500 C   0  0  0  0  0  3  0  0  0  0  0  0
   39.3620   31.2940   38.8310 C   0  0  0  0  0  0  0  0  0  0  0  0
   39.4300   31.0610   37.7890 H   0  0  0  0  0  0  0  0  0  0  0  0
   39.4740   32.5190   39.3480 N   0  0  0  0  0  0  0  0  0  0  0  0
   39.3760   32.7220   40.6570 C   0  0  0  0  0  3  0  0  0  0  0  0
   39.1640   31.6910   41.4470 N   0  0  0  0  0  0  0  0  0  0  0  0
  1  7  1  1  0  0  0
  2  1  1  0  0  0  0
  2  3  1  0  0  0  0
  2  8  1  0  0  0  0
  3 11  1  0  0  0  0
  3  4  1  0  0  0  0
  4 13  1  0  0  0  0
  4 12  1  0  0  0  0
  5  4  1  0  0  0  0
  5 14  1  0  0  0  0
  6 16  1  6  0  0  0
  6  1  1  0  0  0  0
  6  5  1  0  0  0  0
  9  2  1  0  0  0  0
 10  3  1  0  0  0  0
 15  5  1  0  0  0  0
 17 21  1  0  0  0  0
 17 18  2  0  0  0  0
 18 19  1  0  0  0  0
 19 20  2  0  0  0  0
 19 23  1  0  0  0  0
 20  1  1  0  0  0  0
 21 20  1  0  0  0  0
 22 18  1  0  0  0  0
 24 29  1  0  0  0  0
 25 24  2  0  0  0  0
 25 26  1  0  0  0  0
 26 32  1  0  0  0  0
 26 27  2  0  0  0  0
 28 27  1  0  0  0  0
 28 17  1  0  0  0  0
 29 28  2  0  0  0  0
 30 24  1  0  0  0  0
 31 25  1  0  0  0  0
 33  6  1  0  0  0  0
 33 34  2  0  0  0  0
 35 41  1  0  0  0  0
 35 33  1  0  0  0  0
 36 35  2  0  0  0  0
 37 39  2  0  0  0  0
 37 36  1  0  0  0  0
 38 37  1  0  0  0  0
 39 40  1  0  0  0  0
 40 41  2  0  0  0  0
M  END
>  <minimizedAffinity>
-5.71041393

$$$$

 OpenBabel03252509193D

 41 44  0  0  1  0  0  0  0  0999 V2000
   38.1400   31.3680   39.5260 C   0  0  1  0  0  0  0  0  0  0  0  0
   37.3110   32.4220   38.8610 C   0  0  0  0  0  0  0  0  0  0  0  0
   37.3040   33.7480   39.5720 C   0  0  0  0  0  0  0  0  0  0  0  0
   38.6680   34.1610   40.0480 C   0  0  0  0  0  0  0  0  0  0  0  0
   39.3980   33.0450   40.7290 C   0  0  0  0  0  0  0  0  0  0  0  0
   38.4610   31.8400   40.9640 C   0  0  2  0  0  0  0  0  0  0  0  0
   39.1060   31.2540   39.0310 H   0  0  0  0  0  0  0  0  0  0  0  0
   37.7090   32.5920   37.8240 H   0  0  0  0  0  0  0  0  0  0  0  0
   36.2770   32.0660   38.7380 H   0  0  0  0  0  0  0  0  0  0  0  0
   36.6080   33.6760   40.4440 H   0  0  0  0  0  0  0  0  0  0  0  0
   36.9170   34.4900   38.8740 H   0  0  0  0  0  0  0  0  0  0  0  0
   39.2570   34.3830   39.1110 H   0  0  0  0  0  0  0  0  0  0  0  0
   38.5810   35.0790   40.6360 H   0  0  0  0  0  0  0  0  0  0  0  0
   40.3060   32.6980   40.2230 H   0  0  0  0  0  0  0  0  0  0  0  0
   39.6300   33.4060   41.7610 H   0  0  0  0  0  0  0  0  0  0  0  0
   37.5480   32.1930   41.4830 H   0  0  0  0  0  0  0  0  0  0  0  0
   36.8650   27.4800   39.2810 C   0  0  0  0  0  0  0  0  0  0  0  0
   35.8870   28.3400   39.7920 C   0  0  0  0  0  0  0  0  0  0  0  0
   36.2000   29.6320   39.9170 C   0  0  0  0  0  0  0  0  0  0  0  0
   37.4820   30.0940   39.5370 C   0  0  0  0  0  0  0  0  0  0  0  0
   38.3170   28.5760   38.9610 S   0  0  0  0  0  0  0  0  0  0  0  0
   34.9110   27.9720   40.0740 H   0  0  0  0  0  0  0  0  0  0  0  0
   35.5770   30.4290   40.2890 H   0  0  0  0  0  0  0  0  0  0  0  0
   36.3490   24.0590   37.8850 C   0  0  0  0  0  0  0  0  0  0  0  0
   36.2820   23.3150   39.0660 C   0  0  0  0  0  0  0  0  0  0  0  0
   36.4290   24.0070   40.2720 C   0  0  0  0  0  0  0  0  0  0  0  0
   36.6260   25.3660   40.2340 N   0  0  0  0  0  0  0  0  0  0  0  0
   36.6820   26.0370   39.0740 C   0  0  0  0  0  0  0  0  0  0  0  0
   36.5440   25.3810   37.8910 N   0  0  0  0  0  0  0  0  0  0  0  0
   36.2420   23.5700   36.9190 H   0  0  0  0  0  0  0  0  0  0  0  0
   36.1260   22.2580   39.0590 H   0  0  0  0  0  0  0  0  0  0  0  0
   36.3860   23.4890   41.2090 H   0  0  0  0  0  0  0  0  0  0  0  0
   39.1870   30.8040   41.6810 C   0  0  0  0  0  0  0  0  0  0  0  0
   40.3900   30.9000   41.9060 O   0  0  0  0  0  0  0  0  0  0  0  0
   38.9680   29.5400   42.3130 C   0  0  0  0  0  0  0  0  0  0  0  0
   37.7920   29.1550   42.9920 C   0  0  0  0  0  3  0  0  0  0  0  0
   37.5380   27.9860   43.6700 C   0  0  0  0  0  0  0  0  0  0  0  0
   36.5890   27.8330   44.1400 H   0  0  0  0  0  0  0  0  0  0  0  0
   38.5440   27.1090   43.6790 N   0  0  0  0  0  0  0  0  0  0  0  0
   39.6920   27.3790   43.0690 C   0  0  0  0  0  3  0  0  0  0  0  0
   39.8280   28.5310   42.4480 N   0  0  0  0  0  0  0  0  0  0  0  0
  1  7  1  6  0  0  0
  1 20  1  0  0  0  0
  1  6  1  0  0  0  0
  2  1  1  0  0  0  0
  2  3  1  0  0  0  0
  3  4  1  0  0  0  0
  3 10  1  0  0  0  0
  4 13  1  0  0  0  0
  4  5  1  0  0  0  0
  5  6  1  0  0  0  0
  5 15  1  0  0  0  0
  6 16  1  1  0  0  0
  6 33  1  0  0  0  0
  8  2  1  0  0  0  0
  9  2  1  0  0  0  0
 11  3  1  0  0  0  0
 12  4  1  0  0  0  0
 14  5  1  0  0  0  0
 17 18  2  0  0  0  0
 18 19  1  0  0  0  0
 18 22  1  0  0  0  0
 19 23  1  0  0  0  0
 20 19  2  0  0  0  0
 21 17  1  0  0  0  0
 21 20  1  0  0  0  0
 24 29  2  0  0  0  0
 24 25  1  0  0  0  0
 25 26  2  0  0  0  0
 26 32  1  0  0  0  0
 27 26  1  0  0  0  0
 28 17  1  0  0  0  0
 28 27  2  0  0  0  0
 29 28  1  0  0  0  0
 30 24  1  0  0  0  0
 31 25  1  0  0  0  0
 33 34  2  0  0  0  0
 33 35  1  0  0  0  0
 35 41  2  0  0  0  0
 35 36  1  0  0  0  0
 36 37  2  0  0  0  0
 37 39  1  0  0  0  0
 37 38  1  0  0  0  0
 40 39  2  0  0  0  0
 41 40  1  0  0  0  0
M  END
>  <minimizedAffinity>
-5.57748795

$$$$

 OpenBabel03252509193D

 41 44  0  0  1  0  0  0  0  0999 V2000
   36.1150   29.8990   37.8410 C   0  0  1  0  0  0  0  0  0  0  0  0
   35.8190   29.3080   36.4980 C   0  0  0  0  0  0  0  0  0  0  0  0
   34.8710   28.1410   36.5260 C   0  0  0  0  0  0  0  0  0  0  0  0
   33.6970   28.3660   37.4380 C   0  0  0  0  0  0  0  0  0  0  0  0
   34.1050   28.9250   38.7670 C   0  0  0  0  0  0  0  0  0  0  0  0
   35.6410   28.8990   38.9230 C   0  0  2  0  0  0  0  0  0  0  0  0
   35.5370   30.8090   38.0090 H   0  0  0  0  0  0  0  0  0  0  0  0
   35.3640   30.1040   35.8470 H   0  0  0  0  0  0  0  0  0  0  0  0
   36.7570   29.0080   36.0050 H   0  0  0  0  0  0  0  0  0  0  0  0
   35.4370   27.2360   36.8580 H   0  0  0  0  0  0  0  0  0  0  0  0
   34.5200   27.9810   35.5070 H   0  0  0  0  0  0  0  0  0  0  0  0
   33.0850   29.1750   36.9430 H   0  0  0  0  0  0  0  0  0  0  0  0
   33.1010   27.4520   37.4880 H   0  0  0  0  0  0  0  0  0  0  0  0
   33.7400   29.9340   38.9850 H   0  0  0  0  0  0  0  0  0  0  0  0
   33.7470   28.1970   39.5350 H   0  0  0  0  0  0  0  0  0  0  0  0
   36.0060   27.8750   38.7100 H   0  0  0  0  0  0  0  0  0  0  0  0
   39.8700   31.4520   38.3730 C   0  0  0  0  0  0  0  0  0  0  0  0
   39.8820   30.0710   38.1500 C   0  0  0  0  0  0  0  0  0  0  0  0
   38.7070   29.4620   37.9670 C   0  0  0  0  0  0  0  0  0  0  0  0
   37.5050   30.2080   37.9990 C   0  0  0  0  0  0  0  0  0  0  0  0
   38.0820   31.9110   38.3190 S   0  0  0  0  0  0  0  0  0  0  0  0
   40.8080   29.5170   38.1260 H   0  0  0  0  0  0  0  0  0  0  0  0
   38.5280   28.4140   37.7870 H   0  0  0  0  0  0  0  0  0  0  0  0
   42.9100   33.1410   39.7230 C   0  0  0  0  0  0  0  0  0  0  0  0
   43.2090   34.0030   38.6640 C   0  0  0  0  0  0  0  0  0  0  0  0
   42.3730   33.9580   37.5420 C   0  0  0  0  0  0  0  0  0  0  0  0
   41.3150   33.0810   37.5410 N   0  0  0  0  0  0  0  0  0  0  0  0
   41.0700   32.2730   38.5840 C   0  0  0  0  0  0  0  0  0  0  0  0
   41.8720   32.3020   39.6820 N   0  0  0  0  0  0  0  0  0  0  0  0
   43.5280   33.1360   40.6180 H   0  0  0  0  0  0  0  0  0  0  0  0
   44.0390   34.6740   38.6980 H   0  0  0  0  0  0  0  0  0  0  0  0
   42.5530   34.5960   36.7010 H   0  0  0  0  0  0  0  0  0  0  0  0
   35.9930   29.3900   40.2470 C   0  0  0  0  0  0  0  0  0  0  0  0
   35.6070   30.4820   40.6520 O   0  0  0  0  0  0  0  0  0  0  0  0
   36.7250   28.9950   41.4100 C   0  0  0  0  0  0  0  0  0  0  0  0
   37.9250   29.5840   41.8620 C   0  0  0  0  0  3  0  0  0  0  0  0
   38.7100   29.2180   42.9310 C   0  0  0  0  0  0  0  0  0  0  0  0
   39.6020   29.7640   43.1560 H   0  0  0  0  0  0  0  0  0  0  0  0
   38.2650   28.1670   43.6230 N   0  0  0  0  0  0  0  0  0  0  0  0
   37.1440   27.5440   43.2770 C   0  0  0  0  0  3  0  0  0  0  0  0
   36.4700   27.9790   42.2330 N   0  0  0  0  0  0  0  0  0  0  0  0
  1 20  1  0  0  0  0
  1  7  1  1  0  0  0
  1  6  1  0  0  0  0
  2  3  1  0  0  0  0
  2  1  1  0  0  0  0
  3 10  1  0  0  0  0
  3  4  1  0  0  0  0
  4 13  1  0  0  0  0
  4  5  1  0  0  0  0
  5  6  1  0  0  0  0
  5 14  1  0  0  0  0
  5 15  1  0  0  0  0
  6 16  1  6  0  0  0
  6 33  1  0  0  0  0
  8  2  1  0  0  0  0
  9  2  1  0  0  0  0
 11  3  1  0  0  0  0
 12  4  1  0  0  0  0
 17 28  1  0  0  0  0
 18 17  2  0  0  0  0
 19 20  2  0  0  0  0
 19 18  1  0  0  0  0
 20 21  1  0  0  0  0
 21 17  1  0  0  0  0
 22 18  1  0  0  0  0
 23 19  1  0  0  0  0
 24 30  1  0  0  0  0
 25 31  1  0  0  0  0
 25 24  2  0  0  0  0
 26 25  1  0  0  0  0
 27 26  2  0  0  0  0
 27 28  1  0  0  0  0
 28 29  2  0  0  0  0
 29 24  1  0  0  0  0
 32 26  1  0  0  0  0
 33 34  2  0  0  0  0
 33 35  1  0  0  0  0
 35 36  2  0  0  0  0
 35 41  1  0  0  0  0
 36 37  1  0  0  0  0
 37 38  1  0  0  0  0
 37 39  2  0  0  0  0
 40 39  1  0  0  0  0
 41 40  2  0  0  0  0
M  END
>  <minimizedAffinity>
-5.56090784

$$$$

 OpenBabel03252509193D

 41 44  0  0  1  0  0  0  0  0999 V2000
   39.9700   31.7600   41.3120 C   0  0  1  0  0  0  0  0  0  0  0  0
   41.4640   31.8480   41.2690 C   0  0  0  0  0  0  0  0  0  0  0  0
   42.0100   32.5690   40.0660 C   0  0  0  0  0  0  0  0  0  0  0  0
   41.2490   33.8260   39.7460 C   0  0  0  0  0  0  0  0  0  0  0  0
   39.7660   33.6210   39.7820 C   0  0  0  0  0  0  0  0  0  0  0  0
   39.4230   32.1200   39.9100 C   0  0  2  0  0  0  0  0  0  0  0  0
   39.5500   32.5040   41.9920 H   0  0  0  0  0  0  0  0  0  0  0  0
   41.8190   32.3930   42.1860 H   0  0  0  0  0  0  0  0  0  0  0  0
   41.9010   30.8400   41.3220 H   0  0  0  0  0  0  0  0  0  0  0  0
   41.9720   31.8740   39.1920 H   0  0  0  0  0  0  0  0  0  0  0  0
   43.0500   32.8130   40.2770 H   0  0  0  0  0  0  0  0  0  0  0  0
   41.4790   34.5370   40.5910 H   0  0  0  0  0  0  0  0  0  0  0  0
   41.6310   34.2490   38.8130 H   0  0  0  0  0  0  0  0  0  0  0  0
   39.2330   34.1770   40.5610 H   0  0  0  0  0  0  0  0  0  0  0  0
   39.3870   33.8940   38.7670 H   0  0  0  0  0  0  0  0  0  0  0  0
   39.9570   31.5620   39.1160 H   0  0  0  0  0  0  0  0  0  0  0  0
   38.9590   27.8290   41.8740 C   0  0  0  0  0  0  0  0  0  0  0  0
   38.5370   28.6520   42.9240 C   0  0  0  0  0  0  0  0  0  0  0  0
   38.8190   29.9540   42.8430 C   0  0  0  0  0  0  0  0  0  0  0  0
   39.5190   30.4630   41.7230 C   0  0  0  0  0  0  0  0  0  0  0  0
   39.8070   28.9770   40.7020 S   0  0  0  0  0  0  0  0  0  0  0  0
   38.0020   28.2470   43.7700 H   0  0  0  0  0  0  0  0  0  0  0  0
   38.5760   30.7280   43.5530 H   0  0  0  0  0  0  0  0  0  0  0  0
   39.2180   24.1380   41.3970 C   0  0  0  0  0  0  0  0  0  0  0  0
   37.9130   23.7520   41.7150 C   0  0  0  0  0  0  0  0  0  0  0  0
   37.0170   24.7600   42.0870 C   0  0  0  0  0  0  0  0  0  0  0  0
   37.4600   26.0590   42.1190 N   0  0  0  0  0  0  0  0  0  0  0  0
   38.7250   26.3800   41.8040 C   0  0  0  0  0  0  0  0  0  0  0  0
   39.6100   25.4130   41.4410 N   0  0  0  0  0  0  0  0  0  0  0  0
   39.9550   23.3930   41.1020 H   0  0  0  0  0  0  0  0  0  0  0  0
   37.6010   22.7310   41.6780 H   0  0  0  0  0  0  0  0  0  0  0  0
   36.0030   24.5230   42.3410 H   0  0  0  0  0  0  0  0  0  0  0  0
   37.9780   31.9570   39.8790 C   0  0  0  0  0  0  0  0  0  0  0  0
   37.2210   32.8760   40.1780 O   0  0  0  0  0  0  0  0  0  0  0  0
   36.9860   30.9730   39.5750 C   0  0  0  0  0  0  0  0  0  0  0  0
   36.6750   30.4930   38.2850 C   0  0  0  0  0  3  0  0  0  0  0  0
   35.6980   29.5990   37.9160 C   0  0  0  0  0  0  0  0  0  0  0  0
   35.5790   29.3260   36.8880 H   0  0  0  0  0  0  0  0  0  0  0  0
   34.9530   29.1310   38.9200 N   0  0  0  0  0  0  0  0  0  0  0  0
   35.1670   29.5230   40.1710 C   0  0  0  0  0  3  0  0  0  0  0  0
   36.1320   30.3850   40.4120 N   0  0  0  0  0  0  0  0  0  0  0  0
  1 20  1  0  0  0  0
  1  7  1  1  0  0  0
  2  1  1  0  0  0  0
  2  9  1  0  0  0  0
  2  8  1  0  0  0  0
  3 11  1  0  0  0  0
  3  2  1  0  0  0  0
  4  5  1  0  0  0  0
  4  3  1  0  0  0  0
  4 12  1  0  0  0  0
  5  6  1  0  0  0  0
  5 14  1  0  0  0  0
  6 16  1  6  0  0  0
  6  1  1  0  0  0  0
 10  3  1  0  0  0  0
 13  4  1  0  0  0  0
 15  5  1  0  0  0  0
 17 18  2  0  0  0  0
 18 22  1  0  0  0  0
 19 18  1  0  0  0  0
 19 23  1  0  0  0  0
 20 19  2  0  0  0  0
 21 20  1  0  0  0  0
 21 17  1  0  0  0  0
 24 29  2  0  0  0  0
 24 25  1  0  0  0  0
 25 26  2  0  0  0  0
 26 27  1  0  0  0  0
 26 32  1  0  0  0  0
 28 17  1  0  0  0  0
 28 27  2  0  0  0  0
 29 28  1  0  0  0  0
 30 24  1  0  0  0  0
 31 25  1  0  0  0  0
 33  6  1  0  0  0  0
 33 34  2  0  0  0  0
 35 33  1  0  0  0  0
 35 41  1  0  0  0  0
 36 35  2  0  0  0  0
 37 36  1  0  0  0  0
 37 39  2  0  0  0  0
 38 37  1  0  0  0  0
 39 40  1  0  0  0  0
 40 41  2  0  0  0  0
M  END
>  <minimizedAffinity>
-5.52473259

$$$$

 OpenBabel03252509193D

 41 44  0  0  1  0  0  0  0  0999 V2000
   34.7190   28.3520   38.3870 C   0  0  1  0  0  0  0  0  0  0  0  0
   33.7780   28.9650   37.3960 C   0  0  0  0  0  0  0  0  0  0  0  0
   33.6530   28.2050   36.1040 C   0  0  0  0  0  0  0  0  0  0  0  0
   33.5450   26.7200   36.3100 C   0  0  0  0  0  0  0  0  0  0  0  0
   34.5530   26.2040   37.2910 C   0  0  0  0  0  0  0  0  0  0  0  0
   35.5800   27.3000   37.6480 C   0  0  2  0  0  0  0  0  0  0  0  0
   34.1780   27.8010   39.1580 H   0  0  0  0  0  0  0  0  0  0  0  0
   32.7560   29.0230   37.8600 H   0  0  0  0  0  0  0  0  0  0  0  0
   34.0790   30.0020   37.1850 H   0  0  0  0  0  0  0  0  0  0  0  0
   34.5480   28.4330   35.4740 H   0  0  0  0  0  0  0  0  0  0  0  0
   32.7630   28.5720   35.5950 H   0  0  0  0  0  0  0  0  0  0  0  0
   32.5390   26.5580   36.7940 H   0  0  0  0  0  0  0  0  0  0  0  0
   33.5540   26.2210   35.3370 H   0  0  0  0  0  0  0  0  0  0  0  0
   34.1380   25.7870   38.2150 H   0  0  0  0  0  0  0  0  0  0  0  0
   35.1580   25.4400   36.7440 H   0  0  0  0  0  0  0  0  0  0  0  0
   36.0030   27.7140   36.7110 H   0  0  0  0  0  0  0  0  0  0  0  0
   37.3790   31.2350   39.5760 C   0  0  0  0  0  0  0  0  0  0  0  0
   36.5630   30.7870   40.6200 C   0  0  0  0  0  0  0  0  0  0  0  0
   35.6560   29.8470   40.3400 C   0  0  0  0  0  0  0  0  0  0  0  0
   35.5430   29.3350   39.0250 C   0  0  0  0  0  0  0  0  0  0  0  0
   36.8220   30.2620   38.1080 S   0  0  0  0  0  0  0  0  0  0  0  0
   36.6640   31.1860   41.6180 H   0  0  0  0  0  0  0  0  0  0  0  0
   34.9490   29.3910   41.0130 H   0  0  0  0  0  0  0  0  0  0  0  0
   39.4900   34.1470   40.5670 C   0  0  0  0  0  0  0  0  0  0  0  0
   40.5280   34.0300   39.6390 C   0  0  0  0  0  0  0  0  0  0  0  0
   40.4670   32.9650   38.7340 C   0  0  0  0  0  0  0  0  0  0  0  0
   39.4010   32.1000   38.8040 N   0  0  0  0  0  0  0  0  0  0  0  0
   38.4270   32.2550   39.7140 C   0  0  0  0  0  0  0  0  0  0  0  0
   38.4710   33.2840   40.6020 N   0  0  0  0  0  0  0  0  0  0  0  0
   39.4900   34.9570   41.2930 H   0  0  0  0  0  0  0  0  0  0  0  0
   41.3420   34.7220   39.6110 H   0  0  0  0  0  0  0  0  0  0  0  0
   41.2340   32.8260   38.0000 H   0  0  0  0  0  0  0  0  0  0  0  0
   36.5750   26.7430   38.5510 C   0  0  0  0  0  0  0  0  0  0  0  0
   37.7770   26.8280   38.3150 O   0  0  0  0  0  0  0  0  0  0  0  0
   36.6670   26.0410   39.7940 C   0  0  0  0  0  0  0  0  0  0  0  0
   37.0980   26.5940   41.0180 C   0  0  0  0  0  3  0  0  0  0  0  0
   37.2680   25.9650   42.2300 C   0  0  0  0  0  0  0  0  0  0  0  0
   37.6040   26.5200   43.0810 H   0  0  0  0  0  0  0  0  0  0  0  0
   36.9830   24.6620   42.2330 N   0  0  0  0  0  0  0  0  0  0  0  0
   36.5690   24.0480   41.1300 C   0  0  0  0  0  3  0  0  0  0  0  0
   36.4420   24.7480   40.0230 N   0  0  0  0  0  0  0  0  0  0  0  0
  1 20  1  0  0  0  0
  1  7  1  1  0  0  0
  2  8  1  0  0  0  0
  2  1  1  0  0  0  0
  3  4  1  0  0  0  0
  3  2  1  0  0  0  0
  4 12  1  0  0  0  0
  4  5  1  0  0  0  0
  5  6  1  0  0  0  0
  5 14  1  0  0  0  0
  6 16  1  6  0  0  0
  6  1  1  0  0  0  0
  6 33  1  0  0  0  0
  9  2  1  0  0  0  0
 10  3  1  0  0  0  0
 11  3  1  0  0  0  0
 13  4  1  0  0  0  0
 15  5  1  0  0  0  0
 17 28  1  0  0  0  0
 17 18  2  0  0  0  0
 18 22  1  0  0  0  0
 19 18  1  0  0  0  0
 19 23  1  0  0  0  0
 20 19  2  0  0  0  0
 21 20  1  0  0  0  0
 21 17  1  0  0  0  0
 24 29  1  0  0  0  0
 24 30  1  0  0  0  0
 25 24  2  0  0  0  0
 26 27  2  0  0  0  0
 26 25  1  0  0  0  0
 27 28  1  0  0  0  0
 28 29  2  0  0  0  0
 31 25  1  0  0  0  0
 32 26  1  0  0  0  0
 33 35  1  0  0  0  0
 34 33  2  0  0  0  0
 35 41  2  0  0  0  0
 35 36  1  0  0  0  0
 36 37  2  0  0  0  0
 37 39  1  0  0  0  0
 37 38  1  0  0  0  0
 40 39  2  0  0  0  0
 41 40  1  0  0  0  0
M  END
>  <minimizedAffinity>
-5.49885511

$$$$

 OpenBabel03252509193D

 41 44  0  0  1  0  0  0  0  0999 V2000
   37.5680   26.6990   41.8140 C   0  0  1  0  0  0  0  0  0  0  0  0
   36.9790   25.3760   42.1970 C   0  0  0  0  0  0  0  0  0  0  0  0
   37.9500   24.2280   42.1560 C   0  0  0  0  0  0  0  0  0  0  0  0
   39.2850   24.5730   42.7560 C   0  0  0  0  0  0  0  0  0  0  0  0
   39.8000   25.8970   42.2810 C   0  0  0  0  0  0  0  0  0  0  0  0
   38.9300   26.4410   41.1270 C   0  0  2  0  0  0  0  0  0  0  0  0
   37.7920   27.3020   42.6960 H   0  0  0  0  0  0  0  0  0  0  0  0
   36.5790   25.4500   43.2450 H   0  0  0  0  0  0  0  0  0  0  0  0
   36.1150   25.1500   41.5540 H   0  0  0  0  0  0  0  0  0  0  0  0
   38.0850   23.9190   41.0910 H   0  0  0  0  0  0  0  0  0  0  0  0
   37.5010   23.4020   42.7070 H   0  0  0  0  0  0  0  0  0  0  0  0
   39.0920   24.6990   43.8600 H   0  0  0  0  0  0  0  0  0  0  0  0
   39.9710   23.7340   42.6100 H   0  0  0  0  0  0  0  0  0  0  0  0
   39.8940   26.6690   43.0530 H   0  0  0  0  0  0  0  0  0  0  0  0
   40.7860   25.6940   41.7970 H   0  0  0  0  0  0  0  0  0  0  0  0
   38.8430   25.6610   40.3450 H   0  0  0  0  0  0  0  0  0  0  0  0
   35.2340   28.3610   38.8830 C   0  0  0  0  0  0  0  0  0  0  0  0
   35.1990   29.0850   40.0790 C   0  0  0  0  0  0  0  0  0  0  0  0
   35.9230   28.6270   41.1040 C   0  0  0  0  0  0  0  0  0  0  0  0
   36.6950   27.4500   40.9610 C   0  0  0  0  0  0  0  0  0  0  0  0
   36.3650   26.9440   39.2370 S   0  0  0  0  0  0  0  0  0  0  0  0
   34.6070   29.9840   40.1710 H   0  0  0  0  0  0  0  0  0  0  0  0
   36.0130   29.0520   42.0900 H   0  0  0  0  0  0  0  0  0  0  0  0
   32.6640   29.2710   36.3360 C   0  0  0  0  0  0  0  0  0  0  0  0
   33.4580   29.3230   35.1870 C   0  0  0  0  0  0  0  0  0  0  0  0
   34.8240   29.0600   35.3370 C   0  0  0  0  0  0  0  0  0  0  0  0
   35.3080   28.7670   36.5890 N   0  0  0  0  0  0  0  0  0  0  0  0
   34.5040   28.7280   37.6630 C   0  0  0  0  0  0  0  0  0  0  0  0
   33.1740   28.9830   37.5370 N   0  0  0  0  0  0  0  0  0  0  0  0
   31.5960   29.4680   36.2760 H   0  0  0  0  0  0  0  0  0  0  0  0
   33.0490   29.5530   34.2280 H   0  0  0  0  0  0  0  0  0  0  0  0
   35.4810   29.0850   34.4910 H   0  0  0  0  0  0  0  0  0  0  0  0
   39.4970   27.6940   40.6530 C   0  0  0  0  0  0  0  0  0  0  0  0
   40.1990   27.7420   39.6480 O   0  0  0  0  0  0  0  0  0  0  0  0
   39.5270   29.0850   40.9820 C   0  0  0  0  0  0  0  0  0  0  0  0
   39.8830   29.6240   42.2370 C   0  0  0  0  0  3  0  0  0  0  0  0
   39.8750   30.9390   42.6380 C   0  0  0  0  0  0  0  0  0  0  0  0
   40.1750   31.2000   43.6320 H   0  0  0  0  0  0  0  0  0  0  0  0
   39.4770   31.8100   41.7080 N   0  0  0  0  0  0  0  0  0  0  0  0
   39.1210   31.4020   40.4960 C   0  0  0  0  0  3  0  0  0  0  0  0
   39.1660   30.1160   40.2180 N   0  0  0  0  0  0  0  0  0  0  0  0
  1  2  1  0  0  0  0
  1  7  1  1  0  0  0
  2  8  1  0  0  0  0
  3  2  1  0  0  0  0
  3 11  1  0  0  0  0
  3  4  1  0  0  0  0
  4 12  1  0  0  0  0
  5  4  1  0  0  0  0
  5 14  1  0  0  0  0
  6 16  1  6  0  0  0
  6  1  1  0  0  0  0
  6  5  1  0  0  0  0
  9  2  1  0  0  0  0
 10  3  1  0  0  0  0
 13  4  1  0  0  0  0
 15  5  1  0  0  0  0
 17 21  1  0  0  0  0
 17 18  2  0  0  0  0
 18 22  1  0  0  0  0
 18 19  1  0  0  0  0
 19 23  1  0  0  0  0
 20 19  2  0  0  0  0
 20  1  1  0  0  0  0
 21 20  1  0  0  0  0
 24 29  1  0  0  0  0
 25 26  1  0  0  0  0
 25 24  2  0  0  0  0
 26 27  2  0  0  0  0
 27 28  1  0  0  0  0
 28 17  1  0  0  0  0
 29 28  2  0  0  0  0
 30 24  1  0  0  0  0
 31 25  1  0  0  0  0
 32 26  1  0  0  0  0
 33 35  1  0  0  0  0
 33  6  1  0  0  0  0
 34 33  2  0  0  0  0
 35 36  1  0  0  0  0
 36 37  2  0  0  0  0
 37 38  1  0  0  0  0
 39 37  1  0  0  0  0
 40 39  2  0  0  0  0
 41 40  1  0  0  0  0
 41 35  2  0  0  0  0
M  END
>  <minimizedAffinity>
-5.41113472

$$$$

 OpenBabel03252509193D

 41 44  0  0  1  0  0  0  0  0999 V2000
   36.1710   29.8450   37.8930 C   0  0  1  0  0  0  0  0  0  0  0  0
   36.3190   29.6980   36.4100 C   0  0  0  0  0  0  0  0  0  0  0  0
   36.2900   28.2770   35.9200 C   0  0  0  0  0  0  0  0  0  0  0  0
   35.2140   27.4560   36.5760 C   0  0  0  0  0  0  0  0  0  0  0  0
   35.1740   27.6490   38.0610 C   0  0  0  0  0  0  0  0  0  0  0  0
   36.3980   28.4590   38.5410 C   0  0  2  0  0  0  0  0  0  0  0  0
   35.1520   30.1320   38.1620 H   0  0  0  0  0  0  0  0  0  0  0  0
   35.4790   30.2520   35.9080 H   0  0  0  0  0  0  0  0  0  0  0  0
   37.2480   30.1830   36.0760 H   0  0  0  0  0  0  0  0  0  0  0  0
   37.2880   27.8160   36.1190 H   0  0  0  0  0  0  0  0  0  0  0  0
   36.1240   28.3060   34.8430 H   0  0  0  0  0  0  0  0  0  0  0  0
   34.2410   27.8750   36.1880 H   0  0  0  0  0  0  0  0  0  0  0  0
   35.3070   26.4170   36.2500 H   0  0  0  0  0  0  0  0  0  0  0  0
   34.2620   28.1140   38.4500 H   0  0  0  0  0  0  0  0  0  0  0  0
   35.3300   26.6390   38.5120 H   0  0  0  0  0  0  0  0  0  0  0  0
   37.3190   27.9810   38.1520 H   0  0  0  0  0  0  0  0  0  0  0  0
   39.2520   32.2770   39.0700 C   0  0  0  0  0  0  0  0  0  0  0  0
   38.0230   32.6560   39.6200 C   0  0  0  0  0  0  0  0  0  0  0  0
   36.9490   31.9300   39.2980 C   0  0  0  0  0  0  0  0  0  0  0  0
   37.0740   30.8200   38.4300 C   0  0  0  0  0  0  0  0  0  0  0  0
   38.8560   30.8010   38.0330 S   0  0  0  0  0  0  0  0  0  0  0  0
   37.9450   33.5050   40.2830 H   0  0  0  0  0  0  0  0  0  0  0  0
   35.9320   32.0770   39.6230 H   0  0  0  0  0  0  0  0  0  0  0  0
   42.4630   34.1610   38.8290 C   0  0  0  0  0  0  0  0  0  0  0  0
   42.9080   34.0680   40.1510 C   0  0  0  0  0  0  0  0  0  0  0  0
   42.0910   33.3830   41.0580 C   0  0  0  0  0  0  0  0  0  0  0  0
   40.9110   32.8440   40.6070 N   0  0  0  0  0  0  0  0  0  0  0  0
   40.5270   32.9600   39.3260 C   0  0  0  0  0  0  0  0  0  0  0  0
   41.3080   33.6230   38.4310 N   0  0  0  0  0  0  0  0  0  0  0  0
   43.0600   34.6830   38.0840 H   0  0  0  0  0  0  0  0  0  0  0  0
   43.8330   34.4970   40.4680 H   0  0  0  0  0  0  0  0  0  0  0  0
   42.3810   33.2790   42.0840 H   0  0  0  0  0  0  0  0  0  0  0  0
   36.3560   28.5710   39.9910 C   0  0  0  0  0  0  0  0  0  0  0  0
   35.3370   28.9200   40.5800 O   0  0  0  0  0  0  0  0  0  0  0  0
   37.1930   28.3870   41.1360 C   0  0  0  0  0  0  0  0  0  0  0  0
   37.3330   29.2980   42.2040 C   0  0  0  0  0  3  0  0  0  0  0  0
   38.1610   29.2140   43.2990 C   0  0  0  0  0  0  0  0  0  0  0  0
   38.1580   29.9900   44.0360 H   0  0  0  0  0  0  0  0  0  0  0  0
   38.9260   28.1210   43.3450 N   0  0  0  0  0  0  0  0  0  0  0  0
   38.8670   27.2040   42.3870 C   0  0  0  0  0  3  0  0  0  0  0  0
   38.0380   27.3850   41.3810 N   0  0  0  0  0  0  0  0  0  0  0  0
  1  7  1  1  0  0  0
  1 20  1  0  0  0  0
  1  6  1  0  0  0  0
  2  1  1  0  0  0  0
  3 10  1  0  0  0  0
  3  2  1  0  0  0  0
  3  4  1  0  0  0  0
  4  5  1  0  0  0  0
  5 14  1  0  0  0  0
  5 15  1  0  0  0  0
  5  6  1  0  0  0  0
  6 16  1  6  0  0  0
  6 33  1  0  0  0  0
  8  2  1  0  0  0  0
  9  2  1  0  0  0  0
 11  3  1  0  0  0  0
 12  4  1  0  0  0  0
 13  4  1  0  0  0  0
 17 28  1  0  0  0  0
 17 18  2  0  0  0  0
 18 22  1  0  0  0  0
 19 18  1  0  0  0  0
 19 23  1  0  0  0  0
 20 19  2  0  0  0  0
 21 20  1  0  0  0  0
 21 17  1  0  0  0  0
 24 25  1  0  0  0  0
 25 31  1  0  0  0  0
 25 26  2  0  0  0  0
 26 32  1  0  0  0  0
 27 26  1  0  0  0  0
 28 27  2  0  0  0  0
 29 24  2  0  0  0  0
 29 28  1  0  0  0  0
 30 24  1  0  0  0  0
 33 34  2  0  0  0  0
 33 35  1  0  0  0  0
 35 41  2  0  0  0  0
 35 36  1  0  0  0  0
 36 37  2  0  0  0  0
 37 39  1  0  0  0  0
 37 38  1  0  0  0  0
 40 39  2  0  0  0  0
 41 40  1  0  0  0  0
M  END
>  <minimizedAffinity>
-5.3880291

$$$$

 OpenBabel03252509193D

 41 44  0  0  1  0  0  0  0  0999 V2000
   38.4610   29.5220   40.8530 C   0  0  1  0  0  0  0  0  0  0  0  0
   38.9300   30.9290   40.6460 C   0  0  0  0  0  0  0  0  0  0  0  0
   39.5780   31.5520   41.8520 C   0  0  0  0  0  0  0  0  0  0  0  0
   40.5280   30.6190   42.5500 C   0  0  0  0  0  0  0  0  0  0  0  0
   39.9490   29.2500   42.7380 C   0  0  0  0  0  0  0  0  0  0  0  0
   38.4490   29.2350   42.3730 C   0  0  2  0  0  0  0  0  0  0  0  0
   39.1620   28.8040   40.4230 H   0  0  0  0  0  0  0  0  0  0  0  0
   39.6800   30.9380   39.8090 H   0  0  0  0  0  0  0  0  0  0  0  0
   38.0910   31.5590   40.3130 H   0  0  0  0  0  0  0  0  0  0  0  0
   38.7730   31.8680   42.5600 H   0  0  0  0  0  0  0  0  0  0  0  0
   40.1150   32.4370   41.5120 H   0  0  0  0  0  0  0  0  0  0  0  0
   41.3940   30.4880   41.8390 H   0  0  0  0  0  0  0  0  0  0  0  0
   40.8900   31.0940   43.4650 H   0  0  0  0  0  0  0  0  0  0  0  0
   40.4580   28.4460   42.1950 H   0  0  0  0  0  0  0  0  0  0  0  0
   39.9570   29.0560   43.8380 H   0  0  0  0  0  0  0  0  0  0  0  0
   37.9360   30.0440   42.9300 H   0  0  0  0  0  0  0  0  0  0  0  0
   35.1210   28.5260   38.6960 C   0  0  0  0  0  0  0  0  0  0  0  0
   34.8250   29.2820   39.8350 C   0  0  0  0  0  0  0  0  0  0  0  0
   35.8430   29.6580   40.6130 C   0  0  0  0  0  0  0  0  0  0  0  0
   37.1690   29.2950   40.2760 C   0  0  0  0  0  0  0  0  0  0  0  0
   36.9580   28.3380   38.7340 S   0  0  0  0  0  0  0  0  0  0  0  0
   33.8070   29.5530   40.0760 H   0  0  0  0  0  0  0  0  0  0  0  0
   35.8010   30.2370   41.5210 H   0  0  0  0  0  0  0  0  0  0  0  0
   33.0750   26.5310   36.2980 C   0  0  0  0  0  0  0  0  0  0  0  0
   32.1500   27.4980   35.8930 C   0  0  0  0  0  0  0  0  0  0  0  0
   32.2590   28.7700   36.4640 C   0  0  0  0  0  0  0  0  0  0  0  0
   33.2570   29.0020   37.3780 N   0  0  0  0  0  0  0  0  0  0  0  0
   34.1230   28.0400   37.7340 C   0  0  0  0  0  0  0  0  0  0  0  0
   34.0320   26.7960   37.1910 N   0  0  0  0  0  0  0  0  0  0  0  0
   33.0350   25.5250   35.8850 H   0  0  0  0  0  0  0  0  0  0  0  0
   31.3860   27.2840   35.1780 H   0  0  0  0  0  0  0  0  0  0  0  0
   31.5780   29.5510   36.1910 H   0  0  0  0  0  0  0  0  0  0  0  0
   37.9100   27.9080   42.6280 C   0  0  0  0  0  0  0  0  0  0  0  0
   37.0020   27.7270   43.4340 O   0  0  0  0  0  0  0  0  0  0  0  0
   38.0790   26.5500   42.2120 C   0  0  0  0  0  0  0  0  0  0  0  0
   37.0440   25.6010   42.0710 C   0  0  0  0  0  3  0  0  0  0  0  0
   37.1420   24.2710   41.7360 C   0  0  0  0  0  0  0  0  0  0  0  0
   36.2600   23.6680   41.6660 H   0  0  0  0  0  0  0  0  0  0  0  0
   38.3840   23.8340   41.5180 N   0  0  0  0  0  0  0  0  0  0  0  0
   39.4260   24.6510   41.6250 C   0  0  0  0  0  3  0  0  0  0  0  0
   39.2180   25.9080   41.9530 N   0  0  0  0  0  0  0  0  0  0  0  0
  1  7  1  6  0  0  0
  1  6  1  0  0  0  0
  2  1  1  0  0  0  0
  2  3  1  0  0  0  0
  3  4  1  0  0  0  0
  3 10  1  0  0  0  0
  4  5  1  0  0  0  0
  4 13  1  0  0  0  0
  5 15  1  0  0  0  0
  6 33  1  0  0  0  0
  6  5  1  0  0  0  0
  6 16  1  1  0  0  0
  8  2  1  0  0  0  0
  9  2  1  0  0  0  0
 11  3  1  0  0  0  0
 12  4  1  0  0  0  0
 14  5  1  0  0  0  0
 17 21  1  0  0  0  0
 17 18  2  0  0  0  0
 18 22  1  0  0  0  0
 18 19  1  0  0  0  0
 19 23  1  0  0  0  0
 20 19  2  0  0  0  0
 20  1  1  0  0  0  0
 21 20  1  0  0  0  0
 24 29  1  0  0  0  0
 25 24  2  0  0  0  0
 25 26  1  0  0  0  0
 26 27  2  0  0  0  0
 27 28  1  0  0  0  0
 28 17  1  0  0  0  0
 29 28  2  0  0  0  0
 30 24  1  0  0  0  0
 31 25  1  0  0  0  0
 32 26  1  0  0  0  0
 33 34  2  0  0  0  0
 35 33  1  0  0  0  0
 36 35  1  0  0  0  0
 37 36  2  0  0  0  0
 38 37  1  0  0  0  0
 39 40  2  0  0  0  0
 39 37  1  0  0  0  0
 40 41  1  0  0  0  0
 41 35  2  0  0  0  0
M  END
>  <minimizedAffinity>
-5.34638977

$$$$
