
 OpenBabel03252507593D

 27 29  0  0  1  0  0  0  0  0999 V2000
   46.3040   34.7660   43.2290 C   0  0  0  0  0  0  0  0  0  0  0  0
   45.3540   35.7970   43.4990 C   0  0  0  0  0  0  0  0  0  0  0  0
   44.6340   35.6850   44.6960 C   0  0  0  0  0  0  0  0  0  0  0  0
   44.8830   34.6240   45.5030 N   0  0  0  0  0  0  0  0  0  0  0  0
   45.8120   33.6710   45.1740 C   0  0  0  0  0  0  0  0  0  0  0  0
   46.5260   33.7150   44.0630 N   0  0  0  0  0  0  0  0  0  0  0  0
   45.2110   36.6000   42.8220 H   0  0  0  0  0  0  0  0  0  0  0  0
   43.9020   36.4240   44.9670 H   0  0  0  0  0  0  0  0  0  0  0  0
   46.0370   32.5410   46.1250 C   0  0  1  0  0  0  0  0  0  0  0  0
   46.8250   32.7880   47.3910 C   0  0  0  0  0  0  0  0  0  0  0  0
   45.3270   32.6670   47.4140 C   0  0  1  0  0  0  0  0  0  0  0  0
   46.1080   31.5410   45.6620 H   0  0  0  0  0  0  0  0  0  0  0  0
   47.3150   33.7930   47.4020 H   0  0  0  0  0  0  0  0  0  0  0  0
   47.4750   31.9380   47.6770 H   0  0  0  0  0  0  0  0  0  0  0  0
   44.9670   31.7790   47.9760 H   0  0  0  0  0  0  0  0  0  0  0  0
   44.6890   33.9460   47.7570 N   0  0  0  0  0  0  0  0  0  0  0  0
   43.7000   33.8100   48.0700 H   0  0  0  0  0  0  0  0  0  0  0  0
   45.2790   34.4230   48.4690 H   0  0  0  0  0  0  0  0  0  0  0  0
   47.0270   34.9260   41.9930 C   0  0  0  0  0  0  0  0  0  0  0  0
   48.0780   35.6470   41.8800 O   0  0  0  0  0  0  0  0  0  0  0  0
   46.5790   34.2510   40.7780 C   0  0  0  0  0  0  0  0  0  0  0  0
   47.4650   33.9630   39.7620 C   0  0  0  0  0  3  0  0  0  0  0  0
   47.0000   33.3270   38.6400 C   0  0  0  0  0  0  0  0  0  0  0  0
   47.6850   33.0970   37.8360 H   0  0  0  0  0  0  0  0  0  0  0  0
   45.7040   33.0080   38.5710 N   0  0  0  0  0  0  0  0  0  0  0  0
   44.8140   33.2730   39.5400 C   0  0  0  0  0  3  0  0  0  0  0  0
   45.2890   33.8960   40.6330 N   0  0  0  0  0  0  0  0  0  0  0  0
  1  2  2  0  0  0  0
  1  6  1  0  0  0  0
  2  3  1  0  0  0  0
  3  8  1  0  0  0  0
  3  4  2  0  0  0  0
  5  4  1  0  0  0  0
  5  9  1  0  0  0  0
  6  5  2  0  0  0  0
  7  2  1  0  0  0  0
  9 12  1  6  0  0  0
  9 10  1  0  0  0  0
  9 11  1  0  0  0  0
 10 13  1  0  0  0  0
 10 11  1  0  0  0  0
 10 14  1  0  0  0  0
 11 16  1  0  0  0  0
 11 15  1  1  0  0  0
 16 17  1  0  0  0  0
 16 18  1  0  0  0  0
 19  1  1  0  0  0  0
 20 19  2  0  0  0  0
 21 19  1  0  0  0  0
 22 21  2  0  0  0  0
 23 22  1  0  0  0  0
 24 23  1  0  0  0  0
 25 23  2  0  0  0  0
 25 26  1  0  0  0  0
 26 27  2  0  0  0  0
 27 21  1  0  0  0  0
M  END
>  <minimizedAffinity>
-5.58609819

>  <minimizedRMSD>
0.522890925

$$$$
