
 OpenBabel03252502293D

 33 35  0  0  0  0  0  0  0  0999 V2000
   35.6280   29.0230   38.1920 C   0  0  0  0  0  0  0  0  0  0  0  0
   34.5170   28.2140   37.9820 C   0  0  0  0  0  0  0  0  0  0  0  0
   34.0840   28.0100   36.6720 C   0  0  0  0  0  0  0  0  0  0  0  0
   34.7670   28.6130   35.6310 C   0  0  0  0  0  0  0  0  0  0  0  0
   35.8650   29.4160   35.8230 C   0  0  0  0  0  0  0  0  0  0  0  0
   36.2730   29.5980   37.1460 C   0  0  0  0  0  0  0  0  0  0  0  0
   33.9900   27.7460   38.8000 H   0  0  0  0  0  0  0  0  0  0  0  0
   33.2170   27.3730   36.5580 H   0  0  0  0  0  0  0  0  0  0  0  0
   34.3830   28.4170   34.6330 H   0  0  0  0  0  0  0  0  0  0  0  0
   36.3940   29.8830   35.0160 H   0  0  0  0  0  0  0  0  0  0  0  0
   36.6800   28.4700   41.7690 C   0  0  0  0  0  0  0  0  0  0  0  0
   36.3130   28.1680   40.4460 C   0  0  0  0  0  0  0  0  0  0  0  0
   36.0230   29.1910   39.5880 C   0  0  0  0  0  0  0  0  0  0  0  0
   36.1080   30.4590   40.0710 N   0  0  0  0  0  0  0  0  0  0  0  0
   36.4610   30.7470   41.3420 C   0  0  0  0  0  0  0  0  0  0  0  0
   36.7490   29.7430   42.1970 N   0  0  0  0  0  0  0  0  0  0  0  0
   36.2530   27.1620   40.0880 H   0  0  0  0  0  0  0  0  0  0  0  0
   36.5070   31.7820   41.6560 H   0  0  0  0  0  0  0  0  0  0  0  0
   36.9990   27.3830   42.7160 C   0  0  0  0  0  0  0  0  0  0  0  0
   36.8370   26.1630   42.0380 F   0  0  0  0  0  0  0  0  0  0  0  0
   35.9860   27.3820   43.6770 F   0  0  0  0  0  0  0  0  0  0  0  0
   38.2400   27.4710   43.2650 F   0  0  0  0  0  0  0  0  0  0  0  0
   38.7920   30.1530   37.6330 C   0  0  0  0  0  0  0  0  0  0  0  0
   39.3440   29.0500   37.4720 O   0  0  0  0  0  0  0  0  0  0  0  0
   37.3930   30.3890   37.4820 N   0  0  0  0  0  0  0  0  0  0  0  0
   36.9870   31.3650   37.6410 H   0  0  0  0  0  0  0  0  0  0  0  0
   39.5760   31.3310   38.0040 C   0  0  0  0  0  0  0  0  0  0  0  0
   39.2480   32.0070   39.1590 C   0  0  0  0  0  3  0  0  0  0  0  0
   39.9740   33.1360   39.5470 C   0  0  0  0  0  0  0  0  0  0  0  0
   39.7100   33.6590   40.4550 H   0  0  0  0  0  0  0  0  0  0  0  0
   41.0170   33.5990   38.8030 N   0  0  0  0  0  0  0  0  0  0  0  0
   41.3020   32.9100   37.6830 C   0  0  0  0  0  3  0  0  0  0  0  0
   40.6120   31.8230   37.3000 N   0  0  0  0  0  0  0  0  0  0  0  0
  1 13  1  0  0  0  0
  2  1  1  0  0  0  0
  2  7  1  0  0  0  0
  3  2  2  0  0  0  0
  4  5  2  0  0  0  0
  4  3  1  0  0  0  0
  5  6  1  0  0  0  0
  6 25  1  0  0  0  0
  6  1  2  0  0  0  0
  8  3  1  0  0  0  0
  9  4  1  0  0  0  0
 10  5  1  0  0  0  0
 11 16  1  0  0  0  0
 11 19  1  0  0  0  0
 12 11  2  0  0  0  0
 13 14  2  0  0  0  0
 13 12  1  0  0  0  0
 14 15  1  0  0  0  0
 15 18  1  0  0  0  0
 15 16  2  0  0  0  0
 17 12  1  0  0  0  0
 19 22  1  0  0  0  0
 19 21  1  0  0  0  0
 20 19  1  0  0  0  0
 23 27  1  0  0  0  0
 24 23  2  0  0  0  0
 25 23  1  0  0  0  0
 25 26  1  0  0  0  0
 27 28  1  0  0  0  0
 28 29  2  0  0  0  0
 29 30  1  0  0  0  0
 31 29  1  0  0  0  0
 32 31  2  0  0  0  0
 33 32  1  0  0  0  0
 33 27  2  0  0  0  0
M  END
>  <minimizedAffinity>
-5.81374025

$$$$

 OpenBabel03252502293D

 33 35  0  0  0  0  0  0  0  0999 V2000
   36.8780   28.6710   39.9050 C   0  0  0  0  0  0  0  0  0  0  0  0
   35.8110   28.0000   39.3160 C   0  0  0  0  0  0  0  0  0  0  0  0
   35.2610   28.5270   38.1480 C   0  0  0  0  0  0  0  0  0  0  0  0
   35.7880   29.6890   37.6150 C   0  0  0  0  0  0  0  0  0  0  0  0
   36.8410   30.3630   38.1850 C   0  0  0  0  0  0  0  0  0  0  0  0
   37.3680   29.8090   39.3530 C   0  0  0  0  0  0  0  0  0  0  0  0
   35.4050   27.0940   39.7390 H   0  0  0  0  0  0  0  0  0  0  0  0
   34.4340   27.9710   37.7260 H   0  0  0  0  0  0  0  0  0  0  0  0
   35.3190   30.0510   36.7030 H   0  0  0  0  0  0  0  0  0  0  0  0
   37.2500   31.2640   37.7710 H   0  0  0  0  0  0  0  0  0  0  0  0
   38.3840   26.3330   42.4490 C   0  0  0  0  0  0  0  0  0  0  0  0
   37.9130   26.7980   41.2080 C   0  0  0  0  0  0  0  0  0  0  0  0
   37.4010   28.0620   41.1240 C   0  0  0  0  0  0  0  0  0  0  0  0
   37.3770   28.8060   42.2610 N   0  0  0  0  0  0  0  0  0  0  0  0
   37.8300   28.3590   43.4520 C   0  0  0  0  0  0  0  0  0  0  0  0
   38.3370   27.1110   43.5440 N   0  0  0  0  0  0  0  0  0  0  0  0
   37.9420   26.1940   40.3260 H   0  0  0  0  0  0  0  0  0  0  0  0
   37.7790   29.0090   44.3150 H   0  0  0  0  0  0  0  0  0  0  0  0
   38.9420   24.9720   42.5660 C   0  0  0  0  0  0  0  0  0  0  0  0
   39.6850   24.7110   41.4030 F   0  0  0  0  0  0  0  0  0  0  0  0
   37.8620   24.0900   42.4920 F   0  0  0  0  0  0  0  0  0  0  0  0
   39.7010   24.7760   43.6780 F   0  0  0  0  0  0  0  0  0  0  0  0
   38.7220   31.6670   40.6210 C   0  0  0  0  0  0  0  0  0  0  0  0
   37.9200   32.6180   40.6350 O   0  0  0  0  0  0  0  0  0  0  0  0
   38.4580   30.3930   40.0330 N   0  0  0  0  0  0  0  0  0  0  0  0
   39.1980   29.6230   40.0550 H   0  0  0  0  0  0  0  0  0  0  0  0
   40.0440   31.7990   41.2320 C   0  0  0  0  0  0  0  0  0  0  0  0
   40.3330   31.0490   42.3520 C   0  0  0  0  0  3  0  0  0  0  0  0
   41.5850   31.1470   42.9640 C   0  0  0  0  0  0  0  0  0  0  0  0
   41.8030   30.5550   43.8410 H   0  0  0  0  0  0  0  0  0  0  0  0
   42.5490   31.9790   42.4780 N   0  0  0  0  0  0  0  0  0  0  0  0
   42.2240   32.6930   41.3850 C   0  0  0  0  0  3  0  0  0  0  0  0
   41.0240   32.6060   40.7880 N   0  0  0  0  0  0  0  0  0  0  0  0
  1 13  1  0  0  0  0
  2  7  1  0  0  0  0
  2  1  2  0  0  0  0
  3  2  1  0  0  0  0
  4  3  2  0  0  0  0
  4  5  1  0  0  0  0
  5  6  2  0  0  0  0
  6  1  1  0  0  0  0
  6 25  1  0  0  0  0
  8  3  1  0  0  0  0
  9  4  1  0  0  0  0
 10  5  1  0  0  0  0
 11 19  1  0  0  0  0
 11 16  1  0  0  0  0
 12 11  2  0  0  0  0
 13 12  1  0  0  0  0
 13 14  2  0  0  0  0
 14 15  1  0  0  0  0
 15 16  2  0  0  0  0
 15 18  1  0  0  0  0
 17 12  1  0  0  0  0
 19 22  1  0  0  0  0
 20 19  1  0  0  0  0
 21 19  1  0  0  0  0
 23 24  2  0  0  0  0
 23 27  1  0  0  0  0
 25 26  1  0  0  0  0
 25 23  1  0  0  0  0
 27 28  1  0  0  0  0
 28 29  2  0  0  0  0
 29 30  1  0  0  0  0
 31 29  1  0  0  0  0
 32 31  2  0  0  0  0
 33 27  2  0  0  0  0
 33 32  1  0  0  0  0
M  END
>  <minimizedAffinity>
-5.73958969

$$$$

 OpenBabel03252502293D

 33 35  0  0  0  0  0  0  0  0999 V2000
   37.3940   31.2850   39.9930 C   0  0  0  0  0  0  0  0  0  0  0  0
   37.3400   32.6160   39.5910 C   0  0  0  0  0  0  0  0  0  0  0  0
   38.2890   33.5010   40.1030 C   0  0  0  0  0  0  0  0  0  0  0  0
   39.2450   33.0330   40.9860 C   0  0  0  0  0  0  0  0  0  0  0  0
   39.3100   31.7220   41.3920 C   0  0  0  0  0  0  0  0  0  0  0  0
   38.3470   30.8630   40.8610 C   0  0  0  0  0  0  0  0  0  0  0  0
   36.5910   32.9720   38.9020 H   0  0  0  0  0  0  0  0  0  0  0  0
   38.2080   34.5240   39.7620 H   0  0  0  0  0  0  0  0  0  0  0  0
   39.9580   33.7690   41.3510 H   0  0  0  0  0  0  0  0  0  0  0  0
   40.0520   31.3600   42.0770 H   0  0  0  0  0  0  0  0  0  0  0  0
   35.2310   29.2550   37.6670 C   0  0  0  0  0  0  0  0  0  0  0  0
   36.2690   30.1040   38.0910 C   0  0  0  0  0  0  0  0  0  0  0  0
   36.3710   30.4180   39.4170 C   0  0  0  0  0  0  0  0  0  0  0  0
   35.4500   29.8830   40.2610 N   0  0  0  0  0  0  0  0  0  0  0  0
   34.4530   29.0670   39.8530 C   0  0  0  0  0  0  0  0  0  0  0  0
   34.3450   28.7520   38.5450 N   0  0  0  0  0  0  0  0  0  0  0  0
   36.9830   30.5130   37.4080 H   0  0  0  0  0  0  0  0  0  0  0  0
   33.7560   28.6790   40.5840 H   0  0  0  0  0  0  0  0  0  0  0  0
   35.1000   28.9000   36.2410 C   0  0  0  0  0  0  0  0  0  0  0  0
   33.8630   29.3900   35.7890 F   0  0  0  0  0  0  0  0  0  0  0  0
   34.9630   27.5110   36.1860 F   0  0  0  0  0  0  0  0  0  0  0  0
   36.1150   29.3560   35.4590 F   0  0  0  0  0  0  0  0  0  0  0  0
   38.0860   28.7350   42.3760 C   0  0  0  0  0  0  0  0  0  0  0  0
   37.8580   29.2310   43.4940 O   0  0  0  0  0  0  0  0  0  0  0  0
   38.3080   29.4900   41.1850 N   0  0  0  0  0  0  0  0  0  0  0  0
   38.5030   28.9950   40.2590 H   0  0  0  0  0  0  0  0  0  0  0  0
   38.1450   27.2840   42.2030 C   0  0  0  0  0  0  0  0  0  0  0  0
   37.1510   26.6630   41.4780 C   0  0  0  0  0  3  0  0  0  0  0  0
   37.1720   25.2790   41.2910 C   0  0  0  0  0  0  0  0  0  0  0  0
   36.3880   24.8010   40.7210 H   0  0  0  0  0  0  0  0  0  0  0  0
   38.1670   24.5080   41.8130 N   0  0  0  0  0  0  0  0  0  0  0  0
   39.1160   25.1540   42.5140 C   0  0  0  0  0  3  0  0  0  0  0  0
   39.1060   26.4840   42.7000 N   0  0  0  0  0  0  0  0  0  0  0  0
  1  6  1  0  0  0  0
  2  1  2  0  0  0  0
  2  3  1  0  0  0  0
  3  4  2  0  0  0  0
  4  9  1  0  0  0  0
  4  5  1  0  0  0  0
  5 10  1  0  0  0  0
  6 25  1  0  0  0  0
  6  5  2  0  0  0  0
  7  2  1  0  0  0  0
  8  3  1  0  0  0  0
 11 12  2  0  0  0  0
 11 16  1  0  0  0  0
 12 13  1  0  0  0  0
 13  1  1  0  0  0  0
 13 14  2  0  0  0  0
 15 14  1  0  0  0  0
 15 18  1  0  0  0  0
 16 15  2  0  0  0  0
 17 12  1  0  0  0  0
 19 11  1  0  0  0  0
 20 19  1  0  0  0  0
 21 19  1  0  0  0  0
 22 19  1  0  0  0  0
 23 24  2  0  0  0  0
 25 23  1  0  0  0  0
 26 25  1  0  0  0  0
 27 23  1  0  0  0  0
 27 33  1  0  0  0  0
 28 27  2  0  0  0  0
 29 28  1  0  0  0  0
 29 31  2  0  0  0  0
 30 29  1  0  0  0  0
 31 32  1  0  0  0  0
 32 33  2  0  0  0  0
M  END
>  <minimizedAffinity>
-5.61756992

$$$$

 OpenBabel03252502293D

 33 35  0  0  0  0  0  0  0  0999 V2000
   37.4650   29.1850   41.5200 C   0  0  0  0  0  0  0  0  0  0  0  0
   36.4490   28.2520   41.6990 C   0  0  0  0  0  0  0  0  0  0  0  0
   36.5180   27.4010   42.8010 C   0  0  0  0  0  0  0  0  0  0  0  0
   37.5850   27.5100   43.6760 C   0  0  0  0  0  0  0  0  0  0  0  0
   38.5950   28.4260   43.5110 C   0  0  0  0  0  0  0  0  0  0  0  0
   38.4960   29.2620   42.3980 C   0  0  0  0  0  0  0  0  0  0  0  0
   35.6200   28.1740   41.0120 H   0  0  0  0  0  0  0  0  0  0  0  0
   35.7060   26.6930   42.9000 H   0  0  0  0  0  0  0  0  0  0  0  0
   37.5840   26.8210   44.5170 H   0  0  0  0  0  0  0  0  0  0  0  0
   39.4220   28.5100   44.1890 H   0  0  0  0  0  0  0  0  0  0  0  0
   37.0910   30.5230   38.0160 C   0  0  0  0  0  0  0  0  0  0  0  0
   37.2180   29.5890   39.0590 C   0  0  0  0  0  0  0  0  0  0  0  0
   37.3260   30.0400   40.3450 C   0  0  0  0  0  0  0  0  0  0  0  0
   37.3030   31.3850   40.5420 N   0  0  0  0  0  0  0  0  0  0  0  0
   37.1810   32.2810   39.5390 C   0  0  0  0  0  0  0  0  0  0  0  0
   37.0740   31.8440   38.2660 N   0  0  0  0  0  0  0  0  0  0  0  0
   37.2330   28.5350   38.8800 H   0  0  0  0  0  0  0  0  0  0  0  0
   37.1700   33.3370   39.7730 H   0  0  0  0  0  0  0  0  0  0  0  0
   36.9720   30.0620   36.6190 C   0  0  0  0  0  0  0  0  0  0  0  0
   37.0890   31.1860   35.7850 F   0  0  0  0  0  0  0  0  0  0  0  0
   35.6510   29.6410   36.4490 F   0  0  0  0  0  0  0  0  0  0  0  0
   37.8740   29.1060   36.2710 F   0  0  0  0  0  0  0  0  0  0  0  0
   40.8560   30.4100   42.3660 C   0  0  0  0  0  0  0  0  0  0  0  0
   41.5660   29.5770   42.9590 O   0  0  0  0  0  0  0  0  0  0  0  0
   39.4590   30.2550   42.1180 N   0  0  0  0  0  0  0  0  0  0  0  0
   38.9120   31.0160   41.6060 H   0  0  0  0  0  0  0  0  0  0  0  0
   41.4330   31.6570   41.8640 C   0  0  0  0  0  0  0  0  0  0  0  0
   42.6870   32.0280   42.2980 C   0  0  0  0  0  3  0  0  0  0  0  0
   43.2720   33.2120   41.8410 C   0  0  0  0  0  0  0  0  0  0  0  0
   44.2560   33.4950   42.1870 H   0  0  0  0  0  0  0  0  0  0  0  0
   42.6260   34.0280   40.9610 N   0  0  0  0  0  0  0  0  0  0  0  0
   41.4040   33.6280   40.5640 C   0  0  0  0  0  3  0  0  0  0  0  0
   40.8330   32.4920   40.9970 N   0  0  0  0  0  0  0  0  0  0  0  0
  1  2  2  0  0  0  0
  1  6  1  0  0  0  0
  2  3  1  0  0  0  0
  3  8  1  0  0  0  0
  3  4  2  0  0  0  0
  4  9  1  0  0  0  0
  5  4  1  0  0  0  0
  5 10  1  0  0  0  0
  6  5  2  0  0  0  0
  7  2  1  0  0  0  0
 11 16  2  0  0  0  0
 11 12  1  0  0  0  0
 12 13  2  0  0  0  0
 13 14  1  0  0  0  0
 13  1  1  0  0  0  0
 15 18  1  0  0  0  0
 15 14  2  0  0  0  0
 16 15  1  0  0  0  0
 17 12  1  0  0  0  0
 19 11  1  0  0  0  0
 20 19  1  0  0  0  0
 21 19  1  0  0  0  0
 22 19  1  0  0  0  0
 23 24  2  0  0  0  0
 25 23  1  0  0  0  0
 25  6  1  0  0  0  0
 26 25  1  0  0  0  0
 27 28  1  0  0  0  0
 27 23  1  0  0  0  0
 29 30  1  0  0  0  0
 29 28  2  0  0  0  0
 31 29  1  0  0  0  0
 32 31  2  0  0  0  0
 32 33  1  0  0  0  0
 33 27  2  0  0  0  0
M  END
>  <minimizedAffinity>
-5.58309221

$$$$

 OpenBabel03252502293D

 33 35  0  0  0  0  0  0  0  0999 V2000
   35.7410   27.8220   38.7570 C   0  0  0  0  0  0  0  0  0  0  0  0
   34.8050   27.9300   37.7330 C   0  0  0  0  0  0  0  0  0  0  0  0
   34.3990   26.7670   37.0810 C   0  0  0  0  0  0  0  0  0  0  0  0
   34.9350   25.5510   37.4680 C   0  0  0  0  0  0  0  0  0  0  0  0
   35.8600   25.4290   38.4760 C   0  0  0  0  0  0  0  0  0  0  0  0
   36.2440   26.6120   39.1090 C   0  0  0  0  0  0  0  0  0  0  0  0
   34.3920   28.8830   37.4380 H   0  0  0  0  0  0  0  0  0  0  0  0
   33.6700   26.9000   36.2930 H   0  0  0  0  0  0  0  0  0  0  0  0
   34.5800   24.6790   36.9230 H   0  0  0  0  0  0  0  0  0  0  0  0
   36.2750   24.4860   38.7760 H   0  0  0  0  0  0  0  0  0  0  0  0
   37.0170   31.2940   39.4840 C   0  0  0  0  0  0  0  0  0  0  0  0
   36.7020   30.1360   38.7500 C   0  0  0  0  0  0  0  0  0  0  0  0
   36.1180   29.0810   39.3930 C   0  0  0  0  0  0  0  0  0  0  0  0
   35.8710   29.2150   40.7220 N   0  0  0  0  0  0  0  0  0  0  0  0
   36.1730   30.3270   41.4260 C   0  0  0  0  0  0  0  0  0  0  0  0
   36.7510   31.3740   40.7990 N   0  0  0  0  0  0  0  0  0  0  0  0
   36.9060   30.0530   37.7030 H   0  0  0  0  0  0  0  0  0  0  0  0
   35.9460   30.3620   42.4830 H   0  0  0  0  0  0  0  0  0  0  0  0
   37.6480   32.4470   38.8130 C   0  0  0  0  0  0  0  0  0  0  0  0
   37.0960   33.6160   39.3610 F   0  0  0  0  0  0  0  0  0  0  0  0
   37.1960   32.4360   37.4920 F   0  0  0  0  0  0  0  0  0  0  0  0
   39.0050   32.4660   38.9000 F   0  0  0  0  0  0  0  0  0  0  0  0
   37.3470   25.8940   41.3800 C   0  0  0  0  0  0  0  0  0  0  0  0
   36.5900   24.9860   41.7680 O   0  0  0  0  0  0  0  0  0  0  0  0
   37.1770   26.6270   40.1670 N   0  0  0  0  0  0  0  0  0  0  0  0
   37.8660   27.3990   39.9000 H   0  0  0  0  0  0  0  0  0  0  0  0
   38.5090   26.2870   42.1770 C   0  0  0  0  0  0  0  0  0  0  0  0
   38.8250   27.6240   42.2710 C   0  0  0  0  0  3  0  0  0  0  0  0
   39.9280   28.0390   43.0220 C   0  0  0  0  0  0  0  0  0  0  0  0
   40.1690   29.0900   43.0910 H   0  0  0  0  0  0  0  0  0  0  0  0
   40.7170   27.1410   43.6780 N   0  0  0  0  0  0  0  0  0  0  0  0
   40.3730   25.8460   43.5580 C   0  0  0  0  0  3  0  0  0  0  0  0
   39.3150   25.4370   42.8390 N   0  0  0  0  0  0  0  0  0  0  0  0
  1  6  1  0  0  0  0
  1 13  1  0  0  0  0
  2  1  2  0  0  0  0
  3  4  2  0  0  0  0
  3  2  1  0  0  0  0
  4  5  1  0  0  0  0
  5 10  1  0  0  0  0
  5  6  2  0  0  0  0
  6 25  1  0  0  0  0
  7  2  1  0  0  0  0
  8  3  1  0  0  0  0
  9  4  1  0  0  0  0
 11 16  1  0  0  0  0
 12 13  1  0  0  0  0
 12 11  2  0  0  0  0
 13 14  2  0  0  0  0
 14 15  1  0  0  0  0
 15 18  1  0  0  0  0
 16 15  2  0  0  0  0
 17 12  1  0  0  0  0
 19 22  1  0  0  0  0
 19 20  1  0  0  0  0
 19 11  1  0  0  0  0
 21 19  1  0  0  0  0
 23 24  2  0  0  0  0
 23 27  1  0  0  0  0
 25 23  1  0  0  0  0
 26 25  1  0  0  0  0
 27 28  2  0  0  0  0
 27 33  1  0  0  0  0
 28 29  1  0  0  0  0
 29 30  1  0  0  0  0
 29 31  2  0  0  0  0
 32 31  1  0  0  0  0
 33 32  2  0  0  0  0
M  END
>  <minimizedAffinity>
-5.55023098

$$$$

 OpenBabel03252502293D

 33 35  0  0  0  0  0  0  0  0999 V2000
   37.7610   31.2350   39.6560 C   0  0  0  0  0  0  0  0  0  0  0  0
   37.4300   32.4860   39.1480 C   0  0  0  0  0  0  0  0  0  0  0  0
   37.9560   33.6160   39.7730 C   0  0  0  0  0  0  0  0  0  0  0  0
   38.7830   33.4590   40.8710 C   0  0  0  0  0  0  0  0  0  0  0  0
   39.1190   32.2300   41.3850 C   0  0  0  0  0  0  0  0  0  0  0  0
   38.5760   31.1200   40.7350 C   0  0  0  0  0  0  0  0  0  0  0  0
   36.7840   32.6000   38.2910 H   0  0  0  0  0  0  0  0  0  0  0  0
   37.6720   34.5660   39.3420 H   0  0  0  0  0  0  0  0  0  0  0  0
   39.1630   34.3760   41.3160 H   0  0  0  0  0  0  0  0  0  0  0  0
   39.7600   32.1090   42.2360 H   0  0  0  0  0  0  0  0  0  0  0  0
   35.4000   28.7670   38.0610 C   0  0  0  0  0  0  0  0  0  0  0  0
   35.8340   29.9080   38.7590 C   0  0  0  0  0  0  0  0  0  0  0  0
   37.1740   30.0990   38.9510 C   0  0  0  0  0  0  0  0  0  0  0  0
   38.0200   29.1620   38.4490 N   0  0  0  0  0  0  0  0  0  0  0  0
   37.6020   28.0670   37.7780 C   0  0  0  0  0  0  0  0  0  0  0  0
   36.2810   27.8690   37.5840 N   0  0  0  0  0  0  0  0  0  0  0  0
   35.1490   30.6320   39.1460 H   0  0  0  0  0  0  0  0  0  0  0  0
   38.3350   27.3630   37.4070 H   0  0  0  0  0  0  0  0  0  0  0  0
   33.9600   28.5370   37.8400 C   0  0  0  0  0  0  0  0  0  0  0  0
   33.5450   29.3860   36.8010 F   0  0  0  0  0  0  0  0  0  0  0  0
   33.3000   29.0240   38.9700 F   0  0  0  0  0  0  0  0  0  0  0  0
   33.6390   27.2440   37.5650 F   0  0  0  0  0  0  0  0  0  0  0  0
   38.3580   28.9390   42.1800 C   0  0  0  0  0  0  0  0  0  0  0  0
   37.4790   29.2520   43.0040 O   0  0  0  0  0  0  0  0  0  0  0  0
   38.8490   29.8000   41.1530 N   0  0  0  0  0  0  0  0  0  0  0  0
   39.6100   29.4640   40.4820 H   0  0  0  0  0  0  0  0  0  0  0  0
   38.9720   27.6120   42.2140 C   0  0  0  0  0  0  0  0  0  0  0  0
   39.2360   27.0370   43.4380 C   0  0  0  0  0  3  0  0  0  0  0  0
   39.8220   25.7700   43.5110 C   0  0  0  0  0  0  0  0  0  0  0  0
   40.0250   25.3260   44.4750 H   0  0  0  0  0  0  0  0  0  0  0  0
   40.1470   25.0730   42.3860 N   0  0  0  0  0  0  0  0  0  0  0  0
   39.8730   25.6720   41.2130 C   0  0  0  0  0  3  0  0  0  0  0  0
   39.3100   26.8890   41.1310 N   0  0  0  0  0  0  0  0  0  0  0  0
  1  6  1  0  0  0  0
  2  1  2  0  0  0  0
  2  3  1  0  0  0  0
  3  4  2  0  0  0  0
  4  9  1  0  0  0  0
  4  5  1  0  0  0  0
  5 10  1  0  0  0  0
  6 25  1  0  0  0  0
  6  5  2  0  0  0  0
  7  2  1  0  0  0  0
  8  3  1  0  0  0  0
 11 12  1  0  0  0  0
 12 13  2  0  0  0  0
 12 17  1  0  0  0  0
 13  1  1  0  0  0  0
 14 13  1  0  0  0  0
 15 14  2  0  0  0  0
 16 15  1  0  0  0  0
 16 11  2  0  0  0  0
 18 15  1  0  0  0  0
 19 11  1  0  0  0  0
 19 21  1  0  0  0  0
 20 19  1  0  0  0  0
 22 19  1  0  0  0  0
 23 27  1  0  0  0  0
 23 24  2  0  0  0  0
 25 23  1  0  0  0  0
 26 25  1  0  0  0  0
 27 28  1  0  0  0  0
 28 29  2  0  0  0  0
 29 30  1  0  0  0  0
 31 29  1  0  0  0  0
 32 31  2  0  0  0  0
 33 32  1  0  0  0  0
 33 27  2  0  0  0  0
M  END
>  <minimizedAffinity>
-5.51647234

$$$$

 OpenBabel03252502293D

 33 35  0  0  0  0  0  0  0  0999 V2000
   35.8820   27.8390   38.3310 C   0  0  0  0  0  0  0  0  0  0  0  0
   35.1630   26.7080   37.9600 C   0  0  0  0  0  0  0  0  0  0  0  0
   34.1880   26.8380   36.9710 C   0  0  0  0  0  0  0  0  0  0  0  0
   33.9670   28.0760   36.3960 C   0  0  0  0  0  0  0  0  0  0  0  0
   34.6690   29.2020   36.7520 C   0  0  0  0  0  0  0  0  0  0  0  0
   35.6380   29.0370   37.7430 C   0  0  0  0  0  0  0  0  0  0  0  0
   35.3410   25.7450   38.4140 H   0  0  0  0  0  0  0  0  0  0  0  0
   33.6550   25.9310   36.7150 H   0  0  0  0  0  0  0  0  0  0  0  0
   33.1950   28.1150   35.6310 H   0  0  0  0  0  0  0  0  0  0  0  0
   34.4980   30.1620   36.3060 H   0  0  0  0  0  0  0  0  0  0  0  0
   37.7220   27.5500   41.6080 C   0  0  0  0  0  0  0  0  0  0  0  0
   36.6660   27.7860   40.7100 C   0  0  0  0  0  0  0  0  0  0  0  0
   36.8850   27.6270   39.3710 C   0  0  0  0  0  0  0  0  0  0  0  0
   38.1290   27.2440   38.9790 N   0  0  0  0  0  0  0  0  0  0  0  0
   39.1420   27.0170   39.8420 C   0  0  0  0  0  0  0  0  0  0  0  0
   38.9350   27.1720   41.1670 N   0  0  0  0  0  0  0  0  0  0  0  0
   35.6940   28.0870   41.0420 H   0  0  0  0  0  0  0  0  0  0  0  0
   40.1070   26.7140   39.4570 H   0  0  0  0  0  0  0  0  0  0  0  0
   37.5120   27.7140   43.0590 C   0  0  0  0  0  0  0  0  0  0  0  0
   37.3820   29.0880   43.3210 F   0  0  0  0  0  0  0  0  0  0  0  0
   38.7100   27.3550   43.6800 F   0  0  0  0  0  0  0  0  0  0  0  0
   36.4450   27.0260   43.5470 F   0  0  0  0  0  0  0  0  0  0  0  0
   37.7160   30.6390   37.8440 C   0  0  0  0  0  0  0  0  0  0  0  0
   38.4510   30.1780   36.9520 O   0  0  0  0  0  0  0  0  0  0  0  0
   36.4380   30.1090   38.1950 N   0  0  0  0  0  0  0  0  0  0  0  0
   35.8630   30.5550   38.9770 H   0  0  0  0  0  0  0  0  0  0  0  0
   38.1330   31.8030   38.6250 C   0  0  0  0  0  0  0  0  0  0  0  0
   37.1670   32.6680   39.0900 C   0  0  0  0  0  3  0  0  0  0  0  0
   37.5260   33.7910   39.8390 C   0  0  0  0  0  0  0  0  0  0  0  0
   36.7620   34.4640   40.2000 H   0  0  0  0  0  0  0  0  0  0  0  0
   38.8290   34.0620   40.1300 N   0  0  0  0  0  0  0  0  0  0  0  0
   39.7400   33.1930   39.6560 C   0  0  0  0  0  3  0  0  0  0  0  0
   39.4060   32.1100   38.9350 N   0  0  0  0  0  0  0  0  0  0  0  0
  1 13  1  0  0  0  0
  2  1  1  0  0  0  0
  2  7  1  0  0  0  0
  3  2  2  0  0  0  0
  4  5  2  0  0  0  0
  4  3  1  0  0  0  0
  5  6  1  0  0  0  0
  6 25  1  0  0  0  0
  6  1  2  0  0  0  0
  8  3  1  0  0  0  0
  9  4  1  0  0  0  0
 10  5  1  0  0  0  0
 11 19  1  0  0  0  0
 12 17  1  0  0  0  0
 12 11  2  0  0  0  0
 13 12  1  0  0  0  0
 14 13  2  0  0  0  0
 14 15  1  0  0  0  0
 15 16  2  0  0  0  0
 16 11  1  0  0  0  0
 18 15  1  0  0  0  0
 19 20  1  0  0  0  0
 19 22  1  0  0  0  0
 19 21  1  0  0  0  0
 23 25  1  0  0  0  0
 23 27  1  0  0  0  0
 24 23  2  0  0  0  0
 25 26  1  0  0  0  0
 27 33  2  0  0  0  0
 27 28  1  0  0  0  0
 28 29  2  0  0  0  0
 29 31  1  0  0  0  0
 29 30  1  0  0  0  0
 32 31  2  0  0  0  0
 33 32  1  0  0  0  0
M  END
>  <minimizedAffinity>
-5.49059534

$$$$

 OpenBabel03252502293D

 33 35  0  0  0  0  0  0  0  0999 V2000
   36.9090   26.7430   40.9510 C   0  0  0  0  0  0  0  0  0  0  0  0
   37.0870   26.1070   42.1750 C   0  0  0  0  0  0  0  0  0  0  0  0
   37.0170   24.7150   42.2140 C   0  0  0  0  0  0  0  0  0  0  0  0
   36.7730   24.0150   41.0470 C   0  0  0  0  0  0  0  0  0  0  0  0
   36.5940   24.6290   39.8310 C   0  0  0  0  0  0  0  0  0  0  0  0
   36.6710   26.0230   39.8260 C   0  0  0  0  0  0  0  0  0  0  0  0
   37.2770   26.6610   43.0810 H   0  0  0  0  0  0  0  0  0  0  0  0
   37.1630   24.2650   43.1880 H   0  0  0  0  0  0  0  0  0  0  0  0
   36.7300   22.9330   41.1400 H   0  0  0  0  0  0  0  0  0  0  0  0
   36.4050   24.0870   38.9250 H   0  0  0  0  0  0  0  0  0  0  0  0
   38.0550   30.3130   41.3420 C   0  0  0  0  0  0  0  0  0  0  0  0
   38.1070   28.9070   41.3500 C   0  0  0  0  0  0  0  0  0  0  0  0
   36.9950   28.2000   40.9860 C   0  0  0  0  0  0  0  0  0  0  0  0
   35.8900   28.9070   40.6310 N   0  0  0  0  0  0  0  0  0  0  0  0
   35.8420   30.2560   40.6230 C   0  0  0  0  0  0  0  0  0  0  0  0
   36.9350   30.9630   40.9810 N   0  0  0  0  0  0  0  0  0  0  0  0
   38.9880   28.3720   41.6340 H   0  0  0  0  0  0  0  0  0  0  0  0
   34.9260   30.7510   40.3280 H   0  0  0  0  0  0  0  0  0  0  0  0
   39.2410   31.1000   41.7300 C   0  0  0  0  0  0  0  0  0  0  0  0
   38.9740   32.4480   41.4430 F   0  0  0  0  0  0  0  0  0  0  0  0
   40.2600   30.7510   40.8420 F   0  0  0  0  0  0  0  0  0  0  0  0
   39.6080   30.9460   43.0310 F   0  0  0  0  0  0  0  0  0  0  0  0
   35.5440   26.8430   37.6000 C   0  0  0  0  0  0  0  0  0  0  0  0
   34.5170   26.1420   37.5480 O   0  0  0  0  0  0  0  0  0  0  0  0
   36.5170   26.7780   38.6430 N   0  0  0  0  0  0  0  0  0  0  0  0
   37.3790   27.4090   38.6190 H   0  0  0  0  0  0  0  0  0  0  0  0
   35.8340   27.8200   36.5510 C   0  0  0  0  0  0  0  0  0  0  0  0
   36.3540   29.0440   36.9120 C   0  0  0  0  0  3  0  0  0  0  0  0
   36.6430   30.0030   35.9380 C   0  0  0  0  0  0  0  0  0  0  0  0
   37.0510   30.9600   36.2300 H   0  0  0  0  0  0  0  0  0  0  0  0
   36.4230   29.7600   34.6160 N   0  0  0  0  0  0  0  0  0  0  0  0
   35.9130   28.5530   34.3080 C   0  0  0  0  0  3  0  0  0  0  0  0
   35.6310   27.6240   35.2350 N   0  0  0  0  0  0  0  0  0  0  0  0
  1 13  1  0  0  0  0
  1  2  1  0  0  0  0
  2  3  2  0  0  0  0
  2  7  1  0  0  0  0
  3  8  1  0  0  0  0
  4  9  1  0  0  0  0
  4  3  1  0  0  0  0
  5  4  2  0  0  0  0
  6  5  1  0  0  0  0
  6  1  2  0  0  0  0
 10  5  1  0  0  0  0
 11 12  1  0  0  0  0
 11 19  1  0  0  0  0
 12 17  1  0  0  0  0
 13 12  2  0  0  0  0
 14 13  1  0  0  0  0
 15 14  2  0  0  0  0
 15 16  1  0  0  0  0
 16 11  2  0  0  0  0
 18 15  1  0  0  0  0
 19 22  1  0  0  0  0
 20 19  1  0  0  0  0
 21 19  1  0  0  0  0
 23 25  1  0  0  0  0
 24 23  2  0  0  0  0
 25  6  1  0  0  0  0
 26 25  1  0  0  0  0
 27 28  1  0  0  0  0
 27 23  1  0  0  0  0
 29 30  1  0  0  0  0
 29 28  2  0  0  0  0
 31 29  1  0  0  0  0
 32 31  2  0  0  0  0
 32 33  1  0  0  0  0
 33 27  2  0  0  0  0
M  END
>  <minimizedAffinity>
-5.3998332

$$$$

 OpenBabel03252502293D

 33 35  0  0  0  0  0  0  0  0999 V2000
   36.8250   26.2300   39.8170 C   0  0  0  0  0  0  0  0  0  0  0  0
   36.5110   24.8780   39.7300 C   0  0  0  0  0  0  0  0  0  0  0  0
   36.5470   24.1140   40.8960 C   0  0  0  0  0  0  0  0  0  0  0  0
   36.8910   24.7180   42.0920 C   0  0  0  0  0  0  0  0  0  0  0  0
   37.2030   26.0520   42.1930 C   0  0  0  0  0  0  0  0  0  0  0  0
   37.1570   26.7880   41.0080 C   0  0  0  0  0  0  0  0  0  0  0  0
   36.2450   24.4140   38.7930 H   0  0  0  0  0  0  0  0  0  0  0  0
   36.2950   23.0680   40.7800 H   0  0  0  0  0  0  0  0  0  0  0  0
   36.9010   24.0720   42.9670 H   0  0  0  0  0  0  0  0  0  0  0  0
   37.4690   26.5210   43.1200 H   0  0  0  0  0  0  0  0  0  0  0  0
   35.7030   28.0920   36.7370 C   0  0  0  0  0  0  0  0  0  0  0  0
   35.6170   27.3920   37.9540 C   0  0  0  0  0  0  0  0  0  0  0  0
   36.7670   26.9660   38.5570 C   0  0  0  0  0  0  0  0  0  0  0  0
   37.9430   27.2490   37.9370 N   0  0  0  0  0  0  0  0  0  0  0  0
   38.0240   27.9210   36.7690 C   0  0  0  0  0  0  0  0  0  0  0  0
   36.8930   28.3450   36.1660 N   0  0  0  0  0  0  0  0  0  0  0  0
   34.6800   27.1810   38.4240 H   0  0  0  0  0  0  0  0  0  0  0  0
   38.9960   28.1100   36.3340 H   0  0  0  0  0  0  0  0  0  0  0  0
   34.4760   28.5630   36.0660 C   0  0  0  0  0  0  0  0  0  0  0  0
   34.8590   29.4400   35.0380 F   0  0  0  0  0  0  0  0  0  0  0  0
   33.8060   29.3760   36.9830 F   0  0  0  0  0  0  0  0  0  0  0  0
   33.6890   27.5650   35.5820 F   0  0  0  0  0  0  0  0  0  0  0  0
   36.6680   29.3670   40.9310 C   0  0  0  0  0  0  0  0  0  0  0  0
   35.4240   29.4010   40.9150 O   0  0  0  0  0  0  0  0  0  0  0  0
   37.4440   28.1700   40.9730 N   0  0  0  0  0  0  0  0  0  0  0  0
   38.5120   28.2170   40.9800 H   0  0  0  0  0  0  0  0  0  0  0  0
   37.4480   30.6040   40.9070 C   0  0  0  0  0  0  0  0  0  0  0  0
   38.6970   30.6100   41.4890 C   0  0  0  0  0  3  0  0  0  0  0  0
   39.4720   31.7720   41.4860 C   0  0  0  0  0  0  0  0  0  0  0  0
   40.4500   31.7680   41.9450 H   0  0  0  0  0  0  0  0  0  0  0  0
   39.0210   32.9240   40.9130 N   0  0  0  0  0  0  0  0  0  0  0  0
   37.7970   32.8740   40.3570 C   0  0  0  0  0  3  0  0  0  0  0  0
   37.0440   31.7620   40.3540 N   0  0  0  0  0  0  0  0  0  0  0  0
  1  6  1  0  0  0  0
  2  1  2  0  0  0  0
  2  3  1  0  0  0  0
  3  4  2  0  0  0  0
  4  5  1  0  0  0  0
  4  9  1  0  0  0  0
  5 10  1  0  0  0  0
  6  5  2  0  0  0  0
  7  2  1  0  0  0  0
  8  3  1  0  0  0  0
 11 12  1  0  0  0  0
 12 17  1  0  0  0  0
 12 13  2  0  0  0  0
 13  1  1  0  0  0  0
 14 13  1  0  0  0  0
 15 14  2  0  0  0  0
 16 11  2  0  0  0  0
 16 15  1  0  0  0  0
 18 15  1  0  0  0  0
 19 11  1  0  0  0  0
 19 21  1  0  0  0  0
 20 19  1  0  0  0  0
 22 19  1  0  0  0  0
 23 25  1  0  0  0  0
 24 23  2  0  0  0  0
 25 26  1  0  0  0  0
 25  6  1  0  0  0  0
 27 23  1  0  0  0  0
 27 28  1  0  0  0  0
 29 28  2  0  0  0  0
 29 30  1  0  0  0  0
 31 29  1  0  0  0  0
 32 31  2  0  0  0  0
 33 32  1  0  0  0  0
 33 27  2  0  0  0  0
M  END
>  <minimizedAffinity>
-5.36149359

$$$$
