
 OpenBabel03252507593D

 27 29  0  0  1  0  0  0  0  0999 V2000
   46.6570   34.7850   43.0630 C   0  0  0  0  0  0  0  0  0  0  0  0
   45.5990   35.7280   43.2350 C   0  0  0  0  0  0  0  0  0  0  0  0
   44.7530   35.5260   44.3340 C   0  0  0  0  0  0  0  0  0  0  0  0
   44.9910   34.4660   45.1460 N   0  0  0  0  0  0  0  0  0  0  0  0
   46.0290   33.6010   44.9150 C   0  0  0  0  0  0  0  0  0  0  0  0
   46.8650   33.7320   43.8990 N   0  0  0  0  0  0  0  0  0  0  0  0
   45.4720   36.5360   42.5600 H   0  0  0  0  0  0  0  0  0  0  0  0
   43.9350   36.1960   44.5270 H   0  0  0  0  0  0  0  0  0  0  0  0
   46.2320   32.4650   45.8650 C   0  0  1  0  0  0  0  0  0  0  0  0
   46.9770   32.7110   47.1570 C   0  0  0  0  0  0  0  0  0  0  0  0
   45.4800   32.5790   47.1320 C   0  0  1  0  0  0  0  0  0  0  0  0
   46.3240   31.4690   45.3990 H   0  0  0  0  0  0  0  0  0  0  0  0
   47.4600   33.7190   47.1900 H   0  0  0  0  0  0  0  0  0  0  0  0
   47.6250   31.8630   47.4580 H   0  0  0  0  0  0  0  0  0  0  0  0
   45.1090   31.6850   47.6770 H   0  0  0  0  0  0  0  0  0  0  0  0
   44.8230   33.8520   47.4630 N   0  0  0  0  0  0  0  0  0  0  0  0
   43.8250   33.7070   47.7440 H   0  0  0  0  0  0  0  0  0  0  0  0
   45.3870   34.3280   48.1960 H   0  0  0  0  0  0  0  0  0  0  0  0
   47.5070   35.0360   41.9280 C   0  0  0  0  0  0  0  0  0  0  0  0
   48.5220   35.8130   41.9670 O   0  0  0  0  0  0  0  0  0  0  0  0
   47.2380   34.3960   40.6430 C   0  0  0  0  0  0  0  0  0  0  0  0
   46.0730   33.6910   40.4350 C   0  0  0  0  0  3  0  0  0  0  0  0
   45.8630   33.1060   39.2120 C   0  0  0  0  0  0  0  0  0  0  0  0
   44.9540   32.5500   39.0370 H   0  0  0  0  0  0  0  0  0  0  0  0
   46.7970   33.2410   38.2660 N   0  0  0  0  0  0  0  0  0  0  0  0
   47.9430   33.9200   38.4330 C   0  0  0  0  0  3  0  0  0  0  0  0
   48.1290   34.4870   39.6390 N   0  0  0  0  0  0  0  0  0  0  0  0
  1  2  2  0  0  0  0
  1  6  1  0  0  0  0
  2  3  1  0  0  0  0
  3  8  1  0  0  0  0
  3  4  2  0  0  0  0
  5  4  1  0  0  0  0
  5  9  1  0  0  0  0
  6  5  2  0  0  0  0
  7  2  1  0  0  0  0
  9 12  1  6  0  0  0
  9 11  1  0  0  0  0
  9 10  1  0  0  0  0
 10 13  1  0  0  0  0
 10 14  1  0  0  0  0
 11 10  1  0  0  0  0
 11 16  1  0  0  0  0
 11 15  1  1  0  0  0
 16 17  1  0  0  0  0
 16 18  1  0  0  0  0
 19 20  2  0  0  0  0
 19  1  1  0  0  0  0
 21 19  1  0  0  0  0
 22 21  1  0  0  0  0
 23 22  2  0  0  0  0
 24 23  1  0  0  0  0
 25 26  2  0  0  0  0
 25 23  1  0  0  0  0
 26 27  1  0  0  0  0
 27 21  2  0  0  0  0
M  END
>  <minimizedAffinity>
-5.54992867

>  <minimizedRMSD>
1.15529132

$$$$
