
 OpenBabel03252507593D

 27 29  0  0  1  0  0  0  0  0999 V2000
   46.5600   34.8010   43.1200 C   0  0  0  0  0  0  0  0  0  0  0  0
   45.5380   35.7850   43.2770 C   0  0  0  0  0  0  0  0  0  0  0  0
   44.7000   35.6440   44.3920 C   0  0  0  0  0  0  0  0  0  0  0  0
   44.9120   34.6000   45.2310 N   0  0  0  0  0  0  0  0  0  0  0  0
   45.9160   33.6920   45.0120 C   0  0  0  0  0  0  0  0  0  0  0  0
   46.7420   33.7650   43.9830 N   0  0  0  0  0  0  0  0  0  0  0  0
   45.4300   36.5780   42.5810 H   0  0  0  0  0  0  0  0  0  0  0  0
   43.9090   36.3470   44.5750 H   0  0  0  0  0  0  0  0  0  0  0  0
   46.0910   32.5780   45.9920 C   0  0  1  0  0  0  0  0  0  0  0  0
   46.8210   32.8460   47.2880 C   0  0  0  0  0  0  0  0  0  0  0  0
   45.3230   32.7310   47.2450 C   0  0  1  0  0  0  0  0  0  0  0  0
   46.1790   31.5700   45.5510 H   0  0  0  0  0  0  0  0  0  0  0  0
   47.3150   33.8490   47.3040 H   0  0  0  0  0  0  0  0  0  0  0  0
   47.4540   31.9980   47.6190 H   0  0  0  0  0  0  0  0  0  0  0  0
   44.9340   31.8540   47.8060 H   0  0  0  0  0  0  0  0  0  0  0  0
   44.6760   34.0180   47.5350 N   0  0  0  0  0  0  0  0  0  0  0  0
   43.6730   33.8920   47.8050 H   0  0  0  0  0  0  0  0  0  0  0  0
   45.2340   34.5060   48.2650 H   0  0  0  0  0  0  0  0  0  0  0  0
   47.4030   34.9900   41.9670 C   0  0  0  0  0  0  0  0  0  0  0  0
   48.4500   35.7260   41.9730 O   0  0  0  0  0  0  0  0  0  0  0  0
   47.0900   34.3310   40.7020 C   0  0  0  0  0  0  0  0  0  0  0  0
   48.0020   34.3160   39.6690 C   0  0  0  0  0  0  0  0  0  0  0  0
   47.6670   33.6850   38.4990 C   0  0  0  0  0  0  0  0  0  0  0  0
   48.3740   33.6670   37.6820 H   0  0  0  0  0  0  0  0  0  0  0  0
   46.4650   33.1050   38.4020 N   0  0  0  0  0  0  0  0  0  0  0  0
   45.5530   33.0990   39.3870 C   0  0  0  0  0  0  0  0  0  0  0  0
   45.9020   33.7240   40.5260 N   0  0  0  0  0  0  0  0  0  0  0  0
  1  2  2  0  0  0  0
  1  6  1  0  0  0  0
  2  3  1  0  0  0  0
  3  8  1  0  0  0  0
  3  4  2  0  0  0  0
  5  4  1  0  0  0  0
  5  9  1  0  0  0  0
  6  5  2  0  0  0  0
  7  2  1  0  0  0  0
  9 12  1  6  0  0  0
  9 11  1  0  0  0  0
  9 10  1  0  0  0  0
 10 13  1  0  0  0  0
 10 14  1  0  0  0  0
 11 10  1  0  0  0  0
 11 16  1  0  0  0  0
 11 15  1  1  0  0  0
 16 17  1  0  0  0  0
 16 18  1  0  0  0  0
 19 20  2  0  0  0  0
 19  1  1  0  0  0  0
 21 19  1  0  0  0  0
 22 21  2  0  0  0  0
 23 22  1  0  0  0  0
 24 23  1  0  0  0  0
 25 23  2  0  0  0  0
 25 26  1  0  0  0  0
 26 27  2  0  0  0  0
 27 21  1  0  0  0  0
M  END
>  <minimizedAffinity>
-5.62193298

>  <minimizedRMSD>
1.05972266

$$$$
