
 OpenBabel03252502273D

 33 35  0  0  0  0  0  0  0  0999 V2000
   45.1160   34.4390   41.1850 C   0  0  0  0  0  0  0  0  0  0  0  0
   45.4780   35.1860   42.3010 C   0  0  0  0  0  0  0  0  0  0  0  0
   46.8310   35.4490   42.5110 C   0  0  0  0  0  0  0  0  0  0  0  0
   47.7640   34.9630   41.6120 C   0  0  0  0  0  0  0  0  0  0  0  0
   47.4210   34.2240   40.5060 C   0  0  0  0  0  0  0  0  0  0  0  0
   46.0590   33.9800   40.3250 C   0  0  0  0  0  0  0  0  0  0  0  0
   44.7450   35.5610   42.9980 H   0  0  0  0  0  0  0  0  0  0  0  0
   47.0650   36.0330   43.3910 H   0  0  0  0  0  0  0  0  0  0  0  0
   48.8030   35.2000   41.8280 H   0  0  0  0  0  0  0  0  0  0  0  0
   48.1440   33.8480   39.8090 H   0  0  0  0  0  0  0  0  0  0  0  0
   41.4230   34.7810   40.5080 C   0  0  0  0  0  0  0  0  0  0  0  0
   42.7790   35.1400   40.6130 C   0  0  0  0  0  0  0  0  0  0  0  0
   43.6830   34.2040   41.0310 C   0  0  0  0  0  0  0  0  0  0  0  0
   43.2130   32.9630   41.3230 N   0  0  0  0  0  0  0  0  0  0  0  0
   41.9110   32.6190   41.2220 C   0  0  0  0  0  0  0  0  0  0  0  0
   41.0100   33.5370   40.8110 N   0  0  0  0  0  0  0  0  0  0  0  0
   43.1260   36.1230   40.3770 H   0  0  0  0  0  0  0  0  0  0  0  0
   41.6090   31.6110   41.4730 H   0  0  0  0  0  0  0  0  0  0  0  0
   40.4270   35.7720   40.0590 C   0  0  0  0  0  0  0  0  0  0  0  0
   39.2440   35.0810   39.7500 F   0  0  0  0  0  0  0  0  0  0  0  0
   40.8750   36.2600   38.8300 F   0  0  0  0  0  0  0  0  0  0  0  0
   40.1870   36.7640   40.9580 F   0  0  0  0  0  0  0  0  0  0  0  0
   45.6900   31.8960   38.7710 C   0  0  0  0  0  0  0  0  0  0  0  0
   46.3430   31.0110   39.3520 O   0  0  0  0  0  0  0  0  0  0  0  0
   45.5690   33.2440   39.2240 N   0  0  0  0  0  0  0  0  0  0  0  0
   44.9930   33.9530   38.6690 H   0  0  0  0  0  0  0  0  0  0  0  0
   44.9730   31.6000   37.5300 C   0  0  0  0  0  0  0  0  0  0  0  0
   43.6600   31.1910   37.6070 C   0  0  0  0  0  3  0  0  0  0  0  0
   42.9420   30.8980   36.4440 C   0  0  0  0  0  0  0  0  0  0  0  0
   41.9130   30.5790   36.5140 H   0  0  0  0  0  0  0  0  0  0  0  0
   43.5130   31.0070   35.2120 N   0  0  0  0  0  0  0  0  0  0  0  0
   44.7970   31.4090   35.1830 C   0  0  0  0  0  3  0  0  0  0  0  0
   45.4970   31.6920   36.2940 N   0  0  0  0  0  0  0  0  0  0  0  0
  1  2  1  0  0  0  0
  2  3  2  0  0  0  0
  2  7  1  0  0  0  0
  3  8  1  0  0  0  0
  4  9  1  0  0  0  0
  4  3  1  0  0  0  0
  5  4  2  0  0  0  0
  6  5  1  0  0  0  0
  6  1  2  0  0  0  0
 10  5  1  0  0  0  0
 11 12  2  0  0  0  0
 11 16  1  0  0  0  0
 12 13  1  0  0  0  0
 13  1  1  0  0  0  0
 13 14  2  0  0  0  0
 15 14  1  0  0  0  0
 15 18  1  0  0  0  0
 16 15  2  0  0  0  0
 17 12  1  0  0  0  0
 19 11  1  0  0  0  0
 19 22  1  0  0  0  0
 20 19  1  0  0  0  0
 21 19  1  0  0  0  0
 23 25  1  0  0  0  0
 23 24  2  0  0  0  0
 25  6  1  0  0  0  0
 26 25  1  0  0  0  0
 27 28  1  0  0  0  0
 27 23  1  0  0  0  0
 29 30  1  0  0  0  0
 29 28  2  0  0  0  0
 31 29  1  0  0  0  0
 32 31  2  0  0  0  0
 32 33  1  0  0  0  0
 33 27  2  0  0  0  0
M  END
>  <minimizedAffinity>
-5.77900887

>  <minimizedRMSD>
0.489355803

$$$$
