
 OpenBabel03252507593D

 27 29  0  0  1  0  0  0  0  0999 V2000
   46.6250   34.7640   43.0980 C   0  0  0  0  0  0  0  0  0  0  0  0
   45.5760   35.7150   43.2830 C   0  0  0  0  0  0  0  0  0  0  0  0
   44.7460   35.5220   44.3960 C   0  0  0  0  0  0  0  0  0  0  0  0
   44.9900   34.4640   45.2080 N   0  0  0  0  0  0  0  0  0  0  0  0
   46.0180   33.5910   44.9630 C   0  0  0  0  0  0  0  0  0  0  0  0
   46.8380   33.7130   43.9340 N   0  0  0  0  0  0  0  0  0  0  0  0
   45.4430   36.5220   42.6070 H   0  0  0  0  0  0  0  0  0  0  0  0
   43.9360   36.1990   44.5990 H   0  0  0  0  0  0  0  0  0  0  0  0
   46.2290   32.4580   45.9150 C   0  0  1  0  0  0  0  0  0  0  0  0
   46.9740   32.7090   47.2060 C   0  0  0  0  0  0  0  0  0  0  0  0
   45.4770   32.5680   47.1820 C   0  0  1  0  0  0  0  0  0  0  0  0
   46.3270   31.4620   45.4490 H   0  0  0  0  0  0  0  0  0  0  0  0
   47.4500   33.7200   47.2370 H   0  0  0  0  0  0  0  0  0  0  0  0
   47.6260   31.8660   47.5080 H   0  0  0  0  0  0  0  0  0  0  0  0
   45.1120   31.6720   47.7280 H   0  0  0  0  0  0  0  0  0  0  0  0
   44.8120   33.8370   47.5120 N   0  0  0  0  0  0  0  0  0  0  0  0
   43.8160   33.6860   47.7940 H   0  0  0  0  0  0  0  0  0  0  0  0
   45.3730   34.3170   48.2440 H   0  0  0  0  0  0  0  0  0  0  0  0
   47.4580   35.0060   41.9480 C   0  0  0  0  0  0  0  0  0  0  0  0
   48.4750   35.7820   41.9660 O   0  0  0  0  0  0  0  0  0  0  0  0
   47.1690   34.3570   40.6730 C   0  0  0  0  0  0  0  0  0  0  0  0
   48.0780   34.3960   39.6380 C   0  0  0  0  0  3  0  0  0  0  0  0
   47.7650   33.7710   38.4570 C   0  0  0  0  0  0  0  0  0  0  0  0
   48.4700   33.7960   37.6390 H   0  0  0  0  0  0  0  0  0  0  0  0
   46.5880   33.1470   38.3540 N   0  0  0  0  0  0  0  0  0  0  0  0
   45.6790   33.0870   39.3400 C   0  0  0  0  0  3  0  0  0  0  0  0
   46.0050   33.7060   40.4890 N   0  0  0  0  0  0  0  0  0  0  0  0
  1  2  2  0  0  0  0
  1  6  1  0  0  0  0
  2  3  1  0  0  0  0
  3  8  1  0  0  0  0
  3  4  2  0  0  0  0
  5  4  1  0  0  0  0
  5  9  1  0  0  0  0
  6  5  2  0  0  0  0
  7  2  1  0  0  0  0
  9 12  1  6  0  0  0
  9 11  1  0  0  0  0
  9 10  1  0  0  0  0
 10 13  1  0  0  0  0
 10 14  1  0  0  0  0
 11 10  1  0  0  0  0
 11 16  1  0  0  0  0
 11 15  1  1  0  0  0
 16 17  1  0  0  0  0
 16 18  1  0  0  0  0
 19 20  2  0  0  0  0
 19  1  1  0  0  0  0
 21 19  1  0  0  0  0
 22 21  2  0  0  0  0
 23 22  1  0  0  0  0
 24 23  1  0  0  0  0
 25 23  2  0  0  0  0
 25 26  1  0  0  0  0
 26 27  2  0  0  0  0
 27 21  1  0  0  0  0
M  END
>  <minimizedAffinity>
-5.6038208

>  <minimizedRMSD>
0.819111645

$$$$
