
 OpenBabel03252503313D

 39 41  0  0  1  0  0  0  0  0999 V2000
   46.6660   33.2630   42.1740 C   0  0  0  0  0  0  0  0  0  0  0  0
   45.7050   34.2910   42.3900 C   0  0  0  0  0  0  0  0  0  0  0  0
   45.5620   34.7400   43.7150 C   0  0  0  0  0  0  0  0  0  0  0  0
   46.3320   34.1730   44.6610 N   0  0  0  0  0  0  0  0  0  0  0  0
   47.2310   33.1980   44.4040 C   0  0  0  0  0  0  0  0  0  0  0  0
   47.3940   32.7450   43.1440 N   0  0  0  0  0  0  0  0  0  0  0  0
   47.6050   33.6540   40.0570 C   0  0  0  0  0  0  0  0  0  0  0  0
   47.9510   34.7760   40.5630 O   0  0  0  0  0  0  0  0  0  0  0  0
   46.8710   32.7520   40.8490 N   0  0  0  0  0  0  0  0  0  0  0  0
   47.9950   33.4000   38.7210 N   0  0  0  0  0  0  0  0  0  0  0  0
   48.4810   34.5090   37.8780 C   0  0  0  0  0  0  0  0  0  0  0  0
   48.0440   34.0820   36.5110 C   0  0  0  0  0  0  0  0  0  0  0  0
   47.4470   32.7150   36.6670 C   0  0  0  0  0  0  0  0  0  0  0  0
   48.0490   32.1930   37.9490 C   0  0  1  0  0  0  0  0  0  0  0  0
   45.1860   34.6200   41.5180 H   0  0  0  0  0  0  0  0  0  0  0  0
   47.8260   32.7770   45.2100 H   0  0  0  0  0  0  0  0  0  0  0  0
   46.5670   31.8550   40.4190 H   0  0  0  0  0  0  0  0  0  0  0  0
   48.0730   35.4800   38.1820 H   0  0  0  0  0  0  0  0  0  0  0  0
   49.6000   34.5250   37.9060 H   0  0  0  0  0  0  0  0  0  0  0  0
   48.8910   34.1020   35.7710 H   0  0  0  0  0  0  0  0  0  0  0  0
   47.3180   34.8230   36.1140 H   0  0  0  0  0  0  0  0  0  0  0  0
   46.3930   32.9760   37.0380 H   0  0  0  0  0  0  0  0  0  0  0  0
   47.2450   32.1210   35.8380 H   0  0  0  0  0  0  0  0  0  0  0  0
   47.4190   31.3510   38.2100 H   0  0  0  0  0  0  0  0  0  0  0  0
   49.9110   30.4270   38.1610 C   0  0  0  0  0  0  0  0  0  0  0  0
   48.9420   29.6490   38.2830 O   0  0  0  0  0  0  0  0  0  0  0  0
   49.4340   31.7570   37.8320 N   0  0  0  0  0  0  0  0  0  0  0  0
   50.1450   32.4720   37.4790 H   0  0  0  0  0  0  0  0  0  0  0  0
   51.3020   30.1070   38.3110 C   0  0  0  0  0  0  0  0  0  0  0  0
   52.0720   31.0520   38.9600 C   0  0  0  0  0  3  0  0  0  0  0  0
   53.4260   30.7840   39.1280 C   0  0  0  0  0  0  0  0  0  0  0  0
   54.0730   31.4950   39.6300 H   0  0  0  0  0  0  0  0  0  0  0  0
   54.0290   29.6770   38.7060 N   0  0  0  0  0  0  0  0  0  0  0  0
   53.2370   28.7640   38.0690 C   0  0  0  0  0  3  0  0  0  0  0  0
   51.9020   28.9790   37.8780 N   0  0  0  0  0  0  0  0  0  0  0  0
   44.5720   35.7920   43.9080 C   0  0  0  0  0  0  0  0  0  0  0  0
   44.0260   35.6740   45.1800 F   0  0  0  0  0  0  0  0  0  0  0  0
   43.5130   35.5240   43.0220 F   0  0  0  0  0  0  0  0  0  0  0  0
   45.0680   37.0570   43.7560 F   0  0  0  0  0  0  0  0  0  0  0  0
  1  2  2  0  0  0  0
  1  6  1  0  0  0  0
  2  3  1  0  0  0  0
  3 36  1  0  0  0  0
  3  4  2  0  0  0  0
  5  4  1  0  0  0  0
  5 16  1  0  0  0  0
  6  5  2  0  0  0  0
  7  8  2  0  0  0  0
  7  9  1  0  0  0  0
  9  1  1  0  0  0  0
 10  7  1  0  0  0  0
 11 19  1  0  0  0  0
 11 18  1  0  0  0  0
 11 10  1  0  0  0  0
 12 13  1  0  0  0  0
 12 11  1  0  0  0  0
 13 22  1  0  0  0  0
 13 14  1  0  0  0  0
 14 24  1  1  0  0  0
 14 10  1  0  0  0  0
 15  2  1  0  0  0  0
 17  9  1  0  0  0  0
 20 12  1  0  0  0  0
 21 12  1  0  0  0  0
 23 13  1  0  0  0  0
 25 26  2  0  0  0  0
 25 29  1  0  0  0  0
 27 14  1  0  0  0  0
 27 25  1  0  0  0  0
 28 27  1  0  0  0  0
 29 30  1  0  0  0  0
 30 31  2  0  0  0  0
 31 32  1  0  0  0  0
 33 31  1  0  0  0  0
 34 33  2  0  0  0  0
 35 34  1  0  0  0  0
 35 29  2  0  0  0  0
 36 37  1  0  0  0  0
 38 36  1  0  0  0  0
 39 36  1  0  0  0  0
M  END
>  <minimizedAffinity>
-4.98048735

>  <minimizedRMSD>
9.27003288

$$$$
