
 OpenBabel03242512263D

 20 21  0  0  0  0  0  0  0  0999 V2000
   45.0320   35.0360   44.2690 C   0  0  0  0  0  0  0  0  0  0  0  0
   46.0760   34.7990   43.3670 C   0  0  0  0  0  0  0  0  0  0  0  0
   47.0640   33.8680   43.7260 C   0  0  0  0  0  0  0  0  0  0  0  0
   46.9340   33.2630   44.9230 N   0  0  0  0  0  0  0  0  0  0  0  0
   45.9270   33.5060   45.7690 C   0  0  0  0  0  0  0  0  0  0  0  0
   44.9780   34.3910   45.4400 N   0  0  0  0  0  0  0  0  0  0  0  0
   44.0360   35.9750   43.9070 N   0  0  0  0  0  0  0  0  0  0  0  0
   46.1740   35.2890   42.4050 H   0  0  0  0  0  0  0  0  0  0  0  0
   47.8590   33.6920   43.0310 H   0  0  0  0  0  0  0  0  0  0  0  0
   43.9280   36.2770   42.8970 H   0  0  0  0  0  0  0  0  0  0  0  0
   43.3890   36.3920   44.6070 H   0  0  0  0  0  0  0  0  0  0  0  0
   45.8100   32.8400   47.0550 C   0  0  0  0  0  0  0  0  0  0  0  0
   44.8490   33.0050   47.8390 O   0  0  0  0  0  0  0  0  0  0  0  0
   46.8740   31.9160   47.4710 C   0  0  0  0  0  0  0  0  0  0  0  0
   47.7990   32.2300   48.4230 C   0  0  0  0  0  0  0  0  0  0  0  0
   48.7960   31.3540   48.8070 C   0  0  0  0  0  0  0  0  0  0  0  0
   49.5300   31.6030   49.5620 H   0  0  0  0  0  0  0  0  0  0  0  0
   48.8800   30.1410   48.2340 N   0  0  0  0  0  0  0  0  0  0  0  0
   47.9550   29.8270   47.2800 C   0  0  0  0  0  0  0  0  0  0  0  0
   46.9820   30.6850   46.9090 N   0  0  0  0  0  0  0  0  0  0  0  0
  1  6  1  0  0  0  0
  2  3  1  0  0  0  0
  2  1  2  0  0  0  0
  3  4  2  0  0  0  0
  4  5  1  0  0  0  0
  5 12  1  0  0  0  0
  6  5  2  0  0  0  0
  7  1  1  0  0  0  0
  7 11  1  0  0  0  0
  8  2  1  0  0  0  0
  9  3  1  0  0  0  0
 10  7  1  0  0  0  0
 12 14  1  0  0  0  0
 12 13  2  0  0  0  0
 14 15  1  0  0  0  0
 15 16  2  0  0  0  0
 16 17  1  0  0  0  0
 18 16  1  0  0  0  0
 19 18  2  0  0  0  0
 20 19  1  0  0  0  0
 20 14  2  0  0  0  0
M  END
>  <minimizedAffinity>
-4.7269969

>  <minimizedRMSD>
0.847801328

$$$$
