
 OpenBabel03252501333D

 22 23  0  0  0  0  0  0  0  0999 V2000
   37.9830   30.2950   41.2260 C   0  0  0  0  0  0  0  0  0  0  0  0
   37.0140   31.2330   40.9240 C   0  0  0  0  0  0  0  0  0  0  0  0
   37.4390   32.4370   40.3950 C   0  0  0  0  0  0  0  0  0  0  0  0
   38.7580   32.6030   40.2150 N   0  0  0  0  0  0  0  0  0  0  0  0
   39.6920   31.6730   40.5180 C   0  0  0  0  0  0  0  0  0  0  0  0
   39.2970   30.4990   41.0320 N   0  0  0  0  0  0  0  0  0  0  0  0
   36.6840   33.1500   40.1660 H   0  0  0  0  0  0  0  0  0  0  0  0
   40.7390   31.8860   40.3420 H   0  0  0  0  0  0  0  0  0  0  0  0
   37.4800   28.0710   40.7100 C   0  0  0  0  0  0  0  0  0  0  0  0
   37.5600   28.6340   39.5730 O   0  0  0  0  0  0  0  0  0  0  0  0
   37.7260   28.9790   41.7870 N   0  0  0  0  0  0  0  0  0  0  0  0
   37.7040   28.6670   42.7610 H   0  0  0  0  0  0  0  0  0  0  0  0
   37.1760   26.6610   40.9400 C   0  0  0  0  0  0  0  0  0  0  0  0
   36.6860   25.9730   39.8390 C   0  0  0  0  0  3  0  0  0  0  0  0
   36.3440   24.6260   39.8780 C   0  0  0  0  0  0  0  0  0  0  0  0
   35.9660   24.1090   39.0110 H   0  0  0  0  0  0  0  0  0  0  0  0
   36.5190   24.0050   41.0760 N   0  0  0  0  0  0  0  0  0  0  0  0
   36.9950   24.6690   42.1510 C   0  0  0  0  0  3  0  0  0  0  0  0
   37.3170   25.9770   42.0730 N   0  0  0  0  0  0  0  0  0  0  0  0
   35.6580   30.8650   41.1890 N   0  0  0  0  0  0  0  0  0  0  0  0
   35.3210   30.5350   42.1350 H   0  0  0  0  0  0  0  0  0  0  0  0
   35.1280   30.9850   40.3140 H   0  0  0  0  0  0  0  0  0  0  0  0
  1 11  1  0  0  0  0
  2 20  1  0  0  0  0
  2  1  2  0  0  0  0
  3  2  1  0  0  0  0
  4  3  2  0  0  0  0
  4  5  1  0  0  0  0
  5  6  2  0  0  0  0
  6  1  1  0  0  0  0
  7  3  1  0  0  0  0
  8  5  1  0  0  0  0
  9 13  1  0  0  0  0
  9 11  1  0  0  0  0
 10  9  2  0  0  0  0
 11 12  1  0  0  0  0
 13 19  1  0  0  0  0
 14 15  1  0  0  0  0
 14 13  2  0  0  0  0
 15 17  2  0  0  0  0
 16 15  1  0  0  0  0
 17 18  1  0  0  0  0
 19 18  2  0  0  0  0
 20 21  1  0  0  0  0
 22 20  1  0  0  0  0
M  END
>  <minimizedAffinity>
-4.53918648

$$$$

 OpenBabel03252501333D

 22 23  0  0  0  0  0  0  0  0999 V2000
   39.1000   31.8070   40.0260 C   0  0  0  0  0  0  0  0  0  0  0  0
   38.3670   32.9640   40.2110 C   0  0  0  0  0  0  0  0  0  0  0  0
   39.0580   34.1610   40.2010 C   0  0  0  0  0  0  0  0  0  0  0  0
   40.3860   34.1090   40.0140 N   0  0  0  0  0  0  0  0  0  0  0  0
   41.0850   32.9660   39.8350 C   0  0  0  0  0  0  0  0  0  0  0  0
   40.4320   31.7950   39.8410 N   0  0  0  0  0  0  0  0  0  0  0  0
   38.4820   35.0440   40.3450 H   0  0  0  0  0  0  0  0  0  0  0  0
   42.1580   33.0100   39.6890 H   0  0  0  0  0  0  0  0  0  0  0  0
   38.5100   29.9710   41.3470 C   0  0  0  0  0  0  0  0  0  0  0  0
   38.9440   30.8200   42.1870 O   0  0  0  0  0  0  0  0  0  0  0  0
   38.5490   30.4630   40.0050 N   0  0  0  0  0  0  0  0  0  0  0  0
   38.2220   29.8930   39.2200 H   0  0  0  0  0  0  0  0  0  0  0  0
   38.0150   28.6340   41.6690 C   0  0  0  0  0  0  0  0  0  0  0  0
   37.3020   28.5350   42.8550 C   0  0  0  0  0  3  0  0  0  0  0  0
   36.7600   27.3400   43.3150 C   0  0  0  0  0  0  0  0  0  0  0  0
   36.2080   27.2840   44.2400 H   0  0  0  0  0  0  0  0  0  0  0  0
   36.9690   26.2520   42.5260 N   0  0  0  0  0  0  0  0  0  0  0  0
   37.6630   26.3420   41.3710 C   0  0  0  0  0  3  0  0  0  0  0  0
   38.1730   27.5210   40.9570 N   0  0  0  0  0  0  0  0  0  0  0  0
   36.9580   32.8090   40.3950 N   0  0  0  0  0  0  0  0  0  0  0  0
   36.5350   32.1900   41.1400 H   0  0  0  0  0  0  0  0  0  0  0  0
   36.4880   33.3940   39.6900 H   0  0  0  0  0  0  0  0  0  0  0  0
  1  2  1  0  0  0  0
  2 20  1  0  0  0  0
  3  2  2  0  0  0  0
  3  7  1  0  0  0  0
  4  3  1  0  0  0  0
  5  6  1  0  0  0  0
  5  4  2  0  0  0  0
  6  1  2  0  0  0  0
  8  5  1  0  0  0  0
  9 13  1  0  0  0  0
  9 10  2  0  0  0  0
 11  1  1  0  0  0  0
 11  9  1  0  0  0  0
 12 11  1  0  0  0  0
 13 14  1  0  0  0  0
 14 15  2  0  0  0  0
 15 16  1  0  0  0  0
 17 15  1  0  0  0  0
 18 17  2  0  0  0  0
 19 18  1  0  0  0  0
 19 13  2  0  0  0  0
 20 21  1  0  0  0  0
 22 20  1  0  0  0  0
M  END
>  <minimizedAffinity>
-4.5145793

$$$$

 OpenBabel03252501333D

 22 23  0  0  0  0  0  0  0  0999 V2000
   36.6150   30.1510   39.2150 C   0  0  0  0  0  0  0  0  0  0  0  0
   36.4820   31.1570   40.1530 C   0  0  0  0  0  0  0  0  0  0  0  0
   37.0390   32.3850   39.8490 C   0  0  0  0  0  0  0  0  0  0  0  0
   37.6650   32.5070   38.6690 N   0  0  0  0  0  0  0  0  0  0  0  0
   37.7850   31.5100   37.7640 C   0  0  0  0  0  0  0  0  0  0  0  0
   37.2510   30.3110   38.0410 N   0  0  0  0  0  0  0  0  0  0  0  0
   36.9290   33.1520   40.5790 H   0  0  0  0  0  0  0  0  0  0  0  0
   38.3070   31.6900   36.8320 H   0  0  0  0  0  0  0  0  0  0  0  0
   37.0770   28.0130   40.0390 C   0  0  0  0  0  0  0  0  0  0  0  0
   38.1130   28.6840   40.3430 O   0  0  0  0  0  0  0  0  0  0  0  0
   36.0970   28.8010   39.3590 N   0  0  0  0  0  0  0  0  0  0  0  0
   35.2060   28.3980   39.0590 H   0  0  0  0  0  0  0  0  0  0  0  0
   36.8670   26.5960   40.3310 C   0  0  0  0  0  0  0  0  0  0  0  0
   37.1760   26.2050   41.6260 C   0  0  0  0  0  3  0  0  0  0  0  0
   37.0370   24.8980   42.0770 C   0  0  0  0  0  0  0  0  0  0  0  0
   37.2820   24.6140   43.0870 H   0  0  0  0  0  0  0  0  0  0  0  0
   36.5700   24.0040   41.1630 N   0  0  0  0  0  0  0  0  0  0  0  0
   36.2680   24.3780   39.9010 C   0  0  0  0  0  3  0  0  0  0  0  0
   36.4160   25.6580   39.5020 N   0  0  0  0  0  0  0  0  0  0  0  0
   35.7780   30.8290   41.3530 N   0  0  0  0  0  0  0  0  0  0  0  0
   36.0420   30.0160   41.9760 H   0  0  0  0  0  0  0  0  0  0  0  0
   35.0150   31.5120   41.4620 H   0  0  0  0  0  0  0  0  0  0  0  0
  1 11  1  0  0  0  0
  1  2  1  0  0  0  0
  2 20  1  0  0  0  0
  3  2  2  0  0  0  0
  3  7  1  0  0  0  0
  4  3  1  0  0  0  0
  5  6  1  0  0  0  0
  5  4  2  0  0  0  0
  6  1  2  0  0  0  0
  8  5  1  0  0  0  0
  9 13  1  0  0  0  0
  9 10  2  0  0  0  0
 11  9  1  0  0  0  0
 12 11  1  0  0  0  0
 13 14  1  0  0  0  0
 14 15  2  0  0  0  0
 15 16  1  0  0  0  0
 17 15  1  0  0  0  0
 18 17  2  0  0  0  0
 19 18  1  0  0  0  0
 19 13  2  0  0  0  0
 20 22  1  0  0  0  0
 20 21  1  0  0  0  0
M  END
>  <minimizedAffinity>
-4.50586557

$$$$

 OpenBabel03252501333D

 22 23  0  0  0  0  0  0  0  0999 V2000
   36.7340   28.0790   41.3520 C   0  0  0  0  0  0  0  0  0  0  0  0
   36.9060   27.6350   42.6500 C   0  0  0  0  0  0  0  0  0  0  0  0
   37.1050   26.2800   42.8350 C   0  0  0  0  0  0  0  0  0  0  0  0
   37.1170   25.5000   41.7440 N   0  0  0  0  0  0  0  0  0  0  0  0
   36.9480   25.9530   40.4820 C   0  0  0  0  0  0  0  0  0  0  0  0
   36.7530   27.2650   40.2820 N   0  0  0  0  0  0  0  0  0  0  0  0
   37.2360   25.9510   43.8390 H   0  0  0  0  0  0  0  0  0  0  0  0
   36.9710   25.2570   39.6530 H   0  0  0  0  0  0  0  0  0  0  0  0
   37.7840   30.1100   40.8670 C   0  0  0  0  0  0  0  0  0  0  0  0
   38.7500   29.3260   41.1260 O   0  0  0  0  0  0  0  0  0  0  0  0
   36.5140   29.4620   40.9640 N   0  0  0  0  0  0  0  0  0  0  0  0
   35.6440   29.9660   40.7750 H   0  0  0  0  0  0  0  0  0  0  0  0
   37.9090   31.5210   40.5050 C   0  0  0  0  0  0  0  0  0  0  0  0
   39.0560   32.1510   40.9650 C   0  0  0  0  0  3  0  0  0  0  0  0
   39.3380   33.4900   40.7140 C   0  0  0  0  0  0  0  0  0  0  0  0
   40.2350   33.9620   41.0800 H   0  0  0  0  0  0  0  0  0  0  0  0
   38.4110   34.1610   39.9790 N   0  0  0  0  0  0  0  0  0  0  0  0
   37.2920   33.5530   39.5280 C   0  0  0  0  0  3  0  0  0  0  0  0
   37.0550   32.2510   39.7920 N   0  0  0  0  0  0  0  0  0  0  0  0
   36.8600   28.6260   43.6790 N   0  0  0  0  0  0  0  0  0  0  0  0
   36.0490   29.2920   43.8070 H   0  0  0  0  0  0  0  0  0  0  0  0
   37.7300   28.5470   44.2240 H   0  0  0  0  0  0  0  0  0  0  0  0
  1  2  1  0  0  0  0
  2  3  2  0  0  0  0
  2 20  1  0  0  0  0
  3  7  1  0  0  0  0
  4  3  1  0  0  0  0
  5  4  2  0  0  0  0
  6  5  1  0  0  0  0
  6  1  2  0  0  0  0
  8  5  1  0  0  0  0
  9 11  1  0  0  0  0
  9 10  2  0  0  0  0
 11  1  1  0  0  0  0
 12 11  1  0  0  0  0
 13  9  1  0  0  0  0
 13 14  1  0  0  0  0
 15 14  2  0  0  0  0
 15 16  1  0  0  0  0
 17 15  1  0  0  0  0
 18 19  1  0  0  0  0
 18 17  2  0  0  0  0
 19 13  2  0  0  0  0
 20 21  1  0  0  0  0
 20 22  1  0  0  0  0
M  END
>  <minimizedAffinity>
-4.45075941

$$$$

 OpenBabel03252501333D

 22 23  0  0  0  0  0  0  0  0999 V2000
   36.8540   28.1120   41.3280 C   0  0  0  0  0  0  0  0  0  0  0  0
   36.9540   27.6060   42.6100 C   0  0  0  0  0  0  0  0  0  0  0  0
   37.0880   26.2370   42.7420 C   0  0  0  0  0  0  0  0  0  0  0  0
   37.1100   25.5040   41.6180 N   0  0  0  0  0  0  0  0  0  0  0  0
   37.0110   26.0180   40.3720 C   0  0  0  0  0  0  0  0  0  0  0  0
   36.8810   27.3450   40.2230 N   0  0  0  0  0  0  0  0  0  0  0  0
   37.1640   25.8590   43.7340 H   0  0  0  0  0  0  0  0  0  0  0  0
   37.0380   25.3580   39.5140 H   0  0  0  0  0  0  0  0  0  0  0  0
   38.0110   30.1050   40.9330 C   0  0  0  0  0  0  0  0  0  0  0  0
   38.9330   29.2620   41.1700 O   0  0  0  0  0  0  0  0  0  0  0  0
   36.7090   29.5190   40.9930 N   0  0  0  0  0  0  0  0  0  0  0  0
   35.8670   30.0740   40.8160 H   0  0  0  0  0  0  0  0  0  0  0  0
   38.2120   31.5200   40.6300 C   0  0  0  0  0  0  0  0  0  0  0  0
   37.2170   32.1080   39.8620 C   0  0  0  0  0  3  0  0  0  0  0  0
   37.2460   33.4450   39.4800 C   0  0  0  0  0  0  0  0  0  0  0  0
   36.4620   33.8840   38.8840 H   0  0  0  0  0  0  0  0  0  0  0  0
   38.3220   34.1590   39.9070 N   0  0  0  0  0  0  0  0  0  0  0  0
   39.2940   33.5920   40.6530 C   0  0  0  0  0  3  0  0  0  0  0  0
   39.2300   32.2910   41.0050 N   0  0  0  0  0  0  0  0  0  0  0  0
   36.9090   28.5530   43.6800 N   0  0  0  0  0  0  0  0  0  0  0  0
   36.1230   29.2480   43.8060 H   0  0  0  0  0  0  0  0  0  0  0  0
   37.7530   28.4120   44.2530 H   0  0  0  0  0  0  0  0  0  0  0  0
  1  2  1  0  0  0  0
  2  3  2  0  0  0  0
  2 20  1  0  0  0  0
  3  7  1  0  0  0  0
  4  3  1  0  0  0  0
  5  4  2  0  0  0  0
  6  5  1  0  0  0  0
  6  1  2  0  0  0  0
  8  5  1  0  0  0  0
  9 11  1  0  0  0  0
  9 10  2  0  0  0  0
 11  1  1  0  0  0  0
 12 11  1  0  0  0  0
 13  9  1  0  0  0  0
 13 19  1  0  0  0  0
 14 13  2  0  0  0  0
 15 14  1  0  0  0  0
 15 17  2  0  0  0  0
 16 15  1  0  0  0  0
 17 18  1  0  0  0  0
 18 19  2  0  0  0  0
 20 21  1  0  0  0  0
 20 22  1  0  0  0  0
M  END
>  <minimizedAffinity>
-4.40269947

$$$$

 OpenBabel03252501333D

 22 23  0  0  0  0  0  0  0  0999 V2000
   38.6540   29.0320   42.7970 C   0  0  0  0  0  0  0  0  0  0  0  0
   37.3150   28.8650   42.4980 C   0  0  0  0  0  0  0  0  0  0  0  0
   36.8100   27.5780   42.5460 C   0  0  0  0  0  0  0  0  0  0  0  0
   37.6570   26.5920   42.8760 N   0  0  0  0  0  0  0  0  0  0  0  0
   38.9650   26.7760   43.1650 C   0  0  0  0  0  0  0  0  0  0  0  0
   39.4720   28.0170   43.1250 N   0  0  0  0  0  0  0  0  0  0  0  0
   35.7780   27.4630   42.3140 H   0  0  0  0  0  0  0  0  0  0  0  0
   39.5830   25.9250   43.4240 H   0  0  0  0  0  0  0  0  0  0  0  0
   39.7870   30.5830   41.4650 C   0  0  0  0  0  0  0  0  0  0  0  0
   39.4420   29.6760   40.6440 O   0  0  0  0  0  0  0  0  0  0  0  0
   39.3570   30.3040   42.8000 N   0  0  0  0  0  0  0  0  0  0  0  0
   39.5550   30.9490   43.5680 H   0  0  0  0  0  0  0  0  0  0  0  0
   40.5390   31.7910   41.1300 C   0  0  0  0  0  0  0  0  0  0  0  0
   39.8160   32.7740   40.4700 C   0  0  0  0  0  3  0  0  0  0  0  0
   40.3710   33.9860   40.0750 C   0  0  0  0  0  0  0  0  0  0  0  0
   39.7930   34.7390   39.5630 H   0  0  0  0  0  0  0  0  0  0  0  0
   41.6860   34.1610   40.3780 N   0  0  0  0  0  0  0  0  0  0  0  0
   42.3950   33.2080   41.0200 C   0  0  0  0  0  3  0  0  0  0  0  0
   41.8200   32.0440   41.3870 N   0  0  0  0  0  0  0  0  0  0  0  0
   36.5770   30.0440   42.1690 N   0  0  0  0  0  0  0  0  0  0  0  0
   36.8660   30.7120   41.4010 H   0  0  0  0  0  0  0  0  0  0  0  0
   35.7660   30.0890   42.8000 H   0  0  0  0  0  0  0  0  0  0  0  0
  1 11  1  0  0  0  0
  1  6  1  0  0  0  0
  2  3  1  0  0  0  0
  2  1  2  0  0  0  0
  3  4  2  0  0  0  0
  4  5  1  0  0  0  0
  5  8  1  0  0  0  0
  6  5  2  0  0  0  0
  7  3  1  0  0  0  0
  9 11  1  0  0  0  0
 10  9  2  0  0  0  0
 11 12  1  0  0  0  0
 13 19  1  0  0  0  0
 13  9  1  0  0  0  0
 14 13  2  0  0  0  0
 15 17  2  0  0  0  0
 15 14  1  0  0  0  0
 16 15  1  0  0  0  0
 17 18  1  0  0  0  0
 18 19  2  0  0  0  0
 20  2  1  0  0  0  0
 20 22  1  0  0  0  0
 21 20  1  0  0  0  0
M  END
>  <minimizedAffinity>
-4.24201679

$$$$

 OpenBabel03252501333D

 22 23  0  0  0  0  0  0  0  0999 V2000
   41.7060   32.3190   38.9140 C   0  0  0  0  0  0  0  0  0  0  0  0
   41.5510   32.9570   37.6970 C   0  0  0  0  0  0  0  0  0  0  0  0
   42.4850   33.9190   37.3620 C   0  0  0  0  0  0  0  0  0  0  0  0
   43.4690   34.1610   38.2420 N   0  0  0  0  0  0  0  0  0  0  0  0
   43.6040   33.5260   39.4270 C   0  0  0  0  0  0  0  0  0  0  0  0
   42.7070   32.5890   39.7700 N   0  0  0  0  0  0  0  0  0  0  0  0
   42.3540   34.4030   36.4230 H   0  0  0  0  0  0  0  0  0  0  0  0
   44.4280   33.7800   40.0820 H   0  0  0  0  0  0  0  0  0  0  0  0
   39.7870   31.9140   40.1850 C   0  0  0  0  0  0  0  0  0  0  0  0
   39.8920   33.1810   40.1930 O   0  0  0  0  0  0  0  0  0  0  0  0
   40.8270   31.2850   39.4330 N   0  0  0  0  0  0  0  0  0  0  0  0
   40.8690   30.2680   39.3300 H   0  0  0  0  0  0  0  0  0  0  0  0
   38.7390   31.1440   40.8530 C   0  0  0  0  0  0  0  0  0  0  0  0
   37.4570   31.3330   40.3560 C   0  0  0  0  0  3  0  0  0  0  0  0
   36.3420   30.6820   40.8720 C   0  0  0  0  0  0  0  0  0  0  0  0
   35.3540   30.8410   40.4710 H   0  0  0  0  0  0  0  0  0  0  0  0
   36.5790   29.8340   41.9090 N   0  0  0  0  0  0  0  0  0  0  0  0
   37.8240   29.6460   42.3970 C   0  0  0  0  0  3  0  0  0  0  0  0
   38.8820   30.2970   41.8690 N   0  0  0  0  0  0  0  0  0  0  0  0
   40.4340   32.5570   36.9000 N   0  0  0  0  0  0  0  0  0  0  0  0
   39.4370   32.5650   37.2520 H   0  0  0  0  0  0  0  0  0  0  0  0
   40.7960   32.2800   35.9760 H   0  0  0  0  0  0  0  0  0  0  0  0
  1 11  1  0  0  0  0
  1  6  1  0  0  0  0
  2  1  2  0  0  0  0
  3  2  1  0  0  0  0
  3  4  2  0  0  0  0
  4  5  1  0  0  0  0
  5  6  2  0  0  0  0
  5  8  1  0  0  0  0
  7  3  1  0  0  0  0
  9 10  2  0  0  0  0
  9 13  1  0  0  0  0
 11  9  1  0  0  0  0
 12 11  1  0  0  0  0
 13 19  1  0  0  0  0
 14 13  2  0  0  0  0
 14 15  1  0  0  0  0
 15 17  2  0  0  0  0
 16 15  1  0  0  0  0
 17 18  1  0  0  0  0
 19 18  2  0  0  0  0
 20 21  1  0  0  0  0
 20  2  1  0  0  0  0
 22 20  1  0  0  0  0
M  END
>  <minimizedAffinity>
-4.23855352

$$$$

 OpenBabel03252501333D

 22 23  0  0  0  0  0  0  0  0999 V2000
   36.3790   28.6370   40.6840 C   0  0  0  0  0  0  0  0  0  0  0  0
   36.6220   29.7400   41.4800 C   0  0  0  0  0  0  0  0  0  0  0  0
   37.6810   29.6620   42.3650 C   0  0  0  0  0  0  0  0  0  0  0  0
   38.3910   28.5240   42.3840 N   0  0  0  0  0  0  0  0  0  0  0  0
   38.1380   27.4550   41.5960 C   0  0  0  0  0  0  0  0  0  0  0  0
   37.1140   27.5130   40.7300 N   0  0  0  0  0  0  0  0  0  0  0  0
   37.8580   30.5180   42.9730 H   0  0  0  0  0  0  0  0  0  0  0  0
   38.7600   26.5720   41.6720 H   0  0  0  0  0  0  0  0  0  0  0  0
   35.8060   29.0370   38.4530 C   0  0  0  0  0  0  0  0  0  0  0  0
   37.0160   29.4180   38.5260 O   0  0  0  0  0  0  0  0  0  0  0  0
   35.3150   28.5360   39.6990 N   0  0  0  0  0  0  0  0  0  0  0  0
   34.3590   28.1840   39.7910 H   0  0  0  0  0  0  0  0  0  0  0  0
   34.9710   29.0840   37.2540 C   0  0  0  0  0  0  0  0  0  0  0  0
   33.6120   28.9100   37.4700 C   0  0  0  0  0  3  0  0  0  0  0  0
   32.6730   28.9260   36.4450 C   0  0  0  0  0  0  0  0  0  0  0  0
   31.6210   28.7900   36.6340 H   0  0  0  0  0  0  0  0  0  0  0  0
   33.1680   29.1250   35.1930 N   0  0  0  0  0  0  0  0  0  0  0  0
   34.4900   29.2940   34.9760 C   0  0  0  0  0  3  0  0  0  0  0  0
   35.3700   29.2730   35.9980 N   0  0  0  0  0  0  0  0  0  0  0  0
   35.7510   30.8600   41.3110 N   0  0  0  0  0  0  0  0  0  0  0  0
   34.6980   30.7930   41.3880 H   0  0  0  0  0  0  0  0  0  0  0  0
   36.3380   31.6830   41.1120 H   0  0  0  0  0  0  0  0  0  0  0  0
  1  6  2  0  0  0  0
  1  2  1  0  0  0  0
  2  3  2  0  0  0  0
  3  4  1  0  0  0  0
  3  7  1  0  0  0  0
  5  8  1  0  0  0  0
  5  4  2  0  0  0  0
  6  5  1  0  0  0  0
  9 10  2  0  0  0  0
  9 11  1  0  0  0  0
 11 12  1  0  0  0  0
 11  1  1  0  0  0  0
 13 14  1  0  0  0  0
 13  9  1  0  0  0  0
 15 16  1  0  0  0  0
 15 14  2  0  0  0  0
 17 15  1  0  0  0  0
 18 17  2  0  0  0  0
 18 19  1  0  0  0  0
 19 13  2  0  0  0  0
 20 21  1  0  0  0  0
 20  2  1  0  0  0  0
 22 20  1  0  0  0  0
M  END
>  <minimizedAffinity>
-4.19851732

$$$$

 OpenBabel03252501333D

 22 23  0  0  0  0  0  0  0  0999 V2000
   38.3650   28.2890   42.5770 C   0  0  0  0  0  0  0  0  0  0  0  0
   39.5310   27.5490   42.6340 C   0  0  0  0  0  0  0  0  0  0  0  0
   39.4090   26.1730   42.6530 C   0  0  0  0  0  0  0  0  0  0  0  0
   38.1700   25.6600   42.6140 N   0  0  0  0  0  0  0  0  0  0  0  0
   37.0410   26.4000   42.5580 C   0  0  0  0  0  0  0  0  0  0  0  0
   37.1390   27.7380   42.5390 N   0  0  0  0  0  0  0  0  0  0  0  0
   40.3150   25.6150   42.6970 H   0  0  0  0  0  0  0  0  0  0  0  0
   36.0760   25.9080   42.5290 H   0  0  0  0  0  0  0  0  0  0  0  0
   38.3700   30.1690   41.1870 C   0  0  0  0  0  0  0  0  0  0  0  0
   38.4620   29.1940   40.3770 O   0  0  0  0  0  0  0  0  0  0  0  0
   38.2960   29.7400   42.5490 N   0  0  0  0  0  0  0  0  0  0  0  0
   38.2100   30.4140   43.3150 H   0  0  0  0  0  0  0  0  0  0  0  0
   38.3390   31.5820   40.8160 C   0  0  0  0  0  0  0  0  0  0  0  0
   37.3340   31.9400   39.9290 C   0  0  0  0  0  3  0  0  0  0  0  0
   37.1570   33.2400   39.4690 C   0  0  0  0  0  0  0  0  0  0  0  0
   36.3690   33.4990   38.7800 H   0  0  0  0  0  0  0  0  0  0  0  0
   38.0370   34.1610   39.9460 N   0  0  0  0  0  0  0  0  0  0  0  0
   39.0180   33.8190   40.8100 C   0  0  0  0  0  3  0  0  0  0  0  0
   39.1570   32.5450   41.2330 N   0  0  0  0  0  0  0  0  0  0  0  0
   40.7570   28.2840   42.6690 N   0  0  0  0  0  0  0  0  0  0  0  0
   40.9650   29.0320   43.3870 H   0  0  0  0  0  0  0  0  0  0  0  0
   41.3440   27.9450   41.8940 H   0  0  0  0  0  0  0  0  0  0  0  0
  1  2  1  0  0  0  0
  2  3  2  0  0  0  0
  2 20  1  0  0  0  0
  3  7  1  0  0  0  0
  4  3  1  0  0  0  0
  5  4  2  0  0  0  0
  6  5  1  0  0  0  0
  6  1  2  0  0  0  0
  8  5  1  0  0  0  0
  9 11  1  0  0  0  0
 10  9  2  0  0  0  0
 11  1  1  0  0  0  0
 11 12  1  0  0  0  0
 13  9  1  0  0  0  0
 13 19  1  0  0  0  0
 14 13  2  0  0  0  0
 15 14  1  0  0  0  0
 15 17  2  0  0  0  0
 16 15  1  0  0  0  0
 17 18  1  0  0  0  0
 18 19  2  0  0  0  0
 20 21  1  0  0  0  0
 22 20  1  0  0  0  0
M  END
>  <minimizedAffinity>
-4.18454933

$$$$
