
 OpenBabel03252503263D

 23 24  0  0  0  0  0  0  0  0999 V2000
   45.2300   34.7120   42.9120 C   0  0  0  0  0  0  0  0  0  0  0  0
   46.2550   35.1540   42.0480 C   0  0  0  0  0  0  0  0  0  0  0  0
   47.5650   34.7690   42.3810 C   0  0  0  0  0  0  0  0  0  0  0  0
   47.7450   34.0130   43.4930 N   0  0  0  0  0  0  0  0  0  0  0  0
   46.7160   33.6150   44.2880 C   0  0  0  0  0  0  0  0  0  0  0  0
   45.4640   33.9690   43.9920 N   0  0  0  0  0  0  0  0  0  0  0  0
   43.3330   34.2880   41.5730 C   0  0  0  0  0  0  0  0  0  0  0  0
   44.1120   33.4510   41.0010 O   0  0  0  0  0  0  0  0  0  0  0  0
   43.8720   35.0600   42.6430 N   0  0  0  0  0  0  0  0  0  0  0  0
   46.0410   35.7560   41.1790 H   0  0  0  0  0  0  0  0  0  0  0  0
   46.8950   33.0120   45.1680 H   0  0  0  0  0  0  0  0  0  0  0  0
   43.3030   35.7770   43.1340 H   0  0  0  0  0  0  0  0  0  0  0  0
   41.9350   34.4720   41.1680 C   0  0  0  0  0  0  0  0  0  0  0  0
   41.4830   35.7590   40.9490 C   0  0  0  0  0  3  0  0  0  0  0  0
   40.1390   35.8650   40.5650 C   0  0  0  0  0  0  0  0  0  0  0  0
   39.7610   36.8540   40.3880 H   0  0  0  0  0  0  0  0  0  0  0  0
   39.3660   34.7730   40.4240 N   0  0  0  0  0  0  0  0  0  0  0  0
   39.8370   33.5360   40.6440 C   0  0  0  0  0  3  0  0  0  0  0  0
   41.1420   33.3950   41.0210 N   0  0  0  0  0  0  0  0  0  0  0  0
   48.6080   35.2320   41.4820 C   0  0  0  0  0  0  0  0  0  0  0  0
   49.7550   34.4610   41.6700 F   0  0  0  0  0  0  0  0  0  0  0  0
   48.9550   36.5120   41.8910 F   0  0  0  0  0  0  0  0  0  0  0  0
   48.2700   35.1510   40.1580 F   0  0  0  0  0  0  0  0  0  0  0  0
  1  6  1  0  0  0  0
  2  3  1  0  0  0  0
  2  1  2  0  0  0  0
  3  4  2  0  0  0  0
  4  5  1  0  0  0  0
  5 11  1  0  0  0  0
  6  5  2  0  0  0  0
  7  9  1  0  0  0  0
  8  7  2  0  0  0  0
  9  1  1  0  0  0  0
  9 12  1  0  0  0  0
 10  2  1  0  0  0  0
 13  7  1  0  0  0  0
 14 13  2  0  0  0  0
 15 14  1  0  0  0  0
 16 15  1  0  0  0  0
 17 15  2  0  0  0  0
 17 18  1  0  0  0  0
 18 19  2  0  0  0  0
 19 13  1  0  0  0  0
 20 21  1  0  0  0  0
 20 22  1  0  0  0  0
 20  3  1  0  0  0  0
 23 20  1  0  0  0  0
M  END
>  <minimizedAffinity>
-5.96494293

>  <minimizedRMSD>
1.11466897

$$$$
