
 OpenBabel03252503293D

 23 24  0  0  0  0  0  0  0  0999 V2000
   39.2590   28.0100   41.9350 C   0  0  0  0  0  0  0  0  0  0  0  0
   38.3530   27.0180   41.4980 C   0  0  0  0  0  0  0  0  0  0  0  0
   38.3290   25.8240   42.2370 C   0  0  0  0  0  0  0  0  0  0  0  0
   39.1650   25.7120   43.2990 N   0  0  0  0  0  0  0  0  0  0  0  0
   40.0170   26.7040   43.6740 C   0  0  0  0  0  0  0  0  0  0  0  0
   40.0580   27.8470   42.9870 N   0  0  0  0  0  0  0  0  0  0  0  0
   38.2380   30.1000   41.5370 C   0  0  0  0  0  0  0  0  0  0  0  0
   37.3420   29.6420   42.3240 O   0  0  0  0  0  0  0  0  0  0  0  0
   39.3440   29.2530   41.2380 N   0  0  0  0  0  0  0  0  0  0  0  0
   37.7160   27.1740   40.6420 H   0  0  0  0  0  0  0  0  0  0  0  0
   40.6700   26.5820   44.5270 H   0  0  0  0  0  0  0  0  0  0  0  0
   40.0950   29.5520   40.5860 H   0  0  0  0  0  0  0  0  0  0  0  0
   38.1610   31.4420   40.9460 C   0  0  0  0  0  0  0  0  0  0  0  0
   37.1300   31.7090   40.0660 C   0  0  0  0  0  3  0  0  0  0  0  0
   37.1150   33.0060   39.5380 C   0  0  0  0  0  0  0  0  0  0  0  0
   36.3240   33.2420   38.8510 H   0  0  0  0  0  0  0  0  0  0  0  0
   38.0500   33.9110   39.8790 N   0  0  0  0  0  0  0  0  0  0  0  0
   39.0410   33.6170   40.7380 C   0  0  0  0  0  3  0  0  0  0  0  0
   39.0870   32.3630   41.2730 N   0  0  0  0  0  0  0  0  0  0  0  0
   37.3910   24.8140   41.7750 C   0  0  0  0  0  0  0  0  0  0  0  0
   36.3320   24.7190   42.6770 F   0  0  0  0  0  0  0  0  0  0  0  0
   38.0460   23.5930   41.8480 F   0  0  0  0  0  0  0  0  0  0  0  0
   36.8590   25.0790   40.5420 F   0  0  0  0  0  0  0  0  0  0  0  0
  1  6  1  0  0  0  0
  2  1  2  0  0  0  0
  2  3  1  0  0  0  0
  3  4  2  0  0  0  0
  4  5  1  0  0  0  0
  5 11  1  0  0  0  0
  6  5  2  0  0  0  0
  7  8  2  0  0  0  0
  9  7  1  0  0  0  0
  9  1  1  0  0  0  0
 10  2  1  0  0  0  0
 12  9  1  0  0  0  0
 13 19  1  0  0  0  0
 13  7  1  0  0  0  0
 14 13  2  0  0  0  0
 15 17  2  0  0  0  0
 15 14  1  0  0  0  0
 16 15  1  0  0  0  0
 17 18  1  0  0  0  0
 18 19  2  0  0  0  0
 20 22  1  0  0  0  0
 20  3  1  0  0  0  0
 20 21  1  0  0  0  0
 23 20  1  0  0  0  0
M  END
>  <minimizedAffinity>
-5.26864862

$$$$

 OpenBabel03252503293D

 23 24  0  0  0  0  0  0  0  0999 V2000
   36.5330   27.8120   39.9280 C   0  0  0  0  0  0  0  0  0  0  0  0
   36.9780   27.0060   40.9980 C   0  0  0  0  0  0  0  0  0  0  0  0
   36.9790   25.6180   40.7780 C   0  0  0  0  0  0  0  0  0  0  0  0
   36.5580   25.1620   39.5720 N   0  0  0  0  0  0  0  0  0  0  0  0
   36.1410   25.9900   38.5760 C   0  0  0  0  0  0  0  0  0  0  0  0
   36.1310   27.3100   38.7620 N   0  0  0  0  0  0  0  0  0  0  0  0
   37.8070   29.7980   39.9840 C   0  0  0  0  0  0  0  0  0  0  0  0
   38.7890   28.9940   39.8320 O   0  0  0  0  0  0  0  0  0  0  0  0
   36.5020   29.2320   40.0710 N   0  0  0  0  0  0  0  0  0  0  0  0
   37.2980   27.4360   41.9330 H   0  0  0  0  0  0  0  0  0  0  0  0
   35.8120   25.5920   37.6250 H   0  0  0  0  0  0  0  0  0  0  0  0
   35.6640   29.8260   40.2210 H   0  0  0  0  0  0  0  0  0  0  0  0
   37.9830   31.2530   40.0710 C   0  0  0  0  0  0  0  0  0  0  0  0
   37.0780   32.0600   39.4080 C   0  0  0  0  0  3  0  0  0  0  0  0
   37.3040   33.4370   39.5310 C   0  0  0  0  0  0  0  0  0  0  0  0
   36.6150   34.0890   39.0260 H   0  0  0  0  0  0  0  0  0  0  0  0
   38.3350   33.9160   40.2490 N   0  0  0  0  0  0  0  0  0  0  0  0
   39.1980   33.1020   40.8810 C   0  0  0  0  0  3  0  0  0  0  0  0
   39.0090   31.7540   40.7840 N   0  0  0  0  0  0  0  0  0  0  0  0
   37.4390   24.8030   41.8900 C   0  0  0  0  0  0  0  0  0  0  0  0
   37.6390   23.4940   41.4500 F   0  0  0  0  0  0  0  0  0  0  0  0
   36.3920   24.7290   42.7970 F   0  0  0  0  0  0  0  0  0  0  0  0
   38.6150   25.2350   42.4410 F   0  0  0  0  0  0  0  0  0  0  0  0
  1  9  1  0  0  0  0
  1  2  1  0  0  0  0
  2 10  1  0  0  0  0
  3  2  2  0  0  0  0
  3 20  1  0  0  0  0
  4  3  1  0  0  0  0
  5  6  1  0  0  0  0
  5  4  2  0  0  0  0
  6  1  2  0  0  0  0
  7  9  1  0  0  0  0
  7 13  1  0  0  0  0
  8  7  2  0  0  0  0
  9 12  1  0  0  0  0
 11  5  1  0  0  0  0
 13 19  1  0  0  0  0
 14 15  1  0  0  0  0
 14 13  2  0  0  0  0
 15 17  2  0  0  0  0
 16 15  1  0  0  0  0
 17 18  1  0  0  0  0
 19 18  2  0  0  0  0
 20 23  1  0  0  0  0
 20 22  1  0  0  0  0
 21 20  1  0  0  0  0
M  END
>  <minimizedAffinity>
-4.83926725

$$$$

 OpenBabel03252503293D

 23 24  0  0  0  0  0  0  0  0999 V2000
   37.5890   31.1060   37.8670 C   0  0  0  0  0  0  0  0  0  0  0  0
   36.9400   30.7420   39.0670 C   0  0  0  0  0  0  0  0  0  0  0  0
   35.9670   29.7330   38.9700 C   0  0  0  0  0  0  0  0  0  0  0  0
   35.7250   29.1930   37.7500 N   0  0  0  0  0  0  0  0  0  0  0  0
   36.3850   29.5850   36.6270 C   0  0  0  0  0  0  0  0  0  0  0  0
   37.3120   30.5400   36.6930 N   0  0  0  0  0  0  0  0  0  0  0  0
   39.8190   31.6440   38.4240 C   0  0  0  0  0  0  0  0  0  0  0  0
   39.8470   30.4360   38.8400 O   0  0  0  0  0  0  0  0  0  0  0  0
   38.5920   32.1230   37.8800 N   0  0  0  0  0  0  0  0  0  0  0  0
   37.1820   31.2150   40.0050 H   0  0  0  0  0  0  0  0  0  0  0  0
   36.1670   29.1320   35.6690 H   0  0  0  0  0  0  0  0  0  0  0  0
   38.4920   33.1010   37.5470 H   0  0  0  0  0  0  0  0  0  0  0  0
   40.9870   32.5310   38.4900 C   0  0  0  0  0  0  0  0  0  0  0  0
   41.7180   32.7320   37.3350 C   0  0  0  0  0  3  0  0  0  0  0  0
   42.8190   33.5880   37.4670 C   0  0  0  0  0  0  0  0  0  0  0  0
   43.4070   33.7640   36.5850 H   0  0  0  0  0  0  0  0  0  0  0  0
   43.1230   34.1610   38.6460 N   0  0  0  0  0  0  0  0  0  0  0  0
   42.3900   33.9420   39.7500 C   0  0  0  0  0  3  0  0  0  0  0  0
   41.3090   33.1150   39.6590 N   0  0  0  0  0  0  0  0  0  0  0  0
   35.3080   29.3700   40.2140 C   0  0  0  0  0  0  0  0  0  0  0  0
   33.9370   29.2480   39.9920 F   0  0  0  0  0  0  0  0  0  0  0  0
   35.4460   30.4500   41.0740 F   0  0  0  0  0  0  0  0  0  0  0  0
   35.7460   28.1860   40.7440 F   0  0  0  0  0  0  0  0  0  0  0  0
  1  9  1  0  0  0  0
  1  2  1  0  0  0  0
  2 10  1  0  0  0  0
  3  2  2  0  0  0  0
  3 20  1  0  0  0  0
  4  3  1  0  0  0  0
  5  6  1  0  0  0  0
  5  4  2  0  0  0  0
  6  1  2  0  0  0  0
  7 13  1  0  0  0  0
  7  8  2  0  0  0  0
  9  7  1  0  0  0  0
 11  5  1  0  0  0  0
 12  9  1  0  0  0  0
 13 19  1  0  0  0  0
 14 15  1  0  0  0  0
 14 13  2  0  0  0  0
 15 17  2  0  0  0  0
 16 15  1  0  0  0  0
 17 18  1  0  0  0  0
 19 18  2  0  0  0  0
 20 23  1  0  0  0  0
 20 22  1  0  0  0  0
 21 20  1  0  0  0  0
M  END
>  <minimizedAffinity>
-4.82571077

$$$$

 OpenBabel03252503293D

 23 24  0  0  0  0  0  0  0  0999 V2000
   40.0780   28.1610   42.0930 C   0  0  0  0  0  0  0  0  0  0  0  0
   38.7590   27.6900   41.9190 C   0  0  0  0  0  0  0  0  0  0  0  0
   38.3920   26.5630   42.6730 C   0  0  0  0  0  0  0  0  0  0  0  0
   39.3180   26.0180   43.5010 N   0  0  0  0  0  0  0  0  0  0  0  0
   40.5770   26.5180   43.6280 C   0  0  0  0  0  0  0  0  0  0  0  0
   40.9480   27.5860   42.9220 N   0  0  0  0  0  0  0  0  0  0  0  0
   40.0030   30.5120   41.9020 C   0  0  0  0  0  0  0  0  0  0  0  0
   39.2070   30.4170   42.8970 O   0  0  0  0  0  0  0  0  0  0  0  0
   40.5290   29.3020   41.3640 N   0  0  0  0  0  0  0  0  0  0  0  0
   38.0720   28.1720   41.2420 H   0  0  0  0  0  0  0  0  0  0  0  0
   41.2910   26.0580   44.2980 H   0  0  0  0  0  0  0  0  0  0  0  0
   41.1610   29.3060   40.5400 H   0  0  0  0  0  0  0  0  0  0  0  0
   40.3790   31.8020   41.3120 C   0  0  0  0  0  0  0  0  0  0  0  0
   39.3790   32.5940   40.7820 C   0  0  0  0  0  3  0  0  0  0  0  0
   39.8070   33.8110   40.2350 C   0  0  0  0  0  0  0  0  0  0  0  0
   39.0500   34.4480   39.8160 H   0  0  0  0  0  0  0  0  0  0  0  0
   41.1050   34.1610   40.2370 N   0  0  0  0  0  0  0  0  0  0  0  0
   42.0530   33.3660   40.7600 C   0  0  0  0  0  3  0  0  0  0  0  0
   41.6740   32.1730   41.3030 N   0  0  0  0  0  0  0  0  0  0  0  0
   37.0300   26.0910   42.4820 C   0  0  0  0  0  0  0  0  0  0  0  0
   36.5920   26.4500   41.2080 F   0  0  0  0  0  0  0  0  0  0  0  0
   36.2290   26.8050   43.3610 F   0  0  0  0  0  0  0  0  0  0  0  0
   36.8960   24.7330   42.5970 F   0  0  0  0  0  0  0  0  0  0  0  0
  1  6  1  0  0  0  0
  2  1  2  0  0  0  0
  2  3  1  0  0  0  0
  3  4  2  0  0  0  0
  4  5  1  0  0  0  0
  5 11  1  0  0  0  0
  6  5  2  0  0  0  0
  7  8  2  0  0  0  0
  9  7  1  0  0  0  0
  9  1  1  0  0  0  0
 10  2  1  0  0  0  0
 12  9  1  0  0  0  0
 13  7  1  0  0  0  0
 14 13  2  0  0  0  0
 15 17  2  0  0  0  0
 15 14  1  0  0  0  0
 16 15  1  0  0  0  0
 17 18  1  0  0  0  0
 18 19  2  0  0  0  0
 19 13  1  0  0  0  0
 20 23  1  0  0  0  0
 20  3  1  0  0  0  0
 20 22  1  0  0  0  0
 21 20  1  0  0  0  0
M  END
>  <minimizedAffinity>
-4.75856638

$$$$

 OpenBabel03252503293D

 23 24  0  0  0  0  0  0  0  0999 V2000
   38.0480   28.2410   42.3010 C   0  0  0  0  0  0  0  0  0  0  0  0
   39.3240   27.6660   42.4890 C   0  0  0  0  0  0  0  0  0  0  0  0
   39.3710   26.2660   42.6000 C   0  0  0  0  0  0  0  0  0  0  0  0
   38.2040   25.5800   42.5200 N   0  0  0  0  0  0  0  0  0  0  0  0
   37.0020   26.1900   42.3360 C   0  0  0  0  0  0  0  0  0  0  0  0
   36.9330   27.5170   42.2290 N   0  0  0  0  0  0  0  0  0  0  0  0
   38.3350   30.1150   40.8950 C   0  0  0  0  0  0  0  0  0  0  0  0
   38.7860   29.2430   40.0770 O   0  0  0  0  0  0  0  0  0  0  0  0
   37.9160   29.6570   42.1780 N   0  0  0  0  0  0  0  0  0  0  0  0
   40.2140   28.2730   42.5440 H   0  0  0  0  0  0  0  0  0  0  0  0
   36.0890   25.6110   42.2770 H   0  0  0  0  0  0  0  0  0  0  0  0
   37.5640   30.3150   42.8990 H   0  0  0  0  0  0  0  0  0  0  0  0
   38.2410   31.5400   40.5590 C   0  0  0  0  0  0  0  0  0  0  0  0
   37.1900   31.9550   39.7640 C   0  0  0  0  0  3  0  0  0  0  0  0
   37.1600   33.3270   39.4810 C   0  0  0  0  0  0  0  0  0  0  0  0
   36.3530   33.6780   38.8650 H   0  0  0  0  0  0  0  0  0  0  0  0
   38.0990   34.1610   39.9610 N   0  0  0  0  0  0  0  0  0  0  0  0
   39.1090   33.7240   40.7310 C   0  0  0  0  0  3  0  0  0  0  0  0
   39.1710   32.3940   41.0280 N   0  0  0  0  0  0  0  0  0  0  0  0
   40.6920   25.6910   42.7930 C   0  0  0  0  0  0  0  0  0  0  0  0
   41.4170   26.4880   43.6790 F   0  0  0  0  0  0  0  0  0  0  0  0
   41.3570   25.7920   41.5800 F   0  0  0  0  0  0  0  0  0  0  0  0
   40.6710   24.4220   43.3040 F   0  0  0  0  0  0  0  0  0  0  0  0
  1  2  1  0  0  0  0
  2 10  1  0  0  0  0
  2  3  2  0  0  0  0
  3 20  1  0  0  0  0
  4  3  1  0  0  0  0
  5  4  2  0  0  0  0
  6  1  2  0  0  0  0
  6  5  1  0  0  0  0
  7  9  1  0  0  0  0
  8  7  2  0  0  0  0
  9  1  1  0  0  0  0
  9 12  1  0  0  0  0
 11  5  1  0  0  0  0
 13  7  1  0  0  0  0
 13 19  1  0  0  0  0
 14 13  2  0  0  0  0
 15 14  1  0  0  0  0
 15 17  2  0  0  0  0
 16 15  1  0  0  0  0
 17 18  1  0  0  0  0
 18 19  2  0  0  0  0
 20 23  1  0  0  0  0
 20 21  1  0  0  0  0
 22 20  1  0  0  0  0
M  END
>  <minimizedAffinity>
-4.75537729

$$$$

 OpenBabel03252503293D

 23 24  0  0  0  0  0  0  0  0999 V2000
   38.5060   29.6030   39.4770 C   0  0  0  0  0  0  0  0  0  0  0  0
   38.7000   30.8810   40.0440 C   0  0  0  0  0  0  0  0  0  0  0  0
   38.0530   31.9540   39.4070 C   0  0  0  0  0  0  0  0  0  0  0  0
   37.3010   31.6860   38.3100 N   0  0  0  0  0  0  0  0  0  0  0  0
   37.1500   30.4300   37.8090 C   0  0  0  0  0  0  0  0  0  0  0  0
   37.7550   29.3970   38.3960 N   0  0  0  0  0  0  0  0  0  0  0  0
   38.4630   28.0560   41.2590 C   0  0  0  0  0  0  0  0  0  0  0  0
   37.4670   28.7580   41.6450 O   0  0  0  0  0  0  0  0  0  0  0  0
   39.1280   28.4610   40.0650 N   0  0  0  0  0  0  0  0  0  0  0  0
   39.3120   31.0230   40.9190 H   0  0  0  0  0  0  0  0  0  0  0  0
   36.5430   30.2520   36.9310 H   0  0  0  0  0  0  0  0  0  0  0  0
   39.9600   27.9520   39.7100 H   0  0  0  0  0  0  0  0  0  0  0  0
   38.9310   26.8750   41.9940 C   0  0  0  0  0  0  0  0  0  0  0  0
   39.8420   27.0620   43.0160 C   0  0  0  0  0  3  0  0  0  0  0  0
   40.2470   25.8940   43.6760 C   0  0  0  0  0  0  0  0  0  0  0  0
   40.9560   26.0090   44.4750 H   0  0  0  0  0  0  0  0  0  0  0  0
   39.7690   24.6880   43.3220 N   0  0  0  0  0  0  0  0  0  0  0  0
   38.8830   24.5430   42.3220 C   0  0  0  0  0  3  0  0  0  0  0  0
   38.4650   25.6580   41.6570 N   0  0  0  0  0  0  0  0  0  0  0  0
   38.2630   33.2630   40.0030 C   0  0  0  0  0  0  0  0  0  0  0  0
   39.4120   33.8380   39.4610 F   0  0  0  0  0  0  0  0  0  0  0  0
   38.5540   33.0530   41.3430 F   0  0  0  0  0  0  0  0  0  0  0  0
   37.2290   34.1350   39.7960 F   0  0  0  0  0  0  0  0  0  0  0  0
  1  2  1  0  0  0  0
  1  9  1  0  0  0  0
  2 10  1  0  0  0  0
  3 20  1  0  0  0  0
  3  2  2  0  0  0  0
  4  3  1  0  0  0  0
  5  4  2  0  0  0  0
  5  6  1  0  0  0  0
  6  1  2  0  0  0  0
  7  8  2  0  0  0  0
  7 13  1  0  0  0  0
  9  7  1  0  0  0  0
 11  5  1  0  0  0  0
 12  9  1  0  0  0  0
 13 14  1  0  0  0  0
 14 15  2  0  0  0  0
 15 16  1  0  0  0  0
 17 15  1  0  0  0  0
 18 17  2  0  0  0  0
 19 13  2  0  0  0  0
 19 18  1  0  0  0  0
 20 22  1  0  0  0  0
 21 20  1  0  0  0  0
 23 20  1  0  0  0  0
M  END
>  <minimizedAffinity>
-4.72633696

$$$$

 OpenBabel03252503293D

 23 24  0  0  0  0  0  0  0  0999 V2000
   39.3060   27.1410   41.7990 C   0  0  0  0  0  0  0  0  0  0  0  0
   38.3990   26.2280   41.2200 C   0  0  0  0  0  0  0  0  0  0  0  0
   38.3200   24.9580   41.8180 C   0  0  0  0  0  0  0  0  0  0  0  0
   39.1110   24.7080   42.8920 N   0  0  0  0  0  0  0  0  0  0  0  0
   39.9680   25.6300   43.4070 C   0  0  0  0  0  0  0  0  0  0  0  0
   40.0600   26.8410   42.8560 N   0  0  0  0  0  0  0  0  0  0  0  0
   38.3450   29.2880   41.6030 C   0  0  0  0  0  0  0  0  0  0  0  0
   37.4090   28.7670   42.3000 O   0  0  0  0  0  0  0  0  0  0  0  0
   39.4450   28.4520   41.2510 N   0  0  0  0  0  0  0  0  0  0  0  0
   37.7990   26.4930   40.3650 H   0  0  0  0  0  0  0  0  0  0  0  0
   40.5850   25.3970   44.2640 H   0  0  0  0  0  0  0  0  0  0  0  0
   40.2260   28.8030   40.6650 H   0  0  0  0  0  0  0  0  0  0  0  0
   38.3190   30.6880   41.1650 C   0  0  0  0  0  0  0  0  0  0  0  0
   39.4000   31.4900   41.4780 C   0  0  0  0  0  3  0  0  0  0  0  0
   39.3120   32.8140   41.0300 C   0  0  0  0  0  0  0  0  0  0  0  0
   40.1380   33.4610   41.2600 H   0  0  0  0  0  0  0  0  0  0  0  0
   38.2390   33.2520   40.3470 N   0  0  0  0  0  0  0  0  0  0  0  0
   37.2040   32.4440   40.0590 C   0  0  0  0  0  3  0  0  0  0  0  0
   37.2560   31.1470   40.4780 N   0  0  0  0  0  0  0  0  0  0  0  0
   37.3810   24.0300   41.2110 C   0  0  0  0  0  0  0  0  0  0  0  0
   37.1110   24.4360   39.9040 F   0  0  0  0  0  0  0  0  0  0  0  0
   36.1810   24.1670   41.8920 F   0  0  0  0  0  0  0  0  0  0  0  0
   37.8380   22.7410   41.1550 F   0  0  0  0  0  0  0  0  0  0  0  0
  1  6  1  0  0  0  0
  2  1  2  0  0  0  0
  2  3  1  0  0  0  0
  3  4  2  0  0  0  0
  4  5  1  0  0  0  0
  5 11  1  0  0  0  0
  6  5  2  0  0  0  0
  7  8  2  0  0  0  0
  9  7  1  0  0  0  0
  9  1  1  0  0  0  0
 10  2  1  0  0  0  0
 12  9  1  0  0  0  0
 13 14  1  0  0  0  0
 13  7  1  0  0  0  0
 15 16  1  0  0  0  0
 15 14  2  0  0  0  0
 17 15  1  0  0  0  0
 18 17  2  0  0  0  0
 18 19  1  0  0  0  0
 19 13  2  0  0  0  0
 20  3  1  0  0  0  0
 20 22  1  0  0  0  0
 21 20  1  0  0  0  0
 23 20  1  0  0  0  0
M  END
>  <minimizedAffinity>
-4.6812644

$$$$

 OpenBabel03252503293D

 23 24  0  0  0  0  0  0  0  0999 V2000
   39.0270   31.8710   41.2790 C   0  0  0  0  0  0  0  0  0  0  0  0
   38.8690   30.5990   41.8710 C   0  0  0  0  0  0  0  0  0  0  0  0
   37.6220   29.9760   41.6910 C   0  0  0  0  0  0  0  0  0  0  0  0
   36.6770   30.6320   40.9740 N   0  0  0  0  0  0  0  0  0  0  0  0
   36.8880   31.8590   40.4250 C   0  0  0  0  0  0  0  0  0  0  0  0
   38.0620   32.4710   40.5830 N   0  0  0  0  0  0  0  0  0  0  0  0
   41.2710   32.0270   40.5670 C   0  0  0  0  0  0  0  0  0  0  0  0
   40.9580   31.0110   39.8580 O   0  0  0  0  0  0  0  0  0  0  0  0
   40.2630   32.5710   41.4150 N   0  0  0  0  0  0  0  0  0  0  0  0
   39.6640   30.1340   42.4310 H   0  0  0  0  0  0  0  0  0  0  0  0
   36.1110   32.3550   39.8590 H   0  0  0  0  0  0  0  0  0  0  0  0
   40.4570   33.3800   42.0370 H   0  0  0  0  0  0  0  0  0  0  0  0
   42.6080   32.6330   40.5340 C   0  0  0  0  0  0  0  0  0  0  0  0
   42.9080   33.6010   41.4740 C   0  0  0  0  0  3  0  0  0  0  0  0
   44.1990   34.1380   41.3860 C   0  0  0  0  0  0  0  0  0  0  0  0
   44.4610   34.8930   42.1050 H   0  0  0  0  0  0  0  0  0  0  0  0
   45.0670   33.7250   40.4460 N   0  0  0  0  0  0  0  0  0  0  0  0
   44.7410   32.7820   39.5460 C   0  0  0  0  0  3  0  0  0  0  0  0
   43.4920   32.2350   39.6010 N   0  0  0  0  0  0  0  0  0  0  0  0
   37.4760   28.6670   42.3070 C   0  0  0  0  0  0  0  0  0  0  0  0
   36.1930   28.1800   42.0570 F   0  0  0  0  0  0  0  0  0  0  0  0
   37.5340   28.8580   43.6800 F   0  0  0  0  0  0  0  0  0  0  0  0
   38.3670   27.7370   41.8430 F   0  0  0  0  0  0  0  0  0  0  0  0
  1  9  1  0  0  0  0
  1  2  1  0  0  0  0
  2 10  1  0  0  0  0
  3  2  2  0  0  0  0
  3 20  1  0  0  0  0
  4  3  1  0  0  0  0
  5  6  1  0  0  0  0
  5  4  2  0  0  0  0
  6  1  2  0  0  0  0
  7  9  1  0  0  0  0
  8  7  2  0  0  0  0
  9 12  1  0  0  0  0
 11  5  1  0  0  0  0
 13  7  1  0  0  0  0
 13 14  1  0  0  0  0
 15 14  2  0  0  0  0
 15 16  1  0  0  0  0
 17 15  1  0  0  0  0
 18 19  1  0  0  0  0
 18 17  2  0  0  0  0
 19 13  2  0  0  0  0
 20 22  1  0  0  0  0
 21 20  1  0  0  0  0
 23 20  1  0  0  0  0
M  END
>  <minimizedAffinity>
-4.6366787

$$$$

 OpenBabel03252503293D

 23 24  0  0  0  0  0  0  0  0999 V2000
   37.2610   28.5090   39.8550 C   0  0  0  0  0  0  0  0  0  0  0  0
   37.2800   27.8670   41.1120 C   0  0  0  0  0  0  0  0  0  0  0  0
   37.0270   26.4850   41.1130 C   0  0  0  0  0  0  0  0  0  0  0  0
   36.7860   25.8790   39.9240 N   0  0  0  0  0  0  0  0  0  0  0  0
   36.7820   26.5510   38.7420 C   0  0  0  0  0  0  0  0  0  0  0  0
   37.0190   27.8630   38.7160 N   0  0  0  0  0  0  0  0  0  0  0  0
   38.8940   30.2120   39.9260 C   0  0  0  0  0  0  0  0  0  0  0  0
   39.6870   29.2340   40.1480 O   0  0  0  0  0  0  0  0  0  0  0  0
   37.5100   29.9120   39.7690 N   0  0  0  0  0  0  0  0  0  0  0  0
   37.4780   28.4110   42.0210 H   0  0  0  0  0  0  0  0  0  0  0  0
   36.5860   26.0360   37.8110 H   0  0  0  0  0  0  0  0  0  0  0  0
   36.8080   30.6610   39.6120 H   0  0  0  0  0  0  0  0  0  0  0  0
   39.3590   31.6010   39.8320 C   0  0  0  0  0  0  0  0  0  0  0  0
   40.3460   31.8970   38.9110 C   0  0  0  0  0  3  0  0  0  0  0  0
   40.7440   33.2400   38.8740 C   0  0  0  0  0  0  0  0  0  0  0  0
   41.5100   33.5000   38.1670 H   0  0  0  0  0  0  0  0  0  0  0  0
   40.1900   34.1570   39.6860 N   0  0  0  0  0  0  0  0  0  0  0  0
   39.2320   33.8340   40.5710 C   0  0  0  0  0  3  0  0  0  0  0  0
   38.8180   32.5350   40.6360 N   0  0  0  0  0  0  0  0  0  0  0  0
   37.0490   25.8390   42.4150 C   0  0  0  0  0  0  0  0  0  0  0  0
   36.3610   26.6300   43.3350 F   0  0  0  0  0  0  0  0  0  0  0  0
   38.3690   25.8410   42.8430 F   0  0  0  0  0  0  0  0  0  0  0  0
   36.4710   24.5980   42.4250 F   0  0  0  0  0  0  0  0  0  0  0  0
  1  2  1  0  0  0  0
  2  3  2  0  0  0  0
  2 10  1  0  0  0  0
  3 20  1  0  0  0  0
  4  3  1  0  0  0  0
  5  4  2  0  0  0  0
  6  5  1  0  0  0  0
  6  1  2  0  0  0  0
  7  8  2  0  0  0  0
  9  1  1  0  0  0  0
  9  7  1  0  0  0  0
 11  5  1  0  0  0  0
 12  9  1  0  0  0  0
 13  7  1  0  0  0  0
 13 19  1  0  0  0  0
 14 13  2  0  0  0  0
 15 14  1  0  0  0  0
 15 17  2  0  0  0  0
 16 15  1  0  0  0  0
 17 18  1  0  0  0  0
 18 19  2  0  0  0  0
 20 23  1  0  0  0  0
 20 22  1  0  0  0  0
 20 21  1  0  0  0  0
M  END
>  <minimizedAffinity>
-4.63167095

$$$$
