
 OpenBabel03242523153D

 25 27  0  0  0  0  0  0  0  0999 V2000
   46.0060   34.5640   43.9500 C   0  0  0  0  0  0  0  0  0  0  0  0
   47.0810   33.8930   43.4710 C   0  0  0  0  0  0  0  0  0  0  0  0
   47.5200   32.8590   44.2630 C   0  0  0  0  0  0  0  0  0  0  0  0
   46.8580   32.5870   45.4520 N   0  0  0  0  0  0  0  0  0  0  0  0
   45.8000   33.2940   45.8660 C   0  0  0  0  0  0  0  0  0  0  0  0
   45.3510   34.3130   45.1060 N   0  0  0  0  0  0  0  0  0  0  0  0
   48.3740   32.2410   43.9920 H   0  0  0  0  0  0  0  0  0  0  0  0
   45.3850   32.9710   46.8110 H   0  0  0  0  0  0  0  0  0  0  0  0
   47.7880   34.2050   42.2920 C   0  0  0  0  0  0  0  0  0  0  0  0
   48.1590   35.3930   41.7510 C   0  0  0  0  0  0  0  0  0  0  0  0
   49.3150   34.6270   42.3900 C   0  0  0  0  0  0  0  0  0  0  0  0
   47.9480   33.1890   41.7000 H   0  0  0  0  0  0  0  0  0  0  0  0
   48.2090   35.5710   40.6360 H   0  0  0  0  0  0  0  0  0  0  0  0
   48.0150   36.3850   42.2620 H   0  0  0  0  0  0  0  0  0  0  0  0
   49.6550   34.8800   43.3930 H   0  0  0  0  0  0  0  0  0  0  0  0
   50.0040   34.2260   41.6680 H   0  0  0  0  0  0  0  0  0  0  0  0
   45.2710   35.6260   43.2340 C   0  0  0  0  0  0  0  0  0  0  0  0
   45.1580   36.8440   43.1120 O   0  0  0  0  0  0  0  0  0  0  0  0
   44.2990   34.9660   42.3150 C   0  0  0  0  0  0  0  0  0  0  0  0
   43.5690   35.6830   41.3680 C   0  0  0  0  0  0  0  0  0  0  0  0
   42.6540   35.1280   40.4880 C   0  0  0  0  0  0  0  0  0  0  0  0
   42.1200   35.7410   39.7750 H   0  0  0  0  0  0  0  0  0  0  0  0
   42.4400   33.8270   40.5330 N   0  0  0  0  0  0  0  0  0  0  0  0
   43.1120   33.1000   41.4190 C   0  0  0  0  0  0  0  0  0  0  0  0
   43.9900   33.6500   42.2600 N   0  0  0  0  0  0  0  0  0  0  0  0
  1  6  1  0  0  0  0
  2  1  2  0  0  0  0
  2  3  1  0  0  0  0
  3  4  2  0  0  0  0
  4  5  1  0  0  0  0
  5  8  1  0  0  0  0
  6  5  2  0  0  0  0
  7  3  1  0  0  0  0
  9 11  1  0  0  0  0
  9  2  1  0  0  0  0
 10 14  1  0  0  0  0
 10  9  1  0  0  0  0
 10 11  1  0  0  0  0
 11 15  1  0  0  0  0
 12  9  1  0  0  0  0
 13 10  1  0  0  0  0
 16 11  1  0  0  0  0
 17  1  1  0  0  0  0
 18 17  2  0  0  0  0
 19 17  1  0  0  0  0
 20 19  2  0  0  0  0
 21 23  2  0  0  0  0
 21 20  1  0  0  0  0
 22 21  1  0  0  0  0
 23 24  1  0  0  0  0
 24 25  2  0  0  0  0
 25 19  1  0  0  0  0
M  END
>  <minimizedAffinity>
-4.91650343

>  <minimizedRMSD>
1.18797278

$$$$
