
 OpenBabel03242520003D

 28 30  0  0  1  0  0  0  0  0999 V2000
   44.6500   33.0320   41.2030 Br  0  0  0  0  0  0  0  0  0  0  0  0
   46.3040   33.9490   41.0080 C   0  0  0  0  0  0  0  0  0  0  0  0
   46.8410   34.7560   42.0020 C   0  0  0  0  0  0  0  0  0  0  0  0
   48.0380   35.3990   41.7460 C   0  0  0  0  0  0  0  0  0  0  0  0
   48.7160   35.2740   40.5510 C   0  0  0  0  0  0  0  0  0  0  0  0
   48.1770   34.4610   39.5490 C   0  0  0  0  0  0  0  0  0  0  0  0
   46.9750   33.8200   39.8220 C   0  0  0  0  0  0  0  0  0  0  0  0
   48.3670   35.9990   42.5830 H   0  0  0  0  0  0  0  0  0  0  0  0
   49.6420   35.8190   40.4540 H   0  0  0  0  0  0  0  0  0  0  0  0
   48.7170   34.3680   38.6130 H   0  0  0  0  0  0  0  0  0  0  0  0
   44.4970   35.9120   44.7310 C   0  0  0  0  0  0  0  0  0  0  0  0
   45.1970   35.8490   43.5140 C   0  0  0  0  0  0  0  0  0  0  0  0
   46.1030   34.8500   43.2470 C   0  0  0  0  0  0  0  0  0  0  0  0
   46.2380   33.9630   44.2600 N   0  0  0  0  0  0  0  0  0  0  0  0
   45.5870   34.0030   45.4200 C   0  0  0  0  0  0  0  0  0  0  0  0
   44.7230   34.9730   45.6470 N   0  0  0  0  0  0  0  0  0  0  0  0
   43.8060   36.7410   44.8370 H   0  0  0  0  0  0  0  0  0  0  0  0
   45.0180   36.6110   42.7610 H   0  0  0  0  0  0  0  0  0  0  0  0
   45.7600   33.2440   46.1770 H   0  0  0  0  0  0  0  0  0  0  0  0
   46.4990   32.9720   38.7710 C   0  0  1  0  0  0  0  0  0  0  0  0
   45.5200   33.3640   38.0030 O   0  0  0  0  0  0  0  0  0  0  0  0
   46.9660   31.6390   38.3820 C   0  0  0  0  0  0  0  0  0  0  0  0
   46.6070   31.1300   37.1540 C   0  0  0  0  0  0  0  0  0  0  0  0
   47.0290   29.8750   36.6950 C   0  0  0  0  0  0  0  0  0  0  0  0
   46.7510   29.4770   35.7390 H   0  0  0  0  0  0  0  0  0  0  0  0
   47.8220   29.1150   37.4690 N   0  0  0  0  0  0  0  0  0  0  0  0
   48.1770   29.6040   38.6690 C   0  0  0  0  0  0  0  0  0  0  0  0
   47.7530   30.8040   39.0710 N   0  0  0  0  0  0  0  0  0  0  0  0
  2  1  1  0  0  0  0
  2  3  1  0  0  0  0
  3 13  1  0  0  0  0
  4  3  2  0  0  0  0
  4  8  1  0  0  0  0
  5  4  1  0  0  0  0
  6  7  1  0  0  0  0
  6  5  2  0  0  0  0
  7  2  2  0  0  0  0
  9  5  1  0  0  0  0
 10  6  1  0  0  0  0
 11 17  1  0  0  0  0
 11 16  1  0  0  0  0
 12 11  2  0  0  0  0
 13 12  1  0  0  0  0
 13 14  2  0  0  0  0
 14 15  1  0  0  0  0
 15 16  2  0  0  0  0
 15 19  1  0  0  0  0
 18 12  1  0  0  0  0
 20 21  1  6  0  0  0
 20  7  1  0  0  0  0
 22 20  1  0  0  0  0
 22 28  1  0  0  0  0
 23 22  2  0  0  0  0
 24 23  1  0  0  0  0
 24 26  2  0  0  0  0
 25 24  1  0  0  0  0
 26 27  1  0  0  0  0
 27 28  2  0  0  0  0
M  END
>  <minimizedAffinity>
-5.19689846

>  <minimizedRMSD>
1.37595534

$$$$
