
 OpenBabel03252508023D

 40 43  0  0  1  0  0  0  0  0999 V2000
   44.3370   34.4930   41.6370 C   0  0  0  0  0  0  0  0  0  0  0  0
   45.2470   34.5010   40.7360 O   0  0  0  0  0  0  0  0  0  0  0  0
   42.2280   33.2830   41.1580 C   0  0  0  0  0  0  0  0  0  0  0  0
   42.9060   34.4480   41.3650 C   0  0  0  0  0  0  0  0  0  0  0  0
   42.1760   35.6510   41.3020 C   0  0  0  0  0  0  0  0  0  0  0  0
   40.8320   35.7050   41.0450 C   0  0  0  0  0  0  0  0  0  0  0  0
   40.1570   34.5290   40.8390 C   0  0  0  0  0  0  0  0  0  0  0  0
   40.8540   33.3600   40.8980 C   0  0  0  0  0  0  0  0  0  0  0  0
   42.6300   36.6220   41.4440 H   0  0  0  0  0  0  0  0  0  0  0  0
   40.2820   36.6260   40.9980 H   0  0  0  0  0  0  0  0  0  0  0  0
   39.1150   34.4860   40.6330 H   0  0  0  0  0  0  0  0  0  0  0  0
   40.3110   32.4130   40.7310 H   0  0  0  0  0  0  0  0  0  0  0  0
   42.9730   31.7700   41.2560 S   0  0  0  0  0  0  0  0  0  0  0  0
   42.1160   30.9300   40.2800 O   0  0  0  0  0  0  0  0  0  0  0  0
   42.8300   31.1550   42.6090 O   0  0  0  0  0  0  0  0  0  0  0  0
   44.3560   31.1950   40.4920 C   0  0  0  0  0  0  0  0  0  0  0  0
   45.4210   30.8380   41.3580 C   0  0  0  0  0  3  0  0  0  0  0  0
   46.5990   30.2800   40.9360 C   0  0  0  0  0  0  0  0  0  0  0  0
   47.3900   30.0140   41.5980 H   0  0  0  0  0  0  0  0  0  0  0  0
   46.7150   30.0770   39.6260 N   0  0  0  0  0  0  0  0  0  0  0  0
   45.7790   30.3790   38.7500 C   0  0  0  0  0  3  0  0  0  0  0  0
   44.6600   30.9150   39.2090 N   0  0  0  0  0  0  0  0  0  0  0  0
   44.6420   34.5300   43.0380 C   0  0  0  0  0  0  0  0  0  0  0  0
   44.3140   35.7530   43.7120 C   0  0  0  0  0  0  0  0  0  0  0  0
   44.5920   35.8040   45.0670 C   0  0  0  0  0  0  0  0  0  0  0  0
   45.1460   34.7180   45.6630 N   0  0  0  0  0  0  0  0  0  0  0  0
   45.4420   33.5690   44.9750 C   0  0  0  0  0  0  0  0  0  0  0  0
   45.1840   33.5210   43.7150 N   0  0  0  0  0  0  0  0  0  0  0  0
   43.8850   36.6400   43.3290 H   0  0  0  0  0  0  0  0  0  0  0  0
   44.3850   36.6850   45.6850 H   0  0  0  0  0  0  0  0  0  0  0  0
   46.0320   32.4380   45.7090 C   0  0  1  0  0  0  0  0  0  0  0  0
   46.9760   32.7210   46.8590 C   0  0  0  0  0  0  0  0  0  0  0  0
   45.5620   32.2840   47.1130 C   0  0  1  0  0  0  0  0  0  0  0  0
   46.1670   31.5030   45.1480 H   0  0  0  0  0  0  0  0  0  0  0  0
   47.2960   33.7670   47.0060 H   0  0  0  0  0  0  0  0  0  0  0  0
   47.7230   31.9200   47.0280 H   0  0  0  0  0  0  0  0  0  0  0  0
   45.3790   31.2880   47.5620 H   0  0  0  0  0  0  0  0  0  0  0  0
   44.7790   33.3430   47.7300 N   0  0  0  0  0  0  0  0  0  0  0  0
   43.9110   32.9920   48.1600 H   0  0  0  0  0  0  0  0  0  0  0  0
   45.3290   33.9520   48.3550 H   0  0  0  0  0  0  0  0  0  0  0  0
  1 23  1  0  0  0  0
  2  1  2  0  0  0  0
  3 13  1  0  0  0  0
  3  4  1  0  0  0  0
  4  1  1  0  0  0  0
  5  4  2  0  0  0  0
  5  9  1  0  0  0  0
  6  5  1  0  0  0  0
  7  8  1  0  0  0  0
  7  6  2  0  0  0  0
  8  3  2  0  0  0  0
 10  6  1  0  0  0  0
 11  7  1  0  0  0  0
 12  8  1  0  0  0  0
 13 15  2  0  0  0  0
 14 13  2  0  0  0  0
 16 13  1  0  0  0  0
 16 17  1  0  0  0  0
 18 17  2  0  0  0  0
 18 19  1  0  0  0  0
 20 18  1  0  0  0  0
 21 22  1  0  0  0  0
 21 20  2  0  0  0  0
 22 16  2  0  0  0  0
 23 24  2  0  0  0  0
 23 28  1  0  0  0  0
 24 25  1  0  0  0  0
 25 26  2  0  0  0  0
 25 30  1  0  0  0  0
 27 26  1  0  0  0  0
 27 31  1  0  0  0  0
 28 27  2  0  0  0  0
 29 24  1  0  0  0  0
 31 34  1  6  0  0  0
 31 32  1  0  0  0  0
 31 33  1  0  0  0  0
 32 35  1  0  0  0  0
 32 36  1  0  0  0  0
 32 33  1  0  0  0  0
 33 37  1  1  0  0  0
 33 38  1  0  0  0  0
 38 39  1  0  0  0  0
 38 40  1  0  0  0  0
M  END
>  <minimizedAffinity>
-5.70653343

>  <minimizedRMSD>
1.05411851

$$$$
