
 OpenBabel03252508023D

 40 43  0  0  1  0  0  0  0  0999 V2000
   44.2210   34.3670   41.5470 C   0  0  0  0  0  0  0  0  0  0  0  0
   45.0960   34.2570   40.6190 O   0  0  0  0  0  0  0  0  0  0  0  0
   42.0210   33.3010   41.1370 C   0  0  0  0  0  0  0  0  0  0  0  0
   42.7810   34.4180   41.3240 C   0  0  0  0  0  0  0  0  0  0  0  0
   42.1310   35.6660   41.2890 C   0  0  0  0  0  0  0  0  0  0  0  0
   40.7850   35.8100   41.0780 C   0  0  0  0  0  0  0  0  0  0  0  0
   40.0280   34.6820   40.8920 C   0  0  0  0  0  0  0  0  0  0  0  0
   40.6480   33.4690   40.9240 C   0  0  0  0  0  0  0  0  0  0  0  0
   42.6520   36.6050   41.4180 H   0  0  0  0  0  0  0  0  0  0  0  0
   40.2960   36.7650   41.0520 H   0  0  0  0  0  0  0  0  0  0  0  0
   38.9780   34.7080   40.7220 H   0  0  0  0  0  0  0  0  0  0  0  0
   40.0380   32.5610   40.7740 H   0  0  0  0  0  0  0  0  0  0  0  0
   42.6680   31.7420   41.2050 S   0  0  0  0  0  0  0  0  0  0  0  0
   41.5660   30.9090   40.5080 O   0  0  0  0  0  0  0  0  0  0  0  0
   42.7810   31.2370   42.6060 O   0  0  0  0  0  0  0  0  0  0  0  0
   43.8120   31.0010   40.2190 C   0  0  0  0  0  0  0  0  0  0  0  0
   43.5120   31.0100   38.8340 C   0  0  0  0  0  3  0  0  0  0  0  0
   44.3490   30.5260   37.8630 C   0  0  0  0  0  0  0  0  0  0  0  0
   44.1130   30.5410   36.8250 H   0  0  0  0  0  0  0  0  0  0  0  0
   45.5070   30.0230   38.2870 N   0  0  0  0  0  0  0  0  0  0  0  0
   45.8660   29.9730   39.5540 C   0  0  0  0  0  3  0  0  0  0  0  0
   45.0210   30.4550   40.4510 N   0  0  0  0  0  0  0  0  0  0  0  0
   44.5780   34.4560   42.9330 C   0  0  0  0  0  0  0  0  0  0  0  0
   44.3050   35.7130   43.5660 C   0  0  0  0  0  0  0  0  0  0  0  0
   44.6340   35.8150   44.9060 C   0  0  0  0  0  0  0  0  0  0  0  0
   45.1830   34.7400   45.5280 N   0  0  0  0  0  0  0  0  0  0  0  0
   45.4250   33.5560   44.8800 C   0  0  0  0  0  0  0  0  0  0  0  0
   45.1200   33.4620   43.6330 N   0  0  0  0  0  0  0  0  0  0  0  0
   43.8840   36.5950   43.1600 H   0  0  0  0  0  0  0  0  0  0  0  0
   44.4710   36.7260   45.4930 H   0  0  0  0  0  0  0  0  0  0  0  0
   46.0140   32.4420   45.6410 C   0  0  1  0  0  0  0  0  0  0  0  0
   46.9630   32.7510   46.7800 C   0  0  0  0  0  0  0  0  0  0  0  0
   45.5490   32.3260   47.0490 C   0  0  1  0  0  0  0  0  0  0  0  0
   46.1440   31.4930   45.1030 H   0  0  0  0  0  0  0  0  0  0  0  0
   47.2870   33.8000   46.8990 H   0  0  0  0  0  0  0  0  0  0  0  0
   47.7080   31.9520   46.9670 H   0  0  0  0  0  0  0  0  0  0  0  0
   45.3630   31.3420   47.5240 H   0  0  0  0  0  0  0  0  0  0  0  0
   44.7710   33.4030   47.6430 N   0  0  0  0  0  0  0  0  0  0  0  0
   43.9040   33.0660   48.0850 H   0  0  0  0  0  0  0  0  0  0  0  0
   45.3250   34.0250   48.2500 H   0  0  0  0  0  0  0  0  0  0  0  0
  1 23  1  0  0  0  0
  2  1  2  0  0  0  0
  3 13  1  0  0  0  0
  3  4  1  0  0  0  0
  4  1  1  0  0  0  0
  5  4  2  0  0  0  0
  5  9  1  0  0  0  0
  6  5  1  0  0  0  0
  7  8  1  0  0  0  0
  7  6  2  0  0  0  0
  8  3  2  0  0  0  0
 10  6  1  0  0  0  0
 11  7  1  0  0  0  0
 12  8  1  0  0  0  0
 13 15  2  0  0  0  0
 14 13  2  0  0  0  0
 16 22  1  0  0  0  0
 16 13  1  0  0  0  0
 17 16  2  0  0  0  0
 18 20  2  0  0  0  0
 18 17  1  0  0  0  0
 19 18  1  0  0  0  0
 20 21  1  0  0  0  0
 21 22  2  0  0  0  0
 23 24  2  0  0  0  0
 23 28  1  0  0  0  0
 24 25  1  0  0  0  0
 25 30  1  0  0  0  0
 25 26  2  0  0  0  0
 27 26  1  0  0  0  0
 27 31  1  0  0  0  0
 28 27  2  0  0  0  0
 29 24  1  0  0  0  0
 31 34  1  6  0  0  0
 31 32  1  0  0  0  0
 31 33  1  0  0  0  0
 32 35  1  0  0  0  0
 32 36  1  0  0  0  0
 32 33  1  0  0  0  0
 33 37  1  1  0  0  0
 33 38  1  0  0  0  0
 38 39  1  0  0  0  0
 38 40  1  0  0  0  0
M  END
>  <minimizedAffinity>
-5.75174665

>  <minimizedRMSD>
1.45875609

$$$$
