
 OpenBabel03252508023D

 40 43  0  0  1  0  0  0  0  0999 V2000
   44.2430   34.3740   41.5610 C   0  0  0  0  0  0  0  0  0  0  0  0
   45.1250   34.2890   40.6370 O   0  0  0  0  0  0  0  0  0  0  0  0
   42.0620   33.2630   41.1650 C   0  0  0  0  0  0  0  0  0  0  0  0
   42.8040   34.3970   41.3300 C   0  0  0  0  0  0  0  0  0  0  0  0
   42.1340   35.6330   41.2630 C   0  0  0  0  0  0  0  0  0  0  0  0
   40.7870   35.7500   41.0430 C   0  0  0  0  0  0  0  0  0  0  0  0
   40.0480   34.6060   40.8780 C   0  0  0  0  0  0  0  0  0  0  0  0
   40.6870   33.4040   40.9410 C   0  0  0  0  0  0  0  0  0  0  0  0
   42.6390   36.5830   41.3740 H   0  0  0  0  0  0  0  0  0  0  0  0
   40.2820   36.6970   40.9930 H   0  0  0  0  0  0  0  0  0  0  0  0
   39.0000   34.6120   40.7030 H   0  0  0  0  0  0  0  0  0  0  0  0
   40.0930   32.4840   40.8080 H   0  0  0  0  0  0  0  0  0  0  0  0
   42.7330   31.7170   41.2710 S   0  0  0  0  0  0  0  0  0  0  0  0
   41.6750   30.8590   40.5390 O   0  0  0  0  0  0  0  0  0  0  0  0
   42.8010   31.2250   42.6790 O   0  0  0  0  0  0  0  0  0  0  0  0
   43.9280   30.9900   40.3370 C   0  0  0  0  0  0  0  0  0  0  0  0
   44.4540   29.7830   40.8620 C   0  0  0  0  0  3  0  0  0  0  0  0
   45.3780   29.0020   40.2180 C   0  0  0  0  0  0  0  0  0  0  0  0
   45.7640   28.0970   40.6230 H   0  0  0  0  0  0  0  0  0  0  0  0
   45.7820   29.4380   39.0260 N   0  0  0  0  0  0  0  0  0  0  0  0
   45.3480   30.5470   38.4630 C   0  0  0  0  0  3  0  0  0  0  0  0
   44.4560   31.2630   39.1280 N   0  0  0  0  0  0  0  0  0  0  0  0
   44.5890   34.4600   42.9500 C   0  0  0  0  0  0  0  0  0  0  0  0
   44.3060   35.7140   43.5840 C   0  0  0  0  0  0  0  0  0  0  0  0
   44.6250   35.8120   44.9280 C   0  0  0  0  0  0  0  0  0  0  0  0
   45.1760   34.7390   45.5490 N   0  0  0  0  0  0  0  0  0  0  0  0
   45.4280   33.5580   44.8990 C   0  0  0  0  0  0  0  0  0  0  0  0
   45.1320   33.4670   43.6500 N   0  0  0  0  0  0  0  0  0  0  0  0
   43.8830   36.5940   43.1780 H   0  0  0  0  0  0  0  0  0  0  0  0
   44.4540   36.7200   45.5160 H   0  0  0  0  0  0  0  0  0  0  0  0
   46.0190   32.4450   45.6600 C   0  0  1  0  0  0  0  0  0  0  0  0
   46.9650   32.7550   46.8010 C   0  0  0  0  0  0  0  0  0  0  0  0
   45.5510   32.3270   47.0680 C   0  0  1  0  0  0  0  0  0  0  0  0
   46.1520   31.4960   45.1220 H   0  0  0  0  0  0  0  0  0  0  0  0
   47.2870   33.8040   46.9210 H   0  0  0  0  0  0  0  0  0  0  0  0
   47.7110   31.9580   46.9890 H   0  0  0  0  0  0  0  0  0  0  0  0
   45.3670   31.3420   47.5420 H   0  0  0  0  0  0  0  0  0  0  0  0
   44.7700   33.4020   47.6600 N   0  0  0  0  0  0  0  0  0  0  0  0
   43.9030   33.0630   48.1010 H   0  0  0  0  0  0  0  0  0  0  0  0
   45.3220   34.0250   48.2690 H   0  0  0  0  0  0  0  0  0  0  0  0
  1 23  1  0  0  0  0
  2  1  2  0  0  0  0
  3 13  1  0  0  0  0
  3  4  1  0  0  0  0
  4  1  1  0  0  0  0
  5  4  2  0  0  0  0
  5  9  1  0  0  0  0
  6  5  1  0  0  0  0
  7  8  1  0  0  0  0
  7  6  2  0  0  0  0
  8  3  2  0  0  0  0
 10  6  1  0  0  0  0
 11  7  1  0  0  0  0
 12  8  1  0  0  0  0
 13 15  2  0  0  0  0
 14 13  2  0  0  0  0
 16 17  1  0  0  0  0
 16 13  1  0  0  0  0
 18 19  1  0  0  0  0
 18 17  2  0  0  0  0
 20 18  1  0  0  0  0
 21 20  2  0  0  0  0
 21 22  1  0  0  0  0
 22 16  2  0  0  0  0
 23 24  2  0  0  0  0
 23 28  1  0  0  0  0
 24 25  1  0  0  0  0
 25 30  1  0  0  0  0
 25 26  2  0  0  0  0
 27 26  1  0  0  0  0
 27 31  1  0  0  0  0
 28 27  2  0  0  0  0
 29 24  1  0  0  0  0
 31 34  1  6  0  0  0
 31 32  1  0  0  0  0
 31 33  1  0  0  0  0
 32 35  1  0  0  0  0
 32 36  1  0  0  0  0
 32 33  1  0  0  0  0
 33 37  1  1  0  0  0
 33 38  1  0  0  0  0
 38 39  1  0  0  0  0
 38 40  1  0  0  0  0
M  END
>  <minimizedAffinity>
-5.68467522

>  <minimizedRMSD>
1.15891266

$$$$
