
 OpenBabel03252508023D

 40 43  0  0  1  0  0  0  0  0999 V2000
   44.2470   34.4060   41.5690 C   0  0  0  0  0  0  0  0  0  0  0  0
   45.1310   34.3530   40.6450 O   0  0  0  0  0  0  0  0  0  0  0  0
   42.0870   33.2570   41.1700 C   0  0  0  0  0  0  0  0  0  0  0  0
   42.8070   34.4030   41.3360 C   0  0  0  0  0  0  0  0  0  0  0  0
   42.1150   35.6270   41.2700 C   0  0  0  0  0  0  0  0  0  0  0  0
   40.7670   35.7200   41.0480 C   0  0  0  0  0  0  0  0  0  0  0  0
   40.0490   34.5630   40.8820 C   0  0  0  0  0  0  0  0  0  0  0  0
   40.7100   33.3730   40.9450 C   0  0  0  0  0  0  0  0  0  0  0  0
   42.6030   36.5860   41.3820 H   0  0  0  0  0  0  0  0  0  0  0  0
   40.2450   36.6570   40.9990 H   0  0  0  0  0  0  0  0  0  0  0  0
   39.0010   34.5500   40.7060 H   0  0  0  0  0  0  0  0  0  0  0  0
   40.1320   32.4420   40.8110 H   0  0  0  0  0  0  0  0  0  0  0  0
   42.7850   31.7230   41.2760 S   0  0  0  0  0  0  0  0  0  0  0  0
   41.8230   30.8740   40.4130 O   0  0  0  0  0  0  0  0  0  0  0  0
   42.7350   31.1720   42.6630 O   0  0  0  0  0  0  0  0  0  0  0  0
   44.0800   31.0630   40.4290 C   0  0  0  0  0  0  0  0  0  0  0  0
   45.2290   30.7750   41.2090 C   0  0  0  0  0  3  0  0  0  0  0  0
   46.3560   30.1670   40.7220 C   0  0  0  0  0  0  0  0  0  0  0  0
   47.2110   29.9560   41.3190 H   0  0  0  0  0  0  0  0  0  0  0  0
   46.3340   29.8430   39.4310 N   0  0  0  0  0  0  0  0  0  0  0  0
   45.3120   30.0740   38.6320 C   0  0  0  0  0  3  0  0  0  0  0  0
   44.2470   30.6620   39.1540 N   0  0  0  0  0  0  0  0  0  0  0  0
   44.5900   34.4790   42.9590 C   0  0  0  0  0  0  0  0  0  0  0  0
   44.3060   35.7270   43.6050 C   0  0  0  0  0  0  0  0  0  0  0  0
   44.6220   35.8120   44.9500 C   0  0  0  0  0  0  0  0  0  0  0  0
   45.1700   34.7330   45.5630 N   0  0  0  0  0  0  0  0  0  0  0  0
   45.4230   33.5580   44.9020 C   0  0  0  0  0  0  0  0  0  0  0  0
   45.1300   33.4780   43.6520 N   0  0  0  0  0  0  0  0  0  0  0  0
   43.8850   36.6120   43.2070 H   0  0  0  0  0  0  0  0  0  0  0  0
   44.4500   36.7150   45.5470 H   0  0  0  0  0  0  0  0  0  0  0  0
   46.0110   32.4370   45.6540 C   0  0  1  0  0  0  0  0  0  0  0  0
   46.9670   32.7350   46.7900 C   0  0  0  0  0  0  0  0  0  0  0  0
   45.5510   32.3150   47.0640 C   0  0  1  0  0  0  0  0  0  0  0  0
   46.1340   31.4900   45.1100 H   0  0  0  0  0  0  0  0  0  0  0  0
   47.2960   33.7820   46.9140 H   0  0  0  0  0  0  0  0  0  0  0  0
   47.7080   31.9320   46.9700 H   0  0  0  0  0  0  0  0  0  0  0  0
   45.3640   31.3290   47.5340 H   0  0  0  0  0  0  0  0  0  0  0  0
   44.7820   33.3920   47.6670 N   0  0  0  0  0  0  0  0  0  0  0  0
   43.9150   33.0570   48.1110 H   0  0  0  0  0  0  0  0  0  0  0  0
   45.3410   34.0090   48.2750 H   0  0  0  0  0  0  0  0  0  0  0  0
  1 23  1  0  0  0  0
  2  1  2  0  0  0  0
  3 13  1  0  0  0  0
  3  4  1  0  0  0  0
  4  1  1  0  0  0  0
  5  4  2  0  0  0  0
  5  9  1  0  0  0  0
  6  5  1  0  0  0  0
  7  8  1  0  0  0  0
  7  6  2  0  0  0  0
  8  3  2  0  0  0  0
 10  6  1  0  0  0  0
 11  7  1  0  0  0  0
 12  8  1  0  0  0  0
 13 15  2  0  0  0  0
 14 13  2  0  0  0  0
 16 17  1  0  0  0  0
 16 13  1  0  0  0  0
 18 17  2  0  0  0  0
 18 19  1  0  0  0  0
 20 18  1  0  0  0  0
 21 22  1  0  0  0  0
 21 20  2  0  0  0  0
 22 16  2  0  0  0  0
 23 24  2  0  0  0  0
 23 28  1  0  0  0  0
 24 25  1  0  0  0  0
 25 30  1  0  0  0  0
 25 26  2  0  0  0  0
 27 26  1  0  0  0  0
 27 31  1  0  0  0  0
 28 27  2  0  0  0  0
 29 24  1  0  0  0  0
 31 34  1  6  0  0  0
 31 32  1  0  0  0  0
 31 33  1  0  0  0  0
 32 35  1  0  0  0  0
 32 36  1  0  0  0  0
 32 33  1  0  0  0  0
 33 37  1  1  0  0  0
 33 38  1  0  0  0  0
 38 39  1  0  0  0  0
 38 40  1  0  0  0  0
M  END
>  <minimizedAffinity>
-5.69363928

>  <minimizedRMSD>
1.11460459

$$$$
