
 OpenBabel03252508023D

 40 43  0  0  1  0  0  0  0  0999 V2000
   44.2560   34.4200   41.5800 C   0  0  0  0  0  0  0  0  0  0  0  0
   45.1440   34.3820   40.6590 O   0  0  0  0  0  0  0  0  0  0  0  0
   42.1090   33.2480   41.1790 C   0  0  0  0  0  0  0  0  0  0  0  0
   42.8180   34.4020   41.3440 C   0  0  0  0  0  0  0  0  0  0  0  0
   42.1140   35.6190   41.2720 C   0  0  0  0  0  0  0  0  0  0  0  0
   40.7650   35.6980   41.0470 C   0  0  0  0  0  0  0  0  0  0  0  0
   40.0590   34.5330   40.8830 C   0  0  0  0  0  0  0  0  0  0  0  0
   40.7320   33.3500   40.9500 C   0  0  0  0  0  0  0  0  0  0  0  0
   42.5920   36.5820   41.3830 H   0  0  0  0  0  0  0  0  0  0  0  0
   40.2340   36.6300   40.9930 H   0  0  0  0  0  0  0  0  0  0  0  0
   39.0120   34.5090   40.7030 H   0  0  0  0  0  0  0  0  0  0  0  0
   40.1640   32.4130   40.8180 H   0  0  0  0  0  0  0  0  0  0  0  0
   42.8230   31.7210   41.2920 S   0  0  0  0  0  0  0  0  0  0  0  0
   41.9400   30.8850   40.3360 O   0  0  0  0  0  0  0  0  0  0  0  0
   42.6800   31.1280   42.6550 O   0  0  0  0  0  0  0  0  0  0  0  0
   44.1870   31.1060   40.5240 C   0  0  0  0  0  0  0  0  0  0  0  0
   44.1230   31.0810   39.1070 C   0  0  0  0  0  3  0  0  0  0  0  0
   45.1570   30.6880   38.2990 C   0  0  0  0  0  0  0  0  0  0  0  0
   45.0970   30.6750   37.2360 H   0  0  0  0  0  0  0  0  0  0  0  0
   46.2740   30.3110   38.9180 N   0  0  0  0  0  0  0  0  0  0  0  0
   46.4200   30.3010   40.2270 C   0  0  0  0  0  3  0  0  0  0  0  0
   45.3900   30.6910   40.9620 N   0  0  0  0  0  0  0  0  0  0  0  0
   44.5960   34.4870   42.9720 C   0  0  0  0  0  0  0  0  0  0  0  0
   44.3060   35.7320   43.6220 C   0  0  0  0  0  0  0  0  0  0  0  0
   44.6180   35.8130   44.9680 C   0  0  0  0  0  0  0  0  0  0  0  0
   45.1680   34.7320   45.5780 N   0  0  0  0  0  0  0  0  0  0  0  0
   45.4260   33.5610   44.9130 C   0  0  0  0  0  0  0  0  0  0  0  0
   45.1370   33.4860   43.6620 N   0  0  0  0  0  0  0  0  0  0  0  0
   43.8840   36.6180   43.2260 H   0  0  0  0  0  0  0  0  0  0  0  0
   44.4420   36.7130   45.5680 H   0  0  0  0  0  0  0  0  0  0  0  0
   46.0140   32.4390   45.6620 C   0  0  1  0  0  0  0  0  0  0  0  0
   46.9670   32.7340   46.8020 C   0  0  0  0  0  0  0  0  0  0  0  0
   45.5520   32.3100   47.0710 C   0  0  1  0  0  0  0  0  0  0  0  0
   46.1410   31.4940   45.1150 H   0  0  0  0  0  0  0  0  0  0  0  0
   47.2940   33.7810   46.9300 H   0  0  0  0  0  0  0  0  0  0  0  0
   47.7100   31.9320   46.9800 H   0  0  0  0  0  0  0  0  0  0  0  0
   45.3660   31.3230   47.5370 H   0  0  0  0  0  0  0  0  0  0  0  0
   44.7790   33.3840   47.6760 N   0  0  0  0  0  0  0  0  0  0  0  0
   43.9120   33.0450   48.1170 H   0  0  0  0  0  0  0  0  0  0  0  0
   45.3360   33.9990   48.2880 H   0  0  0  0  0  0  0  0  0  0  0  0
  1 23  1  0  0  0  0
  2  1  2  0  0  0  0
  3 13  1  0  0  0  0
  3  4  1  0  0  0  0
  4  1  1  0  0  0  0
  5  4  2  0  0  0  0
  5  9  1  0  0  0  0
  6  5  1  0  0  0  0
  7  8  1  0  0  0  0
  7  6  2  0  0  0  0
  8  3  2  0  0  0  0
 10  6  1  0  0  0  0
 11  7  1  0  0  0  0
 12  8  1  0  0  0  0
 13 15  2  0  0  0  0
 14 13  2  0  0  0  0
 16 22  1  0  0  0  0
 16 13  1  0  0  0  0
 17 16  2  0  0  0  0
 18 20  2  0  0  0  0
 18 17  1  0  0  0  0
 19 18  1  0  0  0  0
 20 21  1  0  0  0  0
 21 22  2  0  0  0  0
 23 24  2  0  0  0  0
 23 28  1  0  0  0  0
 24 25  1  0  0  0  0
 25 30  1  0  0  0  0
 25 26  2  0  0  0  0
 27 26  1  0  0  0  0
 27 31  1  0  0  0  0
 28 27  2  0  0  0  0
 29 24  1  0  0  0  0
 31 34  1  6  0  0  0
 31 32  1  0  0  0  0
 31 33  1  0  0  0  0
 32 35  1  0  0  0  0
 32 36  1  0  0  0  0
 32 33  1  0  0  0  0
 33 37  1  1  0  0  0
 33 38  1  0  0  0  0
 38 39  1  0  0  0  0
 38 40  1  0  0  0  0
M  END
>  <minimizedAffinity>
-5.7336278

>  <minimizedRMSD>
1.03304267

$$$$
