
 OpenBabel03252508023D

 40 43  0  0  1  0  0  0  0  0999 V2000
   44.2270   34.3700   41.5500 C   0  0  0  0  0  0  0  0  0  0  0  0
   45.1040   34.2690   40.6230 O   0  0  0  0  0  0  0  0  0  0  0  0
   42.0330   33.2880   41.1480 C   0  0  0  0  0  0  0  0  0  0  0  0
   42.7870   34.4110   41.3250 C   0  0  0  0  0  0  0  0  0  0  0  0
   42.1300   35.6550   41.2780 C   0  0  0  0  0  0  0  0  0  0  0  0
   40.7840   35.7900   41.0650 C   0  0  0  0  0  0  0  0  0  0  0  0
   40.0330   34.6550   40.8880 C   0  0  0  0  0  0  0  0  0  0  0  0
   40.6590   33.4460   40.9320 C   0  0  0  0  0  0  0  0  0  0  0  0
   42.6460   36.5980   41.3990 H   0  0  0  0  0  0  0  0  0  0  0  0
   40.2890   36.7420   41.0290 H   0  0  0  0  0  0  0  0  0  0  0  0
   38.9830   34.6750   40.7170 H   0  0  0  0  0  0  0  0  0  0  0  0
   40.0540   32.5340   40.7890 H   0  0  0  0  0  0  0  0  0  0  0  0
   42.6880   31.7330   41.2320 S   0  0  0  0  0  0  0  0  0  0  0  0
   41.5980   30.8900   40.5300 O   0  0  0  0  0  0  0  0  0  0  0  0
   42.7930   31.2380   42.6360 O   0  0  0  0  0  0  0  0  0  0  0  0
   43.8450   30.9930   40.2600 C   0  0  0  0  0  0  0  0  0  0  0  0
   43.8480   31.4050   38.9040 C   0  0  0  0  0  3  0  0  0  0  0  0
   44.7580   30.9770   37.9720 C   0  0  0  0  0  0  0  0  0  0  0  0
   44.7500   31.2960   36.9560 H   0  0  0  0  0  0  0  0  0  0  0  0
   45.6810   30.1210   38.4070 N   0  0  0  0  0  0  0  0  0  0  0  0
   45.7510   29.6850   39.6470 C   0  0  0  0  0  3  0  0  0  0  0  0
   44.8490   30.1300   40.5060 N   0  0  0  0  0  0  0  0  0  0  0  0
   44.5810   34.4570   42.9380 C   0  0  0  0  0  0  0  0  0  0  0  0
   44.3040   35.7130   43.5720 C   0  0  0  0  0  0  0  0  0  0  0  0
   44.6310   35.8120   44.9130 C   0  0  0  0  0  0  0  0  0  0  0  0
   45.1810   34.7380   45.5340 N   0  0  0  0  0  0  0  0  0  0  0  0
   45.4260   33.5550   44.8840 C   0  0  0  0  0  0  0  0  0  0  0  0
   45.1240   33.4630   43.6370 N   0  0  0  0  0  0  0  0  0  0  0  0
   43.8830   36.5940   43.1660 H   0  0  0  0  0  0  0  0  0  0  0  0
   44.4660   36.7220   45.5010 H   0  0  0  0  0  0  0  0  0  0  0  0
   46.0160   32.4410   45.6440 C   0  0  1  0  0  0  0  0  0  0  0  0
   46.9650   32.7500   46.7830 C   0  0  0  0  0  0  0  0  0  0  0  0
   45.5510   32.3240   47.0530 C   0  0  1  0  0  0  0  0  0  0  0  0
   46.1460   31.4920   45.1060 H   0  0  0  0  0  0  0  0  0  0  0  0
   47.2890   33.7990   46.9030 H   0  0  0  0  0  0  0  0  0  0  0  0
   47.7100   31.9510   46.9700 H   0  0  0  0  0  0  0  0  0  0  0  0
   45.3660   31.3390   47.5270 H   0  0  0  0  0  0  0  0  0  0  0  0
   44.7730   33.4000   47.6470 N   0  0  0  0  0  0  0  0  0  0  0  0
   43.9060   33.0620   48.0890 H   0  0  0  0  0  0  0  0  0  0  0  0
   45.3270   34.0220   48.2550 H   0  0  0  0  0  0  0  0  0  0  0  0
  1 23  1  0  0  0  0
  2  1  2  0  0  0  0
  3 13  1  0  0  0  0
  3  4  1  0  0  0  0
  4  1  1  0  0  0  0
  5  4  2  0  0  0  0
  5  9  1  0  0  0  0
  6  5  1  0  0  0  0
  7  8  1  0  0  0  0
  7  6  2  0  0  0  0
  8  3  2  0  0  0  0
 10  6  1  0  0  0  0
 11  7  1  0  0  0  0
 12  8  1  0  0  0  0
 13 15  2  0  0  0  0
 14 13  2  0  0  0  0
 16 22  1  0  0  0  0
 16 13  1  0  0  0  0
 17 16  2  0  0  0  0
 18 20  2  0  0  0  0
 18 17  1  0  0  0  0
 19 18  1  0  0  0  0
 20 21  1  0  0  0  0
 21 22  2  0  0  0  0
 23 24  2  0  0  0  0
 23 28  1  0  0  0  0
 24 25  1  0  0  0  0
 25 30  1  0  0  0  0
 25 26  2  0  0  0  0
 27 26  1  0  0  0  0
 27 31  1  0  0  0  0
 28 27  2  0  0  0  0
 29 24  1  0  0  0  0
 31 34  1  6  0  0  0
 31 32  1  0  0  0  0
 31 33  1  0  0  0  0
 32 35  1  0  0  0  0
 32 36  1  0  0  0  0
 32 33  1  0  0  0  0
 33 37  1  1  0  0  0
 33 38  1  0  0  0  0
 38 39  1  0  0  0  0
 38 40  1  0  0  0  0
M  END
>  <minimizedAffinity>
-5.75441313

>  <minimizedRMSD>
1.54821002

$$$$
