
 OpenBabel03252503153D

 34 37  0  0  0  0  0  0  0  0999 V2000
   46.0800   34.7780   42.0070 C   0  0  0  0  0  0  0  0  0  0  0  0
   47.2720   35.1600   41.8270 O   0  0  0  0  0  0  0  0  0  0  0  0
   45.1650   34.3130   40.9150 C   0  0  0  0  0  0  0  0  0  0  0  0
   43.9040   34.8270   40.6290 C   0  0  0  0  0  0  0  0  0  0  0  0
   43.4510   34.1140   39.5770 N   0  0  0  0  0  0  0  0  0  0  0  0
   44.3920   33.2080   39.2360 C   0  0  0  0  0  0  0  0  0  0  0  0
   45.4580   33.3280   40.0640 N   0  0  0  0  0  0  0  0  0  0  0  0
   44.4070   32.2210   38.2000 N   0  0  0  0  0  0  0  0  0  0  0  0
   43.4040   35.6190   41.1390 H   0  0  0  0  0  0  0  0  0  0  0  0
   44.3120   31.1990   38.3680 H   0  0  0  0  0  0  0  0  0  0  0  0
   44.5240   32.6320   37.2350 H   0  0  0  0  0  0  0  0  0  0  0  0
   42.2070   34.2470   38.8990 C   0  0  0  0  0  0  0  0  0  0  0  0
   41.8220   35.4440   38.3350 C   0  0  0  0  0  3  0  0  0  0  0  0
   40.5770   35.4020   37.7100 C   0  0  0  0  0  0  0  0  0  0  0  0
   40.1890   36.3030   37.2350 H   0  0  0  0  0  0  0  0  0  0  0  0
   39.7860   34.3140   37.6400 N   0  0  0  0  0  0  0  0  0  0  0  0
   40.2100   33.1890   38.2020 C   0  0  0  0  0  3  0  0  0  0  0  0
   41.4020   33.1790   38.8160 N   0  0  0  0  0  0  0  0  0  0  0  0
   44.9580   35.9460   43.8510 C   0  0  0  0  0  0  0  0  0  0  0  0
   45.6220   34.8070   43.3530 C   0  0  0  0  0  0  0  0  0  0  0  0
   45.7680   33.7890   44.2670 C   0  0  0  0  0  0  0  0  0  0  0  0
   45.3140   33.8750   45.5250 N   0  0  0  0  0  0  0  0  0  0  0  0
   44.6790   34.9960   45.9590 C   0  0  0  0  0  0  0  0  0  0  0  0
   44.5080   36.0200   45.1140 N   0  0  0  0  0  0  0  0  0  0  0  0
   44.8170   36.7790   43.1740 H   0  0  0  0  0  0  0  0  0  0  0  0
   44.3340   35.0110   46.9840 H   0  0  0  0  0  0  0  0  0  0  0  0
   46.4260   32.6040   43.8540 C   0  0  0  0  0  0  0  0  0  0  0  0
   47.7230   32.1900   43.8030 C   0  0  0  0  0  0  0  0  0  0  0  0
   48.0430   30.9920   43.3570 C   0  0  0  0  0  0  0  0  0  0  0  0
   47.0520   30.1720   42.9460 C   0  0  0  0  0  0  0  0  0  0  0  0
   45.5650   31.1840   43.2170 S   0  0  0  0  0  0  0  0  0  0  0  0
   48.4540   32.9420   44.1650 H   0  0  0  0  0  0  0  0  0  0  0  0
   49.0450   30.5910   43.2850 H   0  0  0  0  0  0  0  0  0  0  0  0
   47.0190   29.1660   42.5450 H   0  0  0  0  0  0  0  0  0  0  0  0
  1 20  1  0  0  0  0
  2  1  2  0  0  0  0
  3  1  1  0  0  0  0
  4  3  2  0  0  0  0
  4  9  1  0  0  0  0
  5  4  1  0  0  0  0
  6  5  1  0  0  0  0
  6  7  2  0  0  0  0
  7  3  1  0  0  0  0
  8 10  1  0  0  0  0
  8  6  1  0  0  0  0
 11  8  1  0  0  0  0
 12  5  1  0  0  0  0
 13 12  2  0  0  0  0
 14 13  1  0  0  0  0
 15 14  1  0  0  0  0
 16 14  2  0  0  0  0
 16 17  1  0  0  0  0
 17 18  2  0  0  0  0
 18 12  1  0  0  0  0
 19 24  1  0  0  0  0
 20 19  2  0  0  0  0
 20 21  1  0  0  0  0
 21 22  2  0  0  0  0
 22 23  1  0  0  0  0
 23 26  1  0  0  0  0
 24 23  2  0  0  0  0
 25 19  1  0  0  0  0
 27 21  1  0  0  0  0
 28 27  2  0  0  0  0
 28 32  1  0  0  0  0
 29 28  1  0  0  0  0
 30 31  1  0  0  0  0
 30 29  2  0  0  0  0
 31 27  1  0  0  0  0
 33 29  1  0  0  0  0
 34 30  1  0  0  0  0
M  END
>  <minimizedAffinity>
-5.55111742

>  <minimizedRMSD>
0.913602889

$$$$
