
 OpenBabel03242523313D

 20 21  0  0  0  0  0  0  0  0999 V2000
   39.1190   29.8460   42.7380 C   0  0  0  0  0  0  0  0  0  0  0  0
   39.9040   29.2800   42.1740 H   0  0  0  0  0  0  0  0  0  0  0  0
   39.5410   30.4180   43.5710 H   0  0  0  0  0  0  0  0  0  0  0  0
   38.4720   32.6430   40.3940 C   0  0  0  0  0  0  0  0  0  0  0  0
   37.1890   32.3140   39.9440 C   0  0  0  0  0  0  0  0  0  0  0  0
   36.5690   31.1630   40.4360 C   0  0  0  0  0  0  0  0  0  0  0  0
   37.2330   30.3820   41.3490 N   0  0  0  0  0  0  0  0  0  0  0  0
   38.4750   30.7420   41.7560 C   0  0  0  0  0  0  0  0  0  0  0  0
   39.0850   31.8500   41.2890 N   0  0  0  0  0  0  0  0  0  0  0  0
   38.8680   33.5490   39.9590 H   0  0  0  0  0  0  0  0  0  0  0  0
   36.5670   32.8310   39.2410 H   0  0  0  0  0  0  0  0  0  0  0  0
   35.5840   30.8130   40.1590 H   0  0  0  0  0  0  0  0  0  0  0  0
   37.8550   28.6590   43.3030 S   0  0  0  0  0  0  0  0  0  0  0  0
   38.4800   26.9940   43.1450 C   0  0  0  0  0  0  0  0  0  0  0  0
   39.6680   26.4880   43.6800 C   0  0  0  0  0  3  0  0  0  0  0  0
   39.9570   25.1630   43.4290 C   0  0  0  0  0  0  0  0  0  0  0  0
   40.8930   24.8230   43.8680 H   0  0  0  0  0  0  0  0  0  0  0  0
   39.1280   24.3870   42.6980 N   0  0  0  0  0  0  0  0  0  0  0  0
   37.9720   24.9070   42.1860 C   0  0  0  0  0  3  0  0  0  0  0  0
   37.6830   26.1990   42.4270 N   0  0  0  0  0  0  0  0  0  0  0  0
  1 13  1  0  0  0  0
  1  3  1  0  0  0  0
  2  1  1  0  0  0  0
  4  9  1  0  0  0  0
  5  4  2  0  0  0  0
  5  6  1  0  0  0  0
  6  7  2  0  0  0  0
  7  8  1  0  0  0  0
  8  1  1  0  0  0  0
  9  8  2  0  0  0  0
 10  4  1  0  0  0  0
 11  5  1  0  0  0  0
 12  6  1  0  0  0  0
 14 13  1  0  0  0  0
 14 15  1  0  0  0  0
 16 15  2  0  0  0  0
 16 17  1  0  0  0  0
 18 16  1  0  0  0  0
 19 20  1  0  0  0  0
 19 18  2  0  0  0  0
 20 14  2  0  0  0  0
M  END
>  <minimizedAffinity>
-3.98818922

$$$$

 OpenBabel03242523313D

 20 21  0  0  0  0  0  0  0  0999 V2000
   38.9530   29.3330   42.8840 C   0  0  0  0  0  0  0  0  0  0  0  0
   39.6980   28.7530   42.2820 H   0  0  0  0  0  0  0  0  0  0  0  0
   39.4250   29.8790   43.7080 H   0  0  0  0  0  0  0  0  0  0  0  0
   38.3440   32.0970   40.4920 C   0  0  0  0  0  0  0  0  0  0  0  0
   36.9860   31.9100   40.2180 C   0  0  0  0  0  0  0  0  0  0  0  0
   36.3040   30.8620   40.8410 C   0  0  0  0  0  0  0  0  0  0  0  0
   36.9820   30.0410   41.7070 N   0  0  0  0  0  0  0  0  0  0  0  0
   38.3000   30.2620   41.9420 C   0  0  0  0  0  0  0  0  0  0  0  0
   38.9690   31.2690   41.3470 N   0  0  0  0  0  0  0  0  0  0  0  0
   38.7850   32.9310   39.9650 H   0  0  0  0  0  0  0  0  0  0  0  0
   36.3440   32.4720   39.5690 H   0  0  0  0  0  0  0  0  0  0  0  0
   35.2570   30.6240   40.7040 H   0  0  0  0  0  0  0  0  0  0  0  0
   37.6780   28.1750   43.4810 S   0  0  0  0  0  0  0  0  0  0  0  0
   38.0510   26.5240   42.9140 C   0  0  0  0  0  0  0  0  0  0  0  0
   37.2020   25.6640   42.2110 C   0  0  0  0  0  3  0  0  0  0  0  0
   37.7010   24.4240   41.8730 C   0  0  0  0  0  0  0  0  0  0  0  0
   36.9980   23.7970   41.3280 H   0  0  0  0  0  0  0  0  0  0  0  0
   38.9560   24.0540   42.2070 N   0  0  0  0  0  0  0  0  0  0  0  0
   39.7660   24.9140   42.8950 C   0  0  0  0  0  3  0  0  0  0  0  0
   39.2870   26.1260   43.2280 N   0  0  0  0  0  0  0  0  0  0  0  0
  1 13  1  0  0  0  0
  1  3  1  0  0  0  0
  2  1  1  0  0  0  0
  4  9  1  0  0  0  0
  5  4  2  0  0  0  0
  5  6  1  0  0  0  0
  6  7  2  0  0  0  0
  7  8  1  0  0  0  0
  8  1  1  0  0  0  0
  9  8  2  0  0  0  0
 10  4  1  0  0  0  0
 11  5  1  0  0  0  0
 12  6  1  0  0  0  0
 14 20  1  0  0  0  0
 14 13  1  0  0  0  0
 15 14  2  0  0  0  0
 16 18  2  0  0  0  0
 16 15  1  0  0  0  0
 17 16  1  0  0  0  0
 18 19  1  0  0  0  0
 19 20  2  0  0  0  0
M  END
>  <minimizedAffinity>
-3.98224187

$$$$

 OpenBabel03242523313D

 20 21  0  0  0  0  0  0  0  0999 V2000
   36.1540   30.1000   40.5930 C   0  0  0  0  0  0  0  0  0  0  0  0
   35.3420   29.4550   40.1700 H   0  0  0  0  0  0  0  0  0  0  0  0
   35.7660   31.0480   40.9840 H   0  0  0  0  0  0  0  0  0  0  0  0
   38.4380   28.9980   43.2960 C   0  0  0  0  0  0  0  0  0  0  0  0
   37.8740   27.7610   43.6240 C   0  0  0  0  0  0  0  0  0  0  0  0
   36.7420   27.3230   42.9330 C   0  0  0  0  0  0  0  0  0  0  0  0
   36.2090   28.1170   41.9470 N   0  0  0  0  0  0  0  0  0  0  0  0
   36.7910   29.3090   41.6640 C   0  0  0  0  0  0  0  0  0  0  0  0
   37.8830   29.7430   42.3240 N   0  0  0  0  0  0  0  0  0  0  0  0
   39.3090   29.2500   43.8830 H   0  0  0  0  0  0  0  0  0  0  0  0
   38.1870   27.0520   44.3640 H   0  0  0  0  0  0  0  0  0  0  0  0
   36.2250   26.3890   43.1020 H   0  0  0  0  0  0  0  0  0  0  0  0
   37.4050   30.3670   39.2940 S   0  0  0  0  0  0  0  0  0  0  0  0
   38.2430   31.9180   39.5750 C   0  0  0  0  0  0  0  0  0  0  0  0
   37.7090   33.0670   40.1660 C   0  0  0  0  0  3  0  0  0  0  0  0
   38.5410   34.1600   40.2810 C   0  0  0  0  0  0  0  0  0  0  0  0
   38.0740   35.0250   40.7470 H   0  0  0  0  0  0  0  0  0  0  0  0
   39.8180   34.1240   39.8410 N   0  0  0  0  0  0  0  0  0  0  0  0
   40.3150   32.9880   39.2670 C   0  0  0  0  0  3  0  0  0  0  0  0
   39.5100   31.9170   39.1510 N   0  0  0  0  0  0  0  0  0  0  0  0
  1  3  1  0  0  0  0
  1  8  1  0  0  0  0
  2  1  1  0  0  0  0
  4  5  1  0  0  0  0
  4 10  1  0  0  0  0
  5 11  1  0  0  0  0
  6 12  1  0  0  0  0
  6  5  2  0  0  0  0
  7  6  1  0  0  0  0
  8  7  2  0  0  0  0
  8  9  1  0  0  0  0
  9  4  2  0  0  0  0
 13 14  1  0  0  0  0
 13  1  1  0  0  0  0
 14 15  1  0  0  0  0
 15 16  2  0  0  0  0
 16 17  1  0  0  0  0
 18 16  1  0  0  0  0
 19 18  2  0  0  0  0
 20 19  1  0  0  0  0
 20 14  2  0  0  0  0
M  END
>  <minimizedAffinity>
-3.97940326

$$$$

 OpenBabel03242523313D

 20 21  0  0  0  0  0  0  0  0999 V2000
   37.0010   31.0510   39.3180 C   0  0  0  0  0  0  0  0  0  0  0  0
   36.2350   31.5090   38.6440 H   0  0  0  0  0  0  0  0  0  0  0  0
   37.4040   30.1170   38.9100 H   0  0  0  0  0  0  0  0  0  0  0  0
   40.2430   32.8340   39.1060 C   0  0  0  0  0  0  0  0  0  0  0  0
   39.9480   33.9970   39.8240 C   0  0  0  0  0  0  0  0  0  0  0  0
   38.6700   34.1590   40.3630 C   0  0  0  0  0  0  0  0  0  0  0  0
   37.7330   33.1720   40.1770 N   0  0  0  0  0  0  0  0  0  0  0  0
   38.0670   32.0610   39.4740 C   0  0  0  0  0  0  0  0  0  0  0  0
   39.2960   31.8930   38.9480 N   0  0  0  0  0  0  0  0  0  0  0  0
   41.2550   32.7990   38.7290 H   0  0  0  0  0  0  0  0  0  0  0  0
   40.5790   34.8360   40.0400 H   0  0  0  0  0  0  0  0  0  0  0  0
   38.3310   35.0140   40.9330 H   0  0  0  0  0  0  0  0  0  0  0  0
   36.2430   30.8010   40.9570 S   0  0  0  0  0  0  0  0  0  0  0  0
   37.0370   29.4330   41.7850 C   0  0  0  0  0  0  0  0  0  0  0  0
   36.5270   28.1430   41.9560 C   0  0  0  0  0  3  0  0  0  0  0  0
   37.3170   27.2390   42.6350 C   0  0  0  0  0  0  0  0  0  0  0  0
   36.8700   26.2520   42.7390 H   0  0  0  0  0  0  0  0  0  0  0  0
   38.5310   27.5840   43.1140 N   0  0  0  0  0  0  0  0  0  0  0  0
   39.0070   28.8530   42.9340 C   0  0  0  0  0  3  0  0  0  0  0  0
   38.2420   29.7410   42.2730 N   0  0  0  0  0  0  0  0  0  0  0  0
  1  8  1  0  0  0  0
  1 13  1  0  0  0  0
  2  1  1  0  0  0  0
  3  1  1  0  0  0  0
  4  5  1  0  0  0  0
  5 11  1  0  0  0  0
  5  6  2  0  0  0  0
  6 12  1  0  0  0  0
  7  6  1  0  0  0  0
  8  7  2  0  0  0  0
  9  4  2  0  0  0  0
  9  8  1  0  0  0  0
 10  4  1  0  0  0  0
 13 14  1  0  0  0  0
 14 15  2  0  0  0  0
 14 20  1  0  0  0  0
 15 16  1  0  0  0  0
 16 17  1  0  0  0  0
 16 18  2  0  0  0  0
 19 18  1  0  0  0  0
 20 19  2  0  0  0  0
M  END
>  <minimizedAffinity>
-3.91569328

$$$$

 OpenBabel03242523313D

 20 21  0  0  0  0  0  0  0  0999 V2000
   37.7610   28.8310   43.1680 C   0  0  0  0  0  0  0  0  0  0  0  0
   36.9360   28.7780   43.9230 H   0  0  0  0  0  0  0  0  0  0  0  0
   38.5310   29.5580   43.4480 H   0  0  0  0  0  0  0  0  0  0  0  0
   39.9770   25.8900   43.5850 C   0  0  0  0  0  0  0  0  0  0  0  0
   39.2700   24.9260   42.8600 C   0  0  0  0  0  0  0  0  0  0  0  0
   38.0660   25.2820   42.2470 C   0  0  0  0  0  0  0  0  0  0  0  0
   37.6060   26.5700   42.3700 N   0  0  0  0  0  0  0  0  0  0  0  0
   38.3280   27.4700   43.0830 C   0  0  0  0  0  0  0  0  0  0  0  0
   39.4900   27.1390   43.6790 N   0  0  0  0  0  0  0  0  0  0  0  0
   40.8950   25.5210   44.0210 H   0  0  0  0  0  0  0  0  0  0  0  0
   39.5130   23.8970   42.6880 H   0  0  0  0  0  0  0  0  0  0  0  0
   37.4370   24.6220   41.6650 H   0  0  0  0  0  0  0  0  0  0  0  0
   37.0250   29.2170   41.5450 S   0  0  0  0  0  0  0  0  0  0  0  0
   37.5620   30.8340   41.0100 C   0  0  0  0  0  0  0  0  0  0  0  0
   36.8540   31.7310   40.2060 C   0  0  0  0  0  3  0  0  0  0  0  0
   37.4660   32.9310   39.9130 C   0  0  0  0  0  0  0  0  0  0  0  0
   36.8710   33.5900   39.2840 H   0  0  0  0  0  0  0  0  0  0  0  0
   38.6970   33.2280   40.3830 N   0  0  0  0  0  0  0  0  0  0  0  0
   39.3680   32.3330   41.1680 C   0  0  0  0  0  3  0  0  0  0  0  0
   38.7780   31.1590   41.4580 N   0  0  0  0  0  0  0  0  0  0  0  0
  1  3  1  0  0  0  0
  1  2  1  0  0  0  0
  4  9  1  0  0  0  0
  4 10  1  0  0  0  0
  5  4  2  0  0  0  0
  6  7  2  0  0  0  0
  6  5  1  0  0  0  0
  7  8  1  0  0  0  0
  8  1  1  0  0  0  0
  8  9  2  0  0  0  0
 11  5  1  0  0  0  0
 12  6  1  0  0  0  0
 13  1  1  0  0  0  0
 14 20  1  0  0  0  0
 14 13  1  0  0  0  0
 15 14  2  0  0  0  0
 16 15  1  0  0  0  0
 16 18  2  0  0  0  0
 17 16  1  0  0  0  0
 18 19  1  0  0  0  0
 19 20  2  0  0  0  0
M  END
>  <minimizedAffinity>
-3.86836171

$$$$

 OpenBabel03242523313D

 20 21  0  0  0  0  0  0  0  0999 V2000
   36.8610   27.1040   42.8990 C   0  0  0  0  0  0  0  0  0  0  0  0
   36.1590   27.5530   42.1500 H   0  0  0  0  0  0  0  0  0  0  0  0
   36.3420   26.7800   43.8080 H   0  0  0  0  0  0  0  0  0  0  0  0
   37.5020   23.7510   41.4570 C   0  0  0  0  0  0  0  0  0  0  0  0
   38.7940   23.9270   40.9530 C   0  0  0  0  0  0  0  0  0  0  0  0
   39.4230   25.1650   41.1070 C   0  0  0  0  0  0  0  0  0  0  0  0
   38.7570   26.1790   41.7510 N   0  0  0  0  0  0  0  0  0  0  0  0
   37.5050   25.9610   42.2230 C   0  0  0  0  0  0  0  0  0  0  0  0
   36.8870   24.7710   42.0800 N   0  0  0  0  0  0  0  0  0  0  0  0
   37.1000   22.7620   41.2910 H   0  0  0  0  0  0  0  0  0  0  0  0
   39.4180   23.2260   40.4360 H   0  0  0  0  0  0  0  0  0  0  0  0
   40.4160   25.4130   40.7590 H   0  0  0  0  0  0  0  0  0  0  0  0
   38.1630   28.3270   43.2640 S   0  0  0  0  0  0  0  0  0  0  0  0
   37.9770   29.7420   42.1910 C   0  0  0  0  0  0  0  0  0  0  0  0
   38.9730   30.6460   41.8120 C   0  0  0  0  0  3  0  0  0  0  0  0
   38.6030   31.6750   40.9710 C   0  0  0  0  0  0  0  0  0  0  0  0
   39.4170   32.3470   40.7100 H   0  0  0  0  0  0  0  0  0  0  0  0
   37.3330   31.8030   40.5320 N   0  0  0  0  0  0  0  0  0  0  0  0
   36.3770   30.9050   40.9180 C   0  0  0  0  0  3  0  0  0  0  0  0
   36.7300   29.8990   41.7380 N   0  0  0  0  0  0  0  0  0  0  0  0
  1 13  1  0  0  0  0
  1  3  1  0  0  0  0
  2  1  1  0  0  0  0
  4  9  1  0  0  0  0
  5  6  1  0  0  0  0
  5  4  2  0  0  0  0
  6  7  2  0  0  0  0
  7  8  1  0  0  0  0
  8  1  1  0  0  0  0
  9  8  2  0  0  0  0
 10  4  1  0  0  0  0
 11  5  1  0  0  0  0
 12  6  1  0  0  0  0
 14 13  1  0  0  0  0
 15 14  1  0  0  0  0
 16 15  2  0  0  0  0
 17 16  1  0  0  0  0
 18 19  2  0  0  0  0
 18 16  1  0  0  0  0
 19 20  1  0  0  0  0
 20 14  2  0  0  0  0
M  END
>  <minimizedAffinity>
-3.77797127

$$$$

 OpenBabel03242523313D

 20 21  0  0  0  0  0  0  0  0999 V2000
   36.3870   27.4570   40.2560 C   0  0  0  0  0  0  0  0  0  0  0  0
   37.0700   27.5720   39.3760 H   0  0  0  0  0  0  0  0  0  0  0  0
   35.7370   26.5790   40.1620 H   0  0  0  0  0  0  0  0  0  0  0  0
   39.1000   26.4270   42.5620 C   0  0  0  0  0  0  0  0  0  0  0  0
   38.8040   27.2130   43.6800 C   0  0  0  0  0  0  0  0  0  0  0  0
   37.7030   28.0710   43.6370 C   0  0  0  0  0  0  0  0  0  0  0  0
   36.9360   28.1220   42.4990 N   0  0  0  0  0  0  0  0  0  0  0  0
   37.2620   27.3390   41.4400 C   0  0  0  0  0  0  0  0  0  0  0  0
   38.3220   26.5080   41.4690 N   0  0  0  0  0  0  0  0  0  0  0  0
   39.9680   25.7960   42.6900 H   0  0  0  0  0  0  0  0  0  0  0  0
   39.3150   27.2700   44.6200 H   0  0  0  0  0  0  0  0  0  0  0  0
   37.3820   28.7230   44.4380 H   0  0  0  0  0  0  0  0  0  0  0  0
   35.4250   28.9940   40.4390 S   0  0  0  0  0  0  0  0  0  0  0  0
   36.3170   30.3530   39.7000 C   0  0  0  0  0  0  0  0  0  0  0  0
   36.7120   31.5390   40.3250 C   0  0  0  0  0  3  0  0  0  0  0  0
   37.3930   32.4590   39.5570 C   0  0  0  0  0  0  0  0  0  0  0  0
   37.6760   33.3620   40.0940 H   0  0  0  0  0  0  0  0  0  0  0  0
   37.6670   32.2260   38.2550 N   0  0  0  0  0  0  0  0  0  0  0  0
   37.2690   31.0580   37.6670 C   0  0  0  0  0  3  0  0  0  0  0  0
   36.6040   30.1550   38.4100 N   0  0  0  0  0  0  0  0  0  0  0  0
  1 13  1  0  0  0  0
  1  8  1  0  0  0  0
  2  1  1  0  0  0  0
  3  1  1  0  0  0  0
  4 10  1  0  0  0  0
  4  5  1  0  0  0  0
  5 11  1  0  0  0  0
  6  5  2  0  0  0  0
  6 12  1  0  0  0  0
  7  6  1  0  0  0  0
  8  9  1  0  0  0  0
  8  7  2  0  0  0  0
  9  4  2  0  0  0  0
 14 15  1  0  0  0  0
 14 13  1  0  0  0  0
 16 17  1  0  0  0  0
 16 15  2  0  0  0  0
 18 16  1  0  0  0  0
 19 18  2  0  0  0  0
 19 20  1  0  0  0  0
 20 14  2  0  0  0  0
M  END
>  <minimizedAffinity>
-3.72558236

$$$$

 OpenBabel03242523313D

 20 21  0  0  0  0  0  0  0  0999 V2000
   36.2700   30.6780   41.0830 C   0  0  0  0  0  0  0  0  0  0  0  0
   35.2980   30.2940   40.6820 H   0  0  0  0  0  0  0  0  0  0  0  0
   36.1300   31.5270   41.7610 H   0  0  0  0  0  0  0  0  0  0  0  0
   36.9380   27.3060   42.4690 C   0  0  0  0  0  0  0  0  0  0  0  0
   38.1620   27.5250   43.1090 C   0  0  0  0  0  0  0  0  0  0  0  0
   38.7370   28.7970   43.0620 C   0  0  0  0  0  0  0  0  0  0  0  0
   38.0870   29.8030   42.3900 N   0  0  0  0  0  0  0  0  0  0  0  0
   36.9010   29.5420   41.7850 C   0  0  0  0  0  0  0  0  0  0  0  0
   36.3360   28.3190   41.8230 N   0  0  0  0  0  0  0  0  0  0  0  0
   36.5730   26.2930   42.5610 H   0  0  0  0  0  0  0  0  0  0  0  0
   38.7690   26.8360   43.6610 H   0  0  0  0  0  0  0  0  0  0  0  0
   39.6760   29.0800   43.5180 H   0  0  0  0  0  0  0  0  0  0  0  0
   37.3410   31.1090   39.6720 S   0  0  0  0  0  0  0  0  0  0  0  0
   36.7100   30.3490   38.1840 C   0  0  0  0  0  0  0  0  0  0  0  0
   37.2560   30.4330   36.9010 C   0  0  0  0  0  3  0  0  0  0  0  0
   36.5970   29.7630   35.8910 C   0  0  0  0  0  0  0  0  0  0  0  0
   37.0650   29.8630   34.9140 H   0  0  0  0  0  0  0  0  0  0  0  0
   35.4720   29.0570   36.1320 N   0  0  0  0  0  0  0  0  0  0  0  0
   34.9580   28.9910   37.3970 C   0  0  0  0  0  3  0  0  0  0  0  0
   35.5950   29.6410   38.3870 N   0  0  0  0  0  0  0  0  0  0  0  0
  1  3  1  0  0  0  0
  1  8  1  0  0  0  0
  2  1  1  0  0  0  0
  4 10  1  0  0  0  0
  4  5  1  0  0  0  0
  5 11  1  0  0  0  0
  6  5  2  0  0  0  0
  6 12  1  0  0  0  0
  7  6  1  0  0  0  0
  8  9  1  0  0  0  0
  8  7  2  0  0  0  0
  9  4  2  0  0  0  0
 13  1  1  0  0  0  0
 14 20  1  0  0  0  0
 14 13  1  0  0  0  0
 15 14  2  0  0  0  0
 16 18  2  0  0  0  0
 16 15  1  0  0  0  0
 17 16  1  0  0  0  0
 18 19  1  0  0  0  0
 19 20  2  0  0  0  0
M  END
>  <minimizedAffinity>
-3.71673799

$$$$

 OpenBabel03242523313D

 20 21  0  0  0  0  0  0  0  0999 V2000
   38.5350   28.6300   39.7640 C   0  0  0  0  0  0  0  0  0  0  0  0
   39.5400   29.1080   39.8880 H   0  0  0  0  0  0  0  0  0  0  0  0
   38.5830   27.7220   39.1520 H   0  0  0  0  0  0  0  0  0  0  0  0
   36.9140   26.9680   42.6530 C   0  0  0  0  0  0  0  0  0  0  0  0
   37.2330   27.8620   43.6800 C   0  0  0  0  0  0  0  0  0  0  0  0
   37.9840   29.0010   43.3820 C   0  0  0  0  0  0  0  0  0  0  0  0
   38.3910   29.2180   42.0880 N   0  0  0  0  0  0  0  0  0  0  0  0
   38.0560   28.3230   41.1260 C   0  0  0  0  0  0  0  0  0  0  0  0
   37.3330   27.2190   41.4010 N   0  0  0  0  0  0  0  0  0  0  0  0
   36.3310   26.1190   42.9790 H   0  0  0  0  0  0  0  0  0  0  0  0
   36.9820   27.8120   44.7200 H   0  0  0  0  0  0  0  0  0  0  0  0
   38.2880   29.7570   44.0940 H   0  0  0  0  0  0  0  0  0  0  0  0
   37.3990   29.8650   39.0520 S   0  0  0  0  0  0  0  0  0  0  0  0
   38.0050   31.5090   39.3980 C   0  0  0  0  0  0  0  0  0  0  0  0
   37.2390   32.6550   39.6290 C   0  0  0  0  0  3  0  0  0  0  0  0
   37.9210   33.8280   39.8760 C   0  0  0  0  0  0  0  0  0  0  0  0
   37.2760   34.6870   40.0480 H   0  0  0  0  0  0  0  0  0  0  0  0
   39.2700   33.8680   39.8950 N   0  0  0  0  0  0  0  0  0  0  0  0
   39.9960   32.7320   39.6660 C   0  0  0  0  0  3  0  0  0  0  0  0
   39.3380   31.5840   39.4240 N   0  0  0  0  0  0  0  0  0  0  0  0
  1  2  1  0  0  0  0
  1  8  1  0  0  0  0
  3  1  1  0  0  0  0
  4 10  1  0  0  0  0
  4  5  1  0  0  0  0
  5 11  1  0  0  0  0
  6  5  2  0  0  0  0
  6 12  1  0  0  0  0
  7  6  1  0  0  0  0
  8  9  1  0  0  0  0
  8  7  2  0  0  0  0
  9  4  2  0  0  0  0
 13 14  1  0  0  0  0
 13  1  1  0  0  0  0
 14 20  2  0  0  0  0
 14 15  1  0  0  0  0
 15 16  2  0  0  0  0
 16 18  1  0  0  0  0
 16 17  1  0  0  0  0
 19 18  2  0  0  0  0
 20 19  1  0  0  0  0
M  END
>  <minimizedAffinity>
-3.68920922

$$$$
