
 OpenBabel03252503153D

 34 37  0  0  0  0  0  0  0  0999 V2000
   45.6330   34.5520   41.6160 C   0  0  0  0  0  0  0  0  0  0  0  0
   46.8450   34.6970   41.2830 O   0  0  0  0  0  0  0  0  0  0  0  0
   44.5280   34.2060   40.6640 C   0  0  0  0  0  0  0  0  0  0  0  0
   43.1820   34.5240   40.8220 C   0  0  0  0  0  0  0  0  0  0  0  0
   42.5610   34.0210   39.7350 N   0  0  0  0  0  0  0  0  0  0  0  0
   43.4850   33.4240   38.9510 C   0  0  0  0  0  0  0  0  0  0  0  0
   44.7070   33.5380   39.5240 N   0  0  0  0  0  0  0  0  0  0  0  0
   43.3490   32.7460   37.6980 N   0  0  0  0  0  0  0  0  0  0  0  0
   42.7400   35.0540   41.6350 H   0  0  0  0  0  0  0  0  0  0  0  0
   43.4300   31.7160   37.5820 H   0  0  0  0  0  0  0  0  0  0  0  0
   43.1570   33.3990   36.8900 H   0  0  0  0  0  0  0  0  0  0  0  0
   41.1760   34.0760   39.4140 C   0  0  0  0  0  0  0  0  0  0  0  0
   40.2080   33.9230   40.3850 C   0  0  0  0  0  3  0  0  0  0  0  0
   38.9040   34.0050   39.9030 C   0  0  0  0  0  0  0  0  0  0  0  0
   38.0710   33.8950   40.5980 H   0  0  0  0  0  0  0  0  0  0  0  0
   38.5700   34.2130   38.6150 N   0  0  0  0  0  0  0  0  0  0  0  0
   39.5450   34.3530   37.7250 C   0  0  0  0  0  3  0  0  0  0  0  0
   40.8170   34.2820   38.1410 N   0  0  0  0  0  0  0  0  0  0  0  0
   44.8000   35.9570   43.4480 C   0  0  0  0  0  0  0  0  0  0  0  0
   45.3490   34.7400   42.9970 C   0  0  0  0  0  0  0  0  0  0  0  0
   45.5660   33.8110   43.9890 C   0  0  0  0  0  0  0  0  0  0  0  0
   45.2770   34.0470   45.2760 N   0  0  0  0  0  0  0  0  0  0  0  0
   44.7490   35.2380   45.6630 C   0  0  0  0  0  0  0  0  0  0  0  0
   44.5150   36.1800   44.7420 N   0  0  0  0  0  0  0  0  0  0  0  0
   44.6090   36.7250   42.7090 H   0  0  0  0  0  0  0  0  0  0  0  0
   44.5350   35.3730   46.7150 H   0  0  0  0  0  0  0  0  0  0  0  0
   46.1190   32.5580   43.6270 C   0  0  0  0  0  0  0  0  0  0  0  0
   47.3770   32.0370   43.5790 C   0  0  0  0  0  0  0  0  0  0  0  0
   47.5900   30.7970   43.1890 C   0  0  0  0  0  0  0  0  0  0  0  0
   46.5280   30.0410   42.8330 C   0  0  0  0  0  0  0  0  0  0  0  0
   45.1340   31.1840   43.0730 S   0  0  0  0  0  0  0  0  0  0  0  0
   48.1720   32.7430   43.8930 H   0  0  0  0  0  0  0  0  0  0  0  0
   48.5550   30.3120   43.1230 H   0  0  0  0  0  0  0  0  0  0  0  0
   46.4070   29.0230   42.4830 H   0  0  0  0  0  0  0  0  0  0  0  0
  1 20  1  0  0  0  0
  2  1  2  0  0  0  0
  3  4  2  0  0  0  0
  3  1  1  0  0  0  0
  4  9  1  0  0  0  0
  5  4  1  0  0  0  0
  6  7  2  0  0  0  0
  6  5  1  0  0  0  0
  7  3  1  0  0  0  0
  8  6  1  0  0  0  0
 10  8  1  0  0  0  0
 11  8  1  0  0  0  0
 12  5  1  0  0  0  0
 12 13  1  0  0  0  0
 14 13  2  0  0  0  0
 14 15  1  0  0  0  0
 16 14  1  0  0  0  0
 17 18  1  0  0  0  0
 17 16  2  0  0  0  0
 18 12  2  0  0  0  0
 19 24  1  0  0  0  0
 20 19  2  0  0  0  0
 20 21  1  0  0  0  0
 21 22  2  0  0  0  0
 22 23  1  0  0  0  0
 23 26  1  0  0  0  0
 24 23  2  0  0  0  0
 25 19  1  0  0  0  0
 27 21  1  0  0  0  0
 28 27  2  0  0  0  0
 28 32  1  0  0  0  0
 29 28  1  0  0  0  0
 30 31  1  0  0  0  0
 30 29  2  0  0  0  0
 31 27  1  0  0  0  0
 33 29  1  0  0  0  0
 34 30  1  0  0  0  0
M  END
>  <minimizedAffinity>
-5.64664936

>  <minimizedRMSD>
1.56172872

$$$$
