
 OpenBabel03242515153D

 32 34  0  0  0  0  0  0  0  0999 V2000
   36.2790   29.9830   38.3810 C   0  0  0  0  0  0  0  0  0  0  0  0
   36.8510   29.1550   37.9710 H   0  0  0  0  0  0  0  0  0  0  0  0
   35.6010   30.3920   37.5930 H   0  0  0  0  0  0  0  0  0  0  0  0
   37.1350   31.0510   38.9340 C   0  0  0  0  0  0  0  0  0  0  0  0
   36.9530   31.8320   40.0410 C   0  0  0  0  0  0  0  0  0  0  0  0
   38.0230   32.6790   40.1360 C   0  0  0  0  0  0  0  0  0  0  0  0
   38.8340   32.4140   39.1070 N   0  0  0  0  0  0  0  0  0  0  0  0
   38.2830   31.4210   38.3800 N   0  0  0  0  0  0  0  0  0  0  0  0
   36.1260   31.7960   40.7180 H   0  0  0  0  0  0  0  0  0  0  0  0
   38.2520   33.4390   40.8580 H   0  0  0  0  0  0  0  0  0  0  0  0
   40.0800   32.9930   38.7220 C   0  0  0  0  0  0  0  0  0  0  0  0
   40.5490   34.0530   39.4920 C   0  0  0  0  0  3  0  0  0  0  0  0
   41.7590   34.6640   39.1730 C   0  0  0  0  0  0  0  0  0  0  0  0
   42.1040   35.4810   39.7800 H   0  0  0  0  0  0  0  0  0  0  0  0
   42.4890   34.2400   38.1180 N   0  0  0  0  0  0  0  0  0  0  0  0
   42.0020   33.2040   37.3890 C   0  0  0  0  0  3  0  0  0  0  0  0
   40.8340   32.5830   37.6630 N   0  0  0  0  0  0  0  0  0  0  0  0
   35.3870   29.4070   39.4520 C   0  0  0  0  0  0  0  0  0  0  0  0
   34.4370   29.1120   38.9390 H   0  0  0  0  0  0  0  0  0  0  0  0
   35.1170   30.1650   40.2060 H   0  0  0  0  0  0  0  0  0  0  0  0
   36.9220   26.1010   40.3650 C   0  0  0  0  0  0  0  0  0  0  0  0
   37.2150   26.3410   41.7320 C   0  0  0  0  0  0  0  0  0  0  0  0
   36.8750   27.5900   42.2410 C   0  0  0  0  0  0  0  0  0  0  0  0
   36.2950   28.4780   41.4030 N   0  0  0  0  0  0  0  0  0  0  0  0
   36.0330   28.2150   40.1100 C   0  0  0  0  0  0  0  0  0  0  0  0
   36.3480   27.0260   39.6010 N   0  0  0  0  0  0  0  0  0  0  0  0
   37.1620   25.1470   39.9100 H   0  0  0  0  0  0  0  0  0  0  0  0
   37.6770   25.5530   42.2920 H   0  0  0  0  0  0  0  0  0  0  0  0
   37.1860   27.8120   43.6480 C   0  0  0  0  0  0  0  0  0  0  0  0
   36.0930   27.4360   44.4300 F   0  0  0  0  0  0  0  0  0  0  0  0
   37.3060   29.1780   43.8210 F   0  0  0  0  0  0  0  0  0  0  0  0
   38.2830   27.1130   44.0800 F   0  0  0  0  0  0  0  0  0  0  0  0
  1  4  1  0  0  0  0
  1 18  1  0  0  0  0
  2  1  1  0  0  0  0
  3  1  1  0  0  0  0
  4  5  1  0  0  0  0
  5  6  2  0  0  0  0
  5  9  1  0  0  0  0
  6 10  1  0  0  0  0
  7  6  1  0  0  0  0
  8  4  2  0  0  0  0
  8  7  1  0  0  0  0
 11  7  1  0  0  0  0
 11 12  1  0  0  0  0
 13 12  2  0  0  0  0
 13 14  1  0  0  0  0
 15 13  1  0  0  0  0
 16 17  1  0  0  0  0
 16 15  2  0  0  0  0
 17 11  2  0  0  0  0
 18 25  1  0  0  0  0
 18 20  1  0  0  0  0
 19 18  1  0  0  0  0
 21 22  1  0  0  0  0
 22 23  2  0  0  0  0
 22 28  1  0  0  0  0
 23 29  1  0  0  0  0
 24 23  1  0  0  0  0
 25 24  2  0  0  0  0
 26 25  1  0  0  0  0
 26 21  2  0  0  0  0
 27 21  1  0  0  0  0
 29 31  1  0  0  0  0
 29 32  1  0  0  0  0
 29 30  1  0  0  0  0
M  END
>  <minimizedAffinity>
-5.98389149

$$$$

 OpenBabel03242515153D

 32 34  0  0  0  0  0  0  0  0999 V2000
   36.9530   28.8730   42.1960 C   0  0  0  0  0  0  0  0  0  0  0  0
   37.0320   27.9980   41.5560 H   0  0  0  0  0  0  0  0  0  0  0  0
   35.9580   28.8710   42.7050 H   0  0  0  0  0  0  0  0  0  0  0  0
   37.1570   30.1380   41.4630 C   0  0  0  0  0  0  0  0  0  0  0  0
   36.2950   30.8340   40.6640 C   0  0  0  0  0  0  0  0  0  0  0  0
   36.9500   31.9470   40.2120 C   0  0  0  0  0  0  0  0  0  0  0  0
   38.1820   31.9220   40.7280 N   0  0  0  0  0  0  0  0  0  0  0  0
   38.2980   30.8150   41.4890 N   0  0  0  0  0  0  0  0  0  0  0  0
   35.2860   30.5660   40.4280 H   0  0  0  0  0  0  0  0  0  0  0  0
   36.6200   32.7390   39.5660 H   0  0  0  0  0  0  0  0  0  0  0  0
   39.2750   32.8270   40.5880 C   0  0  0  0  0  0  0  0  0  0  0  0
   38.9650   34.1570   40.3170 C   0  0  0  0  0  3  0  0  0  0  0  0
   39.9830   35.0940   40.1680 C   0  0  0  0  0  0  0  0  0  0  0  0
   39.7220   36.1160   39.9600 H   0  0  0  0  0  0  0  0  0  0  0  0
   41.2790   34.7290   40.2830 N   0  0  0  0  0  0  0  0  0  0  0  0
   41.5460   33.4250   40.5460 C   0  0  0  0  0  3  0  0  0  0  0  0
   40.5890   32.4830   40.6980 N   0  0  0  0  0  0  0  0  0  0  0  0
   37.9860   28.7130   43.2830 C   0  0  0  0  0  0  0  0  0  0  0  0
   37.4510   28.8880   44.2490 H   0  0  0  0  0  0  0  0  0  0  0  0
   38.7720   29.4840   43.2120 H   0  0  0  0  0  0  0  0  0  0  0  0
   40.0390   25.5940   43.7110 C   0  0  0  0  0  0  0  0  0  0  0  0
   39.3180   24.7140   42.8640 C   0  0  0  0  0  0  0  0  0  0  0  0
   38.2020   25.2320   42.2160 C   0  0  0  0  0  0  0  0  0  0  0  0
   37.8870   26.5280   42.4380 N   0  0  0  0  0  0  0  0  0  0  0  0
   38.5950   27.3350   43.2500 C   0  0  0  0  0  0  0  0  0  0  0  0
   39.6670   26.8610   43.8800 N   0  0  0  0  0  0  0  0  0  0  0  0
   40.9180   25.2510   44.2440 H   0  0  0  0  0  0  0  0  0  0  0  0
   39.6720   23.7070   42.7720 H   0  0  0  0  0  0  0  0  0  0  0  0
   37.4790   24.3070   41.3520 C   0  0  0  0  0  0  0  0  0  0  0  0
   37.3420   24.8710   40.0820 F   0  0  0  0  0  0  0  0  0  0  0  0
   36.1930   24.2140   41.8510 F   0  0  0  0  0  0  0  0  0  0  0  0
   38.0970   23.0920   41.2170 F   0  0  0  0  0  0  0  0  0  0  0  0
  1  3  1  0  0  0  0
  1 18  1  0  0  0  0
  2  1  1  0  0  0  0
  4  8  2  0  0  0  0
  4  1  1  0  0  0  0
  5  4  1  0  0  0  0
  6  5  2  0  0  0  0
  6  7  1  0  0  0  0
  7  8  1  0  0  0  0
  9  5  1  0  0  0  0
 10  6  1  0  0  0  0
 11 17  1  0  0  0  0
 11  7  1  0  0  0  0
 12 11  2  0  0  0  0
 13 15  2  0  0  0  0
 13 12  1  0  0  0  0
 14 13  1  0  0  0  0
 15 16  1  0  0  0  0
 16 17  2  0  0  0  0
 18 19  1  0  0  0  0
 20 18  1  0  0  0  0
 21 26  1  0  0  0  0
 21 27  1  0  0  0  0
 22 21  2  0  0  0  0
 23 24  2  0  0  0  0
 23 22  1  0  0  0  0
 24 25  1  0  0  0  0
 25 18  1  0  0  0  0
 25 26  2  0  0  0  0
 28 22  1  0  0  0  0
 29 31  1  0  0  0  0
 29 23  1  0  0  0  0
 30 29  1  0  0  0  0
 32 29  1  0  0  0  0
M  END
>  <minimizedAffinity>
-5.96792412

$$$$

 OpenBabel03242515153D

 32 34  0  0  0  0  0  0  0  0999 V2000
   35.6810   29.4730   38.1020 C   0  0  0  0  0  0  0  0  0  0  0  0
   35.6990   28.5250   37.5700 H   0  0  0  0  0  0  0  0  0  0  0  0
   34.9510   30.1610   37.6100 H   0  0  0  0  0  0  0  0  0  0  0  0
   37.0120   30.1060   38.1890 C   0  0  0  0  0  0  0  0  0  0  0  0
   38.2160   29.6790   37.7050 C   0  0  0  0  0  0  0  0  0  0  0  0
   39.1570   30.6140   38.0410 C   0  0  0  0  0  0  0  0  0  0  0  0
   38.5330   31.5850   38.7140 N   0  0  0  0  0  0  0  0  0  0  0  0
   37.2250   31.2660   38.7990 N   0  0  0  0  0  0  0  0  0  0  0  0
   38.4010   28.7770   37.1600 H   0  0  0  0  0  0  0  0  0  0  0  0
   40.2120   30.6460   37.8460 H   0  0  0  0  0  0  0  0  0  0  0  0
   39.0260   32.7910   39.2930 C   0  0  0  0  0  0  0  0  0  0  0  0
   40.3740   33.0820   39.0970 C   0  0  0  0  0  3  0  0  0  0  0  0
   40.9220   34.2430   39.6340 C   0  0  0  0  0  0  0  0  0  0  0  0
   41.9640   34.4500   39.4700 H   0  0  0  0  0  0  0  0  0  0  0  0
   40.1590   35.0990   40.3500 N   0  0  0  0  0  0  0  0  0  0  0  0
   38.8500   34.7840   40.5230 C   0  0  0  0  0  3  0  0  0  0  0  0
   38.2780   33.6690   40.0190 N   0  0  0  0  0  0  0  0  0  0  0  0
   35.1350   29.1890   39.4790 C   0  0  0  0  0  0  0  0  0  0  0  0
   34.0670   28.8880   39.3330 H   0  0  0  0  0  0  0  0  0  0  0  0
   35.1260   30.0960   40.1060 H   0  0  0  0  0  0  0  0  0  0  0  0
   36.9950   26.0720   40.4520 C   0  0  0  0  0  0  0  0  0  0  0  0
   37.3330   26.4020   41.7890 C   0  0  0  0  0  0  0  0  0  0  0  0
   36.9130   27.6410   42.2610 C   0  0  0  0  0  0  0  0  0  0  0  0
   36.2170   28.4360   41.4170 N   0  0  0  0  0  0  0  0  0  0  0  0
   35.9140   28.0890   40.1530 C   0  0  0  0  0  0  0  0  0  0  0  0
   36.3050   26.9080   39.6800 N   0  0  0  0  0  0  0  0  0  0  0  0
   37.2940   25.1210   40.0270 H   0  0  0  0  0  0  0  0  0  0  0  0
   37.8900   25.6840   42.3580 H   0  0  0  0  0  0  0  0  0  0  0  0
   37.2740   27.9570   43.6380 C   0  0  0  0  0  0  0  0  0  0  0  0
   38.3340   27.1420   44.0380 F   0  0  0  0  0  0  0  0  0  0  0  0
   36.2050   27.5800   44.4290 F   0  0  0  0  0  0  0  0  0  0  0  0
   37.6460   29.2640   43.8170 F   0  0  0  0  0  0  0  0  0  0  0  0
  1  4  1  0  0  0  0
  1 18  1  0  0  0  0
  2  1  1  0  0  0  0
  3  1  1  0  0  0  0
  4  8  2  0  0  0  0
  5  6  2  0  0  0  0
  5  4  1  0  0  0  0
  6  7  1  0  0  0  0
  7  8  1  0  0  0  0
  7 11  1  0  0  0  0
  9  5  1  0  0  0  0
 10  6  1  0  0  0  0
 11 17  1  0  0  0  0
 12 11  2  0  0  0  0
 12 13  1  0  0  0  0
 13 15  2  0  0  0  0
 14 13  1  0  0  0  0
 15 16  1  0  0  0  0
 17 16  2  0  0  0  0
 18 20  1  0  0  0  0
 18 25  1  0  0  0  0
 19 18  1  0  0  0  0
 21 22  1  0  0  0  0
 22 23  2  0  0  0  0
 22 28  1  0  0  0  0
 23 29  1  0  0  0  0
 24 23  1  0  0  0  0
 25 24  2  0  0  0  0
 26 25  1  0  0  0  0
 26 21  2  0  0  0  0
 27 21  1  0  0  0  0
 29 32  1  0  0  0  0
 29 30  1  0  0  0  0
 29 31  1  0  0  0  0
M  END
>  <minimizedAffinity>
-5.94577074

$$$$

 OpenBabel03242515153D

 32 34  0  0  0  0  0  0  0  0999 V2000
   36.7730   30.2590   39.2930 C   0  0  0  0  0  0  0  0  0  0  0  0
   37.4300   29.4130   39.1070 H   0  0  0  0  0  0  0  0  0  0  0  0
   36.1010   30.4070   38.4130 H   0  0  0  0  0  0  0  0  0  0  0  0
   37.5090   31.5010   39.5980 C   0  0  0  0  0  0  0  0  0  0  0  0
   37.0940   32.8010   39.5340 C   0  0  0  0  0  0  0  0  0  0  0  0
   38.1420   33.5940   39.9140 C   0  0  0  0  0  0  0  0  0  0  0  0
   39.1690   32.7880   40.2010 N   0  0  0  0  0  0  0  0  0  0  0  0
   38.7730   31.5140   40.0050 N   0  0  0  0  0  0  0  0  0  0  0  0
   36.1250   33.1480   39.2410 H   0  0  0  0  0  0  0  0  0  0  0  0
   38.2180   34.6620   39.9960 H   0  0  0  0  0  0  0  0  0  0  0  0
   40.4930   33.0780   40.6430 C   0  0  0  0  0  0  0  0  0  0  0  0
   41.1730   32.0650   41.3140 C   0  0  0  0  0  3  0  0  0  0  0  0
   42.4700   32.2800   41.7720 C   0  0  0  0  0  0  0  0  0  0  0  0
   42.9770   31.4850   42.2870 H   0  0  0  0  0  0  0  0  0  0  0  0
   43.0830   33.4680   41.5750 N   0  0  0  0  0  0  0  0  0  0  0  0
   42.3920   34.4340   40.9170 C   0  0  0  0  0  3  0  0  0  0  0  0
   41.1330   34.2670   40.4560 N   0  0  0  0  0  0  0  0  0  0  0  0
   35.8810   29.8700   40.4460 C   0  0  0  0  0  0  0  0  0  0  0  0
   35.0530   29.2590   40.0070 H   0  0  0  0  0  0  0  0  0  0  0  0
   35.4110   30.7540   40.9100 H   0  0  0  0  0  0  0  0  0  0  0  0
   37.9240   28.6150   43.3400 C   0  0  0  0  0  0  0  0  0  0  0  0
   37.8920   27.2230   43.0700 C   0  0  0  0  0  0  0  0  0  0  0  0
   37.1900   26.8130   41.9410 C   0  0  0  0  0  0  0  0  0  0  0  0
   36.5930   27.7640   41.1890 N   0  0  0  0  0  0  0  0  0  0  0  0
   36.6450   29.0770   41.4760 C   0  0  0  0  0  0  0  0  0  0  0  0
   37.3110   29.4930   42.5500 N   0  0  0  0  0  0  0  0  0  0  0  0
   38.4550   28.9970   44.2040 H   0  0  0  0  0  0  0  0  0  0  0  0
   38.4070   26.5690   43.7460 H   0  0  0  0  0  0  0  0  0  0  0  0
   37.1720   25.3770   41.6860 C   0  0  0  0  0  0  0  0  0  0  0  0
   38.4760   24.8820   41.7350 F   0  0  0  0  0  0  0  0  0  0  0  0
   36.7650   25.2080   40.3770 F   0  0  0  0  0  0  0  0  0  0  0  0
   36.4130   24.6750   42.5850 F   0  0  0  0  0  0  0  0  0  0  0  0
  1  4  1  0  0  0  0
  1 18  1  0  0  0  0
  2  1  1  0  0  0  0
  3  1  1  0  0  0  0
  4  8  2  0  0  0  0
  5  4  1  0  0  0  0
  5  6  2  0  0  0  0
  6 10  1  0  0  0  0
  6  7  1  0  0  0  0
  7 11  1  0  0  0  0
  8  7  1  0  0  0  0
  9  5  1  0  0  0  0
 11 12  1  0  0  0  0
 12 13  2  0  0  0  0
 13 14  1  0  0  0  0
 15 13  1  0  0  0  0
 16 15  2  0  0  0  0
 17 11  2  0  0  0  0
 17 16  1  0  0  0  0
 18 20  1  0  0  0  0
 18 25  1  0  0  0  0
 19 18  1  0  0  0  0
 21 27  1  0  0  0  0
 22 21  1  0  0  0  0
 22 28  1  0  0  0  0
 23 22  2  0  0  0  0
 24 25  2  0  0  0  0
 24 23  1  0  0  0  0
 25 26  1  0  0  0  0
 26 21  2  0  0  0  0
 29 30  1  0  0  0  0
 29 23  1  0  0  0  0
 29 32  1  0  0  0  0
 31 29  1  0  0  0  0
M  END
>  <minimizedAffinity>
-5.56269026

$$$$

 OpenBabel03242515153D

 32 34  0  0  0  0  0  0  0  0999 V2000
   36.4710   31.2750   40.6990 C   0  0  0  0  0  0  0  0  0  0  0  0
   35.6320   31.9640   40.6480 H   0  0  0  0  0  0  0  0  0  0  0  0
   37.0410   31.4540   41.6440 H   0  0  0  0  0  0  0  0  0  0  0  0
   37.3660   31.3740   39.5290 C   0  0  0  0  0  0  0  0  0  0  0  0
   37.1830   30.9290   38.2500 C   0  0  0  0  0  0  0  0  0  0  0  0
   38.2990   31.2580   37.5300 C   0  0  0  0  0  0  0  0  0  0  0  0
   39.1370   31.8890   38.3580 N   0  0  0  0  0  0  0  0  0  0  0  0
   38.5590   31.9540   39.5740 N   0  0  0  0  0  0  0  0  0  0  0  0
   36.3260   30.4140   37.8700 H   0  0  0  0  0  0  0  0  0  0  0  0
   38.5420   31.0850   36.4990 H   0  0  0  0  0  0  0  0  0  0  0  0
   40.4320   32.4430   38.1370 C   0  0  0  0  0  0  0  0  0  0  0  0
   41.3100   31.7060   37.3460 C   0  0  0  0  0  3  0  0  0  0  0  0
   42.5900   32.1890   37.0900 C   0  0  0  0  0  0  0  0  0  0  0  0
   43.2520   31.6050   36.4770 H   0  0  0  0  0  0  0  0  0  0  0  0
   42.9970   33.3710   37.6030 N   0  0  0  0  0  0  0  0  0  0  0  0
   42.1170   34.0630   38.3700 C   0  0  0  0  0  3  0  0  0  0  0  0
   40.8660   33.6320   38.6430 N   0  0  0  0  0  0  0  0  0  0  0  0
   35.8900   29.8880   40.8110 C   0  0  0  0  0  0  0  0  0  0  0  0
   35.8280   29.4920   39.7670 H   0  0  0  0  0  0  0  0  0  0  0  0
   34.8580   29.9120   41.2020 H   0  0  0  0  0  0  0  0  0  0  0  0
   38.2870   28.3810   43.2820 C   0  0  0  0  0  0  0  0  0  0  0  0
   38.1360   27.0090   42.9570 C   0  0  0  0  0  0  0  0  0  0  0  0
   37.2450   26.6950   41.9360 C   0  0  0  0  0  0  0  0  0  0  0  0
   36.5910   27.7130   41.3330 N   0  0  0  0  0  0  0  0  0  0  0  0
   36.7590   29.0050   41.6680 C   0  0  0  0  0  0  0  0  0  0  0  0
   37.6070   29.3290   42.6410 N   0  0  0  0  0  0  0  0  0  0  0  0
   38.9660   28.6900   44.0670 H   0  0  0  0  0  0  0  0  0  0  0  0
   38.7130   26.2960   43.5110 H   0  0  0  0  0  0  0  0  0  0  0  0
   37.1080   25.2780   41.6210 C   0  0  0  0  0  0  0  0  0  0  0  0
   38.3730   24.7190   41.4410 F   0  0  0  0  0  0  0  0  0  0  0  0
   36.4940   25.2000   40.3850 F   0  0  0  0  0  0  0  0  0  0  0  0
   36.4580   24.5650   42.5940 F   0  0  0  0  0  0  0  0  0  0  0  0
  1 18  1  0  0  0  0
  1  3  1  0  0  0  0
  2  1  1  0  0  0  0
  4  8  2  0  0  0  0
  4  1  1  0  0  0  0
  5  4  1  0  0  0  0
  6  5  2  0  0  0  0
  6  7  1  0  0  0  0
  7  8  1  0  0  0  0
  9  5  1  0  0  0  0
 10  6  1  0  0  0  0
 11  7  1  0  0  0  0
 11 17  1  0  0  0  0
 12 11  2  0  0  0  0
 13 12  1  0  0  0  0
 13 15  2  0  0  0  0
 14 13  1  0  0  0  0
 15 16  1  0  0  0  0
 16 17  2  0  0  0  0
 18 20  1  0  0  0  0
 18 25  1  0  0  0  0
 19 18  1  0  0  0  0
 21 27  1  0  0  0  0
 22 21  1  0  0  0  0
 22 28  1  0  0  0  0
 23 22  2  0  0  0  0
 24 25  2  0  0  0  0
 24 23  1  0  0  0  0
 25 26  1  0  0  0  0
 26 21  2  0  0  0  0
 29 23  1  0  0  0  0
 29 32  1  0  0  0  0
 30 29  1  0  0  0  0
 31 29  1  0  0  0  0
M  END
>  <minimizedAffinity>
-5.52901888

$$$$

 OpenBabel03242515153D

 32 34  0  0  0  0  0  0  0  0999 V2000
   38.3310   32.4190   39.3090 C   0  0  0  0  0  0  0  0  0  0  0  0
   38.1120   31.5210   38.7370 H   0  0  0  0  0  0  0  0  0  0  0  0
   37.7480   33.2760   38.8900 H   0  0  0  0  0  0  0  0  0  0  0  0
   39.7710   32.7400   39.3430 C   0  0  0  0  0  0  0  0  0  0  0  0
   40.6770   32.8020   38.3220 C   0  0  0  0  0  0  0  0  0  0  0  0
   41.8890   33.1390   38.8580 C   0  0  0  0  0  0  0  0  0  0  0  0
   41.7180   33.2780   40.1760 N   0  0  0  0  0  0  0  0  0  0  0  0
   40.4230   33.0320   40.4620 N   0  0  0  0  0  0  0  0  0  0  0  0
   40.4830   32.6200   37.2850 H   0  0  0  0  0  0  0  0  0  0  0  0
   42.8450   33.2850   38.3910 H   0  0  0  0  0  0  0  0  0  0  0  0
   42.6390   33.6180   41.2100 C   0  0  0  0  0  0  0  0  0  0  0  0
   43.2450   32.5650   41.8900 C   0  0  0  0  0  3  0  0  0  0  0  0
   44.1550   32.8250   42.9110 C   0  0  0  0  0  0  0  0  0  0  0  0
   44.6120   31.9980   43.4220 H   0  0  0  0  0  0  0  0  0  0  0  0
   44.4600   34.0950   43.2550 N   0  0  0  0  0  0  0  0  0  0  0  0
   43.8510   35.0980   42.5730 C   0  0  0  0  0  3  0  0  0  0  0  0
   42.9630   34.8910   41.5760 N   0  0  0  0  0  0  0  0  0  0  0  0
   37.8020   32.1880   40.7020 C   0  0  0  0  0  0  0  0  0  0  0  0
   37.1400   33.0600   40.9320 H   0  0  0  0  0  0  0  0  0  0  0  0
   38.6130   32.2000   41.4500 H   0  0  0  0  0  0  0  0  0  0  0  0
   35.4850   29.2620   40.2620 C   0  0  0  0  0  0  0  0  0  0  0  0
   35.9360   28.4370   41.3240 C   0  0  0  0  0  0  0  0  0  0  0  0
   36.9790   28.9230   42.1040 C   0  0  0  0  0  0  0  0  0  0  0  0
   37.4850   30.1390   41.7960 N   0  0  0  0  0  0  0  0  0  0  0  0
   37.0320   30.8950   40.7800 C   0  0  0  0  0  0  0  0  0  0  0  0
   36.0340   30.4500   40.0200 N   0  0  0  0  0  0  0  0  0  0  0  0
   34.6750   28.9390   39.6190 H   0  0  0  0  0  0  0  0  0  0  0  0
   35.4510   27.4920   41.4650 H   0  0  0  0  0  0  0  0  0  0  0  0
   37.4240   28.0570   43.1890 C   0  0  0  0  0  0  0  0  0  0  0  0
   38.8160   27.9570   43.1600 F   0  0  0  0  0  0  0  0  0  0  0  0
   36.9610   26.7860   42.9030 F   0  0  0  0  0  0  0  0  0  0  0  0
   37.0520   28.5030   44.4300 F   0  0  0  0  0  0  0  0  0  0  0  0
  1  4  1  0  0  0  0
  1 18  1  0  0  0  0
  2  1  1  0  0  0  0
  3  1  1  0  0  0  0
  4  8  2  0  0  0  0
  5  6  2  0  0  0  0
  5  4  1  0  0  0  0
  6  7  1  0  0  0  0
  7  8  1  0  0  0  0
  7 11  1  0  0  0  0
  9  5  1  0  0  0  0
 10  6  1  0  0  0  0
 11 17  2  0  0  0  0
 11 12  1  0  0  0  0
 12 13  2  0  0  0  0
 13 15  1  0  0  0  0
 13 14  1  0  0  0  0
 16 15  2  0  0  0  0
 17 16  1  0  0  0  0
 18 25  1  0  0  0  0
 18 19  1  0  0  0  0
 18 20  1  0  0  0  0
 21 22  1  0  0  0  0
 22 28  1  0  0  0  0
 22 23  2  0  0  0  0
 23 29  1  0  0  0  0
 24 23  1  0  0  0  0
 25 24  2  0  0  0  0
 26 21  2  0  0  0  0
 26 25  1  0  0  0  0
 27 21  1  0  0  0  0
 29 32  1  0  0  0  0
 30 29  1  0  0  0  0
 31 29  1  0  0  0  0
M  END
>  <minimizedAffinity>
-5.40206146

$$$$

 OpenBabel03242515153D

 32 34  0  0  0  0  0  0  0  0999 V2000
   35.6810   29.3300   37.5740 C   0  0  0  0  0  0  0  0  0  0  0  0
   36.4110   28.5950   37.2440 H   0  0  0  0  0  0  0  0  0  0  0  0
   35.4300   30.0110   36.7250 H   0  0  0  0  0  0  0  0  0  0  0  0
   36.1390   30.1080   38.7420 C   0  0  0  0  0  0  0  0  0  0  0  0
   35.7220   30.0600   40.0420 C   0  0  0  0  0  0  0  0  0  0  0  0
   36.4510   30.9760   40.7500 C   0  0  0  0  0  0  0  0  0  0  0  0
   37.2920   31.5640   39.8940 N   0  0  0  0  0  0  0  0  0  0  0  0
   37.0940   31.0280   38.6720 N   0  0  0  0  0  0  0  0  0  0  0  0
   34.9610   29.4250   40.4450 H   0  0  0  0  0  0  0  0  0  0  0  0
   36.4230   31.2400   41.7900 H   0  0  0  0  0  0  0  0  0  0  0  0
   38.2700   32.5830   40.0910 C   0  0  0  0  0  0  0  0  0  0  0  0
   37.8380   33.9030   39.9960 C   0  0  0  0  0  3  0  0  0  0  0  0
   38.7400   34.9470   40.1770 C   0  0  0  0  0  0  0  0  0  0  0  0
   38.3860   35.9580   40.1000 H   0  0  0  0  0  0  0  0  0  0  0  0
   40.0400   34.6960   40.4470 N   0  0  0  0  0  0  0  0  0  0  0  0
   40.4290   33.3980   40.5320 C   0  0  0  0  0  3  0  0  0  0  0  0
   39.5860   32.3550   40.3630 N   0  0  0  0  0  0  0  0  0  0  0  0
   34.4180   28.5740   37.8990 C   0  0  0  0  0  0  0  0  0  0  0  0
   34.2490   28.7080   38.9970 H   0  0  0  0  0  0  0  0  0  0  0  0
   34.5390   27.4910   37.7280 H   0  0  0  0  0  0  0  0  0  0  0  0
   31.9850   29.7650   35.2940 C   0  0  0  0  0  0  0  0  0  0  0  0
   30.8970   30.1250   36.1280 C   0  0  0  0  0  0  0  0  0  0  0  0
   31.0610   29.9420   37.4970 C   0  0  0  0  0  0  0  0  0  0  0  0
   32.2390   29.4370   37.9300 N   0  0  0  0  0  0  0  0  0  0  0  0
   33.2510   29.1060   37.1080 C   0  0  0  0  0  0  0  0  0  0  0  0
   33.1160   29.2730   35.7950 N   0  0  0  0  0  0  0  0  0  0  0  0
   31.9190   29.8840   34.2190 H   0  0  0  0  0  0  0  0  0  0  0  0
   30.0150   30.5160   35.6610 H   0  0  0  0  0  0  0  0  0  0  0  0
   29.9280   30.3190   38.3330 C   0  0  0  0  0  0  0  0  0  0  0  0
   30.1090   29.8060   39.6180 F   0  0  0  0  0  0  0  0  0  0  0  0
   28.8220   29.6610   37.8300 F   0  0  0  0  0  0  0  0  0  0  0  0
   29.7540   31.6740   38.4340 F   0  0  0  0  0  0  0  0  0  0  0  0
  1 18  1  0  0  0  0
  1  4  1  0  0  0  0
  2  1  1  0  0  0  0
  3  1  1  0  0  0  0
  4  5  1  0  0  0  0
  5  9  1  0  0  0  0
  5  6  2  0  0  0  0
  6 10  1  0  0  0  0
  7 11  1  0  0  0  0
  7  6  1  0  0  0  0
  8  4  2  0  0  0  0
  8  7  1  0  0  0  0
 11 17  1  0  0  0  0
 12 11  2  0  0  0  0
 12 13  1  0  0  0  0
 13 15  2  0  0  0  0
 14 13  1  0  0  0  0
 15 16  1  0  0  0  0
 17 16  2  0  0  0  0
 18 19  1  0  0  0  0
 20 18  1  0  0  0  0
 21 26  2  0  0  0  0
 21 22  1  0  0  0  0
 22 23  2  0  0  0  0
 23 24  1  0  0  0  0
 23 29  1  0  0  0  0
 25 18  1  0  0  0  0
 25 24  2  0  0  0  0
 26 25  1  0  0  0  0
 27 21  1  0  0  0  0
 28 22  1  0  0  0  0
 29 32  1  0  0  0  0
 29 30  1  0  0  0  0
 31 29  1  0  0  0  0
M  END
>  <minimizedAffinity>
-5.35774469

$$$$

 OpenBabel03242515153D

 32 34  0  0  0  0  0  0  0  0999 V2000
   39.3740   28.1260   42.9960 C   0  0  0  0  0  0  0  0  0  0  0  0
   39.7400   28.6390   42.1100 H   0  0  0  0  0  0  0  0  0  0  0  0
   40.0550   28.3390   43.8560 H   0  0  0  0  0  0  0  0  0  0  0  0
   39.2330   26.6700   42.7970 C   0  0  0  0  0  0  0  0  0  0  0  0
   39.8480   25.6350   43.4440 C   0  0  0  0  0  0  0  0  0  0  0  0
   39.3860   24.4680   42.9000 C   0  0  0  0  0  0  0  0  0  0  0  0
   38.5100   24.7920   41.9440 N   0  0  0  0  0  0  0  0  0  0  0  0
   38.4240   26.1370   41.8890 N   0  0  0  0  0  0  0  0  0  0  0  0
   40.5640   25.7130   44.2350 H   0  0  0  0  0  0  0  0  0  0  0  0
   39.6230   23.4470   43.1300 H   0  0  0  0  0  0  0  0  0  0  0  0
   37.7360   23.9770   41.0660 C   0  0  0  0  0  0  0  0  0  0  0  0
   38.3430   22.8250   40.5740 C   0  0  0  0  0  3  0  0  0  0  0  0
   37.6450   21.9830   39.7120 C   0  0  0  0  0  0  0  0  0  0  0  0
   38.1310   21.0990   39.3440 H   0  0  0  0  0  0  0  0  0  0  0  0
   36.3770   22.2710   39.3440 N   0  0  0  0  0  0  0  0  0  0  0  0
   35.8160   23.4020   39.8420 C   0  0  0  0  0  3  0  0  0  0  0  0
   36.4570   24.2460   40.6800 N   0  0  0  0  0  0  0  0  0  0  0  0
   38.0460   28.7490   43.3420 C   0  0  0  0  0  0  0  0  0  0  0  0
   38.2140   29.3420   44.2760 H   0  0  0  0  0  0  0  0  0  0  0  0
   37.2900   27.9830   43.5860 H   0  0  0  0  0  0  0  0  0  0  0  0
   36.1830   30.4770   40.5730 C   0  0  0  0  0  0  0  0  0  0  0  0
   37.1150   31.4990   40.2580 C   0  0  0  0  0  0  0  0  0  0  0  0
   38.2940   31.5300   40.9960 C   0  0  0  0  0  0  0  0  0  0  0  0
   38.4640   30.5900   41.9540 N   0  0  0  0  0  0  0  0  0  0  0  0
   37.5570   29.6350   42.2260 C   0  0  0  0  0  0  0  0  0  0  0  0
   36.4230   29.5860   41.5320 N   0  0  0  0  0  0  0  0  0  0  0  0
   35.2470   30.4000   40.0340 H   0  0  0  0  0  0  0  0  0  0  0  0
   36.8620   32.1850   39.4750 H   0  0  0  0  0  0  0  0  0  0  0  0
   39.2350   32.5890   40.6530 C   0  0  0  0  0  0  0  0  0  0  0  0
   38.7610   33.8060   41.1430 F   0  0  0  0  0  0  0  0  0  0  0  0
   39.2140   32.7150   39.2770 F   0  0  0  0  0  0  0  0  0  0  0  0
   40.4920   32.3840   41.1600 F   0  0  0  0  0  0  0  0  0  0  0  0
  1 18  1  0  0  0  0
  1  3  1  0  0  0  0
  2  1  1  0  0  0  0
  4  1  1  0  0  0  0
  4  5  1  0  0  0  0
  5  9  1  0  0  0  0
  6 10  1  0  0  0  0
  6  5  2  0  0  0  0
  7  6  1  0  0  0  0
  8  7  1  0  0  0  0
  8  4  2  0  0  0  0
 11  7  1  0  0  0  0
 12 11  2  0  0  0  0
 13 12  1  0  0  0  0
 14 13  1  0  0  0  0
 15 13  2  0  0  0  0
 15 16  1  0  0  0  0
 16 17  2  0  0  0  0
 17 11  1  0  0  0  0
 18 20  1  0  0  0  0
 18 19  1  0  0  0  0
 21 26  1  0  0  0  0
 22 21  2  0  0  0  0
 22 23  1  0  0  0  0
 23 24  2  0  0  0  0
 24 25  1  0  0  0  0
 25 18  1  0  0  0  0
 26 25  2  0  0  0  0
 27 21  1  0  0  0  0
 28 22  1  0  0  0  0
 29 23  1  0  0  0  0
 29 30  1  0  0  0  0
 29 32  1  0  0  0  0
 31 29  1  0  0  0  0
M  END
>  <minimizedAffinity>
-5.29342079

$$$$

 OpenBabel03242515153D

 32 34  0  0  0  0  0  0  0  0999 V2000
   37.7970   28.0820   43.7500 C   0  0  0  0  0  0  0  0  0  0  0  0
   38.3950   28.7700   44.3430 H   0  0  0  0  0  0  0  0  0  0  0  0
   36.9050   27.7610   44.3410 H   0  0  0  0  0  0  0  0  0  0  0  0
   38.5630   26.9070   43.2900 C   0  0  0  0  0  0  0  0  0  0  0  0
   39.7030   26.3530   43.7990 C   0  0  0  0  0  0  0  0  0  0  0  0
   40.0270   25.2740   43.0230 C   0  0  0  0  0  0  0  0  0  0  0  0
   39.1010   25.1800   42.0640 N   0  0  0  0  0  0  0  0  0  0  0  0
   38.2130   26.1800   42.2350 N   0  0  0  0  0  0  0  0  0  0  0  0
   40.2520   26.6940   44.6520 H   0  0  0  0  0  0  0  0  0  0  0  0
   40.8450   24.5830   43.0930 H   0  0  0  0  0  0  0  0  0  0  0  0
   38.9520   24.2500   40.9930 C   0  0  0  0  0  0  0  0  0  0  0  0
   37.9440   23.2970   41.1190 C   0  0  0  0  0  3  0  0  0  0  0  0
   37.7420   22.3590   40.1110 C   0  0  0  0  0  0  0  0  0  0  0  0
   36.9580   21.6330   40.2270 H   0  0  0  0  0  0  0  0  0  0  0  0
   38.5170   22.3580   39.0040 N   0  0  0  0  0  0  0  0  0  0  0  0
   39.4910   23.3000   38.9140 C   0  0  0  0  0  3  0  0  0  0  0  0
   39.7200   24.2290   39.8680 N   0  0  0  0  0  0  0  0  0  0  0  0
   37.2680   28.8670   42.5760 C   0  0  0  0  0  0  0  0  0  0  0  0
   36.2820   29.2850   42.9000 H   0  0  0  0  0  0  0  0  0  0  0  0
   37.0650   28.2140   41.7100 H   0  0  0  0  0  0  0  0  0  0  0  0
   40.1050   31.3010   42.1910 C   0  0  0  0  0  0  0  0  0  0  0  0
   39.5840   32.1150   41.1530 C   0  0  0  0  0  0  0  0  0  0  0  0
   38.3240   31.7870   40.6630 C   0  0  0  0  0  0  0  0  0  0  0  0
   37.6920   30.7230   41.2080 N   0  0  0  0  0  0  0  0  0  0  0  0
   38.2180   29.9720   42.1920 C   0  0  0  0  0  0  0  0  0  0  0  0
   39.4220   30.2680   42.6770 N   0  0  0  0  0  0  0  0  0  0  0  0
   41.0810   31.5060   42.6150 H   0  0  0  0  0  0  0  0  0  0  0  0
   40.1850   32.9320   40.8070 H   0  0  0  0  0  0  0  0  0  0  0  0
   37.8110   32.6380   39.5960 C   0  0  0  0  0  0  0  0  0  0  0  0
   36.6550   32.0670   39.0640 F   0  0  0  0  0  0  0  0  0  0  0  0
   38.7400   32.6040   38.5740 F   0  0  0  0  0  0  0  0  0  0  0  0
   37.5090   33.9080   40.0120 F   0  0  0  0  0  0  0  0  0  0  0  0
  1  3  1  0  0  0  0
  1  2  1  0  0  0  0
  4  1  1  0  0  0  0
  4  5  1  0  0  0  0
  5  9  1  0  0  0  0
  6 10  1  0  0  0  0
  6  5  2  0  0  0  0
  7  8  1  0  0  0  0
  7  6  1  0  0  0  0
  8  4  2  0  0  0  0
 11 12  1  0  0  0  0
 11  7  1  0  0  0  0
 13 14  1  0  0  0  0
 13 12  2  0  0  0  0
 15 13  1  0  0  0  0
 16 15  2  0  0  0  0
 16 17  1  0  0  0  0
 17 11  2  0  0  0  0
 18 19  1  0  0  0  0
 18  1  1  0  0  0  0
 20 18  1  0  0  0  0
 21 27  1  0  0  0  0
 21 26  1  0  0  0  0
 22 21  2  0  0  0  0
 23 22  1  0  0  0  0
 23 24  2  0  0  0  0
 24 25  1  0  0  0  0
 25 18  1  0  0  0  0
 25 26  2  0  0  0  0
 28 22  1  0  0  0  0
 29 32  1  0  0  0  0
 29 23  1  0  0  0  0
 30 29  1  0  0  0  0
 31 29  1  0  0  0  0
M  END
>  <minimizedAffinity>
-5.26206589

$$$$
