
 OpenBabel03252509103D

 39 42  0  0  0  0  0  0  0  0999 V2000
   36.1340   27.6830   39.0430 C   0  0  0  0  0  0  0  0  0  0  0  0
   35.7870   28.4440   40.1200 C   0  0  0  0  0  0  0  0  0  0  0  0
   34.6170   29.1840   40.0950 C   0  0  0  0  0  0  0  0  0  0  0  0
   33.8020   29.1540   38.9890 C   0  0  0  0  0  0  0  0  0  0  0  0
   34.1180   28.3890   37.8670 C   0  0  0  0  0  0  0  0  0  0  0  0
   35.3070   27.6510   37.9170 C   0  0  0  0  0  0  0  0  0  0  0  0
   34.3060   29.7990   40.9240 H   0  0  0  0  0  0  0  0  0  0  0  0
   32.8740   29.6850   38.8580 H   0  0  0  0  0  0  0  0  0  0  0  0
   33.5440   28.3130   36.9780 H   0  0  0  0  0  0  0  0  0  0  0  0
   35.5910   27.0390   37.0580 H   0  0  0  0  0  0  0  0  0  0  0  0
   39.5210   30.7710   42.8210 Cl  0  0  0  0  0  0  0  0  0  0  0  0
   38.2630   29.5830   42.5890 C   0  0  0  0  0  0  0  0  0  0  0  0
   37.5440   29.5360   41.4390 C   0  0  0  0  0  0  0  0  0  0  0  0
   36.5770   28.5440   41.3460 C   0  0  0  0  0  0  0  0  0  0  0  0
   36.3490   27.6510   42.3640 C   0  0  0  0  0  0  0  0  0  0  0  0
   37.0790   27.7140   43.5070 C   0  0  0  0  0  0  0  0  0  0  0  0
   38.0400   28.6900   43.6110 C   0  0  0  0  0  0  0  0  0  0  0  0
   35.5820   26.8870   42.2560 H   0  0  0  0  0  0  0  0  0  0  0  0
   36.8710   26.9930   44.2860 H   0  0  0  0  0  0  0  0  0  0  0  0
   38.6030   28.7040   44.5470 H   0  0  0  0  0  0  0  0  0  0  0  0
   37.3730   32.5560   39.1820 C   0  0  0  0  0  0  0  0  0  0  0  0
   37.0890   31.6390   40.2040 C   0  0  0  0  0  0  0  0  0  0  0  0
   37.8290   30.4920   40.3870 C   0  0  0  0  0  0  0  0  0  0  0  0
   38.8480   30.3280   39.5020 N   0  0  0  0  0  0  0  0  0  0  0  0
   39.1270   31.1960   38.5280 C   0  0  0  0  0  0  0  0  0  0  0  0
   38.3930   32.2990   38.3740 N   0  0  0  0  0  0  0  0  0  0  0  0
   36.7200   33.4090   39.1490 H   0  0  0  0  0  0  0  0  0  0  0  0
   36.2690   31.8060   40.8860 H   0  0  0  0  0  0  0  0  0  0  0  0
   39.9550   30.9980   37.8620 H   0  0  0  0  0  0  0  0  0  0  0  0
   37.5250   26.7380   39.0520 S   0  0  0  0  0  0  0  0  0  0  0  0
   37.4530   25.6310   38.0190 O   0  0  0  0  0  0  0  0  0  0  0  0
   38.6340   27.6810   38.4670 O   0  0  0  0  0  0  0  0  0  0  0  0
   38.2240   25.9920   40.4270 C   0  0  0  0  0  0  0  0  0  0  0  0
   37.5330   24.8910   41.0090 C   0  0  0  0  0  3  0  0  0  0  0  0
   37.8500   24.0920   42.1140 C   0  0  0  0  0  0  0  0  0  0  0  0
   37.2070   23.2890   42.4230 H   0  0  0  0  0  0  0  0  0  0  0  0
   39.0070   24.4720   42.6780 N   0  0  0  0  0  0  0  0  0  0  0  0
   39.7320   25.4940   42.2080 C   0  0  0  0  0  3  0  0  0  0  0  0
   39.3370   26.1860   41.1500 N   0  0  0  0  0  0  0  0  0  0  0  0
  1 30  1  0  0  0  0
  1  2  1  0  0  0  0
  2 14  1  0  0  0  0
  3  2  2  0  0  0  0
  3  7  1  0  0  0  0
  4  3  1  0  0  0  0
  5  6  1  0  0  0  0
  5  4  2  0  0  0  0
  6  1  2  0  0  0  0
  8  4  1  0  0  0  0
  9  5  1  0  0  0  0
 10  6  1  0  0  0  0
 12 11  1  0  0  0  0
 12 17  1  0  0  0  0
 13 12  2  0  0  0  0
 14 13  1  0  0  0  0
 14 15  2  0  0  0  0
 15 16  1  0  0  0  0
 16 17  2  0  0  0  0
 16 19  1  0  0  0  0
 17 20  1  0  0  0  0
 18 15  1  0  0  0  0
 21 22  1  0  0  0  0
 22 23  2  0  0  0  0
 22 28  1  0  0  0  0
 23 13  1  0  0  0  0
 24 23  1  0  0  0  0
 25 24  2  0  0  0  0
 26 25  1  0  0  0  0
 26 21  2  0  0  0  0
 27 21  1  0  0  0  0
 29 25  1  0  0  0  0
 30 33  1  0  0  0  0
 31 30  2  0  0  0  0
 32 30  2  0  0  0  0
 33 34  2  0  0  0  0
 33 39  1  0  0  0  0
 34 35  1  0  0  0  0
 35 36  1  0  0  0  0
 35 37  2  0  0  0  0
 38 37  1  0  0  0  0
 39 38  2  0  0  0  0
M  END
>  <minimizedAffinity>
-6.61906767

$$$$

 OpenBabel03252509103D

 39 42  0  0  0  0  0  0  0  0999 V2000
   36.1310   27.3230   39.1550 C   0  0  0  0  0  0  0  0  0  0  0  0
   35.8530   28.2750   40.0920 C   0  0  0  0  0  0  0  0  0  0  0  0
   34.7940   29.1460   39.8980 C   0  0  0  0  0  0  0  0  0  0  0  0
   34.0200   29.0540   38.7650 C   0  0  0  0  0  0  0  0  0  0  0  0
   34.2690   28.0960   37.7840 C   0  0  0  0  0  0  0  0  0  0  0  0
   35.3460   27.2270   38.0040 C   0  0  0  0  0  0  0  0  0  0  0  0
   34.5400   29.9130   40.6110 H   0  0  0  0  0  0  0  0  0  0  0  0
   33.1770   29.6740   38.5090 H   0  0  0  0  0  0  0  0  0  0  0  0
   33.7210   27.9600   36.8850 H   0  0  0  0  0  0  0  0  0  0  0  0
   35.5740   26.4620   37.2580 H   0  0  0  0  0  0  0  0  0  0  0  0
   39.4840   30.8020   42.7530 Cl  0  0  0  0  0  0  0  0  0  0  0  0
   38.2460   29.5870   42.5560 C   0  0  0  0  0  0  0  0  0  0  0  0
   37.5600   29.4640   41.3910 C   0  0  0  0  0  0  0  0  0  0  0  0
   36.6070   28.4570   41.3310 C   0  0  0  0  0  0  0  0  0  0  0  0
   36.3610   27.6210   42.3930 C   0  0  0  0  0  0  0  0  0  0  0  0
   37.0570   27.7600   43.5490 C   0  0  0  0  0  0  0  0  0  0  0  0
   38.0040   28.7520   43.6230 C   0  0  0  0  0  0  0  0  0  0  0  0
   35.6050   26.8430   42.3090 H   0  0  0  0  0  0  0  0  0  0  0  0
   36.8350   27.0840   44.3630 H   0  0  0  0  0  0  0  0  0  0  0  0
   38.5400   28.8280   44.5710 H   0  0  0  0  0  0  0  0  0  0  0  0
   37.5300   32.4290   39.0570 C   0  0  0  0  0  0  0  0  0  0  0  0
   37.2280   31.5700   40.1230 C   0  0  0  0  0  0  0  0  0  0  0  0
   37.8640   30.3600   40.2940 C   0  0  0  0  0  0  0  0  0  0  0  0
   38.8000   30.0740   39.3490 N   0  0  0  0  0  0  0  0  0  0  0  0
   39.0940   30.8850   38.3320 C   0  0  0  0  0  0  0  0  0  0  0  0
   38.4610   32.0510   38.1920 N   0  0  0  0  0  0  0  0  0  0  0  0
   36.9620   33.3410   39.0400 H   0  0  0  0  0  0  0  0  0  0  0  0
   36.4770   31.8350   40.8520 H   0  0  0  0  0  0  0  0  0  0  0  0
   39.8510   30.5890   37.6200 H   0  0  0  0  0  0  0  0  0  0  0  0
   37.3820   26.2200   39.3760 S   0  0  0  0  0  0  0  0  0  0  0  0
   37.0530   25.2140   40.4600 O   0  0  0  0  0  0  0  0  0  0  0  0
   37.3540   25.3430   38.0750 O   0  0  0  0  0  0  0  0  0  0  0  0
   39.0290   26.6090   39.6420 C   0  0  0  0  0  0  0  0  0  0  0  0
   39.5500   26.4300   40.9550 C   0  0  0  0  0  3  0  0  0  0  0  0
   40.8330   26.6540   41.4690 C   0  0  0  0  0  0  0  0  0  0  0  0
   41.0590   26.4640   42.5020 H   0  0  0  0  0  0  0  0  0  0  0  0
   41.6670   27.1120   40.5240 N   0  0  0  0  0  0  0  0  0  0  0  0
   41.2760   27.3150   39.2600 C   0  0  0  0  0  3  0  0  0  0  0  0
   40.0320   27.0690   38.8790 N   0  0  0  0  0  0  0  0  0  0  0  0
  1 30  1  0  0  0  0
  1  2  1  0  0  0  0
  2 14  1  0  0  0  0
  3  2  2  0  0  0  0
  3  7  1  0  0  0  0
  4  3  1  0  0  0  0
  5  6  1  0  0  0  0
  5  4  2  0  0  0  0
  6  1  2  0  0  0  0
  8  4  1  0  0  0  0
  9  5  1  0  0  0  0
 10  6  1  0  0  0  0
 12 11  1  0  0  0  0
 12 17  1  0  0  0  0
 13 12  2  0  0  0  0
 14 13  1  0  0  0  0
 14 15  2  0  0  0  0
 15 16  1  0  0  0  0
 16 17  2  0  0  0  0
 16 19  1  0  0  0  0
 17 20  1  0  0  0  0
 18 15  1  0  0  0  0
 21 22  1  0  0  0  0
 22 23  2  0  0  0  0
 22 28  1  0  0  0  0
 23 13  1  0  0  0  0
 24 23  1  0  0  0  0
 25 24  2  0  0  0  0
 26 25  1  0  0  0  0
 26 21  2  0  0  0  0
 27 21  1  0  0  0  0
 29 25  1  0  0  0  0
 30 33  1  0  0  0  0
 30 31  2  0  0  0  0
 32 30  2  0  0  0  0
 33 34  1  0  0  0  0
 34 35  2  0  0  0  0
 35 36  1  0  0  0  0
 37 35  1  0  0  0  0
 38 37  2  0  0  0  0
 39 38  1  0  0  0  0
 39 33  2  0  0  0  0
M  END
>  <minimizedAffinity>
-6.07847023

$$$$

 OpenBabel03252509103D

 39 42  0  0  0  0  0  0  0  0999 V2000
   36.1480   27.3250   39.1360 C   0  0  0  0  0  0  0  0  0  0  0  0
   35.8560   28.2730   40.0730 C   0  0  0  0  0  0  0  0  0  0  0  0
   34.7840   29.1280   39.8790 C   0  0  0  0  0  0  0  0  0  0  0  0
   34.0120   29.0250   38.7450 C   0  0  0  0  0  0  0  0  0  0  0  0
   34.2750   28.0710   37.7640 C   0  0  0  0  0  0  0  0  0  0  0  0
   35.3650   27.2190   37.9840 C   0  0  0  0  0  0  0  0  0  0  0  0
   34.5180   29.8900   40.5920 H   0  0  0  0  0  0  0  0  0  0  0  0
   33.1590   29.6320   38.4900 H   0  0  0  0  0  0  0  0  0  0  0  0
   33.7300   27.9280   36.8650 H   0  0  0  0  0  0  0  0  0  0  0  0
   35.6050   26.4570   37.2380 H   0  0  0  0  0  0  0  0  0  0  0  0
   39.4960   30.8070   42.7140 Cl  0  0  0  0  0  0  0  0  0  0  0  0
   38.2490   29.5990   42.5290 C   0  0  0  0  0  0  0  0  0  0  0  0
   37.5670   29.4660   41.3630 C   0  0  0  0  0  0  0  0  0  0  0  0
   36.6070   28.4650   41.3120 C   0  0  0  0  0  0  0  0  0  0  0  0
   36.3500   27.6460   42.3840 C   0  0  0  0  0  0  0  0  0  0  0  0
   37.0430   27.7950   43.5410 C   0  0  0  0  0  0  0  0  0  0  0  0
   37.9970   28.7800   43.6050 C   0  0  0  0  0  0  0  0  0  0  0  0
   35.5880   26.8720   42.3070 H   0  0  0  0  0  0  0  0  0  0  0  0
   36.8130   27.1310   44.3630 H   0  0  0  0  0  0  0  0  0  0  0  0
   38.5300   28.8640   44.5540 H   0  0  0  0  0  0  0  0  0  0  0  0
   37.5750   32.4040   38.9940 C   0  0  0  0  0  0  0  0  0  0  0  0
   37.2630   31.5620   40.0710 C   0  0  0  0  0  0  0  0  0  0  0  0
   37.8820   30.3450   40.2550 C   0  0  0  0  0  0  0  0  0  0  0  0
   38.8120   30.0360   39.3130 N   0  0  0  0  0  0  0  0  0  0  0  0
   39.1170   30.8310   38.2860 C   0  0  0  0  0  0  0  0  0  0  0  0
   38.5000   32.0030   38.1330 N   0  0  0  0  0  0  0  0  0  0  0  0
   37.0190   33.3240   38.9680 H   0  0  0  0  0  0  0  0  0  0  0  0
   36.5160   31.8450   40.7970 H   0  0  0  0  0  0  0  0  0  0  0  0
   39.8680   30.5160   37.5760 H   0  0  0  0  0  0  0  0  0  0  0  0
   37.4160   26.2410   39.3560 S   0  0  0  0  0  0  0  0  0  0  0  0
   38.5850   26.8910   40.0690 O   0  0  0  0  0  0  0  0  0  0  0  0
   36.8760   25.2330   40.4310 O   0  0  0  0  0  0  0  0  0  0  0  0
   38.1410   25.2810   38.1360 C   0  0  0  0  0  0  0  0  0  0  0  0
   38.7830   24.0750   38.5360 C   0  0  0  0  0  3  0  0  0  0  0  0
   39.4480   23.0990   37.7830 C   0  0  0  0  0  0  0  0  0  0  0  0
   39.8840   22.2360   38.2520 H   0  0  0  0  0  0  0  0  0  0  0  0
   39.4480   23.4040   36.4770 N   0  0  0  0  0  0  0  0  0  0  0  0
   38.8720   24.5130   35.9990 C   0  0  0  0  0  3  0  0  0  0  0  0
   38.2670   25.3730   36.8040 N   0  0  0  0  0  0  0  0  0  0  0  0
  1 30  1  0  0  0  0
  1  2  1  0  0  0  0
  2 14  1  0  0  0  0
  3  2  2  0  0  0  0
  3  7  1  0  0  0  0
  4  3  1  0  0  0  0
  5  6  1  0  0  0  0
  5  4  2  0  0  0  0
  6  1  2  0  0  0  0
  8  4  1  0  0  0  0
  9  5  1  0  0  0  0
 10  6  1  0  0  0  0
 12 11  1  0  0  0  0
 12 17  1  0  0  0  0
 13 12  2  0  0  0  0
 14 13  1  0  0  0  0
 14 15  2  0  0  0  0
 15 16  1  0  0  0  0
 16 17  2  0  0  0  0
 16 19  1  0  0  0  0
 17 20  1  0  0  0  0
 18 15  1  0  0  0  0
 21 22  1  0  0  0  0
 22 23  2  0  0  0  0
 22 28  1  0  0  0  0
 23 13  1  0  0  0  0
 24 23  1  0  0  0  0
 25 24  2  0  0  0  0
 26 25  1  0  0  0  0
 26 21  2  0  0  0  0
 27 21  1  0  0  0  0
 29 25  1  0  0  0  0
 30 31  2  0  0  0  0
 30 32  2  0  0  0  0
 33 34  1  0  0  0  0
 33 30  1  0  0  0  0
 35 36  1  0  0  0  0
 35 34  2  0  0  0  0
 37 35  1  0  0  0  0
 38 37  2  0  0  0  0
 38 39  1  0  0  0  0
 39 33  2  0  0  0  0
M  END
>  <minimizedAffinity>
-5.99405622

$$$$

 OpenBabel03252509103D

 39 42  0  0  0  0  0  0  0  0999 V2000
   36.2030   29.7680   38.5840 C   0  0  0  0  0  0  0  0  0  0  0  0
   37.1350   30.6300   38.0840 C   0  0  0  0  0  0  0  0  0  0  0  0
   37.3060   30.7420   36.7140 C   0  0  0  0  0  0  0  0  0  0  0  0
   36.5400   29.9890   35.8560 C   0  0  0  0  0  0  0  0  0  0  0  0
   35.5770   29.0970   36.3250 C   0  0  0  0  0  0  0  0  0  0  0  0
   35.4240   29.0020   37.7150 C   0  0  0  0  0  0  0  0  0  0  0  0
   38.0300   31.4100   36.2760 H   0  0  0  0  0  0  0  0  0  0  0  0
   36.5850   29.9930   34.7800 H   0  0  0  0  0  0  0  0  0  0  0  0
   34.9480   28.4820   35.7310 H   0  0  0  0  0  0  0  0  0  0  0  0
   34.6800   28.3130   38.1230 H   0  0  0  0  0  0  0  0  0  0  0  0
   41.6440   31.3840   40.4800 Cl  0  0  0  0  0  0  0  0  0  0  0  0
   40.0310   31.8440   39.9960 C   0  0  0  0  0  0  0  0  0  0  0  0
   39.2710   31.0290   39.2210 C   0  0  0  0  0  0  0  0  0  0  0  0
   37.9970   31.4790   38.9040 C   0  0  0  0  0  0  0  0  0  0  0  0
   37.5190   32.6880   39.3470 C   0  0  0  0  0  0  0  0  0  0  0  0
   38.2940   33.4880   40.1220 C   0  0  0  0  0  0  0  0  0  0  0  0
   39.5580   33.0550   40.4440 C   0  0  0  0  0  0  0  0  0  0  0  0
   36.5140   33.0080   39.0780 H   0  0  0  0  0  0  0  0  0  0  0  0
   37.8840   34.4330   40.4510 H   0  0  0  0  0  0  0  0  0  0  0  0
   40.1460   33.7300   41.0680 H   0  0  0  0  0  0  0  0  0  0  0  0
   41.0130   28.3660   37.1920 C   0  0  0  0  0  0  0  0  0  0  0  0
   40.4940   29.6020   37.6010 C   0  0  0  0  0  0  0  0  0  0  0  0
   39.8130   29.7570   38.7880 C   0  0  0  0  0  0  0  0  0  0  0  0
   39.6900   28.6180   39.5210 N   0  0  0  0  0  0  0  0  0  0  0  0
   40.1810   27.4380   39.1410 C   0  0  0  0  0  0  0  0  0  0  0  0
   40.8360   27.3190   37.9860 N   0  0  0  0  0  0  0  0  0  0  0  0
   41.5230   28.3830   36.2460 H   0  0  0  0  0  0  0  0  0  0  0  0
   40.6130   30.4830   36.9880 H   0  0  0  0  0  0  0  0  0  0  0  0
   40.0440   26.5760   39.7780 H   0  0  0  0  0  0  0  0  0  0  0  0
   35.9370   29.6350   40.2400 S   0  0  0  0  0  0  0  0  0  0  0  0
   35.7620   30.9950   40.8860 O   0  0  0  0  0  0  0  0  0  0  0  0
   34.4990   29.0160   40.3490 O   0  0  0  0  0  0  0  0  0  0  0  0
   36.9080   28.7590   41.3470 C   0  0  0  0  0  0  0  0  0  0  0  0
   37.7130   29.5030   42.2560 C   0  0  0  0  0  3  0  0  0  0  0  0
   38.5910   29.0770   43.2610 C   0  0  0  0  0  0  0  0  0  0  0  0
   39.1290   29.7830   43.8650 H   0  0  0  0  0  0  0  0  0  0  0  0
   38.6410   27.7380   43.3320 N   0  0  0  0  0  0  0  0  0  0  0  0
   37.9240   26.9490   42.5230 C   0  0  0  0  0  3  0  0  0  0  0  0
   37.1210   27.4600   41.6030 N   0  0  0  0  0  0  0  0  0  0  0  0
  1 30  1  0  0  0  0
  2  1  1  0  0  0  0
  2 14  1  0  0  0  0
  3  2  2  0  0  0  0
  4  5  2  0  0  0  0
  4  3  1  0  0  0  0
  5  6  1  0  0  0  0
  6 10  1  0  0  0  0
  6  1  2  0  0  0  0
  7  3  1  0  0  0  0
  8  4  1  0  0  0  0
  9  5  1  0  0  0  0
 12 17  1  0  0  0  0
 12 11  1  0  0  0  0
 13 12  2  0  0  0  0
 14 13  1  0  0  0  0
 14 15  2  0  0  0  0
 15 16  1  0  0  0  0
 16 17  2  0  0  0  0
 16 19  1  0  0  0  0
 17 20  1  0  0  0  0
 18 15  1  0  0  0  0
 21 22  2  0  0  0  0
 21 26  1  0  0  0  0
 22 23  1  0  0  0  0
 23 13  1  0  0  0  0
 23 24  2  0  0  0  0
 25 24  1  0  0  0  0
 25 29  1  0  0  0  0
 26 25  2  0  0  0  0
 27 21  1  0  0  0  0
 28 22  1  0  0  0  0
 30 32  2  0  0  0  0
 30 31  2  0  0  0  0
 30 33  1  0  0  0  0
 33 39  2  0  0  0  0
 33 34  1  0  0  0  0
 34 35  2  0  0  0  0
 35 37  1  0  0  0  0
 35 36  1  0  0  0  0
 38 37  2  0  0  0  0
 39 38  1  0  0  0  0
M  END
>  <minimizedAffinity>
-5.86922646

$$$$

 OpenBabel03252509103D

 39 42  0  0  0  0  0  0  0  0999 V2000
   37.2200   29.5390   38.7950 C   0  0  0  0  0  0  0  0  0  0  0  0
   36.6540   28.8450   39.8240 C   0  0  0  0  0  0  0  0  0  0  0  0
   35.3520   28.3850   39.7140 C   0  0  0  0  0  0  0  0  0  0  0  0
   34.6280   28.6240   38.5700 C   0  0  0  0  0  0  0  0  0  0  0  0
   35.1670   29.3280   37.4950 C   0  0  0  0  0  0  0  0  0  0  0  0
   36.4860   29.7830   37.6320 C   0  0  0  0  0  0  0  0  0  0  0  0
   34.8670   27.8330   40.5030 H   0  0  0  0  0  0  0  0  0  0  0  0
   33.6140   28.3170   38.3740 H   0  0  0  0  0  0  0  0  0  0  0  0
   34.6760   29.5530   36.5820 H   0  0  0  0  0  0  0  0  0  0  0  0
   36.9450   30.3400   36.8120 H   0  0  0  0  0  0  0  0  0  0  0  0
   39.0990   25.4240   42.8190 Cl  0  0  0  0  0  0  0  0  0  0  0  0
   38.4460   27.0010   42.4530 C   0  0  0  0  0  0  0  0  0  0  0  0
   37.8340   27.2500   41.2680 C   0  0  0  0  0  0  0  0  0  0  0  0
   37.3350   28.5320   41.0800 C   0  0  0  0  0  0  0  0  0  0  0  0
   37.4520   29.5080   42.0390 C   0  0  0  0  0  0  0  0  0  0  0  0
   38.0670   29.2390   43.2180 C   0  0  0  0  0  0  0  0  0  0  0  0
   38.5640   27.9740   43.4180 C   0  0  0  0  0  0  0  0  0  0  0  0
   37.0490   30.5020   41.8560 H   0  0  0  0  0  0  0  0  0  0  0  0
   38.1390   30.0320   43.9490 H   0  0  0  0  0  0  0  0  0  0  0  0
   39.0510   27.8010   44.3800 H   0  0  0  0  0  0  0  0  0  0  0  0
   36.6010   24.2430   39.3500 C   0  0  0  0  0  0  0  0  0  0  0  0
   36.6970   25.2690   40.3010 C   0  0  0  0  0  0  0  0  0  0  0  0
   37.7240   26.1860   40.2900 C   0  0  0  0  0  0  0  0  0  0  0  0
   38.6280   26.0120   39.2890 N   0  0  0  0  0  0  0  0  0  0  0  0
   38.5440   25.0400   38.3790 C   0  0  0  0  0  0  0  0  0  0  0  0
   37.5380   24.1660   38.4150 N   0  0  0  0  0  0  0  0  0  0  0  0
   35.7510   23.5960   39.4710 H   0  0  0  0  0  0  0  0  0  0  0  0
   35.9580   25.3720   41.0810 H   0  0  0  0  0  0  0  0  0  0  0  0
   39.3010   24.9660   37.6120 H   0  0  0  0  0  0  0  0  0  0  0  0
   38.8120   30.0770   38.8750 S   0  0  0  0  0  0  0  0  0  0  0  0
   39.7220   29.0310   39.4860 O   0  0  0  0  0  0  0  0  0  0  0  0
   39.2820   30.1080   37.3780 O   0  0  0  0  0  0  0  0  0  0  0  0
   39.3400   31.5550   39.5620 C   0  0  0  0  0  0  0  0  0  0  0  0
   38.3750   32.5880   39.7350 C   0  0  0  0  0  3  0  0  0  0  0  0
   38.5030   33.8800   40.2620 C   0  0  0  0  0  0  0  0  0  0  0  0
   37.6590   34.5420   40.3200 H   0  0  0  0  0  0  0  0  0  0  0  0
   39.7620   34.1280   40.6520 N   0  0  0  0  0  0  0  0  0  0  0  0
   40.7420   33.2240   40.5320 C   0  0  0  0  0  3  0  0  0  0  0  0
   40.5100   32.0260   40.0170 N   0  0  0  0  0  0  0  0  0  0  0  0
  1 30  1  0  0  0  0
  1  2  1  0  0  0  0
  2 14  1  0  0  0  0
  3  2  2  0  0  0  0
  3  7  1  0  0  0  0
  4  3  1  0  0  0  0
  5  6  1  0  0  0  0
  5  4  2  0  0  0  0
  6  1  2  0  0  0  0
  8  4  1  0  0  0  0
  9  5  1  0  0  0  0
 10  6  1  0  0  0  0
 12 11  1  0  0  0  0
 12 17  1  0  0  0  0
 13 12  2  0  0  0  0
 14 13  1  0  0  0  0
 14 15  2  0  0  0  0
 15 16  1  0  0  0  0
 16 17  2  0  0  0  0
 16 19  1  0  0  0  0
 17 20  1  0  0  0  0
 18 15  1  0  0  0  0
 21 27  1  0  0  0  0
 21 22  1  0  0  0  0
 22 28  1  0  0  0  0
 23 22  2  0  0  0  0
 23 13  1  0  0  0  0
 24 23  1  0  0  0  0
 25 26  1  0  0  0  0
 25 24  2  0  0  0  0
 26 21  2  0  0  0  0
 29 25  1  0  0  0  0
 30 31  2  0  0  0  0
 30 33  1  0  0  0  0
 32 30  2  0  0  0  0
 33 34  2  0  0  0  0
 33 39  1  0  0  0  0
 34 35  1  0  0  0  0
 35 36  1  0  0  0  0
 35 37  2  0  0  0  0
 38 37  1  0  0  0  0
 39 38  2  0  0  0  0
M  END
>  <minimizedAffinity>
-5.84537077

$$$$

 OpenBabel03252509103D

 39 42  0  0  0  0  0  0  0  0999 V2000
   36.4520   29.7300   38.2620 C   0  0  0  0  0  0  0  0  0  0  0  0
   36.3690   30.2960   39.5000 C   0  0  0  0  0  0  0  0  0  0  0  0
   35.2920   30.0050   40.3220 C   0  0  0  0  0  0  0  0  0  0  0  0
   34.3070   29.1470   39.8940 C   0  0  0  0  0  0  0  0  0  0  0  0
   34.3530   28.5470   38.6360 C   0  0  0  0  0  0  0  0  0  0  0  0
   35.4520   28.8590   37.8250 C   0  0  0  0  0  0  0  0  0  0  0  0
   35.1870   30.4290   41.3070 H   0  0  0  0  0  0  0  0  0  0  0  0
   33.4290   28.8490   40.4430 H   0  0  0  0  0  0  0  0  0  0  0  0
   33.6350   27.8770   38.2340 H   0  0  0  0  0  0  0  0  0  0  0  0
   35.5250   28.4090   36.8310 H   0  0  0  0  0  0  0  0  0  0  0  0
   40.3190   31.1620   42.7090 Cl  0  0  0  0  0  0  0  0  0  0  0  0
   39.1510   31.6320   41.4990 C   0  0  0  0  0  0  0  0  0  0  0  0
   38.2580   30.7400   41.0020 C   0  0  0  0  0  0  0  0  0  0  0  0
   37.3610   31.2160   40.0550 C   0  0  0  0  0  0  0  0  0  0  0  0
   37.3710   32.5230   39.6330 C   0  0  0  0  0  0  0  0  0  0  0  0
   38.2720   33.4000   40.1430 C   0  0  0  0  0  0  0  0  0  0  0  0
   39.1650   32.9420   41.0820 C   0  0  0  0  0  0  0  0  0  0  0  0
   36.6530   32.8600   38.8890 H   0  0  0  0  0  0  0  0  0  0  0  0
   38.2490   34.4210   39.7870 H   0  0  0  0  0  0  0  0  0  0  0  0
   39.8720   33.6810   41.4650 H   0  0  0  0  0  0  0  0  0  0  0  0
   37.6610   27.6590   43.0970 C   0  0  0  0  0  0  0  0  0  0  0  0
   37.6340   28.9830   42.6390 C   0  0  0  0  0  0  0  0  0  0  0  0
   38.2770   29.3740   41.4850 C   0  0  0  0  0  0  0  0  0  0  0  0
   38.9320   28.3740   40.8360 N   0  0  0  0  0  0  0  0  0  0  0  0
   38.9620   27.1110   41.2640 C   0  0  0  0  0  0  0  0  0  0  0  0
   38.3300   26.7620   42.3850 N   0  0  0  0  0  0  0  0  0  0  0  0
   37.1180   27.4880   44.0100 H   0  0  0  0  0  0  0  0  0  0  0  0
   37.1030   29.7480   43.1850 H   0  0  0  0  0  0  0  0  0  0  0  0
   39.5040   26.3710   40.6930 H   0  0  0  0  0  0  0  0  0  0  0  0
   37.7650   30.0270   37.2530 S   0  0  0  0  0  0  0  0  0  0  0  0
   37.7360   29.1370   36.0260 O   0  0  0  0  0  0  0  0  0  0  0  0
   37.4750   31.4480   36.6530 O   0  0  0  0  0  0  0  0  0  0  0  0
   39.4120   30.0460   37.7260 C   0  0  0  0  0  0  0  0  0  0  0  0
   40.1120   28.8060   37.7420 C   0  0  0  0  0  3  0  0  0  0  0  0
   41.4400   28.5100   38.0730 C   0  0  0  0  0  0  0  0  0  0  0  0
   41.8120   27.5030   38.0310 H   0  0  0  0  0  0  0  0  0  0  0  0
   42.1160   29.6140   38.4260 N   0  0  0  0  0  0  0  0  0  0  0  0
   41.5490   30.8260   38.4440 C   0  0  0  0  0  3  0  0  0  0  0  0
   40.2790   30.9950   38.1100 N   0  0  0  0  0  0  0  0  0  0  0  0
  1  2  1  0  0  0  0
  2 14  1  0  0  0  0
  2  3  2  0  0  0  0
  3  7  1  0  0  0  0
  4  3  1  0  0  0  0
  4  8  1  0  0  0  0
  5  4  2  0  0  0  0
  6  1  2  0  0  0  0
  6  5  1  0  0  0  0
  9  5  1  0  0  0  0
 10  6  1  0  0  0  0
 12 11  1  0  0  0  0
 13 23  1  0  0  0  0
 13 12  2  0  0  0  0
 14 13  1  0  0  0  0
 15 14  2  0  0  0  0
 15 16  1  0  0  0  0
 16 17  2  0  0  0  0
 17 20  1  0  0  0  0
 17 12  1  0  0  0  0
 18 15  1  0  0  0  0
 19 16  1  0  0  0  0
 21 27  1  0  0  0  0
 22 21  1  0  0  0  0
 22 28  1  0  0  0  0
 23 22  2  0  0  0  0
 24 25  2  0  0  0  0
 24 23  1  0  0  0  0
 25 26  1  0  0  0  0
 26 21  2  0  0  0  0
 29 25  1  0  0  0  0
 30 33  1  0  0  0  0
 30  1  1  0  0  0  0
 31 30  2  0  0  0  0
 32 30  2  0  0  0  0
 33 34  2  0  0  0  0
 33 39  1  0  0  0  0
 34 35  1  0  0  0  0
 35 37  2  0  0  0  0
 36 35  1  0  0  0  0
 37 38  1  0  0  0  0
 39 38  2  0  0  0  0
M  END
>  <minimizedAffinity>
-5.7808466

$$$$

 OpenBabel03252509103D

 39 42  0  0  0  0  0  0  0  0999 V2000
   37.1180   25.9860   39.8190 C   0  0  0  0  0  0  0  0  0  0  0  0
   37.0180   26.6810   40.9890 C   0  0  0  0  0  0  0  0  0  0  0  0
   36.9380   25.9990   42.1920 C   0  0  0  0  0  0  0  0  0  0  0  0
   36.9600   24.6240   42.2120 C   0  0  0  0  0  0  0  0  0  0  0  0
   37.0610   23.8760   41.0410 C   0  0  0  0  0  0  0  0  0  0  0  0
   37.1400   24.5900   39.8380 C   0  0  0  0  0  0  0  0  0  0  0  0
   36.8580   26.5080   43.1390 H   0  0  0  0  0  0  0  0  0  0  0  0
   36.9040   23.9930   43.0830 H   0  0  0  0  0  0  0  0  0  0  0  0
   37.0840   22.8180   40.9720 H   0  0  0  0  0  0  0  0  0  0  0  0
   37.2200   24.0390   38.8970 H   0  0  0  0  0  0  0  0  0  0  0  0
   39.4100   31.1020   42.1640 Cl  0  0  0  0  0  0  0  0  0  0  0  0
   38.0540   30.1550   41.6050 C   0  0  0  0  0  0  0  0  0  0  0  0
   38.1290   28.8020   41.5220 C   0  0  0  0  0  0  0  0  0  0  0  0
   36.9920   28.1390   41.0810 C   0  0  0  0  0  0  0  0  0  0  0  0
   35.8420   28.8110   40.7420 C   0  0  0  0  0  0  0  0  0  0  0  0
   35.7870   30.1630   40.8320 C   0  0  0  0  0  0  0  0  0  0  0  0
   36.9060   30.8320   41.2680 C   0  0  0  0  0  0  0  0  0  0  0  0
   34.9700   28.2570   40.4000 H   0  0  0  0  0  0  0  0  0  0  0  0
   34.8650   30.6560   40.5570 H   0  0  0  0  0  0  0  0  0  0  0  0
   36.8170   31.9190   41.3260 H   0  0  0  0  0  0  0  0  0  0  0  0
   40.8580   27.1840   43.5660 C   0  0  0  0  0  0  0  0  0  0  0  0
   39.6650   27.8270   43.2100 C   0  0  0  0  0  0  0  0  0  0  0  0
   39.3590   28.1360   41.9030 C   0  0  0  0  0  0  0  0  0  0  0  0
   40.3040   27.7660   40.9980 N   0  0  0  0  0  0  0  0  0  0  0  0
   41.4420   27.1530   41.3270 C   0  0  0  0  0  0  0  0  0  0  0  0
   41.7110   26.8670   42.6020 N   0  0  0  0  0  0  0  0  0  0  0  0
   40.9730   27.0010   44.6190 H   0  0  0  0  0  0  0  0  0  0  0  0
   38.9400   28.1050   43.9600 H   0  0  0  0  0  0  0  0  0  0  0  0
   42.1460   26.8890   40.5510 H   0  0  0  0  0  0  0  0  0  0  0  0
   37.2600   26.7780   38.3430 S   0  0  0  0  0  0  0  0  0  0  0  0
   37.8400   25.8700   37.2770 O   0  0  0  0  0  0  0  0  0  0  0  0
   35.7780   26.9660   37.8630 O   0  0  0  0  0  0  0  0  0  0  0  0
   38.0300   28.2870   38.0810 C   0  0  0  0  0  0  0  0  0  0  0  0
   37.2340   29.3620   37.5920 C   0  0  0  0  0  3  0  0  0  0  0  0
   37.5730   30.6870   37.2900 C   0  0  0  0  0  0  0  0  0  0  0  0
   36.8380   31.3790   36.9250 H   0  0  0  0  0  0  0  0  0  0  0  0
   38.8730   30.9250   37.5190 N   0  0  0  0  0  0  0  0  0  0  0  0
   39.7050   29.9820   37.9770 C   0  0  0  0  0  3  0  0  0  0  0  0
   39.2780   28.7550   38.2310 N   0  0  0  0  0  0  0  0  0  0  0  0
  1  6  2  0  0  0  0
  1  2  1  0  0  0  0
  2 14  1  0  0  0  0
  2  3  2  0  0  0  0
  3  4  1  0  0  0  0
  3  7  1  0  0  0  0
  4  8  1  0  0  0  0
  5  4  2  0  0  0  0
  6  5  1  0  0  0  0
  9  5  1  0  0  0  0
 10  6  1  0  0  0  0
 12 11  1  0  0  0  0
 13 12  1  0  0  0  0
 13 23  1  0  0  0  0
 14 13  2  0  0  0  0
 15 16  2  0  0  0  0
 15 14  1  0  0  0  0
 16 17  1  0  0  0  0
 17 20  1  0  0  0  0
 17 12  2  0  0  0  0
 18 15  1  0  0  0  0
 19 16  1  0  0  0  0
 21 27  1  0  0  0  0
 22 21  1  0  0  0  0
 22 28  1  0  0  0  0
 23 22  2  0  0  0  0
 24 25  2  0  0  0  0
 24 23  1  0  0  0  0
 25 26  1  0  0  0  0
 26 21  2  0  0  0  0
 29 25  1  0  0  0  0
 30  1  1  0  0  0  0
 31 30  2  0  0  0  0
 32 30  2  0  0  0  0
 33 39  1  0  0  0  0
 33 30  1  0  0  0  0
 34 33  2  0  0  0  0
 35 37  2  0  0  0  0
 35 34  1  0  0  0  0
 36 35  1  0  0  0  0
 37 38  1  0  0  0  0
 38 39  2  0  0  0  0
M  END
>  <minimizedAffinity>
-5.76319981

$$$$

 OpenBabel03252509103D

 39 42  0  0  0  0  0  0  0  0999 V2000
   39.1320   28.7920   41.9320 C   0  0  0  0  0  0  0  0  0  0  0  0
   37.8750   29.1790   41.5680 C   0  0  0  0  0  0  0  0  0  0  0  0
   36.7750   28.6740   42.2390 C   0  0  0  0  0  0  0  0  0  0  0  0
   36.9430   27.7830   43.2730 C   0  0  0  0  0  0  0  0  0  0  0  0
   38.2080   27.3610   43.6780 C   0  0  0  0  0  0  0  0  0  0  0  0
   39.3050   27.8870   42.9820 C   0  0  0  0  0  0  0  0  0  0  0  0
   35.7650   28.9530   41.9840 H   0  0  0  0  0  0  0  0  0  0  0  0
   36.1660   27.3270   43.8640 H   0  0  0  0  0  0  0  0  0  0  0  0
   38.4220   26.6800   44.4630 H   0  0  0  0  0  0  0  0  0  0  0  0
   40.3140   27.5810   43.2680 H   0  0  0  0  0  0  0  0  0  0  0  0
   36.8360   30.0460   36.5860 Cl  0  0  0  0  0  0  0  0  0  0  0  0
   37.1110   30.5390   38.2380 C   0  0  0  0  0  0  0  0  0  0  0  0
   37.3640   29.6270   39.2100 C   0  0  0  0  0  0  0  0  0  0  0  0
   37.5840   30.1220   40.4890 C   0  0  0  0  0  0  0  0  0  0  0  0
   37.5490   31.4670   40.7660 C   0  0  0  0  0  0  0  0  0  0  0  0
   37.2950   32.3630   39.7800 C   0  0  0  0  0  0  0  0  0  0  0  0
   37.0760   31.8870   38.5100 C   0  0  0  0  0  0  0  0  0  0  0  0
   37.7260   31.8180   41.7810 H   0  0  0  0  0  0  0  0  0  0  0  0
   37.2750   33.4130   40.0360 H   0  0  0  0  0  0  0  0  0  0  0  0
   36.8760   32.6430   37.7470 H   0  0  0  0  0  0  0  0  0  0  0  0
   36.3750   26.0210   38.7040 C   0  0  0  0  0  0  0  0  0  0  0  0
   36.3250   27.3810   39.0380 C   0  0  0  0  0  0  0  0  0  0  0  0
   37.4040   28.2200   38.8680 C   0  0  0  0  0  0  0  0  0  0  0  0
   38.5100   27.6210   38.3520 N   0  0  0  0  0  0  0  0  0  0  0  0
   38.5670   26.3280   38.0290 C   0  0  0  0  0  0  0  0  0  0  0  0
   37.5060   25.5390   38.2060 N   0  0  0  0  0  0  0  0  0  0  0  0
   35.4650   25.4780   38.8860 H   0  0  0  0  0  0  0  0  0  0  0  0
   35.4260   27.8180   39.4470 H   0  0  0  0  0  0  0  0  0  0  0  0
   39.4830   25.9220   37.6230 H   0  0  0  0  0  0  0  0  0  0  0  0
   40.4940   29.4160   41.1680 S   0  0  0  0  0  0  0  0  0  0  0  0
   41.7430   29.2080   42.0010 O   0  0  0  0  0  0  0  0  0  0  0  0
   40.7280   28.4510   39.9520 O   0  0  0  0  0  0  0  0  0  0  0  0
   40.6580   31.0030   40.5440 C   0  0  0  0  0  0  0  0  0  0  0  0
   40.7410   31.1540   39.1300 C   0  0  0  0  0  3  0  0  0  0  0  0
   40.8720   32.3030   38.3390 C   0  0  0  0  0  0  0  0  0  0  0  0
   40.9210   32.2370   37.2680 H   0  0  0  0  0  0  0  0  0  0  0  0
   40.9240   33.4130   39.0910 N   0  0  0  0  0  0  0  0  0  0  0  0
   40.8540   33.3770   40.4270 C   0  0  0  0  0  3  0  0  0  0  0  0
   40.7300   32.2310   41.0780 N   0  0  0  0  0  0  0  0  0  0  0  0
  1  6  1  0  0  0  0
  2  1  2  0  0  0  0
  2  3  1  0  0  0  0
  3  4  2  0  0  0  0
  4  5  1  0  0  0  0
  4  8  1  0  0  0  0
  5  9  1  0  0  0  0
  6 10  1  0  0  0  0
  6  5  2  0  0  0  0
  7  3  1  0  0  0  0
 11 12  1  0  0  0  0
 12 17  2  0  0  0  0
 12 13  1  0  0  0  0
 13 14  2  0  0  0  0
 14 15  1  0  0  0  0
 14  2  1  0  0  0  0
 15 18  1  0  0  0  0
 16 19  1  0  0  0  0
 16 15  2  0  0  0  0
 17 16  1  0  0  0  0
 20 17  1  0  0  0  0
 21 27  1  0  0  0  0
 21 22  1  0  0  0  0
 22 28  1  0  0  0  0
 23 22  2  0  0  0  0
 23 13  1  0  0  0  0
 24 23  1  0  0  0  0
 25 26  1  0  0  0  0
 25 24  2  0  0  0  0
 26 21  2  0  0  0  0
 29 25  1  0  0  0  0
 30  1  1  0  0  0  0
 30 31  2  0  0  0  0
 32 30  2  0  0  0  0
 33 39  1  0  0  0  0
 33 30  1  0  0  0  0
 34 33  2  0  0  0  0
 35 37  2  0  0  0  0
 35 34  1  0  0  0  0
 36 35  1  0  0  0  0
 37 38  1  0  0  0  0
 38 39  2  0  0  0  0
M  END
>  <minimizedAffinity>
-5.68985033

$$$$

 OpenBabel03252509103D

 39 42  0  0  0  0  0  0  0  0999 V2000
   37.4010   28.0130   40.9260 C   0  0  0  0  0  0  0  0  0  0  0  0
   37.6000   29.2130   41.5440 C   0  0  0  0  0  0  0  0  0  0  0  0
   37.5920   29.2860   42.9270 C   0  0  0  0  0  0  0  0  0  0  0  0
   37.3850   28.1540   43.6800 C   0  0  0  0  0  0  0  0  0  0  0  0
   37.1780   26.9090   43.0880 C   0  0  0  0  0  0  0  0  0  0  0  0
   37.1910   26.8620   41.6880 C   0  0  0  0  0  0  0  0  0  0  0  0
   37.7440   30.2130   43.4570 H   0  0  0  0  0  0  0  0  0  0  0  0
   37.3580   28.0910   44.7550 H   0  0  0  0  0  0  0  0  0  0  0  0
   37.0130   25.9920   43.5960 H   0  0  0  0  0  0  0  0  0  0  0  0
   37.0320   25.9050   41.1850 H   0  0  0  0  0  0  0  0  0  0  0  0
   40.8850   32.8330   39.8870 Cl  0  0  0  0  0  0  0  0  0  0  0  0
   39.3010   32.1260   40.0800 C   0  0  0  0  0  0  0  0  0  0  0  0
   39.1340   30.9440   40.7280 C   0  0  0  0  0  0  0  0  0  0  0  0
   37.8330   30.4740   40.8420 C   0  0  0  0  0  0  0  0  0  0  0  0
   36.7610   31.1610   40.3270 C   0  0  0  0  0  0  0  0  0  0  0  0
   36.9490   32.3410   39.6840 C   0  0  0  0  0  0  0  0  0  0  0  0
   38.2320   32.8190   39.5640 C   0  0  0  0  0  0  0  0  0  0  0  0
   35.7550   30.7610   40.4350 H   0  0  0  0  0  0  0  0  0  0  0  0
   36.0810   32.8530   39.2920 H   0  0  0  0  0  0  0  0  0  0  0  0
   38.3370   33.7710   39.0390 H   0  0  0  0  0  0  0  0  0  0  0  0
   41.9330   29.8720   43.0200 C   0  0  0  0  0  0  0  0  0  0  0  0
   40.8100   30.5390   42.5110 C   0  0  0  0  0  0  0  0  0  0  0  0
   40.2940   30.2610   41.2650 C   0  0  0  0  0  0  0  0  0  0  0  0
   40.9590   29.2940   40.5790 N   0  0  0  0  0  0  0  0  0  0  0  0
   42.0270   28.6530   41.0560 C   0  0  0  0  0  0  0  0  0  0  0  0
   42.5060   28.9430   42.2670 N   0  0  0  0  0  0  0  0  0  0  0  0
   42.2330   30.1830   44.0050 H   0  0  0  0  0  0  0  0  0  0  0  0
   40.3110   31.3020   43.0880 H   0  0  0  0  0  0  0  0  0  0  0  0
   42.5040   27.8940   40.4520 H   0  0  0  0  0  0  0  0  0  0  0  0
   37.4460   27.8780   39.2500 S   0  0  0  0  0  0  0  0  0  0  0  0
   38.7150   28.4770   38.6770 O   0  0  0  0  0  0  0  0  0  0  0  0
   37.6470   26.3420   38.9940 O   0  0  0  0  0  0  0  0  0  0  0  0
   36.2140   28.3740   38.1670 C   0  0  0  0  0  0  0  0  0  0  0  0
   34.8960   28.5230   38.6860 C   0  0  0  0  0  3  0  0  0  0  0  0
   33.7050   28.9110   38.0590 C   0  0  0  0  0  0  0  0  0  0  0  0
   32.7830   28.9710   38.6070 H   0  0  0  0  0  0  0  0  0  0  0  0
   33.8990   29.1740   36.7580 N   0  0  0  0  0  0  0  0  0  0  0  0
   35.0980   29.0640   36.1750 C   0  0  0  0  0  3  0  0  0  0  0  0
   36.1640   28.6870   36.8640 N   0  0  0  0  0  0  0  0  0  0  0  0
  1  2  2  0  0  0  0
  1  6  1  0  0  0  0
  2  3  1  0  0  0  0
  3  7  1  0  0  0  0
  3  4  2  0  0  0  0
  4  8  1  0  0  0  0
  5  9  1  0  0  0  0
  5  4  1  0  0  0  0
  6  5  2  0  0  0  0
 10  6  1  0  0  0  0
 11 12  1  0  0  0  0
 12 13  1  0  0  0  0
 13 14  2  0  0  0  0
 13 23  1  0  0  0  0
 14  2  1  0  0  0  0
 15 18  1  0  0  0  0
 15 14  1  0  0  0  0
 16 15  2  0  0  0  0
 17 16  1  0  0  0  0
 17 12  2  0  0  0  0
 19 16  1  0  0  0  0
 20 17  1  0  0  0  0
 21 27  1  0  0  0  0
 22 21  1  0  0  0  0
 22 28  1  0  0  0  0
 23 22  2  0  0  0  0
 24 25  2  0  0  0  0
 24 23  1  0  0  0  0
 25 26  1  0  0  0  0
 26 21  2  0  0  0  0
 29 25  1  0  0  0  0
 30  1  1  0  0  0  0
 31 30  2  0  0  0  0
 32 30  2  0  0  0  0
 33 34  1  0  0  0  0
 33 30  1  0  0  0  0
 35 36  1  0  0  0  0
 35 34  2  0  0  0  0
 37 35  1  0  0  0  0
 38 37  2  0  0  0  0
 38 39  1  0  0  0  0
 39 33  2  0  0  0  0
M  END
>  <minimizedAffinity>
-5.68222618

$$$$
