
 OpenBabel03242519243D

 38 41  0  0  0  0  0  0  0  0999 V2000
   47.9090   33.8770   42.8830 C   0  0  0  0  0  0  0  0  0  0  0  0
   48.5380   35.1020   42.6400 C   0  0  0  0  0  0  0  0  0  0  0  0
   49.9070   35.1320   42.3080 C   0  0  0  0  0  0  0  0  0  0  0  0
   50.5410   33.9180   42.2460 N   0  0  0  0  0  0  0  0  0  0  0  0
   49.8860   32.7400   42.4910 C   0  0  0  0  0  0  0  0  0  0  0  0
   48.5970   32.7380   42.8010 N   0  0  0  0  0  0  0  0  0  0  0  0
   48.1240   36.1000   42.6670 H   0  0  0  0  0  0  0  0  0  0  0  0
   50.4570   36.0400   42.1090 H   0  0  0  0  0  0  0  0  0  0  0  0
   46.4750   33.9700   43.2270 C   0  0  0  0  0  0  0  0  0  0  0  0
   45.7420   34.9750   42.4590 C   0  0  0  0  0  0  0  0  0  0  0  0
   45.2770   36.1390   43.2560 C   0  0  0  0  0  0  0  0  0  0  0  0
   44.5010   35.7450   44.5070 C   0  0  0  0  0  0  0  0  0  0  0  0
   44.9730   34.4780   45.1530 C   0  0  0  0  0  0  0  0  0  0  0  0
   46.4120   34.1860   44.7490 C   0  0  0  0  0  0  0  0  0  0  0  0
   46.0460   32.9410   43.0960 H   0  0  0  0  0  0  0  0  0  0  0  0
   44.8240   34.5050   42.0080 H   0  0  0  0  0  0  0  0  0  0  0  0
   46.3570   35.3430   41.6380 H   0  0  0  0  0  0  0  0  0  0  0  0
   44.5060   36.6660   42.6200 H   0  0  0  0  0  0  0  0  0  0  0  0
   46.0080   36.9070   43.4980 H   0  0  0  0  0  0  0  0  0  0  0  0
   43.4030   35.6920   44.3270 H   0  0  0  0  0  0  0  0  0  0  0  0
   44.6280   36.5540   45.2730 H   0  0  0  0  0  0  0  0  0  0  0  0
   44.9280   34.4790   46.2410 H   0  0  0  0  0  0  0  0  0  0  0  0
   44.3790   33.6390   44.6870 H   0  0  0  0  0  0  0  0  0  0  0  0
   47.0150   35.0890   45.0270 H   0  0  0  0  0  0  0  0  0  0  0  0
   46.7540   33.2850   45.2700 H   0  0  0  0  0  0  0  0  0  0  0  0
   50.7110   31.5450   42.3900 C   0  0  0  0  0  0  0  0  0  0  0  0
   51.5150   31.4320   41.3100 N   0  0  0  0  0  0  0  0  0  0  0  0
   52.2030   30.2790   41.3780 C   0  0  0  0  0  0  0  0  0  0  0  0
   51.8140   29.6700   42.5230 N   0  0  0  0  0  0  0  0  0  0  0  0
   50.9010   30.4380   43.1470 N   0  0  0  0  0  0  0  0  0  0  0  0
   52.9410   29.8680   40.6770 H   0  0  0  0  0  0  0  0  0  0  0  0
   52.2470   28.4230   43.0560 C   0  0  0  0  0  0  0  0  0  0  0  0
   52.1860   28.1820   44.4140 C   0  0  0  0  0  0  0  0  0  0  0  0
   52.5740   27.0190   45.0380 C   0  0  0  0  0  0  0  0  0  0  0  0
   52.4640   26.9780   46.1300 H   0  0  0  0  0  0  0  0  0  0  0  0
   53.0550   26.0410   44.2510 N   0  0  0  0  0  0  0  0  0  0  0  0
   53.1280   26.2480   42.9150 C   0  0  0  0  0  0  0  0  0  0  0  0
   52.7380   27.4050   42.3230 N   0  0  0  0  0  0  0  0  0  0  0  0
  1  9  1  0  0  0  0
  2  7  1  0  0  0  0
  2  1  2  0  0  0  0
  3  2  1  0  0  0  0
  4  3  2  0  0  0  0
  4  5  1  0  0  0  0
  5  6  2  0  0  0  0
  6  1  1  0  0  0  0
  8  3  1  0  0  0  0
  9 14  1  0  0  0  0
 10  9  1  0  0  0  0
 10 11  1  0  0  0  0
 11 19  1  0  0  0  0
 11 12  1  0  0  0  0
 12 13  1  0  0  0  0
 12 21  1  0  0  0  0
 13 22  1  0  0  0  0
 14 24  1  0  0  0  0
 14 13  1  0  0  0  0
 14 25  1  0  0  0  0
 15  9  1  0  0  0  0
 16 10  1  0  0  0  0
 17 10  1  0  0  0  0
 18 11  1  0  0  0  0
 20 12  1  0  0  0  0
 23 13  1  0  0  0  0
 26  5  1  0  0  0  0
 26 30  2  0  0  0  0
 27 28  2  0  0  0  0
 27 26  1  0  0  0  0
 28 29  1  0  0  0  0
 29 32  1  0  0  0  0
 29 30  1  0  0  0  0
 31 28  1  0  0  0  0
 32 33  1  0  0  0  0
 33 34  2  0  0  0  0
 34 35  1  0  0  0  0
 36 34  1  0  0  0  0
 37 36  2  0  0  0  0
 38 37  1  0  0  0  0
 38 32  2  0  0  0  0
M  END
>  <minimizedAffinity>
-4.22731304

>  <minimizedRMSD>
0.721426249

$$$$
