
 OpenBabel03242515143D

 32 34  0  0  0  0  0  0  0  0999 V2000
   46.8570   33.4030   44.5250 C   0  0  0  0  0  0  0  0  0  0  0  0
   47.7320   34.0220   44.7090 H   0  0  0  0  0  0  0  0  0  0  0  0
   47.1680   32.3320   44.4560 H   0  0  0  0  0  0  0  0  0  0  0  0
   46.1160   33.8060   43.3130 C   0  0  0  0  0  0  0  0  0  0  0  0
   46.5820   34.3040   42.1290 C   0  0  0  0  0  0  0  0  0  0  0  0
   45.5050   34.5240   41.3150 C   0  0  0  0  0  0  0  0  0  0  0  0
   44.4110   34.1680   41.9950 N   0  0  0  0  0  0  0  0  0  0  0  0
   44.7950   33.7320   43.2120 N   0  0  0  0  0  0  0  0  0  0  0  0
   47.6040   34.4910   41.8730 H   0  0  0  0  0  0  0  0  0  0  0  0
   45.4510   34.9070   40.3140 H   0  0  0  0  0  0  0  0  0  0  0  0
   43.0320   34.1890   41.6310 C   0  0  0  0  0  0  0  0  0  0  0  0
   42.4140   35.4350   41.5700 C   0  0  0  0  0  0  0  0  0  0  0  0
   41.0690   35.5290   41.2210 C   0  0  0  0  0  0  0  0  0  0  0  0
   40.6110   36.5000   41.1780 H   0  0  0  0  0  0  0  0  0  0  0  0
   40.3510   34.4200   40.9390 N   0  0  0  0  0  0  0  0  0  0  0  0
   40.9840   33.2220   41.0090 C   0  0  0  0  0  0  0  0  0  0  0  0
   42.2860   33.0860   41.3430 N   0  0  0  0  0  0  0  0  0  0  0  0
   45.9810   33.5130   45.7470 C   0  0  0  0  0  0  0  0  0  0  0  0
   44.9510   33.2270   45.4180 H   0  0  0  0  0  0  0  0  0  0  0  0
   45.9200   34.5530   46.1100 H   0  0  0  0  0  0  0  0  0  0  0  0
   47.7170   31.8260   48.6210 C   0  0  0  0  0  0  0  0  0  0  0  0
   46.9760   30.6180   48.6730 C   0  0  0  0  0  0  0  0  0  0  0  0
   45.9550   30.4610   47.7430 C   0  0  0  0  0  0  0  0  0  0  0  0
   45.7420   31.4650   46.8630 N   0  0  0  0  0  0  0  0  0  0  0  0
   46.4660   32.5990   46.8430 C   0  0  0  0  0  0  0  0  0  0  0  0
   47.4490   32.7700   47.7230 N   0  0  0  0  0  0  0  0  0  0  0  0
   48.5260   32.0070   49.3190 H   0  0  0  0  0  0  0  0  0  0  0  0
   47.2440   29.8970   49.4210 H   0  0  0  0  0  0  0  0  0  0  0  0
   45.2080   29.2110   47.8170 C   0  0  0  0  0  0  0  0  0  0  0  0
   44.6600   29.0740   49.0930 F   0  0  0  0  0  0  0  0  0  0  0  0
   46.1290   28.1870   47.7030 F   0  0  0  0  0  0  0  0  0  0  0  0
   44.1910   29.1300   46.9020 F   0  0  0  0  0  0  0  0  0  0  0  0
  1  2  1  0  0  0  0
  1 18  1  0  0  0  0
  3  1  1  0  0  0  0
  4  1  1  0  0  0  0
  5  4  1  0  0  0  0
  6  7  1  0  0  0  0
  6  5  2  0  0  0  0
  7  8  1  0  0  0  0
  8  4  2  0  0  0  0
  9  5  1  0  0  0  0
 10  6  1  0  0  0  0
 11  7  1  0  0  0  0
 12 11  1  0  0  0  0
 13 12  2  0  0  0  0
 14 13  1  0  0  0  0
 15 16  2  0  0  0  0
 15 13  1  0  0  0  0
 16 17  1  0  0  0  0
 17 11  2  0  0  0  0
 18 20  1  0  0  0  0
 18 25  1  0  0  0  0
 19 18  1  0  0  0  0
 21 22  1  0  0  0  0
 21 27  1  0  0  0  0
 22 28  1  0  0  0  0
 23 29  1  0  0  0  0
 23 22  2  0  0  0  0
 24 23  1  0  0  0  0
 25 24  2  0  0  0  0
 25 26  1  0  0  0  0
 26 21  2  0  0  0  0
 29 30  1  0  0  0  0
 31 29  1  0  0  0  0
 32 29  1  0  0  0  0
M  END
>  <minimizedAffinity>
-5.32906246

>  <minimizedRMSD>
8.68091774

$$$$
