
 OpenBabel03242515483D

 41 44  0  0  1  0  0  0  0  0999 V2000
   35.8900   28.7110   40.5400 C   0  0  0  0  0  0  0  0  0  0  0  0
   36.5880   28.9440   41.7250 C   0  0  0  0  0  0  0  0  0  0  0  0
   37.3200   30.0990   41.9020 C   0  0  0  0  0  0  0  0  0  0  0  0
   37.3820   31.0450   40.9210 C   0  0  0  0  0  0  0  0  0  0  0  0
   36.6960   30.8310   39.7410 C   0  0  0  0  0  0  0  0  0  0  0  0
   35.9620   29.6990   39.5340 C   0  0  0  0  0  0  0  0  0  0  0  0
   36.9320   31.9500   38.9220 O   0  0  0  0  0  0  0  0  0  0  0  0
   37.9400   32.6990   39.4990 C   0  0  1  0  0  0  0  0  0  0  0  0
   38.0410   32.2850   40.8400 O   0  0  0  0  0  0  0  0  0  0  0  0
   35.3000   27.8490   40.3100 H   0  0  0  0  0  0  0  0  0  0  0  0
   37.8240   30.1840   42.8430 H   0  0  0  0  0  0  0  0  0  0  0  0
   35.4420   29.5710   38.5960 H   0  0  0  0  0  0  0  0  0  0  0  0
   37.6340   33.7850   39.4830 H   0  0  0  0  0  0  0  0  0  0  0  0
   39.1560   32.5470   38.7600 N   0  0  0  0  0  0  0  0  0  0  0  0
   39.2560   31.9970   37.8640 H   0  0  0  0  0  0  0  0  0  0  0  0
   40.1740   33.2690   39.4560 C   0  0  0  0  0  0  0  0  0  0  0  0
   41.3190   32.6920   39.9560 C   0  0  0  0  0  3  0  0  0  0  0  0
   42.3240   33.3200   40.6390 C   0  0  0  0  0  0  0  0  0  0  0  0
   43.1930   32.7890   40.9960 H   0  0  0  0  0  0  0  0  0  0  0  0
   42.1130   34.6170   40.8050 N   0  0  0  0  0  0  0  0  0  0  0  0
   41.0450   35.2860   40.3660 C   0  0  0  0  0  3  0  0  0  0  0  0
   40.0720   34.6140   39.6900 N   0  0  0  0  0  0  0  0  0  0  0  0
   36.3980   27.6130   42.9110 S   0  0  0  0  0  0  0  0  0  0  0  0
   37.8830   26.5590   42.8780 C   0  0  0  0  0  0  0  0  0  0  0  0
   37.7460   25.3790   42.2410 C   0  0  0  0  0  0  0  0  0  0  0  0
   38.8990   24.5880   42.2490 C   0  0  0  0  0  0  0  0  0  0  0  0
   40.0400   24.9750   42.8380 N   0  0  0  0  0  0  0  0  0  0  0  0
   40.1160   26.1710   43.4610 C   0  0  0  0  0  0  0  0  0  0  0  0
   39.0240   26.9230   43.4560 N   0  0  0  0  0  0  0  0  0  0  0  0
   38.8670   23.2850   41.6020 N   0  0  0  0  0  0  0  0  0  0  0  0
   39.5630   23.3070   40.8460 H   0  0  0  0  0  0  0  0  0  0  0  0
   38.1350   22.6990   42.1090 H   0  0  0  0  0  0  0  0  0  0  0  0
   36.6510   24.6950   41.4940 C   0  0  0  0  0  0  0  0  0  0  0  0
   35.9790   25.5170   41.1590 H   0  0  0  0  0  0  0  0  0  0  0  0
   36.0340   24.0520   42.1490 H   0  0  0  0  0  0  0  0  0  0  0  0
   37.0090   24.1980   40.5930 H   0  0  0  0  0  0  0  0  0  0  0  0
   41.2400   26.6530   44.0940 O   0  0  0  0  0  0  0  0  0  0  0  0
   42.0680   27.5390   43.3460 C   0  0  0  0  0  0  0  0  0  0  0  0
   42.2060   27.1230   42.0610 F   0  0  0  0  0  0  0  0  0  0  0  0
   41.4750   28.8070   43.4340 F   0  0  0  0  0  0  0  0  0  0  0  0
   43.3280   27.5530   43.9280 F   0  0  0  0  0  0  0  0  0  0  0  0
  1  2  1  0  0  0  0
  2  3  2  0  0  0  0
  2 23  1  0  0  0  0
  3 11  1  0  0  0  0
  4  3  1  0  0  0  0
  5  4  2  0  0  0  0
  6  5  1  0  0  0  0
  6  1  2  0  0  0  0
  7  8  1  0  0  0  0
  7  5  1  0  0  0  0
  8 13  1  6  0  0  0
  8  9  1  0  0  0  0
  9  4  1  0  0  0  0
 10  1  1  0  0  0  0
 12  6  1  0  0  0  0
 14 16  1  0  0  0  0
 14  8  1  0  0  0  0
 15 14  1  0  0  0  0
 16 22  2  0  0  0  0
 16 17  1  0  0  0  0
 17 18  2  0  0  0  0
 18 20  1  0  0  0  0
 18 19  1  0  0  0  0
 21 20  2  0  0  0  0
 22 21  1  0  0  0  0
 24 23  1  0  0  0  0
 24 29  1  0  0  0  0
 25 26  1  0  0  0  0
 25 24  2  0  0  0  0
 26 27  2  0  0  0  0
 27 28  1  0  0  0  0
 28 37  1  0  0  0  0
 29 28  2  0  0  0  0
 30 32  1  0  0  0  0
 30 26  1  0  0  0  0
 31 30  1  0  0  0  0
 33 35  1  0  0  0  0
 33 25  1  0  0  0  0
 34 33  1  0  0  0  0
 36 33  1  0  0  0  0
 38 40  1  0  0  0  0
 38 41  1  0  0  0  0
 38 37  1  0  0  0  0
 39 38  1  0  0  0  0
M  END
>  <minimizedAffinity>
-6.33997726

$$$$

 OpenBabel03242515483D

 41 44  0  0  1  0  0  0  0  0999 V2000
   36.5140   29.8530   41.5880 C   0  0  0  0  0  0  0  0  0  0  0  0
   37.7150   29.6430   42.2650 C   0  0  0  0  0  0  0  0  0  0  0  0
   38.8680   30.2950   41.8830 C   0  0  0  0  0  0  0  0  0  0  0  0
   38.8650   31.1620   40.8290 C   0  0  0  0  0  0  0  0  0  0  0  0
   37.6840   31.3810   40.1470 C   0  0  0  0  0  0  0  0  0  0  0  0
   36.5250   30.7530   40.5010 C   0  0  0  0  0  0  0  0  0  0  0  0
   37.9670   32.3060   39.1250 O   0  0  0  0  0  0  0  0  0  0  0  0
   39.3390   32.4440   39.0410 C   0  0  1  0  0  0  0  0  0  0  0  0
   39.8770   31.9410   40.2390 O   0  0  0  0  0  0  0  0  0  0  0  0
   35.5730   29.3930   41.8070 H   0  0  0  0  0  0  0  0  0  0  0  0
   39.7390   30.0650   42.4610 H   0  0  0  0  0  0  0  0  0  0  0  0
   35.6230   30.9520   39.9400 H   0  0  0  0  0  0  0  0  0  0  0  0
   39.5870   33.5420   38.9710 H   0  0  0  0  0  0  0  0  0  0  0  0
   39.8320   31.7830   37.8710 N   0  0  0  0  0  0  0  0  0  0  0  0
   39.2870   31.0850   37.2940 H   0  0  0  0  0  0  0  0  0  0  0  0
   41.1650   32.2440   37.6470 C   0  0  0  0  0  0  0  0  0  0  0  0
   42.2100   31.4250   37.2820 C   0  0  0  0  0  3  0  0  0  0  0  0
   43.5080   31.7980   37.0650 C   0  0  0  0  0  0  0  0  0  0  0  0
   44.2690   31.0880   36.7790 H   0  0  0  0  0  0  0  0  0  0  0  0
   43.7170   33.0950   37.2380 N   0  0  0  0  0  0  0  0  0  0  0  0
   42.7850   33.9840   37.5880 C   0  0  0  0  0  3  0  0  0  0  0  0
   41.5070   33.5610   37.7930 N   0  0  0  0  0  0  0  0  0  0  0  0
   37.5490   28.4850   43.6240 S   0  0  0  0  0  0  0  0  0  0  0  0
   37.9710   26.8120   43.0460 C   0  0  0  0  0  0  0  0  0  0  0  0
   39.2490   26.4300   43.2500 C   0  0  0  0  0  0  0  0  0  0  0  0
   39.5430   25.1460   42.7780 C   0  0  0  0  0  0  0  0  0  0  0  0
   38.6310   24.3670   42.1790 N   0  0  0  0  0  0  0  0  0  0  0  0
   37.3670   24.8050   42.0040 C   0  0  0  0  0  0  0  0  0  0  0  0
   37.0840   26.0220   42.4490 N   0  0  0  0  0  0  0  0  0  0  0  0
   40.8960   24.6300   42.9310 N   0  0  0  0  0  0  0  0  0  0  0  0
   40.8320   23.7920   43.5220 H   0  0  0  0  0  0  0  0  0  0  0  0
   41.5430   25.2750   42.3810 H   0  0  0  0  0  0  0  0  0  0  0  0
   40.4520   27.0390   43.8840 C   0  0  0  0  0  0  0  0  0  0  0  0
   40.0460   27.8010   44.5880 H   0  0  0  0  0  0  0  0  0  0  0  0
   41.0690   27.6020   43.1600 H   0  0  0  0  0  0  0  0  0  0  0  0
   41.0140   26.3250   44.4860 H   0  0  0  0  0  0  0  0  0  0  0  0
   36.3640   24.0790   41.3990 O   0  0  0  0  0  0  0  0  0  0  0  0
   36.4440   23.9280   39.9850 C   0  0  0  0  0  0  0  0  0  0  0  0
   37.2370   22.8800   39.6420 F   0  0  0  0  0  0  0  0  0  0  0  0
   35.1270   23.7710   39.5270 F   0  0  0  0  0  0  0  0  0  0  0  0
   37.0060   25.0810   39.4550 F   0  0  0  0  0  0  0  0  0  0  0  0
  1 10  1  0  0  0  0
  1  2  1  0  0  0  0
  2 23  1  0  0  0  0
  3  2  2  0  0  0  0
  3 11  1  0  0  0  0
  4  3  1  0  0  0  0
  5  6  1  0  0  0  0
  5  4  2  0  0  0  0
  6  1  2  0  0  0  0
  7  5  1  0  0  0  0
  8 13  1  6  0  0  0
  8  7  1  0  0  0  0
  8  9  1  0  0  0  0
  9  4  1  0  0  0  0
 12  6  1  0  0  0  0
 14  8  1  0  0  0  0
 15 14  1  0  0  0  0
 16 22  1  0  0  0  0
 16 14  1  0  0  0  0
 17 16  2  0  0  0  0
 18 20  2  0  0  0  0
 18 17  1  0  0  0  0
 19 18  1  0  0  0  0
 20 21  1  0  0  0  0
 21 22  2  0  0  0  0
 24 25  1  0  0  0  0
 24 23  1  0  0  0  0
 25 33  1  0  0  0  0
 26 30  1  0  0  0  0
 26 25  2  0  0  0  0
 27 26  1  0  0  0  0
 28 27  2  0  0  0  0
 28 29  1  0  0  0  0
 29 24  2  0  0  0  0
 30 31  1  0  0  0  0
 32 30  1  0  0  0  0
 33 36  1  0  0  0  0
 33 34  1  0  0  0  0
 35 33  1  0  0  0  0
 37 28  1  0  0  0  0
 38 37  1  0  0  0  0
 39 38  1  0  0  0  0
 40 38  1  0  0  0  0
 41 38  1  0  0  0  0
M  END
>  <minimizedAffinity>
-6.32502413

$$$$

 OpenBabel03242515483D

 41 44  0  0  1  0  0  0  0  0999 V2000
   42.0370   29.6520   42.8280 C   0  0  0  0  0  0  0  0  0  0  0  0
   40.7530   29.9170   42.3510 C   0  0  0  0  0  0  0  0  0  0  0  0
   39.7410   28.9910   42.4830 C   0  0  0  0  0  0  0  0  0  0  0  0
   39.9690   27.7870   43.0850 C   0  0  0  0  0  0  0  0  0  0  0  0
   41.2340   27.5090   43.5640 C   0  0  0  0  0  0  0  0  0  0  0  0
   42.2580   28.4040   43.4490 C   0  0  0  0  0  0  0  0  0  0  0  0
   41.1840   26.2200   44.1270 O   0  0  0  0  0  0  0  0  0  0  0  0
   39.9810   25.6420   43.7670 C   0  0  1  0  0  0  0  0  0  0  0  0
   39.1360   26.6840   43.3440 O   0  0  0  0  0  0  0  0  0  0  0  0
   42.8830   30.3040   42.7680 H   0  0  0  0  0  0  0  0  0  0  0  0
   38.7940   29.2840   42.0820 H   0  0  0  0  0  0  0  0  0  0  0  0
   43.2330   28.1450   43.8370 H   0  0  0  0  0  0  0  0  0  0  0  0
   39.5260   25.1610   44.6810 H   0  0  0  0  0  0  0  0  0  0  0  0
   40.1940   24.6370   42.7710 N   0  0  0  0  0  0  0  0  0  0  0  0
   41.0400   24.0080   42.7140 H   0  0  0  0  0  0  0  0  0  0  0  0
   39.0640   24.6550   41.8960 C   0  0  0  0  0  0  0  0  0  0  0  0
   39.0960   25.1460   40.6100 C   0  0  0  0  0  3  0  0  0  0  0  0
   38.0520   25.2040   39.7270 C   0  0  0  0  0  0  0  0  0  0  0  0
   38.1650   25.6050   38.7320 H   0  0  0  0  0  0  0  0  0  0  0  0
   36.9210   24.7230   40.2220 N   0  0  0  0  0  0  0  0  0  0  0  0
   36.7690   24.2210   41.4490 C   0  0  0  0  0  3  0  0  0  0  0  0
   37.8400   24.1860   42.2900 N   0  0  0  0  0  0  0  0  0  0  0  0
   40.6180   31.5390   41.5960 S   0  0  0  0  0  0  0  0  0  0  0  0
   39.3180   31.5050   40.3220 C   0  0  0  0  0  0  0  0  0  0  0  0
   39.7110   31.8530   39.0800 C   0  0  0  0  0  0  0  0  0  0  0  0
   38.6840   31.8330   38.1300 C   0  0  0  0  0  0  0  0  0  0  0  0
   37.4230   31.4930   38.4330 N   0  0  0  0  0  0  0  0  0  0  0  0
   37.0910   31.1520   39.6960 C   0  0  0  0  0  0  0  0  0  0  0  0
   38.0620   31.1710   40.5990 N   0  0  0  0  0  0  0  0  0  0  0  0
   38.9860   32.2040   36.7550 N   0  0  0  0  0  0  0  0  0  0  0  0
   38.7840   31.3830   36.1710 H   0  0  0  0  0  0  0  0  0  0  0  0
   39.3210   33.2160   36.7680 H   0  0  0  0  0  0  0  0  0  0  0  0
   41.0000   32.2480   38.4440 C   0  0  0  0  0  0  0  0  0  0  0  0
   41.7860   31.8210   39.1080 H   0  0  0  0  0  0  0  0  0  0  0  0
   41.1590   33.3420   38.4580 H   0  0  0  0  0  0  0  0  0  0  0  0
   41.1380   31.7910   37.4630 H   0  0  0  0  0  0  0  0  0  0  0  0
   35.8250   30.7910   40.1020 O   0  0  0  0  0  0  0  0  0  0  0  0
   35.5790   29.3990   40.2730 C   0  0  0  0  0  0  0  0  0  0  0  0
   34.2560   29.1120   40.1670 F   0  0  0  0  0  0  0  0  0  0  0  0
   36.3460   28.7370   39.3030 F   0  0  0  0  0  0  0  0  0  0  0  0
   35.9940   29.0370   41.5470 F   0  0  0  0  0  0  0  0  0  0  0  0
  1  6  1  0  0  0  0
  2  3  1  0  0  0  0
  2  1  2  0  0  0  0
  3  4  2  0  0  0  0
  4  9  1  0  0  0  0
  4  5  1  0  0  0  0
  5  7  1  0  0  0  0
  6  5  2  0  0  0  0
  6 12  1  0  0  0  0
  8  7  1  0  0  0  0
  8 13  1  1  0  0  0
  9  8  1  0  0  0  0
 10  1  1  0  0  0  0
 11  3  1  0  0  0  0
 14  8  1  0  0  0  0
 15 14  1  0  0  0  0
 16 22  1  0  0  0  0
 16 14  1  0  0  0  0
 17 16  2  0  0  0  0
 18 20  2  0  0  0  0
 18 17  1  0  0  0  0
 19 18  1  0  0  0  0
 20 21  1  0  0  0  0
 21 22  2  0  0  0  0
 23  2  1  0  0  0  0
 24 29  1  0  0  0  0
 24 23  1  0  0  0  0
 25 24  2  0  0  0  0
 26 27  2  0  0  0  0
 26 25  1  0  0  0  0
 27 28  1  0  0  0  0
 28 37  1  0  0  0  0
 28 29  2  0  0  0  0
 30 32  1  0  0  0  0
 30 26  1  0  0  0  0
 31 30  1  0  0  0  0
 33 35  1  0  0  0  0
 33 25  1  0  0  0  0
 33 34  1  0  0  0  0
 36 33  1  0  0  0  0
 37 38  1  0  0  0  0
 38 41  1  0  0  0  0
 39 38  1  0  0  0  0
 40 38  1  0  0  0  0
M  END
>  <minimizedAffinity>
-6.28750324

$$$$

 OpenBabel03242515483D

 41 44  0  0  1  0  0  0  0  0999 V2000
   36.3210   28.6660   37.1880 C   0  0  0  0  0  0  0  0  0  0  0  0
   37.3390   27.9160   37.7770 C   0  0  0  0  0  0  0  0  0  0  0  0
   38.4870   28.5200   38.2440 C   0  0  0  0  0  0  0  0  0  0  0  0
   38.6580   29.8700   38.1400 C   0  0  0  0  0  0  0  0  0  0  0  0
   37.6590   30.6280   37.5610 C   0  0  0  0  0  0  0  0  0  0  0  0
   36.5110   30.0610   37.0890 C   0  0  0  0  0  0  0  0  0  0  0  0
   38.0950   31.9660   37.5860 O   0  0  0  0  0  0  0  0  0  0  0  0
   39.4290   31.9760   37.9440 C   0  0  1  0  0  0  0  0  0  0  0  0
   39.7070   30.7250   38.5240 O   0  0  0  0  0  0  0  0  0  0  0  0
   35.4000   28.2880   36.7960 H   0  0  0  0  0  0  0  0  0  0  0  0
   39.2110   27.8610   38.6750 H   0  0  0  0  0  0  0  0  0  0  0  0
   35.7560   30.6910   36.6420 H   0  0  0  0  0  0  0  0  0  0  0  0
   39.5860   32.7740   38.7250 H   0  0  0  0  0  0  0  0  0  0  0  0
   40.2450   32.2730   36.8060 N   0  0  0  0  0  0  0  0  0  0  0  0
   39.9250   32.2210   35.8000 H   0  0  0  0  0  0  0  0  0  0  0  0
   41.5380   32.6420   37.2890 C   0  0  0  0  0  0  0  0  0  0  0  0
   41.7710   33.7280   38.1040 C   0  0  0  0  0  3  0  0  0  0  0  0
   42.9800   34.1430   38.5910 C   0  0  0  0  0  0  0  0  0  0  0  0
   43.0750   35.0080   39.2290 H   0  0  0  0  0  0  0  0  0  0  0  0
   43.9910   33.3800   38.2030 N   0  0  0  0  0  0  0  0  0  0  0  0
   43.8880   32.3050   37.4190 C   0  0  0  0  0  3  0  0  0  0  0  0
   42.6610   31.9330   36.9590 N   0  0  0  0  0  0  0  0  0  0  0  0
   36.9570   26.1650   37.8420 S   0  0  0  0  0  0  0  0  0  0  0  0
   37.2400   25.5480   39.5320 C   0  0  0  0  0  0  0  0  0  0  0  0
   37.6830   24.2780   39.6220 C   0  0  0  0  0  0  0  0  0  0  0  0
   37.8740   23.8310   40.9330 C   0  0  0  0  0  0  0  0  0  0  0  0
   37.6380   24.6030   42.0040 N   0  0  0  0  0  0  0  0  0  0  0  0
   37.1960   25.8690   41.8500 C   0  0  0  0  0  0  0  0  0  0  0  0
   37.0130   26.2960   40.6080 N   0  0  0  0  0  0  0  0  0  0  0  0
   38.3380   22.4690   41.1560 N   0  0  0  0  0  0  0  0  0  0  0  0
   39.2420   22.5360   41.6410 H   0  0  0  0  0  0  0  0  0  0  0  0
   37.5990   21.8150   40.7520 H   0  0  0  0  0  0  0  0  0  0  0  0
   38.0470   23.2080   38.6500 C   0  0  0  0  0  0  0  0  0  0  0  0
   38.2950   23.7510   37.7090 H   0  0  0  0  0  0  0  0  0  0  0  0
   37.1900   22.5560   38.4010 H   0  0  0  0  0  0  0  0  0  0  0  0
   38.9470   22.6660   38.9430 H   0  0  0  0  0  0  0  0  0  0  0  0
   36.9250   26.7350   42.8860 O   0  0  0  0  0  0  0  0  0  0  0  0
   38.0100   27.5270   43.3610 C   0  0  0  0  0  0  0  0  0  0  0  0
   38.7100   28.0750   42.3350 F   0  0  0  0  0  0  0  0  0  0  0  0
   37.4520   28.4990   44.2050 F   0  0  0  0  0  0  0  0  0  0  0  0
   38.8700   26.7040   44.0750 F   0  0  0  0  0  0  0  0  0  0  0  0
  1  2  1  0  0  0  0
  2 23  1  0  0  0  0
  2  3  2  0  0  0  0
  3 11  1  0  0  0  0
  4  3  1  0  0  0  0
  4  9  1  0  0  0  0
  5  7  1  0  0  0  0
  5  4  2  0  0  0  0
  6  1  2  0  0  0  0
  6  5  1  0  0  0  0
  7  8  1  0  0  0  0
  8  9  1  0  0  0  0
  8 13  1  1  0  0  0
 10  1  1  0  0  0  0
 12  6  1  0  0  0  0
 14 16  1  0  0  0  0
 14  8  1  0  0  0  0
 15 14  1  0  0  0  0
 16 17  1  0  0  0  0
 17 18  2  0  0  0  0
 18 19  1  0  0  0  0
 20 18  1  0  0  0  0
 21 20  2  0  0  0  0
 22 16  2  0  0  0  0
 22 21  1  0  0  0  0
 23 24  1  0  0  0  0
 24 25  2  0  0  0  0
 24 29  1  0  0  0  0
 25 26  1  0  0  0  0
 26 30  1  0  0  0  0
 26 27  2  0  0  0  0
 28 27  1  0  0  0  0
 28 37  1  0  0  0  0
 29 28  2  0  0  0  0
 30 31  1  0  0  0  0
 32 30  1  0  0  0  0
 33 36  1  0  0  0  0
 33 25  1  0  0  0  0
 34 33  1  0  0  0  0
 35 33  1  0  0  0  0
 37 38  1  0  0  0  0
 38 41  1  0  0  0  0
 38 40  1  0  0  0  0
 39 38  1  0  0  0  0
M  END
>  <minimizedAffinity>
-6.25286245

$$$$

 OpenBabel03242515483D

 41 44  0  0  1  0  0  0  0  0999 V2000
   36.5190   30.0760   37.9560 C   0  0  0  0  0  0  0  0  0  0  0  0
   37.9060   30.1310   38.0890 C   0  0  0  0  0  0  0  0  0  0  0  0
   38.5970   29.1300   38.7370 C   0  0  0  0  0  0  0  0  0  0  0  0
   37.9410   28.0580   39.2680 C   0  0  0  0  0  0  0  0  0  0  0  0
   36.5670   27.9870   39.1450 C   0  0  0  0  0  0  0  0  0  0  0  0
   35.8530   28.9610   38.5090 C   0  0  0  0  0  0  0  0  0  0  0  0
   36.1610   26.7950   39.7730 O   0  0  0  0  0  0  0  0  0  0  0  0
   37.2390   26.2910   40.4740 C   0  0  1  0  0  0  0  0  0  0  0  0
   38.3890   26.9220   39.9660 O   0  0  0  0  0  0  0  0  0  0  0  0
   35.8980   30.8030   37.4750 H   0  0  0  0  0  0  0  0  0  0  0  0
   39.6580   29.2640   38.7920 H   0  0  0  0  0  0  0  0  0  0  0  0
   34.7790   28.8670   38.4360 H   0  0  0  0  0  0  0  0  0  0  0  0
   37.3180   25.1850   40.2670 H   0  0  0  0  0  0  0  0  0  0  0  0
   37.0510   26.4880   41.8790 N   0  0  0  0  0  0  0  0  0  0  0  0
   36.1680   26.8540   42.3280 H   0  0  0  0  0  0  0  0  0  0  0  0
   38.2620   26.1000   42.5320 C   0  0  0  0  0  0  0  0  0  0  0  0
   39.0190   26.9460   43.3110 C   0  0  0  0  0  3  0  0  0  0  0  0
   40.1890   26.6440   43.9520 C   0  0  0  0  0  0  0  0  0  0  0  0
   40.7210   27.3710   44.5470 H   0  0  0  0  0  0  0  0  0  0  0  0
   40.5810   25.3930   43.7640 N   0  0  0  0  0  0  0  0  0  0  0  0
   39.9320   24.4840   43.0340 C   0  0  0  0  0  3  0  0  0  0  0  0
   38.7700   24.8350   42.4160 N   0  0  0  0  0  0  0  0  0  0  0  0
   38.6150   31.5950   37.3330 S   0  0  0  0  0  0  0  0  0  0  0  0
   39.5420   32.5330   38.5890 C   0  0  0  0  0  0  0  0  0  0  0  0
   38.7930   33.1520   39.5240 C   0  0  0  0  0  0  0  0  0  0  0  0
   39.5360   33.8760   40.4620 C   0  0  0  0  0  0  0  0  0  0  0  0
   40.8750   33.9440   40.4310 N   0  0  0  0  0  0  0  0  0  0  0  0
   41.5700   33.3010   39.4690 C   0  0  0  0  0  0  0  0  0  0  0  0
   40.8690   32.6140   38.5780 N   0  0  0  0  0  0  0  0  0  0  0  0
   38.8350   34.5990   41.5140 N   0  0  0  0  0  0  0  0  0  0  0  0
   39.1420   34.1990   42.4090 H   0  0  0  0  0  0  0  0  0  0  0  0
   38.2170   35.3260   41.0380 H   0  0  0  0  0  0  0  0  0  0  0  0
   37.3370   33.2460   39.8290 C   0  0  0  0  0  0  0  0  0  0  0  0
   36.8890   32.3410   39.3590 H   0  0  0  0  0  0  0  0  0  0  0  0
   36.8580   34.1090   39.3300 H   0  0  0  0  0  0  0  0  0  0  0  0
   37.1290   33.1790   40.8970 H   0  0  0  0  0  0  0  0  0  0  0  0
   42.9420   33.3140   39.3550 O   0  0  0  0  0  0  0  0  0  0  0  0
   43.4860   33.9880   38.2240 C   0  0  0  0  0  0  0  0  0  0  0  0
   43.6540   33.1420   37.1750 F   0  0  0  0  0  0  0  0  0  0  0  0
   42.6050   35.0380   37.9250 F   0  0  0  0  0  0  0  0  0  0  0  0
   44.7330   34.4880   38.5730 F   0  0  0  0  0  0  0  0  0  0  0  0
  1  2  2  0  0  0  0
  1  6  1  0  0  0  0
  2  3  1  0  0  0  0
  3 11  1  0  0  0  0
  3  4  2  0  0  0  0
  4  9  1  0  0  0  0
  5  4  1  0  0  0  0
  5  7  1  0  0  0  0
  6  5  2  0  0  0  0
  7  8  1  0  0  0  0
  8 13  1  6  0  0  0
  8 14  1  0  0  0  0
  9  8  1  0  0  0  0
 10  1  1  0  0  0  0
 12  6  1  0  0  0  0
 14 15  1  0  0  0  0
 14 16  1  0  0  0  0
 16 17  1  0  0  0  0
 17 18  2  0  0  0  0
 18 19  1  0  0  0  0
 20 18  1  0  0  0  0
 21 20  2  0  0  0  0
 22 16  2  0  0  0  0
 22 21  1  0  0  0  0
 23  2  1  0  0  0  0
 23 24  1  0  0  0  0
 24 25  1  0  0  0  0
 25 33  1  0  0  0  0
 25 26  2  0  0  0  0
 26 30  1  0  0  0  0
 27 26  1  0  0  0  0
 28 27  2  0  0  0  0
 29 24  2  0  0  0  0
 29 28  1  0  0  0  0
 30 31  1  0  0  0  0
 32 30  1  0  0  0  0
 33 36  1  0  0  0  0
 34 33  1  0  0  0  0
 35 33  1  0  0  0  0
 37 28  1  0  0  0  0
 38 41  1  0  0  0  0
 38 37  1  0  0  0  0
 39 38  1  0  0  0  0
 40 38  1  0  0  0  0
M  END
>  <minimizedAffinity>
-6.23875523

$$$$

 OpenBabel03242515483D

 41 44  0  0  1  0  0  0  0  0999 V2000
   35.9720   28.5430   40.6700 C   0  0  0  0  0  0  0  0  0  0  0  0
   36.6860   28.8220   41.8350 C   0  0  0  0  0  0  0  0  0  0  0  0
   37.3660   30.0120   41.9830 C   0  0  0  0  0  0  0  0  0  0  0  0
   37.3600   30.9490   40.9910 C   0  0  0  0  0  0  0  0  0  0  0  0
   36.6570   30.6890   39.8300 C   0  0  0  0  0  0  0  0  0  0  0  0
   35.9740   29.5210   39.6530 C   0  0  0  0  0  0  0  0  0  0  0  0
   36.8200   31.8090   38.9940 O   0  0  0  0  0  0  0  0  0  0  0  0
   37.8040   32.6120   39.5390 C   0  0  1  0  0  0  0  0  0  0  0  0
   37.9570   32.2180   40.8810 O   0  0  0  0  0  0  0  0  0  0  0  0
   35.4200   27.6510   40.4630 H   0  0  0  0  0  0  0  0  0  0  0  0
   37.8870   30.1320   42.9100 H   0  0  0  0  0  0  0  0  0  0  0  0
   35.4380   29.3580   38.7280 H   0  0  0  0  0  0  0  0  0  0  0  0
   37.4470   33.6820   39.5190 H   0  0  0  0  0  0  0  0  0  0  0  0
   39.0080   32.5100   38.7720 N   0  0  0  0  0  0  0  0  0  0  0  0
   39.1070   31.9760   37.8660 H   0  0  0  0  0  0  0  0  0  0  0  0
   40.0170   33.2540   39.4580 C   0  0  0  0  0  0  0  0  0  0  0  0
   41.1880   32.7050   39.9300 C   0  0  0  0  0  3  0  0  0  0  0  0
   42.1860   33.3560   40.6020 C   0  0  0  0  0  0  0  0  0  0  0  0
   43.0770   32.8470   40.9380 H   0  0  0  0  0  0  0  0  0  0  0  0
   41.9410   34.6450   40.7860 N   0  0  0  0  0  0  0  0  0  0  0  0
   40.8460   35.2860   40.3730 C   0  0  0  0  0  3  0  0  0  0  0  0
   39.8810   34.5930   39.7080 N   0  0  0  0  0  0  0  0  0  0  0  0
   36.5880   27.4970   43.0390 S   0  0  0  0  0  0  0  0  0  0  0  0
   37.6470   26.1160   42.5030 C   0  0  0  0  0  0  0  0  0  0  0  0
   38.9610   26.2480   42.7780 C   0  0  0  0  0  0  0  0  0  0  0  0
   39.7460   25.1780   42.3380 C   0  0  0  0  0  0  0  0  0  0  0  0
   39.2330   24.1150   41.7010 N   0  0  0  0  0  0  0  0  0  0  0  0
   37.9080   24.0390   41.4560 C   0  0  0  0  0  0  0  0  0  0  0  0
   37.1600   25.0530   41.8710 N   0  0  0  0  0  0  0  0  0  0  0  0
   41.1830   25.2150   42.5670 N   0  0  0  0  0  0  0  0  0  0  0  0
   41.4130   24.4110   43.1640 H   0  0  0  0  0  0  0  0  0  0  0  0
   41.5640   26.0620   42.0430 H   0  0  0  0  0  0  0  0  0  0  0  0
   39.8060   27.2650   43.4660 C   0  0  0  0  0  0  0  0  0  0  0  0
   39.1040   27.8080   44.1400 H   0  0  0  0  0  0  0  0  0  0  0  0
   40.1990   28.0270   42.7680 H   0  0  0  0  0  0  0  0  0  0  0  0
   40.5640   26.8130   44.1050 H   0  0  0  0  0  0  0  0  0  0  0  0
   37.2910   22.9920   40.8090 O   0  0  0  0  0  0  0  0  0  0  0  0
   36.7540   23.2610   39.5170 C   0  0  0  0  0  0  0  0  0  0  0  0
   35.4770   23.7170   39.5960 F   0  0  0  0  0  0  0  0  0  0  0  0
   37.6140   24.1910   38.9150 F   0  0  0  0  0  0  0  0  0  0  0  0
   36.7410   22.0760   38.7950 F   0  0  0  0  0  0  0  0  0  0  0  0
  1  2  1  0  0  0  0
  2  3  2  0  0  0  0
  2 23  1  0  0  0  0
  3 11  1  0  0  0  0
  4  3  1  0  0  0  0
  5  4  2  0  0  0  0
  6  5  1  0  0  0  0
  6  1  2  0  0  0  0
  7  8  1  0  0  0  0
  7  5  1  0  0  0  0
  8 13  1  6  0  0  0
  8  9  1  0  0  0  0
  9  4  1  0  0  0  0
 10  1  1  0  0  0  0
 12  6  1  0  0  0  0
 14 16  1  0  0  0  0
 14  8  1  0  0  0  0
 15 14  1  0  0  0  0
 16 22  2  0  0  0  0
 16 17  1  0  0  0  0
 17 18  2  0  0  0  0
 18 20  1  0  0  0  0
 18 19  1  0  0  0  0
 21 20  2  0  0  0  0
 22 21  1  0  0  0  0
 24 25  1  0  0  0  0
 24 23  1  0  0  0  0
 25 33  1  0  0  0  0
 26 30  1  0  0  0  0
 26 25  2  0  0  0  0
 27 26  1  0  0  0  0
 28 27  2  0  0  0  0
 28 29  1  0  0  0  0
 29 24  2  0  0  0  0
 30 31  1  0  0  0  0
 32 30  1  0  0  0  0
 33 36  1  0  0  0  0
 33 34  1  0  0  0  0
 35 33  1  0  0  0  0
 37 28  1  0  0  0  0
 38 39  1  0  0  0  0
 38 37  1  0  0  0  0
 40 38  1  0  0  0  0
 41 38  1  0  0  0  0
M  END
>  <minimizedAffinity>
-6.23691177

$$$$

 OpenBabel03242515483D

 41 44  0  0  1  0  0  0  0  0999 V2000
   36.0860   29.3010   40.3630 C   0  0  0  0  0  0  0  0  0  0  0  0
   37.1130   29.2210   41.3030 C   0  0  0  0  0  0  0  0  0  0  0  0
   38.2740   29.9490   41.1490 C   0  0  0  0  0  0  0  0  0  0  0  0
   38.4490   30.7660   40.0710 C   0  0  0  0  0  0  0  0  0  0  0  0
   37.4410   30.8580   39.1300 C   0  0  0  0  0  0  0  0  0  0  0  0
   36.2800   30.1510   39.2530 C   0  0  0  0  0  0  0  0  0  0  0  0
   37.8820   31.7580   38.1430 O   0  0  0  0  0  0  0  0  0  0  0  0
   39.2240   32.0060   38.3590 C   0  0  1  0  0  0  0  0  0  0  0  0
   39.5100   31.6010   39.6760 O   0  0  0  0  0  0  0  0  0  0  0  0
   35.1550   28.7740   40.3950 H   0  0  0  0  0  0  0  0  0  0  0  0
   39.0040   29.8180   41.9200 H   0  0  0  0  0  0  0  0  0  0  0  0
   35.5170   30.2500   38.4940 H   0  0  0  0  0  0  0  0  0  0  0  0
   39.4020   33.1170   38.2800 H   0  0  0  0  0  0  0  0  0  0  0  0
   40.0160   31.3380   37.3710 N   0  0  0  0  0  0  0  0  0  0  0  0
   39.6770   30.5520   36.7510 H   0  0  0  0  0  0  0  0  0  0  0  0
   41.3160   31.9310   37.3900 C   0  0  0  0  0  0  0  0  0  0  0  0
   42.4890   31.2100   37.3810 C   0  0  0  0  0  3  0  0  0  0  0  0
   43.7610   31.7110   37.4100 C   0  0  0  0  0  0  0  0  0  0  0  0
   44.6300   31.0720   37.3980 H   0  0  0  0  0  0  0  0  0  0  0  0
   43.8010   33.0350   37.4510 N   0  0  0  0  0  0  0  0  0  0  0  0
   42.7350   33.8370   37.4630 C   0  0  0  0  0  3  0  0  0  0  0  0
   41.4890   33.2880   37.4330 N   0  0  0  0  0  0  0  0  0  0  0  0
   36.7250   28.1130   42.6580 S   0  0  0  0  0  0  0  0  0  0  0  0
   38.1120   26.9610   42.9110 C   0  0  0  0  0  0  0  0  0  0  0  0
   37.9450   25.7250   42.3970 C   0  0  0  0  0  0  0  0  0  0  0  0
   39.0220   24.8620   42.6240 C   0  0  0  0  0  0  0  0  0  0  0  0
   40.1220   25.2350   43.2930 N   0  0  0  0  0  0  0  0  0  0  0  0
   40.2320   26.4880   43.7840 C   0  0  0  0  0  0  0  0  0  0  0  0
   39.2130   27.3090   43.5720 N   0  0  0  0  0  0  0  0  0  0  0  0
   38.9500   23.4960   42.1260 N   0  0  0  0  0  0  0  0  0  0  0  0
   39.7210   23.3790   41.4570 H   0  0  0  0  0  0  0  0  0  0  0  0
   38.1220   23.0280   42.6090 H   0  0  0  0  0  0  0  0  0  0  0  0
   36.8830   25.0360   41.6120 C   0  0  0  0  0  0  0  0  0  0  0  0
   36.3190   25.8580   41.1130 H   0  0  0  0  0  0  0  0  0  0  0  0
   36.1480   24.5210   42.2580 H   0  0  0  0  0  0  0  0  0  0  0  0
   37.2900   24.4110   40.8170 H   0  0  0  0  0  0  0  0  0  0  0  0
   41.3200   26.9610   44.4840 O   0  0  0  0  0  0  0  0  0  0  0  0
   42.2950   27.6870   43.7410 C   0  0  0  0  0  0  0  0  0  0  0  0
   41.8790   28.9520   43.4780 F   0  0  0  0  0  0  0  0  0  0  0  0
   43.4740   27.6610   44.5000 F   0  0  0  0  0  0  0  0  0  0  0  0
   42.4870   27.0390   42.5280 F   0  0  0  0  0  0  0  0  0  0  0  0
  1 10  1  0  0  0  0
  1  2  1  0  0  0  0
  2 23  1  0  0  0  0
  3  2  2  0  0  0  0
  3 11  1  0  0  0  0
  4  3  1  0  0  0  0
  5  6  1  0  0  0  0
  5  4  2  0  0  0  0
  6  1  2  0  0  0  0
  7  8  1  0  0  0  0
  7  5  1  0  0  0  0
  8 13  1  6  0  0  0
  8  9  1  0  0  0  0
  9  4  1  0  0  0  0
 12  6  1  0  0  0  0
 14 16  1  0  0  0  0
 14  8  1  0  0  0  0
 15 14  1  0  0  0  0
 16 22  1  0  0  0  0
 17 16  2  0  0  0  0
 17 18  1  0  0  0  0
 18 20  2  0  0  0  0
 19 18  1  0  0  0  0
 20 21  1  0  0  0  0
 22 21  2  0  0  0  0
 23 24  1  0  0  0  0
 24 29  1  0  0  0  0
 25 26  1  0  0  0  0
 25 24  2  0  0  0  0
 26 27  2  0  0  0  0
 27 28  1  0  0  0  0
 28 37  1  0  0  0  0
 29 28  2  0  0  0  0
 30 32  1  0  0  0  0
 30 26  1  0  0  0  0
 31 30  1  0  0  0  0
 33 35  1  0  0  0  0
 33 25  1  0  0  0  0
 34 33  1  0  0  0  0
 36 33  1  0  0  0  0
 38 37  1  0  0  0  0
 38 40  1  0  0  0  0
 39 38  1  0  0  0  0
 41 38  1  0  0  0  0
M  END
>  <minimizedAffinity>
-6.13610458

$$$$

 OpenBabel03242515483D

 41 44  0  0  1  0  0  0  0  0999 V2000
   34.0640   28.7940   35.8940 C   0  0  0  0  0  0  0  0  0  0  0  0
   33.2130   28.7560   36.9990 C   0  0  0  0  0  0  0  0  0  0  0  0
   33.6910   28.9890   38.2710 C   0  0  0  0  0  0  0  0  0  0  0  0
   35.0100   29.2640   38.4820 C   0  0  0  0  0  0  0  0  0  0  0  0
   35.8670   29.3070   37.3990 C   0  0  0  0  0  0  0  0  0  0  0  0
   35.4260   29.0800   36.1280 C   0  0  0  0  0  0  0  0  0  0  0  0
   37.1470   29.6070   37.9010 O   0  0  0  0  0  0  0  0  0  0  0  0
   37.1030   29.4980   39.2780 C   0  0  1  0  0  0  0  0  0  0  0  0
   35.7470   29.5340   39.6500 O   0  0  0  0  0  0  0  0  0  0  0  0
   33.7880   28.6230   34.8750 H   0  0  0  0  0  0  0  0  0  0  0  0
   32.9620   28.9340   39.0530 H   0  0  0  0  0  0  0  0  0  0  0  0
   36.1300   29.1220   35.3090 H   0  0  0  0  0  0  0  0  0  0  0  0
   37.6210   30.3940   39.7260 H   0  0  0  0  0  0  0  0  0  0  0  0
   37.7810   28.3100   39.7010 N   0  0  0  0  0  0  0  0  0  0  0  0
   38.2650   27.6260   39.0590 H   0  0  0  0  0  0  0  0  0  0  0  0
   37.6740   28.2400   41.1250 C   0  0  0  0  0  0  0  0  0  0  0  0
   36.9640   27.2700   41.7950 C   0  0  0  0  0  3  0  0  0  0  0  0
   36.8120   27.1510   43.1490 C   0  0  0  0  0  0  0  0  0  0  0  0
   36.2360   26.3550   43.5940 H   0  0  0  0  0  0  0  0  0  0  0  0
   37.4370   28.1000   43.8310 N   0  0  0  0  0  0  0  0  0  0  0  0
   38.1550   29.0880   43.2940 C   0  0  0  0  0  3  0  0  0  0  0  0
   38.2760   29.1610   41.9390 N   0  0  0  0  0  0  0  0  0  0  0  0
   31.5150   28.3900   36.5510 S   0  0  0  0  0  0  0  0  0  0  0  0
   30.5370   29.9240   36.5930 C   0  0  0  0  0  0  0  0  0  0  0  0
   30.1110   30.3110   37.8120 C   0  0  0  0  0  0  0  0  0  0  0  0
   29.3480   31.4840   37.8060 C   0  0  0  0  0  0  0  0  0  0  0  0
   29.0700   32.1610   36.6830 N   0  0  0  0  0  0  0  0  0  0  0  0
   29.5250   31.7240   35.4900 C   0  0  0  0  0  0  0  0  0  0  0  0
   30.2480   30.6120   35.4920 N   0  0  0  0  0  0  0  0  0  0  0  0
   28.8220   31.9920   39.0640 N   0  0  0  0  0  0  0  0  0  0  0  0
   29.2320   32.9240   39.2070 H   0  0  0  0  0  0  0  0  0  0  0  0
   28.1680   31.2470   39.4570 H   0  0  0  0  0  0  0  0  0  0  0  0
   30.2680   29.8010   39.2040 C   0  0  0  0  0  0  0  0  0  0  0  0
   31.1970   29.1860   39.1780 H   0  0  0  0  0  0  0  0  0  0  0  0
   29.4580   29.1060   39.4910 H   0  0  0  0  0  0  0  0  0  0  0  0
   30.4440   30.6000   39.9240 H   0  0  0  0  0  0  0  0  0  0  0  0
   29.2900   32.3500   34.2850 O   0  0  0  0  0  0  0  0  0  0  0  0
   30.3430   32.3140   33.3270 C   0  0  0  0  0  0  0  0  0  0  0  0
   30.6980   31.0390   33.0260 F   0  0  0  0  0  0  0  0  0  0  0  0
   29.8820   33.0180   32.2040 F   0  0  0  0  0  0  0  0  0  0  0  0
   31.4500   32.9490   33.8740 F   0  0  0  0  0  0  0  0  0  0  0  0
  1  6  2  0  0  0  0
  1  2  1  0  0  0  0
  2  3  2  0  0  0  0
  3  4  1  0  0  0  0
  3 11  1  0  0  0  0
  4  9  1  0  0  0  0
  5  7  1  0  0  0  0
  5  4  2  0  0  0  0
  6  5  1  0  0  0  0
  7  8  1  0  0  0  0
  8  9  1  0  0  0  0
  8 14  1  0  0  0  0
  8 13  1  1  0  0  0
 10  1  1  0  0  0  0
 12  6  1  0  0  0  0
 14 16  1  0  0  0  0
 15 14  1  0  0  0  0
 16 17  2  0  0  0  0
 16 22  1  0  0  0  0
 17 18  1  0  0  0  0
 18 19  1  0  0  0  0
 18 20  2  0  0  0  0
 21 20  1  0  0  0  0
 22 21  2  0  0  0  0
 23 24  1  0  0  0  0
 23  2  1  0  0  0  0
 24 25  1  0  0  0  0
 25 33  1  0  0  0  0
 26 25  2  0  0  0  0
 26 30  1  0  0  0  0
 27 26  1  0  0  0  0
 28 29  1  0  0  0  0
 28 27  2  0  0  0  0
 29 24  2  0  0  0  0
 30 31  1  0  0  0  0
 30 32  1  0  0  0  0
 33 35  1  0  0  0  0
 33 36  1  0  0  0  0
 34 33  1  0  0  0  0
 37 28  1  0  0  0  0
 38 41  1  0  0  0  0
 38 37  1  0  0  0  0
 39 38  1  0  0  0  0
 40 38  1  0  0  0  0
M  END
>  <minimizedAffinity>
-6.12409639

$$$$

 OpenBabel03242515483D

 41 44  0  0  1  0  0  0  0  0999 V2000
   36.3560   29.3710   35.2420 C   0  0  0  0  0  0  0  0  0  0  0  0
   36.2960   29.0300   36.5930 C   0  0  0  0  0  0  0  0  0  0  0  0
   35.0850   28.8340   37.2220 C   0  0  0  0  0  0  0  0  0  0  0  0
   33.9120   28.9680   36.5380 C   0  0  0  0  0  0  0  0  0  0  0  0
   33.9530   29.3040   35.1980 C   0  0  0  0  0  0  0  0  0  0  0  0
   35.1350   29.5050   34.5470 C   0  0  0  0  0  0  0  0  0  0  0  0
   32.6210   29.3730   34.7520 O   0  0  0  0  0  0  0  0  0  0  0  0
   31.7950   29.3260   35.8590 C   0  0  1  0  0  0  0  0  0  0  0  0
   32.5670   28.8290   36.9250 O   0  0  0  0  0  0  0  0  0  0  0  0
   37.2440   29.5460   34.6710 H   0  0  0  0  0  0  0  0  0  0  0  0
   35.1420   28.5800   38.2600 H   0  0  0  0  0  0  0  0  0  0  0  0
   35.1230   29.7680   33.4980 H   0  0  0  0  0  0  0  0  0  0  0  0
   30.9590   28.5980   35.6540 H   0  0  0  0  0  0  0  0  0  0  0  0
   31.2340   30.6180   36.1130 N   0  0  0  0  0  0  0  0  0  0  0  0
   31.3580   31.1680   37.0060 H   0  0  0  0  0  0  0  0  0  0  0  0
   30.4980   31.0020   34.9500 C   0  0  0  0  0  0  0  0  0  0  0  0
   30.7450   32.1480   34.2280 C   0  0  0  0  0  3  0  0  0  0  0  0
   30.0730   32.5790   33.1170 C   0  0  0  0  0  0  0  0  0  0  0  0
   30.3350   33.4940   32.6090 H   0  0  0  0  0  0  0  0  0  0  0  0
   29.0950   31.7650   32.7480 N   0  0  0  0  0  0  0  0  0  0  0  0
   28.7650   30.6290   33.3660 C   0  0  0  0  0  3  0  0  0  0  0  0
   29.4650   30.2440   34.4680 N   0  0  0  0  0  0  0  0  0  0  0  0
   37.9190   28.8870   37.3420 S   0  0  0  0  0  0  0  0  0  0  0  0
   37.8670   29.5710   39.0290 C   0  0  0  0  0  0  0  0  0  0  0  0
   37.6300   30.8960   39.1130 C   0  0  0  0  0  0  0  0  0  0  0  0
   37.6140   31.3910   40.4210 C   0  0  0  0  0  0  0  0  0  0  0  0
   37.8150   30.6110   41.4940 N   0  0  0  0  0  0  0  0  0  0  0  0
   38.0470   29.2900   41.3460 C   0  0  0  0  0  0  0  0  0  0  0  0
   38.0630   28.8170   40.1060 N   0  0  0  0  0  0  0  0  0  0  0  0
   37.3810   32.8110   40.6370 N   0  0  0  0  0  0  0  0  0  0  0  0
   36.5190   32.8930   41.1900 H   0  0  0  0  0  0  0  0  0  0  0  0
   38.1750   33.3370   40.1590 H   0  0  0  0  0  0  0  0  0  0  0  0
   37.3560   31.9900   38.1400 C   0  0  0  0  0  0  0  0  0  0  0  0
   36.9550   31.4740   37.2370 H   0  0  0  0  0  0  0  0  0  0  0  0
   38.2800   32.4980   37.8060 H   0  0  0  0  0  0  0  0  0  0  0  0
   36.5750   32.6690   38.4840 H   0  0  0  0  0  0  0  0  0  0  0  0
   38.2650   28.4120   42.3840 O   0  0  0  0  0  0  0  0  0  0  0  0
   37.1120   27.8290   42.9850 C   0  0  0  0  0  0  0  0  0  0  0  0
   35.9900   28.0980   42.2690 F   0  0  0  0  0  0  0  0  0  0  0  0
   37.3670   26.4530   43.0800 F   0  0  0  0  0  0  0  0  0  0  0  0
   36.9550   28.3800   44.2500 F   0  0  0  0  0  0  0  0  0  0  0  0
  1  2  1  0  0  0  0
  2  3  2  0  0  0  0
  2 23  1  0  0  0  0
  3 11  1  0  0  0  0
  4  9  1  0  0  0  0
  4  3  1  0  0  0  0
  5  4  2  0  0  0  0
  6  5  1  0  0  0  0
  6  1  2  0  0  0  0
  7  5  1  0  0  0  0
  7  8  1  0  0  0  0
  8 13  1  6  0  0  0
  8 14  1  0  0  0  0
  8  9  1  0  0  0  0
 10  1  1  0  0  0  0
 12  6  1  0  0  0  0
 14 15  1  0  0  0  0
 16 14  1  0  0  0  0
 17 16  2  0  0  0  0
 18 17  1  0  0  0  0
 19 18  1  0  0  0  0
 20 18  2  0  0  0  0
 20 21  1  0  0  0  0
 21 22  2  0  0  0  0
 22 16  1  0  0  0  0
 23 24  1  0  0  0  0
 24 25  2  0  0  0  0
 24 29  1  0  0  0  0
 25 26  1  0  0  0  0
 26 30  1  0  0  0  0
 26 27  2  0  0  0  0
 28 27  1  0  0  0  0
 28 37  1  0  0  0  0
 29 28  2  0  0  0  0
 30 31  1  0  0  0  0
 32 30  1  0  0  0  0
 33 36  1  0  0  0  0
 33 25  1  0  0  0  0
 34 33  1  0  0  0  0
 35 33  1  0  0  0  0
 37 38  1  0  0  0  0
 38 40  1  0  0  0  0
 38 41  1  0  0  0  0
 39 38  1  0  0  0  0
M  END
>  <minimizedAffinity>
-6.09078455

$$$$
