
 OpenBabel03252509083D

 39 42  0  0  0  0  0  0  0  0999 V2000
   47.6060   31.7940   38.9120 C   0  0  0  0  0  0  0  0  0  0  0  0
   47.1760   33.0890   38.9380 C   0  0  0  0  0  0  0  0  0  0  0  0
   47.8230   34.0470   38.1750 C   0  0  0  0  0  0  0  0  0  0  0  0
   48.8980   33.6990   37.3920 C   0  0  0  0  0  0  0  0  0  0  0  0
   49.3700   32.3880   37.3360 C   0  0  0  0  0  0  0  0  0  0  0  0
   48.6980   31.4380   38.1170 C   0  0  0  0  0  0  0  0  0  0  0  0
   47.5170   35.0800   38.1660 H   0  0  0  0  0  0  0  0  0  0  0  0
   49.4750   34.3550   36.7620 H   0  0  0  0  0  0  0  0  0  0  0  0
   50.1890   32.0400   36.7590 H   0  0  0  0  0  0  0  0  0  0  0  0
   49.0370   30.4000   38.1010 H   0  0  0  0  0  0  0  0  0  0  0  0
   45.3890   35.3600   43.2150 Cl  0  0  0  0  0  0  0  0  0  0  0  0
   45.2110   34.5920   41.6580 C   0  0  0  0  0  0  0  0  0  0  0  0
   46.2920   34.1780   40.9500 C   0  0  0  0  0  0  0  0  0  0  0  0
   46.0430   33.5650   39.7300 C   0  0  0  0  0  0  0  0  0  0  0  0
   44.7680   33.3820   39.2520 C   0  0  0  0  0  0  0  0  0  0  0  0
   43.7000   33.8020   39.9760 C   0  0  0  0  0  0  0  0  0  0  0  0
   43.9320   34.4100   41.1850 C   0  0  0  0  0  0  0  0  0  0  0  0
   44.6120   32.8980   38.2910 H   0  0  0  0  0  0  0  0  0  0  0  0
   42.7120   33.6410   39.5670 H   0  0  0  0  0  0  0  0  0  0  0  0
   43.0440   34.7320   41.7330 H   0  0  0  0  0  0  0  0  0  0  0  0
   49.5820   35.7550   41.9150 C   0  0  0  0  0  0  0  0  0  0  0  0
   48.3000   35.5710   41.3790 C   0  0  0  0  0  0  0  0  0  0  0  0
   47.6180   34.3810   41.5000 C   0  0  0  0  0  0  0  0  0  0  0  0
   48.2880   33.4110   42.1780 N   0  0  0  0  0  0  0  0  0  0  0  0
   49.5070   33.5780   42.6920 C   0  0  0  0  0  0  0  0  0  0  0  0
   50.1440   34.7420   42.5580 N   0  0  0  0  0  0  0  0  0  0  0  0
   50.0030   36.7310   41.7500 H   0  0  0  0  0  0  0  0  0  0  0  0
   47.8030   36.3680   40.8460 H   0  0  0  0  0  0  0  0  0  0  0  0
   49.9770   32.7590   43.2190 H   0  0  0  0  0  0  0  0  0  0  0  0
   46.8200   30.5950   39.7910 S   0  0  0  0  0  0  0  0  0  0  0  0
   45.4370   30.3160   39.2370 O   0  0  0  0  0  0  0  0  0  0  0  0
   47.6030   29.2820   39.4350 O   0  0  0  0  0  0  0  0  0  0  0  0
   46.6100   30.5690   41.4910 C   0  0  0  0  0  0  0  0  0  0  0  0
   45.3230   30.8870   42.0060 C   0  0  0  0  0  3  0  0  0  0  0  0
   44.8520   30.9470   43.3250 C   0  0  0  0  0  0  0  0  0  0  0  0
   43.8330   31.2090   43.5410 H   0  0  0  0  0  0  0  0  0  0  0  0
   45.8190   30.6440   44.2030 N   0  0  0  0  0  0  0  0  0  0  0  0
   47.0620   30.3300   43.8210 C   0  0  0  0  0  3  0  0  0  0  0  0
   47.4020   30.3050   42.5420 N   0  0  0  0  0  0  0  0  0  0  0  0
  1  2  1  0  0  0  0
  1 30  1  0  0  0  0
  2 14  1  0  0  0  0
  3  2  2  0  0  0  0
  4  3  1  0  0  0  0
  5  4  2  0  0  0  0
  5  6  1  0  0  0  0
  6  1  2  0  0  0  0
  7  3  1  0  0  0  0
  8  4  1  0  0  0  0
  9  5  1  0  0  0  0
 10  6  1  0  0  0  0
 12 11  1  0  0  0  0
 13 23  1  0  0  0  0
 13 12  2  0  0  0  0
 14 13  1  0  0  0  0
 15 14  2  0  0  0  0
 15 16  1  0  0  0  0
 16 17  2  0  0  0  0
 17 12  1  0  0  0  0
 17 20  1  0  0  0  0
 18 15  1  0  0  0  0
 19 16  1  0  0  0  0
 21 26  1  0  0  0  0
 22 23  1  0  0  0  0
 22 21  2  0  0  0  0
 23 24  2  0  0  0  0
 24 25  1  0  0  0  0
 25 29  1  0  0  0  0
 26 25  2  0  0  0  0
 27 21  1  0  0  0  0
 28 22  1  0  0  0  0
 30 33  1  0  0  0  0
 31 30  2  0  0  0  0
 32 30  2  0  0  0  0
 33 34  2  0  0  0  0
 33 39  1  0  0  0  0
 34 35  1  0  0  0  0
 35 36  1  0  0  0  0
 35 37  2  0  0  0  0
 38 37  1  0  0  0  0
 39 38  2  0  0  0  0
M  END
>  <minimizedAffinity>
-4.74524927

>  <minimizedRMSD>
1.17420554

$$$$
