
 OpenBabel03252509073D

 39 42  0  0  0  0  0  0  0  0999 V2000
   46.9820   31.6520   39.4320 C   0  0  0  0  0  0  0  0  0  0  0  0
   46.6480   32.9590   39.2250 C   0  0  0  0  0  0  0  0  0  0  0  0
   47.3220   33.7000   38.2690 C   0  0  0  0  0  0  0  0  0  0  0  0
   48.3260   33.1250   37.5270 C   0  0  0  0  0  0  0  0  0  0  0  0
   48.6990   31.7940   37.7060 C   0  0  0  0  0  0  0  0  0  0  0  0
   48.0020   31.0660   38.6800 C   0  0  0  0  0  0  0  0  0  0  0  0
   47.0900   34.7340   38.0730 H   0  0  0  0  0  0  0  0  0  0  0  0
   48.9150   33.6020   36.7610 H   0  0  0  0  0  0  0  0  0  0  0  0
   49.4600   31.2780   37.1760 H   0  0  0  0  0  0  0  0  0  0  0  0
   48.2650   30.0190   38.8510 H   0  0  0  0  0  0  0  0  0  0  0  0
   45.2030   35.8440   43.2540 Cl  0  0  0  0  0  0  0  0  0  0  0  0
   44.9180   34.9730   41.7680 C   0  0  0  0  0  0  0  0  0  0  0  0
   45.9290   34.3430   41.1180 C   0  0  0  0  0  0  0  0  0  0  0  0
   45.5960   33.6650   39.9530 C   0  0  0  0  0  0  0  0  0  0  0  0
   44.3090   33.6290   39.4730 C   0  0  0  0  0  0  0  0  0  0  0  0
   43.3120   34.2660   40.1380 C   0  0  0  0  0  0  0  0  0  0  0  0
   43.6280   34.9390   41.2930 C   0  0  0  0  0  0  0  0  0  0  0  0
   44.0860   33.0880   38.5560 H   0  0  0  0  0  0  0  0  0  0  0  0
   42.3120   34.2150   39.7290 H   0  0  0  0  0  0  0  0  0  0  0  0
   42.7950   35.4370   41.7950 H   0  0  0  0  0  0  0  0  0  0  0  0
   49.4600   35.4320   41.8840 C   0  0  0  0  0  0  0  0  0  0  0  0
   48.1670   35.3900   41.3440 C   0  0  0  0  0  0  0  0  0  0  0  0
   47.2680   34.3980   41.6690 C   0  0  0  0  0  0  0  0  0  0  0  0
   47.7380   33.4750   42.5500 N   0  0  0  0  0  0  0  0  0  0  0  0
   48.9660   33.5080   43.0690 C   0  0  0  0  0  0  0  0  0  0  0  0
   49.8160   34.4800   42.7350 N   0  0  0  0  0  0  0  0  0  0  0  0
   50.0610   36.2580   41.5480 H   0  0  0  0  0  0  0  0  0  0  0  0
   47.8330   36.1430   40.6470 H   0  0  0  0  0  0  0  0  0  0  0  0
   49.2690   32.7370   43.7640 H   0  0  0  0  0  0  0  0  0  0  0  0
   46.1590   30.7080   40.5540 S   0  0  0  0  0  0  0  0  0  0  0  0
   46.3300   29.2290   40.2700 O   0  0  0  0  0  0  0  0  0  0  0  0
   46.9690   30.8970   41.8840 O   0  0  0  0  0  0  0  0  0  0  0  0
   44.5080   30.8700   40.9860 C   0  0  0  0  0  0  0  0  0  0  0  0
   43.5310   30.4600   40.0340 C   0  0  0  0  0  3  0  0  0  0  0  0
   42.1320   30.4680   40.0980 C   0  0  0  0  0  0  0  0  0  0  0  0
   41.5360   30.1170   39.2760 H   0  0  0  0  0  0  0  0  0  0  0  0
   41.6980   30.9510   41.2720 N   0  0  0  0  0  0  0  0  0  0  0  0
   42.5340   31.3630   42.2310 C   0  0  0  0  0  3  0  0  0  0  0  0
   43.8470   31.3120   42.0660 N   0  0  0  0  0  0  0  0  0  0  0  0
  1 30  1  0  0  0  0
  2  1  1  0  0  0  0
  2 14  1  0  0  0  0
  3  2  2  0  0  0  0
  4  5  2  0  0  0  0
  4  3  1  0  0  0  0
  5  6  1  0  0  0  0
  6 10  1  0  0  0  0
  6  1  2  0  0  0  0
  7  3  1  0  0  0  0
  8  4  1  0  0  0  0
  9  5  1  0  0  0  0
 12 11  1  0  0  0  0
 13 23  1  0  0  0  0
 13 12  2  0  0  0  0
 14 13  1  0  0  0  0
 15 14  2  0  0  0  0
 15 16  1  0  0  0  0
 16 17  2  0  0  0  0
 17 12  1  0  0  0  0
 17 20  1  0  0  0  0
 18 15  1  0  0  0  0
 19 16  1  0  0  0  0
 21 26  1  0  0  0  0
 22 23  1  0  0  0  0
 22 21  2  0  0  0  0
 23 24  2  0  0  0  0
 24 25  1  0  0  0  0
 25 29  1  0  0  0  0
 26 25  2  0  0  0  0
 27 21  1  0  0  0  0
 28 22  1  0  0  0  0
 30 33  1  0  0  0  0
 30 32  2  0  0  0  0
 31 30  2  0  0  0  0
 33 39  1  0  0  0  0
 34 35  1  0  0  0  0
 34 33  2  0  0  0  0
 35 37  2  0  0  0  0
 36 35  1  0  0  0  0
 37 38  1  0  0  0  0
 39 38  2  0  0  0  0
M  END
>  <minimizedAffinity>
-4.74470854

>  <minimizedRMSD>
1.12706828

$$$$
