
 OpenBabel03252509073D

 39 42  0  0  0  0  0  0  0  0999 V2000
   47.5140   31.7600   39.1870 C   0  0  0  0  0  0  0  0  0  0  0  0
   47.0510   33.0360   39.0500 C   0  0  0  0  0  0  0  0  0  0  0  0
   47.6640   33.9000   38.1580 C   0  0  0  0  0  0  0  0  0  0  0  0
   48.7360   33.4770   37.4080 C   0  0  0  0  0  0  0  0  0  0  0  0
   49.2400   32.1820   37.5170 C   0  0  0  0  0  0  0  0  0  0  0  0
   48.6030   31.3280   38.4270 C   0  0  0  0  0  0  0  0  0  0  0  0
   47.3310   34.9160   38.0180 H   0  0  0  0  0  0  0  0  0  0  0  0
   49.2880   34.0580   36.6880 H   0  0  0  0  0  0  0  0  0  0  0  0
   50.0600   31.7800   36.9770 H   0  0  0  0  0  0  0  0  0  0  0  0
   48.9680   30.3040   38.5420 H   0  0  0  0  0  0  0  0  0  0  0  0
   45.2470   35.5510   43.1820 Cl  0  0  0  0  0  0  0  0  0  0  0  0
   45.0780   34.7240   41.6530 C   0  0  0  0  0  0  0  0  0  0  0  0
   46.1610   34.2420   40.9920 C   0  0  0  0  0  0  0  0  0  0  0  0
   45.9180   33.5860   39.7920 C   0  0  0  0  0  0  0  0  0  0  0  0
   44.6500   33.4300   39.2900 C   0  0  0  0  0  0  0  0  0  0  0  0
   43.5800   33.9190   39.9670 C   0  0  0  0  0  0  0  0  0  0  0  0
   43.8050   34.5690   41.1560 C   0  0  0  0  0  0  0  0  0  0  0  0
   44.4990   32.9110   38.3450 H   0  0  0  0  0  0  0  0  0  0  0  0
   42.5970   33.7760   39.5400 H   0  0  0  0  0  0  0  0  0  0  0  0
   42.9170   34.9460   41.6670 H   0  0  0  0  0  0  0  0  0  0  0  0
   49.5300   35.6900   41.8800 C   0  0  0  0  0  0  0  0  0  0  0  0
   48.2560   35.5290   41.3190 C   0  0  0  0  0  0  0  0  0  0  0  0
   47.4790   34.4200   41.5670 C   0  0  0  0  0  0  0  0  0  0  0  0
   48.0480   33.5040   42.3960 N   0  0  0  0  0  0  0  0  0  0  0  0
   49.2590   33.6490   42.9360 C   0  0  0  0  0  0  0  0  0  0  0  0
   49.9890   34.7340   42.6770 N   0  0  0  0  0  0  0  0  0  0  0  0
   50.0310   36.6010   41.6060 H   0  0  0  0  0  0  0  0  0  0  0  0
   47.8400   36.2800   40.6640 H   0  0  0  0  0  0  0  0  0  0  0  0
   49.6450   32.8780   43.5870 H   0  0  0  0  0  0  0  0  0  0  0  0
   46.7700   30.6690   40.2290 S   0  0  0  0  0  0  0  0  0  0  0  0
   47.1540   29.2390   39.9050 O   0  0  0  0  0  0  0  0  0  0  0  0
   47.4790   30.9100   41.6080 O   0  0  0  0  0  0  0  0  0  0  0  0
   45.0930   30.5920   40.5740 C   0  0  0  0  0  0  0  0  0  0  0  0
   44.6690   30.9380   41.8870 C   0  0  0  0  0  3  0  0  0  0  0  0
   43.3890   30.9730   42.4580 C   0  0  0  0  0  0  0  0  0  0  0  0
   43.2450   31.2620   43.4820 H   0  0  0  0  0  0  0  0  0  0  0  0
   42.4490   30.6110   41.5720 N   0  0  0  0  0  0  0  0  0  0  0  0
   42.7440   30.2670   40.3130 C   0  0  0  0  0  3  0  0  0  0  0  0
   43.9930   30.2680   39.8760 N   0  0  0  0  0  0  0  0  0  0  0  0
  1 30  1  0  0  0  0
  2  1  1  0  0  0  0
  2 14  1  0  0  0  0
  3  2  2  0  0  0  0
  4  5  2  0  0  0  0
  4  3  1  0  0  0  0
  5  6  1  0  0  0  0
  6 10  1  0  0  0  0
  6  1  2  0  0  0  0
  7  3  1  0  0  0  0
  8  4  1  0  0  0  0
  9  5  1  0  0  0  0
 12 11  1  0  0  0  0
 13 23  1  0  0  0  0
 13 12  2  0  0  0  0
 14 13  1  0  0  0  0
 15 14  2  0  0  0  0
 15 16  1  0  0  0  0
 16 17  2  0  0  0  0
 17 12  1  0  0  0  0
 17 20  1  0  0  0  0
 18 15  1  0  0  0  0
 19 16  1  0  0  0  0
 21 26  1  0  0  0  0
 22 23  1  0  0  0  0
 22 21  2  0  0  0  0
 23 24  2  0  0  0  0
 24 25  1  0  0  0  0
 25 29  1  0  0  0  0
 26 25  2  0  0  0  0
 27 21  1  0  0  0  0
 28 22  1  0  0  0  0
 30 33  1  0  0  0  0
 30 32  2  0  0  0  0
 31 30  2  0  0  0  0
 33 34  1  0  0  0  0
 34 35  2  0  0  0  0
 35 36  1  0  0  0  0
 37 35  1  0  0  0  0
 38 37  2  0  0  0  0
 39 38  1  0  0  0  0
 39 33  2  0  0  0  0
M  END
>  <minimizedAffinity>
-4.66947412

>  <minimizedRMSD>
1.00607646

$$$$
