
 OpenBabel03242512173D

 31 33  0  0  0  0  0  0  0  0999 V2000
   48.5100   33.0310   41.4090 C   0  0  0  0  0  0  0  0  0  0  0  0
   48.0760   34.2630   41.8310 C   0  0  0  0  0  0  0  0  0  0  0  0
   48.9590   35.1270   42.4460 C   0  0  0  0  0  0  0  0  0  0  0  0
   50.2770   34.7260   42.6220 C   0  0  0  0  0  0  0  0  0  0  0  0
   50.6900   33.4910   42.1920 C   0  0  0  0  0  0  0  0  0  0  0  0
   49.8000   32.6110   41.5690 C   0  0  0  0  0  0  0  0  0  0  0  0
   48.5540   36.0660   42.7460 H   0  0  0  0  0  0  0  0  0  0  0  0
   50.9410   35.4320   43.1080 H   0  0  0  0  0  0  0  0  0  0  0  0
   51.7220   33.2110   42.3450 H   0  0  0  0  0  0  0  0  0  0  0  0
   46.6440   34.5500   41.5730 C   0  0  0  0  0  0  0  0  0  0  0  0
   46.1550   33.8130   40.9620 H   0  0  0  0  0  0  0  0  0  0  0  0
   46.6340   35.5050   40.9710 H   0  0  0  0  0  0  0  0  0  0  0  0
   45.9440   34.8530   42.8730 C   0  0  0  0  0  0  0  0  0  0  0  0
   45.9860   33.8640   43.8690 C   0  0  0  0  0  0  0  0  0  0  0  0
   45.3490   34.1390   45.0680 C   0  0  0  0  0  0  0  0  0  0  0  0
   44.7290   35.3280   45.2110 N   0  0  0  0  0  0  0  0  0  0  0  0
   44.7030   36.2720   44.2230 C   0  0  0  0  0  0  0  0  0  0  0  0
   45.3130   36.0230   43.0620 N   0  0  0  0  0  0  0  0  0  0  0  0
   46.4820   32.9130   43.7530 H   0  0  0  0  0  0  0  0  0  0  0  0
   45.3290   33.4370   45.8920 H   0  0  0  0  0  0  0  0  0  0  0  0
   44.2030   37.2230   44.3480 H   0  0  0  0  0  0  0  0  0  0  0  0
   47.7090   32.0780   40.7790 O   0  0  0  0  0  0  0  0  0  0  0  0
   47.1500   32.3160   39.9690 H   0  0  0  0  0  0  0  0  0  0  0  0
   50.3370   31.3820   41.1720 O   0  0  0  0  0  0  0  0  0  0  0  0
   51.1180   31.4330   40.0240 C   0  0  0  0  0  0  0  0  0  0  0  0
   52.4830   31.2600   40.1560 C   0  0  0  0  0  0  0  0  0  0  0  0
   53.3440   31.2960   39.0570 C   0  0  0  0  0  0  0  0  0  0  0  0
   54.4070   31.1580   39.1870 H   0  0  0  0  0  0  0  0  0  0  0  0
   52.8280   31.5050   37.8410 N   0  0  0  0  0  0  0  0  0  0  0  0
   51.5000   31.6730   37.7150 C   0  0  0  0  0  0  0  0  0  0  0  0
   50.6690   31.6390   38.7730 N   0  0  0  0  0  0  0  0  0  0  0  0
  1  6  2  0  0  0  0
  1  2  1  0  0  0  0
  2  3  2  0  0  0  0
  3  4  1  0  0  0  0
  3  7  1  0  0  0  0
  4  8  1  0  0  0  0
  5  9  1  0  0  0  0
  5  4  2  0  0  0  0
  6  5  1  0  0  0  0
 10  2  1  0  0  0  0
 10 13  1  0  0  0  0
 11 10  1  0  0  0  0
 12 10  1  0  0  0  0
 13 18  2  0  0  0  0
 13 14  1  0  0  0  0
 14 15  2  0  0  0  0
 15 16  1  0  0  0  0
 15 20  1  0  0  0  0
 17 21  1  0  0  0  0
 17 16  2  0  0  0  0
 18 17  1  0  0  0  0
 19 14  1  0  0  0  0
 22  1  1  0  0  0  0
 23 22  1  0  0  0  0
 24  6  1  0  0  0  0
 25 26  1  0  0  0  0
 25 24  1  0  0  0  0
 27 28  1  0  0  0  0
 27 26  2  0  0  0  0
 29 27  1  0  0  0  0
 30 29  2  0  0  0  0
 30 31  1  0  0  0  0
 31 25  2  0  0  0  0
M  END
>  <minimizedAffinity>
-5.4579916

>  <minimizedRMSD>
1.45631373

$$$$
