
 OpenBabel03252509083D

 39 42  0  0  0  0  0  0  0  0999 V2000
   47.3770   31.7430   39.2090 C   0  0  0  0  0  0  0  0  0  0  0  0
   46.9630   33.0360   39.0740 C   0  0  0  0  0  0  0  0  0  0  0  0
   47.6140   33.8810   38.1900 C   0  0  0  0  0  0  0  0  0  0  0  0
   48.6760   33.4210   37.4470 C   0  0  0  0  0  0  0  0  0  0  0  0
   49.1310   32.1080   37.5550 C   0  0  0  0  0  0  0  0  0  0  0  0
   48.4560   31.2740   38.4560 C   0  0  0  0  0  0  0  0  0  0  0  0
   47.3200   34.9080   38.0520 H   0  0  0  0  0  0  0  0  0  0  0  0
   49.2540   33.9840   36.7340 H   0  0  0  0  0  0  0  0  0  0  0  0
   49.9400   31.6780   37.0190 H   0  0  0  0  0  0  0  0  0  0  0  0
   48.7830   30.2380   38.5690 H   0  0  0  0  0  0  0  0  0  0  0  0
   45.2230   35.6310   43.1830 Cl  0  0  0  0  0  0  0  0  0  0  0  0
   45.0330   34.7990   41.6600 C   0  0  0  0  0  0  0  0  0  0  0  0
   46.1030   34.2810   41.0050 C   0  0  0  0  0  0  0  0  0  0  0  0
   45.8450   33.6240   39.8090 C   0  0  0  0  0  0  0  0  0  0  0  0
   44.5730   33.5010   39.3050 C   0  0  0  0  0  0  0  0  0  0  0  0
   43.5170   34.0260   39.9760 C   0  0  0  0  0  0  0  0  0  0  0  0
   43.7580   34.6770   41.1600 C   0  0  0  0  0  0  0  0  0  0  0  0
   44.4090   32.9790   38.3640 H   0  0  0  0  0  0  0  0  0  0  0  0
   42.5310   33.9090   39.5470 H   0  0  0  0  0  0  0  0  0  0  0  0
   42.8800   35.0840   41.6660 H   0  0  0  0  0  0  0  0  0  0  0  0
   49.5110   35.6370   41.8920 C   0  0  0  0  0  0  0  0  0  0  0  0
   48.2340   35.5100   41.3280 C   0  0  0  0  0  0  0  0  0  0  0  0
   47.4250   34.4250   41.5820 C   0  0  0  0  0  0  0  0  0  0  0  0
   47.9650   33.4990   42.4180 N   0  0  0  0  0  0  0  0  0  0  0  0
   49.1790   33.6120   42.9600 C   0  0  0  0  0  0  0  0  0  0  0  0
   49.9410   34.6740   42.6960 N   0  0  0  0  0  0  0  0  0  0  0  0
   50.0390   36.5320   41.6120 H   0  0  0  0  0  0  0  0  0  0  0  0
   47.8420   36.2680   40.6670 H   0  0  0  0  0  0  0  0  0  0  0  0
   49.5410   32.8340   43.6170 H   0  0  0  0  0  0  0  0  0  0  0  0
   46.5860   30.6760   40.2400 S   0  0  0  0  0  0  0  0  0  0  0  0
   46.9560   29.2370   39.9430 O   0  0  0  0  0  0  0  0  0  0  0  0
   47.2580   30.9210   41.6370 O   0  0  0  0  0  0  0  0  0  0  0  0
   44.8980   30.6290   40.5360 C   0  0  0  0  0  0  0  0  0  0  0  0
   44.4440   30.9800   41.8390 C   0  0  0  0  0  3  0  0  0  0  0  0
   43.1500   31.0390   42.3720 C   0  0  0  0  0  0  0  0  0  0  0  0
   42.9820   31.3270   43.3930 H   0  0  0  0  0  0  0  0  0  0  0  0
   42.2280   30.6970   41.4600 N   0  0  0  0  0  0  0  0  0  0  0  0
   42.5520   30.3500   40.2080 C   0  0  0  0  0  3  0  0  0  0  0  0
   43.8140   30.3290   39.8060 N   0  0  0  0  0  0  0  0  0  0  0  0
  1 30  1  0  0  0  0
  2  1  1  0  0  0  0
  2 14  1  0  0  0  0
  3  2  2  0  0  0  0
  4  5  2  0  0  0  0
  4  3  1  0  0  0  0
  5  6  1  0  0  0  0
  6 10  1  0  0  0  0
  6  1  2  0  0  0  0
  7  3  1  0  0  0  0
  8  4  1  0  0  0  0
  9  5  1  0  0  0  0
 12 11  1  0  0  0  0
 13 23  1  0  0  0  0
 13 12  2  0  0  0  0
 14 13  1  0  0  0  0
 15 14  2  0  0  0  0
 15 16  1  0  0  0  0
 16 17  2  0  0  0  0
 17 12  1  0  0  0  0
 17 20  1  0  0  0  0
 18 15  1  0  0  0  0
 19 16  1  0  0  0  0
 21 26  1  0  0  0  0
 22 23  1  0  0  0  0
 22 21  2  0  0  0  0
 23 24  2  0  0  0  0
 24 25  1  0  0  0  0
 25 29  1  0  0  0  0
 26 25  2  0  0  0  0
 27 21  1  0  0  0  0
 28 22  1  0  0  0  0
 30 33  1  0  0  0  0
 30 32  2  0  0  0  0
 31 30  2  0  0  0  0
 33 34  1  0  0  0  0
 34 35  2  0  0  0  0
 35 36  1  0  0  0  0
 37 35  1  0  0  0  0
 38 37  2  0  0  0  0
 39 38  1  0  0  0  0
 39 33  2  0  0  0  0
M  END
>  <minimizedAffinity>
-4.67142916

>  <minimizedRMSD>
1.14568472

$$$$
