
 OpenBabel03252506153D

 37 39  0  0  0  0  0  0  0  0999 V2000
   44.9460   33.5920   41.1110 F   0  0  0  0  0  0  0  0  0  0  0  0
   46.1650   34.0800   40.9540 C   0  0  0  0  0  0  0  0  0  0  0  0
   46.7200   34.7840   42.0020 C   0  0  0  0  0  0  0  0  0  0  0  0
   48.0150   35.3450   41.9500 C   0  0  0  0  0  0  0  0  0  0  0  0
   48.7630   35.1770   40.7810 C   0  0  0  0  0  0  0  0  0  0  0  0
   48.1630   34.4670   39.7680 C   0  0  0  0  0  0  0  0  0  0  0  0
   46.9280   33.9260   39.8050 C   0  0  0  0  0  0  0  0  0  0  0  0
   48.3810   35.8890   42.8220 H   0  0  0  0  0  0  0  0  0  0  0  0
   49.7460   35.6240   40.7900 H   0  0  0  0  0  0  0  0  0  0  0  0
   48.8700   34.4120   38.9300 H   0  0  0  0  0  0  0  0  0  0  0  0
   45.4560   34.1930   45.3940 C   0  0  0  0  0  0  0  0  0  0  0  0
   44.5990   35.3270   45.5820 C   0  0  0  0  0  0  0  0  0  0  0  0
   44.4700   36.2810   44.5300 C   0  0  0  0  0  0  0  0  0  0  0  0
   45.1890   36.0450   43.3900 N   0  0  0  0  0  0  0  0  0  0  0  0
   45.9700   34.9860   43.2540 C   0  0  0  0  0  0  0  0  0  0  0  0
   46.1090   34.0650   44.2380 N   0  0  0  0  0  0  0  0  0  0  0  0
   44.0300   35.5140   46.4870 H   0  0  0  0  0  0  0  0  0  0  0  0
   43.8400   37.1260   44.6530 H   0  0  0  0  0  0  0  0  0  0  0  0
   45.5520   33.2910   46.4470 N   0  0  0  0  0  0  0  0  0  0  0  0
   46.4900   32.8280   46.6390 H   0  0  0  0  0  0  0  0  0  0  0  0
   44.6990   33.0970   47.0170 H   0  0  0  0  0  0  0  0  0  0  0  0
   46.4380   33.2420   38.7320 O   0  0  0  0  0  0  0  0  0  0  0  0
   47.9910   31.0980   38.6900 O   0  0  0  0  0  0  0  0  0  0  0  0
   47.2490   32.0840   37.8190 P   0  0  2  0  0  0  0  0  0  0  0  0
   48.3780   32.8840   36.8010 O   0  0  0  0  0  0  0  0  0  0  0  0
   48.7850   32.3440   35.5940 C   0  0  0  0  0  0  0  0  0  0  0  0
   49.7400   31.3410   35.6790 C   0  0  0  0  0  0  0  0  0  0  0  0
   50.2010   30.7490   34.5410 C   0  0  0  0  0  0  0  0  0  0  0  0
   50.9490   29.9610   34.5730 H   0  0  0  0  0  0  0  0  0  0  0  0
   49.7540   31.1100   33.3250 N   0  0  0  0  0  0  0  0  0  0  0  0
   48.8180   32.0960   33.2770 C   0  0  0  0  0  0  0  0  0  0  0  0
   48.3150   32.7300   34.3770 N   0  0  0  0  0  0  0  0  0  0  0  0
   46.2400   31.2470   36.7690 O   0  0  0  0  0  0  0  0  0  0  0  0
   45.1370   32.0460   36.3930 C   0  0  0  0  0  0  0  0  0  0  0  0
   44.5960   31.3890   35.2740 F   0  0  0  0  0  0  0  0  0  0  0  0
   44.1750   32.0280   37.3800 F   0  0  0  0  0  0  0  0  0  0  0  0
   45.4600   33.3360   36.1310 F   0  0  0  0  0  0  0  0  0  0  0  0
  2  1  1  0  0  0  0
  2  3  1  0  0  0  0
  3 15  1  0  0  0  0
  4  3  2  0  0  0  0
  4  8  1  0  0  0  0
  5  9  1  0  0  0  0
  5  4  1  0  0  0  0
  6  7  1  0  0  0  0
  6  5  2  0  0  0  0
  7  2  2  0  0  0  0
 10  6  1  0  0  0  0
 11 12  1  0  0  0  0
 11 19  1  0  0  0  0
 12 17  1  0  0  0  0
 13 18  1  0  0  0  0
 13 12  2  0  0  0  0
 14 13  1  0  0  0  0
 15 14  2  0  0  0  0
 15 16  1  0  0  0  0
 16 11  2  0  0  0  0
 19 20  1  0  0  0  0
 19 21  1  0  0  0  0
 22  7  1  0  0  0  0
 24 23  2  1  0  0  0
 24 22  1  0  0  0  0
 25 24  1  0  0  0  0
 26 27  1  0  0  0  0
 26 25  1  0  0  0  0
 28 29  1  0  0  0  0
 28 27  2  0  0  0  0
 30 28  1  0  0  0  0
 31 30  2  0  0  0  0
 31 32  1  0  0  0  0
 32 26  2  0  0  0  0
 33 24  1  0  0  0  0
 34 33  1  0  0  0  0
 34 36  1  0  0  0  0
 35 34  1  0  0  0  0
 37 34  1  0  0  0  0
M  END
>  <minimizedAffinity>
-5.90765905

>  <minimizedRMSD>
3.461128

$$$$
