
 OpenBabel03252506143D

 34 36  0  0  0  0  0  0  0  0999 V2000
   40.5140   30.3410   40.1340 F   0  0  0  0  0  0  0  0  0  0  0  0
   39.4110   31.0840   40.0850 C   0  0  0  0  0  0  0  0  0  0  0  0
   39.5260   32.4220   39.7880 C   0  0  0  0  0  0  0  0  0  0  0  0
   38.4200   33.2770   39.7150 C   0  0  0  0  0  0  0  0  0  0  0  0
   37.1480   32.7640   39.9470 C   0  0  0  0  0  0  0  0  0  0  0  0
   37.0800   31.4150   40.2410 C   0  0  0  0  0  0  0  0  0  0  0  0
   38.1420   30.5700   40.3180 C   0  0  0  0  0  0  0  0  0  0  0  0
   38.5750   34.3380   39.4740 H   0  0  0  0  0  0  0  0  0  0  0  0
   36.3390   33.4600   39.8770 H   0  0  0  0  0  0  0  0  0  0  0  0
   36.0360   31.1480   40.3910 H   0  0  0  0  0  0  0  0  0  0  0  0
   42.3380   33.9730   38.0140 C   0  0  0  0  0  0  0  0  0  0  0  0
   43.2900   34.1130   39.0420 C   0  0  0  0  0  0  0  0  0  0  0  0
   42.9620   33.6700   40.3630 C   0  0  0  0  0  0  0  0  0  0  0  0
   41.7170   33.1280   40.5400 N   0  0  0  0  0  0  0  0  0  0  0  0
   40.8440   33.0150   39.5290 C   0  0  0  0  0  0  0  0  0  0  0  0
   41.1560   33.4320   38.2930 N   0  0  0  0  0  0  0  0  0  0  0  0
   44.2790   34.5370   38.9300 H   0  0  0  0  0  0  0  0  0  0  0  0
   43.6430   33.7530   41.1760 H   0  0  0  0  0  0  0  0  0  0  0  0
   42.6990   34.4230   36.7330 N   0  0  0  0  0  0  0  0  0  0  0  0
   42.0510   35.2440   36.5650 H   0  0  0  0  0  0  0  0  0  0  0  0
   43.4310   34.0500   36.0820 H   0  0  0  0  0  0  0  0  0  0  0  0
   37.9610   29.2490   40.6190 O   0  0  0  0  0  0  0  0  0  0  0  0
   35.3580   28.8570   40.9550 O   0  0  0  0  0  0  0  0  0  0  0  0
   36.7210   28.6070   41.5510 P   0  0  2  0  0  0  0  0  0  0  0  0
   36.8140   29.3120   43.1160 O   0  0  0  0  0  0  0  0  0  0  0  0
   36.0830   29.9560   43.2710 H   0  0  0  0  0  0  0  0  0  0  0  0
   36.8840   26.9470   41.8320 O   0  0  0  0  0  0  0  0  0  0  0  0
   37.9980   26.3950   42.4460 C   0  0  0  0  0  0  0  0  0  0  0  0
   38.3600   25.0810   42.2370 C   0  0  0  0  0  3  0  0  0  0  0  0
   39.4990   24.6570   42.9130 C   0  0  0  0  0  0  0  0  0  0  0  0
   39.8580   23.6460   42.8120 H   0  0  0  0  0  0  0  0  0  0  0  0
   40.2080   25.4870   43.7280 N   0  0  0  0  0  0  0  0  0  0  0  0
   39.8260   26.7610   43.9080 C   0  0  0  0  0  3  0  0  0  0  0  0
   38.7430   27.1720   43.2670 N   0  0  0  0  0  0  0  0  0  0  0  0
  2  1  1  0  0  0  0
  2  7  1  0  0  0  0
  3  2  2  0  0  0  0
  4  3  1  0  0  0  0
  4  5  2  0  0  0  0
  5  6  1  0  0  0  0
  6  7  2  0  0  0  0
  6 10  1  0  0  0  0
  7 22  1  0  0  0  0
  8  4  1  0  0  0  0
  9  5  1  0  0  0  0
 11 16  2  0  0  0  0
 11 12  1  0  0  0  0
 12 13  2  0  0  0  0
 13 14  1  0  0  0  0
 13 18  1  0  0  0  0
 15  3  1  0  0  0  0
 15 14  2  0  0  0  0
 16 15  1  0  0  0  0
 17 12  1  0  0  0  0
 19 11  1  0  0  0  0
 20 19  1  0  0  0  0
 21 19  1  0  0  0  0
 22 24  1  0  0  0  0
 24 23  2  6  0  0  0
 24 27  1  0  0  0  0
 24 25  1  0  0  0  0
 25 26  1  0  0  0  0
 27 28  1  0  0  0  0
 28 34  1  0  0  0  0
 29 28  2  0  0  0  0
 29 30  1  0  0  0  0
 30 32  2  0  0  0  0
 31 30  1  0  0  0  0
 32 33  1  0  0  0  0
 34 33  2  0  0  0  0
M  END
>  <minimizedAffinity>
-6.62582636

$$$$

 OpenBabel03252506143D

 34 36  0  0  0  0  0  0  0  0999 V2000
   37.5540   32.2550   38.9660 F   0  0  0  0  0  0  0  0  0  0  0  0
   38.0990   31.1360   38.4910 C   0  0  0  0  0  0  0  0  0  0  0  0
   39.4520   31.1100   38.2480 C   0  0  0  0  0  0  0  0  0  0  0  0
   40.1070   29.9770   37.7500 C   0  0  0  0  0  0  0  0  0  0  0  0
   39.3710   28.8260   37.4890 C   0  0  0  0  0  0  0  0  0  0  0  0
   38.0160   28.8990   37.7490 C   0  0  0  0  0  0  0  0  0  0  0  0
   37.3610   29.9890   38.2300 C   0  0  0  0  0  0  0  0  0  0  0  0
   41.1910   30.0160   37.5750 H   0  0  0  0  0  0  0  0  0  0  0  0
   39.9210   27.9900   37.1110 H   0  0  0  0  0  0  0  0  0  0  0  0
   37.5670   27.9370   37.5100 H   0  0  0  0  0  0  0  0  0  0  0  0
   41.8320   33.8560   37.7410 C   0  0  0  0  0  0  0  0  0  0  0  0
   41.8140   34.4920   38.9970 C   0  0  0  0  0  0  0  0  0  0  0  0
   40.9720   33.9730   40.0310 C   0  0  0  0  0  0  0  0  0  0  0  0
   40.2270   32.8670   39.7220 N   0  0  0  0  0  0  0  0  0  0  0  0
   40.2780   32.2950   38.5110 C   0  0  0  0  0  0  0  0  0  0  0  0
   41.0680   32.7850   37.5450 N   0  0  0  0  0  0  0  0  0  0  0  0
   42.3920   35.3660   39.2670 H   0  0  0  0  0  0  0  0  0  0  0  0
   40.9200   34.4160   40.9970 H   0  0  0  0  0  0  0  0  0  0  0  0
   42.6700   34.3980   36.7530 N   0  0  0  0  0  0  0  0  0  0  0  0
   41.9920   34.7590   36.0230 H   0  0  0  0  0  0  0  0  0  0  0  0
   43.7170   34.4460   36.7250 H   0  0  0  0  0  0  0  0  0  0  0  0
   36.0130   29.9520   38.4500 O   0  0  0  0  0  0  0  0  0  0  0  0
   33.7770   29.2050   39.6690 O   0  0  0  0  0  0  0  0  0  0  0  0
   35.2520   29.4560   39.8610 P   0  0  2  0  0  0  0  0  0  0  0  0
   35.4890   30.6770   41.0480 O   0  0  0  0  0  0  0  0  0  0  0  0
   34.6580   31.1770   41.2280 H   0  0  0  0  0  0  0  0  0  0  0  0
   35.9440   28.0720   40.5450 O   0  0  0  0  0  0  0  0  0  0  0  0
   36.8700   28.1250   41.5760 C   0  0  0  0  0  0  0  0  0  0  0  0
   36.6300   27.5260   42.7940 C   0  0  0  0  0  3  0  0  0  0  0  0
   37.6440   27.6550   43.7370 C   0  0  0  0  0  0  0  0  0  0  0  0
   37.5460   27.2210   44.7180 H   0  0  0  0  0  0  0  0  0  0  0  0
   38.7970   28.3310   43.4730 N   0  0  0  0  0  0  0  0  0  0  0  0
   38.9960   28.9030   42.2750 C   0  0  0  0  0  3  0  0  0  0  0  0
   38.0360   28.7840   41.3710 N   0  0  0  0  0  0  0  0  0  0  0  0
  2  1  1  0  0  0  0
  3  2  1  0  0  0  0
  3 15  1  0  0  0  0
  4  3  2  0  0  0  0
  5  6  2  0  0  0  0
  5  4  1  0  0  0  0
  6  7  1  0  0  0  0
  7 22  1  0  0  0  0
  7  2  2  0  0  0  0
  8  4  1  0  0  0  0
  9  5  1  0  0  0  0
 10  6  1  0  0  0  0
 11 12  1  0  0  0  0
 12 17  1  0  0  0  0
 12 13  2  0  0  0  0
 13 18  1  0  0  0  0
 14 13  1  0  0  0  0
 15 14  2  0  0  0  0
 16 11  2  0  0  0  0
 16 15  1  0  0  0  0
 19 11  1  0  0  0  0
 20 19  1  0  0  0  0
 21 19  1  0  0  0  0
 22 24  1  0  0  0  0
 24 23  2  6  0  0  0
 24 27  1  0  0  0  0
 24 25  1  0  0  0  0
 25 26  1  0  0  0  0
 27 28  1  0  0  0  0
 28 29  1  0  0  0  0
 29 30  2  0  0  0  0
 30 31  1  0  0  0  0
 32 30  1  0  0  0  0
 33 32  2  0  0  0  0
 34 28  2  0  0  0  0
 34 33  1  0  0  0  0
M  END
>  <minimizedAffinity>
-6.41177225

$$$$

 OpenBabel03252506143D

 34 36  0  0  0  0  0  0  0  0999 V2000
   40.1850   30.3410   39.3580 F   0  0  0  0  0  0  0  0  0  0  0  0
   39.1770   31.1950   39.5260 C   0  0  0  0  0  0  0  0  0  0  0  0
   39.4440   32.5440   39.5250 C   0  0  0  0  0  0  0  0  0  0  0  0
   38.4470   33.5110   39.6940 C   0  0  0  0  0  0  0  0  0  0  0  0
   37.1280   33.1040   39.8670 C   0  0  0  0  0  0  0  0  0  0  0  0
   36.9060   31.7400   39.8600 C   0  0  0  0  0  0  0  0  0  0  0  0
   37.8610   30.7860   39.7000 C   0  0  0  0  0  0  0  0  0  0  0  0
   38.7210   34.5750   39.6850 H   0  0  0  0  0  0  0  0  0  0  0  0
   36.4060   33.8840   39.9910 H   0  0  0  0  0  0  0  0  0  0  0  0
   35.8410   31.5640   39.9970 H   0  0  0  0  0  0  0  0  0  0  0  0
   42.4460   33.9200   37.9260 C   0  0  0  0  0  0  0  0  0  0  0  0
   43.3670   33.9270   38.9920 C   0  0  0  0  0  0  0  0  0  0  0  0
   42.9510   33.4550   40.2770 C   0  0  0  0  0  0  0  0  0  0  0  0
   41.6580   33.0170   40.3850 N   0  0  0  0  0  0  0  0  0  0  0  0
   40.8180   33.0290   39.3400 C   0  0  0  0  0  0  0  0  0  0  0  0
   41.2120   33.4740   38.1380 N   0  0  0  0  0  0  0  0  0  0  0  0
   44.3920   34.2670   38.9350 H   0  0  0  0  0  0  0  0  0  0  0  0
   43.6060   33.4390   41.1160 H   0  0  0  0  0  0  0  0  0  0  0  0
   42.8930   34.3950   36.6820 N   0  0  0  0  0  0  0  0  0  0  0  0
   42.3250   35.2780   36.5340 H   0  0  0  0  0  0  0  0  0  0  0  0
   43.6140   33.9900   36.0390 H   0  0  0  0  0  0  0  0  0  0  0  0
   37.5300   29.4600   39.7110 O   0  0  0  0  0  0  0  0  0  0  0  0
   36.6360   27.1660   40.7000 O   0  0  0  0  0  0  0  0  0  0  0  0
   36.7150   28.6530   40.9370 P   0  0  2  0  0  0  0  0  0  0  0  0
   35.1320   29.3140   41.0460 O   0  0  0  0  0  0  0  0  0  0  0  0
   34.4510   28.6890   40.7020 H   0  0  0  0  0  0  0  0  0  0  0  0
   37.3810   28.9150   42.4700 O   0  0  0  0  0  0  0  0  0  0  0  0
   38.6050   28.3930   42.8570 C   0  0  0  0  0  0  0  0  0  0  0  0
   39.7910   29.0170   42.5360 C   0  0  0  0  0  3  0  0  0  0  0  0
   40.9450   28.3850   42.9890 C   0  0  0  0  0  0  0  0  0  0  0  0
   41.9180   28.7990   42.7850 H   0  0  0  0  0  0  0  0  0  0  0  0
   40.9030   27.2260   43.7020 N   0  0  0  0  0  0  0  0  0  0  0  0
   39.7290   26.6450   43.9970 C   0  0  0  0  0  3  0  0  0  0  0  0
   38.6260   27.2410   43.5700 N   0  0  0  0  0  0  0  0  0  0  0  0
  1  2  1  0  0  0  0
  2  7  1  0  0  0  0
  3  2  2  0  0  0  0
  3  4  1  0  0  0  0
  4  5  2  0  0  0  0
  5  9  1  0  0  0  0
  6  5  1  0  0  0  0
  6 10  1  0  0  0  0
  7 22  1  0  0  0  0
  7  6  2  0  0  0  0
  8  4  1  0  0  0  0
 11 16  2  0  0  0  0
 11 12  1  0  0  0  0
 12 13  2  0  0  0  0
 13 14  1  0  0  0  0
 13 18  1  0  0  0  0
 15  3  1  0  0  0  0
 15 14  2  0  0  0  0
 16 15  1  0  0  0  0
 17 12  1  0  0  0  0
 19 11  1  0  0  0  0
 20 19  1  0  0  0  0
 21 19  1  0  0  0  0
 22 24  1  0  0  0  0
 24 23  2  6  0  0  0
 24 25  1  0  0  0  0
 24 27  1  0  0  0  0
 26 25  1  0  0  0  0
 27 28  1  0  0  0  0
 28 34  1  0  0  0  0
 29 28  2  0  0  0  0
 29 30  1  0  0  0  0
 30 32  2  0  0  0  0
 31 30  1  0  0  0  0
 32 33  1  0  0  0  0
 34 33  2  0  0  0  0
M  END
>  <minimizedAffinity>
-6.31369829

$$$$

 OpenBabel03252506143D

 34 36  0  0  0  0  0  0  0  0999 V2000
   39.5890   31.1550   38.3700 F   0  0  0  0  0  0  0  0  0  0  0  0
   39.2130   32.2850   38.9640 C   0  0  0  0  0  0  0  0  0  0  0  0
   40.1800   33.1800   39.3600 C   0  0  0  0  0  0  0  0  0  0  0  0
   39.8750   34.3910   39.9900 C   0  0  0  0  0  0  0  0  0  0  0  0
   38.5440   34.7180   40.2290 C   0  0  0  0  0  0  0  0  0  0  0  0
   37.6070   33.7900   39.8140 C   0  0  0  0  0  0  0  0  0  0  0  0
   37.8830   32.6080   39.2030 C   0  0  0  0  0  0  0  0  0  0  0  0
   40.6920   35.0660   40.2830 H   0  0  0  0  0  0  0  0  0  0  0  0
   38.3680   35.6550   40.7120 H   0  0  0  0  0  0  0  0  0  0  0  0
   36.6160   34.1710   40.0540 H   0  0  0  0  0  0  0  0  0  0  0  0
   43.5380   33.2730   37.8840 C   0  0  0  0  0  0  0  0  0  0  0  0
   44.2350   32.3510   38.6880 C   0  0  0  0  0  0  0  0  0  0  0  0
   43.5440   31.6890   39.7520 C   0  0  0  0  0  0  0  0  0  0  0  0
   42.2220   32.0040   39.9180 N   0  0  0  0  0  0  0  0  0  0  0  0
   41.6000   32.8890   39.1260 C   0  0  0  0  0  0  0  0  0  0  0  0
   42.2520   33.5070   38.1310 N   0  0  0  0  0  0  0  0  0  0  0  0
   45.2780   32.0840   38.5790 H   0  0  0  0  0  0  0  0  0  0  0  0
   44.0230   30.9850   40.3900 H   0  0  0  0  0  0  0  0  0  0  0  0
   44.2540   33.9020   36.8520 N   0  0  0  0  0  0  0  0  0  0  0  0
   44.2830   34.9180   37.1530 H   0  0  0  0  0  0  0  0  0  0  0  0
   44.6690   33.4860   35.9850 H   0  0  0  0  0  0  0  0  0  0  0  0
   36.8750   31.7610   38.8360 O   0  0  0  0  0  0  0  0  0  0  0  0
   35.3040   29.6260   38.9530 O   0  0  0  0  0  0  0  0  0  0  0  0
   36.3260   30.4370   39.7090 P   0  0  2  0  0  0  0  0  0  0  0  0
   35.6440   31.0170   41.1770 O   0  0  0  0  0  0  0  0  0  0  0  0
   34.6600   30.9420   41.1770 H   0  0  0  0  0  0  0  0  0  0  0  0
   37.5670   29.4020   40.2080 O   0  0  0  0  0  0  0  0  0  0  0  0
   37.4960   28.6470   41.3690 C   0  0  0  0  0  0  0  0  0  0  0  0
   37.2440   27.2920   41.3350 C   0  0  0  0  0  3  0  0  0  0  0  0
   37.2010   26.6580   42.5720 C   0  0  0  0  0  0  0  0  0  0  0  0
   37.0100   25.6010   42.6460 H   0  0  0  0  0  0  0  0  0  0  0  0
   37.3940   27.3340   43.7390 N   0  0  0  0  0  0  0  0  0  0  0  0
   37.6360   28.6540   43.7340 C   0  0  0  0  0  3  0  0  0  0  0  0
   37.6800   29.2650   42.5600 N   0  0  0  0  0  0  0  0  0  0  0  0
  1  2  1  0  0  0  0
  2  7  2  0  0  0  0
  2  3  1  0  0  0  0
  3  4  2  0  0  0  0
  4  5  1  0  0  0  0
  4  8  1  0  0  0  0
  5  9  1  0  0  0  0
  6 10  1  0  0  0  0
  6  5  2  0  0  0  0
  7  6  1  0  0  0  0
 11 16  2  0  0  0  0
 11 12  1  0  0  0  0
 12 13  2  0  0  0  0
 13 14  1  0  0  0  0
 13 18  1  0  0  0  0
 15  3  1  0  0  0  0
 15 14  2  0  0  0  0
 16 15  1  0  0  0  0
 17 12  1  0  0  0  0
 19 20  1  0  0  0  0
 19 11  1  0  0  0  0
 21 19  1  0  0  0  0
 22  7  1  0  0  0  0
 22 24  1  0  0  0  0
 24 23  2  6  0  0  0
 24 27  1  0  0  0  0
 24 25  1  0  0  0  0
 25 26  1  0  0  0  0
 27 28  1  0  0  0  0
 28 34  1  0  0  0  0
 29 28  2  0  0  0  0
 29 30  1  0  0  0  0
 30 31  1  0  0  0  0
 30 32  2  0  0  0  0
 33 32  1  0  0  0  0
 34 33  2  0  0  0  0
M  END
>  <minimizedAffinity>
-6.17354155

$$$$

 OpenBabel03252506143D

 34 36  0  0  0  0  0  0  0  0999 V2000
   40.2770   30.3470   39.7270 F   0  0  0  0  0  0  0  0  0  0  0  0
   39.2260   31.1640   39.7460 C   0  0  0  0  0  0  0  0  0  0  0  0
   39.4330   32.5130   39.5700 C   0  0  0  0  0  0  0  0  0  0  0  0
   38.3880   33.4430   39.5750 C   0  0  0  0  0  0  0  0  0  0  0  0
   37.0820   32.9990   39.7610 C   0  0  0  0  0  0  0  0  0  0  0  0
   36.9230   31.6370   39.9330 C   0  0  0  0  0  0  0  0  0  0  0  0
   37.9240   30.7180   39.9340 C   0  0  0  0  0  0  0  0  0  0  0  0
   38.6150   34.5090   39.4290 H   0  0  0  0  0  0  0  0  0  0  0  0
   36.3230   33.7520   39.7550 H   0  0  0  0  0  0  0  0  0  0  0  0
   35.8620   31.4280   40.0600 H   0  0  0  0  0  0  0  0  0  0  0  0
   42.3830   33.9320   37.9130 C   0  0  0  0  0  0  0  0  0  0  0  0
   43.3060   34.0040   38.9740 C   0  0  0  0  0  0  0  0  0  0  0  0
   42.9110   33.5600   40.2760 C   0  0  0  0  0  0  0  0  0  0  0  0
   41.6340   33.0840   40.4030 N   0  0  0  0  0  0  0  0  0  0  0  0
   40.7890   33.0350   39.3630 C   0  0  0  0  0  0  0  0  0  0  0  0
   41.1640   33.4530   38.1450 N   0  0  0  0  0  0  0  0  0  0  0  0
   44.3200   34.3740   38.9000 H   0  0  0  0  0  0  0  0  0  0  0  0
   43.5690   33.5930   41.1110 H   0  0  0  0  0  0  0  0  0  0  0  0
   42.8090   34.3810   36.6520 N   0  0  0  0  0  0  0  0  0  0  0  0
   42.2130   35.2390   36.4780 H   0  0  0  0  0  0  0  0  0  0  0  0
   43.5410   33.9780   36.0190 H   0  0  0  0  0  0  0  0  0  0  0  0
   37.6530   29.3910   40.1160 O   0  0  0  0  0  0  0  0  0  0  0  0
   35.1840   28.8190   40.9010 O   0  0  0  0  0  0  0  0  0  0  0  0
   36.6400   28.7390   41.2840 P   0  0  2  0  0  0  0  0  0  0  0  0
   36.9070   29.5920   42.7530 O   0  0  0  0  0  0  0  0  0  0  0  0
   36.1500   30.1850   42.9740 H   0  0  0  0  0  0  0  0  0  0  0  0
   37.0040   27.1320   41.6660 O   0  0  0  0  0  0  0  0  0  0  0  0
   36.8570   26.0920   40.7610 C   0  0  0  0  0  0  0  0  0  0  0  0
   36.5910   26.3260   39.4290 C   0  0  0  0  0  3  0  0  0  0  0  0
   36.4680   25.1930   38.6320 C   0  0  0  0  0  0  0  0  0  0  0  0
   36.2600   25.2770   37.5790 H   0  0  0  0  0  0  0  0  0  0  0  0
   36.6020   23.9350   39.1380 N   0  0  0  0  0  0  0  0  0  0  0  0
   36.8610   23.7440   40.4410 C   0  0  0  0  0  3  0  0  0  0  0  0
   36.9800   24.8180   41.2060 N   0  0  0  0  0  0  0  0  0  0  0  0
  1  2  1  0  0  0  0
  2  7  1  0  0  0  0
  3  4  1  0  0  0  0
  3  2  2  0  0  0  0
  4  5  2  0  0  0  0
  5  6  1  0  0  0  0
  6  7  2  0  0  0  0
  6 10  1  0  0  0  0
  7 22  1  0  0  0  0
  8  4  1  0  0  0  0
  9  5  1  0  0  0  0
 11 16  2  0  0  0  0
 11 12  1  0  0  0  0
 12 13  2  0  0  0  0
 13 14  1  0  0  0  0
 13 18  1  0  0  0  0
 15  3  1  0  0  0  0
 15 14  2  0  0  0  0
 16 15  1  0  0  0  0
 17 12  1  0  0  0  0
 19 11  1  0  0  0  0
 20 19  1  0  0  0  0
 21 19  1  0  0  0  0
 22 24  1  0  0  0  0
 24 23  2  6  0  0  0
 24 27  1  0  0  0  0
 24 25  1  0  0  0  0
 25 26  1  0  0  0  0
 28 34  1  0  0  0  0
 28 27  1  0  0  0  0
 29 28  2  0  0  0  0
 30 32  2  0  0  0  0
 30 29  1  0  0  0  0
 31 30  1  0  0  0  0
 32 33  1  0  0  0  0
 33 34  2  0  0  0  0
M  END
>  <minimizedAffinity>
-6.0438242

$$$$

 OpenBabel03252506143D

 34 36  0  0  0  0  0  0  0  0999 V2000
   37.9040   27.6780   39.5230 F   0  0  0  0  0  0  0  0  0  0  0  0
   37.6320   27.7310   40.8250 C   0  0  0  0  0  0  0  0  0  0  0  0
   37.1990   26.5890   41.4580 C   0  0  0  0  0  0  0  0  0  0  0  0
   36.8920   26.5530   42.8230 C   0  0  0  0  0  0  0  0  0  0  0  0
   37.0260   27.7110   43.5810 C   0  0  0  0  0  0  0  0  0  0  0  0
   37.4640   28.8340   42.9040 C   0  0  0  0  0  0  0  0  0  0  0  0
   37.7660   28.8890   41.5800 C   0  0  0  0  0  0  0  0  0  0  0  0
   36.5500   25.6100   43.2730 H   0  0  0  0  0  0  0  0  0  0  0  0
   36.7790   27.6270   44.6180 H   0  0  0  0  0  0  0  0  0  0  0  0
   37.5310   29.6580   43.6110 H   0  0  0  0  0  0  0  0  0  0  0  0
   37.5860   23.0800   40.4560 C   0  0  0  0  0  0  0  0  0  0  0  0
   36.7640   23.0110   39.3150 C   0  0  0  0  0  0  0  0  0  0  0  0
   36.0670   24.1840   38.8840 C   0  0  0  0  0  0  0  0  0  0  0  0
   36.2510   25.3190   39.6270 N   0  0  0  0  0  0  0  0  0  0  0  0
   37.0450   25.3360   40.7070 C   0  0  0  0  0  0  0  0  0  0  0  0
   37.6960   24.2340   41.1070 N   0  0  0  0  0  0  0  0  0  0  0  0
   36.6010   22.1290   38.7100 H   0  0  0  0  0  0  0  0  0  0  0  0
   35.4330   24.1860   38.0290 H   0  0  0  0  0  0  0  0  0  0  0  0
   38.2510   21.9060   40.8470 N   0  0  0  0  0  0  0  0  0  0  0  0
   37.8020   21.6630   41.7760 H   0  0  0  0  0  0  0  0  0  0  0  0
   39.0110   21.3800   40.3530 H   0  0  0  0  0  0  0  0  0  0  0  0
   38.1890   30.0570   41.0100 O   0  0  0  0  0  0  0  0  0  0  0  0
   37.7970   32.6710   40.7800 O   0  0  0  0  0  0  0  0  0  0  0  0
   37.2090   31.3140   40.4830 P   0  0  2  0  0  0  0  0  0  0  0  0
   35.6820   31.1560   41.2580 O   0  0  0  0  0  0  0  0  0  0  0  0
   35.5490   31.8480   41.9470 H   0  0  0  0  0  0  0  0  0  0  0  0
   36.8480   31.2370   38.8330 O   0  0  0  0  0  0  0  0  0  0  0  0
   36.2940   30.1160   38.2360 C   0  0  0  0  0  0  0  0  0  0  0  0
   36.7550   29.6380   37.0280 C   0  0  0  0  0  3  0  0  0  0  0  0
   36.1090   28.5050   36.5440 C   0  0  0  0  0  0  0  0  0  0  0  0
   36.4000   28.0600   35.6070 H   0  0  0  0  0  0  0  0  0  0  0  0
   35.0890   27.9090   37.2210 N   0  0  0  0  0  0  0  0  0  0  0  0
   34.6650   28.4020   38.3950 C   0  0  0  0  0  3  0  0  0  0  0  0
   35.2750   29.4790   38.8630 N   0  0  0  0  0  0  0  0  0  0  0  0
  1  2  1  0  0  0  0
  2  3  2  0  0  0  0
  2  7  1  0  0  0  0
  3  4  1  0  0  0  0
  4  8  1  0  0  0  0
  4  5  2  0  0  0  0
  5  9  1  0  0  0  0
  6  5  1  0  0  0  0
  6 10  1  0  0  0  0
  7  6  2  0  0  0  0
 11 19  1  0  0  0  0
 11 16  1  0  0  0  0
 12 11  2  0  0  0  0
 13 12  1  0  0  0  0
 13 14  2  0  0  0  0
 14 15  1  0  0  0  0
 15 16  2  0  0  0  0
 15  3  1  0  0  0  0
 17 12  1  0  0  0  0
 18 13  1  0  0  0  0
 19 20  1  0  0  0  0
 21 19  1  0  0  0  0
 22  7  1  0  0  0  0
 24 23  2  1  0  0  0
 24 22  1  0  0  0  0
 24 25  1  0  0  0  0
 25 26  1  0  0  0  0
 27 24  1  0  0  0  0
 28 27  1  0  0  0  0
 28 34  1  0  0  0  0
 29 28  2  0  0  0  0
 30 29  1  0  0  0  0
 30 32  2  0  0  0  0
 31 30  1  0  0  0  0
 32 33  1  0  0  0  0
 33 34  2  0  0  0  0
M  END
>  <minimizedAffinity>
-6.01680708

$$$$

 OpenBabel03252506143D

 34 36  0  0  0  0  0  0  0  0999 V2000
   39.2220   28.4610   39.6970 F   0  0  0  0  0  0  0  0  0  0  0  0
   37.9380   28.6760   39.9740 C   0  0  0  0  0  0  0  0  0  0  0  0
   37.3810   28.0480   41.0640 C   0  0  0  0  0  0  0  0  0  0  0  0
   36.0410   28.2160   41.4290 C   0  0  0  0  0  0  0  0  0  0  0  0
   35.2290   29.0520   40.6690 C   0  0  0  0  0  0  0  0  0  0  0  0
   35.8310   29.6630   39.5850 C   0  0  0  0  0  0  0  0  0  0  0  0
   37.1290   29.5100   39.2130 C   0  0  0  0  0  0  0  0  0  0  0  0
   35.6520   27.6870   42.3110 H   0  0  0  0  0  0  0  0  0  0  0  0
   34.2140   29.1460   40.9930 H   0  0  0  0  0  0  0  0  0  0  0  0
   35.0920   30.2880   39.0880 H   0  0  0  0  0  0  0  0  0  0  0  0
   38.8860   24.9950   42.4350 C   0  0  0  0  0  0  0  0  0  0  0  0
   39.6990   25.5080   43.4640 C   0  0  0  0  0  0  0  0  0  0  0  0
   39.7320   26.9210   43.6900 C   0  0  0  0  0  0  0  0  0  0  0  0
   38.9530   27.6940   42.8720 N   0  0  0  0  0  0  0  0  0  0  0  0
   38.1940   27.1590   41.9040 C   0  0  0  0  0  0  0  0  0  0  0  0
   38.1670   25.8350   41.6970 N   0  0  0  0  0  0  0  0  0  0  0  0
   40.3230   24.9200   44.1240 H   0  0  0  0  0  0  0  0  0  0  0  0
   40.3290   27.3600   44.4530 H   0  0  0  0  0  0  0  0  0  0  0  0
   38.8840   23.6030   42.2450 N   0  0  0  0  0  0  0  0  0  0  0  0
   39.3350   23.4810   41.2940 H   0  0  0  0  0  0  0  0  0  0  0  0
   38.5270   22.8490   42.8790 H   0  0  0  0  0  0  0  0  0  0  0  0
   37.6220   30.1620   38.1170 O   0  0  0  0  0  0  0  0  0  0  0  0
   37.3200   32.7540   38.5980 O   0  0  0  0  0  0  0  0  0  0  0  0
   38.2810   31.7060   38.0970 P   0  0  2  0  0  0  0  0  0  0  0  0
   38.7460   32.0620   36.4800 O   0  0  0  0  0  0  0  0  0  0  0  0
   38.1450   32.7270   36.0660 H   0  0  0  0  0  0  0  0  0  0  0  0
   39.7190   31.8330   38.9790 O   0  0  0  0  0  0  0  0  0  0  0  0
   40.6610   32.8210   38.7430 C   0  0  0  0  0  0  0  0  0  0  0  0
   40.9380   33.7940   39.6790 C   0  0  0  0  0  3  0  0  0  0  0  0
   41.9070   34.7230   39.3120 C   0  0  0  0  0  0  0  0  0  0  0  0
   42.1890   35.5210   39.9780 H   0  0  0  0  0  0  0  0  0  0  0  0
   42.5380   34.6720   38.1060 N   0  0  0  0  0  0  0  0  0  0  0  0
   42.2430   33.7100   37.2180 C   0  0  0  0  0  3  0  0  0  0  0  0
   41.3230   32.8210   37.5600 N   0  0  0  0  0  0  0  0  0  0  0  0
  1  2  1  0  0  0  0
  2  3  1  0  0  0  0
  3  4  2  0  0  0  0
  3 15  1  0  0  0  0
  4  8  1  0  0  0  0
  5  9  1  0  0  0  0
  5  4  1  0  0  0  0
  6  5  2  0  0  0  0
  7  6  1  0  0  0  0
  7  2  2  0  0  0  0
 10  6  1  0  0  0  0
 11 12  1  0  0  0  0
 12 13  2  0  0  0  0
 12 17  1  0  0  0  0
 13 18  1  0  0  0  0
 14 13  1  0  0  0  0
 15 14  2  0  0  0  0
 16 15  1  0  0  0  0
 16 11  2  0  0  0  0
 19 11  1  0  0  0  0
 19 21  1  0  0  0  0
 20 19  1  0  0  0  0
 22  7  1  0  0  0  0
 24 22  1  0  0  0  0
 24 23  2  1  0  0  0
 24 27  1  0  0  0  0
 25 24  1  0  0  0  0
 26 25  1  0  0  0  0
 28 27  1  0  0  0  0
 28 29  1  0  0  0  0
 30 29  2  0  0  0  0
 30 31  1  0  0  0  0
 32 30  1  0  0  0  0
 33 34  1  0  0  0  0
 33 32  2  0  0  0  0
 34 28  2  0  0  0  0
M  END
>  <minimizedAffinity>
-5.99558735

$$$$

 OpenBabel03252506143D

 34 36  0  0  0  0  0  0  0  0999 V2000
   40.3730   30.3240   40.6340 F   0  0  0  0  0  0  0  0  0  0  0  0
   39.3250   31.1050   40.3850 C   0  0  0  0  0  0  0  0  0  0  0  0
   38.0820   30.7030   40.8150 C   0  0  0  0  0  0  0  0  0  0  0  0
   36.9260   31.4610   40.5980 C   0  0  0  0  0  0  0  0  0  0  0  0
   37.0250   32.6740   39.9240 C   0  0  0  0  0  0  0  0  0  0  0  0
   38.2930   33.0390   39.5120 C   0  0  0  0  0  0  0  0  0  0  0  0
   39.4270   32.3150   39.7110 C   0  0  0  0  0  0  0  0  0  0  0  0
   35.9600   31.0870   40.9650 H   0  0  0  0  0  0  0  0  0  0  0  0
   36.1120   33.2130   39.7860 H   0  0  0  0  0  0  0  0  0  0  0  0
   38.2280   34.0010   39.0090 H   0  0  0  0  0  0  0  0  0  0  0  0
   37.7430   27.1080   41.4710 C   0  0  0  0  0  0  0  0  0  0  0  0
   37.6170   27.0790   42.8730 C   0  0  0  0  0  0  0  0  0  0  0  0
   37.6510   28.3090   43.6040 C   0  0  0  0  0  0  0  0  0  0  0  0
   37.8050   29.4560   42.8730 N   0  0  0  0  0  0  0  0  0  0  0  0
   37.9200   29.4340   41.5370 C   0  0  0  0  0  0  0  0  0  0  0  0
   37.8890   28.2790   40.8570 N   0  0  0  0  0  0  0  0  0  0  0  0
   37.4950   26.1880   43.4740 H   0  0  0  0  0  0  0  0  0  0  0  0
   37.5610   28.3430   44.6630 H   0  0  0  0  0  0  0  0  0  0  0  0
   37.7080   25.8790   40.7920 N   0  0  0  0  0  0  0  0  0  0  0  0
   38.6870   25.7850   40.3970 H   0  0  0  0  0  0  0  0  0  0  0  0
   36.9150   25.2020   40.6890 H   0  0  0  0  0  0  0  0  0  0  0  0
   40.6330   32.7700   39.2570 O   0  0  0  0  0  0  0  0  0  0  0  0
   42.0970   33.7130   37.2550 O   0  0  0  0  0  0  0  0  0  0  0  0
   41.2590   32.5460   37.7160 P   0  0  2  0  0  0  0  0  0  0  0  0
   39.9410   32.3110   36.6370 O   0  0  0  0  0  0  0  0  0  0  0  0
   39.8030   33.0940   36.0530 H   0  0  0  0  0  0  0  0  0  0  0  0
   42.1780   31.1350   37.5640 O   0  0  0  0  0  0  0  0  0  0  0  0
   43.3920   31.0960   36.8950 C   0  0  0  0  0  0  0  0  0  0  0  0
   43.5450   30.3950   35.7180 C   0  0  0  0  0  3  0  0  0  0  0  0
   44.8150   30.4420   35.1520 C   0  0  0  0  0  0  0  0  0  0  0  0
   45.0310   29.9240   34.2320 H   0  0  0  0  0  0  0  0  0  0  0  0
   45.8380   31.1340   35.7260 N   0  0  0  0  0  0  0  0  0  0  0  0
   45.6520   31.8060   36.8730 C   0  0  0  0  0  3  0  0  0  0  0  0
   44.4460   31.7670   37.4170 N   0  0  0  0  0  0  0  0  0  0  0  0
  2  1  1  0  0  0  0
  2  3  1  0  0  0  0
  3 15  1  0  0  0  0
  4  3  2  0  0  0  0
  4  8  1  0  0  0  0
  5  4  1  0  0  0  0
  6  7  1  0  0  0  0
  6  5  2  0  0  0  0
  7  2  2  0  0  0  0
  9  5  1  0  0  0  0
 10  6  1  0  0  0  0
 11 12  1  0  0  0  0
 12 17  1  0  0  0  0
 12 13  2  0  0  0  0
 13 18  1  0  0  0  0
 14 13  1  0  0  0  0
 15 14  2  0  0  0  0
 16 11  2  0  0  0  0
 16 15  1  0  0  0  0
 19 11  1  0  0  0  0
 20 19  1  0  0  0  0
 21 19  1  0  0  0  0
 22  7  1  0  0  0  0
 24 23  2  6  0  0  0
 24 22  1  0  0  0  0
 25 24  1  0  0  0  0
 26 25  1  0  0  0  0
 27 24  1  0  0  0  0
 28 34  1  0  0  0  0
 28 27  1  0  0  0  0
 29 28  2  0  0  0  0
 30 29  1  0  0  0  0
 30 32  2  0  0  0  0
 31 30  1  0  0  0  0
 32 33  1  0  0  0  0
 33 34  2  0  0  0  0
M  END
>  <minimizedAffinity>
-5.94815969

$$$$

 OpenBabel03252506143D

 34 36  0  0  0  0  0  0  0  0999 V2000
   39.1480   27.6790   40.5330 F   0  0  0  0  0  0  0  0  0  0  0  0
   38.3880   27.6470   41.6250 C   0  0  0  0  0  0  0  0  0  0  0  0
   38.9950   27.5140   42.8520 C   0  0  0  0  0  0  0  0  0  0  0  0
   38.2740   27.4720   44.0510 C   0  0  0  0  0  0  0  0  0  0  0  0
   36.8870   27.5700   44.0140 C   0  0  0  0  0  0  0  0  0  0  0  0
   36.3200   27.7030   42.7600 C   0  0  0  0  0  0  0  0  0  0  0  0
   37.0030   27.7440   41.5850 C   0  0  0  0  0  0  0  0  0  0  0  0
   38.8160   27.3630   45.0010 H   0  0  0  0  0  0  0  0  0  0  0  0
   36.3860   27.5330   44.9580 H   0  0  0  0  0  0  0  0  0  0  0  0
   35.2410   27.7760   42.8760 H   0  0  0  0  0  0  0  0  0  0  0  0
   42.3510   26.0770   43.2260 C   0  0  0  0  0  0  0  0  0  0  0  0
   43.1690   27.2190   43.1350 C   0  0  0  0  0  0  0  0  0  0  0  0
   42.5610   28.5000   42.9410 C   0  0  0  0  0  0  0  0  0  0  0  0
   41.1940   28.5280   42.8570 N   0  0  0  0  0  0  0  0  0  0  0  0
   40.4570   27.4120   42.9500 C   0  0  0  0  0  0  0  0  0  0  0  0
   41.0320   26.2140   43.1310 N   0  0  0  0  0  0  0  0  0  0  0  0
   44.2490   27.2260   43.1990 H   0  0  0  0  0  0  0  0  0  0  0  0
   43.1320   29.3950   42.8650 H   0  0  0  0  0  0  0  0  0  0  0  0
   42.9870   24.8390   43.4140 N   0  0  0  0  0  0  0  0  0  0  0  0
   42.7900   24.3180   42.5120 H   0  0  0  0  0  0  0  0  0  0  0  0
   43.5330   24.4930   44.2390 H   0  0  0  0  0  0  0  0  0  0  0  0
   36.3390   27.8770   40.3980 O   0  0  0  0  0  0  0  0  0  0  0  0
   34.2130   29.1850   39.4990 O   0  0  0  0  0  0  0  0  0  0  0  0
   35.6910   29.2960   39.7790 P   0  0  2  0  0  0  0  0  0  0  0  0
   36.5340   29.6760   38.3290 O   0  0  0  0  0  0  0  0  0  0  0  0
   35.9750   29.5210   37.5310 H   0  0  0  0  0  0  0  0  0  0  0  0
   35.9470   30.6400   40.7730 O   0  0  0  0  0  0  0  0  0  0  0  0
   37.0610   31.4570   40.6600 C   0  0  0  0  0  0  0  0  0  0  0  0
   38.2360   31.1720   41.3210 C   0  0  0  0  0  3  0  0  0  0  0  0
   39.2750   32.0750   41.1180 C   0  0  0  0  0  0  0  0  0  0  0  0
   40.2310   31.9360   41.5940 H   0  0  0  0  0  0  0  0  0  0  0  0
   39.1360   33.1690   40.3180 N   0  0  0  0  0  0  0  0  0  0  0  0
   37.9760   33.4160   39.6890 C   0  0  0  0  0  3  0  0  0  0  0  0
   36.9840   32.5600   39.8770 N   0  0  0  0  0  0  0  0  0  0  0  0
  1  2  1  0  0  0  0
  2  3  1  0  0  0  0
  3 15  1  0  0  0  0
  3  4  2  0  0  0  0
  4  8  1  0  0  0  0
  5  4  1  0  0  0  0
  5  9  1  0  0  0  0
  6 10  1  0  0  0  0
  6  5  2  0  0  0  0
  7  2  2  0  0  0  0
  7  6  1  0  0  0  0
 11 19  1  0  0  0  0
 12 17  1  0  0  0  0
 12 11  1  0  0  0  0
 13 12  2  0  0  0  0
 14 13  1  0  0  0  0
 14 15  2  0  0  0  0
 15 16  1  0  0  0  0
 16 11  2  0  0  0  0
 18 13  1  0  0  0  0
 19 21  1  0  0  0  0
 20 19  1  0  0  0  0
 22  7  1  0  0  0  0
 24 23  2  6  0  0  0
 24 22  1  0  0  0  0
 24 27  1  0  0  0  0
 25 24  1  0  0  0  0
 26 25  1  0  0  0  0
 28 27  1  0  0  0  0
 28 29  1  0  0  0  0
 30 29  2  0  0  0  0
 30 31  1  0  0  0  0
 32 30  1  0  0  0  0
 33 34  1  0  0  0  0
 33 32  2  0  0  0  0
 34 28  2  0  0  0  0
M  END
>  <minimizedAffinity>
-5.87193441

$$$$
