
 OpenBabel03252508443D

 37 39  0  0  0  0  0  0  0  0999 V2000
   41.0040   32.2680   41.5770 C   0  0  0  0  0  0  0  0  0  0  0  0
   42.2690   31.7090   41.5430 C   0  0  0  0  0  0  0  0  0  0  0  0
   42.4690   30.4990   42.1780 C   0  0  0  0  0  0  0  0  0  0  0  0
   41.4350   29.8880   42.8170 C   0  0  0  0  0  0  0  0  0  0  0  0
   40.1820   30.4150   42.8670 C   0  0  0  0  0  0  0  0  0  0  0  0
   40.0150   31.6340   42.2170 C   0  0  0  0  0  0  0  0  0  0  0  0
   43.4430   30.0170   42.1800 H   0  0  0  0  0  0  0  0  0  0  0  0
   41.5710   28.9280   43.3270 H   0  0  0  0  0  0  0  0  0  0  0  0
   39.3000   29.9980   43.3530 H   0  0  0  0  0  0  0  0  0  0  0  0
   39.0540   32.1330   42.2000 H   0  0  0  0  0  0  0  0  0  0  0  0
   40.4920   34.9790   38.9930 C   0  0  0  0  0  0  0  0  0  0  0  0
   40.6270   33.6860   39.5370 C   0  0  0  0  0  0  0  0  0  0  0  0
   40.8460   33.5500   40.8890 C   0  0  0  0  0  0  0  0  0  0  0  0
   40.9180   34.6880   41.6130 N   0  0  0  0  0  0  0  0  0  0  0  0
   40.7900   35.9260   41.0990 C   0  0  0  0  0  0  0  0  0  0  0  0
   40.5750   36.0620   39.7710 N   0  0  0  0  0  0  0  0  0  0  0  0
   40.3210   35.0700   37.9330 H   0  0  0  0  0  0  0  0  0  0  0  0
   40.5680   32.7840   38.9470 H   0  0  0  0  0  0  0  0  0  0  0  0
   40.8760   36.7290   41.8310 H   0  0  0  0  0  0  0  0  0  0  0  0
   43.3850   32.3990   40.8350 C   0  0  0  0  0  0  0  0  0  0  0  0
   43.0030   33.0560   40.0200 H   0  0  0  0  0  0  0  0  0  0  0  0
   43.9630   31.5920   40.3230 H   0  0  0  0  0  0  0  0  0  0  0  0
   44.3090   33.0720   41.7030 N   0  0  0  0  0  0  0  0  0  0  0  0
   43.9470   33.3490   42.6200 H   0  0  0  0  0  0  0  0  0  0  0  0
   44.9130   34.5260   41.0130 S   0  0  0  0  0  0  0  0  0  0  0  0
   43.8260   35.2820   40.3110 O   0  0  0  0  0  0  0  0  0  0  0  0
   43.0700   35.6860   40.8170 H   0  0  0  0  0  0  0  0  0  0  0  0
   46.0490   34.2670   40.0850 O   0  0  0  0  0  0  0  0  0  0  0  0
   46.0850   33.4740   39.4800 H   0  0  0  0  0  0  0  0  0  0  0  0
   45.4670   35.4610   42.2960 O   0  0  0  0  0  0  0  0  0  0  0  0
   45.3940   35.0270   43.6120 C   0  0  0  0  0  0  0  0  0  0  0  0
   44.5710   35.7330   44.4610 C   0  0  0  0  0  0  0  0  0  0  0  0
   44.5490   35.2360   45.7680 C   0  0  0  0  0  0  0  0  0  0  0  0
   43.9510   35.6790   46.5640 H   0  0  0  0  0  0  0  0  0  0  0  0
   45.2680   34.1560   46.1850 N   0  0  0  0  0  0  0  0  0  0  0  0
   46.0420   33.5290   45.2980 C   0  0  0  0  0  0  0  0  0  0  0  0
   46.1060   33.9540   44.0320 N   0  0  0  0  0  0  0  0  0  0  0  0
  1  6  1  0  0  0  0
  2  1  2  0  0  0  0
  2  3  1  0  0  0  0
  3  7  1  0  0  0  0
  3  4  2  0  0  0  0
  4  5  1  0  0  0  0
  4  8  1  0  0  0  0
  5  9  1  0  0  0  0
  6  5  2  0  0  0  0
 10  6  1  0  0  0  0
 11 12  2  0  0  0  0
 11 16  1  0  0  0  0
 12 13  1  0  0  0  0
 13  1  1  0  0  0  0
 13 14  2  0  0  0  0
 15 14  1  0  0  0  0
 15 19  1  0  0  0  0
 16 15  2  0  0  0  0
 17 11  1  0  0  0  0
 18 12  1  0  0  0  0
 20  2  1  0  0  0  0
 20 23  1  0  0  0  0
 21 20  1  0  0  0  0
 22 20  1  0  0  0  0
 23 24  1  0  0  0  0
 25 23  1  0  0  0  0
 25 30  1  0  0  0  0
 26 27  1  0  0  0  0
 26 25  1  0  0  0  0
 28 25  1  0  0  0  0
 29 28  1  0  0  0  0
 30 31  1  0  0  0  0
 31 37  2  0  0  0  0
 31 32  1  0  0  0  0
 32 33  2  0  0  0  0
 33 35  1  0  0  0  0
 33 34  1  0  0  0  0
 36 35  2  0  0  0  0
 37 36  1  0  0  0  0
M  END
>  <minimizedAffinity>
-5.40513754

>  <minimizedRMSD>
4.71427011

$$$$
