
 OpenBabel03252508443D

 37 39  0  0  0  0  0  0  0  0999 V2000
   37.0460   30.7870   38.5250 C   0  0  0  0  0  0  0  0  0  0  0  0
   36.1590   29.9960   39.2340 C   0  0  0  0  0  0  0  0  0  0  0  0
   35.4660   29.0150   38.5520 C   0  0  0  0  0  0  0  0  0  0  0  0
   35.6640   28.8470   37.2170 C   0  0  0  0  0  0  0  0  0  0  0  0
   36.5290   29.6100   36.4960 C   0  0  0  0  0  0  0  0  0  0  0  0
   37.2110   30.5890   37.2130 C   0  0  0  0  0  0  0  0  0  0  0  0
   34.7580   28.3670   39.0620 H   0  0  0  0  0  0  0  0  0  0  0  0
   35.1250   28.0760   36.6560 H   0  0  0  0  0  0  0  0  0  0  0  0
   36.7490   29.5460   35.4300 H   0  0  0  0  0  0  0  0  0  0  0  0
   37.9210   31.2460   36.7270 H   0  0  0  0  0  0  0  0  0  0  0  0
   38.1330   34.0170   40.1610 C   0  0  0  0  0  0  0  0  0  0  0  0
   37.3640   33.1270   39.3860 C   0  0  0  0  0  0  0  0  0  0  0  0
   37.7540   31.8110   39.2950 C   0  0  0  0  0  0  0  0  0  0  0  0
   38.8710   31.4580   39.9690 N   0  0  0  0  0  0  0  0  0  0  0  0
   39.6110   32.3040   40.7110 C   0  0  0  0  0  0  0  0  0  0  0  0
   39.2290   33.5970   40.8010 N   0  0  0  0  0  0  0  0  0  0  0  0
   37.8150   35.0450   40.2230 H   0  0  0  0  0  0  0  0  0  0  0  0
   36.4730   33.4220   38.8520 H   0  0  0  0  0  0  0  0  0  0  0  0
   40.4800   31.8460   41.1850 H   0  0  0  0  0  0  0  0  0  0  0  0
   35.9620   30.2020   40.6970 C   0  0  0  0  0  0  0  0  0  0  0  0
   35.1340   30.9200   40.8980 H   0  0  0  0  0  0  0  0  0  0  0  0
   36.8900   30.7060   41.0590 H   0  0  0  0  0  0  0  0  0  0  0  0
   35.8390   28.9870   41.4530 N   0  0  0  0  0  0  0  0  0  0  0  0
   35.0780   28.9560   42.1370 H   0  0  0  0  0  0  0  0  0  0  0  0
   37.2580   28.6350   42.3570 S   0  0  0  0  0  0  0  0  0  0  0  0
   37.2440   29.3400   43.6790 O   0  0  0  0  0  0  0  0  0  0  0  0
   36.5820   29.1020   44.3830 H   0  0  0  0  0  0  0  0  0  0  0  0
   38.4950   28.9740   41.5990 O   0  0  0  0  0  0  0  0  0  0  0  0
   38.5670   29.7760   41.0090 H   0  0  0  0  0  0  0  0  0  0  0  0
   37.2350   26.9770   42.6390 O   0  0  0  0  0  0  0  0  0  0  0  0
   37.1540   26.0530   41.6080 C   0  0  0  0  0  0  0  0  0  0  0  0
   36.9290   24.7400   41.9580 C   0  0  0  0  0  3  0  0  0  0  0  0
   36.8590   23.8690   40.8650 C   0  0  0  0  0  0  0  0  0  0  0  0
   36.6870   22.7980   40.9670 H   0  0  0  0  0  0  0  0  0  0  0  0
   36.9970   24.2620   39.5680 N   0  0  0  0  0  0  0  0  0  0  0  0
   37.2140   25.5540   39.3150 C   0  0  0  0  0  3  0  0  0  0  0  0
   37.2910   26.4370   40.3160 N   0  0  0  0  0  0  0  0  0  0  0  0
  1  2  1  0  0  0  0
  1 13  1  0  0  0  0
  2 20  1  0  0  0  0
  3  7  1  0  0  0  0
  3  2  2  0  0  0  0
  4  3  1  0  0  0  0
  5  6  1  0  0  0  0
  5  4  2  0  0  0  0
  6  1  2  0  0  0  0
  8  4  1  0  0  0  0
  9  5  1  0  0  0  0
 10  6  1  0  0  0  0
 11 17  1  0  0  0  0
 11 16  1  0  0  0  0
 12 11  2  0  0  0  0
 13 12  1  0  0  0  0
 13 14  2  0  0  0  0
 14 15  1  0  0  0  0
 15 16  2  0  0  0  0
 15 19  1  0  0  0  0
 18 12  1  0  0  0  0
 20 21  1  0  0  0  0
 20 22  1  0  0  0  0
 20 23  1  0  0  0  0
 23 24  1  0  0  0  0
 23 25  1  0  0  0  0
 25 30  1  0  0  0  0
 25 26  1  0  0  0  0
 26 27  1  0  0  0  0
 28 25  1  0  0  0  0
 29 28  1  0  0  0  0
 31 32  1  0  0  0  0
 31 30  1  0  0  0  0
 33 34  1  0  0  0  0
 33 32  2  0  0  0  0
 35 33  1  0  0  0  0
 36 35  2  0  0  0  0
 36 37  1  0  0  0  0
 37 31  2  0  0  0  0
M  END
>  <minimizedAffinity>
-5.95551014

$$$$

 OpenBabel03252508443D

 37 39  0  0  0  0  0  0  0  0999 V2000
   36.6790   27.4410   40.1150 C   0  0  0  0  0  0  0  0  0  0  0  0
   36.1530   28.3500   41.0160 C   0  0  0  0  0  0  0  0  0  0  0  0
   36.3610   28.1330   42.3640 C   0  0  0  0  0  0  0  0  0  0  0  0
   37.0680   27.0460   42.7760 C   0  0  0  0  0  0  0  0  0  0  0  0
   37.5950   26.1360   41.9130 C   0  0  0  0  0  0  0  0  0  0  0  0
   37.3680   26.3850   40.5620 C   0  0  0  0  0  0  0  0  0  0  0  0
   35.9700   28.8170   43.1130 H   0  0  0  0  0  0  0  0  0  0  0  0
   37.2440   26.8540   43.8400 H   0  0  0  0  0  0  0  0  0  0  0  0
   38.1710   25.2420   42.1520 H   0  0  0  0  0  0  0  0  0  0  0  0
   37.7470   25.7180   39.7980 H   0  0  0  0  0  0  0  0  0  0  0  0
   35.1630   27.6890   36.6610 C   0  0  0  0  0  0  0  0  0  0  0  0
   35.2820   27.3660   38.0270 C   0  0  0  0  0  0  0  0  0  0  0  0
   36.4300   27.7180   38.7000 C   0  0  0  0  0  0  0  0  0  0  0  0
   37.3810   28.3620   37.9890 N   0  0  0  0  0  0  0  0  0  0  0  0
   37.2730   28.6740   36.6820 C   0  0  0  0  0  0  0  0  0  0  0  0
   36.1470   28.3290   36.0200 N   0  0  0  0  0  0  0  0  0  0  0  0
   34.2590   27.4070   36.1470 H   0  0  0  0  0  0  0  0  0  0  0  0
   34.5150   26.8500   38.5840 H   0  0  0  0  0  0  0  0  0  0  0  0
   38.1390   29.1950   36.2710 H   0  0  0  0  0  0  0  0  0  0  0  0
   35.3830   29.5330   40.5370 C   0  0  0  0  0  0  0  0  0  0  0  0
   34.2850   29.3580   40.6060 H   0  0  0  0  0  0  0  0  0  0  0  0
   35.6060   29.6180   39.4460 H   0  0  0  0  0  0  0  0  0  0  0  0
   35.7840   30.7780   41.1300 N   0  0  0  0  0  0  0  0  0  0  0  0
   35.0400   31.4600   41.2950 H   0  0  0  0  0  0  0  0  0  0  0  0
   36.9410   31.6150   40.1710 S   0  0  0  0  0  0  0  0  0  0  0  0
   36.8510   33.0950   40.3870 O   0  0  0  0  0  0  0  0  0  0  0  0
   37.0930   33.5030   41.2620 H   0  0  0  0  0  0  0  0  0  0  0  0
   36.7970   31.2900   38.7240 O   0  0  0  0  0  0  0  0  0  0  0  0
   35.9120   31.1560   38.2830 H   0  0  0  0  0  0  0  0  0  0  0  0
   38.4510   31.0910   40.6940 O   0  0  0  0  0  0  0  0  0  0  0  0
   39.6120   31.8050   40.4340 C   0  0  0  0  0  0  0  0  0  0  0  0
   40.6050   31.7560   41.3860 C   0  0  0  0  0  3  0  0  0  0  0  0
   41.7430   32.4990   41.0520 C   0  0  0  0  0  0  0  0  0  0  0  0
   42.6190   32.5670   41.6960 H   0  0  0  0  0  0  0  0  0  0  0  0
   41.8770   33.2110   39.8980 N   0  0  0  0  0  0  0  0  0  0  0  0
   40.8650   33.2050   39.0290 C   0  0  0  0  0  3  0  0  0  0  0  0
   39.7500   32.5150   39.2880 N   0  0  0  0  0  0  0  0  0  0  0  0
  1  6  2  0  0  0  0
  1  2  1  0  0  0  0
  2  3  2  0  0  0  0
  3  4  1  0  0  0  0
  3  7  1  0  0  0  0
  4  8  1  0  0  0  0
  5  9  1  0  0  0  0
  5  4  2  0  0  0  0
  6  5  1  0  0  0  0
 10  6  1  0  0  0  0
 11 12  1  0  0  0  0
 12 18  1  0  0  0  0
 12 13  2  0  0  0  0
 13  1  1  0  0  0  0
 14 13  1  0  0  0  0
 15 14  2  0  0  0  0
 16 11  2  0  0  0  0
 16 15  1  0  0  0  0
 17 11  1  0  0  0  0
 19 15  1  0  0  0  0
 20 21  1  0  0  0  0
 20  2  1  0  0  0  0
 20 23  1  0  0  0  0
 22 20  1  0  0  0  0
 23 24  1  0  0  0  0
 25 26  1  0  0  0  0
 25 30  1  0  0  0  0
 25 23  1  0  0  0  0
 26 27  1  0  0  0  0
 28 25  1  0  0  0  0
 29 28  1  0  0  0  0
 31 30  1  0  0  0  0
 31 32  1  0  0  0  0
 33 32  2  0  0  0  0
 33 34  1  0  0  0  0
 35 33  1  0  0  0  0
 36 37  1  0  0  0  0
 36 35  2  0  0  0  0
 37 31  2  0  0  0  0
M  END
>  <minimizedAffinity>
-5.70790339

$$$$

 OpenBabel03252508443D

 37 39  0  0  0  0  0  0  0  0999 V2000
   36.7820   28.2890   40.7530 C   0  0  0  0  0  0  0  0  0  0  0  0
   37.1100   29.3670   41.5550 C   0  0  0  0  0  0  0  0  0  0  0  0
   37.4840   29.1230   42.8620 C   0  0  0  0  0  0  0  0  0  0  0  0
   37.5230   27.8470   43.3300 C   0  0  0  0  0  0  0  0  0  0  0  0
   37.2070   26.7680   42.5640 C   0  0  0  0  0  0  0  0  0  0  0  0
   36.8340   27.0490   41.2530 C   0  0  0  0  0  0  0  0  0  0  0  0
   37.7510   29.9350   43.5340 H   0  0  0  0  0  0  0  0  0  0  0  0
   37.8170   27.6300   44.3630 H   0  0  0  0  0  0  0  0  0  0  0  0
   37.2100   25.7170   42.8540 H   0  0  0  0  0  0  0  0  0  0  0  0
   36.5640   26.2580   40.5650 H   0  0  0  0  0  0  0  0  0  0  0  0
   34.8500   29.0760   37.6010 C   0  0  0  0  0  0  0  0  0  0  0  0
   35.0950   28.7770   38.9550 C   0  0  0  0  0  0  0  0  0  0  0  0
   36.3930   28.6030   39.3780 C   0  0  0  0  0  0  0  0  0  0  0  0
   37.3610   28.7350   38.4440 N   0  0  0  0  0  0  0  0  0  0  0  0
   37.1330   29.0210   37.1480 C   0  0  0  0  0  0  0  0  0  0  0  0
   35.8590   29.1920   36.7320 N   0  0  0  0  0  0  0  0  0  0  0  0
   33.8280   29.2090   37.2850 H   0  0  0  0  0  0  0  0  0  0  0  0
   34.3120   28.6740   39.6920 H   0  0  0  0  0  0  0  0  0  0  0  0
   38.0340   29.0900   36.5370 H   0  0  0  0  0  0  0  0  0  0  0  0
   37.0590   30.7570   41.0170 C   0  0  0  0  0  0  0  0  0  0  0  0
   36.7100   31.4790   41.7900 H   0  0  0  0  0  0  0  0  0  0  0  0
   36.2630   30.7480   40.2330 H   0  0  0  0  0  0  0  0  0  0  0  0
   38.2650   31.1820   40.3640 N   0  0  0  0  0  0  0  0  0  0  0  0
   39.0740   31.3440   40.9700 H   0  0  0  0  0  0  0  0  0  0  0  0
   38.0570   32.6580   39.5070 S   0  0  0  0  0  0  0  0  0  0  0  0
   37.0880   33.5590   40.2110 O   0  0  0  0  0  0  0  0  0  0  0  0
   37.3040   33.9560   41.0970 H   0  0  0  0  0  0  0  0  0  0  0  0
   37.6240   32.4240   38.1010 O   0  0  0  0  0  0  0  0  0  0  0  0
   36.9860   31.7010   37.8430 H   0  0  0  0  0  0  0  0  0  0  0  0
   39.5630   33.4070   39.4900 O   0  0  0  0  0  0  0  0  0  0  0  0
   40.5780   33.0070   38.6340 C   0  0  0  0  0  0  0  0  0  0  0  0
   41.5590   33.9310   38.3470 C   0  0  0  0  0  3  0  0  0  0  0  0
   42.5460   33.4530   37.4800 C   0  0  0  0  0  0  0  0  0  0  0  0
   43.3930   34.0570   37.1510 H   0  0  0  0  0  0  0  0  0  0  0  0
   42.5570   32.1960   36.9550 N   0  0  0  0  0  0  0  0  0  0  0  0
   41.5690   31.3630   37.2840 C   0  0  0  0  0  3  0  0  0  0  0  0
   40.5940   31.7580   38.1100 N   0  0  0  0  0  0  0  0  0  0  0  0
  1  6  2  0  0  0  0
  1  2  1  0  0  0  0
  2  3  2  0  0  0  0
  3  4  1  0  0  0  0
  3  7  1  0  0  0  0
  4  8  1  0  0  0  0
  5  9  1  0  0  0  0
  5  4  2  0  0  0  0
  6  5  1  0  0  0  0
 10  6  1  0  0  0  0
 11 12  1  0  0  0  0
 12 13  2  0  0  0  0
 12 18  1  0  0  0  0
 13  1  1  0  0  0  0
 14 13  1  0  0  0  0
 15 14  2  0  0  0  0
 16 15  1  0  0  0  0
 16 11  2  0  0  0  0
 17 11  1  0  0  0  0
 19 15  1  0  0  0  0
 20  2  1  0  0  0  0
 20 21  1  0  0  0  0
 22 20  1  0  0  0  0
 23 24  1  0  0  0  0
 23 20  1  0  0  0  0
 25 26  1  0  0  0  0
 25 23  1  0  0  0  0
 26 27  1  0  0  0  0
 28 25  1  0  0  0  0
 29 28  1  0  0  0  0
 30 25  1  0  0  0  0
 31 30  1  0  0  0  0
 32 31  1  0  0  0  0
 33 32  2  0  0  0  0
 34 33  1  0  0  0  0
 35 36  2  0  0  0  0
 35 33  1  0  0  0  0
 36 37  1  0  0  0  0
 37 31  2  0  0  0  0
M  END
>  <minimizedAffinity>
-5.68401718

$$$$

 OpenBabel03252508443D

 37 39  0  0  0  0  0  0  0  0999 V2000
   39.9130   28.4170   42.3890 C   0  0  0  0  0  0  0  0  0  0  0  0
   38.8310   29.2780   42.3420 C   0  0  0  0  0  0  0  0  0  0  0  0
   39.0670   30.6350   42.4410 C   0  0  0  0  0  0  0  0  0  0  0  0
   40.3400   31.0940   42.5810 C   0  0  0  0  0  0  0  0  0  0  0  0
   41.4220   30.2710   42.6310 C   0  0  0  0  0  0  0  0  0  0  0  0
   41.1480   28.9100   42.5280 C   0  0  0  0  0  0  0  0  0  0  0  0
   38.2520   31.3540   42.4100 H   0  0  0  0  0  0  0  0  0  0  0  0
   40.5510   32.1660   42.6620 H   0  0  0  0  0  0  0  0  0  0  0  0
   42.4700   30.5490   42.7400 H   0  0  0  0  0  0  0  0  0  0  0  0
   41.9430   28.1750   42.5570 H   0  0  0  0  0  0  0  0  0  0  0  0
   39.2640   24.7620   43.1060 C   0  0  0  0  0  0  0  0  0  0  0  0
   39.5710   26.1160   43.3420 C   0  0  0  0  0  0  0  0  0  0  0  0
   39.6070   26.9900   42.2800 C   0  0  0  0  0  0  0  0  0  0  0  0
   39.3380   26.4760   41.0590 N   0  0  0  0  0  0  0  0  0  0  0  0
   39.0430   25.1830   40.8260 C   0  0  0  0  0  0  0  0  0  0  0  0
   39.0090   24.3240   41.8690 N   0  0  0  0  0  0  0  0  0  0  0  0
   39.2400   24.0900   43.9480 H   0  0  0  0  0  0  0  0  0  0  0  0
   39.7850   26.5140   44.3230 H   0  0  0  0  0  0  0  0  0  0  0  0
   38.8540   24.9460   39.7790 H   0  0  0  0  0  0  0  0  0  0  0  0
   37.4460   28.7480   42.1870 C   0  0  0  0  0  0  0  0  0  0  0  0
   36.7330   29.2700   42.8650 H   0  0  0  0  0  0  0  0  0  0  0  0
   37.4840   27.6920   42.5490 H   0  0  0  0  0  0  0  0  0  0  0  0
   36.9820   28.6940   40.8290 N   0  0  0  0  0  0  0  0  0  0  0  0
   37.7000   28.7720   40.1040 H   0  0  0  0  0  0  0  0  0  0  0  0
   35.8580   29.9450   40.4730 S   0  0  0  0  0  0  0  0  0  0  0  0
   35.7150   30.8860   41.6310 O   0  0  0  0  0  0  0  0  0  0  0  0
   36.4690   31.4700   41.9180 H   0  0  0  0  0  0  0  0  0  0  0  0
   34.5300   29.3990   40.0780 O   0  0  0  0  0  0  0  0  0  0  0  0
   34.1290   28.5900   40.5010 H   0  0  0  0  0  0  0  0  0  0  0  0
   36.5010   30.7970   39.1730 O   0  0  0  0  0  0  0  0  0  0  0  0
   37.5410   31.7020   39.3240 C   0  0  0  0  0  0  0  0  0  0  0  0
   38.7520   31.3660   38.7590 C   0  0  0  0  0  3  0  0  0  0  0  0
   39.7500   32.3270   38.9520 C   0  0  0  0  0  0  0  0  0  0  0  0
   40.7640   32.2170   38.5700 H   0  0  0  0  0  0  0  0  0  0  0  0
   39.5630   33.4930   39.6320 N   0  0  0  0  0  0  0  0  0  0  0  0
   38.3590   33.7410   40.1490 C   0  0  0  0  0  3  0  0  0  0  0  0
   37.3620   32.8620   39.9990 N   0  0  0  0  0  0  0  0  0  0  0  0
  1  6  1  0  0  0  0
  2  1  2  0  0  0  0
  2  3  1  0  0  0  0
  3  4  2  0  0  0  0
  4  5  1  0  0  0  0
  4  8  1  0  0  0  0
  5  9  1  0  0  0  0
  6 10  1  0  0  0  0
  6  5  2  0  0  0  0
  7  3  1  0  0  0  0
 11 12  1  0  0  0  0
 11 17  1  0  0  0  0
 12 18  1  0  0  0  0
 13  1  1  0  0  0  0
 13 12  2  0  0  0  0
 14 13  1  0  0  0  0
 15 14  2  0  0  0  0
 15 16  1  0  0  0  0
 16 11  2  0  0  0  0
 19 15  1  0  0  0  0
 20  2  1  0  0  0  0
 20 22  1  0  0  0  0
 20 21  1  0  0  0  0
 23 20  1  0  0  0  0
 24 23  1  0  0  0  0
 25 23  1  0  0  0  0
 25 26  1  0  0  0  0
 26 27  1  0  0  0  0
 28 25  1  0  0  0  0
 28 29  1  0  0  0  0
 30 31  1  0  0  0  0
 30 25  1  0  0  0  0
 31 37  1  0  0  0  0
 32 33  1  0  0  0  0
 32 31  2  0  0  0  0
 33 35  2  0  0  0  0
 34 33  1  0  0  0  0
 35 36  1  0  0  0  0
 37 36  2  0  0  0  0
M  END
>  <minimizedAffinity>
-5.65515757

$$$$

 OpenBabel03252508443D

 37 39  0  0  0  0  0  0  0  0999 V2000
   36.4330   27.4500   40.0190 C   0  0  0  0  0  0  0  0  0  0  0  0
   36.0710   28.4230   40.9330 C   0  0  0  0  0  0  0  0  0  0  0  0
   36.3130   28.1870   42.2730 C   0  0  0  0  0  0  0  0  0  0  0  0
   36.8940   27.0210   42.6630 C   0  0  0  0  0  0  0  0  0  0  0  0
   37.2590   26.0470   41.7870 C   0  0  0  0  0  0  0  0  0  0  0  0
   37.0020   26.3160   40.4450 C   0  0  0  0  0  0  0  0  0  0  0  0
   36.0480   28.9190   43.0320 H   0  0  0  0  0  0  0  0  0  0  0  0
   37.0950   26.8130   43.7200 H   0  0  0  0  0  0  0  0  0  0  0  0
   37.7270   25.0880   42.0080 H   0  0  0  0  0  0  0  0  0  0  0  0
   37.2570   25.6030   39.6710 H   0  0  0  0  0  0  0  0  0  0  0  0
   34.8100   27.8430   36.6280 C   0  0  0  0  0  0  0  0  0  0  0  0
   34.9530   27.5090   37.9890 C   0  0  0  0  0  0  0  0  0  0  0  0
   36.1550   27.7500   38.6140 C   0  0  0  0  0  0  0  0  0  0  0  0
   37.1330   28.3000   37.8630 N   0  0  0  0  0  0  0  0  0  0  0  0
   37.0030   28.6220   36.5610 C   0  0  0  0  0  0  0  0  0  0  0  0
   35.8240   28.3860   35.9460 N   0  0  0  0  0  0  0  0  0  0  0  0
   33.8630   27.6490   36.1520 H   0  0  0  0  0  0  0  0  0  0  0  0
   34.1620   27.0690   38.5780 H   0  0  0  0  0  0  0  0  0  0  0  0
   37.8970   29.0580   36.1140 H   0  0  0  0  0  0  0  0  0  0  0  0
   35.4370   29.6930   40.4780 C   0  0  0  0  0  0  0  0  0  0  0  0
   34.3270   29.6030   40.4460 H   0  0  0  0  0  0  0  0  0  0  0  0
   35.7580   29.8280   39.4170 H   0  0  0  0  0  0  0  0  0  0  0  0
   35.8790   30.8610   41.1870 N   0  0  0  0  0  0  0  0  0  0  0  0
   35.1640   31.5660   41.3860 H   0  0  0  0  0  0  0  0  0  0  0  0
   37.1100   31.7110   40.3400 S   0  0  0  0  0  0  0  0  0  0  0  0
   36.7890   33.1720   40.2450 O   0  0  0  0  0  0  0  0  0  0  0  0
   36.7710   33.7490   41.0560 H   0  0  0  0  0  0  0  0  0  0  0  0
   37.3420   31.1400   38.9840 O   0  0  0  0  0  0  0  0  0  0  0  0
   36.6050   30.7940   38.4070 H   0  0  0  0  0  0  0  0  0  0  0  0
   38.5130   31.5330   41.2490 O   0  0  0  0  0  0  0  0  0  0  0  0
   39.1640   30.3140   41.3740 C   0  0  0  0  0  0  0  0  0  0  0  0
   39.5340   29.9270   42.6430 C   0  0  0  0  0  3  0  0  0  0  0  0
   40.1830   28.6890   42.6880 C   0  0  0  0  0  0  0  0  0  0  0  0
   40.5420   28.2380   43.6120 H   0  0  0  0  0  0  0  0  0  0  0  0
   40.4350   27.9210   41.5910 N   0  0  0  0  0  0  0  0  0  0  0  0
   40.0430   28.3700   40.3980 C   0  0  0  0  0  3  0  0  0  0  0  0
   39.4170   29.5460   40.2870 N   0  0  0  0  0  0  0  0  0  0  0  0
  1  6  2  0  0  0  0
  1  2  1  0  0  0  0
  2  3  2  0  0  0  0
  3  4  1  0  0  0  0
  3  7  1  0  0  0  0
  4  8  1  0  0  0  0
  5  9  1  0  0  0  0
  5  4  2  0  0  0  0
  6  5  1  0  0  0  0
 10  6  1  0  0  0  0
 11 12  1  0  0  0  0
 12 18  1  0  0  0  0
 12 13  2  0  0  0  0
 13  1  1  0  0  0  0
 14 13  1  0  0  0  0
 15 14  2  0  0  0  0
 16 15  1  0  0  0  0
 16 11  2  0  0  0  0
 17 11  1  0  0  0  0
 19 15  1  0  0  0  0
 20  2  1  0  0  0  0
 20 23  1  0  0  0  0
 21 20  1  0  0  0  0
 22 20  1  0  0  0  0
 23 24  1  0  0  0  0
 25 23  1  0  0  0  0
 25 30  1  0  0  0  0
 26 25  1  0  0  0  0
 26 27  1  0  0  0  0
 28 25  1  0  0  0  0
 29 28  1  0  0  0  0
 30 31  1  0  0  0  0
 31 32  1  0  0  0  0
 32 33  2  0  0  0  0
 33 34  1  0  0  0  0
 35 33  1  0  0  0  0
 36 35  2  0  0  0  0
 37 36  1  0  0  0  0
 37 31  2  0  0  0  0
M  END
>  <minimizedAffinity>
-5.63618612

$$$$

 OpenBabel03252508443D

 37 39  0  0  0  0  0  0  0  0999 V2000
   38.3050   25.7560   41.8070 C   0  0  0  0  0  0  0  0  0  0  0  0
   37.9050   26.8130   42.6040 C   0  0  0  0  0  0  0  0  0  0  0  0
   38.7890   27.2940   43.5500 C   0  0  0  0  0  0  0  0  0  0  0  0
   40.0200   26.7290   43.6790 C   0  0  0  0  0  0  0  0  0  0  0  0
   40.4400   25.6890   42.9090 C   0  0  0  0  0  0  0  0  0  0  0  0
   39.5240   25.2280   41.9660 C   0  0  0  0  0  0  0  0  0  0  0  0
   38.5240   28.1230   44.2010 H   0  0  0  0  0  0  0  0  0  0  0  0
   40.7370   27.0940   44.4220 H   0  0  0  0  0  0  0  0  0  0  0  0
   41.4020   25.1770   42.9430 H   0  0  0  0  0  0  0  0  0  0  0  0
   39.7660   24.4050   41.3060 H   0  0  0  0  0  0  0  0  0  0  0  0
   35.7640   23.7340   39.8720 C   0  0  0  0  0  0  0  0  0  0  0  0
   36.6830   24.0730   40.8850 C   0  0  0  0  0  0  0  0  0  0  0  0
   37.3310   25.2850   40.8220 C   0  0  0  0  0  0  0  0  0  0  0  0
   37.0350   26.0810   39.7720 N   0  0  0  0  0  0  0  0  0  0  0  0
   36.1580   25.7630   38.8000 C   0  0  0  0  0  0  0  0  0  0  0  0
   35.5210   24.5730   38.8600 N   0  0  0  0  0  0  0  0  0  0  0  0
   35.2650   22.7810   39.9340 H   0  0  0  0  0  0  0  0  0  0  0  0
   36.9110   23.4270   41.7200 H   0  0  0  0  0  0  0  0  0  0  0  0
   36.0430   26.5270   38.0300 H   0  0  0  0  0  0  0  0  0  0  0  0
   36.5500   27.4150   42.4420 C   0  0  0  0  0  0  0  0  0  0  0  0
   35.8060   26.9260   43.1120 H   0  0  0  0  0  0  0  0  0  0  0  0
   36.2300   27.1610   41.4030 H   0  0  0  0  0  0  0  0  0  0  0  0
   36.5250   28.8470   42.5360 N   0  0  0  0  0  0  0  0  0  0  0  0
   35.8600   29.2440   43.2040 H   0  0  0  0  0  0  0  0  0  0  0  0
   36.1380   29.5920   41.0350 S   0  0  0  0  0  0  0  0  0  0  0  0
   35.6260   30.9860   41.2410 O   0  0  0  0  0  0  0  0  0  0  0  0
   36.2170   31.7050   41.5920 H   0  0  0  0  0  0  0  0  0  0  0  0
   35.1570   28.7870   40.2550 O   0  0  0  0  0  0  0  0  0  0  0  0
   34.4010   28.2930   40.6800 H   0  0  0  0  0  0  0  0  0  0  0  0
   37.5760   29.6780   40.1690 O   0  0  0  0  0  0  0  0  0  0  0  0
   38.8070   29.8230   40.7920 C   0  0  0  0  0  0  0  0  0  0  0  0
   39.8440   29.0460   40.3240 C   0  0  0  0  0  3  0  0  0  0  0  0
   41.0510   29.2500   41.0000 C   0  0  0  0  0  0  0  0  0  0  0  0
   41.9680   28.7150   40.7560 H   0  0  0  0  0  0  0  0  0  0  0  0
   41.2090   30.1290   42.0290 N   0  0  0  0  0  0  0  0  0  0  0  0
   40.1530   30.8430   42.4220 C   0  0  0  0  0  3  0  0  0  0  0  0
   38.9700   30.6950   41.8150 N   0  0  0  0  0  0  0  0  0  0  0  0
  1  6  2  0  0  0  0
  1  2  1  0  0  0  0
  2  3  2  0  0  0  0
  3  4  1  0  0  0  0
  3  7  1  0  0  0  0
  4  8  1  0  0  0  0
  5  9  1  0  0  0  0
  5  4  2  0  0  0  0
  6  5  1  0  0  0  0
 10  6  1  0  0  0  0
 11 17  1  0  0  0  0
 11 12  1  0  0  0  0
 12 18  1  0  0  0  0
 13 12  2  0  0  0  0
 13  1  1  0  0  0  0
 14 13  1  0  0  0  0
 15 16  1  0  0  0  0
 15 14  2  0  0  0  0
 16 11  2  0  0  0  0
 19 15  1  0  0  0  0
 20 23  1  0  0  0  0
 20  2  1  0  0  0  0
 20 21  1  0  0  0  0
 22 20  1  0  0  0  0
 23 24  1  0  0  0  0
 25 26  1  0  0  0  0
 25 23  1  0  0  0  0
 26 27  1  0  0  0  0
 28 29  1  0  0  0  0
 28 25  1  0  0  0  0
 30 31  1  0  0  0  0
 30 25  1  0  0  0  0
 31 37  1  0  0  0  0
 32 31  2  0  0  0  0
 32 33  1  0  0  0  0
 33 35  2  0  0  0  0
 34 33  1  0  0  0  0
 35 36  1  0  0  0  0
 37 36  2  0  0  0  0
M  END
>  <minimizedAffinity>
-5.4846096

$$$$

 OpenBabel03252508443D

 37 39  0  0  0  0  0  0  0  0999 V2000
   36.4060   30.1920   38.7470 C   0  0  0  0  0  0  0  0  0  0  0  0
   36.3910   30.3190   40.1240 C   0  0  0  0  0  0  0  0  0  0  0  0
   36.8940   31.4780   40.6820 C   0  0  0  0  0  0  0  0  0  0  0  0
   37.3880   32.4590   39.8780 C   0  0  0  0  0  0  0  0  0  0  0  0
   37.4150   32.3610   38.5220 C   0  0  0  0  0  0  0  0  0  0  0  0
   36.9000   31.1800   37.9930 C   0  0  0  0  0  0  0  0  0  0  0  0
   36.9060   31.6280   41.7580 H   0  0  0  0  0  0  0  0  0  0  0  0
   37.7920   33.3870   40.2990 H   0  0  0  0  0  0  0  0  0  0  0  0
   37.7890   33.0920   37.8050 H   0  0  0  0  0  0  0  0  0  0  0  0
   36.8780   31.0080   36.9240 H   0  0  0  0  0  0  0  0  0  0  0  0
   34.1470   27.5120   37.3300 C   0  0  0  0  0  0  0  0  0  0  0  0
   34.5500   28.7640   37.8350 C   0  0  0  0  0  0  0  0  0  0  0  0
   35.8620   28.9440   38.2080 C   0  0  0  0  0  0  0  0  0  0  0  0
   36.6890   27.8860   38.0610 N   0  0  0  0  0  0  0  0  0  0  0  0
   36.3110   26.6870   37.5780 C   0  0  0  0  0  0  0  0  0  0  0  0
   35.0220   26.5080   37.2110 N   0  0  0  0  0  0  0  0  0  0  0  0
   33.1170   27.3860   37.0420 H   0  0  0  0  0  0  0  0  0  0  0  0
   33.8780   29.6020   37.9490 H   0  0  0  0  0  0  0  0  0  0  0  0
   37.1120   25.9490   37.5280 H   0  0  0  0  0  0  0  0  0  0  0  0
   35.8440   29.2280   40.9810 C   0  0  0  0  0  0  0  0  0  0  0  0
   34.8640   28.8640   40.5980 H   0  0  0  0  0  0  0  0  0  0  0  0
   35.6230   29.7020   41.9680 H   0  0  0  0  0  0  0  0  0  0  0  0
   36.7690   28.1610   41.2420 N   0  0  0  0  0  0  0  0  0  0  0  0
   36.3600   27.2360   41.3940 H   0  0  0  0  0  0  0  0  0  0  0  0
   37.7250   28.4540   42.6410 S   0  0  0  0  0  0  0  0  0  0  0  0
   36.9450   29.2020   43.6800 O   0  0  0  0  0  0  0  0  0  0  0  0
   36.1680   28.7840   44.1410 H   0  0  0  0  0  0  0  0  0  0  0  0
   38.9820   29.1810   42.3100 O   0  0  0  0  0  0  0  0  0  0  0  0
   39.0270   29.9000   41.6190 H   0  0  0  0  0  0  0  0  0  0  0  0
   38.1230   26.9430   43.2620 O   0  0  0  0  0  0  0  0  0  0  0  0
   38.0870   25.7920   42.4880 C   0  0  0  0  0  0  0  0  0  0  0  0
   39.2940   25.2780   42.0700 C   0  0  0  0  0  3  0  0  0  0  0  0
   39.1760   24.1190   41.2950 C   0  0  0  0  0  0  0  0  0  0  0  0
   40.0340   23.5870   40.8850 H   0  0  0  0  0  0  0  0  0  0  0  0
   37.9880   23.5370   40.9720 N   0  0  0  0  0  0  0  0  0  0  0  0
   36.8630   24.1000   41.4170 C   0  0  0  0  0  3  0  0  0  0  0  0
   36.9080   25.2090   42.1630 N   0  0  0  0  0  0  0  0  0  0  0  0
  1  2  1  0  0  0  0
  2  3  2  0  0  0  0
  2 20  1  0  0  0  0
  3  7  1  0  0  0  0
  4  8  1  0  0  0  0
  4  3  1  0  0  0  0
  5  4  2  0  0  0  0
  6  5  1  0  0  0  0
  6  1  2  0  0  0  0
  9  5  1  0  0  0  0
 10  6  1  0  0  0  0
 11 12  1  0  0  0  0
 12 18  1  0  0  0  0
 12 13  2  0  0  0  0
 13  1  1  0  0  0  0
 14 13  1  0  0  0  0
 15 14  2  0  0  0  0
 16 11  2  0  0  0  0
 16 15  1  0  0  0  0
 17 11  1  0  0  0  0
 19 15  1  0  0  0  0
 20 23  1  0  0  0  0
 20 22  1  0  0  0  0
 21 20  1  0  0  0  0
 23 24  1  0  0  0  0
 23 25  1  0  0  0  0
 25 30  1  0  0  0  0
 25 26  1  0  0  0  0
 26 27  1  0  0  0  0
 28 25  1  0  0  0  0
 29 28  1  0  0  0  0
 31 30  1  0  0  0  0
 32 31  2  0  0  0  0
 33 32  1  0  0  0  0
 34 33  1  0  0  0  0
 35 33  2  0  0  0  0
 35 36  1  0  0  0  0
 36 37  2  0  0  0  0
 37 31  1  0  0  0  0
M  END
>  <minimizedAffinity>
-5.44947195

$$$$

 OpenBabel03252508443D

 37 39  0  0  0  0  0  0  0  0999 V2000
   36.5390   27.1680   40.1880 C   0  0  0  0  0  0  0  0  0  0  0  0
   36.1710   28.2110   41.0180 C   0  0  0  0  0  0  0  0  0  0  0  0
   35.3100   29.1710   40.5220 C   0  0  0  0  0  0  0  0  0  0  0  0
   34.8470   29.0750   39.2470 C   0  0  0  0  0  0  0  0  0  0  0  0
   35.1930   28.0610   38.4090 C   0  0  0  0  0  0  0  0  0  0  0  0
   36.0610   27.1100   38.9400 C   0  0  0  0  0  0  0  0  0  0  0  0
   34.9900   30.0120   41.1330 H   0  0  0  0  0  0  0  0  0  0  0  0
   34.1640   29.8240   38.8330 H   0  0  0  0  0  0  0  0  0  0  0  0
   34.8720   27.9040   37.3790 H   0  0  0  0  0  0  0  0  0  0  0  0
   36.3940   26.2650   38.3510 H   0  0  0  0  0  0  0  0  0  0  0  0
   38.0330   24.1990   41.9890 C   0  0  0  0  0  0  0  0  0  0  0  0
   37.0550   25.0790   41.4870 C   0  0  0  0  0  0  0  0  0  0  0  0
   37.4530   26.1790   40.7620 C   0  0  0  0  0  0  0  0  0  0  0  0
   38.7810   26.3390   40.5770 N   0  0  0  0  0  0  0  0  0  0  0  0
   39.7220   25.5010   41.0540 C   0  0  0  0  0  0  0  0  0  0  0  0
   39.3330   24.4210   41.7670 N   0  0  0  0  0  0  0  0  0  0  0  0
   37.7070   23.3420   42.5550 H   0  0  0  0  0  0  0  0  0  0  0  0
   35.9950   24.9400   41.6420 H   0  0  0  0  0  0  0  0  0  0  0  0
   40.7460   25.7870   40.8080 H   0  0  0  0  0  0  0  0  0  0  0  0
   36.6930   28.2930   42.4120 C   0  0  0  0  0  0  0  0  0  0  0  0
   37.3700   27.4390   42.6420 H   0  0  0  0  0  0  0  0  0  0  0  0
   35.8050   28.1590   43.0750 H   0  0  0  0  0  0  0  0  0  0  0  0
   37.2670   29.5640   42.7550 N   0  0  0  0  0  0  0  0  0  0  0  0
   36.9160   30.3730   42.2350 H   0  0  0  0  0  0  0  0  0  0  0  0
   38.9700   29.5960   42.5190 S   0  0  0  0  0  0  0  0  0  0  0  0
   39.6040   28.3270   43.0010 O   0  0  0  0  0  0  0  0  0  0  0  0
   39.4290   27.4580   42.5470 H   0  0  0  0  0  0  0  0  0  0  0  0
   39.5960   30.7750   43.1800 O   0  0  0  0  0  0  0  0  0  0  0  0
   39.2930   31.1270   44.0620 H   0  0  0  0  0  0  0  0  0  0  0  0
   39.2120   29.7140   40.8600 O   0  0  0  0  0  0  0  0  0  0  0  0
   38.5360   30.6400   40.0780 C   0  0  0  0  0  0  0  0  0  0  0  0
   38.3790   30.3390   38.7430 C   0  0  0  0  0  3  0  0  0  0  0  0
   37.6880   31.3180   38.0220 C   0  0  0  0  0  0  0  0  0  0  0  0
   37.4790   31.2370   36.9560 H   0  0  0  0  0  0  0  0  0  0  0  0
   37.2070   32.4700   38.5690 N   0  0  0  0  0  0  0  0  0  0  0  0
   37.4030   32.6840   39.8710 C   0  0  0  0  0  3  0  0  0  0  0  0
   38.0560   31.7860   40.6160 N   0  0  0  0  0  0  0  0  0  0  0  0
  1 13  1  0  0  0  0
  1  2  1  0  0  0  0
  2 20  1  0  0  0  0
  3  2  2  0  0  0  0
  3  7  1  0  0  0  0
  4  3  1  0  0  0  0
  5  6  1  0  0  0  0
  5  4  2  0  0  0  0
  6  1  2  0  0  0  0
  8  4  1  0  0  0  0
  9  5  1  0  0  0  0
 10  6  1  0  0  0  0
 11 17  1  0  0  0  0
 12 18  1  0  0  0  0
 12 11  2  0  0  0  0
 13 12  1  0  0  0  0
 14 13  2  0  0  0  0
 14 15  1  0  0  0  0
 15 16  2  0  0  0  0
 16 11  1  0  0  0  0
 19 15  1  0  0  0  0
 20 21  1  0  0  0  0
 20 23  1  0  0  0  0
 20 22  1  0  0  0  0
 24 23  1  0  0  0  0
 25 23  1  0  0  0  0
 25 26  1  0  0  0  0
 25 28  1  0  0  0  0
 27 26  1  0  0  0  0
 28 29  1  0  0  0  0
 30 25  1  0  0  0  0
 31 37  1  0  0  0  0
 31 30  1  0  0  0  0
 32 31  2  0  0  0  0
 33 35  2  0  0  0  0
 33 32  1  0  0  0  0
 34 33  1  0  0  0  0
 35 36  1  0  0  0  0
 36 37  2  0  0  0  0
M  END
>  <minimizedAffinity>
-5.41918802

$$$$

 OpenBabel03252508443D

 37 39  0  0  0  0  0  0  0  0999 V2000
   37.4560   25.8450   39.6920 C   0  0  0  0  0  0  0  0  0  0  0  0
   37.5830   26.6430   40.8150 C   0  0  0  0  0  0  0  0  0  0  0  0
   37.2210   26.1150   42.0390 C   0  0  0  0  0  0  0  0  0  0  0  0
   36.7530   24.8400   42.1180 C   0  0  0  0  0  0  0  0  0  0  0  0
   36.6180   24.0340   41.0310 C   0  0  0  0  0  0  0  0  0  0  0  0
   36.9920   24.5960   39.8130 C   0  0  0  0  0  0  0  0  0  0  0  0
   37.3010   26.7000   42.9520 H   0  0  0  0  0  0  0  0  0  0  0  0
   36.4610   24.4020   43.0780 H   0  0  0  0  0  0  0  0  0  0  0  0
   36.2550   23.0060   41.0010 H   0  0  0  0  0  0  0  0  0  0  0  0
   36.9210   24.0330   38.8910 H   0  0  0  0  0  0  0  0  0  0  0  0
   39.3600   26.9590   36.6220 C   0  0  0  0  0  0  0  0  0  0  0  0
   39.1000   26.3240   37.8530 C   0  0  0  0  0  0  0  0  0  0  0  0
   37.8530   26.4520   38.4210 C   0  0  0  0  0  0  0  0  0  0  0  0
   36.9470   27.1910   37.7450 N   0  0  0  0  0  0  0  0  0  0  0  0
   37.1890   27.8000   36.5680 C   0  0  0  0  0  0  0  0  0  0  0  0
   38.4130   27.6770   36.0090 N   0  0  0  0  0  0  0  0  0  0  0  0
   40.3410   26.8510   36.1900 H   0  0  0  0  0  0  0  0  0  0  0  0
   39.8340   25.7360   38.3840 H   0  0  0  0  0  0  0  0  0  0  0  0
   36.3410   28.3550   36.1660 H   0  0  0  0  0  0  0  0  0  0  0  0
   38.0980   28.0370   40.7000 C   0  0  0  0  0  0  0  0  0  0  0  0
   39.0120   28.0810   40.0650 H   0  0  0  0  0  0  0  0  0  0  0  0
   38.4330   28.3200   41.7270 H   0  0  0  0  0  0  0  0  0  0  0  0
   37.1080   29.0030   40.3160 N   0  0  0  0  0  0  0  0  0  0  0  0
   37.2890   29.5150   39.4480 H   0  0  0  0  0  0  0  0  0  0  0  0
   36.8910   30.2240   41.5080 S   0  0  0  0  0  0  0  0  0  0  0  0
   37.0710   29.6680   42.8880 O   0  0  0  0  0  0  0  0  0  0  0  0
   37.9580   29.3410   43.2000 H   0  0  0  0  0  0  0  0  0  0  0  0
   35.5640   30.8880   41.3830 O   0  0  0  0  0  0  0  0  0  0  0  0
   34.7320   30.3950   41.1380 H   0  0  0  0  0  0  0  0  0  0  0  0
   38.0950   31.3660   41.2340 O   0  0  0  0  0  0  0  0  0  0  0  0
   38.6780   31.5410   39.9880 C   0  0  0  0  0  0  0  0  0  0  0  0
   40.0350   31.7750   39.9570 C   0  0  0  0  0  3  0  0  0  0  0  0
   40.5490   31.9410   38.6670 C   0  0  0  0  0  0  0  0  0  0  0  0
   41.6030   32.1330   38.4660 H   0  0  0  0  0  0  0  0  0  0  0  0
   39.7960   31.8810   37.5330 N   0  0  0  0  0  0  0  0  0  0  0  0
   38.4880   31.6500   37.6520 C   0  0  0  0  0  3  0  0  0  0  0  0
   37.9340   31.4830   38.8570 N   0  0  0  0  0  0  0  0  0  0  0  0
  1  6  2  0  0  0  0
  1  2  1  0  0  0  0
  2  3  2  0  0  0  0
  3  4  1  0  0  0  0
  3  7  1  0  0  0  0
  4  8  1  0  0  0  0
  5  4  2  0  0  0  0
  6  5  1  0  0  0  0
  9  5  1  0  0  0  0
 10  6  1  0  0  0  0
 11 12  1  0  0  0  0
 12 18  1  0  0  0  0
 12 13  2  0  0  0  0
 13  1  1  0  0  0  0
 14 13  1  0  0  0  0
 15 14  2  0  0  0  0
 16 15  1  0  0  0  0
 16 11  2  0  0  0  0
 17 11  1  0  0  0  0
 19 15  1  0  0  0  0
 20  2  1  0  0  0  0
 20 22  1  0  0  0  0
 21 20  1  0  0  0  0
 23 20  1  0  0  0  0
 23 25  1  0  0  0  0
 24 23  1  0  0  0  0
 25 26  1  0  0  0  0
 26 27  1  0  0  0  0
 28 25  1  0  0  0  0
 29 28  1  0  0  0  0
 30 25  1  0  0  0  0
 31 30  1  0  0  0  0
 32 31  1  0  0  0  0
 33 32  2  0  0  0  0
 34 33  1  0  0  0  0
 35 36  2  0  0  0  0
 35 33  1  0  0  0  0
 36 37  1  0  0  0  0
 37 31  2  0  0  0  0
M  END
>  <minimizedAffinity>
-5.31093311

$$$$
