
 OpenBabel03242523563D

 38 40  0  0  1  0  0  0  0  0999 V2000
   39.9080   31.7360   40.5900 C   0  0  1  0  0  0  0  0  0  0  0  0
   38.3920   31.7770   40.7170 C   0  0  1  0  0  0  0  0  0  0  0  0
   37.9530   33.0700   40.3660 O   0  0  0  0  0  0  0  0  0  0  0  0
   38.8390   34.0660   40.7820 C   0  0  0  0  0  0  0  0  0  0  0  0
   40.1380   34.0330   40.0030 C   0  0  2  0  0  0  0  0  0  0  0  0
   40.2590   32.5820   39.4100 C   0  0  1  0  0  0  0  0  0  0  0  0
   40.2330   30.6850   40.4300 H   0  0  0  0  0  0  0  0  0  0  0  0
   38.0240   31.4820   41.7070 H   0  0  0  0  0  0  0  0  0  0  0  0
   38.9790   34.0810   41.8760 H   0  0  0  0  0  0  0  0  0  0  0  0
   38.3390   35.0160   40.5090 H   0  0  0  0  0  0  0  0  0  0  0  0
   40.1590   34.7570   39.1780 H   0  0  0  0  0  0  0  0  0  0  0  0
   39.3870   32.6890   38.6900 H   0  0  0  0  0  0  0  0  0  0  0  0
   40.5110   32.2320   41.7550 O   0  0  0  0  0  0  0  0  0  0  0  0
   40.2810   31.6340   42.4870 H   0  0  0  0  0  0  0  0  0  0  0  0
   41.2060   34.1610   40.8790 O   0  0  0  0  0  0  0  0  0  0  0  0
   41.1180   34.9220   41.4920 H   0  0  0  0  0  0  0  0  0  0  0  0
   37.9140   30.9720   39.6650 O   0  0  0  0  0  0  0  0  0  0  0  0
   37.3630   29.7650   39.8190 C   0  0  0  0  0  0  0  0  0  0  0  0
   37.4830   29.0610   41.0260 C   0  0  0  0  0  0  0  0  0  0  0  0
   36.8920   27.8150   41.1360 C   0  0  0  0  0  0  0  0  0  0  0  0
   36.2010   27.2990   40.0550 N   0  0  0  0  0  0  0  0  0  0  0  0
   36.1030   28.0030   38.9040 C   0  0  0  0  0  0  0  0  0  0  0  0
   36.6810   29.2280   38.7880 N   0  0  0  0  0  0  0  0  0  0  0  0
   38.0310   29.4890   41.8620 H   0  0  0  0  0  0  0  0  0  0  0  0
   35.5640   27.5950   38.0690 H   0  0  0  0  0  0  0  0  0  0  0  0
   36.9970   27.0040   42.3880 C   0  0  0  0  0  0  0  0  0  0  0  0
   38.0430   27.4470   43.4080 C   0  0  0  0  0  0  0  0  0  0  0  0
   36.5180   27.5090   43.6350 C   0  0  0  0  0  0  0  0  0  0  0  0
   37.0710   25.9060   42.1650 H   0  0  0  0  0  0  0  0  0  0  0  0
   38.5840   26.6780   43.9820 H   0  0  0  0  0  0  0  0  0  0  0  0
   38.5120   28.4290   43.2440 H   0  0  0  0  0  0  0  0  0  0  0  0
   36.0510   28.5070   43.6970 H   0  0  0  0  0  0  0  0  0  0  0  0
   36.1110   26.7990   44.3930 H   0  0  0  0  0  0  0  0  0  0  0  0
   41.5050   32.4540   38.9190 O   0  0  0  0  0  0  0  0  0  0  0  0
   41.9880   32.9090   37.7370 C   0  0  0  0  0  0  0  0  0  0  0  0
   42.6140   32.1380   36.8910 O   0  0  0  0  0  0  0  0  0  0  0  0
   42.1820   33.9540   36.8280 O   0  0  0  0  0  0  0  0  0  0  0  0
   41.5000   34.1850   36.1180 H   0  0  0  0  0  0  0  0  0  0  0  0
  1  7  1  6  0  0  0
  1  2  1  0  0  0  0
  1 13  1  0  0  0  0
  2  8  1  1  0  0  0
  3  2  1  0  0  0  0
  3  4  1  0  0  0  0
  4  9  1  0  0  0  0
  5 11  1  6  0  0  0
  5  4  1  0  0  0  0
  5 15  1  0  0  0  0
  6 12  1  6  0  0  0
  6  5  1  0  0  0  0
  6  1  1  0  0  0  0
 10  4  1  0  0  0  0
 13 14  1  0  0  0  0
 15 16  1  0  0  0  0
 17 18  1  0  0  0  0
 17  2  1  0  0  0  0
 18 19  1  0  0  0  0
 19 20  2  0  0  0  0
 19 24  1  0  0  0  0
 20 26  1  0  0  0  0
 21 20  1  0  0  0  0
 22 21  2  0  0  0  0
 23 22  1  0  0  0  0
 23 18  2  0  0  0  0
 25 22  1  0  0  0  0
 26 27  1  0  0  0  0
 26 28  1  0  0  0  0
 27 28  1  0  0  0  0
 27 30  1  0  0  0  0
 28 32  1  0  0  0  0
 28 33  1  0  0  0  0
 29 26  1  0  0  0  0
 31 27  1  0  0  0  0
 34  6  1  0  0  0  0
 35 34  1  0  0  0  0
 36 35  2  0  0  0  0
 37 35  1  0  0  0  0
 38 37  1  0  0  0  0
M  END
>  <minimizedAffinity>
-5.68415594

$$$$

 OpenBabel03242523563D

 38 40  0  0  1  0  0  0  0  0999 V2000
   38.8010   31.5090   39.9790 C   0  0  1  0  0  0  0  0  0  0  0  0
   39.6990   32.2610   40.9500 C   0  0  1  0  0  0  0  0  0  0  0  0
   39.1680   33.5540   41.1340 O   0  0  0  0  0  0  0  0  0  0  0  0
   38.6090   34.0730   39.9640 C   0  0  0  0  0  0  0  0  0  0  0  0
   37.3400   33.3460   39.5700 C   0  0  2  0  0  0  0  0  0  0  0  0
   37.4020   31.9400   40.2720 C   0  0  1  0  0  0  0  0  0  0  0  0
   38.9180   30.4160   40.1430 H   0  0  0  0  0  0  0  0  0  0  0  0
   40.7510   32.2980   40.6410 H   0  0  0  0  0  0  0  0  0  0  0  0
   39.3420   34.1600   39.1450 H   0  0  0  0  0  0  0  0  0  0  0  0
   38.3030   35.1030   40.2340 H   0  0  0  0  0  0  0  0  0  0  0  0
   36.4300   33.8650   39.8980 H   0  0  0  0  0  0  0  0  0  0  0  0
   37.2950   32.3440   41.3290 H   0  0  0  0  0  0  0  0  0  0  0  0
   39.1480   31.8150   38.6540 O   0  0  0  0  0  0  0  0  0  0  0  0
   40.0510   31.4890   38.4990 H   0  0  0  0  0  0  0  0  0  0  0  0
   37.3630   33.0760   38.2100 O   0  0  0  0  0  0  0  0  0  0  0  0
   37.5690   33.8620   37.6610 H   0  0  0  0  0  0  0  0  0  0  0  0
   39.4910   31.6410   42.1970 O   0  0  0  0  0  0  0  0  0  0  0  0
   39.7850   30.3670   42.4730 C   0  0  0  0  0  0  0  0  0  0  0  0
   38.7850   29.4570   42.8460 C   0  0  0  0  0  0  0  0  0  0  0  0
   39.1400   28.1480   43.1200 C   0  0  0  0  0  0  0  0  0  0  0  0
   40.4680   27.7750   43.0190 N   0  0  0  0  0  0  0  0  0  0  0  0
   41.4090   28.6770   42.6570 C   0  0  0  0  0  0  0  0  0  0  0  0
   41.0680   29.9650   42.3860 N   0  0  0  0  0  0  0  0  0  0  0  0
   37.7480   29.7750   42.9180 H   0  0  0  0  0  0  0  0  0  0  0  0
   42.4380   28.3780   42.5800 H   0  0  0  0  0  0  0  0  0  0  0  0
   38.1280   27.1310   43.5420 C   0  0  0  0  0  0  0  0  0  0  0  0
   36.6860   27.6140   43.6790 C   0  0  0  0  0  0  0  0  0  0  0  0
   37.1750   26.6120   42.6130 C   0  0  0  0  0  0  0  0  0  0  0  0
   38.4650   26.5620   44.4480 H   0  0  0  0  0  0  0  0  0  0  0  0
   36.0600   27.1930   44.4820 H   0  0  0  0  0  0  0  0  0  0  0  0
   36.4560   28.6140   43.2830 H   0  0  0  0  0  0  0  0  0  0  0  0
   37.1750   26.9460   41.5610 H   0  0  0  0  0  0  0  0  0  0  0  0
   36.8130   25.5640   42.7290 H   0  0  0  0  0  0  0  0  0  0  0  0
   36.4120   31.1890   39.7530 O   0  0  0  0  0  0  0  0  0  0  0  0
   35.9210   30.0160   40.2200 C   0  0  0  0  0  0  0  0  0  0  0  0
   36.4540   28.8630   39.9200 O   0  0  0  0  0  0  0  0  0  0  0  0
   34.9840   29.3110   40.9810 O   0  0  0  0  0  0  0  0  0  0  0  0
   35.1190   29.1210   41.9660 H   0  0  0  0  0  0  0  0  0  0  0  0
  1  7  1  1  0  0  0
  1  6  1  0  0  0  0
  1  2  1  0  0  0  0
  2  8  1  6  0  0  0
  2  3  1  0  0  0  0
  2 17  1  0  0  0  0
  4 10  1  0  0  0  0
  4  3  1  0  0  0  0
  5 11  1  1  0  0  0
  5  4  1  0  0  0  0
  5  6  1  0  0  0  0
  6 12  1  1  0  0  0
  9  4  1  0  0  0  0
 13  1  1  0  0  0  0
 14 13  1  0  0  0  0
 15  5  1  0  0  0  0
 16 15  1  0  0  0  0
 17 18  1  0  0  0  0
 18 19  1  0  0  0  0
 19 24  1  0  0  0  0
 19 20  2  0  0  0  0
 20 26  1  0  0  0  0
 21 20  1  0  0  0  0
 22 21  2  0  0  0  0
 23 18  2  0  0  0  0
 23 22  1  0  0  0  0
 25 22  1  0  0  0  0
 26 27  1  0  0  0  0
 26 29  1  0  0  0  0
 27 30  1  0  0  0  0
 28 33  1  0  0  0  0
 28 26  1  0  0  0  0
 28 27  1  0  0  0  0
 31 27  1  0  0  0  0
 32 28  1  0  0  0  0
 34 35  1  0  0  0  0
 34  6  1  0  0  0  0
 35 37  1  0  0  0  0
 36 35  2  0  0  0  0
 37 38  1  0  0  0  0
M  END
>  <minimizedAffinity>
-5.65077305

$$$$

 OpenBabel03242523563D

 38 40  0  0  1  0  0  0  0  0999 V2000
   39.0580   30.5120   38.5550 C   0  0  1  0  0  0  0  0  0  0  0  0
   40.0170   29.3640   38.8360 C   0  0  1  0  0  0  0  0  0  0  0  0
   41.3250   29.7960   38.5340 O   0  0  0  0  0  0  0  0  0  0  0  0
   41.3650   30.6460   37.4270 C   0  0  0  0  0  0  0  0  0  0  0  0
   40.7300   31.9900   37.7200 C   0  0  2  0  0  0  0  0  0  0  0  0
   39.7700   31.7660   38.9450 C   0  0  1  0  0  0  0  0  0  0  0  0
   38.1380   30.3770   39.1640 H   0  0  0  0  0  0  0  0  0  0  0  0
   39.7660   28.4390   38.3030 H   0  0  0  0  0  0  0  0  0  0  0  0
   40.9850   30.1670   36.5090 H   0  0  0  0  0  0  0  0  0  0  0  0
   42.4430   30.8430   37.2650 H   0  0  0  0  0  0  0  0  0  0  0  0
   41.4650   32.7620   37.9820 H   0  0  0  0  0  0  0  0  0  0  0  0
   40.6000   31.5670   39.6950 H   0  0  0  0  0  0  0  0  0  0  0  0
   38.7110   30.5400   37.1960 O   0  0  0  0  0  0  0  0  0  0  0  0
   38.2240   29.7210   36.9960 H   0  0  0  0  0  0  0  0  0  0  0  0
   39.9010   32.3500   36.6670 O   0  0  0  0  0  0  0  0  0  0  0  0
   40.3370   32.2870   35.7900 H   0  0  0  0  0  0  0  0  0  0  0  0
   40.0300   29.2320   40.2370 O   0  0  0  0  0  0  0  0  0  0  0  0
   38.9900   28.8340   40.9760 C   0  0  0  0  0  0  0  0  0  0  0  0
   38.6820   27.4740   41.1190 C   0  0  0  0  0  0  0  0  0  0  0  0
   37.5950   27.1130   41.8960 C   0  0  0  0  0  0  0  0  0  0  0  0
   36.8460   28.1010   42.5080 N   0  0  0  0  0  0  0  0  0  0  0  0
   37.1700   29.4050   42.3490 C   0  0  0  0  0  0  0  0  0  0  0  0
   38.2350   29.7680   41.5870 N   0  0  0  0  0  0  0  0  0  0  0  0
   39.2870   26.7160   40.6280 H   0  0  0  0  0  0  0  0  0  0  0  0
   36.5820   30.1660   42.8280 H   0  0  0  0  0  0  0  0  0  0  0  0
   37.1990   25.6820   42.0760 C   0  0  0  0  0  0  0  0  0  0  0  0
   36.8980   24.8880   40.8080 C   0  0  0  0  0  0  0  0  0  0  0  0
   38.0970   24.6220   41.7420 C   0  0  0  0  0  0  0  0  0  0  0  0
   36.3860   25.5700   42.8410 H   0  0  0  0  0  0  0  0  0  0  0  0
   36.0950   24.1350   40.8300 H   0  0  0  0  0  0  0  0  0  0  0  0
   37.1710   25.3570   39.8500 H   0  0  0  0  0  0  0  0  0  0  0  0
   39.1060   24.8410   41.3520 H   0  0  0  0  0  0  0  0  0  0  0  0
   38.0600   23.6700   42.3210 H   0  0  0  0  0  0  0  0  0  0  0  0
   39.0200   32.8760   39.0740 O   0  0  0  0  0  0  0  0  0  0  0  0
   37.8110   33.0030   39.6720 C   0  0  0  0  0  0  0  0  0  0  0  0
   37.0060   33.9990   39.4220 O   0  0  0  0  0  0  0  0  0  0  0  0
   36.8420   32.5280   40.5610 O   0  0  0  0  0  0  0  0  0  0  0  0
   36.1250   31.8720   40.2790 H   0  0  0  0  0  0  0  0  0  0  0  0
  1  2  1  0  0  0  0
  1  6  1  0  0  0  0
  1  7  1  1  0  0  0
  2  8  1  6  0  0  0
  2 17  1  0  0  0  0
  3  2  1  0  0  0  0
  4  5  1  0  0  0  0
  4  3  1  0  0  0  0
  5 11  1  1  0  0  0
  5  6  1  0  0  0  0
  6 34  1  0  0  0  0
  6 12  1  1  0  0  0
  9  4  1  0  0  0  0
 10  4  1  0  0  0  0
 13  1  1  0  0  0  0
 14 13  1  0  0  0  0
 15  5  1  0  0  0  0
 16 15  1  0  0  0  0
 17 18  1  0  0  0  0
 18 19  2  0  0  0  0
 18 23  1  0  0  0  0
 19 20  1  0  0  0  0
 20 26  1  0  0  0  0
 20 21  2  0  0  0  0
 22 21  1  0  0  0  0
 22 25  1  0  0  0  0
 23 22  2  0  0  0  0
 24 19  1  0  0  0  0
 26 29  1  0  0  0  0
 27 30  1  0  0  0  0
 27 28  1  0  0  0  0
 27 26  1  0  0  0  0
 28 26  1  0  0  0  0
 28 33  1  0  0  0  0
 31 27  1  0  0  0  0
 32 28  1  0  0  0  0
 34 35  1  0  0  0  0
 35 37  1  0  0  0  0
 36 35  2  0  0  0  0
 38 37  1  0  0  0  0
M  END
>  <minimizedAffinity>
-5.5703764

$$$$

 OpenBabel03242523563D

 38 40  0  0  1  0  0  0  0  0999 V2000
   37.8370   32.1230   40.5760 C   0  0  1  0  0  0  0  0  0  0  0  0
   37.1320   30.8340   40.9690 C   0  0  1  0  0  0  0  0  0  0  0  0
   36.8900   30.0870   39.7980 O   0  0  0  0  0  0  0  0  0  0  0  0
   36.5720   30.8950   38.7040 C   0  0  0  0  0  0  0  0  0  0  0  0
   37.7620   31.7040   38.2310 C   0  0  2  0  0  0  0  0  0  0  0  0
   38.7550   31.7800   39.4480 C   0  0  1  0  0  0  0  0  0  0  0  0
   38.4120   32.5070   41.4470 H   0  0  0  0  0  0  0  0  0  0  0  0
   36.2110   30.9920   41.5420 H   0  0  0  0  0  0  0  0  0  0  0  0
   35.6650   31.4990   38.8710 H   0  0  0  0  0  0  0  0  0  0  0  0
   36.3400   30.1830   37.8880 H   0  0  0  0  0  0  0  0  0  0  0  0
   38.2810   31.2450   37.3800 H   0  0  0  0  0  0  0  0  0  0  0  0
   39.0190   30.6750   39.4390 H   0  0  0  0  0  0  0  0  0  0  0  0
   36.9040   33.0920   40.1780 O   0  0  0  0  0  0  0  0  0  0  0  0
   36.3510   33.3070   40.9490 H   0  0  0  0  0  0  0  0  0  0  0  0
   37.3700   33.0140   37.9990 O   0  0  0  0  0  0  0  0  0  0  0  0
   36.5750   33.0860   37.4280 H   0  0  0  0  0  0  0  0  0  0  0  0
   38.1050   30.0750   41.6460 O   0  0  0  0  0  0  0  0  0  0  0  0
   37.9370   28.8180   42.0650 C   0  0  0  0  0  0  0  0  0  0  0  0
   38.8620   27.8150   41.7400 C   0  0  0  0  0  0  0  0  0  0  0  0
   38.6430   26.5290   42.2000 C   0  0  0  0  0  0  0  0  0  0  0  0
   37.5220   26.2680   42.9650 N   0  0  0  0  0  0  0  0  0  0  0  0
   36.6480   27.2580   43.2620 C   0  0  0  0  0  0  0  0  0  0  0  0
   36.8550   28.5240   42.8130 N   0  0  0  0  0  0  0  0  0  0  0  0
   39.7360   28.0460   41.1370 H   0  0  0  0  0  0  0  0  0  0  0  0
   35.7790   27.0460   43.8570 H   0  0  0  0  0  0  0  0  0  0  0  0
   39.5800   25.4090   41.8740 C   0  0  0  0  0  0  0  0  0  0  0  0
   39.8750   24.4130   42.9920 C   0  0  0  0  0  0  0  0  0  0  0  0
   39.0990   24.0740   41.7020 C   0  0  0  0  0  0  0  0  0  0  0  0
   40.5200   25.7830   41.3890 H   0  0  0  0  0  0  0  0  0  0  0  0
   40.8880   23.9870   43.0700 H   0  0  0  0  0  0  0  0  0  0  0  0
   39.2440   24.4740   43.8920 H   0  0  0  0  0  0  0  0  0  0  0  0
   38.0240   23.8460   41.7990 H   0  0  0  0  0  0  0  0  0  0  0  0
   39.6180   23.3940   40.9880 H   0  0  0  0  0  0  0  0  0  0  0  0
   39.7020   32.6840   39.1370 O   0  0  0  0  0  0  0  0  0  0  0  0
   40.6170   32.6250   38.1390 C   0  0  0  0  0  0  0  0  0  0  0  0
   41.3430   31.5650   37.9140 O   0  0  0  0  0  0  0  0  0  0  0  0
   41.2760   33.2250   37.0620 O   0  0  0  0  0  0  0  0  0  0  0  0
   40.9160   33.1830   36.1170 H   0  0  0  0  0  0  0  0  0  0  0  0
  1  2  1  0  0  0  0
  1  7  1  1  0  0  0
  2  8  1  1  0  0  0
  2 17  1  0  0  0  0
  3  2  1  0  0  0  0
  4  9  1  0  0  0  0
  4  3  1  0  0  0  0
  5 11  1  6  0  0  0
  5  4  1  0  0  0  0
  5  6  1  0  0  0  0
  6 12  1  1  0  0  0
  6  1  1  0  0  0  0
 10  4  1  0  0  0  0
 13  1  1  0  0  0  0
 13 14  1  0  0  0  0
 15  5  1  0  0  0  0
 16 15  1  0  0  0  0
 17 18  1  0  0  0  0
 18 23  1  0  0  0  0
 19 18  2  0  0  0  0
 19 20  1  0  0  0  0
 20 21  2  0  0  0  0
 21 22  1  0  0  0  0
 22 25  1  0  0  0  0
 23 22  2  0  0  0  0
 24 19  1  0  0  0  0
 26 20  1  0  0  0  0
 26 27  1  0  0  0  0
 27 30  1  0  0  0  0
 27 31  1  0  0  0  0
 28 32  1  0  0  0  0
 28 26  1  0  0  0  0
 28 27  1  0  0  0  0
 29 26  1  0  0  0  0
 33 28  1  0  0  0  0
 34  6  1  0  0  0  0
 35 34  1  0  0  0  0
 36 35  2  0  0  0  0
 37 35  1  0  0  0  0
 38 37  1  0  0  0  0
M  END
>  <minimizedAffinity>
-5.53858614

$$$$

 OpenBabel03242523563D

 38 40  0  0  1  0  0  0  0  0999 V2000
   36.8060   30.0310   41.2990 C   0  0  1  0  0  0  0  0  0  0  0  0
   36.4300   28.9630   40.2830 C   0  0  1  0  0  0  0  0  0  0  0  0
   36.7160   29.4570   38.9940 O   0  0  0  0  0  0  0  0  0  0  0  0
   36.4620   30.8250   38.8770 C   0  0  0  0  0  0  0  0  0  0  0  0
   37.4440   31.6550   39.6770 C   0  0  2  0  0  0  0  0  0  0  0  0
   38.0350   30.7010   40.7780 C   0  0  1  0  0  0  0  0  0  0  0  0
   37.0070   29.5490   42.2800 H   0  0  0  0  0  0  0  0  0  0  0  0
   35.3900   28.6250   40.3620 H   0  0  0  0  0  0  0  0  0  0  0  0
   35.4060   31.0790   39.0720 H   0  0  0  0  0  0  0  0  0  0  0  0
   36.6580   31.0560   37.8120 H   0  0  0  0  0  0  0  0  0  0  0  0
   38.2700   32.0460   39.0670 H   0  0  0  0  0  0  0  0  0  0  0  0
   38.6020   30.0380   40.0500 H   0  0  0  0  0  0  0  0  0  0  0  0
   35.7620   30.9560   41.4460 O   0  0  0  0  0  0  0  0  0  0  0  0
   34.9950   30.4840   41.8160 H   0  0  0  0  0  0  0  0  0  0  0  0
   36.7590   32.6390   40.3760 O   0  0  0  0  0  0  0  0  0  0  0  0
   36.1480   33.1610   39.8140 H   0  0  0  0  0  0  0  0  0  0  0  0
   37.3800   27.9390   40.4600 O   0  0  0  0  0  0  0  0  0  0  0  0
   37.0850   26.6520   40.6680 C   0  0  0  0  0  0  0  0  0  0  0  0
   36.5910   25.8450   39.6330 C   0  0  0  0  0  0  0  0  0  0  0  0
   36.3030   24.5180   39.8990 C   0  0  0  0  0  0  0  0  0  0  0  0
   36.5090   24.0270   41.1750 N   0  0  0  0  0  0  0  0  0  0  0  0
   36.9870   24.8320   42.1520 C   0  0  0  0  0  0  0  0  0  0  0  0
   37.2720   26.1360   41.8990 N   0  0  0  0  0  0  0  0  0  0  0  0
   36.4390   26.2560   38.6390 H   0  0  0  0  0  0  0  0  0  0  0  0
   37.1440   24.4410   43.1400 H   0  0  0  0  0  0  0  0  0  0  0  0
   35.7560   23.6080   38.8470 C   0  0  0  0  0  0  0  0  0  0  0  0
   34.4200   22.9340   39.1480 C   0  0  0  0  0  0  0  0  0  0  0  0
   34.6360   23.9940   38.0490 C   0  0  0  0  0  0  0  0  0  0  0  0
   36.5250   22.8700   38.4970 H   0  0  0  0  0  0  0  0  0  0  0  0
   34.2540   21.9030   38.7970 H   0  0  0  0  0  0  0  0  0  0  0  0
   33.8630   23.3010   40.0240 H   0  0  0  0  0  0  0  0  0  0  0  0
   34.1570   24.9790   38.1890 H   0  0  0  0  0  0  0  0  0  0  0  0
   34.5590   23.6270   36.9990 H   0  0  0  0  0  0  0  0  0  0  0  0
   38.7250   31.4660   41.6430 O   0  0  0  0  0  0  0  0  0  0  0  0
   39.8390   31.1400   42.3430 C   0  0  0  0  0  0  0  0  0  0  0  0
   40.2030   29.9040   42.5460 O   0  0  0  0  0  0  0  0  0  0  0  0
   40.9710   31.5240   43.0680 O   0  0  0  0  0  0  0  0  0  0  0  0
   41.8590   31.7160   42.6230 H   0  0  0  0  0  0  0  0  0  0  0  0
  1 13  1  0  0  0  0
  1  7  1  1  0  0  0
  2  8  1  1  0  0  0
  2 17  1  0  0  0  0
  2  1  1  0  0  0  0
  3  2  1  0  0  0  0
  4  3  1  0  0  0  0
  4  9  1  0  0  0  0
  4  5  1  0  0  0  0
  5 11  1  6  0  0  0
  5 15  1  0  0  0  0
  5  6  1  0  0  0  0
  6 12  1  6  0  0  0
  6  1  1  0  0  0  0
  6 34  1  0  0  0  0
 10  4  1  0  0  0  0
 13 14  1  0  0  0  0
 16 15  1  0  0  0  0
 17 18  1  0  0  0  0
 18 23  1  0  0  0  0
 19 20  1  0  0  0  0
 19 18  2  0  0  0  0
 20 21  2  0  0  0  0
 21 22  1  0  0  0  0
 22 25  1  0  0  0  0
 23 22  2  0  0  0  0
 24 19  1  0  0  0  0
 26 27  1  0  0  0  0
 26 20  1  0  0  0  0
 27 31  1  0  0  0  0
 28 32  1  0  0  0  0
 28 26  1  0  0  0  0
 28 27  1  0  0  0  0
 29 26  1  0  0  0  0
 30 27  1  0  0  0  0
 33 28  1  0  0  0  0
 34 35  1  0  0  0  0
 35 36  2  0  0  0  0
 35 37  1  0  0  0  0
 38 37  1  0  0  0  0
M  END
>  <minimizedAffinity>
-5.52640772

$$$$

 OpenBabel03242523563D

 38 40  0  0  1  0  0  0  0  0999 V2000
   38.4350   29.8120   37.8620 C   0  0  1  0  0  0  0  0  0  0  0  0
   38.5030   29.9030   39.3800 C   0  0  1  0  0  0  0  0  0  0  0  0
   38.2070   31.2280   39.7570 O   0  0  0  0  0  0  0  0  0  0  0  0
   38.7140   32.1670   38.8560 C   0  0  0  0  0  0  0  0  0  0  0  0
   37.9870   32.1280   37.5270 C   0  0  2  0  0  0  0  0  0  0  0  0
   37.3200   30.7070   37.4310 C   0  0  1  0  0  0  0  0  0  0  0  0
   38.2300   28.7590   37.5670 H   0  0  0  0  0  0  0  0  0  0  0  0
   39.4590   29.5690   39.7990 H   0  0  0  0  0  0  0  0  0  0  0  0
   39.8110   32.1170   38.7610 H   0  0  0  0  0  0  0  0  0  0  0  0
   38.4740   33.1480   39.3090 H   0  0  0  0  0  0  0  0  0  0  0  0
   37.2040   32.8930   37.4450 H   0  0  0  0  0  0  0  0  0  0  0  0
   36.5720   30.8850   38.2680 H   0  0  0  0  0  0  0  0  0  0  0  0
   39.6490   30.2210   37.2910 O   0  0  0  0  0  0  0  0  0  0  0  0
   40.3370   29.5930   37.5730 H   0  0  0  0  0  0  0  0  0  0  0  0
   38.9100   32.1670   36.4920 O   0  0  0  0  0  0  0  0  0  0  0  0
   39.5610   32.8960   36.5790 H   0  0  0  0  0  0  0  0  0  0  0  0
   37.3900   29.1740   39.8410 O   0  0  0  0  0  0  0  0  0  0  0  0
   37.3510   28.4840   40.9840 C   0  0  0  0  0  0  0  0  0  0  0  0
   37.1790   27.0920   40.9840 C   0  0  0  0  0  0  0  0  0  0  0  0
   37.1480   26.4220   42.1950 C   0  0  0  0  0  0  0  0  0  0  0  0
   37.2850   27.1420   43.3670 N   0  0  0  0  0  0  0  0  0  0  0  0
   37.4490   28.4850   43.3320 C   0  0  0  0  0  0  0  0  0  0  0  0
   37.4810   29.1500   42.1470 N   0  0  0  0  0  0  0  0  0  0  0  0
   37.0740   26.5490   40.0490 H   0  0  0  0  0  0  0  0  0  0  0  0
   37.5550   29.0370   44.2480 H   0  0  0  0  0  0  0  0  0  0  0  0
   36.9490   24.9420   42.2680 C   0  0  0  0  0  0  0  0  0  0  0  0
   36.6560   24.2220   40.9550 C   0  0  0  0  0  0  0  0  0  0  0  0
   37.9450   24.0410   41.7820 C   0  0  0  0  0  0  0  0  0  0  0  0
   36.2160   24.6620   43.0700 H   0  0  0  0  0  0  0  0  0  0  0  0
   35.9570   23.3700   40.9600 H   0  0  0  0  0  0  0  0  0  0  0  0
   36.7950   24.8000   40.0290 H   0  0  0  0  0  0  0  0  0  0  0  0
   38.8870   24.4210   41.3510 H   0  0  0  0  0  0  0  0  0  0  0  0
   38.0710   23.0480   42.2740 H   0  0  0  0  0  0  0  0  0  0  0  0
   36.8720   30.5590   36.1710 O   0  0  0  0  0  0  0  0  0  0  0  0
   36.8000   29.4210   35.4380 C   0  0  0  0  0  0  0  0  0  0  0  0
   35.9150   28.4910   35.6720 O   0  0  0  0  0  0  0  0  0  0  0  0
   37.2700   28.6200   34.3940 O   0  0  0  0  0  0  0  0  0  0  0  0
   36.9280   28.7110   33.4460 H   0  0  0  0  0  0  0  0  0  0  0  0
  1  7  1  6  0  0  0
  1  2  1  0  0  0  0
  2  3  1  0  0  0  0
  2  8  1  1  0  0  0
  2 17  1  0  0  0  0
  4 10  1  0  0  0  0
  4  3  1  0  0  0  0
  5 11  1  6  0  0  0
  5  4  1  0  0  0  0
  6  5  1  0  0  0  0
  6  1  1  0  0  0  0
  6 12  1  1  0  0  0
  9  4  1  0  0  0  0
 13 14  1  0  0  0  0
 13  1  1  0  0  0  0
 15 16  1  0  0  0  0
 15  5  1  0  0  0  0
 17 18  1  0  0  0  0
 18 23  1  0  0  0  0
 19 18  2  0  0  0  0
 19 20  1  0  0  0  0
 20 26  1  0  0  0  0
 20 21  2  0  0  0  0
 22 21  1  0  0  0  0
 22 25  1  0  0  0  0
 23 22  2  0  0  0  0
 24 19  1  0  0  0  0
 26 29  1  0  0  0  0
 27 30  1  0  0  0  0
 27 28  1  0  0  0  0
 27 26  1  0  0  0  0
 28 26  1  0  0  0  0
 28 33  1  0  0  0  0
 31 27  1  0  0  0  0
 32 28  1  0  0  0  0
 34  6  1  0  0  0  0
 35 36  2  0  0  0  0
 35 34  1  0  0  0  0
 37 35  1  0  0  0  0
 38 37  1  0  0  0  0
M  END
>  <minimizedAffinity>
-5.48544264

$$$$

 OpenBabel03242523563D

 38 40  0  0  1  0  0  0  0  0999 V2000
   36.9050   30.7600   41.4320 C   0  0  1  0  0  0  0  0  0  0  0  0
   37.0450   29.2440   41.4190 C   0  0  1  0  0  0  0  0  0  0  0  0
   37.7110   28.8710   40.2340 O   0  0  0  0  0  0  0  0  0  0  0  0
   37.3560   29.6710   39.1460 C   0  0  0  0  0  0  0  0  0  0  0  0
   37.8840   31.0850   39.2840 C   0  0  2  0  0  0  0  0  0  0  0  0
   38.1520   31.3070   40.8170 C   0  0  1  0  0  0  0  0  0  0  0  0
   36.7990   31.1090   42.4820 H   0  0  0  0  0  0  0  0  0  0  0  0
   36.0920   28.7130   41.5290 H   0  0  0  0  0  0  0  0  0  0  0  0
   36.2780   29.6220   38.9160 H   0  0  0  0  0  0  0  0  0  0  0  0
   37.8900   29.2250   38.2840 H   0  0  0  0  0  0  0  0  0  0  0  0
   38.8200   31.2470   38.7340 H   0  0  0  0  0  0  0  0  0  0  0  0
   39.0150   30.5710   40.8820 H   0  0  0  0  0  0  0  0  0  0  0  0
   35.7760   31.1550   40.7000 O   0  0  0  0  0  0  0  0  0  0  0  0
   34.9890   30.8040   41.1520 H   0  0  0  0  0  0  0  0  0  0  0  0
   36.8850   31.9880   38.9530 O   0  0  0  0  0  0  0  0  0  0  0  0
   36.4560   31.7960   38.0920 H   0  0  0  0  0  0  0  0  0  0  0  0
   37.9830   28.9540   42.4280 O   0  0  0  0  0  0  0  0  0  0  0  0
   38.4980   27.7450   42.6650 C   0  0  0  0  0  0  0  0  0  0  0  0
   37.8190   26.5790   42.2820 C   0  0  0  0  0  0  0  0  0  0  0  0
   38.3960   25.3500   42.5480 C   0  0  0  0  0  0  0  0  0  0  0  0
   39.6240   25.3060   43.1820 N   0  0  0  0  0  0  0  0  0  0  0  0
   40.2540   26.4490   43.5390 C   0  0  0  0  0  0  0  0  0  0  0  0
   39.6930   27.6600   43.2810 N   0  0  0  0  0  0  0  0  0  0  0  0
   36.8550   26.6420   41.7840 H   0  0  0  0  0  0  0  0  0  0  0  0
   41.2080   26.4040   44.0310 H   0  0  0  0  0  0  0  0  0  0  0  0
   37.7170   24.0690   42.1840 C   0  0  0  0  0  0  0  0  0  0  0  0
   36.6430   24.1430   41.1020 C   0  0  0  0  0  0  0  0  0  0  0  0
   37.9940   23.4150   40.9440 C   0  0  0  0  0  0  0  0  0  0  0  0
   37.3550   23.5190   43.0930 H   0  0  0  0  0  0  0  0  0  0  0  0
   35.7550   23.4970   41.1890 H   0  0  0  0  0  0  0  0  0  0  0  0
   36.5720   25.0840   40.5350 H   0  0  0  0  0  0  0  0  0  0  0  0
   38.7230   23.8410   40.2340 H   0  0  0  0  0  0  0  0  0  0  0  0
   37.9420   22.3030   40.8890 H   0  0  0  0  0  0  0  0  0  0  0  0
   38.3930   32.6190   40.9950 O   0  0  0  0  0  0  0  0  0  0  0  0
   39.5410   33.2980   40.7540 C   0  0  0  0  0  0  0  0  0  0  0  0
   39.6540   34.1610   39.7810 O   0  0  0  0  0  0  0  0  0  0  0  0
   40.8720   33.5830   41.0740 O   0  0  0  0  0  0  0  0  0  0  0  0
   41.1250   34.2980   41.7430 H   0  0  0  0  0  0  0  0  0  0  0  0
  1  7  1  1  0  0  0
  2  1  1  0  0  0  0
  2  8  1  1  0  0  0
  2 17  1  0  0  0  0
  3  2  1  0  0  0  0
  4  5  1  0  0  0  0
  4  3  1  0  0  0  0
  5 11  1  6  0  0  0
  5  6  1  0  0  0  0
  6 12  1  1  0  0  0
  6 34  1  0  0  0  0
  6  1  1  0  0  0  0
  9  4  1  0  0  0  0
 10  4  1  0  0  0  0
 13 14  1  0  0  0  0
 13  1  1  0  0  0  0
 15  5  1  0  0  0  0
 16 15  1  0  0  0  0
 17 18  1  0  0  0  0
 18 23  1  0  0  0  0
 19 20  1  0  0  0  0
 19 18  2  0  0  0  0
 20 21  2  0  0  0  0
 21 22  1  0  0  0  0
 22 25  1  0  0  0  0
 23 22  2  0  0  0  0
 24 19  1  0  0  0  0
 26 20  1  0  0  0  0
 26 29  1  0  0  0  0
 27 30  1  0  0  0  0
 27 26  1  0  0  0  0
 28 27  1  0  0  0  0
 28 26  1  0  0  0  0
 31 27  1  0  0  0  0
 32 28  1  0  0  0  0
 33 28  1  0  0  0  0
 35 34  1  0  0  0  0
 35 37  1  0  0  0  0
 36 35  2  0  0  0  0
 37 38  1  0  0  0  0
M  END
>  <minimizedAffinity>
-5.47907066

$$$$

 OpenBabel03242523563D

 38 40  0  0  1  0  0  0  0  0999 V2000
   38.4540   32.1760   39.3620 C   0  0  1  0  0  0  0  0  0  0  0  0
   37.8560   30.8320   39.7500 C   0  0  1  0  0  0  0  0  0  0  0  0
   38.5310   29.8240   39.0320 O   0  0  0  0  0  0  0  0  0  0  0  0
   38.8740   30.2260   37.7400 C   0  0  0  0  0  0  0  0  0  0  0  0
   39.9590   31.2850   37.7440 C   0  0  2  0  0  0  0  0  0  0  0  0
   39.9180   31.9510   39.1670 C   0  0  1  0  0  0  0  0  0  0  0  0
   38.2750   32.9070   40.1810 H   0  0  0  0  0  0  0  0  0  0  0  0
   36.7710   30.7730   39.6030 H   0  0  0  0  0  0  0  0  0  0  0  0
   37.9960   30.4960   37.1300 H   0  0  0  0  0  0  0  0  0  0  0  0
   39.3240   29.3260   37.2760 H   0  0  0  0  0  0  0  0  0  0  0  0
   40.9610   30.8700   37.5750 H   0  0  0  0  0  0  0  0  0  0  0  0
   40.2830   31.0310   39.7250 H   0  0  0  0  0  0  0  0  0  0  0  0
   37.8640   32.6540   38.1820 O   0  0  0  0  0  0  0  0  0  0  0  0
   36.9220   32.8150   38.3640 H   0  0  0  0  0  0  0  0  0  0  0  0
   39.6220   32.2970   36.8570 O   0  0  0  0  0  0  0  0  0  0  0  0
   39.3770   31.9680   35.9660 H   0  0  0  0  0  0  0  0  0  0  0  0
   38.2670   30.6180   41.0800 O   0  0  0  0  0  0  0  0  0  0  0  0
   38.0840   29.4840   41.7610 C   0  0  0  0  0  0  0  0  0  0  0  0
   39.1640   28.8090   42.3480 C   0  0  0  0  0  0  0  0  0  0  0  0
   38.9220   27.6390   43.0450 C   0  0  0  0  0  0  0  0  0  0  0  0
   37.6260   27.1690   43.1440 N   0  0  0  0  0  0  0  0  0  0  0  0
   36.6050   27.8440   42.5660 C   0  0  0  0  0  0  0  0  0  0  0  0
   36.8350   28.9940   41.8790 N   0  0  0  0  0  0  0  0  0  0  0  0
   40.1740   29.1990   42.2560 H   0  0  0  0  0  0  0  0  0  0  0  0
   35.6010   27.4710   42.6480 H   0  0  0  0  0  0  0  0  0  0  0  0
   40.0300   26.8590   43.6790 C   0  0  0  0  0  0  0  0  0  0  0  0
   40.1800   25.4030   43.2470 C   0  0  0  0  0  0  0  0  0  0  0  0
   41.2040   26.5150   42.9410 C   0  0  0  0  0  0  0  0  0  0  0  0
   40.0240   26.9640   44.7960 H   0  0  0  0  0  0  0  0  0  0  0  0
   40.4900   24.6560   43.9950 H   0  0  0  0  0  0  0  0  0  0  0  0
   39.5930   25.0800   42.3740 H   0  0  0  0  0  0  0  0  0  0  0  0
   41.3190   26.8270   41.8890 H   0  0  0  0  0  0  0  0  0  0  0  0
   42.1810   26.4350   43.4730 H   0  0  0  0  0  0  0  0  0  0  0  0
   40.7010   33.0440   39.1200 O   0  0  0  0  0  0  0  0  0  0  0  0
   41.5220   33.5270   40.0850 C   0  0  0  0  0  0  0  0  0  0  0  0
   42.6290   34.1610   39.8110 O   0  0  0  0  0  0  0  0  0  0  0  0
   41.8240   33.7160   41.4370 O   0  0  0  0  0  0  0  0  0  0  0  0
   41.4900   34.5160   41.9580 H   0  0  0  0  0  0  0  0  0  0  0  0
  1  2  1  0  0  0  0
  1  7  1  1  0  0  0
  2  8  1  6  0  0  0
  2 17  1  0  0  0  0
  3  2  1  0  0  0  0
  4  5  1  0  0  0  0
  4  3  1  0  0  0  0
  5 11  1  6  0  0  0
  5  6  1  0  0  0  0
  6  1  1  0  0  0  0
  6 12  1  1  0  0  0
  9  4  1  0  0  0  0
 10  4  1  0  0  0  0
 13 14  1  0  0  0  0
 13  1  1  0  0  0  0
 15  5  1  0  0  0  0
 16 15  1  0  0  0  0
 17 18  1  0  0  0  0
 18 23  2  0  0  0  0
 18 19  1  0  0  0  0
 19 20  2  0  0  0  0
 20 21  1  0  0  0  0
 20 26  1  0  0  0  0
 22 25  1  0  0  0  0
 22 21  2  0  0  0  0
 23 22  1  0  0  0  0
 24 19  1  0  0  0  0
 26 29  1  0  0  0  0
 27 26  1  0  0  0  0
 27 30  1  0  0  0  0
 28 27  1  0  0  0  0
 28 33  1  0  0  0  0
 28 26  1  0  0  0  0
 31 27  1  0  0  0  0
 32 28  1  0  0  0  0
 34  6  1  0  0  0  0
 34 35  1  0  0  0  0
 35 37  1  0  0  0  0
 36 35  2  0  0  0  0
 37 38  1  0  0  0  0
M  END
>  <minimizedAffinity>
-5.42640638

$$$$

 OpenBabel03242523563D

 38 40  0  0  1  0  0  0  0  0999 V2000
   36.7450   29.4030   37.2160 C   0  0  1  0  0  0  0  0  0  0  0  0
   37.0410   27.9220   37.3960 C   0  0  1  0  0  0  0  0  0  0  0  0
   38.3210   27.7930   37.9720 O   0  0  0  0  0  0  0  0  0  0  0  0
   39.2170   28.7570   37.5050 C   0  0  0  0  0  0  0  0  0  0  0  0
   38.8670   30.1450   38.0030 C   0  0  2  0  0  0  0  0  0  0  0  0
   37.3440   30.1040   38.3910 C   0  0  1  0  0  0  0  0  0  0  0  0
   35.6440   29.5560   37.1870 H   0  0  0  0  0  0  0  0  0  0  0  0
   36.9550   27.3390   36.4710 H   0  0  0  0  0  0  0  0  0  0  0  0
   39.3690   28.7040   36.4140 H   0  0  0  0  0  0  0  0  0  0  0  0
   40.1830   28.4940   37.9780 H   0  0  0  0  0  0  0  0  0  0  0  0
   39.4500   30.4420   38.8860 H   0  0  0  0  0  0  0  0  0  0  0  0
   37.4790   29.4050   39.2770 H   0  0  0  0  0  0  0  0  0  0  0  0
   37.3050   29.8740   36.0190 O   0  0  0  0  0  0  0  0  0  0  0  0
   36.8640   29.4150   35.2830 H   0  0  0  0  0  0  0  0  0  0  0  0
   38.9530   31.0490   36.9550 O   0  0  0  0  0  0  0  0  0  0  0  0
   39.7990   30.9940   36.4620 H   0  0  0  0  0  0  0  0  0  0  0  0
   36.1750   27.4980   38.4220 O   0  0  0  0  0  0  0  0  0  0  0  0
   36.5140   26.6630   39.4090 C   0  0  0  0  0  0  0  0  0  0  0  0
   36.8260   27.1430   40.6890 C   0  0  0  0  0  0  0  0  0  0  0  0
   37.1690   26.2380   41.6780 C   0  0  0  0  0  0  0  0  0  0  0  0
   37.1940   24.8890   41.3770 N   0  0  0  0  0  0  0  0  0  0  0  0
   36.8880   24.4580   40.1310 C   0  0  0  0  0  0  0  0  0  0  0  0
   36.5500   25.3410   39.1550 N   0  0  0  0  0  0  0  0  0  0  0  0
   36.7980   28.2090   40.9010 H   0  0  0  0  0  0  0  0  0  0  0  0
   36.9100   23.4070   39.9060 H   0  0  0  0  0  0  0  0  0  0  0  0
   37.5320   26.6830   43.0590 C   0  0  0  0  0  0  0  0  0  0  0  0
   38.3020   27.9950   43.1770 C   0  0  0  0  0  0  0  0  0  0  0  0
   36.8580   27.7800   43.6790 C   0  0  0  0  0  0  0  0  0  0  0  0
   38.0180   25.8590   43.6450 H   0  0  0  0  0  0  0  0  0  0  0  0
   39.0730   28.0900   43.9580 H   0  0  0  0  0  0  0  0  0  0  0  0
   38.3730   28.6140   42.2700 H   0  0  0  0  0  0  0  0  0  0  0  0
   36.0500   28.3150   43.1520 H   0  0  0  0  0  0  0  0  0  0  0  0
   36.7230   27.7840   44.7860 H   0  0  0  0  0  0  0  0  0  0  0  0
   36.9520   31.3720   38.6090 O   0  0  0  0  0  0  0  0  0  0  0  0
   36.9490   32.0570   39.7790 C   0  0  0  0  0  0  0  0  0  0  0  0
   36.5220   31.5350   40.8960 O   0  0  0  0  0  0  0  0  0  0  0  0
   37.2160   33.2230   40.5020 O   0  0  0  0  0  0  0  0  0  0  0  0
   38.1170   33.4020   40.9260 H   0  0  0  0  0  0  0  0  0  0  0  0
  1  7  1  6  0  0  0
  1  2  1  0  0  0  0
  1  6  1  0  0  0  0
  2  8  1  6  0  0  0
  2  3  1  0  0  0  0
  2 17  1  0  0  0  0
  4  3  1  0  0  0  0
  4 10  1  0  0  0  0
  4  5  1  0  0  0  0
  5  6  1  0  0  0  0
  5 11  1  1  0  0  0
  6 34  1  0  0  0  0
  6 12  1  1  0  0  0
  9  4  1  0  0  0  0
 13  1  1  0  0  0  0
 14 13  1  0  0  0  0
 15  5  1  0  0  0  0
 16 15  1  0  0  0  0
 17 18  1  0  0  0  0
 18 19  1  0  0  0  0
 19 24  1  0  0  0  0
 19 20  2  0  0  0  0
 20 26  1  0  0  0  0
 21 20  1  0  0  0  0
 22 21  2  0  0  0  0
 23 18  2  0  0  0  0
 23 22  1  0  0  0  0
 25 22  1  0  0  0  0
 26 27  1  0  0  0  0
 26 29  1  0  0  0  0
 26 28  1  0  0  0  0
 27 28  1  0  0  0  0
 27 30  1  0  0  0  0
 28 33  1  0  0  0  0
 31 27  1  0  0  0  0
 32 28  1  0  0  0  0
 34 35  1  0  0  0  0
 35 37  1  0  0  0  0
 35 36  2  0  0  0  0
 37 38  1  0  0  0  0
M  END
>  <minimizedAffinity>
-5.20950174

$$$$
