
 OpenBabel03252508003D

 22 23  0  0  1  0  0  0  0  0999 V2000
   46.2300   34.7550   43.2210 C   0  0  0  0  0  0  0  0  0  0  0  0
   45.2770   35.7550   43.5740 C   0  0  0  0  0  0  0  0  0  0  0  0
   44.6350   35.5880   44.8010 C   0  0  0  0  0  0  0  0  0  0  0  0
   44.9510   34.5110   45.5650 N   0  0  0  0  0  0  0  0  0  0  0  0
   45.8800   33.5880   45.1570 C   0  0  0  0  0  0  0  0  0  0  0  0
   46.5250   33.6830   44.0090 N   0  0  0  0  0  0  0  0  0  0  0  0
   45.0900   36.5740   42.9080 H   0  0  0  0  0  0  0  0  0  0  0  0
   43.9140   36.3110   45.1070 H   0  0  0  0  0  0  0  0  0  0  0  0
   46.1830   32.4350   46.0610 C   0  0  1  0  0  0  0  0  0  0  0  0
   47.0190   32.6770   47.2970 C   0  0  0  0  0  0  0  0  0  0  0  0
   45.5270   32.5030   47.3830 C   0  0  1  0  0  0  0  0  0  0  0  0
   46.3370   31.4620   45.5730 H   0  0  0  0  0  0  0  0  0  0  0  0
   47.6340   31.8430   47.6550 H   0  0  0  0  0  0  0  0  0  0  0  0
   47.4780   33.6870   47.3140 H   0  0  0  0  0  0  0  0  0  0  0  0
   45.1700   31.6110   47.8970 H   0  0  0  0  0  0  0  0  0  0  0  0
   44.8560   33.7440   47.7910 N   0  0  0  0  0  0  0  0  0  0  0  0
   45.1930   34.0030   48.7230 H   0  0  0  0  0  0  0  0  0  0  0  0
   43.8370   33.7230   47.6480 H   0  0  0  0  0  0  0  0  0  0  0  0
   46.8880   34.9540   41.9490 C   0  0  0  0  0  0  0  0  0  0  0  0
   48.0480   35.4810   41.8280 O   0  0  0  0  0  0  0  0  0  0  0  0
   46.2760   34.5680   40.7410 O   0  0  0  0  0  0  0  0  0  0  0  0
   46.3470   33.6070   40.4150 H   0  0  0  0  0  0  0  0  0  0  0  0
  1  2  2  0  0  0  0
  1  6  1  0  0  0  0
  2  3  1  0  0  0  0
  3  8  1  0  0  0  0
  3  4  2  0  0  0  0
  5  4  1  0  0  0  0
  5  9  1  0  0  0  0
  6  5  2  0  0  0  0
  7  2  1  0  0  0  0
  9 12  1  6  0  0  0
  9 10  1  0  0  0  0
  9 11  1  0  0  0  0
 10 14  1  0  0  0  0
 10 11  1  0  0  0  0
 10 13  1  0  0  0  0
 11 16  1  0  0  0  0
 11 15  1  1  0  0  0
 16 17  1  0  0  0  0
 18 16  1  0  0  0  0
 19  1  1  0  0  0  0
 20 19  2  0  0  0  0
 21 19  1  0  0  0  0
 22 21  1  0  0  0  0
M  END
>  <minimizedAffinity>
-4.88667631

>  <minimizedRMSD>
0.0409342498

$$$$
