
 OpenBabel03252508013D

 22 23  0  0  1  0  0  0  0  0999 V2000
   36.8000   28.8840   41.6470 C   0  0  0  0  0  0  0  0  0  0  0  0
   37.8570   29.4240   42.4380 C   0  0  0  0  0  0  0  0  0  0  0  0
   38.5790   28.5110   43.2050 C   0  0  0  0  0  0  0  0  0  0  0  0
   38.2430   27.1980   43.1510 N   0  0  0  0  0  0  0  0  0  0  0  0
   37.2100   26.7510   42.3650 C   0  0  0  0  0  0  0  0  0  0  0  0
   36.4840   27.5580   41.6150 N   0  0  0  0  0  0  0  0  0  0  0  0
   38.0530   30.4780   42.4180 H   0  0  0  0  0  0  0  0  0  0  0  0
   39.3800   28.8700   43.8120 H   0  0  0  0  0  0  0  0  0  0  0  0
   36.9090   25.2870   42.3500 C   0  0  1  0  0  0  0  0  0  0  0  0
   36.9300   24.5500   41.0300 C   0  0  0  0  0  0  0  0  0  0  0  0
   38.0610   24.4250   42.0130 C   0  0  1  0  0  0  0  0  0  0  0  0
   36.1540   24.9380   43.0700 H   0  0  0  0  0  0  0  0  0  0  0  0
   36.2660   23.6840   40.9310 H   0  0  0  0  0  0  0  0  0  0  0  0
   37.0030   25.2340   40.1580 H   0  0  0  0  0  0  0  0  0  0  0  0
   38.2040   23.4470   42.4700 H   0  0  0  0  0  0  0  0  0  0  0  0
   39.2940   25.0400   41.5060 N   0  0  0  0  0  0  0  0  0  0  0  0
   39.5720   24.5510   40.6500 H   0  0  0  0  0  0  0  0  0  0  0  0
   40.0150   25.1670   42.2300 H   0  0  0  0  0  0  0  0  0  0  0  0
   36.0700   29.8470   40.8540 C   0  0  0  0  0  0  0  0  0  0  0  0
   35.7950   29.6810   39.6150 O   0  0  0  0  0  0  0  0  0  0  0  0
   35.6080   31.0540   41.4140 O   0  0  0  0  0  0  0  0  0  0  0  0
   34.7170   31.4480   41.1170 H   0  0  0  0  0  0  0  0  0  0  0  0
  1  2  1  0  0  0  0
  2  3  2  0  0  0  0
  3  8  1  0  0  0  0
  4  3  1  0  0  0  0
  5  4  2  0  0  0  0
  6  1  2  0  0  0  0
  6  5  1  0  0  0  0
  7  2  1  0  0  0  0
  9  5  1  0  0  0  0
  9 12  1  1  0  0  0
 10 11  1  0  0  0  0
 10  9  1  0  0  0  0
 11  9  1  0  0  0  0
 11 15  1  1  0  0  0
 13 10  1  0  0  0  0
 14 10  1  0  0  0  0
 16 11  1  0  0  0  0
 16 18  1  0  0  0  0
 17 16  1  0  0  0  0
 19 21  1  0  0  0  0
 19  1  1  0  0  0  0
 20 19  2  0  0  0  0
 22 21  1  0  0  0  0
M  END
>  <minimizedAffinity>
-4.47272587

$$$$

 OpenBabel03252508013D

 22 23  0  0  1  0  0  0  0  0999 V2000
   37.7140   29.6770   41.9070 C   0  0  0  0  0  0  0  0  0  0  0  0
   38.8100   29.6590   42.8200 C   0  0  0  0  0  0  0  0  0  0  0  0
   39.8100   30.6060   42.5990 C   0  0  0  0  0  0  0  0  0  0  0  0
   39.6800   31.4660   41.5570 N   0  0  0  0  0  0  0  0  0  0  0  0
   38.5940   31.4220   40.7200 C   0  0  0  0  0  0  0  0  0  0  0  0
   37.6120   30.5530   40.8680 N   0  0  0  0  0  0  0  0  0  0  0  0
   38.8300   28.9420   43.6160 H   0  0  0  0  0  0  0  0  0  0  0  0
   40.6500   30.6300   43.2560 H   0  0  0  0  0  0  0  0  0  0  0  0
   38.5170   32.4120   39.6020 C   0  0  1  0  0  0  0  0  0  0  0  0
   37.3390   33.3590   39.5430 C   0  0  0  0  0  0  0  0  0  0  0  0
   38.6910   33.8210   40.0140 C   0  0  1  0  0  0  0  0  0  0  0  0
   38.8960   32.0760   38.6260 H   0  0  0  0  0  0  0  0  0  0  0  0
   37.0200   33.6990   38.5520 H   0  0  0  0  0  0  0  0  0  0  0  0
   36.5410   33.0950   40.2690 H   0  0  0  0  0  0  0  0  0  0  0  0
   39.2030   34.5480   39.3860 H   0  0  0  0  0  0  0  0  0  0  0  0
   38.6840   34.1570   41.4440 N   0  0  0  0  0  0  0  0  0  0  0  0
   38.0240   34.9260   41.5930 H   0  0  0  0  0  0  0  0  0  0  0  0
   39.6270   34.2630   41.8430 H   0  0  0  0  0  0  0  0  0  0  0  0
   36.6860   28.6920   42.1610 C   0  0  0  0  0  0  0  0  0  0  0  0
   35.8910   28.2520   41.2600 O   0  0  0  0  0  0  0  0  0  0  0  0
   36.4970   28.1480   43.4450 O   0  0  0  0  0  0  0  0  0  0  0  0
   36.2280   27.1720   43.5530 H   0  0  0  0  0  0  0  0  0  0  0  0
  1 19  1  0  0  0  0
  1  2  1  0  0  0  0
  2  7  1  0  0  0  0
  3  2  2  0  0  0  0
  3  8  1  0  0  0  0
  4  3  1  0  0  0  0
  5  6  1  0  0  0  0
  5  4  2  0  0  0  0
  6  1  2  0  0  0  0
  9 12  1  6  0  0  0
  9 11  1  0  0  0  0
  9  5  1  0  0  0  0
 10  9  1  0  0  0  0
 10 11  1  0  0  0  0
 10 14  1  0  0  0  0
 11 15  1  6  0  0  0
 11 16  1  0  0  0  0
 13 10  1  0  0  0  0
 16 17  1  0  0  0  0
 16 18  1  0  0  0  0
 19 21  1  0  0  0  0
 20 19  2  0  0  0  0
 21 22  1  0  0  0  0
M  END
>  <minimizedAffinity>
-4.3950696

$$$$

 OpenBabel03252508013D

 22 23  0  0  1  0  0  0  0  0999 V2000
   37.1530   30.7970   40.9780 C   0  0  0  0  0  0  0  0  0  0  0  0
   35.9920   30.3360   40.2910 C   0  0  0  0  0  0  0  0  0  0  0  0
   35.5040   29.0880   40.6780 C   0  0  0  0  0  0  0  0  0  0  0  0
   36.1470   28.4070   41.6600 N   0  0  0  0  0  0  0  0  0  0  0  0
   37.2630   28.9160   42.2760 C   0  0  0  0  0  0  0  0  0  0  0  0
   37.7790   30.0890   41.9610 N   0  0  0  0  0  0  0  0  0  0  0  0
   35.5480   30.9420   39.5270 H   0  0  0  0  0  0  0  0  0  0  0  0
   34.6370   28.7020   40.1910 H   0  0  0  0  0  0  0  0  0  0  0  0
   37.9080   28.1110   43.3580 C   0  0  1  0  0  0  0  0  0  0  0  0
   38.3830   26.7110   43.0430 C   0  0  0  0  0  0  0  0  0  0  0  0
   39.3500   27.8570   43.1590 C   0  0  1  0  0  0  0  0  0  0  0  0
   37.5110   28.2540   44.3730 H   0  0  0  0  0  0  0  0  0  0  0  0
   38.3780   25.9850   43.8640 H   0  0  0  0  0  0  0  0  0  0  0  0
   38.0370   26.3530   42.0510 H   0  0  0  0  0  0  0  0  0  0  0  0
   40.0510   27.8210   43.9920 H   0  0  0  0  0  0  0  0  0  0  0  0
   39.9660   28.1830   41.8660 N   0  0  0  0  0  0  0  0  0  0  0  0
   40.4910   27.3660   41.5420 H   0  0  0  0  0  0  0  0  0  0  0  0
   40.4570   29.0880   41.8640 H   0  0  0  0  0  0  0  0  0  0  0  0
   37.6360   32.0970   40.5680 C   0  0  0  0  0  0  0  0  0  0  0  0
   38.8740   32.4180   40.5530 O   0  0  0  0  0  0  0  0  0  0  0  0
   36.7480   33.1070   40.1510 O   0  0  0  0  0  0  0  0  0  0  0  0
   37.0140   33.7460   39.4040 H   0  0  0  0  0  0  0  0  0  0  0  0
  1  6  1  0  0  0  0
  2  3  1  0  0  0  0
  2  1  2  0  0  0  0
  3  4  2  0  0  0  0
  4  5  1  0  0  0  0
  5  9  1  0  0  0  0
  6  5  2  0  0  0  0
  7  2  1  0  0  0  0
  8  3  1  0  0  0  0
  9 12  1  1  0  0  0
 10 11  1  0  0  0  0
 10  9  1  0  0  0  0
 10 13  1  0  0  0  0
 11  9  1  0  0  0  0
 11 15  1  1  0  0  0
 14 10  1  0  0  0  0
 16 11  1  0  0  0  0
 17 16  1  0  0  0  0
 18 16  1  0  0  0  0
 19  1  1  0  0  0  0
 20 19  2  0  0  0  0
 21 19  1  0  0  0  0
 22 21  1  0  0  0  0
M  END
>  <minimizedAffinity>
-4.38437176

$$$$

 OpenBabel03252508013D

 22 23  0  0  1  0  0  0  0  0999 V2000
   37.8220   31.1340   41.0130 C   0  0  0  0  0  0  0  0  0  0  0  0
   39.1590   31.5910   41.2130 C   0  0  0  0  0  0  0  0  0  0  0  0
   39.8920   30.9340   42.2010 C   0  0  0  0  0  0  0  0  0  0  0  0
   39.3040   29.9250   42.8920 N   0  0  0  0  0  0  0  0  0  0  0  0
   38.0110   29.5400   42.6430 C   0  0  0  0  0  0  0  0  0  0  0  0
   37.2590   30.1170   41.7250 N   0  0  0  0  0  0  0  0  0  0  0  0
   39.5410   32.3970   40.6190 H   0  0  0  0  0  0  0  0  0  0  0  0
   40.8960   31.2420   42.3860 H   0  0  0  0  0  0  0  0  0  0  0  0
   37.4390   28.4110   43.4380 C   0  0  1  0  0  0  0  0  0  0  0  0
   36.9060   27.1990   42.7080 C   0  0  0  0  0  0  0  0  0  0  0  0
   38.2380   27.1680   43.4050 C   0  0  1  0  0  0  0  0  0  0  0  0
   36.8910   28.6860   44.3500 H   0  0  0  0  0  0  0  0  0  0  0  0
   36.0870   26.6480   43.1840 H   0  0  0  0  0  0  0  0  0  0  0  0
   36.8390   27.3550   41.6100 H   0  0  0  0  0  0  0  0  0  0  0  0
   38.3200   26.5110   44.2690 H   0  0  0  0  0  0  0  0  0  0  0  0
   39.3490   27.0540   42.4520 N   0  0  0  0  0  0  0  0  0  0  0  0
   39.2470   26.1730   41.9380 H   0  0  0  0  0  0  0  0  0  0  0  0
   40.2690   27.2500   42.8710 H   0  0  0  0  0  0  0  0  0  0  0  0
   37.0840   31.8230   39.9790 C   0  0  0  0  0  0  0  0  0  0  0  0
   36.6730   31.2580   38.9070 O   0  0  0  0  0  0  0  0  0  0  0  0
   36.7680   33.1910   40.0950 O   0  0  0  0  0  0  0  0  0  0  0  0
   35.8810   33.5430   39.7400 H   0  0  0  0  0  0  0  0  0  0  0  0
  1  2  2  0  0  0  0
  1  6  1  0  0  0  0
  2  3  1  0  0  0  0
  3  8  1  0  0  0  0
  3  4  2  0  0  0  0
  5  4  1  0  0  0  0
  5  9  1  0  0  0  0
  6  5  2  0  0  0  0
  7  2  1  0  0  0  0
  9 12  1  1  0  0  0
 10 13  1  0  0  0  0
 10 11  1  0  0  0  0
 10  9  1  0  0  0  0
 11  9  1  0  0  0  0
 11 15  1  1  0  0  0
 14 10  1  0  0  0  0
 16 18  1  0  0  0  0
 16 11  1  0  0  0  0
 17 16  1  0  0  0  0
 19 21  1  0  0  0  0
 19  1  1  0  0  0  0
 20 19  2  0  0  0  0
 22 21  1  0  0  0  0
M  END
>  <minimizedAffinity>
-4.36650181

$$$$

 OpenBabel03252508013D

 22 23  0  0  1  0  0  0  0  0999 V2000
   39.5200   31.5440   38.8580 C   0  0  0  0  0  0  0  0  0  0  0  0
   40.0570   32.1690   40.0230 C   0  0  0  0  0  0  0  0  0  0  0  0
   39.5390   31.7390   41.2450 C   0  0  0  0  0  0  0  0  0  0  0  0
   38.5830   30.7760   41.2500 N   0  0  0  0  0  0  0  0  0  0  0  0
   38.1150   30.2210   40.0860 C   0  0  0  0  0  0  0  0  0  0  0  0
   38.5580   30.5800   38.8950 N   0  0  0  0  0  0  0  0  0  0  0  0
   40.8120   32.9230   39.9240 H   0  0  0  0  0  0  0  0  0  0  0  0
   39.9110   32.1790   42.1430 H   0  0  0  0  0  0  0  0  0  0  0  0
   37.0700   29.1550   40.1760 C   0  0  1  0  0  0  0  0  0  0  0  0
   36.6100   28.6960   41.5400 C   0  0  0  0  0  0  0  0  0  0  0  0
   35.7670   29.6150   40.7000 C   0  0  1  0  0  0  0  0  0  0  0  0
   37.1070   28.3720   39.4050 H   0  0  0  0  0  0  0  0  0  0  0  0
   36.2690   27.6590   41.6300 H   0  0  0  0  0  0  0  0  0  0  0  0
   37.2420   29.0930   42.3630 H   0  0  0  0  0  0  0  0  0  0  0  0
   34.8230   29.2120   40.3350 H   0  0  0  0  0  0  0  0  0  0  0  0
   35.6620   30.9540   41.2930 N   0  0  0  0  0  0  0  0  0  0  0  0
   35.2100   30.8690   42.2080 H   0  0  0  0  0  0  0  0  0  0  0  0
   35.2840   31.6590   40.6450 H   0  0  0  0  0  0  0  0  0  0  0  0
   40.0770   31.9990   37.6040 C   0  0  0  0  0  0  0  0  0  0  0  0
   41.3330   32.0540   37.3660 O   0  0  0  0  0  0  0  0  0  0  0  0
   39.2470   32.4170   36.5460 O   0  0  0  0  0  0  0  0  0  0  0  0
   39.5080   32.2200   35.5820 H   0  0  0  0  0  0  0  0  0  0  0  0
  1  6  2  0  0  0  0
  1  2  1  0  0  0  0
  2  3  2  0  0  0  0
  3  4  1  0  0  0  0
  3  8  1  0  0  0  0
  5  9  1  0  0  0  0
  5  4  2  0  0  0  0
  6  5  1  0  0  0  0
  7  2  1  0  0  0  0
  9 12  1  6  0  0  0
  9 11  1  0  0  0  0
  9 10  1  0  0  0  0
 10 13  1  0  0  0  0
 10 14  1  0  0  0  0
 11 15  1  6  0  0  0
 11 16  1  0  0  0  0
 11 10  1  0  0  0  0
 16 17  1  0  0  0  0
 18 16  1  0  0  0  0
 19  1  1  0  0  0  0
 20 19  2  0  0  0  0
 21 19  1  0  0  0  0
 22 21  1  0  0  0  0
M  END
>  <minimizedAffinity>
-4.35753107

$$$$

 OpenBabel03252508013D

 22 23  0  0  1  0  0  0  0  0999 V2000
   37.3710   26.8590   41.7920 C   0  0  0  0  0  0  0  0  0  0  0  0
   37.4070   27.1110   43.1950 C   0  0  0  0  0  0  0  0  0  0  0  0
   37.5870   28.4410   43.5760 C   0  0  0  0  0  0  0  0  0  0  0  0
   37.7110   29.3890   42.6130 N   0  0  0  0  0  0  0  0  0  0  0  0
   37.6660   29.0690   41.2790 C   0  0  0  0  0  0  0  0  0  0  0  0
   37.5000   27.8330   40.8470 N   0  0  0  0  0  0  0  0  0  0  0  0
   37.3010   26.2990   43.8860 H   0  0  0  0  0  0  0  0  0  0  0  0
   37.6210   28.6780   44.6160 H   0  0  0  0  0  0  0  0  0  0  0  0
   37.7980   30.1720   40.2780 C   0  0  1  0  0  0  0  0  0  0  0  0
   36.7310   30.3260   39.2170 C   0  0  0  0  0  0  0  0  0  0  0  0
   36.7880   31.2430   40.4070 C   0  0  1  0  0  0  0  0  0  0  0  0
   38.8190   30.4160   39.9540 H   0  0  0  0  0  0  0  0  0  0  0  0
   37.0410   30.7480   38.2550 H   0  0  0  0  0  0  0  0  0  0  0  0
   36.0260   29.4690   39.1890 H   0  0  0  0  0  0  0  0  0  0  0  0
   37.0250   32.2870   40.2070 H   0  0  0  0  0  0  0  0  0  0  0  0
   35.6410   31.0460   41.3030 N   0  0  0  0  0  0  0  0  0  0  0  0
   34.7840   31.2620   40.7850 H   0  0  0  0  0  0  0  0  0  0  0  0
   35.7590   31.4920   42.2230 H   0  0  0  0  0  0  0  0  0  0  0  0
   37.1750   25.4760   41.4200 C   0  0  0  0  0  0  0  0  0  0  0  0
   36.8760   24.5550   42.2550 O   0  0  0  0  0  0  0  0  0  0  0  0
   37.3080   25.0530   40.0830 O   0  0  0  0  0  0  0  0  0  0  0  0
   36.7010   24.3240   39.7140 H   0  0  0  0  0  0  0  0  0  0  0  0
  1  2  1  0  0  0  0
  2  3  2  0  0  0  0
  2  7  1  0  0  0  0
  3  8  1  0  0  0  0
  4  3  1  0  0  0  0
  5  4  2  0  0  0  0
  6  5  1  0  0  0  0
  6  1  2  0  0  0  0
  9 12  1  6  0  0  0
  9 11  1  0  0  0  0
  9  5  1  0  0  0  0
 10  9  1  0  0  0  0
 10 11  1  0  0  0  0
 11 15  1  6  0  0  0
 11 16  1  0  0  0  0
 13 10  1  0  0  0  0
 14 10  1  0  0  0  0
 16 18  1  0  0  0  0
 17 16  1  0  0  0  0
 19  1  1  0  0  0  0
 19 20  2  0  0  0  0
 21 19  1  0  0  0  0
 22 21  1  0  0  0  0
M  END
>  <minimizedAffinity>
-4.34162664

$$$$

 OpenBabel03252508013D

 22 23  0  0  1  0  0  0  0  0999 V2000
   37.1120   29.0760   41.3130 C   0  0  0  0  0  0  0  0  0  0  0  0
   36.5290   28.1480   40.4010 C   0  0  0  0  0  0  0  0  0  0  0  0
   36.8020   26.8010   40.6350 C   0  0  0  0  0  0  0  0  0  0  0  0
   37.5840   26.4640   41.6920 N   0  0  0  0  0  0  0  0  0  0  0  0
   38.1110   27.4160   42.5280 C   0  0  0  0  0  0  0  0  0  0  0  0
   37.8960   28.7070   42.3660 N   0  0  0  0  0  0  0  0  0  0  0  0
   35.9220   28.5040   39.5920 H   0  0  0  0  0  0  0  0  0  0  0  0
   36.3860   26.0700   39.9780 H   0  0  0  0  0  0  0  0  0  0  0  0
   38.9530   26.9640   43.6790 C   0  0  1  0  0  0  0  0  0  0  0  0
   39.9930   25.8910   43.4470 C   0  0  0  0  0  0  0  0  0  0  0  0
   40.3790   27.3380   43.5810 C   0  0  1  0  0  0  0  0  0  0  0  0
   38.4600   26.9340   44.6600 H   0  0  0  0  0  0  0  0  0  0  0  0
   40.2320   25.2360   44.2920 H   0  0  0  0  0  0  0  0  0  0  0  0
   39.9020   25.4140   42.4480 H   0  0  0  0  0  0  0  0  0  0  0  0
   40.9680   27.6060   44.4580 H   0  0  0  0  0  0  0  0  0  0  0  0
   40.8950   27.8840   42.3190 N   0  0  0  0  0  0  0  0  0  0  0  0
   41.7360   27.3610   42.0590 H   0  0  0  0  0  0  0  0  0  0  0  0
   40.9600   28.9110   42.3140 H   0  0  0  0  0  0  0  0  0  0  0  0
   36.8090   30.4660   41.0560 C   0  0  0  0  0  0  0  0  0  0  0  0
   37.6260   31.2760   40.4970 O   0  0  0  0  0  0  0  0  0  0  0  0
   35.5650   31.0210   41.4150 O   0  0  0  0  0  0  0  0  0  0  0  0
   35.1300   31.7270   40.8250 H   0  0  0  0  0  0  0  0  0  0  0  0
  1  6  1  0  0  0  0
  2  3  1  0  0  0  0
  2  1  2  0  0  0  0
  3  4  2  0  0  0  0
  4  5  1  0  0  0  0
  5  9  1  0  0  0  0
  6  5  2  0  0  0  0
  7  2  1  0  0  0  0
  8  3  1  0  0  0  0
  9 12  1  1  0  0  0
 10 11  1  0  0  0  0
 10  9  1  0  0  0  0
 10 13  1  0  0  0  0
 11  9  1  0  0  0  0
 11 15  1  1  0  0  0
 14 10  1  0  0  0  0
 16 11  1  0  0  0  0
 17 16  1  0  0  0  0
 18 16  1  0  0  0  0
 19  1  1  0  0  0  0
 19 21  1  0  0  0  0
 20 19  2  0  0  0  0
 22 21  1  0  0  0  0
M  END
>  <minimizedAffinity>
-4.21721649

$$$$

 OpenBabel03252508013D

 22 23  0  0  1  0  0  0  0  0999 V2000
   36.8650   28.7120   41.5540 C   0  0  0  0  0  0  0  0  0  0  0  0
   37.6200   29.3550   42.5790 C   0  0  0  0  0  0  0  0  0  0  0  0
   38.6830   28.6250   43.1100 C   0  0  0  0  0  0  0  0  0  0  0  0
   38.9290   27.3800   42.6300 N   0  0  0  0  0  0  0  0  0  0  0  0
   38.1560   26.8260   41.6400 C   0  0  0  0  0  0  0  0  0  0  0  0
   37.1350   27.4580   41.0930 N   0  0  0  0  0  0  0  0  0  0  0  0
   37.3540   30.3430   42.8980 H   0  0  0  0  0  0  0  0  0  0  0  0
   39.2760   29.0660   43.8800 H   0  0  0  0  0  0  0  0  0  0  0  0
   38.4990   25.4540   41.1540 C   0  0  1  0  0  0  0  0  0  0  0  0
   38.8170   24.3780   42.1680 C   0  0  0  0  0  0  0  0  0  0  0  0
   37.4880   24.4210   41.4650 C   0  0  1  0  0  0  0  0  0  0  0  0
   39.0700   25.3980   40.2170 H   0  0  0  0  0  0  0  0  0  0  0  0
   39.5130   23.5900   41.8590 H   0  0  0  0  0  0  0  0  0  0  0  0
   38.9320   24.7780   43.1970 H   0  0  0  0  0  0  0  0  0  0  0  0
   37.2710   23.6010   40.7820 H   0  0  0  0  0  0  0  0  0  0  0  0
   36.3930   24.7420   42.3890 N   0  0  0  0  0  0  0  0  0  0  0  0
   36.3440   24.0080   43.1010 H   0  0  0  0  0  0  0  0  0  0  0  0
   35.5160   24.9940   41.9120 H   0  0  0  0  0  0  0  0  0  0  0  0
   35.7740   29.4900   41.0120 C   0  0  0  0  0  0  0  0  0  0  0  0
   34.8990   29.0170   40.2080 O   0  0  0  0  0  0  0  0  0  0  0  0
   35.6080   30.8480   41.3480 O   0  0  0  0  0  0  0  0  0  0  0  0
   34.6740   31.2380   41.4560 H   0  0  0  0  0  0  0  0  0  0  0  0
  1  2  1  0  0  0  0
  2  7  1  0  0  0  0
  2  3  2  0  0  0  0
  3  8  1  0  0  0  0
  4  3  1  0  0  0  0
  5  4  2  0  0  0  0
  6  1  2  0  0  0  0
  6  5  1  0  0  0  0
  9 12  1  6  0  0  0
  9 11  1  0  0  0  0
  9  5  1  0  0  0  0
  9 10  1  0  0  0  0
 10 14  1  0  0  0  0
 11 15  1  6  0  0  0
 11 10  1  0  0  0  0
 11 16  1  0  0  0  0
 13 10  1  0  0  0  0
 16 17  1  0  0  0  0
 18 16  1  0  0  0  0
 19 21  1  0  0  0  0
 19  1  1  0  0  0  0
 20 19  2  0  0  0  0
 21 22  1  0  0  0  0
M  END
>  <minimizedAffinity>
-4.20498276

$$$$

 OpenBabel03252508013D

 22 23  0  0  1  0  0  0  0  0999 V2000
   37.1380   28.5360   41.2620 C   0  0  0  0  0  0  0  0  0  0  0  0
   36.4610   27.5990   40.4280 C   0  0  0  0  0  0  0  0  0  0  0  0
   36.4190   27.9040   39.0680 C   0  0  0  0  0  0  0  0  0  0  0  0
   37.0140   29.0440   38.6330 N   0  0  0  0  0  0  0  0  0  0  0  0
   37.6480   29.9000   39.4980 C   0  0  0  0  0  0  0  0  0  0  0  0
   37.7240   29.6750   40.7960 N   0  0  0  0  0  0  0  0  0  0  0  0
   36.0190   26.7220   40.8580 H   0  0  0  0  0  0  0  0  0  0  0  0
   35.9230   27.2320   38.4050 H   0  0  0  0  0  0  0  0  0  0  0  0
   38.2900   31.1300   38.9400 C   0  0  1  0  0  0  0  0  0  0  0  0
   37.4440   32.0990   38.1470 C   0  0  0  0  0  0  0  0  0  0  0  0
   37.8460   32.3930   39.5660 C   0  0  1  0  0  0  0  0  0  0  0  0
   39.3280   31.0230   38.5960 H   0  0  0  0  0  0  0  0  0  0  0  0
   37.9480   32.6760   37.3620 H   0  0  0  0  0  0  0  0  0  0  0  0
   36.4370   31.6960   37.9090 H   0  0  0  0  0  0  0  0  0  0  0  0
   38.5230   33.2320   39.7170 H   0  0  0  0  0  0  0  0  0  0  0  0
   36.6910   32.3790   40.4730 N   0  0  0  0  0  0  0  0  0  0  0  0
   36.0380   33.1110   40.1780 H   0  0  0  0  0  0  0  0  0  0  0  0
   36.9530   32.3570   41.4680 H   0  0  0  0  0  0  0  0  0  0  0  0
   37.1760   28.1950   42.6670 C   0  0  0  0  0  0  0  0  0  0  0  0
   37.3500   27.0040   43.1010 O   0  0  0  0  0  0  0  0  0  0  0  0
   37.0180   29.1790   43.6620 O   0  0  0  0  0  0  0  0  0  0  0  0
   37.5420   29.1140   44.5330 H   0  0  0  0  0  0  0  0  0  0  0  0
  1 19  1  0  0  0  0
  2  7  1  0  0  0  0
  2  1  2  0  0  0  0
  3  2  1  0  0  0  0
  4  3  2  0  0  0  0
  4  5  1  0  0  0  0
  5  6  2  0  0  0  0
  6  1  1  0  0  0  0
  8  3  1  0  0  0  0
  9 12  1  6  0  0  0
  9  5  1  0  0  0  0
  9 11  1  0  0  0  0
 10  9  1  0  0  0  0
 10 11  1  0  0  0  0
 11 15  1  1  0  0  0
 11 16  1  0  0  0  0
 13 10  1  0  0  0  0
 14 10  1  0  0  0  0
 16 18  1  0  0  0  0
 17 16  1  0  0  0  0
 19 20  2  0  0  0  0
 19 21  1  0  0  0  0
 21 22  1  0  0  0  0
M  END
>  <minimizedAffinity>
-4.09404135

$$$$
