
 OpenBabel03242519353D

 33 34  0  0  0  0  0  0  0  0999 V2000
   38.6580   27.0020   43.3470 C   0  0  0  0  0  0  0  0  0  0  0  0
   40.0720   26.7240   43.6800 C   0  0  0  0  0  0  0  0  0  0  0  0
   40.6890   25.7770   42.6910 C   0  0  0  0  0  0  0  0  0  0  0  0
   39.9220   24.4710   42.6070 C   0  0  0  0  0  0  0  0  0  0  0  0
   38.4450   24.6530   42.5400 C   0  0  0  0  0  0  0  0  0  0  0  0
   38.0460   26.0890   42.3390 C   0  0  0  0  0  0  0  0  0  0  0  0
   38.0310   26.9580   44.2830 H   0  0  0  0  0  0  0  0  0  0  0  0
   40.7530   27.5850   43.7680 H   0  0  0  0  0  0  0  0  0  0  0  0
   40.1130   26.2050   44.6600 H   0  0  0  0  0  0  0  0  0  0  0  0
   41.7310   25.5530   42.9910 H   0  0  0  0  0  0  0  0  0  0  0  0
   40.6900   26.1960   41.6620 H   0  0  0  0  0  0  0  0  0  0  0  0
   40.3480   23.8520   41.8110 H   0  0  0  0  0  0  0  0  0  0  0  0
   40.1520   23.9490   43.5820 H   0  0  0  0  0  0  0  0  0  0  0  0
   37.8870   24.2670   43.4210 H   0  0  0  0  0  0  0  0  0  0  0  0
   38.0710   24.0800   41.6560 H   0  0  0  0  0  0  0  0  0  0  0  0
   38.3550   26.4310   41.3210 H   0  0  0  0  0  0  0  0  0  0  0  0
   36.9440   26.1650   42.3730 H   0  0  0  0  0  0  0  0  0  0  0  0
   38.4800   28.4060   42.8630 C   0  0  0  0  0  0  0  0  0  0  0  0
   37.2740   28.7390   42.2680 C   0  0  0  0  0  0  0  0  0  0  0  0
   37.0900   29.9990   41.7280 C   0  0  0  0  0  0  0  0  0  0  0  0
   38.1550   30.8650   41.8310 N   0  0  0  0  0  0  0  0  0  0  0  0
   39.3290   30.5190   42.4250 C   0  0  0  0  0  0  0  0  0  0  0  0
   39.4890   29.3050   42.9330 N   0  0  0  0  0  0  0  0  0  0  0  0
   40.3450   31.5180   42.4990 N   0  0  0  0  0  0  0  0  0  0  0  0
   35.2270   29.1720   40.5930 C   0  0  0  0  0  0  0  0  0  0  0  0
   35.7200   28.0420   40.7970 O   0  0  0  0  0  0  0  0  0  0  0  0
   35.8890   30.3640   41.0830 N   0  0  0  0  0  0  0  0  0  0  0  0
   36.6110   27.9030   42.3840 H   0  0  0  0  0  0  0  0  0  0  0  0
   41.3700   31.2580   42.4330 H   0  0  0  0  0  0  0  0  0  0  0  0
   40.0930   32.5320   42.6220 H   0  0  0  0  0  0  0  0  0  0  0  0
   35.5480   31.3150   40.9840 H   0  0  0  0  0  0  0  0  0  0  0  0
   33.9840   29.3890   39.8700 O   0  0  0  0  0  0  0  0  0  0  0  0
   33.1390   28.9620   40.2830 H   0  0  0  0  0  0  0  0  0  0  0  0
  1  2  1  0  0  0  0
  1  7  1  0  0  0  0
  2  8  1  0  0  0  0
  2  9  1  0  0  0  0
  3 10  1  0  0  0  0
  3  2  1  0  0  0  0
  4  3  1  0  0  0  0
  4 13  1  0  0  0  0
  5  4  1  0  0  0  0
  5 14  1  0  0  0  0
  6 17  1  0  0  0  0
  6  5  1  0  0  0  0
  6  1  1  0  0  0  0
 11  3  1  0  0  0  0
 12  4  1  0  0  0  0
 15  5  1  0  0  0  0
 16  6  1  0  0  0  0
 18 23  1  0  0  0  0
 18  1  1  0  0  0  0
 19 28  1  0  0  0  0
 19 18  2  0  0  0  0
 20 21  2  0  0  0  0
 20 19  1  0  0  0  0
 21 22  1  0  0  0  0
 22 24  1  0  0  0  0
 22 23  2  0  0  0  0
 24 30  1  0  0  0  0
 25 26  2  0  0  0  0
 25 27  1  0  0  0  0
 27 20  1  0  0  0  0
 29 24  1  0  0  0  0
 31 27  1  0  0  0  0
 32 33  1  0  0  0  0
 32 25  1  0  0  0  0
M  END
>  <minimizedAffinity>
-5.78664255

$$$$

 OpenBabel03242519353D

 33 34  0  0  0  0  0  0  0  0999 V2000
   36.7220   29.1840   41.4570 C   0  0  0  0  0  0  0  0  0  0  0  0
   37.6870   29.4360   42.5500 C   0  0  0  0  0  0  0  0  0  0  0  0
   38.7610   28.3860   42.5790 C   0  0  0  0  0  0  0  0  0  0  0  0
   38.1820   26.9920   42.7240 C   0  0  0  0  0  0  0  0  0  0  0  0
   37.0130   26.7380   41.8380 C   0  0  0  0  0  0  0  0  0  0  0  0
   36.8010   27.8350   40.8290 C   0  0  0  0  0  0  0  0  0  0  0  0
   35.6700   29.3310   41.8380 H   0  0  0  0  0  0  0  0  0  0  0  0
   38.1920   30.4130   42.5680 H   0  0  0  0  0  0  0  0  0  0  0  0
   37.1570   29.3510   43.5210 H   0  0  0  0  0  0  0  0  0  0  0  0
   39.4400   28.5740   43.4330 H   0  0  0  0  0  0  0  0  0  0  0  0
   39.3530   28.3730   41.6400 H   0  0  0  0  0  0  0  0  0  0  0  0
   38.9890   26.2560   42.6470 H   0  0  0  0  0  0  0  0  0  0  0  0
   37.8100   26.9530   43.7900 H   0  0  0  0  0  0  0  0  0  0  0  0
   36.0500   26.5780   42.3690 H   0  0  0  0  0  0  0  0  0  0  0  0
   37.2150   25.7990   41.2660 H   0  0  0  0  0  0  0  0  0  0  0  0
   37.6400   27.8400   40.0910 H   0  0  0  0  0  0  0  0  0  0  0  0
   35.8800   27.6240   40.2560 H   0  0  0  0  0  0  0  0  0  0  0  0
   36.8530   30.2050   40.3720 C   0  0  0  0  0  0  0  0  0  0  0  0
   36.9710   29.7530   39.0670 C   0  0  0  0  0  0  0  0  0  0  0  0
   37.1810   30.6510   38.0370 C   0  0  0  0  0  0  0  0  0  0  0  0
   37.2520   31.9790   38.3940 N   0  0  0  0  0  0  0  0  0  0  0  0
   37.1280   32.4010   39.6810 C   0  0  0  0  0  0  0  0  0  0  0  0
   36.9320   31.5260   40.6570 N   0  0  0  0  0  0  0  0  0  0  0  0
   37.1860   33.8080   39.9170 N   0  0  0  0  0  0  0  0  0  0  0  0
   37.8160   28.8580   36.6870 C   0  0  0  0  0  0  0  0  0  0  0  0
   37.9910   28.2350   37.7560 O   0  0  0  0  0  0  0  0  0  0  0  0
   37.3410   30.2270   36.7010 N   0  0  0  0  0  0  0  0  0  0  0  0
   36.8150   28.6920   39.0750 H   0  0  0  0  0  0  0  0  0  0  0  0
   37.6150   34.1930   40.8070 H   0  0  0  0  0  0  0  0  0  0  0  0
   36.8030   34.4870   39.2110 H   0  0  0  0  0  0  0  0  0  0  0  0
   37.1490   30.7960   35.8820 H   0  0  0  0  0  0  0  0  0  0  0  0
   38.0640   28.2870   35.3730 O   0  0  0  0  0  0  0  0  0  0  0  0
   37.4970   27.4590   35.1230 H   0  0  0  0  0  0  0  0  0  0  0  0
  1  7  1  0  0  0  0
  1  2  1  0  0  0  0
  2  8  1  0  0  0  0
  2  3  1  0  0  0  0
  2  9  1  0  0  0  0
  3  4  1  0  0  0  0
  3 10  1  0  0  0  0
  4 13  1  0  0  0  0
  5 14  1  0  0  0  0
  5  4  1  0  0  0  0
  6  1  1  0  0  0  0
  6  5  1  0  0  0  0
 11  3  1  0  0  0  0
 12  4  1  0  0  0  0
 15  5  1  0  0  0  0
 16  6  1  0  0  0  0
 17  6  1  0  0  0  0
 18 23  1  0  0  0  0
 18  1  1  0  0  0  0
 19 28  1  0  0  0  0
 19 18  2  0  0  0  0
 20 21  2  0  0  0  0
 20 19  1  0  0  0  0
 21 22  1  0  0  0  0
 22 24  1  0  0  0  0
 22 23  2  0  0  0  0
 24 29  1  0  0  0  0
 25 27  1  0  0  0  0
 25 26  2  0  0  0  0
 27 20  1  0  0  0  0
 30 24  1  0  0  0  0
 31 27  1  0  0  0  0
 32 25  1  0  0  0  0
 33 32  1  0  0  0  0
M  END
>  <minimizedAffinity>
-5.71812773

$$$$

 OpenBabel03242519353D

 33 34  0  0  0  0  0  0  0  0999 V2000
   37.7660   29.5380   42.0470 C   0  0  0  0  0  0  0  0  0  0  0  0
   37.8330   28.9600   43.4080 C   0  0  0  0  0  0  0  0  0  0  0  0
   38.1560   27.4940   43.3610 C   0  0  0  0  0  0  0  0  0  0  0  0
   37.1490   26.7220   42.5310 C   0  0  0  0  0  0  0  0  0  0  0  0
   36.8130   27.3810   41.2390 C   0  0  0  0  0  0  0  0  0  0  0  0
   37.7110   28.5490   40.9330 C   0  0  0  0  0  0  0  0  0  0  0  0
   36.8640   30.2090   41.9630 H   0  0  0  0  0  0  0  0  0  0  0  0
   38.5320   29.4210   44.1220 H   0  0  0  0  0  0  0  0  0  0  0  0
   36.8300   29.0330   43.8760 H   0  0  0  0  0  0  0  0  0  0  0  0
   38.1540   27.0810   44.3890 H   0  0  0  0  0  0  0  0  0  0  0  0
   39.1460   27.3030   42.8950 H   0  0  0  0  0  0  0  0  0  0  0  0
   37.4740   25.6790   42.4480 H   0  0  0  0  0  0  0  0  0  0  0  0
   36.2110   26.7180   43.1610 H   0  0  0  0  0  0  0  0  0  0  0  0
   35.7620   27.7320   41.1540 H   0  0  0  0  0  0  0  0  0  0  0  0
   36.9600   26.6300   40.4240 H   0  0  0  0  0  0  0  0  0  0  0  0
   38.7490   28.1880   40.7310 H   0  0  0  0  0  0  0  0  0  0  0  0
   37.3630   29.0370   40.0040 H   0  0  0  0  0  0  0  0  0  0  0  0
   38.9190   30.4560   41.7900 C   0  0  0  0  0  0  0  0  0  0  0  0
   38.9800   31.0920   40.5610 C   0  0  0  0  0  0  0  0  0  0  0  0
   40.0680   31.8830   40.2410 C   0  0  0  0  0  0  0  0  0  0  0  0
   41.0440   31.9920   41.2050 N   0  0  0  0  0  0  0  0  0  0  0  0
   40.9610   31.3630   42.4090 C   0  0  0  0  0  0  0  0  0  0  0  0
   39.9130   30.6040   42.6970 N   0  0  0  0  0  0  0  0  0  0  0  0
   42.0230   31.5830   43.3380 N   0  0  0  0  0  0  0  0  0  0  0  0
   39.3990   31.7920   38.0080 C   0  0  0  0  0  0  0  0  0  0  0  0
   38.7340   30.7880   38.3440 O   0  0  0  0  0  0  0  0  0  0  0  0
   40.1830   32.5180   38.9870 N   0  0  0  0  0  0  0  0  0  0  0  0
   38.0660   30.8830   40.0400 H   0  0  0  0  0  0  0  0  0  0  0  0
   42.3330   30.8160   44.0010 H   0  0  0  0  0  0  0  0  0  0  0  0
   42.5150   32.5110   43.3790 H   0  0  0  0  0  0  0  0  0  0  0  0
   40.7300   33.3550   38.8060 H   0  0  0  0  0  0  0  0  0  0  0  0
   39.4440   32.3080   36.6490 O   0  0  0  0  0  0  0  0  0  0  0  0
   38.5430   32.6220   36.2530 H   0  0  0  0  0  0  0  0  0  0  0  0
  1  2  1  0  0  0  0
  2  9  1  0  0  0  0
  2  8  1  0  0  0  0
  3  2  1  0  0  0  0
  3 10  1  0  0  0  0
  4 13  1  0  0  0  0
  4  3  1  0  0  0  0
  5  4  1  0  0  0  0
  6  5  1  0  0  0  0
  6  1  1  0  0  0  0
  7  1  1  0  0  0  0
 11  3  1  0  0  0  0
 12  4  1  0  0  0  0
 14  5  1  0  0  0  0
 15  5  1  0  0  0  0
 16  6  1  0  0  0  0
 17  6  1  0  0  0  0
 18  1  1  0  0  0  0
 18 23  1  0  0  0  0
 19 18  2  0  0  0  0
 20 19  1  0  0  0  0
 20 21  2  0  0  0  0
 21 22  1  0  0  0  0
 22 23  2  0  0  0  0
 22 24  1  0  0  0  0
 24 30  1  0  0  0  0
 24 29  1  0  0  0  0
 25 26  2  0  0  0  0
 25 27  1  0  0  0  0
 27 20  1  0  0  0  0
 28 19  1  0  0  0  0
 31 27  1  0  0  0  0
 32 25  1  0  0  0  0
 33 32  1  0  0  0  0
M  END
>  <minimizedAffinity>
-5.71161413

$$$$

 OpenBabel03242519353D

 33 34  0  0  0  0  0  0  0  0999 V2000
   36.9440   24.9580   41.3660 C   0  0  0  0  0  0  0  0  0  0  0  0
   37.6920   23.6860   41.4690 C   0  0  0  0  0  0  0  0  0  0  0  0
   38.2470   23.2720   40.1360 C   0  0  0  0  0  0  0  0  0  0  0  0
   37.1570   23.1370   39.0900 C   0  0  0  0  0  0  0  0  0  0  0  0
   36.1840   24.2640   39.0960 C   0  0  0  0  0  0  0  0  0  0  0  0
   36.6190   25.4010   39.9800 C   0  0  0  0  0  0  0  0  0  0  0  0
   35.9770   24.8790   41.9430 H   0  0  0  0  0  0  0  0  0  0  0  0
   38.5210   23.6400   42.1910 H   0  0  0  0  0  0  0  0  0  0  0  0
   36.9880   22.8800   41.7660 H   0  0  0  0  0  0  0  0  0  0  0  0
   38.7600   22.2960   40.2350 H   0  0  0  0  0  0  0  0  0  0  0  0
   38.9630   24.0200   39.7360 H   0  0  0  0  0  0  0  0  0  0  0  0
   37.6150   22.9270   38.1170 H   0  0  0  0  0  0  0  0  0  0  0  0
   36.5950   22.2050   39.3900 H   0  0  0  0  0  0  0  0  0  0  0  0
   35.1490   23.9850   39.3900 H   0  0  0  0  0  0  0  0  0  0  0  0
   36.1180   24.6630   38.0540 H   0  0  0  0  0  0  0  0  0  0  0  0
   37.5230   25.8950   39.5480 H   0  0  0  0  0  0  0  0  0  0  0  0
   35.8230   26.1670   40.0000 H   0  0  0  0  0  0  0  0  0  0  0  0
   37.6740   26.0730   42.0460 C   0  0  0  0  0  0  0  0  0  0  0  0
   37.0790   27.3240   42.0600 C   0  0  0  0  0  0  0  0  0  0  0  0
   37.7500   28.4060   42.5990 C   0  0  0  0  0  0  0  0  0  0  0  0
   39.0030   28.1520   43.1090 N   0  0  0  0  0  0  0  0  0  0  0  0
   39.5660   26.9130   43.0900 C   0  0  0  0  0  0  0  0  0  0  0  0
   38.9110   25.8880   42.5640 N   0  0  0  0  0  0  0  0  0  0  0  0
   40.8580   26.7720   43.6800 N   0  0  0  0  0  0  0  0  0  0  0  0
   36.2220   29.8070   41.5300 C   0  0  0  0  0  0  0  0  0  0  0  0
   35.9730   28.8240   40.7990 O   0  0  0  0  0  0  0  0  0  0  0  0
   37.1920   29.7020   42.6010 N   0  0  0  0  0  0  0  0  0  0  0  0
   36.0890   27.2190   41.6590 H   0  0  0  0  0  0  0  0  0  0  0  0
   41.5640   26.0860   43.2870 H   0  0  0  0  0  0  0  0  0  0  0  0
   41.1310   27.3470   44.5170 H   0  0  0  0  0  0  0  0  0  0  0  0
   37.4360   30.4400   43.2550 H   0  0  0  0  0  0  0  0  0  0  0  0
   35.5810   31.1040   41.3800 O   0  0  0  0  0  0  0  0  0  0  0  0
   34.5550   31.1200   41.5020 H   0  0  0  0  0  0  0  0  0  0  0  0
  1  2  1  0  0  0  0
  1  7  1  0  0  0  0
  1 18  1  0  0  0  0
  2  9  1  0  0  0  0
  2  8  1  0  0  0  0
  3 10  1  0  0  0  0
  3  2  1  0  0  0  0
  4  5  1  0  0  0  0
  4 13  1  0  0  0  0
  4  3  1  0  0  0  0
  5 14  1  0  0  0  0
  5  6  1  0  0  0  0
  6 17  1  0  0  0  0
  6  1  1  0  0  0  0
 11  3  1  0  0  0  0
 12  4  1  0  0  0  0
 15  5  1  0  0  0  0
 16  6  1  0  0  0  0
 18 19  2  0  0  0  0
 18 23  1  0  0  0  0
 19 20  1  0  0  0  0
 20 27  1  0  0  0  0
 20 21  2  0  0  0  0
 22 21  1  0  0  0  0
 22 24  1  0  0  0  0
 23 22  2  0  0  0  0
 24 30  1  0  0  0  0
 25 27  1  0  0  0  0
 26 25  2  0  0  0  0
 27 31  1  0  0  0  0
 28 19  1  0  0  0  0
 29 24  1  0  0  0  0
 32 33  1  0  0  0  0
 32 25  1  0  0  0  0
M  END
>  <minimizedAffinity>
-5.67902994

$$$$

 OpenBabel03242519353D

 33 34  0  0  0  0  0  0  0  0999 V2000
   36.8800   29.3300   41.5480 C   0  0  0  0  0  0  0  0  0  0  0  0
   38.3290   29.6020   41.6670 C   0  0  0  0  0  0  0  0  0  0  0  0
   39.0820   28.3720   42.0870 C   0  0  0  0  0  0  0  0  0  0  0  0
   38.5610   27.8130   43.3970 C   0  0  0  0  0  0  0  0  0  0  0  0
   37.0750   27.7550   43.4700 C   0  0  0  0  0  0  0  0  0  0  0  0
   36.4170   28.0460   42.1480 C   0  0  0  0  0  0  0  0  0  0  0  0
   36.2950   30.1690   42.0240 H   0  0  0  0  0  0  0  0  0  0  0  0
   38.8450   30.0090   40.7840 H   0  0  0  0  0  0  0  0  0  0  0  0
   38.4880   30.3440   42.4780 H   0  0  0  0  0  0  0  0  0  0  0  0
   40.1540   28.6170   42.2120 H   0  0  0  0  0  0  0  0  0  0  0  0
   38.9810   27.5520   41.3440 H   0  0  0  0  0  0  0  0  0  0  0  0
   39.0720   26.8690   43.6150 H   0  0  0  0  0  0  0  0  0  0  0  0
   38.9070   28.5560   44.1750 H   0  0  0  0  0  0  0  0  0  0  0  0
   36.6180   28.4260   44.2290 H   0  0  0  0  0  0  0  0  0  0  0  0
   36.7880   26.7130   43.7580 H   0  0  0  0  0  0  0  0  0  0  0  0
   36.6340   27.2220   41.4250 H   0  0  0  0  0  0  0  0  0  0  0  0
   35.3210   28.0610   42.2870 H   0  0  0  0  0  0  0  0  0  0  0  0
   36.4390   29.3550   40.1190 C   0  0  0  0  0  0  0  0  0  0  0  0
   37.2850   29.9340   39.1880 C   0  0  0  0  0  0  0  0  0  0  0  0
   36.8880   30.0580   37.8690 C   0  0  0  0  0  0  0  0  0  0  0  0
   35.6360   29.5730   37.5640 N   0  0  0  0  0  0  0  0  0  0  0  0
   34.8230   29.0020   38.4940 C   0  0  0  0  0  0  0  0  0  0  0  0
   35.2180   28.8960   39.7540 N   0  0  0  0  0  0  0  0  0  0  0  0
   33.5610   28.5070   38.0450 N   0  0  0  0  0  0  0  0  0  0  0  0
   38.6230   31.5850   37.5550 C   0  0  0  0  0  0  0  0  0  0  0  0
   38.6200   31.7040   38.7990 O   0  0  0  0  0  0  0  0  0  0  0  0
   37.7070   30.6730   36.8990 N   0  0  0  0  0  0  0  0  0  0  0  0
   38.2090   30.1610   39.6840 H   0  0  0  0  0  0  0  0  0  0  0  0
   32.7080   28.5460   38.6710 H   0  0  0  0  0  0  0  0  0  0  0  0
   33.4590   28.0930   37.0840 H   0  0  0  0  0  0  0  0  0  0  0  0
   37.6590   30.4980   35.9010 H   0  0  0  0  0  0  0  0  0  0  0  0
   39.5160   32.3260   36.6790 O   0  0  0  0  0  0  0  0  0  0  0  0
   40.5260   32.1620   36.8170 H   0  0  0  0  0  0  0  0  0  0  0  0
  1  2  1  0  0  0  0
  1  7  1  0  0  0  0
  1  6  1  0  0  0  0
  2  3  1  0  0  0  0
  2  9  1  0  0  0  0
  3 10  1  0  0  0  0
  3  4  1  0  0  0  0
  4  5  1  0  0  0  0
  4 12  1  0  0  0  0
  4 13  1  0  0  0  0
  5 15  1  0  0  0  0
  5 14  1  0  0  0  0
  6 17  1  0  0  0  0
  6  5  1  0  0  0  0
  8  2  1  0  0  0  0
 11  3  1  0  0  0  0
 16  6  1  0  0  0  0
 18  1  1  0  0  0  0
 19 28  1  0  0  0  0
 19 18  2  0  0  0  0
 20 19  1  0  0  0  0
 21 20  2  0  0  0  0
 21 22  1  0  0  0  0
 22 23  2  0  0  0  0
 23 18  1  0  0  0  0
 24 22  1  0  0  0  0
 24 29  1  0  0  0  0
 25 26  2  0  0  0  0
 27 25  1  0  0  0  0
 27 20  1  0  0  0  0
 30 24  1  0  0  0  0
 31 27  1  0  0  0  0
 32 33  1  0  0  0  0
 32 25  1  0  0  0  0
M  END
>  <minimizedAffinity>
-5.67324495

$$$$

 OpenBabel03242519353D

 33 34  0  0  0  0  0  0  0  0999 V2000
   37.5710   26.9110   42.7210 C   0  0  0  0  0  0  0  0  0  0  0  0
   38.6290   27.2960   43.6800 C   0  0  0  0  0  0  0  0  0  0  0  0
   39.9460   26.6730   43.3160 C   0  0  0  0  0  0  0  0  0  0  0  0
   39.8530   25.1600   43.2430 C   0  0  0  0  0  0  0  0  0  0  0  0
   38.6490   24.6730   42.5130 C   0  0  0  0  0  0  0  0  0  0  0  0
   37.9100   25.7800   41.8110 C   0  0  0  0  0  0  0  0  0  0  0  0
   36.6300   26.6380   43.2810 H   0  0  0  0  0  0  0  0  0  0  0  0
   38.8130   28.3700   43.8310 H   0  0  0  0  0  0  0  0  0  0  0  0
   38.3700   26.8900   44.6800 H   0  0  0  0  0  0  0  0  0  0  0  0
   40.7060   26.9410   44.0750 H   0  0  0  0  0  0  0  0  0  0  0  0
   40.2980   27.0040   42.3160 H   0  0  0  0  0  0  0  0  0  0  0  0
   40.8060   24.7570   42.8840 H   0  0  0  0  0  0  0  0  0  0  0  0
   39.7480   24.8350   44.3190 H   0  0  0  0  0  0  0  0  0  0  0  0
   37.9160   24.1210   43.1390 H   0  0  0  0  0  0  0  0  0  0  0  0
   38.9930   23.9570   41.7270 H   0  0  0  0  0  0  0  0  0  0  0  0
   38.5290   26.1780   40.9710 H   0  0  0  0  0  0  0  0  0  0  0  0
   36.9920   25.3660   41.3550 H   0  0  0  0  0  0  0  0  0  0  0  0
   37.1560   28.0730   41.8750 C   0  0  0  0  0  0  0  0  0  0  0  0
   38.0670   29.1000   41.6920 C   0  0  0  0  0  0  0  0  0  0  0  0
   37.7040   30.2350   40.9900 C   0  0  0  0  0  0  0  0  0  0  0  0
   36.4170   30.2590   40.4990 N   0  0  0  0  0  0  0  0  0  0  0  0
   35.5410   29.2360   40.6850 C   0  0  0  0  0  0  0  0  0  0  0  0
   35.9050   28.1580   41.3650 N   0  0  0  0  0  0  0  0  0  0  0  0
   34.2470   29.3670   40.0970 N   0  0  0  0  0  0  0  0  0  0  0  0
   39.5760   31.3070   41.8750 C   0  0  0  0  0  0  0  0  0  0  0  0
   39.5640   30.4100   42.7450 O   0  0  0  0  0  0  0  0  0  0  0  0
   38.5910   31.3170   40.8120 N   0  0  0  0  0  0  0  0  0  0  0  0
   38.9990   28.7900   42.1220 H   0  0  0  0  0  0  0  0  0  0  0  0
   33.3900   28.9620   40.5710 H   0  0  0  0  0  0  0  0  0  0  0  0
   34.1220   29.8680   39.1810 H   0  0  0  0  0  0  0  0  0  0  0  0
   38.5430   31.9910   40.0550 H   0  0  0  0  0  0  0  0  0  0  0  0
   40.5470   32.3890   41.8500 O   0  0  0  0  0  0  0  0  0  0  0  0
   41.5360   32.1090   41.7460 H   0  0  0  0  0  0  0  0  0  0  0  0
  1  7  1  0  0  0  0
  1  2  1  0  0  0  0
  2  8  1  0  0  0  0
  2  9  1  0  0  0  0
  3  2  1  0  0  0  0
  3 10  1  0  0  0  0
  4  3  1  0  0  0  0
  4 13  1  0  0  0  0
  5 14  1  0  0  0  0
  5  4  1  0  0  0  0
  6  5  1  0  0  0  0
  6  1  1  0  0  0  0
 11  3  1  0  0  0  0
 12  4  1  0  0  0  0
 15  5  1  0  0  0  0
 16  6  1  0  0  0  0
 17  6  1  0  0  0  0
 18  1  1  0  0  0  0
 19 18  1  0  0  0  0
 19 28  1  0  0  0  0
 20 19  2  0  0  0  0
 21 22  2  0  0  0  0
 21 20  1  0  0  0  0
 22 23  1  0  0  0  0
 23 18  2  0  0  0  0
 24 29  1  0  0  0  0
 24 22  1  0  0  0  0
 25 26  2  0  0  0  0
 27 20  1  0  0  0  0
 27 25  1  0  0  0  0
 30 24  1  0  0  0  0
 31 27  1  0  0  0  0
 32 25  1  0  0  0  0
 33 32  1  0  0  0  0
M  END
>  <minimizedAffinity>
-5.57667017

$$$$

 OpenBabel03242519353D

 33 34  0  0  0  0  0  0  0  0999 V2000
   38.6130   28.8220   41.5040 C   0  0  0  0  0  0  0  0  0  0  0  0
   37.3200   28.3470   40.9650 C   0  0  0  0  0  0  0  0  0  0  0  0
   36.3440   28.0560   42.0690 C   0  0  0  0  0  0  0  0  0  0  0  0
   36.8900   27.0370   43.0500 C   0  0  0  0  0  0  0  0  0  0  0  0
   38.3030   27.2900   43.4460 C   0  0  0  0  0  0  0  0  0  0  0  0
   38.8090   28.6250   42.9690 C   0  0  0  0  0  0  0  0  0  0  0  0
   39.4620   28.3080   40.9670 H   0  0  0  0  0  0  0  0  0  0  0  0
   36.8030   28.9930   40.2400 H   0  0  0  0  0  0  0  0  0  0  0  0
   37.4840   27.3800   40.4450 H   0  0  0  0  0  0  0  0  0  0  0  0
   35.4040   27.6600   41.6380 H   0  0  0  0  0  0  0  0  0  0  0  0
   36.1150   28.9630   42.6680 H   0  0  0  0  0  0  0  0  0  0  0  0
   36.1890   26.9260   43.8840 H   0  0  0  0  0  0  0  0  0  0  0  0
   36.8710   26.0620   42.4800 H   0  0  0  0  0  0  0  0  0  0  0  0
   39.0270   26.5160   43.1130 H   0  0  0  0  0  0  0  0  0  0  0  0
   38.3470   27.3010   44.5630 H   0  0  0  0  0  0  0  0  0  0  0  0
   38.2780   29.4480   43.5080 H   0  0  0  0  0  0  0  0  0  0  0  0
   39.8790   28.7180   43.2290 H   0  0  0  0  0  0  0  0  0  0  0  0
   38.8270   30.2710   41.2040 C   0  0  0  0  0  0  0  0  0  0  0  0
   40.0680   30.8170   41.4870 C   0  0  0  0  0  0  0  0  0  0  0  0
   40.2900   32.1700   41.3080 C   0  0  0  0  0  0  0  0  0  0  0  0
   39.2250   32.9030   40.8360 N   0  0  0  0  0  0  0  0  0  0  0  0
   38.0150   32.3460   40.5580 C   0  0  0  0  0  0  0  0  0  0  0  0
   37.8190   31.0480   40.7410 N   0  0  0  0  0  0  0  0  0  0  0  0
   37.0000   33.2070   40.0420 N   0  0  0  0  0  0  0  0  0  0  0  0
   42.2150   31.9630   42.6080 C   0  0  0  0  0  0  0  0  0  0  0  0
   41.7060   30.9020   43.0280 O   0  0  0  0  0  0  0  0  0  0  0  0
   41.5290   32.7690   41.6180 N   0  0  0  0  0  0  0  0  0  0  0  0
   40.7190   30.0140   41.7750 H   0  0  0  0  0  0  0  0  0  0  0  0
   35.9800   33.0500   40.2820 H   0  0  0  0  0  0  0  0  0  0  0  0
   37.2490   34.0110   39.4120 H   0  0  0  0  0  0  0  0  0  0  0  0
   41.8800   33.6280   41.2060 H   0  0  0  0  0  0  0  0  0  0  0  0
   43.5010   32.4710   43.0590 O   0  0  0  0  0  0  0  0  0  0  0  0
   44.3180   31.8660   42.8760 H   0  0  0  0  0  0  0  0  0  0  0  0
  1  6  1  0  0  0  0
  2  1  1  0  0  0  0
  2  3  1  0  0  0  0
  3 11  1  0  0  0  0
  3  4  1  0  0  0  0
  4  5  1  0  0  0  0
  4 12  1  0  0  0  0
  5 15  1  0  0  0  0
  6 17  1  0  0  0  0
  6  5  1  0  0  0  0
  6 16  1  0  0  0  0
  7  1  1  0  0  0  0
  8  2  1  0  0  0  0
  9  2  1  0  0  0  0
 10  3  1  0  0  0  0
 13  4  1  0  0  0  0
 14  5  1  0  0  0  0
 18 19  1  0  0  0  0
 18  1  1  0  0  0  0
 19 28  1  0  0  0  0
 20 19  2  0  0  0  0
 20 27  1  0  0  0  0
 21 20  1  0  0  0  0
 22 23  1  0  0  0  0
 22 21  2  0  0  0  0
 23 18  2  0  0  0  0
 24 29  1  0  0  0  0
 24 22  1  0  0  0  0
 25 26  2  0  0  0  0
 25 32  1  0  0  0  0
 27 25  1  0  0  0  0
 30 24  1  0  0  0  0
 31 27  1  0  0  0  0
 33 32  1  0  0  0  0
M  END
>  <minimizedAffinity>
-5.48691893

$$$$

 OpenBabel03242519353D

 33 34  0  0  0  0  0  0  0  0999 V2000
   36.2030   28.2480   39.6920 C   0  0  0  0  0  0  0  0  0  0  0  0
   35.8390   28.9020   40.9680 C   0  0  0  0  0  0  0  0  0  0  0  0
   36.8030   28.5390   42.0610 C   0  0  0  0  0  0  0  0  0  0  0  0
   36.8830   27.0390   42.2660 C   0  0  0  0  0  0  0  0  0  0  0  0
   36.9820   26.2690   40.9940 C   0  0  0  0  0  0  0  0  0  0  0  0
   37.2100   27.1530   39.7980 C   0  0  0  0  0  0  0  0  0  0  0  0
   35.2780   27.8240   39.2040 H   0  0  0  0  0  0  0  0  0  0  0  0
   35.7490   29.9990   40.9690 H   0  0  0  0  0  0  0  0  0  0  0  0
   34.8510   28.5170   41.2980 H   0  0  0  0  0  0  0  0  0  0  0  0
   36.4790   29.0060   43.0110 H   0  0  0  0  0  0  0  0  0  0  0  0
   37.8370   28.8710   41.8270 H   0  0  0  0  0  0  0  0  0  0  0  0
   37.6630   26.8160   43.0020 H   0  0  0  0  0  0  0  0  0  0  0  0
   35.8980   26.7690   42.7470 H   0  0  0  0  0  0  0  0  0  0  0  0
   36.1070   25.6210   40.7730 H   0  0  0  0  0  0  0  0  0  0  0  0
   37.8650   25.5890   41.0750 H   0  0  0  0  0  0  0  0  0  0  0  0
   38.2260   27.6150   39.8540 H   0  0  0  0  0  0  0  0  0  0  0  0
   37.1980   26.5320   38.8840 H   0  0  0  0  0  0  0  0  0  0  0  0
   36.7080   29.2420   38.6970 C   0  0  0  0  0  0  0  0  0  0  0  0
   37.2500   30.4240   39.1760 C   0  0  0  0  0  0  0  0  0  0  0  0
   37.6530   31.4110   38.2970 C   0  0  0  0  0  0  0  0  0  0  0  0
   37.4880   31.1370   36.9580 N   0  0  0  0  0  0  0  0  0  0  0  0
   36.9590   29.9670   36.5080 C   0  0  0  0  0  0  0  0  0  0  0  0
   36.5730   29.0330   37.3660 N   0  0  0  0  0  0  0  0  0  0  0  0
   36.8710   29.7890   35.0940 N   0  0  0  0  0  0  0  0  0  0  0  0
   37.6950   32.9030   40.0890 C   0  0  0  0  0  0  0  0  0  0  0  0
   36.9600   32.0790   40.6730 O   0  0  0  0  0  0  0  0  0  0  0  0
   38.1770   32.6410   38.7480 N   0  0  0  0  0  0  0  0  0  0  0  0
   37.3170   30.3410   40.2440 H   0  0  0  0  0  0  0  0  0  0  0  0
   36.0710   29.2440   34.6630 H   0  0  0  0  0  0  0  0  0  0  0  0
   37.6020   30.1940   34.4560 H   0  0  0  0  0  0  0  0  0  0  0  0
   38.7950   33.2420   38.2120 H   0  0  0  0  0  0  0  0  0  0  0  0
   38.1240   34.1600   40.6830 O   0  0  0  0  0  0  0  0  0  0  0  0
   38.6870   34.0860   41.5450 H   0  0  0  0  0  0  0  0  0  0  0  0
  1  6  1  0  0  0  0
  1  2  1  0  0  0  0
  2  8  1  0  0  0  0
  2  9  1  0  0  0  0
  2  3  1  0  0  0  0
  3  4  1  0  0  0  0
  3 10  1  0  0  0  0
  4 13  1  0  0  0  0
  4 12  1  0  0  0  0
  5 15  1  0  0  0  0
  5  4  1  0  0  0  0
  6 16  1  0  0  0  0
  6  5  1  0  0  0  0
  7  1  1  0  0  0  0
 11  3  1  0  0  0  0
 14  5  1  0  0  0  0
 17  6  1  0  0  0  0
 18 19  1  0  0  0  0
 18  1  1  0  0  0  0
 19 28  1  0  0  0  0
 20 27  1  0  0  0  0
 20 19  2  0  0  0  0
 21 20  1  0  0  0  0
 22 21  2  0  0  0  0
 22 23  1  0  0  0  0
 23 18  2  0  0  0  0
 24 22  1  0  0  0  0
 25 26  2  0  0  0  0
 25 32  1  0  0  0  0
 27 25  1  0  0  0  0
 29 24  1  0  0  0  0
 30 24  1  0  0  0  0
 31 27  1  0  0  0  0
 32 33  1  0  0  0  0
M  END
>  <minimizedAffinity>
-5.45557261

$$$$

 OpenBabel03242519353D

 33 34  0  0  0  0  0  0  0  0999 V2000
   37.6140   26.5520   40.4270 C   0  0  0  0  0  0  0  0  0  0  0  0
   37.5140   25.5020   39.3910 C   0  0  0  0  0  0  0  0  0  0  0  0
   36.5300   24.4380   39.7870 C   0  0  0  0  0  0  0  0  0  0  0  0
   36.8910   23.8050   41.1170 C   0  0  0  0  0  0  0  0  0  0  0  0
   37.2740   24.7940   42.1620 C   0  0  0  0  0  0  0  0  0  0  0  0
   37.0010   26.2140   41.7440 C   0  0  0  0  0  0  0  0  0  0  0  0
   38.6980   26.8110   40.6030 H   0  0  0  0  0  0  0  0  0  0  0  0
   37.2520   25.8180   38.3700 H   0  0  0  0  0  0  0  0  0  0  0  0
   38.4940   24.9890   39.3060 H   0  0  0  0  0  0  0  0  0  0  0  0
   36.5110   23.6440   39.0150 H   0  0  0  0  0  0  0  0  0  0  0  0
   35.5060   24.8470   39.9120 H   0  0  0  0  0  0  0  0  0  0  0  0
   36.1000   23.1050   41.4100 H   0  0  0  0  0  0  0  0  0  0  0  0
   37.8060   23.1820   40.8920 H   0  0  0  0  0  0  0  0  0  0  0  0
   38.3340   24.7370   42.4920 H   0  0  0  0  0  0  0  0  0  0  0  0
   36.6510   24.5920   43.0680 H   0  0  0  0  0  0  0  0  0  0  0  0
   35.9000   26.3850   41.6740 H   0  0  0  0  0  0  0  0  0  0  0  0
   37.3750   26.8980   42.5280 H   0  0  0  0  0  0  0  0  0  0  0  0
   37.0120   27.8380   39.9580 C   0  0  0  0  0  0  0  0  0  0  0  0
   36.9170   28.0500   38.5920 C   0  0  0  0  0  0  0  0  0  0  0  0
   36.4470   29.2560   38.1070 C   0  0  0  0  0  0  0  0  0  0  0  0
   36.0860   30.1920   39.0500 N   0  0  0  0  0  0  0  0  0  0  0  0
   36.1820   29.9600   40.3870 C   0  0  0  0  0  0  0  0  0  0  0  0
   36.6390   28.8000   40.8350 N   0  0  0  0  0  0  0  0  0  0  0  0
   35.7440   30.9980   41.2640 N   0  0  0  0  0  0  0  0  0  0  0  0
   37.3220   28.6860   36.0210 C   0  0  0  0  0  0  0  0  0  0  0  0
   38.0290   27.8660   36.6440 O   0  0  0  0  0  0  0  0  0  0  0  0
   36.3690   29.5230   36.7230 N   0  0  0  0  0  0  0  0  0  0  0  0
   37.2030   27.1400   38.1010 H   0  0  0  0  0  0  0  0  0  0  0  0
   36.2220   31.1600   42.1960 H   0  0  0  0  0  0  0  0  0  0  0  0
   34.9380   31.6190   41.0000 H   0  0  0  0  0  0  0  0  0  0  0  0
   35.7400   30.1940   36.2940 H   0  0  0  0  0  0  0  0  0  0  0  0
   37.3850   28.8710   34.5790 O   0  0  0  0  0  0  0  0  0  0  0  0
   37.1470   28.0460   34.0050 H   0  0  0  0  0  0  0  0  0  0  0  0
  1  7  1  0  0  0  0
  1  6  1  0  0  0  0
  2  3  1  0  0  0  0
  2  1  1  0  0  0  0
  3 11  1  0  0  0  0
  3  4  1  0  0  0  0
  4 12  1  0  0  0  0
  4  5  1  0  0  0  0
  5 14  1  0  0  0  0
  5 15  1  0  0  0  0
  6  5  1  0  0  0  0
  6 17  1  0  0  0  0
  8  2  1  0  0  0  0
  9  2  1  0  0  0  0
 10  3  1  0  0  0  0
 13  4  1  0  0  0  0
 16  6  1  0  0  0  0
 18  1  1  0  0  0  0
 18 23  1  0  0  0  0
 19 18  2  0  0  0  0
 20 19  1  0  0  0  0
 20 21  2  0  0  0  0
 21 22  1  0  0  0  0
 22 23  2  0  0  0  0
 22 24  1  0  0  0  0
 24 29  1  0  0  0  0
 25 26  2  0  0  0  0
 25 27  1  0  0  0  0
 27 20  1  0  0  0  0
 28 19  1  0  0  0  0
 30 24  1  0  0  0  0
 31 27  1  0  0  0  0
 32 25  1  0  0  0  0
 33 32  1  0  0  0  0
M  END
>  <minimizedAffinity>
-5.32790375

$$$$
