
 OpenBabel03252501333D

 17 17  0  0  0  0  0  0  0  0999 V2000
   36.9010   31.7780   39.4170 C   0  0  0  0  0  0  0  0  0  0  0  0
   36.2460   30.7030   39.9930 C   0  0  0  0  0  0  0  0  0  0  0  0
   36.1550   29.5520   39.2290 C   0  0  0  0  0  0  0  0  0  0  0  0
   36.6980   29.5600   38.0020 N   0  0  0  0  0  0  0  0  0  0  0  0
   37.3300   30.6210   37.4660 C   0  0  0  0  0  0  0  0  0  0  0  0
   37.4410   31.7650   38.1820 N   0  0  0  0  0  0  0  0  0  0  0  0
   35.6450   28.7230   39.6840 H   0  0  0  0  0  0  0  0  0  0  0  0
   37.7080   30.4650   36.4810 H   0  0  0  0  0  0  0  0  0  0  0  0
   38.3220   33.0260   40.7900 C   0  0  0  0  0  0  0  0  0  0  0  0
   38.8960   31.8980   40.7140 O   0  0  0  0  0  0  0  0  0  0  0  0
   37.1010   33.0680   40.0520 N   0  0  0  0  0  0  0  0  0  0  0  0
   36.5150   33.9120   40.0240 H   0  0  0  0  0  0  0  0  0  0  0  0
   38.7810   34.1470   41.5000 O   0  0  0  0  0  0  0  0  0  0  0  0
   39.7680   34.0870   41.7930 H   0  0  0  0  0  0  0  0  0  0  0  0
   35.7360   30.8850   41.3040 N   0  0  0  0  0  0  0  0  0  0  0  0
   34.8300   31.2890   41.6080 H   0  0  0  0  0  0  0  0  0  0  0  0
   36.4270   30.5380   42.0190 H   0  0  0  0  0  0  0  0  0  0  0  0
  1  2  1  0  0  0  0
  1 11  1  0  0  0  0
  2 15  1  0  0  0  0
  3  7  1  0  0  0  0
  3  2  2  0  0  0  0
  4  3  1  0  0  0  0
  5  4  2  0  0  0  0
  5  6  1  0  0  0  0
  6  1  2  0  0  0  0
  8  5  1  0  0  0  0
  9 13  1  0  0  0  0
 10  9  2  0  0  0  0
 11  9  1  0  0  0  0
 12 11  1  0  0  0  0
 13 14  1  0  0  0  0
 15 16  1  0  0  0  0
 15 17  1  0  0  0  0
M  END
>  <minimizedAffinity>
-4.54758263

$$$$

 OpenBabel03252501333D

 17 17  0  0  0  0  0  0  0  0999 V2000
   38.2330   32.6740   39.4620 C   0  0  0  0  0  0  0  0  0  0  0  0
   39.1540   33.4750   40.1140 C   0  0  0  0  0  0  0  0  0  0  0  0
   40.4240   33.5310   39.5670 C   0  0  0  0  0  0  0  0  0  0  0  0
   40.6700   32.8140   38.4600 N   0  0  0  0  0  0  0  0  0  0  0  0
   39.7540   32.0410   37.8460 C   0  0  0  0  0  0  0  0  0  0  0  0
   38.5000   31.9610   38.3500 N   0  0  0  0  0  0  0  0  0  0  0  0
   41.1320   34.1550   40.0800 H   0  0  0  0  0  0  0  0  0  0  0  0
   40.1080   31.5360   36.9750 H   0  0  0  0  0  0  0  0  0  0  0  0
   36.8040   31.4070   40.8100 C   0  0  0  0  0  0  0  0  0  0  0  0
   37.9450   30.8980   41.0230 O   0  0  0  0  0  0  0  0  0  0  0  0
   36.8540   32.4840   39.8750 N   0  0  0  0  0  0  0  0  0  0  0  0
   36.0070   32.9940   39.5910 H   0  0  0  0  0  0  0  0  0  0  0  0
   35.5920   31.0070   41.3930 O   0  0  0  0  0  0  0  0  0  0  0  0
   35.7000   30.3940   42.2160 H   0  0  0  0  0  0  0  0  0  0  0  0
   38.7060   34.1590   41.2740 N   0  0  0  0  0  0  0  0  0  0  0  0
   38.6600   33.8300   42.2570 H   0  0  0  0  0  0  0  0  0  0  0  0
   38.3930   35.1340   41.0290 H   0  0  0  0  0  0  0  0  0  0  0  0
  1 11  1  0  0  0  0
  1  2  1  0  0  0  0
  2 15  1  0  0  0  0
  3  7  1  0  0  0  0
  3  2  2  0  0  0  0
  4  3  1  0  0  0  0
  5  6  1  0  0  0  0
  5  4  2  0  0  0  0
  6  1  2  0  0  0  0
  8  5  1  0  0  0  0
  9 10  2  0  0  0  0
  9 13  1  0  0  0  0
 11  9  1  0  0  0  0
 12 11  1  0  0  0  0
 13 14  1  0  0  0  0
 15 16  1  0  0  0  0
 17 15  1  0  0  0  0
M  END
>  <minimizedAffinity>
-4.50316

$$$$

 OpenBabel03252501333D

 17 17  0  0  0  0  0  0  0  0999 V2000
   36.3130   28.7980   41.3410 C   0  0  0  0  0  0  0  0  0  0  0  0
   36.9310   28.2870   42.4690 C   0  0  0  0  0  0  0  0  0  0  0  0
   37.3800   26.9800   42.3890 C   0  0  0  0  0  0  0  0  0  0  0  0
   37.1860   26.3100   41.2430 N   0  0  0  0  0  0  0  0  0  0  0  0
   36.5800   26.8340   40.1600 C   0  0  0  0  0  0  0  0  0  0  0  0
   36.1270   28.1100   40.1980 N   0  0  0  0  0  0  0  0  0  0  0  0
   37.8590   26.5910   43.2690 H   0  0  0  0  0  0  0  0  0  0  0  0
   36.5050   26.1720   39.3270 H   0  0  0  0  0  0  0  0  0  0  0  0
   36.8280   31.0190   40.8210 C   0  0  0  0  0  0  0  0  0  0  0  0
   37.9350   30.4160   40.6870 O   0  0  0  0  0  0  0  0  0  0  0  0
   35.7760   30.1420   41.2240 N   0  0  0  0  0  0  0  0  0  0  0  0
   34.8190   30.4830   41.3850 H   0  0  0  0  0  0  0  0  0  0  0  0
   36.5940   32.3870   40.6140 O   0  0  0  0  0  0  0  0  0  0  0  0
   37.3490   32.8720   40.1040 H   0  0  0  0  0  0  0  0  0  0  0  0
   37.0450   29.1490   43.5900 N   0  0  0  0  0  0  0  0  0  0  0  0
   36.3620   29.3380   44.3470 H   0  0  0  0  0  0  0  0  0  0  0  0
   37.9810   29.6310   43.5900 H   0  0  0  0  0  0  0  0  0  0  0  0
  1  2  1  0  0  0  0
  2 15  1  0  0  0  0
  3  2  2  0  0  0  0
  3  7  1  0  0  0  0
  4  3  1  0  0  0  0
  5  6  1  0  0  0  0
  5  4  2  0  0  0  0
  6  1  2  0  0  0  0
  8  5  1  0  0  0  0
  9 11  1  0  0  0  0
 10  9  2  0  0  0  0
 11  1  1  0  0  0  0
 11 12  1  0  0  0  0
 13  9  1  0  0  0  0
 14 13  1  0  0  0  0
 15 17  1  0  0  0  0
 15 16  1  0  0  0  0
M  END
>  <minimizedAffinity>
-4.49008751

$$$$

 OpenBabel03252501333D

 17 17  0  0  0  0  0  0  0  0999 V2000
   36.4290   30.6720   39.9760 C   0  0  0  0  0  0  0  0  0  0  0  0
   36.9980   31.8500   39.5250 C   0  0  0  0  0  0  0  0  0  0  0  0
   37.3510   31.8960   38.1880 C   0  0  0  0  0  0  0  0  0  0  0  0
   37.1210   30.8110   37.4330 N   0  0  0  0  0  0  0  0  0  0  0  0
   36.5650   29.6760   37.8980 C   0  0  0  0  0  0  0  0  0  0  0  0
   36.2060   29.5920   39.2010 N   0  0  0  0  0  0  0  0  0  0  0  0
   37.7910   32.8150   37.8470 H   0  0  0  0  0  0  0  0  0  0  0  0
   36.4480   28.9050   37.1700 H   0  0  0  0  0  0  0  0  0  0  0  0
   37.0180   29.7060   42.0210 C   0  0  0  0  0  0  0  0  0  0  0  0
   38.0150   29.4610   41.2780 O   0  0  0  0  0  0  0  0  0  0  0  0
   35.9920   30.4260   41.3380 N   0  0  0  0  0  0  0  0  0  0  0  0
   35.1140   30.6910   41.8040 H   0  0  0  0  0  0  0  0  0  0  0  0
   36.8740   29.3410   43.3690 O   0  0  0  0  0  0  0  0  0  0  0  0
   37.7520   29.0430   43.8220 H   0  0  0  0  0  0  0  0  0  0  0  0
   37.1620   32.8920   40.4750 N   0  0  0  0  0  0  0  0  0  0  0  0
   37.9370   33.0570   41.1440 H   0  0  0  0  0  0  0  0  0  0  0  0
   36.3450   33.5540   40.4390 H   0  0  0  0  0  0  0  0  0  0  0  0
  1 11  1  0  0  0  0
  2  1  1  0  0  0  0
  2 15  1  0  0  0  0
  3  2  2  0  0  0  0
  4  5  2  0  0  0  0
  4  3  1  0  0  0  0
  5  6  1  0  0  0  0
  6  1  2  0  0  0  0
  7  3  1  0  0  0  0
  8  5  1  0  0  0  0
  9 13  1  0  0  0  0
 10  9  2  0  0  0  0
 11 12  1  0  0  0  0
 11  9  1  0  0  0  0
 13 14  1  0  0  0  0
 15 16  1  0  0  0  0
 17 15  1  0  0  0  0
M  END
>  <minimizedAffinity>
-4.29754686

$$$$

 OpenBabel03252501333D

 17 17  0  0  0  0  0  0  0  0999 V2000
   36.9930   31.3880   38.7640 C   0  0  0  0  0  0  0  0  0  0  0  0
   36.8650   31.8000   40.0790 C   0  0  0  0  0  0  0  0  0  0  0  0
   36.2230   30.9280   40.9410 C   0  0  0  0  0  0  0  0  0  0  0  0
   35.7750   29.7630   40.4490 N   0  0  0  0  0  0  0  0  0  0  0  0
   35.9130   29.3880   39.1630 C   0  0  0  0  0  0  0  0  0  0  0  0
   36.5360   30.2130   38.2880 N   0  0  0  0  0  0  0  0  0  0  0  0
   36.1280   31.2560   41.9600 H   0  0  0  0  0  0  0  0  0  0  0  0
   35.5030   28.4310   38.9310 H   0  0  0  0  0  0  0  0  0  0  0  0
   39.0220   31.8280   37.6900 C   0  0  0  0  0  0  0  0  0  0  0  0
   39.3350   30.9850   38.5840 O   0  0  0  0  0  0  0  0  0  0  0  0
   37.6330   32.1550   37.7100 N   0  0  0  0  0  0  0  0  0  0  0  0
   37.2260   32.8330   37.0520 H   0  0  0  0  0  0  0  0  0  0  0  0
   39.8920   32.4130   36.7560 O   0  0  0  0  0  0  0  0  0  0  0  0
   40.8050   31.9390   36.6740 H   0  0  0  0  0  0  0  0  0  0  0  0
   37.4040   33.0700   40.4130 N   0  0  0  0  0  0  0  0  0  0  0  0
   36.9740   34.0100   40.3310 H   0  0  0  0  0  0  0  0  0  0  0  0
   38.3800   32.9660   40.7930 H   0  0  0  0  0  0  0  0  0  0  0  0
  1  2  1  0  0  0  0
  2 15  1  0  0  0  0
  2  3  2  0  0  0  0
  3  7  1  0  0  0  0
  4  3  1  0  0  0  0
  5  4  2  0  0  0  0
  6  1  2  0  0  0  0
  6  5  1  0  0  0  0
  8  5  1  0  0  0  0
  9 11  1  0  0  0  0
  9 10  2  0  0  0  0
 11  1  1  0  0  0  0
 12 11  1  0  0  0  0
 13  9  1  0  0  0  0
 14 13  1  0  0  0  0
 15 17  1  0  0  0  0
 16 15  1  0  0  0  0
M  END
>  <minimizedAffinity>
-4.26649284

$$$$

 OpenBabel03252501333D

 17 17  0  0  0  0  0  0  0  0999 V2000
   37.2280   30.2490   41.5140 C   0  0  0  0  0  0  0  0  0  0  0  0
   37.7530   29.5260   42.5710 C   0  0  0  0  0  0  0  0  0  0  0  0
   39.1330   29.4390   42.6370 C   0  0  0  0  0  0  0  0  0  0  0  0
   39.8540   30.0520   41.6850 N   0  0  0  0  0  0  0  0  0  0  0  0
   39.3160   30.7500   40.6670 C   0  0  0  0  0  0  0  0  0  0  0  0
   37.9700   30.8580   40.5680 N   0  0  0  0  0  0  0  0  0  0  0  0
   39.5320   28.8760   43.4610 H   0  0  0  0  0  0  0  0  0  0  0  0
   40.0250   31.1780   39.9950 H   0  0  0  0  0  0  0  0  0  0  0  0
   35.3170   29.3590   40.5050 C   0  0  0  0  0  0  0  0  0  0  0  0
   36.2210   28.5130   40.2310 O   0  0  0  0  0  0  0  0  0  0  0  0
   35.8120   30.4570   41.2700 N   0  0  0  0  0  0  0  0  0  0  0  0
   35.2020   31.2320   41.5620 H   0  0  0  0  0  0  0  0  0  0  0  0
   33.9660   29.2850   40.1300 O   0  0  0  0  0  0  0  0  0  0  0  0
   33.6710   28.3540   39.7950 H   0  0  0  0  0  0  0  0  0  0  0  0
   36.8290   28.9480   43.4800 N   0  0  0  0  0  0  0  0  0  0  0  0
   36.3290   28.0410   43.4230 H   0  0  0  0  0  0  0  0  0  0  0  0
   36.6780   29.5840   44.3040 H   0  0  0  0  0  0  0  0  0  0  0  0
  1  2  1  0  0  0  0
  2  3  2  0  0  0  0
  2 15  1  0  0  0  0
  3  7  1  0  0  0  0
  4  3  1  0  0  0  0
  5  4  2  0  0  0  0
  6  5  1  0  0  0  0
  6  1  2  0  0  0  0
  8  5  1  0  0  0  0
  9 11  1  0  0  0  0
 10  9  2  0  0  0  0
 11  1  1  0  0  0  0
 11 12  1  0  0  0  0
 13  9  1  0  0  0  0
 14 13  1  0  0  0  0
 15 17  1  0  0  0  0
 16 15  1  0  0  0  0
M  END
>  <minimizedAffinity>
-4.14368916

$$$$

 OpenBabel03252501333D

 17 17  0  0  0  0  0  0  0  0999 V2000
   37.7090   30.0600   41.7970 C   0  0  0  0  0  0  0  0  0  0  0  0
   36.9630   30.7320   40.8450 C   0  0  0  0  0  0  0  0  0  0  0  0
   37.6550   31.2330   39.7560 C   0  0  0  0  0  0  0  0  0  0  0  0
   38.9810   31.0360   39.7010 N   0  0  0  0  0  0  0  0  0  0  0  0
   39.6830   30.3780   40.6430 C   0  0  0  0  0  0  0  0  0  0  0  0
   39.0420   29.8720   41.7240 N   0  0  0  0  0  0  0  0  0  0  0  0
   37.0670   31.7530   39.0220 H   0  0  0  0  0  0  0  0  0  0  0  0
   40.7300   30.3050   40.4510 H   0  0  0  0  0  0  0  0  0  0  0  0
   36.6700   28.1650   42.6890 C   0  0  0  0  0  0  0  0  0  0  0  0
   36.8050   27.8810   41.4610 O   0  0  0  0  0  0  0  0  0  0  0  0
   37.1720   29.4630   43.0070 N   0  0  0  0  0  0  0  0  0  0  0  0
   37.1260   29.8420   43.9620 H   0  0  0  0  0  0  0  0  0  0  0  0
   36.1000   27.3450   43.6750 O   0  0  0  0  0  0  0  0  0  0  0  0
   35.9920   26.3580   43.3940 H   0  0  0  0  0  0  0  0  0  0  0  0
   35.5670   30.8400   41.0780 N   0  0  0  0  0  0  0  0  0  0  0  0
   35.0440   31.5430   41.6330 H   0  0  0  0  0  0  0  0  0  0  0  0
   35.0520   30.0650   40.5860 H   0  0  0  0  0  0  0  0  0  0  0  0
  1 11  1  0  0  0  0
  2 15  1  0  0  0  0
  2  1  2  0  0  0  0
  3  2  1  0  0  0  0
  4  3  2  0  0  0  0
  4  5  1  0  0  0  0
  5  6  2  0  0  0  0
  6  1  1  0  0  0  0
  7  3  1  0  0  0  0
  8  5  1  0  0  0  0
  9 11  1  0  0  0  0
  9 13  1  0  0  0  0
 10  9  2  0  0  0  0
 11 12  1  0  0  0  0
 14 13  1  0  0  0  0
 15 16  1  0  0  0  0
 17 15  1  0  0  0  0
M  END
>  <minimizedAffinity>
-4.09284019

$$$$

 OpenBabel03252501333D

 17 17  0  0  0  0  0  0  0  0999 V2000
   36.6140   29.2470   41.6670 C   0  0  0  0  0  0  0  0  0  0  0  0
   36.4030   28.1950   40.7940 C   0  0  0  0  0  0  0  0  0  0  0  0
   37.0130   26.9940   41.1110 C   0  0  0  0  0  0  0  0  0  0  0  0
   37.7580   26.9360   42.2260 N   0  0  0  0  0  0  0  0  0  0  0  0
   37.9470   27.9760   43.0590 C   0  0  0  0  0  0  0  0  0  0  0  0
   37.3650   29.1680   42.7830 N   0  0  0  0  0  0  0  0  0  0  0  0
   36.8430   26.1830   40.4270 H   0  0  0  0  0  0  0  0  0  0  0  0
   38.5650   27.7660   43.9030 H   0  0  0  0  0  0  0  0  0  0  0  0
   36.9500   31.3480   40.6990 C   0  0  0  0  0  0  0  0  0  0  0  0
   37.9720   30.6880   40.3410 O   0  0  0  0  0  0  0  0  0  0  0  0
   36.0630   30.5820   41.5130 N   0  0  0  0  0  0  0  0  0  0  0  0
   35.1940   30.9800   41.8910 H   0  0  0  0  0  0  0  0  0  0  0  0
   36.6630   32.6820   40.3690 O   0  0  0  0  0  0  0  0  0  0  0  0
   37.2350   33.0590   39.5970 H   0  0  0  0  0  0  0  0  0  0  0  0
   35.5830   28.4500   39.6640 N   0  0  0  0  0  0  0  0  0  0  0  0
   35.8390   28.8470   38.7410 H   0  0  0  0  0  0  0  0  0  0  0  0
   34.5880   28.1700   39.8610 H   0  0  0  0  0  0  0  0  0  0  0  0
  1  6  1  0  0  0  0
  2  3  1  0  0  0  0
  2  1  2  0  0  0  0
  3  4  2  0  0  0  0
  4  5  1  0  0  0  0
  5  8  1  0  0  0  0
  6  5  2  0  0  0  0
  7  3  1  0  0  0  0
  9 11  1  0  0  0  0
 10  9  2  0  0  0  0
 11  1  1  0  0  0  0
 11 12  1  0  0  0  0
 13  9  1  0  0  0  0
 14 13  1  0  0  0  0
 15 17  1  0  0  0  0
 15  2  1  0  0  0  0
 16 15  1  0  0  0  0
M  END
>  <minimizedAffinity>
-4.07507801

$$$$

 OpenBabel03252501333D

 17 17  0  0  0  0  0  0  0  0999 V2000
   37.7330   28.3560   42.6430 C   0  0  0  0  0  0  0  0  0  0  0  0
   39.1120   28.4590   42.5920 C   0  0  0  0  0  0  0  0  0  0  0  0
   39.8170   27.2770   42.4470 C   0  0  0  0  0  0  0  0  0  0  0  0
   39.1240   26.1310   42.3690 N   0  0  0  0  0  0  0  0  0  0  0  0
   37.7800   26.0590   42.4220 C   0  0  0  0  0  0  0  0  0  0  0  0
   37.0550   27.1950   42.5620 N   0  0  0  0  0  0  0  0  0  0  0  0
   40.8870   27.3670   42.4080 H   0  0  0  0  0  0  0  0  0  0  0  0
   37.3820   25.0730   42.3440 H   0  0  0  0  0  0  0  0  0  0  0  0
   36.5370   30.0050   41.4950 C   0  0  0  0  0  0  0  0  0  0  0  0
   37.1520   29.3870   40.5750 O   0  0  0  0  0  0  0  0  0  0  0  0
   36.8190   29.4750   42.7900 N   0  0  0  0  0  0  0  0  0  0  0  0
   36.4040   29.8760   43.6420 H   0  0  0  0  0  0  0  0  0  0  0  0
   35.6650   31.0920   41.3300 O   0  0  0  0  0  0  0  0  0  0  0  0
   35.3500   31.2370   40.3580 H   0  0  0  0  0  0  0  0  0  0  0  0
   39.6660   29.7620   42.6920 N   0  0  0  0  0  0  0  0  0  0  0  0
   39.8980   30.3160   43.5370 H   0  0  0  0  0  0  0  0  0  0  0  0
   39.8410   30.1610   41.7340 H   0  0  0  0  0  0  0  0  0  0  0  0
  1 11  1  0  0  0  0
  2  1  1  0  0  0  0
  2 15  1  0  0  0  0
  3  2  2  0  0  0  0
  4  5  2  0  0  0  0
  4  3  1  0  0  0  0
  5  6  1  0  0  0  0
  6  1  2  0  0  0  0
  7  3  1  0  0  0  0
  8  5  1  0  0  0  0
  9 11  1  0  0  0  0
 10  9  2  0  0  0  0
 11 12  1  0  0  0  0
 13  9  1  0  0  0  0
 14 13  1  0  0  0  0
 15 16  1  0  0  0  0
 17 15  1  0  0  0  0
M  END
>  <minimizedAffinity>
-4.03020096

$$$$
