
 OpenBabel03252501323D

 17 17  0  0  0  0  0  0  0  0999 V2000
   45.6420   34.7620   44.3580 C   0  0  0  0  0  0  0  0  0  0  0  0
   45.2790   34.3790   45.6370 C   0  0  0  0  0  0  0  0  0  0  0  0
   45.9470   33.2900   46.1710 C   0  0  0  0  0  0  0  0  0  0  0  0
   46.8850   32.6910   45.4210 N   0  0  0  0  0  0  0  0  0  0  0  0
   47.2180   33.0850   44.1770 C   0  0  0  0  0  0  0  0  0  0  0  0
   46.5870   34.1460   43.6200 N   0  0  0  0  0  0  0  0  0  0  0  0
   45.6590   33.0000   47.1650 H   0  0  0  0  0  0  0  0  0  0  0  0
   47.9840   32.5040   43.7150 H   0  0  0  0  0  0  0  0  0  0  0  0
   44.1610   35.3540   42.6480 C   0  0  0  0  0  0  0  0  0  0  0  0
   44.1110   34.0870   42.6620 O   0  0  0  0  0  0  0  0  0  0  0  0
   45.0630   35.8740   43.6260 N   0  0  0  0  0  0  0  0  0  0  0  0
   45.2220   36.8840   43.7330 H   0  0  0  0  0  0  0  0  0  0  0  0
   43.4420   36.2080   41.7980 O   0  0  0  0  0  0  0  0  0  0  0  0
   43.4400   35.9160   40.8080 H   0  0  0  0  0  0  0  0  0  0  0  0
   44.2630   35.1380   46.2740 N   0  0  0  0  0  0  0  0  0  0  0  0
   43.2320   35.0400   46.2140 H   0  0  0  0  0  0  0  0  0  0  0  0
   44.6880   35.8870   46.8780 H   0  0  0  0  0  0  0  0  0  0  0  0
  1  2  1  0  0  0  0
  2  3  2  0  0  0  0
  2 15  1  0  0  0  0
  3  7  1  0  0  0  0
  4  3  1  0  0  0  0
  5  4  2  0  0  0  0
  6  5  1  0  0  0  0
  6  1  2  0  0  0  0
  8  5  1  0  0  0  0
  9 10  2  0  0  0  0
  9 11  1  0  0  0  0
 11 12  1  0  0  0  0
 11  1  1  0  0  0  0
 13  9  1  0  0  0  0
 14 13  1  0  0  0  0
 15 17  1  0  0  0  0
 16 15  1  0  0  0  0
M  END
>  <minimizedAffinity>
-4.16841173

>  <minimizedRMSD>
0.748282313

$$$$
