
 OpenBabel03242510183D

 22 23  0  0  1  0  0  0  0  0999 V2000
   37.2860   26.7860   42.4750 C   0  0  1  0  0  0  0  0  0  0  0  0
   36.5970   27.2180   43.6500 C   0  0  0  0  0  0  0  0  0  0  0  0
   36.2160   27.8410   42.3320 C   0  0  1  0  0  0  0  0  0  0  0  0
   37.1110   25.8010   42.0220 H   0  0  0  0  0  0  0  0  0  0  0  0
   35.8470   26.5540   44.1180 H   0  0  0  0  0  0  0  0  0  0  0  0
   37.0070   27.9430   44.3950 H   0  0  0  0  0  0  0  0  0  0  0  0
   35.2060   27.5820   42.0150 H   0  0  0  0  0  0  0  0  0  0  0  0
   39.2980   27.3340   40.9620 C   0  0  0  0  0  0  0  0  0  0  0  0
   38.7220   27.2440   42.2600 C   0  0  0  0  0  0  0  0  0  0  0  0
   39.4970   27.5750   43.3400 C   0  0  0  0  0  0  0  0  0  0  0  0
   40.7690   27.9710   43.1450 N   0  0  0  0  0  0  0  0  0  0  0  0
   41.3290   28.0600   41.9070 C   0  0  0  0  0  0  0  0  0  0  0  0
   40.5680   27.7320   40.7940 N   0  0  0  0  0  0  0  0  0  0  0  0
   38.6840   27.0720   40.1310 H   0  0  0  0  0  0  0  0  0  0  0  0
   39.0730   27.5110   44.3300 H   0  0  0  0  0  0  0  0  0  0  0  0
   42.3570   28.3910   41.8950 H   0  0  0  0  0  0  0  0  0  0  0  0
   36.6720   29.1560   42.0260 N   0  0  0  0  0  0  0  0  0  0  0  0
   36.0880   29.9260   41.0280 C   0  0  0  0  0  0  0  0  0  0  0  0
   35.8180   29.6570   39.8290 O   0  0  0  0  0  0  0  0  0  0  0  0
   37.4790   29.6260   42.5400 H   0  0  0  0  0  0  0  0  0  0  0  0
   35.6830   31.2610   41.2710 O   0  0  0  0  0  0  0  0  0  0  0  0
   35.9810   31.8130   42.0370 H   0  0  0  0  0  0  0  0  0  0  0  0
  1  4  1  6  0  0  0
  1  2  1  0  0  0  0
  2  5  1  0  0  0  0
  2  6  1  0  0  0  0
  3  7  1  6  0  0  0
  3  1  1  0  0  0  0
  3  2  1  0  0  0  0
  8  9  1  0  0  0  0
  9  1  1  0  0  0  0
  9 10  2  0  0  0  0
 10 15  1  0  0  0  0
 11 10  1  0  0  0  0
 12 11  2  0  0  0  0
 13  8  2  0  0  0  0
 13 12  1  0  0  0  0
 14  8  1  0  0  0  0
 16 12  1  0  0  0  0
 17  3  1  0  0  0  0
 17 20  1  0  0  0  0
 18 21  1  0  0  0  0
 18 17  1  0  0  0  0
 19 18  2  0  0  0  0
 21 22  1  0  0  0  0
M  END
>  <minimizedAffinity>
-4.15532064

$$$$

 OpenBabel03242510183D

 22 23  0  0  1  0  0  0  0  0999 V2000
   36.1730   28.6680   39.9160 C   0  0  1  0  0  0  0  0  0  0  0  0
   34.8260   29.0650   40.1830 C   0  0  0  0  0  0  0  0  0  0  0  0
   35.7770   30.0970   39.6380 C   0  0  1  0  0  0  0  0  0  0  0  0
   36.4360   28.0250   39.0660 H   0  0  0  0  0  0  0  0  0  0  0  0
   34.0150   28.7340   39.5080 H   0  0  0  0  0  0  0  0  0  0  0  0
   34.4250   29.3050   41.1990 H   0  0  0  0  0  0  0  0  0  0  0  0
   35.5180   30.4260   38.6320 H   0  0  0  0  0  0  0  0  0  0  0  0
   38.5260   28.5640   40.9590 C   0  0  0  0  0  0  0  0  0  0  0  0
   37.1140   28.4420   41.0910 C   0  0  0  0  0  0  0  0  0  0  0  0
   36.6020   28.1030   42.3150 C   0  0  0  0  0  0  0  0  0  0  0  0
   37.4390   27.8960   43.3490 N   0  0  0  0  0  0  0  0  0  0  0  0
   38.7920   28.0100   43.2330 C   0  0  0  0  0  0  0  0  0  0  0  0
   39.3400   28.3520   42.0050 N   0  0  0  0  0  0  0  0  0  0  0  0
   38.9110   28.8270   40.0010 H   0  0  0  0  0  0  0  0  0  0  0  0
   35.5340   28.0080   42.4290 H   0  0  0  0  0  0  0  0  0  0  0  0
   39.3440   27.8170   44.1400 H   0  0  0  0  0  0  0  0  0  0  0  0
   36.3190   31.0790   40.5190 N   0  0  0  0  0  0  0  0  0  0  0  0
   37.2450   32.0230   40.0910 C   0  0  0  0  0  0  0  0  0  0  0  0
   38.3180   31.8940   39.4490 O   0  0  0  0  0  0  0  0  0  0  0  0
   36.0480   31.1500   41.5470 H   0  0  0  0  0  0  0  0  0  0  0  0
   37.0680   33.4020   40.3640 O   0  0  0  0  0  0  0  0  0  0  0  0
   36.4520   33.7700   41.0450 H   0  0  0  0  0  0  0  0  0  0  0  0
  1  4  1  6  0  0  0
  1  2  1  0  0  0  0
  1  9  1  0  0  0  0
  2  6  1  0  0  0  0
  3  7  1  6  0  0  0
  3  1  1  0  0  0  0
  3  2  1  0  0  0  0
  3 17  1  0  0  0  0
  5  2  1  0  0  0  0
  8  9  2  0  0  0  0
  8 13  1  0  0  0  0
  9 10  1  0  0  0  0
 10 15  1  0  0  0  0
 10 11  2  0  0  0  0
 12 11  1  0  0  0  0
 12 16  1  0  0  0  0
 13 12  2  0  0  0  0
 14  8  1  0  0  0  0
 17 20  1  0  0  0  0
 18 21  1  0  0  0  0
 18 17  1  0  0  0  0
 19 18  2  0  0  0  0
 21 22  1  0  0  0  0
M  END
>  <minimizedAffinity>
-4.0522213

$$$$

 OpenBabel03242510183D

 22 23  0  0  1  0  0  0  0  0999 V2000
   36.6600   30.8630   39.1000 C   0  0  1  0  0  0  0  0  0  0  0  0
   36.9870   29.4780   39.2370 C   0  0  0  0  0  0  0  0  0  0  0  0
   35.9740   30.0670   40.1830 C   0  0  1  0  0  0  0  0  0  0  0  0
   36.0530   31.2420   38.2680 H   0  0  0  0  0  0  0  0  0  0  0  0
   36.6080   28.7520   38.4950 H   0  0  0  0  0  0  0  0  0  0  0  0
   37.9080   29.0910   39.7380 H   0  0  0  0  0  0  0  0  0  0  0  0
   34.9720   29.6640   40.0390 H   0  0  0  0  0  0  0  0  0  0  0  0
   39.0100   31.5520   39.9010 C   0  0  0  0  0  0  0  0  0  0  0  0
   37.6720   31.9020   39.5610 C   0  0  0  0  0  0  0  0  0  0  0  0
   37.2970   33.2150   39.6650 C   0  0  0  0  0  0  0  0  0  0  0  0
   38.1930   34.1290   40.0820 N   0  0  0  0  0  0  0  0  0  0  0  0
   39.4750   33.8040   40.4090 C   0  0  0  0  0  0  0  0  0  0  0  0
   39.8850   32.4830   40.3130 N   0  0  0  0  0  0  0  0  0  0  0  0
   39.2880   30.5270   39.8160 H   0  0  0  0  0  0  0  0  0  0  0  0
   36.2860   33.4940   39.4110 H   0  0  0  0  0  0  0  0  0  0  0  0
   40.0880   34.6350   40.7280 H   0  0  0  0  0  0  0  0  0  0  0  0
   36.3620   30.3670   41.5220 N   0  0  0  0  0  0  0  0  0  0  0  0
   37.0350   29.4490   42.3190 C   0  0  0  0  0  0  0  0  0  0  0  0
   36.7860   28.2440   42.5790 O   0  0  0  0  0  0  0  0  0  0  0  0
   36.1660   31.3060   41.9860 H   0  0  0  0  0  0  0  0  0  0  0  0
   38.2160   29.8060   43.0140 O   0  0  0  0  0  0  0  0  0  0  0  0
   38.5130   30.7340   43.1880 H   0  0  0  0  0  0  0  0  0  0  0  0
  1  4  1  6  0  0  0
  1  2  1  0  0  0  0
  1  9  1  0  0  0  0
  1  3  1  0  0  0  0
  2  6  1  0  0  0  0
  2  3  1  0  0  0  0
  3  7  1  6  0  0  0
  3 17  1  0  0  0  0
  5  2  1  0  0  0  0
  8 13  1  0  0  0  0
  9 10  1  0  0  0  0
  9  8  2  0  0  0  0
 10 11  2  0  0  0  0
 11 12  1  0  0  0  0
 12 16  1  0  0  0  0
 13 12  2  0  0  0  0
 14  8  1  0  0  0  0
 15 10  1  0  0  0  0
 17 20  1  0  0  0  0
 17 18  1  0  0  0  0
 18 19  2  0  0  0  0
 18 21  1  0  0  0  0
 21 22  1  0  0  0  0
M  END
>  <minimizedAffinity>
-3.93646717

$$$$

 OpenBabel03242510183D

 22 23  0  0  1  0  0  0  0  0999 V2000
   36.5510   30.8090   38.9950 C   0  0  1  0  0  0  0  0  0  0  0  0
   36.8130   29.4130   39.1490 C   0  0  0  0  0  0  0  0  0  0  0  0
   35.7960   30.0500   40.0580 C   0  0  1  0  0  0  0  0  0  0  0  0
   35.9890   31.2090   38.1410 H   0  0  0  0  0  0  0  0  0  0  0  0
   36.4270   28.6990   38.3980 H   0  0  0  0  0  0  0  0  0  0  0  0
   37.7000   28.9890   39.6810 H   0  0  0  0  0  0  0  0  0  0  0  0
   34.7830   29.6900   39.8830 H   0  0  0  0  0  0  0  0  0  0  0  0
   37.2850   33.1820   39.6800 C   0  0  0  0  0  0  0  0  0  0  0  0
   37.5920   31.8060   39.4840 C   0  0  0  0  0  0  0  0  0  0  0  0
   38.8700   31.3820   39.7410 C   0  0  0  0  0  0  0  0  0  0  0  0
   39.7890   32.2690   40.1660 N   0  0  0  0  0  0  0  0  0  0  0  0
   39.5050   33.5880   40.3550 C   0  0  0  0  0  0  0  0  0  0  0  0
   38.2200   34.0470   40.1040 N   0  0  0  0  0  0  0  0  0  0  0  0
   36.2880   33.4980   39.4750 H   0  0  0  0  0  0  0  0  0  0  0  0
   39.1160   30.3420   39.5970 H   0  0  0  0  0  0  0  0  0  0  0  0
   40.3350   34.1880   40.6980 H   0  0  0  0  0  0  0  0  0  0  0  0
   36.1540   30.3420   41.4070 N   0  0  0  0  0  0  0  0  0  0  0  0
   36.8320   29.4290   42.2050 C   0  0  0  0  0  0  0  0  0  0  0  0
   36.6060   28.2150   42.4450 O   0  0  0  0  0  0  0  0  0  0  0  0
   35.9270   31.2700   41.8800 H   0  0  0  0  0  0  0  0  0  0  0  0
   37.9920   29.8030   42.9260 O   0  0  0  0  0  0  0  0  0  0  0  0
   38.2640   30.7350   43.1180 H   0  0  0  0  0  0  0  0  0  0  0  0
  1  4  1  6  0  0  0
  1  2  1  0  0  0  0
  1  9  1  0  0  0  0
  1  3  1  0  0  0  0
  2  6  1  0  0  0  0
  2  3  1  0  0  0  0
  3  7  1  6  0  0  0
  3 17  1  0  0  0  0
  5  2  1  0  0  0  0
  8 13  1  0  0  0  0
  9  8  2  0  0  0  0
  9 10  1  0  0  0  0
 10 11  2  0  0  0  0
 11 12  1  0  0  0  0
 12 16  1  0  0  0  0
 13 12  2  0  0  0  0
 14  8  1  0  0  0  0
 15 10  1  0  0  0  0
 17 20  1  0  0  0  0
 17 18  1  0  0  0  0
 18 19  2  0  0  0  0
 18 21  1  0  0  0  0
 21 22  1  0  0  0  0
M  END
>  <minimizedAffinity>
-3.89499831

$$$$

 OpenBabel03242510183D

 22 23  0  0  1  0  0  0  0  0999 V2000
   37.7030   28.2920   43.5190 C   0  0  1  0  0  0  0  0  0  0  0  0
   36.5230   27.4880   43.4650 C   0  0  0  0  0  0  0  0  0  0  0  0
   37.8020   26.9120   42.9160 C   0  0  1  0  0  0  0  0  0  0  0  0
   38.2350   28.4900   44.4580 H   0  0  0  0  0  0  0  0  0  0  0  0
   36.1310   27.0300   44.3920 H   0  0  0  0  0  0  0  0  0  0  0  0
   35.7120   27.6030   42.7050 H   0  0  0  0  0  0  0  0  0  0  0  0
   38.1720   26.0670   43.4970 H   0  0  0  0  0  0  0  0  0  0  0  0
   36.7440   29.9060   41.7550 C   0  0  0  0  0  0  0  0  0  0  0  0
   37.8350   29.4630   42.5550 C   0  0  0  0  0  0  0  0  0  0  0  0
   39.0350   30.1130   42.4380 C   0  0  0  0  0  0  0  0  0  0  0  0
   39.1480   31.1430   41.5770 N   0  0  0  0  0  0  0  0  0  0  0  0
   38.1110   31.5740   40.8070 C   0  0  0  0  0  0  0  0  0  0  0  0
   36.8830   30.9350   40.9040 N   0  0  0  0  0  0  0  0  0  0  0  0
   35.8170   29.3900   41.8550 H   0  0  0  0  0  0  0  0  0  0  0  0
   39.8690   29.7880   43.0380 H   0  0  0  0  0  0  0  0  0  0  0  0
   38.3400   32.4090   40.1610 H   0  0  0  0  0  0  0  0  0  0  0  0
   37.9920   26.8580   41.5040 N   0  0  0  0  0  0  0  0  0  0  0  0
   37.1370   26.1480   40.6700 C   0  0  0  0  0  0  0  0  0  0  0  0
   36.7140   24.9660   40.7360 O   0  0  0  0  0  0  0  0  0  0  0  0
   38.7930   27.3560   41.0070 H   0  0  0  0  0  0  0  0  0  0  0  0
   36.5790   26.7430   39.5120 O   0  0  0  0  0  0  0  0  0  0  0  0
   36.9150   27.5680   39.0820 H   0  0  0  0  0  0  0  0  0  0  0  0
  1  4  1  1  0  0  0
  2  1  1  0  0  0  0
  2  5  1  0  0  0  0
  3  2  1  0  0  0  0
  3  7  1  1  0  0  0
  3  1  1  0  0  0  0
  6  2  1  0  0  0  0
  8 14  1  0  0  0  0
  8  9  1  0  0  0  0
  9  1  1  0  0  0  0
 10  9  2  0  0  0  0
 10 15  1  0  0  0  0
 11 10  1  0  0  0  0
 12 13  1  0  0  0  0
 12 11  2  0  0  0  0
 13  8  2  0  0  0  0
 16 12  1  0  0  0  0
 17  3  1  0  0  0  0
 18 19  2  0  0  0  0
 18 17  1  0  0  0  0
 20 17  1  0  0  0  0
 21 18  1  0  0  0  0
 22 21  1  0  0  0  0
M  END
>  <minimizedAffinity>
-3.8704493

$$$$

 OpenBabel03242510183D

 22 23  0  0  1  0  0  0  0  0999 V2000
   36.3300   30.8350   40.8590 C   0  0  1  0  0  0  0  0  0  0  0  0
   37.1850   31.9170   40.4840 C   0  0  0  0  0  0  0  0  0  0  0  0
   36.7080   30.9800   39.4060 C   0  0  1  0  0  0  0  0  0  0  0  0
   35.2810   30.9890   41.1420 H   0  0  0  0  0  0  0  0  0  0  0  0
   36.7840   32.9470   40.4580 H   0  0  0  0  0  0  0  0  0  0  0  0
   38.2940   31.9250   40.6240 H   0  0  0  0  0  0  0  0  0  0  0  0
   36.0370   31.4580   38.6920 H   0  0  0  0  0  0  0  0  0  0  0  0
   36.3130   28.3690   41.6050 C   0  0  0  0  0  0  0  0  0  0  0  0
   36.9320   29.6500   41.6010 C   0  0  0  0  0  0  0  0  0  0  0  0
   38.1020   29.8090   42.2970 C   0  0  0  0  0  0  0  0  0  0  0  0
   38.6270   28.7600   42.9580 N   0  0  0  0  0  0  0  0  0  0  0  0
   38.0410   27.5310   42.9680 C   0  0  0  0  0  0  0  0  0  0  0  0
   36.8560   27.3390   42.2720 N   0  0  0  0  0  0  0  0  0  0  0  0
   35.4030   28.2600   41.0600 H   0  0  0  0  0  0  0  0  0  0  0  0
   38.5830   30.7750   42.3020 H   0  0  0  0  0  0  0  0  0  0  0  0
   38.5680   26.7800   43.5380 H   0  0  0  0  0  0  0  0  0  0  0  0
   37.6030   29.9960   38.8910 N   0  0  0  0  0  0  0  0  0  0  0  0
   37.9110   29.9130   37.5390 C   0  0  0  0  0  0  0  0  0  0  0  0
   37.1680   29.8800   36.5250 O   0  0  0  0  0  0  0  0  0  0  0  0
   38.0890   29.2740   39.5070 H   0  0  0  0  0  0  0  0  0  0  0  0
   39.2530   29.8460   37.0930 O   0  0  0  0  0  0  0  0  0  0  0  0
   40.0290   29.6150   37.6630 H   0  0  0  0  0  0  0  0  0  0  0  0
  1  4  1  1  0  0  0
  1  9  1  0  0  0  0
  2  6  1  0  0  0  0
  2  1  1  0  0  0  0
  3  7  1  6  0  0  0
  3  2  1  0  0  0  0
  3  1  1  0  0  0  0
  5  2  1  0  0  0  0
  8 13  1  0  0  0  0
  9  8  2  0  0  0  0
  9 10  1  0  0  0  0
 10 15  1  0  0  0  0
 10 11  2  0  0  0  0
 11 12  1  0  0  0  0
 12 16  1  0  0  0  0
 13 12  2  0  0  0  0
 14  8  1  0  0  0  0
 17  3  1  0  0  0  0
 17 20  1  0  0  0  0
 18 17  1  0  0  0  0
 19 18  2  0  0  0  0
 21 18  1  0  0  0  0
 21 22  1  0  0  0  0
M  END
>  <minimizedAffinity>
-3.8026731

$$$$

 OpenBabel03242510183D

 22 23  0  0  1  0  0  0  0  0999 V2000
   36.2860   30.7910   40.8090 C   0  0  1  0  0  0  0  0  0  0  0  0
   37.1190   31.9010   40.4690 C   0  0  0  0  0  0  0  0  0  0  0  0
   36.7210   30.9480   39.3730 C   0  0  1  0  0  0  0  0  0  0  0  0
   35.2210   30.9080   41.0470 H   0  0  0  0  0  0  0  0  0  0  0  0
   36.6830   32.9170   40.4240 H   0  0  0  0  0  0  0  0  0  0  0  0
   38.2200   31.9490   40.6560 H   0  0  0  0  0  0  0  0  0  0  0  0
   36.0650   31.4020   38.6310 H   0  0  0  0  0  0  0  0  0  0  0  0
   38.1050   29.7660   42.3200 C   0  0  0  0  0  0  0  0  0  0  0  0
   36.8980   29.6280   41.5780 C   0  0  0  0  0  0  0  0  0  0  0  0
   36.2830   28.4040   41.5590 C   0  0  0  0  0  0  0  0  0  0  0  0
   36.8320   27.3760   42.2340 N   0  0  0  0  0  0  0  0  0  0  0  0
   37.9870   27.4990   42.9460 C   0  0  0  0  0  0  0  0  0  0  0  0
   38.6320   28.7260   42.9850 N   0  0  0  0  0  0  0  0  0  0  0  0
   38.5720   30.7240   42.3260 H   0  0  0  0  0  0  0  0  0  0  0  0
   35.3680   28.2850   41.0010 H   0  0  0  0  0  0  0  0  0  0  0  0
   38.3160   26.5960   43.4390 H   0  0  0  0  0  0  0  0  0  0  0  0
   37.6710   29.9960   38.8990 N   0  0  0  0  0  0  0  0  0  0  0  0
   38.0000   29.8880   37.5530 C   0  0  0  0  0  0  0  0  0  0  0  0
   37.2720   29.7870   36.5320 O   0  0  0  0  0  0  0  0  0  0  0  0
   38.1840   29.3190   39.5420 H   0  0  0  0  0  0  0  0  0  0  0  0
   39.3490   29.8760   37.1250 O   0  0  0  0  0  0  0  0  0  0  0  0
   40.1280   29.7020   37.7110 H   0  0  0  0  0  0  0  0  0  0  0  0
  1  4  1  1  0  0  0
  1  9  1  0  0  0  0
  2  6  1  0  0  0  0
  2  1  1  0  0  0  0
  3  7  1  6  0  0  0
  3  2  1  0  0  0  0
  3  1  1  0  0  0  0
  5  2  1  0  0  0  0
  8 14  1  0  0  0  0
  8 13  1  0  0  0  0
  9  8  2  0  0  0  0
 10  9  1  0  0  0  0
 10 11  2  0  0  0  0
 11 12  1  0  0  0  0
 12 13  2  0  0  0  0
 12 16  1  0  0  0  0
 15 10  1  0  0  0  0
 17  3  1  0  0  0  0
 17 20  1  0  0  0  0
 18 17  1  0  0  0  0
 19 18  2  0  0  0  0
 21 18  1  0  0  0  0
 21 22  1  0  0  0  0
M  END
>  <minimizedAffinity>
-3.79179263

$$$$

 OpenBabel03242510183D

 22 23  0  0  1  0  0  0  0  0999 V2000
   39.8620   29.5020   40.8220 C   0  0  1  0  0  0  0  0  0  0  0  0
   39.6170   29.9330   39.4810 C   0  0  0  0  0  0  0  0  0  0  0  0
   39.7620   30.9830   40.5510 C   0  0  1  0  0  0  0  0  0  0  0  0
   40.8310   29.0940   41.1380 H   0  0  0  0  0  0  0  0  0  0  0  0
   40.4280   29.8750   38.7320 H   0  0  0  0  0  0  0  0  0  0  0  0
   38.6160   29.9230   38.9850 H   0  0  0  0  0  0  0  0  0  0  0  0
   40.6540   31.5960   40.4290 H   0  0  0  0  0  0  0  0  0  0  0  0
   37.5750   28.3240   40.9670 C   0  0  0  0  0  0  0  0  0  0  0  0
   38.7180   28.8780   41.6090 C   0  0  0  0  0  0  0  0  0  0  0  0
   38.7740   28.8490   42.9780 C   0  0  0  0  0  0  0  0  0  0  0  0
   37.7550   28.3030   43.6700 N   0  0  0  0  0  0  0  0  0  0  0  0
   36.6570   27.7720   43.0640 C   0  0  0  0  0  0  0  0  0  0  0  0
   36.5730   27.7860   41.6800 N   0  0  0  0  0  0  0  0  0  0  0  0
   37.5450   28.3540   39.9020 H   0  0  0  0  0  0  0  0  0  0  0  0
   39.6340   29.2650   43.4770 H   0  0  0  0  0  0  0  0  0  0  0  0
   35.9170   27.3680   43.7390 H   0  0  0  0  0  0  0  0  0  0  0  0
   38.5960   31.6330   41.0530 N   0  0  0  0  0  0  0  0  0  0  0  0
   38.2530   32.9270   40.6800 C   0  0  0  0  0  0  0  0  0  0  0  0
   38.9310   33.9860   40.6620 O   0  0  0  0  0  0  0  0  0  0  0  0
   37.9200   31.1690   41.7350 H   0  0  0  0  0  0  0  0  0  0  0  0
   36.9490   33.2400   40.2250 O   0  0  0  0  0  0  0  0  0  0  0  0
   36.1510   32.6700   40.3580 H   0  0  0  0  0  0  0  0  0  0  0  0
  1  4  1  1  0  0  0
  1  9  1  0  0  0  0
  2  3  1  0  0  0  0
  2  1  1  0  0  0  0
  3  7  1  1  0  0  0
  3  1  1  0  0  0  0
  3 17  1  0  0  0  0
  5  2  1  0  0  0  0
  6  2  1  0  0  0  0
  8  9  2  0  0  0  0
  8 13  1  0  0  0  0
  9 10  1  0  0  0  0
 10 15  1  0  0  0  0
 10 11  2  0  0  0  0
 12 11  1  0  0  0  0
 12 16  1  0  0  0  0
 13 12  2  0  0  0  0
 14  8  1  0  0  0  0
 17 20  1  0  0  0  0
 18 17  1  0  0  0  0
 19 18  2  0  0  0  0
 21 22  1  0  0  0  0
 21 18  1  0  0  0  0
M  END
>  <minimizedAffinity>
-3.77895069

$$$$

 OpenBabel03242510183D

 22 23  0  0  1  0  0  0  0  0999 V2000
   37.9670   29.6800   39.6110 C   0  0  1  0  0  0  0  0  0  0  0  0
   36.7860   30.3290   39.1360 C   0  0  0  0  0  0  0  0  0  0  0  0
   37.9800   31.1820   39.4720 C   0  0  1  0  0  0  0  0  0  0  0  0
   38.6170   29.0900   38.9510 H   0  0  0  0  0  0  0  0  0  0  0  0
   36.5150   30.2560   38.0660 H   0  0  0  0  0  0  0  0  0  0  0  0
   35.8840   30.5400   39.7610 H   0  0  0  0  0  0  0  0  0  0  0  0
   38.4190   31.6650   38.5980 H   0  0  0  0  0  0  0  0  0  0  0  0
   39.1850   28.9750   41.7690 C   0  0  0  0  0  0  0  0  0  0  0  0
   37.9790   29.1310   41.0300 C   0  0  0  0  0  0  0  0  0  0  0  0
   36.8000   28.7640   41.6250 C   0  0  0  0  0  0  0  0  0  0  0  0
   36.8160   28.2710   42.8780 N   0  0  0  0  0  0  0  0  0  0  0  0
   37.9660   28.1180   43.5920 C   0  0  0  0  0  0  0  0  0  0  0  0
   39.1740   28.4810   43.0170 N   0  0  0  0  0  0  0  0  0  0  0  0
   40.0940   29.2630   41.2930 H   0  0  0  0  0  0  0  0  0  0  0  0
   35.8780   28.8770   41.0770 H   0  0  0  0  0  0  0  0  0  0  0  0
   37.8340   27.7110   44.5840 H   0  0  0  0  0  0  0  0  0  0  0  0
   37.9870   31.9230   40.6900 N   0  0  0  0  0  0  0  0  0  0  0  0
   38.9960   32.8270   40.9990 C   0  0  0  0  0  0  0  0  0  0  0  0
   40.2480   32.7060   40.9750 O   0  0  0  0  0  0  0  0  0  0  0  0
   37.2240   31.8320   41.4290 H   0  0  0  0  0  0  0  0  0  0  0  0
   38.6980   34.1430   41.4290 O   0  0  0  0  0  0  0  0  0  0  0  0
   37.8170   34.4420   41.7670 H   0  0  0  0  0  0  0  0  0  0  0  0
  1  4  1  6  0  0  0
  1  9  1  0  0  0  0
  2  3  1  0  0  0  0
  2  1  1  0  0  0  0
  2  6  1  0  0  0  0
  3  7  1  6  0  0  0
  3  1  1  0  0  0  0
  3 17  1  0  0  0  0
  5  2  1  0  0  0  0
  8 13  1  0  0  0  0
  9 10  1  0  0  0  0
  9  8  2  0  0  0  0
 10 11  2  0  0  0  0
 11 12  1  0  0  0  0
 12 16  1  0  0  0  0
 13 12  2  0  0  0  0
 14  8  1  0  0  0  0
 15 10  1  0  0  0  0
 17 18  1  0  0  0  0
 17 20  1  0  0  0  0
 18 21  1  0  0  0  0
 19 18  2  0  0  0  0
 21 22  1  0  0  0  0
M  END
>  <minimizedAffinity>
-3.71288085

$$$$
