
 OpenBabel03242519353D

 33 34  0  0  0  0  0  0  0  0999 V2000
   46.6290   32.8090   46.3440 C   0  0  0  0  0  0  0  0  0  0  0  0
   47.0950   31.4650   45.9390 C   0  0  0  0  0  0  0  0  0  0  0  0
   46.1480   30.3970   46.4060 C   0  0  0  0  0  0  0  0  0  0  0  0
   45.9530   30.4340   47.9090 C   0  0  0  0  0  0  0  0  0  0  0  0
   45.7420   31.8070   48.4470 C   0  0  0  0  0  0  0  0  0  0  0  0
   45.5400   32.8300   47.3630 C   0  0  0  0  0  0  0  0  0  0  0  0
   47.4960   33.4070   46.7480 H   0  0  0  0  0  0  0  0  0  0  0  0
   47.2750   31.2900   44.8680 H   0  0  0  0  0  0  0  0  0  0  0  0
   48.0600   31.2540   46.4460 H   0  0  0  0  0  0  0  0  0  0  0  0
   46.5460   29.4010   46.1290 H   0  0  0  0  0  0  0  0  0  0  0  0
   45.1370   30.5190   45.9640 H   0  0  0  0  0  0  0  0  0  0  0  0
   45.1870   29.7040   48.1920 H   0  0  0  0  0  0  0  0  0  0  0  0
   46.9310   30.0550   48.3280 H   0  0  0  0  0  0  0  0  0  0  0  0
   46.5510   32.1760   49.1140 H   0  0  0  0  0  0  0  0  0  0  0  0
   44.8090   31.7920   49.0640 H   0  0  0  0  0  0  0  0  0  0  0  0
   44.5680   32.6470   46.8430 H   0  0  0  0  0  0  0  0  0  0  0  0
   45.4650   33.8320   47.8230 H   0  0  0  0  0  0  0  0  0  0  0  0
   46.1680   33.6020   45.1630 C   0  0  0  0  0  0  0  0  0  0  0  0
   46.9120   33.5240   43.9980 C   0  0  0  0  0  0  0  0  0  0  0  0
   46.5780   34.3020   42.9050 C   0  0  0  0  0  0  0  0  0  0  0  0
   45.4840   35.1250   43.0570 N   0  0  0  0  0  0  0  0  0  0  0  0
   44.7630   35.1820   44.2100 C   0  0  0  0  0  0  0  0  0  0  0  0
   45.1020   34.4320   45.2490 N   0  0  0  0  0  0  0  0  0  0  0  0
   43.6310   36.0510   44.2310 N   0  0  0  0  0  0  0  0  0  0  0  0
   48.6820   33.8410   42.0110 C   0  0  0  0  0  0  0  0  0  0  0  0
   49.0080   33.5300   43.1770 O   0  0  0  0  0  0  0  0  0  0  0  0
   47.3320   34.2760   41.7130 N   0  0  0  0  0  0  0  0  0  0  0  0
   47.6580   32.7650   44.1380 H   0  0  0  0  0  0  0  0  0  0  0  0
   43.3500   36.5570   45.1180 H   0  0  0  0  0  0  0  0  0  0  0  0
   43.0540   36.2010   43.3650 H   0  0  0  0  0  0  0  0  0  0  0  0
   46.9780   34.5220   40.7940 H   0  0  0  0  0  0  0  0  0  0  0  0
   49.5970   33.7940   40.8810 O   0  0  0  0  0  0  0  0  0  0  0  0
   49.9900   32.8670   40.6530 H   0  0  0  0  0  0  0  0  0  0  0  0
  1  7  1  0  0  0  0
  1  6  1  0  0  0  0
  2  1  1  0  0  0  0
  2  3  1  0  0  0  0
  2  9  1  0  0  0  0
  3  4  1  0  0  0  0
  4 12  1  0  0  0  0
  4 13  1  0  0  0  0
  4  5  1  0  0  0  0
  5 15  1  0  0  0  0
  5 14  1  0  0  0  0
  6 17  1  0  0  0  0
  6  5  1  0  0  0  0
  8  2  1  0  0  0  0
 10  3  1  0  0  0  0
 11  3  1  0  0  0  0
 16  6  1  0  0  0  0
 18 23  1  0  0  0  0
 18  1  1  0  0  0  0
 19 28  1  0  0  0  0
 19 18  2  0  0  0  0
 20 21  2  0  0  0  0
 20 19  1  0  0  0  0
 21 22  1  0  0  0  0
 22 24  1  0  0  0  0
 22 23  2  0  0  0  0
 24 29  1  0  0  0  0
 25 26  2  0  0  0  0
 27 25  1  0  0  0  0
 27 20  1  0  0  0  0
 30 24  1  0  0  0  0
 31 27  1  0  0  0  0
 32 25  1  0  0  0  0
 33 32  1  0  0  0  0
M  END
>  <minimizedAffinity>
-5.69796371

>  <minimizedRMSD>
0.555571258

$$$$
