
 OpenBabel03242514083D

 37 39  0  0  1  0  0  0  0  0999 V2000
   47.3100   34.1940   42.2860 C   0  0  0  0  0  0  0  0  0  0  0  0
   48.2320   35.1930   42.1030 C   0  0  0  0  0  0  0  0  0  0  0  0
   48.7610   35.5460   40.8780 C   0  0  0  0  0  0  0  0  0  0  0  0
   48.2740   34.7840   39.8050 C   0  0  0  0  0  0  0  0  0  0  0  0
   47.3300   33.7590   39.9900 C   0  0  0  0  0  0  0  0  0  0  0  0
   46.8640   33.4780   41.2210 N   0  0  0  0  0  0  0  0  0  0  0  0
   48.5670   35.7430   42.9730 H   0  0  0  0  0  0  0  0  0  0  0  0
   49.4850   36.3280   40.7280 H   0  0  0  0  0  0  0  0  0  0  0  0
   48.6790   35.0520   38.8390 H   0  0  0  0  0  0  0  0  0  0  0  0
   46.8410   33.0000   38.8380 C   0  0  1  0  0  0  0  0  0  0  0  0
   45.3050   33.2110   38.6330 C   0  0  0  0  0  0  0  0  0  0  0  0
   44.9340   32.0400   37.6870 C   0  0  0  0  0  0  0  0  0  0  0  0
   45.5010   32.4730   36.3320 C   0  0  0  0  0  0  0  0  0  0  0  0
   46.9660   32.6610   36.3690 C   0  0  0  0  0  0  0  0  0  0  0  0
   47.5740   33.1930   37.6050 C   0  0  2  0  0  0  0  0  0  0  0  0
   46.8580   31.9140   39.1480 H   0  0  0  0  0  0  0  0  0  0  0  0
   45.1720   34.1550   38.0970 H   0  0  0  0  0  0  0  0  0  0  0  0
   44.7860   33.1190   39.5870 H   0  0  0  0  0  0  0  0  0  0  0  0
   45.4520   31.1210   38.0440 H   0  0  0  0  0  0  0  0  0  0  0  0
   43.8500   31.9570   37.5990 H   0  0  0  0  0  0  0  0  0  0  0  0
   45.1960   31.6780   35.6340 H   0  0  0  0  0  0  0  0  0  0  0  0
   44.9390   33.3870   36.0400 H   0  0  0  0  0  0  0  0  0  0  0  0
   47.2340   33.3060   35.5040 H   0  0  0  0  0  0  0  0  0  0  0  0
   47.4070   31.6620   36.0710 H   0  0  0  0  0  0  0  0  0  0  0  0
   47.7470   34.3010   37.4610 H   0  0  0  0  0  0  0  0  0  0  0  0
   49.1850   32.3440   37.8050 S   0  0  0  0  0  0  0  0  0  0  0  0
   48.8840   31.0350   38.2660 H   0  0  0  0  0  0  0  0  0  0  0  0
   46.7540   32.7090   45.5880 C   0  0  0  0  0  0  0  0  0  0  0  0
   45.7260   33.4440   46.1370 C   0  0  0  0  0  0  0  0  0  0  0  0
   45.2290   34.4600   45.3460 C   0  0  0  0  0  0  0  0  0  0  0  0
   45.7690   34.6790   44.0910 N   0  0  0  0  0  0  0  0  0  0  0  0
   46.7950   33.9000   43.6190 C   0  0  0  0  0  0  0  0  0  0  0  0
   47.2670   32.9430   44.3570 N   0  0  0  0  0  0  0  0  0  0  0  0
   47.1520   31.8980   46.2160 H   0  0  0  0  0  0  0  0  0  0  0  0
   45.2910   33.3010   47.0940 H   0  0  0  0  0  0  0  0  0  0  0  0
   44.2050   35.3190   45.6890 O   0  0  0  0  0  0  0  0  0  0  0  0
   43.7590   35.2510   46.6010 H   0  0  0  0  0  0  0  0  0  0  0  0
  1 32  1  0  0  0  0
  2  1  1  0  0  0  0
  2  7  1  0  0  0  0
  3  2  2  0  0  0  0
  4  5  2  0  0  0  0
  4  3  1  0  0  0  0
  5  6  1  0  0  0  0
  6  1  2  0  0  0  0
  8  3  1  0  0  0  0
  9  4  1  0  0  0  0
 10 16  1  1  0  0  0
 10  5  1  0  0  0  0
 11 10  1  0  0  0  0
 11 18  1  0  0  0  0
 12 19  1  0  0  0  0
 12 11  1  0  0  0  0
 13 14  1  0  0  0  0
 13 12  1  0  0  0  0
 14 15  1  0  0  0  0
 15 25  1  6  0  0  0
 15 26  1  0  0  0  0
 15 10  1  0  0  0  0
 17 11  1  0  0  0  0
 20 12  1  0  0  0  0
 21 13  1  0  0  0  0
 22 13  1  0  0  0  0
 23 14  1  0  0  0  0
 24 14  1  0  0  0  0
 26 27  1  0  0  0  0
 28 29  1  0  0  0  0
 28 34  1  0  0  0  0
 29 35  1  0  0  0  0
 30 36  1  0  0  0  0
 30 29  2  0  0  0  0
 31 30  1  0  0  0  0
 32 31  2  0  0  0  0
 32 33  1  0  0  0  0
 33 28  2  0  0  0  0
 36 37  1  0  0  0  0
M  END
>  <minimizedAffinity>
-5.82043028

>  <minimizedRMSD>
0.979439616

$$$$
