
 OpenBabel03252509343D

 36 37  0  0  1  0  0  0  0  0999 V2000
   37.8940   30.3170   39.9980 O   0  0  0  0  0  0  0  0  0  0  0  0
   39.0900   30.9520   40.3330 C   0  0  1  0  0  0  0  0  0  0  0  0
   40.0190   31.0690   39.1380 C   0  0  0  0  0  0  0  0  0  0  0  0
   41.0430   32.0510   39.6750 C   0  0  0  0  0  0  0  0  0  0  0  0
   40.3130   32.9020   40.6910 C   0  0  0  0  0  0  0  0  0  0  0  0
   38.8750   32.4130   40.6650 C   0  0  1  0  0  0  0  0  0  0  0  0
   39.6390   30.4610   41.1290 H   0  0  0  0  0  0  0  0  0  0  0  0
   40.5140   30.0880   38.9430 H   0  0  0  0  0  0  0  0  0  0  0  0
   39.5290   31.3990   38.2190 H   0  0  0  0  0  0  0  0  0  0  0  0
   41.7830   31.4370   40.2300 H   0  0  0  0  0  0  0  0  0  0  0  0
   41.4750   32.6430   38.8450 H   0  0  0  0  0  0  0  0  0  0  0  0
   40.7320   32.8170   41.7130 H   0  0  0  0  0  0  0  0  0  0  0  0
   40.4050   33.9650   40.3450 H   0  0  0  0  0  0  0  0  0  0  0  0
   38.4330   32.5050   41.6720 H   0  0  0  0  0  0  0  0  0  0  0  0
   38.0580   33.1330   39.6260 C   0  0  0  0  0  0  0  0  0  0  0  0
   38.4640   34.1700   39.5700 H   0  0  0  0  0  0  0  0  0  0  0  0
   38.2220   32.7120   38.6140 H   0  0  0  0  0  0  0  0  0  0  0  0
   36.7390   33.2590   39.9990 O   0  0  0  0  0  0  0  0  0  0  0  0
   36.0980   33.1570   39.2540 H   0  0  0  0  0  0  0  0  0  0  0  0
   38.0070   30.0400   42.5710 O   0  0  0  0  0  0  0  0  0  0  0  0
   37.0670   29.9090   41.4000 P   0  0  1  0  0  0  0  0  0  0  0  0
   35.6950   30.8700   41.5810 O   0  0  0  0  0  0  0  0  0  0  0  0
   35.8240   31.5630   42.2720 H   0  0  0  0  0  0  0  0  0  0  0  0
   36.5180   28.3230   41.2730 O   0  0  0  0  0  0  0  0  0  0  0  0
   36.5790   27.7380   42.5000 C   0  0  0  0  0  0  0  0  0  0  0  0
   35.5380   27.3550   42.7230 H   0  0  0  0  0  0  0  0  0  0  0  0
   36.8350   28.3490   43.3580 H   0  0  0  0  0  0  0  0  0  0  0  0
   39.5130   25.5280   43.0990 C   0  0  0  0  0  0  0  0  0  0  0  0
   38.7050   26.6780   43.0860 C   0  0  0  0  0  0  0  0  0  0  0  0
   37.4390   26.5440   42.5240 C   0  0  0  0  0  0  0  0  0  0  0  0
   37.0520   25.3300   42.0240 N   0  0  0  0  0  0  0  0  0  0  0  0
   37.8500   24.2490   42.0540 C   0  0  0  0  0  0  0  0  0  0  0  0
   39.0700   24.3510   42.5870 N   0  0  0  0  0  0  0  0  0  0  0  0
   40.4920   25.6310   43.5340 H   0  0  0  0  0  0  0  0  0  0  0  0
   39.0290   27.6220   43.4830 H   0  0  0  0  0  0  0  0  0  0  0  0
   37.4010   23.3660   41.6210 H   0  0  0  0  0  0  0  0  0  0  0  0
  1  2  1  0  0  0  0
  1 21  1  0  0  0  0
  2  6  1  0  0  0  0
  2  7  1  1  0  0  0
  3  4  1  0  0  0  0
  3  2  1  0  0  0  0
  4 10  1  0  0  0  0
  4  5  1  0  0  0  0
  5 12  1  0  0  0  0
  6  5  1  0  0  0  0
  6 14  1  1  0  0  0
  8  3  1  0  0  0  0
  9  3  1  0  0  0  0
 11  4  1  0  0  0  0
 13  5  1  0  0  0  0
 15 18  1  0  0  0  0
 15  6  1  0  0  0  0
 16 15  1  0  0  0  0
 17 15  1  0  0  0  0
 19 18  1  0  0  0  0
 21 22  1  0  0  0  0
 21 20  2  1  0  0  0
 22 23  1  0  0  0  0
 24 21  1  0  0  0  0
 24 25  1  0  0  0  0
 25 30  1  0  0  0  0
 25 26  1  0  0  0  0
 25 27  1  0  0  0  0
 28 34  1  0  0  0  0
 29 28  1  0  0  0  0
 29 35  1  0  0  0  0
 30 29  2  0  0  0  0
 31 32  2  0  0  0  0
 31 30  1  0  0  0  0
 32 33  1  0  0  0  0
 33 28  2  0  0  0  0
 36 32  1  0  0  0  0
M  END
>  <minimizedAffinity>
-5.01506424

$$$$

 OpenBabel03252509343D

 36 37  0  0  1  0  0  0  0  0999 V2000
   38.0580   29.8660   41.2360 O   0  0  0  0  0  0  0  0  0  0  0  0
   37.8760   28.5360   40.8610 C   0  0  1  0  0  0  0  0  0  0  0  0
   39.1380   27.7160   41.0630 C   0  0  0  0  0  0  0  0  0  0  0  0
   38.5870   26.3110   40.9080 C   0  0  0  0  0  0  0  0  0  0  0  0
   37.1400   26.3790   41.3470 C   0  0  0  0  0  0  0  0  0  0  0  0
   36.9230   27.8150   41.7910 C   0  0  1  0  0  0  0  0  0  0  0  0
   37.5650   28.4100   39.8300 H   0  0  0  0  0  0  0  0  0  0  0  0
   39.8610   27.9220   40.2380 H   0  0  0  0  0  0  0  0  0  0  0  0
   39.6400   27.8920   42.0170 H   0  0  0  0  0  0  0  0  0  0  0  0
   38.5910   26.1070   39.8180 H   0  0  0  0  0  0  0  0  0  0  0  0
   39.1860   25.5980   41.5060 H   0  0  0  0  0  0  0  0  0  0  0  0
   36.4270   26.1100   40.5430 H   0  0  0  0  0  0  0  0  0  0  0  0
   37.0270   25.6530   42.1950 H   0  0  0  0  0  0  0  0  0  0  0  0
   35.8850   28.1200   41.5690 H   0  0  0  0  0  0  0  0  0  0  0  0
   37.2660   28.0110   43.2440 C   0  0  0  0  0  0  0  0  0  0  0  0
   36.6000   27.3260   43.8190 H   0  0  0  0  0  0  0  0  0  0  0  0
   38.2930   27.6610   43.4710 H   0  0  0  0  0  0  0  0  0  0  0  0
   36.9740   29.2830   43.6800 O   0  0  0  0  0  0  0  0  0  0  0  0
   37.6330   29.6520   44.3170 H   0  0  0  0  0  0  0  0  0  0  0  0
   36.5540   30.2070   39.1550 O   0  0  0  0  0  0  0  0  0  0  0  0
   36.8990   30.8210   40.4880 P   0  0  1  0  0  0  0  0  0  0  0  0
   35.5430   30.9920   41.4740 O   0  0  0  0  0  0  0  0  0  0  0  0
   34.7910   30.4370   41.1580 H   0  0  0  0  0  0  0  0  0  0  0  0
   37.5200   32.3700   40.2680 O   0  0  0  0  0  0  0  0  0  0  0  0
   38.8130   32.3880   40.6890 C   0  0  0  0  0  0  0  0  0  0  0  0
   39.0560   31.3330   41.0190 H   0  0  0  0  0  0  0  0  0  0  0  0
   39.0780   33.0080   41.5380 H   0  0  0  0  0  0  0  0  0  0  0  0
   41.5280   34.0200   38.7360 C   0  0  0  0  0  0  0  0  0  0  0  0
   40.6270   33.7570   39.7810 C   0  0  0  0  0  0  0  0  0  0  0  0
   39.7650   32.6780   39.6040 C   0  0  0  0  0  0  0  0  0  0  0  0
   39.8350   31.9460   38.4500 N   0  0  0  0  0  0  0  0  0  0  0  0
   40.7110   32.2250   37.4700 C   0  0  0  0  0  0  0  0  0  0  0  0
   41.5480   33.2550   37.6140 N   0  0  0  0  0  0  0  0  0  0  0  0
   42.1950   34.8540   38.8720 H   0  0  0  0  0  0  0  0  0  0  0  0
   40.5880   34.3450   40.6790 H   0  0  0  0  0  0  0  0  0  0  0  0
   40.6420   31.5560   36.6240 H   0  0  0  0  0  0  0  0  0  0  0  0
  2  7  1  6  0  0  0
  2  3  1  0  0  0  0
  2  1  1  0  0  0  0
  2  6  1  0  0  0  0
  3  9  1  0  0  0  0
  4  3  1  0  0  0  0
  4  5  1  0  0  0  0
  4 11  1  0  0  0  0
  5  6  1  0  0  0  0
  5 13  1  0  0  0  0
  6 14  1  6  0  0  0
  6 15  1  0  0  0  0
  8  3  1  0  0  0  0
 10  4  1  0  0  0  0
 12  5  1  0  0  0  0
 15 17  1  0  0  0  0
 15 18  1  0  0  0  0
 15 16  1  0  0  0  0
 18 19  1  0  0  0  0
 21 20  2  6  0  0  0
 21  1  1  0  0  0  0
 21 22  1  0  0  0  0
 23 22  1  0  0  0  0
 24 21  1  0  0  0  0
 24 25  1  0  0  0  0
 25 26  1  0  0  0  0
 25 27  1  0  0  0  0
 28 34  1  0  0  0  0
 28 29  1  0  0  0  0
 29 35  1  0  0  0  0
 30 29  2  0  0  0  0
 30 25  1  0  0  0  0
 31 30  1  0  0  0  0
 32 33  1  0  0  0  0
 32 31  2  0  0  0  0
 33 28  2  0  0  0  0
 36 32  1  0  0  0  0
M  END
>  <minimizedAffinity>
-4.9957509

$$$$

 OpenBabel03252509343D

 36 37  0  0  1  0  0  0  0  0999 V2000
   37.8000   30.0960   39.8890 O   0  0  0  0  0  0  0  0  0  0  0  0
   38.6650   31.1730   40.0770 C   0  0  1  0  0  0  0  0  0  0  0  0
   40.1200   30.7520   39.9690 C   0  0  0  0  0  0  0  0  0  0  0  0
   40.7970   32.1070   39.8760 C   0  0  0  0  0  0  0  0  0  0  0  0
   39.7860   33.0370   39.2410 C   0  0  0  0  0  0  0  0  0  0  0  0
   38.5760   32.1690   38.9400 C   0  0  1  0  0  0  0  0  0  0  0  0
   38.5390   31.6760   41.0300 H   0  0  0  0  0  0  0  0  0  0  0  0
   40.4400   30.2430   40.9080 H   0  0  0  0  0  0  0  0  0  0  0  0
   40.3350   30.0920   39.1250 H   0  0  0  0  0  0  0  0  0  0  0  0
   40.9390   32.4420   40.9250 H   0  0  0  0  0  0  0  0  0  0  0  0
   41.7350   32.0260   39.2940 H   0  0  0  0  0  0  0  0  0  0  0  0
   39.5010   33.8840   39.8950 H   0  0  0  0  0  0  0  0  0  0  0  0
   40.2610   33.4380   38.3070 H   0  0  0  0  0  0  0  0  0  0  0  0
   37.6550   32.7680   39.0410 H   0  0  0  0  0  0  0  0  0  0  0  0
   38.6770   31.5190   37.5860 C   0  0  0  0  0  0  0  0  0  0  0  0
   39.3270   30.6230   37.7150 H   0  0  0  0  0  0  0  0  0  0  0  0
   37.7000   31.1120   37.2550 H   0  0  0  0  0  0  0  0  0  0  0  0
   39.3130   32.3240   36.6690 O   0  0  0  0  0  0  0  0  0  0  0  0
   38.9310   32.2780   35.7580 H   0  0  0  0  0  0  0  0  0  0  0  0
   37.8310   29.9090   42.4730 O   0  0  0  0  0  0  0  0  0  0  0  0
   36.9030   29.8500   41.2860 P   0  0  1  0  0  0  0  0  0  0  0  0
   35.6590   30.9810   41.4000 O   0  0  0  0  0  0  0  0  0  0  0  0
   35.8620   31.6790   42.0670 H   0  0  0  0  0  0  0  0  0  0  0  0
   36.1620   28.3410   41.2060 O   0  0  0  0  0  0  0  0  0  0  0  0
   36.6660   27.5510   42.1920 C   0  0  0  0  0  0  0  0  0  0  0  0
   35.7780   27.1400   42.7580 H   0  0  0  0  0  0  0  0  0  0  0  0
   37.2910   28.0030   42.9550 H   0  0  0  0  0  0  0  0  0  0  0  0
   37.6720   24.0060   41.6690 C   0  0  0  0  0  0  0  0  0  0  0  0
   36.9870   25.1250   42.1730 C   0  0  0  0  0  0  0  0  0  0  0  0
   37.3720   26.3670   41.6750 C   0  0  0  0  0  0  0  0  0  0  0  0
   38.3720   26.4360   40.7430 N   0  0  0  0  0  0  0  0  0  0  0  0
   39.0050   25.3440   40.2810 C   0  0  0  0  0  0  0  0  0  0  0  0
   38.6560   24.1410   40.7440 N   0  0  0  0  0  0  0  0  0  0  0  0
   37.3750   23.0450   42.0530 H   0  0  0  0  0  0  0  0  0  0  0  0
   36.2050   25.0490   42.9050 H   0  0  0  0  0  0  0  0  0  0  0  0
   39.7690   25.5640   39.5500 H   0  0  0  0  0  0  0  0  0  0  0  0
  1  2  1  0  0  0  0
  1 21  1  0  0  0  0
  2  7  1  1  0  0  0
  3  2  1  0  0  0  0
  3  8  1  0  0  0  0
  4  3  1  0  0  0  0
  4 10  1  0  0  0  0
  5  4  1  0  0  0  0
  5 12  1  0  0  0  0
  6 14  1  1  0  0  0
  6  5  1  0  0  0  0
  6  2  1  0  0  0  0
  9  3  1  0  0  0  0
 11  4  1  0  0  0  0
 13  5  1  0  0  0  0
 15 16  1  0  0  0  0
 15  6  1  0  0  0  0
 17 15  1  0  0  0  0
 18 15  1  0  0  0  0
 19 18  1  0  0  0  0
 21 22  1  0  0  0  0
 21 20  2  1  0  0  0
 22 23  1  0  0  0  0
 24 21  1  0  0  0  0
 24 25  1  0  0  0  0
 25 26  1  0  0  0  0
 25 27  1  0  0  0  0
 28 34  1  0  0  0  0
 28 29  1  0  0  0  0
 29 35  1  0  0  0  0
 30 29  2  0  0  0  0
 30 25  1  0  0  0  0
 31 30  1  0  0  0  0
 32 31  2  0  0  0  0
 32 33  1  0  0  0  0
 33 28  2  0  0  0  0
 36 32  1  0  0  0  0
M  END
>  <minimizedAffinity>
-4.93103456

$$$$

 OpenBabel03252509343D

 36 37  0  0  1  0  0  0  0  0999 V2000
   37.2880   28.9800   40.5430 O   0  0  0  0  0  0  0  0  0  0  0  0
   36.7770   27.9510   41.3320 C   0  0  1  0  0  0  0  0  0  0  0  0
   37.6480   26.7090   41.2720 C   0  0  0  0  0  0  0  0  0  0  0  0
   37.0760   25.9090   42.4270 C   0  0  0  0  0  0  0  0  0  0  0  0
   36.5320   26.9240   43.4090 C   0  0  0  0  0  0  0  0  0  0  0  0
   36.8590   28.2800   42.8080 C   0  0  1  0  0  0  0  0  0  0  0  0
   35.7670   27.6550   41.0670 H   0  0  0  0  0  0  0  0  0  0  0  0
   37.4660   26.1620   40.3170 H   0  0  0  0  0  0  0  0  0  0  0  0
   38.7200   26.9080   41.3590 H   0  0  0  0  0  0  0  0  0  0  0  0
   36.2090   25.3590   42.0080 H   0  0  0  0  0  0  0  0  0  0  0  0
   37.8580   25.2590   42.8650 H   0  0  0  0  0  0  0  0  0  0  0  0
   35.4420   26.8270   43.5760 H   0  0  0  0  0  0  0  0  0  0  0  0
   37.0690   26.7510   44.3790 H   0  0  0  0  0  0  0  0  0  0  0  0
   36.0690   29.0040   43.0720 H   0  0  0  0  0  0  0  0  0  0  0  0
   38.2240   28.7620   43.2220 C   0  0  0  0  0  0  0  0  0  0  0  0
   38.2720   28.6540   44.3300 H   0  0  0  0  0  0  0  0  0  0  0  0
   39.0250   28.0980   42.8400 H   0  0  0  0  0  0  0  0  0  0  0  0
   38.4030   30.1010   42.9610 O   0  0  0  0  0  0  0  0  0  0  0  0
   39.3120   30.3340   42.6520 H   0  0  0  0  0  0  0  0  0  0  0  0
   34.8450   29.2480   39.7260 O   0  0  0  0  0  0  0  0  0  0  0  0
   36.0530   30.0450   40.1450 P   0  0  1  0  0  0  0  0  0  0  0  0
   35.7150   31.0720   41.4380 O   0  0  0  0  0  0  0  0  0  0  0  0
   34.8790   30.8180   41.8960 H   0  0  0  0  0  0  0  0  0  0  0  0
   36.5640   31.0310   38.8800 O   0  0  0  0  0  0  0  0  0  0  0  0
   37.0450   32.1930   39.3970 C   0  0  0  0  0  0  0  0  0  0  0  0
   36.6110   32.2850   40.4380 H   0  0  0  0  0  0  0  0  0  0  0  0
   36.7890   33.1280   38.9110 H   0  0  0  0  0  0  0  0  0  0  0  0
   40.6900   32.0060   38.6660 C   0  0  0  0  0  0  0  0  0  0  0  0
   39.3000   32.0240   38.4600 C   0  0  0  0  0  0  0  0  0  0  0  0
   38.5040   32.1730   39.5930 C   0  0  0  0  0  0  0  0  0  0  0  0
   39.0990   32.2900   40.8200 N   0  0  0  0  0  0  0  0  0  0  0  0
   40.4340   32.2690   40.9810 C   0  0  0  0  0  0  0  0  0  0  0  0
   41.2190   32.1270   39.9100 N   0  0  0  0  0  0  0  0  0  0  0  0
   41.3060   31.8920   37.7900 H   0  0  0  0  0  0  0  0  0  0  0  0
   38.8540   31.9300   37.4880 H   0  0  0  0  0  0  0  0  0  0  0  0
   40.7470   32.3730   42.0090 H   0  0  0  0  0  0  0  0  0  0  0  0
  1  2  1  0  0  0  0
  2  7  1  6  0  0  0
  2  6  1  0  0  0  0
  3  2  1  0  0  0  0
  3  9  1  0  0  0  0
  3  4  1  0  0  0  0
  4 11  1  0  0  0  0
  4  5  1  0  0  0  0
  5 12  1  0  0  0  0
  5 13  1  0  0  0  0
  6 14  1  1  0  0  0
  6 15  1  0  0  0  0
  6  5  1  0  0  0  0
  8  3  1  0  0  0  0
 10  4  1  0  0  0  0
 15 16  1  0  0  0  0
 17 15  1  0  0  0  0
 18 15  1  0  0  0  0
 19 18  1  0  0  0  0
 21 20  2  6  0  0  0
 21  1  1  0  0  0  0
 21 22  1  0  0  0  0
 22 23  1  0  0  0  0
 24 25  1  0  0  0  0
 24 21  1  0  0  0  0
 25 30  1  0  0  0  0
 25 26  1  0  0  0  0
 27 25  1  0  0  0  0
 28 33  1  0  0  0  0
 29 28  2  0  0  0  0
 29 30  1  0  0  0  0
 30 31  2  0  0  0  0
 31 32  1  0  0  0  0
 32 36  1  0  0  0  0
 33 32  2  0  0  0  0
 34 28  1  0  0  0  0
 35 29  1  0  0  0  0
M  END
>  <minimizedAffinity>
-4.8528204

$$$$

 OpenBabel03252509343D

 36 37  0  0  1  0  0  0  0  0999 V2000
   38.3040   29.2890   40.9890 O   0  0  0  0  0  0  0  0  0  0  0  0
   38.2870   30.5650   40.4270 C   0  0  1  0  0  0  0  0  0  0  0  0
   38.4350   30.5170   38.9170 C   0  0  0  0  0  0  0  0  0  0  0  0
   38.0590   31.9420   38.5530 C   0  0  0  0  0  0  0  0  0  0  0  0
   37.1080   32.4110   39.6320 C   0  0  0  0  0  0  0  0  0  0  0  0
   36.9270   31.2170   40.5550 C   0  0  1  0  0  0  0  0  0  0  0  0
   39.0590   31.2230   40.8110 H   0  0  0  0  0  0  0  0  0  0  0  0
   39.5020   30.3350   38.6440 H   0  0  0  0  0  0  0  0  0  0  0  0
   37.8180   29.7580   38.4290 H   0  0  0  0  0  0  0  0  0  0  0  0
   38.9920   32.5320   38.6580 H   0  0  0  0  0  0  0  0  0  0  0  0
   37.6130   31.9710   37.5410 H   0  0  0  0  0  0  0  0  0  0  0  0
   37.4870   33.2830   40.1990 H   0  0  0  0  0  0  0  0  0  0  0  0
   36.1520   32.6950   39.1170 H   0  0  0  0  0  0  0  0  0  0  0  0
   36.7780   31.5670   41.5910 H   0  0  0  0  0  0  0  0  0  0  0  0
   35.8060   30.3220   40.0990 C   0  0  0  0  0  0  0  0  0  0  0  0
   34.9720   30.9940   39.7900 H   0  0  0  0  0  0  0  0  0  0  0  0
   36.0760   29.7670   39.1770 H   0  0  0  0  0  0  0  0  0  0  0  0
   35.3110   29.5460   41.1230 O   0  0  0  0  0  0  0  0  0  0  0  0
   35.0620   28.6300   40.8500 H   0  0  0  0  0  0  0  0  0  0  0  0
   39.4400   30.6740   42.8610 O   0  0  0  0  0  0  0  0  0  0  0  0
   38.6620   29.4040   42.6250 P   0  0  1  0  0  0  0  0  0  0  0  0
   37.2520   29.3460   43.5470 O   0  0  0  0  0  0  0  0  0  0  0  0
   37.0060   30.2370   43.8920 H   0  0  0  0  0  0  0  0  0  0  0  0
   39.5790   28.0690   43.0820 O   0  0  0  0  0  0  0  0  0  0  0  0
   38.7500   27.1200   43.5920 C   0  0  0  0  0  0  0  0  0  0  0  0
   37.7470   27.6210   43.7440 H   0  0  0  0  0  0  0  0  0  0  0  0
   38.9850   26.6830   44.5560 H   0  0  0  0  0  0  0  0  0  0  0  0
   36.9280   24.6780   41.4540 C   0  0  0  0  0  0  0  0  0  0  0  0
   37.1590   25.7330   42.3540 C   0  0  0  0  0  0  0  0  0  0  0  0
   38.4880   26.0200   42.6500 C   0  0  0  0  0  0  0  0  0  0  0  0
   39.4800   25.2800   42.0660 N   0  0  0  0  0  0  0  0  0  0  0  0
   39.2240   24.2780   41.2070 C   0  0  0  0  0  0  0  0  0  0  0  0
   37.9570   23.9820   40.9070 N   0  0  0  0  0  0  0  0  0  0  0  0
   35.9000   24.4560   41.2240 H   0  0  0  0  0  0  0  0  0  0  0  0
   36.3650   26.3000   42.8020 H   0  0  0  0  0  0  0  0  0  0  0  0
   40.1130   23.7910   40.8320 H   0  0  0  0  0  0  0  0  0  0  0  0
  1 21  1  0  0  0  0
  2  6  1  0  0  0  0
  2  7  1  1  0  0  0
  2  1  1  0  0  0  0
  3  2  1  0  0  0  0
  4 10  1  0  0  0  0
  4  3  1  0  0  0  0
  4  5  1  0  0  0  0
  5 12  1  0  0  0  0
  5  6  1  0  0  0  0
  6 14  1  1  0  0  0
  8  3  1  0  0  0  0
  9  3  1  0  0  0  0
 11  4  1  0  0  0  0
 13  5  1  0  0  0  0
 15  6  1  0  0  0  0
 15 18  1  0  0  0  0
 16 15  1  0  0  0  0
 17 15  1  0  0  0  0
 19 18  1  0  0  0  0
 21 20  2  1  0  0  0
 21 24  1  0  0  0  0
 21 22  1  0  0  0  0
 22 23  1  0  0  0  0
 24 25  1  0  0  0  0
 25 26  1  0  0  0  0
 25 27  1  0  0  0  0
 28 29  1  0  0  0  0
 29 30  2  0  0  0  0
 29 35  1  0  0  0  0
 30 25  1  0  0  0  0
 31 30  1  0  0  0  0
 32 31  2  0  0  0  0
 33 32  1  0  0  0  0
 33 28  2  0  0  0  0
 34 28  1  0  0  0  0
 36 32  1  0  0  0  0
M  END
>  <minimizedAffinity>
-4.81414509

$$$$

 OpenBabel03252509343D

 36 37  0  0  1  0  0  0  0  0999 V2000
   37.4340   29.4450   39.7480 O   0  0  0  0  0  0  0  0  0  0  0  0
   36.2930   29.5850   38.9600 C   0  0  1  0  0  0  0  0  0  0  0  0
   36.6330   29.6520   37.4820 C   0  0  0  0  0  0  0  0  0  0  0  0
   35.2570   29.4670   36.8690 C   0  0  0  0  0  0  0  0  0  0  0  0
   34.4640   28.6470   37.8630 C   0  0  0  0  0  0  0  0  0  0  0  0
   35.4310   28.3410   38.9940 C   0  0  1  0  0  0  0  0  0  0  0  0
   35.6990   30.4620   39.1990 H   0  0  0  0  0  0  0  0  0  0  0  0
   37.0190   30.6670   37.2250 H   0  0  0  0  0  0  0  0  0  0  0  0
   37.3650   28.9090   37.1560 H   0  0  0  0  0  0  0  0  0  0  0  0
   34.8040   30.4800   36.8430 H   0  0  0  0  0  0  0  0  0  0  0  0
   35.3430   28.9820   35.8780 H   0  0  0  0  0  0  0  0  0  0  0  0
   33.5710   29.1750   38.2500 H   0  0  0  0  0  0  0  0  0  0  0  0
   34.1360   27.7190   37.3250 H   0  0  0  0  0  0  0  0  0  0  0  0
   34.8820   28.2940   39.9500 H   0  0  0  0  0  0  0  0  0  0  0  0
   36.2150   27.0820   38.7350 C   0  0  0  0  0  0  0  0  0  0  0  0
   35.5120   26.3690   38.2450 H   0  0  0  0  0  0  0  0  0  0  0  0
   37.0160   27.2470   37.9860 H   0  0  0  0  0  0  0  0  0  0  0  0
   36.6230   26.4750   39.9010 O   0  0  0  0  0  0  0  0  0  0  0  0
   37.5240   26.0740   39.8530 H   0  0  0  0  0  0  0  0  0  0  0  0
   38.2990   30.4540   41.9720 O   0  0  0  0  0  0  0  0  0  0  0  0
   37.0720   29.8530   41.3350 P   0  0  1  0  0  0  0  0  0  0  0  0
   35.7530   30.9010   41.3920 O   0  0  0  0  0  0  0  0  0  0  0  0
   36.0320   31.8280   41.5820 H   0  0  0  0  0  0  0  0  0  0  0  0
   36.6070   28.4660   42.1670 O   0  0  0  0  0  0  0  0  0  0  0  0
   37.4630   28.2710   43.2060 C   0  0  0  0  0  0  0  0  0  0  0  0
   36.8210   28.1470   44.1300 H   0  0  0  0  0  0  0  0  0  0  0  0
   38.1620   29.0590   43.4620 H   0  0  0  0  0  0  0  0  0  0  0  0
   40.2020   25.7750   43.5470 C   0  0  0  0  0  0  0  0  0  0  0  0
   39.4930   26.9820   43.6620 C   0  0  0  0  0  0  0  0  0  0  0  0
   38.2210   27.0140   43.0970 C   0  0  0  0  0  0  0  0  0  0  0  0
   37.7370   25.8960   42.4730 N   0  0  0  0  0  0  0  0  0  0  0  0
   38.4430   24.7560   42.3810 C   0  0  0  0  0  0  0  0  0  0  0  0
   39.6650   24.7000   42.9150 N   0  0  0  0  0  0  0  0  0  0  0  0
   41.1860   25.7490   43.9850 H   0  0  0  0  0  0  0  0  0  0  0  0
   39.8920   27.8480   44.1560 H   0  0  0  0  0  0  0  0  0  0  0  0
   37.9230   23.9660   41.8600 H   0  0  0  0  0  0  0  0  0  0  0  0
  1 21  1  0  0  0  0
  2  6  1  0  0  0  0
  2  7  1  1  0  0  0
  2  1  1  0  0  0  0
  3  2  1  0  0  0  0
  4  3  1  0  0  0  0
  4  5  1  0  0  0  0
  5 12  1  0  0  0  0
  5  6  1  0  0  0  0
  6 14  1  1  0  0  0
  8  3  1  0  0  0  0
  9  3  1  0  0  0  0
 10  4  1  0  0  0  0
 11  4  1  0  0  0  0
 13  5  1  0  0  0  0
 15  6  1  0  0  0  0
 15 18  1  0  0  0  0
 16 15  1  0  0  0  0
 17 15  1  0  0  0  0
 19 18  1  0  0  0  0
 21 22  1  0  0  0  0
 21 20  2  1  0  0  0
 21 24  1  0  0  0  0
 22 23  1  0  0  0  0
 24 25  1  0  0  0  0
 25 27  1  0  0  0  0
 25 26  1  0  0  0  0
 28 29  1  0  0  0  0
 28 34  1  0  0  0  0
 29 35  1  0  0  0  0
 30 25  1  0  0  0  0
 30 29  2  0  0  0  0
 31 30  1  0  0  0  0
 32 31  2  0  0  0  0
 32 33  1  0  0  0  0
 33 28  2  0  0  0  0
 36 32  1  0  0  0  0
M  END
>  <minimizedAffinity>
-4.73211098

$$$$

 OpenBabel03252509343D

 36 37  0  0  1  0  0  0  0  0999 V2000
   37.9040   28.0310   41.0080 O   0  0  0  0  0  0  0  0  0  0  0  0
   37.2180   26.8190   41.0770 C   0  0  1  0  0  0  0  0  0  0  0  0
   37.8150   25.7810   40.1430 C   0  0  0  0  0  0  0  0  0  0  0  0
   37.1290   24.5240   40.6460 C   0  0  0  0  0  0  0  0  0  0  0  0
   36.8360   24.7660   42.1110 C   0  0  0  0  0  0  0  0  0  0  0  0
   37.4140   26.1370   42.4150 C   0  0  1  0  0  0  0  0  0  0  0  0
   36.1610   26.8990   40.8450 H   0  0  0  0  0  0  0  0  0  0  0  0
   37.4930   25.9830   39.0940 H   0  0  0  0  0  0  0  0  0  0  0  0
   38.9060   25.7290   40.1680 H   0  0  0  0  0  0  0  0  0  0  0  0
   36.1540   24.4850   40.1180 H   0  0  0  0  0  0  0  0  0  0  0  0
   37.7750   23.6420   40.4740 H   0  0  0  0  0  0  0  0  0  0  0  0
   35.7550   24.7400   42.3500 H   0  0  0  0  0  0  0  0  0  0  0  0
   37.3570   23.9520   42.6810 H   0  0  0  0  0  0  0  0  0  0  0  0
   36.7980   26.6390   43.1810 H   0  0  0  0  0  0  0  0  0  0  0  0
   38.8610   26.0580   42.8220 C   0  0  0  0  0  0  0  0  0  0  0  0
   38.9440   25.1930   43.5200 H   0  0  0  0  0  0  0  0  0  0  0  0
   39.5120   25.7910   41.9650 H   0  0  0  0  0  0  0  0  0  0  0  0
   39.2610   27.1650   43.5360 O   0  0  0  0  0  0  0  0  0  0  0  0
   40.1810   27.4640   43.3330 H   0  0  0  0  0  0  0  0  0  0  0  0
   35.5440   29.1010   41.0300 O   0  0  0  0  0  0  0  0  0  0  0  0
   36.9280   29.2580   41.6070 P   0  0  1  0  0  0  0  0  0  0  0  0
   36.9160   29.2380   43.2930 O   0  0  0  0  0  0  0  0  0  0  0  0
   36.0730   28.8670   43.6460 H   0  0  0  0  0  0  0  0  0  0  0  0
   37.5770   30.7450   41.1590 O   0  0  0  0  0  0  0  0  0  0  0  0
   38.8430   30.8360   41.6460 C   0  0  0  0  0  0  0  0  0  0  0  0
   39.3900   29.9120   41.2900 H   0  0  0  0  0  0  0  0  0  0  0  0
   38.9910   30.8440   42.7200 H   0  0  0  0  0  0  0  0  0  0  0  0
   39.6040   34.1580   40.1500 C   0  0  0  0  0  0  0  0  0  0  0  0
   38.8690   33.0890   40.6890 C   0  0  0  0  0  0  0  0  0  0  0  0
   39.5960   31.9680   41.0800 C   0  0  0  0  0  0  0  0  0  0  0  0
   40.9560   31.9620   40.9240 N   0  0  0  0  0  0  0  0  0  0  0  0
   41.6280   33.0040   40.4050 C   0  0  0  0  0  0  0  0  0  0  0  0
   40.9540   34.0910   40.0210 N   0  0  0  0  0  0  0  0  0  0  0  0
   39.0430   35.0260   39.8490 H   0  0  0  0  0  0  0  0  0  0  0  0
   37.8020   33.1140   40.8030 H   0  0  0  0  0  0  0  0  0  0  0  0
   42.6950   32.8460   40.3470 H   0  0  0  0  0  0  0  0  0  0  0  0
  1  2  1  0  0  0  0
  1 21  1  0  0  0  0
  2  7  1  6  0  0  0
  2  6  1  0  0  0  0
  3  9  1  0  0  0  0
  3  4  1  0  0  0  0
  3  2  1  0  0  0  0
  4  5  1  0  0  0  0
  5 12  1  0  0  0  0
  5  6  1  0  0  0  0
  5 13  1  0  0  0  0
  6 15  1  0  0  0  0
  6 14  1  1  0  0  0
  8  3  1  0  0  0  0
 10  4  1  0  0  0  0
 11  4  1  0  0  0  0
 15 16  1  0  0  0  0
 15 18  1  0  0  0  0
 17 15  1  0  0  0  0
 19 18  1  0  0  0  0
 21 20  2  6  0  0  0
 21 22  1  0  0  0  0
 22 23  1  0  0  0  0
 24 21  1  0  0  0  0
 24 25  1  0  0  0  0
 25 27  1  0  0  0  0
 26 25  1  0  0  0  0
 28 29  1  0  0  0  0
 29 35  1  0  0  0  0
 29 30  2  0  0  0  0
 30 25  1  0  0  0  0
 31 30  1  0  0  0  0
 32 31  2  0  0  0  0
 33 28  2  0  0  0  0
 33 32  1  0  0  0  0
 34 28  1  0  0  0  0
 36 32  1  0  0  0  0
M  END
>  <minimizedAffinity>
-4.57938051

$$$$

 OpenBabel03252509343D

 36 37  0  0  1  0  0  0  0  0999 V2000
   37.6690   31.1160   41.1070 O   0  0  0  0  0  0  0  0  0  0  0  0
   38.2090   31.0760   39.8220 C   0  0  1  0  0  0  0  0  0  0  0  0
   37.1770   31.4270   38.7660 C   0  0  0  0  0  0  0  0  0  0  0  0
   38.0710   31.6310   37.5570 C   0  0  0  0  0  0  0  0  0  0  0  0
   39.4080   32.0880   38.0990 C   0  0  0  0  0  0  0  0  0  0  0  0
   39.2210   32.1820   39.6030 C   0  0  1  0  0  0  0  0  0  0  0  0
   38.6370   30.1160   39.5560 H   0  0  0  0  0  0  0  0  0  0  0  0
   36.5050   30.5540   38.5850 H   0  0  0  0  0  0  0  0  0  0  0  0
   36.5600   32.2950   39.0120 H   0  0  0  0  0  0  0  0  0  0  0  0
   38.2190   30.6210   37.1220 H   0  0  0  0  0  0  0  0  0  0  0  0
   37.6140   32.3630   36.8630 H   0  0  0  0  0  0  0  0  0  0  0  0
   40.2370   31.3940   37.8550 H   0  0  0  0  0  0  0  0  0  0  0  0
   39.6190   33.0880   37.6360 H   0  0  0  0  0  0  0  0  0  0  0  0
   40.1660   31.9270   40.1130 H   0  0  0  0  0  0  0  0  0  0  0  0
   38.7060   33.5340   40.0200 C   0  0  0  0  0  0  0  0  0  0  0  0
   39.3670   34.2860   39.5310 H   0  0  0  0  0  0  0  0  0  0  0  0
   37.6980   33.7320   39.6040 H   0  0  0  0  0  0  0  0  0  0  0  0
   38.8290   33.7410   41.3750 O   0  0  0  0  0  0  0  0  0  0  0  0
   38.0740   34.2350   41.7770 H   0  0  0  0  0  0  0  0  0  0  0  0
   37.3370   29.3230   42.9460 O   0  0  0  0  0  0  0  0  0  0  0  0
   37.0420   29.6090   41.4960 P   0  0  1  0  0  0  0  0  0  0  0  0
   35.3900   29.5500   41.1640 O   0  0  0  0  0  0  0  0  0  0  0  0
   34.8510   29.6040   41.9890 H   0  0  0  0  0  0  0  0  0  0  0  0
   37.7610   28.4440   40.5170 O   0  0  0  0  0  0  0  0  0  0  0  0
   38.5930   27.6850   41.2790 C   0  0  0  0  0  0  0  0  0  0  0  0
   38.4160   27.9940   42.3520 H   0  0  0  0  0  0  0  0  0  0  0  0
   39.6640   27.7830   41.1400 H   0  0  0  0  0  0  0  0  0  0  0  0
   36.9450   24.4310   42.0170 C   0  0  0  0  0  0  0  0  0  0  0  0
   37.2450   25.8020   42.0710 C   0  0  0  0  0  0  0  0  0  0  0  0
   38.2630   26.2510   41.2350 C   0  0  0  0  0  0  0  0  0  0  0  0
   38.9050   25.3570   40.4210 N   0  0  0  0  0  0  0  0  0  0  0  0
   38.5920   24.0500   40.3930 C   0  0  0  0  0  0  0  0  0  0  0  0
   37.6190   23.5950   41.1870 N   0  0  0  0  0  0  0  0  0  0  0  0
   36.1570   24.0830   42.6630 H   0  0  0  0  0  0  0  0  0  0  0  0
   36.7290   26.4870   42.7180 H   0  0  0  0  0  0  0  0  0  0  0  0
   39.1880   23.4760   39.6990 H   0  0  0  0  0  0  0  0  0  0  0  0
  1 21  1  0  0  0  0
  2  7  1  6  0  0  0
  2  1  1  0  0  0  0
  3  9  1  0  0  0  0
  3  2  1  0  0  0  0
  4  5  1  0  0  0  0
  4  3  1  0  0  0  0
  5  6  1  0  0  0  0
  6  2  1  0  0  0  0
  6 15  1  0  0  0  0
  6 14  1  1  0  0  0
  8  3  1  0  0  0  0
 10  4  1  0  0  0  0
 11  4  1  0  0  0  0
 12  5  1  0  0  0  0
 13  5  1  0  0  0  0
 15 18  1  0  0  0  0
 16 15  1  0  0  0  0
 17 15  1  0  0  0  0
 18 19  1  0  0  0  0
 21 20  2  1  0  0  0
 22 21  1  0  0  0  0
 22 23  1  0  0  0  0
 24 25  1  0  0  0  0
 24 21  1  0  0  0  0
 25 26  1  0  0  0  0
 27 25  1  0  0  0  0
 28 29  1  0  0  0  0
 28 34  1  0  0  0  0
 29 35  1  0  0  0  0
 30 25  1  0  0  0  0
 30 29  2  0  0  0  0
 31 30  1  0  0  0  0
 32 31  2  0  0  0  0
 32 33  1  0  0  0  0
 33 28  2  0  0  0  0
 36 32  1  0  0  0  0
M  END
>  <minimizedAffinity>
-4.5645709

$$$$

 OpenBabel03252509343D

 36 37  0  0  1  0  0  0  0  0999 V2000
   38.0860   30.5840   40.5710 O   0  0  0  0  0  0  0  0  0  0  0  0
   37.7920   31.9450   40.5120 C   0  0  1  0  0  0  0  0  0  0  0  0
   39.0480   32.7950   40.5570 C   0  0  0  0  0  0  0  0  0  0  0  0
   38.4880   34.1460   40.1520 C   0  0  0  0  0  0  0  0  0  0  0  0
   37.2900   33.8550   39.2740 C   0  0  0  0  0  0  0  0  0  0  0  0
   37.2340   32.3410   39.1610 C   0  0  1  0  0  0  0  0  0  0  0  0
   37.1360   32.2870   41.3050 H   0  0  0  0  0  0  0  0  0  0  0  0
   39.4310   32.8530   41.6040 H   0  0  0  0  0  0  0  0  0  0  0  0
   39.8550   32.4390   39.9110 H   0  0  0  0  0  0  0  0  0  0  0  0
   38.1070   34.6030   41.0880 H   0  0  0  0  0  0  0  0  0  0  0  0
   39.2650   34.7430   39.6380 H   0  0  0  0  0  0  0  0  0  0  0  0
   36.3400   34.2470   39.6880 H   0  0  0  0  0  0  0  0  0  0  0  0
   37.4900   34.3450   38.2850 H   0  0  0  0  0  0  0  0  0  0  0  0
   36.1830   32.0120   39.0810 H   0  0  0  0  0  0  0  0  0  0  0  0
   38.0690   31.8340   38.0150 C   0  0  0  0  0  0  0  0  0  0  0  0
   39.1210   32.1210   38.2410 H   0  0  0  0  0  0  0  0  0  0  0  0
   38.0810   30.7260   37.9780 H   0  0  0  0  0  0  0  0  0  0  0  0
   37.7500   32.4520   36.8270 O   0  0  0  0  0  0  0  0  0  0  0  0
   37.7750   31.8540   36.0410 H   0  0  0  0  0  0  0  0  0  0  0  0
   37.5010   29.4410   42.8220 O   0  0  0  0  0  0  0  0  0  0  0  0
   36.9130   29.7980   41.4800 P   0  0  1  0  0  0  0  0  0  0  0  0
   35.5360   30.7570   41.6290 O   0  0  0  0  0  0  0  0  0  0  0  0
   35.4680   31.1600   42.5260 H   0  0  0  0  0  0  0  0  0  0  0  0
   36.4320   28.4040   40.6690 O   0  0  0  0  0  0  0  0  0  0  0  0
   36.5940   28.5950   39.3330 C   0  0  0  0  0  0  0  0  0  0  0  0
   37.6470   28.2620   39.0880 H   0  0  0  0  0  0  0  0  0  0  0  0
   36.5260   29.6020   38.9370 H   0  0  0  0  0  0  0  0  0  0  0  0
   35.1940   25.5700   37.6770 C   0  0  0  0  0  0  0  0  0  0  0  0
   36.0370   26.3780   38.4590 C   0  0  0  0  0  0  0  0  0  0  0  0
   35.7210   27.7320   38.5200 C   0  0  0  0  0  0  0  0  0  0  0  0
   34.6330   28.1990   37.8330 N   0  0  0  0  0  0  0  0  0  0  0  0
   33.8460   27.3970   37.0950 C   0  0  0  0  0  0  0  0  0  0  0  0
   34.1290   26.0940   37.0190 N   0  0  0  0  0  0  0  0  0  0  0  0
   35.4380   24.5220   37.6300 H   0  0  0  0  0  0  0  0  0  0  0  0
   36.8870   25.9910   38.9890 H   0  0  0  0  0  0  0  0  0  0  0  0
   33.0290   27.9150   36.6150 H   0  0  0  0  0  0  0  0  0  0  0  0
  1 21  1  0  0  0  0
  2  3  1  0  0  0  0
  2  1  1  0  0  0  0
  2  7  1  1  0  0  0
  3  8  1  0  0  0  0
  4  3  1  0  0  0  0
  4 10  1  0  0  0  0
  5 12  1  0  0  0  0
  5  4  1  0  0  0  0
  6 14  1  6  0  0  0
  6  5  1  0  0  0  0
  6  2  1  0  0  0  0
  9  3  1  0  0  0  0
 11  4  1  0  0  0  0
 13  5  1  0  0  0  0
 15 16  1  0  0  0  0
 15  6  1  0  0  0  0
 17 15  1  0  0  0  0
 18 15  1  0  0  0  0
 19 18  1  0  0  0  0
 21 22  1  0  0  0  0
 21 20  2  1  0  0  0
 22 23  1  0  0  0  0
 24 21  1  0  0  0  0
 25 24  1  0  0  0  0
 26 25  1  0  0  0  0
 27 25  1  0  0  0  0
 28 29  1  0  0  0  0
 29 30  2  0  0  0  0
 29 35  1  0  0  0  0
 30 25  1  0  0  0  0
 31 30  1  0  0  0  0
 32 31  2  0  0  0  0
 33 32  1  0  0  0  0
 33 28  2  0  0  0  0
 34 28  1  0  0  0  0
 36 32  1  0  0  0  0
M  END
>  <minimizedAffinity>
-4.53713465

$$$$
