
 OpenBabel03242522143D

 25 26  0  0  0  0  0  0  0  0999 V2000
   45.6580   33.7390   43.4920 C   0  0  0  0  0  0  0  0  0  0  0  0
   44.5660   33.6600   42.6820 C   0  0  0  0  0  0  0  0  0  0  0  0
   45.2500   34.2210   41.0500 S   0  0  0  0  0  0  0  0  0  0  0  0
   46.9390   34.4570   41.8230 C   0  0  0  0  0  0  0  0  0  0  0  0
   46.7470   34.1510   42.9020 N   0  0  0  0  0  0  0  0  0  0  0  0
   43.5450   33.3280   43.0060 H   0  0  0  0  0  0  0  0  0  0  0  0
   45.0500   33.7740   47.2020 C   0  0  0  0  0  0  0  0  0  0  0  0
   45.0430   34.1990   45.8660 C   0  0  0  0  0  0  0  0  0  0  0  0
   45.6200   33.3800   44.9260 C   0  0  0  0  0  0  0  0  0  0  0  0
   46.1730   32.1840   45.3780 N   0  0  0  0  0  0  0  0  0  0  0  0
   46.1560   31.8260   46.6620 C   0  0  0  0  0  0  0  0  0  0  0  0
   45.6010   32.6070   47.5760 N   0  0  0  0  0  0  0  0  0  0  0  0
   44.6040   34.3870   47.9960 H   0  0  0  0  0  0  0  0  0  0  0  0
   46.6530   30.8530   46.7360 H   0  0  0  0  0  0  0  0  0  0  0  0
   44.4430   35.4330   45.5860 N   0  0  0  0  0  0  0  0  0  0  0  0
   43.4590   35.5000   45.9480 H   0  0  0  0  0  0  0  0  0  0  0  0
   44.8710   36.2340   45.0800 H   0  0  0  0  0  0  0  0  0  0  0  0
   48.1240   34.9320   41.0250 C   0  0  0  0  0  0  0  0  0  0  0  0
   48.4360   34.0090   40.4570 H   0  0  0  0  0  0  0  0  0  0  0  0
   47.8640   35.7350   40.3270 H   0  0  0  0  0  0  0  0  0  0  0  0
   49.2620   35.3140   41.9430 C   0  0  0  0  0  0  0  0  0  0  0  0
   50.1760   34.7520   41.6940 H   0  0  0  0  0  0  0  0  0  0  0  0
   48.9430   35.1340   42.9970 H   0  0  0  0  0  0  0  0  0  0  0  0
   49.5540   36.6570   41.8120 O   0  0  0  0  0  0  0  0  0  0  0  0
   50.3060   36.9190   42.3770 H   0  0  0  0  0  0  0  0  0  0  0  0
  1  9  1  0  0  0  0
  2  6  1  0  0  0  0
  2  1  2  0  0  0  0
  3  4  1  0  0  0  0
  3  2  1  0  0  0  0
  4  5  2  0  0  0  0
  5  1  1  0  0  0  0
  7 12  1  0  0  0  0
  7 13  1  0  0  0  0
  8  7  2  0  0  0  0
  9 10  2  0  0  0  0
  9  8  1  0  0  0  0
 10 11  1  0  0  0  0
 11 14  1  0  0  0  0
 11 12  2  0  0  0  0
 15  8  1  0  0  0  0
 15 16  1  0  0  0  0
 17 15  1  0  0  0  0
 18  4  1  0  0  0  0
 18 21  1  0  0  0  0
 19 18  1  0  0  0  0
 20 18  1  0  0  0  0
 21 23  1  0  0  0  0
 22 21  1  0  0  0  0
 24 21  1  0  0  0  0
 24 25  1  0  0  0  0
M  END
>  <minimizedAffinity>
-4.20109558

>  <minimizedRMSD>
1.33215237

$$$$
