
 OpenBabel03252509343D

 36 37  0  0  1  0  0  0  0  0999 V2000
   46.6020   34.8970   43.2600 O   0  0  0  0  0  0  0  0  0  0  0  0
   46.7880   33.9830   42.2240 C   0  0  1  0  0  0  0  0  0  0  0  0
   46.0710   34.4130   40.9570 C   0  0  0  0  0  0  0  0  0  0  0  0
   46.6920   33.4650   39.9480 C   0  0  0  0  0  0  0  0  0  0  0  0
   48.0750   33.1460   40.4710 C   0  0  0  0  0  0  0  0  0  0  0  0
   48.2230   33.9660   41.7410 C   0  0  1  0  0  0  0  0  0  0  0  0
   46.4590   32.9770   42.4620 H   0  0  0  0  0  0  0  0  0  0  0  0
   44.9800   34.1960   41.0450 H   0  0  0  0  0  0  0  0  0  0  0  0
   46.1960   35.4690   40.7070 H   0  0  0  0  0  0  0  0  0  0  0  0
   46.0940   32.5320   40.0080 H   0  0  0  0  0  0  0  0  0  0  0  0
   46.7060   33.9320   38.9450 H   0  0  0  0  0  0  0  0  0  0  0  0
   48.2220   32.0690   40.6870 H   0  0  0  0  0  0  0  0  0  0  0  0
   48.8010   33.4630   39.6760 H   0  0  0  0  0  0  0  0  0  0  0  0
   48.8530   33.4200   42.4650 H   0  0  0  0  0  0  0  0  0  0  0  0
   48.7600   35.3440   41.4590 C   0  0  0  0  0  0  0  0  0  0  0  0
   49.3330   35.2680   40.5060 H   0  0  0  0  0  0  0  0  0  0  0  0
   47.9440   36.0620   41.2400 H   0  0  0  0  0  0  0  0  0  0  0  0
   49.6600   35.7570   42.4150 O   0  0  0  0  0  0  0  0  0  0  0  0
   49.2400   36.1310   43.2270 H   0  0  0  0  0  0  0  0  0  0  0  0
   44.7330   35.3530   44.9950 O   0  0  0  0  0  0  0  0  0  0  0  0
   45.5630   34.2420   44.4030 P   0  0  1  0  0  0  0  0  0  0  0  0
   44.6060   33.0370   43.7150 O   0  0  0  0  0  0  0  0  0  0  0  0
   43.6830   33.3490   43.5610 H   0  0  0  0  0  0  0  0  0  0  0  0
   46.4700   33.4930   45.6070 O   0  0  0  0  0  0  0  0  0  0  0  0
   46.2270   32.1560   45.5720 C   0  0  0  0  0  0  0  0  0  0  0  0
   47.2040   31.6600   45.2920 H   0  0  0  0  0  0  0  0  0  0  0  0
   45.5110   31.7740   44.8530 H   0  0  0  0  0  0  0  0  0  0  0  0
   45.6500   31.9040   49.2400 C   0  0  0  0  0  0  0  0  0  0  0  0
   45.9830   32.4500   47.9900 C   0  0  0  0  0  0  0  0  0  0  0  0
   45.8810   31.6010   46.8910 C   0  0  0  0  0  0  0  0  0  0  0  0
   45.4710   30.3090   47.0790 N   0  0  0  0  0  0  0  0  0  0  0  0
   45.1590   29.8180   48.2900 C   0  0  0  0  0  0  0  0  0  0  0  0
   45.2500   30.6120   49.3600 N   0  0  0  0  0  0  0  0  0  0  0  0
   45.7290   32.5600   50.0900 H   0  0  0  0  0  0  0  0  0  0  0  0
   46.3030   33.4680   47.8650 H   0  0  0  0  0  0  0  0  0  0  0  0
   44.8530   28.7820   48.2730 H   0  0  0  0  0  0  0  0  0  0  0  0
  1 21  1  0  0  0  0
  2  7  1  1  0  0  0
  2  1  1  0  0  0  0
  3  8  1  0  0  0  0
  3  2  1  0  0  0  0
  4 10  1  0  0  0  0
  4  5  1  0  0  0  0
  4  3  1  0  0  0  0
  5 12  1  0  0  0  0
  5  6  1  0  0  0  0
  6  2  1  0  0  0  0
  6 14  1  1  0  0  0
  9  3  1  0  0  0  0
 11  4  1  0  0  0  0
 13  5  1  0  0  0  0
 15  6  1  0  0  0  0
 15 18  1  0  0  0  0
 16 15  1  0  0  0  0
 17 15  1  0  0  0  0
 18 19  1  0  0  0  0
 21 20  2  1  0  0  0
 21 24  1  0  0  0  0
 22 21  1  0  0  0  0
 23 22  1  0  0  0  0
 25 24  1  0  0  0  0
 25 30  1  0  0  0  0
 26 25  1  0  0  0  0
 27 25  1  0  0  0  0
 28 33  1  0  0  0  0
 28 34  1  0  0  0  0
 29 28  2  0  0  0  0
 30 31  2  0  0  0  0
 30 29  1  0  0  0  0
 31 32  1  0  0  0  0
 32 33  2  0  0  0  0
 35 29  1  0  0  0  0
 36 32  1  0  0  0  0
M  END
>  <minimizedAffinity>
-4.95079374

>  <minimizedRMSD>
0.474121153

$$$$
