
 OpenBabel03252503253D

 40 44  0  0  1  0  0  0  0  0999 V2000
   34.5290   29.1980   37.8510 C   0  0  1  0  0  0  0  0  0  0  0  0
   34.3880   28.4550   36.6080 C   0  0  0  0  0  0  0  0  0  0  0  0
   33.2030   28.5440   37.4960 C   0  0  2  0  0  0  0  0  0  0  0  0
   34.5530   30.3030   37.8430 H   0  0  0  0  0  0  0  0  0  0  0  0
   34.5530   28.9910   35.6880 H   0  0  0  0  0  0  0  0  0  0  0  0
   34.9310   27.4560   36.6000 H   0  0  0  0  0  0  0  0  0  0  0  0
   32.9250   27.7470   38.1990 H   0  0  0  0  0  0  0  0  0  0  0  0
   32.1390   29.5100   37.1100 C   0  0  0  0  0  0  0  0  0  0  0  0
   31.1640   29.9830   37.9630 C   0  0  0  0  0  0  0  0  0  0  0  0
   30.2010   30.8740   37.5230 C   0  0  0  0  0  0  0  0  0  0  0  0
   30.2010   31.3040   36.2250 C   0  0  0  0  0  0  0  0  0  0  0  0
   29.2670   32.1770   35.7680 N   0  0  0  0  0  0  0  0  0  0  0  0
   29.2850   32.5910   34.4690 C   0  0  0  0  0  0  0  0  0  0  0  0
   30.2410   32.1610   33.5250 C   0  0  0  0  0  0  0  0  0  0  0  0
   31.1930   31.2750   33.9830 C   0  0  0  0  0  0  0  0  0  0  0  0
   31.1610   30.8600   35.3190 C   0  0  0  0  0  0  0  0  0  0  0  0
   32.1040   29.9720   35.7950 C   0  0  0  0  0  0  0  0  0  0  0  0
   31.1930   29.6190   38.9910 H   0  0  0  0  0  0  0  0  0  0  0  0
   29.4480   31.2280   38.2180 H   0  0  0  0  0  0  0  0  0  0  0  0
   28.5210   33.2890   34.1450 H   0  0  0  0  0  0  0  0  0  0  0  0
   30.1830   32.5380   32.5130 H   0  0  0  0  0  0  0  0  0  0  0  0
   31.9470   30.9160   33.2960 H   0  0  0  0  0  0  0  0  0  0  0  0
   32.8100   29.6680   35.0340 H   0  0  0  0  0  0  0  0  0  0  0  0
   35.1430   29.1850   40.2970 C   0  0  0  0  0  0  0  0  0  0  0  0
   35.2840   28.6090   39.0020 C   0  0  0  0  0  0  0  0  0  0  0  0
   36.1270   27.5360   38.8570 C   0  0  0  0  0  0  0  0  0  0  0  0
   36.7800   27.0870   39.9640 N   0  0  0  0  0  0  0  0  0  0  0  0
   36.6360   27.6470   41.1940 C   0  0  0  0  0  0  0  0  0  0  0  0
   35.8150   28.6970   41.3540 N   0  0  0  0  0  0  0  0  0  0  0  0
   34.4770   30.0360   40.4230 H   0  0  0  0  0  0  0  0  0  0  0  0
   36.2600   27.0780   37.9040 H   0  0  0  0  0  0  0  0  0  0  0  0
   37.4040   27.0660   42.3270 C   0  0  2  0  0  0  0  0  0  0  0  0
   37.3240   27.6310   43.6640 C   0  0  0  0  0  0  0  0  0  0  0  0
   38.5390   28.0010   42.8460 C   0  0  1  0  0  0  0  0  0  0  0  0
   37.7740   26.0130   42.1740 H   0  0  0  0  0  0  0  0  0  0  0  0
   36.5320   28.3930   43.8340 H   0  0  0  0  0  0  0  0  0  0  0  0
   37.4240   26.9220   44.5160 H   0  0  0  0  0  0  0  0  0  0  0  0
   38.5320   29.0410   42.4900 H   0  0  0  0  0  0  0  0  0  0  0  0
   39.6980   27.3850   43.2880 O   0  0  0  0  0  0  0  0  0  0  0  0
   39.9710   26.6730   42.6560 H   0  0  0  0  0  0  0  0  0  0  0  0
  1  4  1  6  0  0  0
  1 25  1  0  0  0  0
  2  3  1  0  0  0  0
  2  1  1  0  0  0  0
  3  1  1  0  0  0  0
  3  7  1  1  0  0  0
  5  2  1  0  0  0  0
  6  2  1  0  0  0  0
  8  3  1  0  0  0  0
  8  9  1  0  0  0  0
  9 18  1  0  0  0  0
 10  9  2  0  0  0  0
 10 19  1  0  0  0  0
 11 10  1  0  0  0  0
 12 11  1  0  0  0  0
 13 12  2  0  0  0  0
 14 15  2  0  0  0  0
 14 13  1  0  0  0  0
 15 16  1  0  0  0  0
 16 17  1  0  0  0  0
 16 11  2  0  0  0  0
 17  8  2  0  0  0  0
 20 13  1  0  0  0  0
 21 14  1  0  0  0  0
 22 15  1  0  0  0  0
 23 17  1  0  0  0  0
 24 30  1  0  0  0  0
 24 29  1  0  0  0  0
 25 24  2  0  0  0  0
 26 25  1  0  0  0  0
 26 27  2  0  0  0  0
 27 28  1  0  0  0  0
 28 29  2  0  0  0  0
 28 32  1  0  0  0  0
 31 26  1  0  0  0  0
 32 35  1  6  0  0  0
 32 34  1  0  0  0  0
 32 33  1  0  0  0  0
 33 36  1  0  0  0  0
 33 37  1  0  0  0  0
 34 38  1  6  0  0  0
 34 39  1  0  0  0  0
 34 33  1  0  0  0  0
 40 39  1  0  0  0  0
M  END
>  <minimizedAffinity>
-6.19720268

$$$$

 OpenBabel03252503253D

 40 44  0  0  1  0  0  0  0  0999 V2000
   35.1680   28.8520   37.7820 C   0  0  1  0  0  0  0  0  0  0  0  0
   35.3060   28.0350   36.5870 C   0  0  0  0  0  0  0  0  0  0  0  0
   33.9590   28.1350   37.2000 C   0  0  2  0  0  0  0  0  0  0  0  0
   35.1700   29.9550   37.7100 H   0  0  0  0  0  0  0  0  0  0  0  0
   35.6500   28.5230   35.6900 H   0  0  0  0  0  0  0  0  0  0  0  0
   35.8590   27.0550   36.7540 H   0  0  0  0  0  0  0  0  0  0  0  0
   33.5570   27.3710   37.8780 H   0  0  0  0  0  0  0  0  0  0  0  0
   32.9810   29.0410   36.5420 C   0  0  0  0  0  0  0  0  0  0  0  0
   33.0120   29.3900   35.2070 C   0  0  0  0  0  0  0  0  0  0  0  0
   32.0690   30.2500   34.6720 C   0  0  0  0  0  0  0  0  0  0  0  0
   31.0830   30.7730   35.4630 C   0  0  0  0  0  0  0  0  0  0  0  0
   30.1470   31.6190   34.9630 N   0  0  0  0  0  0  0  0  0  0  0  0
   29.1740   32.1290   35.7700 C   0  0  0  0  0  0  0  0  0  0  0  0
   29.0640   31.8310   37.1450 C   0  0  0  0  0  0  0  0  0  0  0  0
   30.0110   30.9710   37.6590 C   0  0  0  0  0  0  0  0  0  0  0  0
   31.0030   30.4560   36.8170 C   0  0  0  0  0  0  0  0  0  0  0  0
   31.9610   29.5950   37.3140 C   0  0  0  0  0  0  0  0  0  0  0  0
   33.8110   28.9570   34.6050 H   0  0  0  0  0  0  0  0  0  0  0  0
   32.1200   30.5060   33.6200 H   0  0  0  0  0  0  0  0  0  0  0  0
   28.4470   32.8020   35.3310 H   0  0  0  0  0  0  0  0  0  0  0  0
   28.2620   32.2790   37.7150 H   0  0  0  0  0  0  0  0  0  0  0  0
   29.9690   30.7120   38.7080 H   0  0  0  0  0  0  0  0  0  0  0  0
   31.8380   29.4020   38.3710 H   0  0  0  0  0  0  0  0  0  0  0  0
   35.4010   29.1020   40.2810 C   0  0  0  0  0  0  0  0  0  0  0  0
   35.6770   28.3550   39.1000 C   0  0  0  0  0  0  0  0  0  0  0  0
   36.4180   27.2050   39.2160 C   0  0  0  0  0  0  0  0  0  0  0  0
   36.8470   26.8500   40.4590 N   0  0  0  0  0  0  0  0  0  0  0  0
   36.5760   27.5730   41.5770 C   0  0  0  0  0  0  0  0  0  0  0  0
   35.8520   28.6980   41.4820 N   0  0  0  0  0  0  0  0  0  0  0  0
   34.8140   30.0140   40.2000 H   0  0  0  0  0  0  0  0  0  0  0  0
   36.6450   26.6200   38.3560 H   0  0  0  0  0  0  0  0  0  0  0  0
   37.1010   27.0800   42.8780 C   0  0  2  0  0  0  0  0  0  0  0  0
   37.1920   27.9530   44.0370 C   0  0  0  0  0  0  0  0  0  0  0  0
   38.4720   27.7130   43.2700 C   0  0  1  0  0  0  0  0  0  0  0  0
   37.1130   25.9600   43.0050 H   0  0  0  0  0  0  0  0  0  0  0  0
   36.6870   28.9400   43.9550 H   0  0  0  0  0  0  0  0  0  0  0  0
   37.0470   27.4800   45.0340 H   0  0  0  0  0  0  0  0  0  0  0  0
   38.8060   28.5820   42.6860 H   0  0  0  0  0  0  0  0  0  0  0  0
   39.3620   26.8960   43.9450 O   0  0  0  0  0  0  0  0  0  0  0  0
   39.3990   26.0020   43.5200 H   0  0  0  0  0  0  0  0  0  0  0  0
  1  4  1  6  0  0  0
  1 25  1  0  0  0  0
  2  6  1  0  0  0  0
  2  3  1  0  0  0  0
  2  1  1  0  0  0  0
  3  1  1  0  0  0  0
  3  7  1  1  0  0  0
  5  2  1  0  0  0  0
  8  3  1  0  0  0  0
  8 17  1  0  0  0  0
  9  8  2  0  0  0  0
 10  9  1  0  0  0  0
 10 11  2  0  0  0  0
 11 16  1  0  0  0  0
 12 11  1  0  0  0  0
 12 13  2  0  0  0  0
 13 14  1  0  0  0  0
 14 15  2  0  0  0  0
 14 21  1  0  0  0  0
 15 22  1  0  0  0  0
 16 17  2  0  0  0  0
 16 15  1  0  0  0  0
 17 23  1  0  0  0  0
 18  9  1  0  0  0  0
 19 10  1  0  0  0  0
 20 13  1  0  0  0  0
 24 29  1  0  0  0  0
 25 26  1  0  0  0  0
 25 24  2  0  0  0  0
 26 27  2  0  0  0  0
 27 28  1  0  0  0  0
 28 32  1  0  0  0  0
 29 28  2  0  0  0  0
 30 24  1  0  0  0  0
 31 26  1  0  0  0  0
 32 35  1  1  0  0  0
 32 34  1  0  0  0  0
 32 33  1  0  0  0  0
 33 37  1  0  0  0  0
 34 38  1  6  0  0  0
 34 39  1  0  0  0  0
 34 33  1  0  0  0  0
 36 33  1  0  0  0  0
 40 39  1  0  0  0  0
M  END
>  <minimizedAffinity>
-6.18470001

$$$$

 OpenBabel03252503253D

 40 44  0  0  1  0  0  0  0  0999 V2000
   37.9570   27.8190   42.3930 C   0  0  1  0  0  0  0  0  0  0  0  0
   36.7240   27.4320   43.0590 C   0  0  0  0  0  0  0  0  0  0  0  0
   36.8840   27.0550   41.6330 C   0  0  2  0  0  0  0  0  0  0  0  0
   38.8990   27.2770   42.5970 H   0  0  0  0  0  0  0  0  0  0  0  0
   36.8050   26.7840   43.9160 H   0  0  0  0  0  0  0  0  0  0  0  0
   36.0170   28.2980   43.2690 H   0  0  0  0  0  0  0  0  0  0  0  0
   36.4520   27.6410   40.8110 H   0  0  0  0  0  0  0  0  0  0  0  0
   37.2430   25.6410   41.3430 C   0  0  0  0  0  0  0  0  0  0  0  0
   38.2920   24.9630   41.9300 C   0  0  0  0  0  0  0  0  0  0  0  0
   38.5670   23.6480   41.5970 C   0  0  0  0  0  0  0  0  0  0  0  0
   37.7990   22.9940   40.6750 C   0  0  0  0  0  0  0  0  0  0  0  0
   38.0480   21.7050   40.3310 N   0  0  0  0  0  0  0  0  0  0  0  0
   37.2700   21.0720   39.4090 C   0  0  0  0  0  0  0  0  0  0  0  0
   36.1780   21.6830   38.7570 C   0  0  0  0  0  0  0  0  0  0  0  0
   35.9180   22.9930   39.1020 C   0  0  0  0  0  0  0  0  0  0  0  0
   36.7270   23.6280   40.0510 C   0  0  0  0  0  0  0  0  0  0  0  0
   36.4840   24.9380   40.4090 C   0  0  0  0  0  0  0  0  0  0  0  0
   38.8850   25.5150   42.6590 H   0  0  0  0  0  0  0  0  0  0  0  0
   39.3990   23.1430   42.0750 H   0  0  0  0  0  0  0  0  0  0  0  0
   37.5040   20.0420   39.1620 H   0  0  0  0  0  0  0  0  0  0  0  0
   35.6120   21.1100   38.0360 H   0  0  0  0  0  0  0  0  0  0  0  0
   35.0910   23.5040   38.6290 H   0  0  0  0  0  0  0  0  0  0  0  0
   35.6420   25.3640   39.8790 H   0  0  0  0  0  0  0  0  0  0  0  0
   39.4440   29.8520   42.2530 C   0  0  0  0  0  0  0  0  0  0  0  0
   38.1830   29.2430   41.9890 C   0  0  0  0  0  0  0  0  0  0  0  0
   37.2110   30.0000   41.3840 C   0  0  0  0  0  0  0  0  0  0  0  0
   37.5130   31.2900   41.0720 N   0  0  0  0  0  0  0  0  0  0  0  0
   38.7210   31.8570   41.3300 C   0  0  0  0  0  0  0  0  0  0  0  0
   39.6840   31.1320   41.9210 N   0  0  0  0  0  0  0  0  0  0  0  0
   40.2220   29.2610   42.7320 H   0  0  0  0  0  0  0  0  0  0  0  0
   36.2550   29.5810   41.1710 H   0  0  0  0  0  0  0  0  0  0  0  0
   38.9300   33.2780   40.9410 C   0  0  2  0  0  0  0  0  0  0  0  0
   38.0700   33.9290   39.9660 C   0  0  0  0  0  0  0  0  0  0  0  0
   39.4140   33.4490   39.4680 C   0  0  1  0  0  0  0  0  0  0  0  0
   39.5520   33.8900   41.6540 H   0  0  0  0  0  0  0  0  0  0  0  0
   37.1520   33.3780   39.6670 H   0  0  0  0  0  0  0  0  0  0  0  0
   37.8890   35.0180   40.1060 H   0  0  0  0  0  0  0  0  0  0  0  0
   39.3530   32.5660   38.8160 H   0  0  0  0  0  0  0  0  0  0  0  0
   40.3010   34.4830   39.2230 O   0  0  0  0  0  0  0  0  0  0  0  0
   41.0040   34.5050   39.9200 H   0  0  0  0  0  0  0  0  0  0  0  0
  1  4  1  1  0  0  0
  1  2  1  0  0  0  0
  2  6  1  0  0  0  0
  2  5  1  0  0  0  0
  3  7  1  6  0  0  0
  3  1  1  0  0  0  0
  3  2  1  0  0  0  0
  8  3  1  0  0  0  0
  8  9  1  0  0  0  0
  9 18  1  0  0  0  0
 10  9  2  0  0  0  0
 10 19  1  0  0  0  0
 11 10  1  0  0  0  0
 12 11  1  0  0  0  0
 13 12  2  0  0  0  0
 14 15  2  0  0  0  0
 14 13  1  0  0  0  0
 15 16  1  0  0  0  0
 16 17  1  0  0  0  0
 16 11  2  0  0  0  0
 17  8  2  0  0  0  0
 20 13  1  0  0  0  0
 21 14  1  0  0  0  0
 22 15  1  0  0  0  0
 23 17  1  0  0  0  0
 24 30  1  0  0  0  0
 25 24  1  0  0  0  0
 25  1  1  0  0  0  0
 26 25  2  0  0  0  0
 27 28  2  0  0  0  0
 27 26  1  0  0  0  0
 28 29  1  0  0  0  0
 29 24  2  0  0  0  0
 31 26  1  0  0  0  0
 32 28  1  0  0  0  0
 32 35  1  1  0  0  0
 33 37  1  0  0  0  0
 33 32  1  0  0  0  0
 34 38  1  6  0  0  0
 34 33  1  0  0  0  0
 34 32  1  0  0  0  0
 36 33  1  0  0  0  0
 39 34  1  0  0  0  0
 39 40  1  0  0  0  0
M  END
>  <minimizedAffinity>
-5.93808985

$$$$

 OpenBabel03252503253D

 40 44  0  0  1  0  0  0  0  0999 V2000
   36.6770   30.2660   39.5660 C   0  0  1  0  0  0  0  0  0  0  0  0
   36.2010   30.0750   38.2050 C   0  0  0  0  0  0  0  0  0  0  0  0
   37.3880   29.2950   38.6360 C   0  0  2  0  0  0  0  0  0  0  0  0
   36.1300   29.8220   40.4190 H   0  0  0  0  0  0  0  0  0  0  0  0
   35.1950   29.7110   38.0780 H   0  0  0  0  0  0  0  0  0  0  0  0
   36.4070   30.9540   37.5130 H   0  0  0  0  0  0  0  0  0  0  0  0
   38.4170   29.6050   38.4100 H   0  0  0  0  0  0  0  0  0  0  0  0
   37.1700   27.8640   38.9770 C   0  0  0  0  0  0  0  0  0  0  0  0
   36.3000   27.0240   38.3120 C   0  0  0  0  0  0  0  0  0  0  0  0
   36.1460   25.7050   38.7000 C   0  0  0  0  0  0  0  0  0  0  0  0
   36.8580   25.2080   39.7570 C   0  0  0  0  0  0  0  0  0  0  0  0
   36.7240   23.9180   40.1570 N   0  0  0  0  0  0  0  0  0  0  0  0
   37.4430   23.4430   41.2140 C   0  0  0  0  0  0  0  0  0  0  0  0
   38.3530   24.2270   41.9540 C   0  0  0  0  0  0  0  0  0  0  0  0
   38.4950   25.5390   41.5520 C   0  0  0  0  0  0  0  0  0  0  0  0
   37.7490   26.0100   40.4650 C   0  0  0  0  0  0  0  0  0  0  0  0
   37.8760   27.3190   40.0480 C   0  0  0  0  0  0  0  0  0  0  0  0
   35.7470   27.4530   37.4760 H   0  0  0  0  0  0  0  0  0  0  0  0
   35.4540   25.0690   38.1580 H   0  0  0  0  0  0  0  0  0  0  0  0
   37.3060   22.4070   41.5010 H   0  0  0  0  0  0  0  0  0  0  0  0
   38.8830   23.7730   42.7790 H   0  0  0  0  0  0  0  0  0  0  0  0
   39.1810   26.1790   42.0870 H   0  0  0  0  0  0  0  0  0  0  0  0
   38.5800   27.8800   40.6480 H   0  0  0  0  0  0  0  0  0  0  0  0
   37.0740   32.7450   39.3200 C   0  0  0  0  0  0  0  0  0  0  0  0
   37.4220   31.5100   39.9390 C   0  0  0  0  0  0  0  0  0  0  0  0
   38.4490   31.5080   40.8500 C   0  0  0  0  0  0  0  0  0  0  0  0
   39.0730   32.6900   41.1060 N   0  0  0  0  0  0  0  0  0  0  0  0
   38.7290   33.8600   40.5080 C   0  0  0  0  0  0  0  0  0  0  0  0
   37.7280   33.8820   39.6150 N   0  0  0  0  0  0  0  0  0  0  0  0
   36.2610   32.7580   38.5970 H   0  0  0  0  0  0  0  0  0  0  0  0
   38.7400   30.6040   41.3340 H   0  0  0  0  0  0  0  0  0  0  0  0
   39.4870   35.0870   40.8720 C   0  0  2  0  0  0  0  0  0  0  0  0
   40.2200   35.8480   39.8730 C   0  0  0  0  0  0  0  0  0  0  0  0
   41.0330   34.9170   40.7430 C   0  0  1  0  0  0  0  0  0  0  0  0
   39.2050   35.5600   41.8550 H   0  0  0  0  0  0  0  0  0  0  0  0
   40.0390   35.5770   38.8110 H   0  0  0  0  0  0  0  0  0  0  0  0
   40.2840   36.9480   40.0280 H   0  0  0  0  0  0  0  0  0  0  0  0
   41.3950   34.0240   40.2160 H   0  0  0  0  0  0  0  0  0  0  0  0
   41.8100   35.5870   41.6730 O   0  0  0  0  0  0  0  0  0  0  0  0
   41.4320   35.4750   42.5820 H   0  0  0  0  0  0  0  0  0  0  0  0
  1 25  1  0  0  0  0
  1  4  1  1  0  0  0
  2  3  1  0  0  0  0
  2  1  1  0  0  0  0
  3  7  1  6  0  0  0
  3  8  1  0  0  0  0
  3  1  1  0  0  0  0
  5  2  1  0  0  0  0
  6  2  1  0  0  0  0
  8 17  1  0  0  0  0
  9 10  1  0  0  0  0
  9  8  2  0  0  0  0
 10 11  2  0  0  0  0
 11 12  1  0  0  0  0
 11 16  1  0  0  0  0
 12 13  2  0  0  0  0
 13 20  1  0  0  0  0
 13 14  1  0  0  0  0
 14 21  1  0  0  0  0
 15 14  2  0  0  0  0
 15 22  1  0  0  0  0
 16 15  1  0  0  0  0
 17 16  2  0  0  0  0
 17 23  1  0  0  0  0
 18  9  1  0  0  0  0
 19 10  1  0  0  0  0
 24 29  2  0  0  0  0
 24 25  1  0  0  0  0
 25 26  2  0  0  0  0
 26 27  1  0  0  0  0
 26 31  1  0  0  0  0
 28 32  1  0  0  0  0
 28 27  2  0  0  0  0
 29 28  1  0  0  0  0
 30 24  1  0  0  0  0
 32 35  1  1  0  0  0
 33 37  1  0  0  0  0
 33 34  1  0  0  0  0
 33 32  1  0  0  0  0
 34 38  1  6  0  0  0
 34 32  1  0  0  0  0
 34 39  1  0  0  0  0
 36 33  1  0  0  0  0
 39 40  1  0  0  0  0
M  END
>  <minimizedAffinity>
-5.89380121

$$$$

 OpenBabel03252503253D

 40 44  0  0  1  0  0  0  0  0999 V2000
   36.2630   27.8640   41.0230 C   0  0  1  0  0  0  0  0  0  0  0  0
   36.0750   29.2700   40.7040 C   0  0  0  0  0  0  0  0  0  0  0  0
   36.5180   28.3700   39.6110 C   0  0  2  0  0  0  0  0  0  0  0  0
   35.3910   27.1980   41.1600 H   0  0  0  0  0  0  0  0  0  0  0  0
   35.0900   29.6840   40.8470 H   0  0  0  0  0  0  0  0  0  0  0  0
   36.8720   29.9560   41.1370 H   0  0  0  0  0  0  0  0  0  0  0  0
   37.5690   28.2700   39.3110 H   0  0  0  0  0  0  0  0  0  0  0  0
   35.4880   27.9450   38.6250 C   0  0  0  0  0  0  0  0  0  0  0  0
   35.4920   26.7360   37.9600 C   0  0  0  0  0  0  0  0  0  0  0  0
   34.5010   26.4200   37.0480 C   0  0  0  0  0  0  0  0  0  0  0  0
   33.4940   27.3080   36.7870 C   0  0  0  0  0  0  0  0  0  0  0  0
   32.5100   27.0230   35.8960 N   0  0  0  0  0  0  0  0  0  0  0  0
   31.5170   27.9230   35.6510 C   0  0  0  0  0  0  0  0  0  0  0  0
   31.4310   29.1830   36.2810 C   0  0  0  0  0  0  0  0  0  0  0  0
   32.4270   29.4790   37.1880 C   0  0  0  0  0  0  0  0  0  0  0  0
   33.4390   28.5430   37.4280 C   0  0  0  0  0  0  0  0  0  0  0  0
   34.4450   28.8220   38.3310 C   0  0  0  0  0  0  0  0  0  0  0  0
   36.3100   26.0520   38.1910 H   0  0  0  0  0  0  0  0  0  0  0  0
   34.5310   25.4620   36.5410 H   0  0  0  0  0  0  0  0  0  0  0  0
   30.7510   27.6560   34.9310 H   0  0  0  0  0  0  0  0  0  0  0  0
   30.6100   29.8390   36.0280 H   0  0  0  0  0  0  0  0  0  0  0  0
   32.4040   30.4320   37.6970 H   0  0  0  0  0  0  0  0  0  0  0  0
   34.3390   29.7990   38.7830 H   0  0  0  0  0  0  0  0  0  0  0  0
   37.8030   26.0380   41.8340 C   0  0  0  0  0  0  0  0  0  0  0  0
   37.4600   27.4200   41.8050 C   0  0  0  0  0  0  0  0  0  0  0  0
   38.2410   28.2970   42.5160 C   0  0  0  0  0  0  0  0  0  0  0  0
   39.2980   27.7890   43.2090 N   0  0  0  0  0  0  0  0  0  0  0  0
   39.6120   26.4670   43.2270 C   0  0  0  0  0  0  0  0  0  0  0  0
   38.8600   25.5950   42.5370 N   0  0  0  0  0  0  0  0  0  0  0  0
   37.1910   25.3340   41.2740 H   0  0  0  0  0  0  0  0  0  0  0  0
   38.0170   29.3390   42.5200 H   0  0  0  0  0  0  0  0  0  0  0  0
   40.7920   26.0350   44.0220 C   0  0  2  0  0  0  0  0  0  0  0  0
   41.9470   26.9010   44.1930 C   0  0  0  0  0  0  0  0  0  0  0  0
   42.0700   25.8100   43.1550 C   0  0  1  0  0  0  0  0  0  0  0  0
   40.6150   25.1740   44.7260 H   0  0  0  0  0  0  0  0  0  0  0  0
   41.8310   27.9550   43.8610 H   0  0  0  0  0  0  0  0  0  0  0  0
   42.5000   26.8150   45.1550 H   0  0  0  0  0  0  0  0  0  0  0  0
   42.0440   26.1800   42.1210 H   0  0  0  0  0  0  0  0  0  0  0  0
   42.9120   24.7830   43.5460 O   0  0  0  0  0  0  0  0  0  0  0  0
   42.3870   23.9730   43.7690 H   0  0  0  0  0  0  0  0  0  0  0  0
  1  4  1  1  0  0  0
  1 25  1  0  0  0  0
  2  5  1  0  0  0  0
  2  1  1  0  0  0  0
  2  6  1  0  0  0  0
  3  7  1  6  0  0  0
  3  2  1  0  0  0  0
  3  1  1  0  0  0  0
  8  3  1  0  0  0  0
  9 18  1  0  0  0  0
  9  8  2  0  0  0  0
 10  9  1  0  0  0  0
 11 10  2  0  0  0  0
 11 16  1  0  0  0  0
 12 11  1  0  0  0  0
 13 12  2  0  0  0  0
 13 14  1  0  0  0  0
 14 15  2  0  0  0  0
 15 16  1  0  0  0  0
 15 22  1  0  0  0  0
 16 17  2  0  0  0  0
 17  8  1  0  0  0  0
 17 23  1  0  0  0  0
 19 10  1  0  0  0  0
 20 13  1  0  0  0  0
 21 14  1  0  0  0  0
 24 29  1  0  0  0  0
 25 24  2  0  0  0  0
 25 26  1  0  0  0  0
 26 31  1  0  0  0  0
 26 27  2  0  0  0  0
 27 28  1  0  0  0  0
 28 32  1  0  0  0  0
 29 28  2  0  0  0  0
 30 24  1  0  0  0  0
 32 33  1  0  0  0  0
 32 35  1  1  0  0  0
 33 37  1  0  0  0  0
 34 38  1  6  0  0  0
 34 39  1  0  0  0  0
 34 32  1  0  0  0  0
 34 33  1  0  0  0  0
 36 33  1  0  0  0  0
 39 40  1  0  0  0  0
M  END
>  <minimizedAffinity>
-5.806283

$$$$

 OpenBabel03252503253D

 40 44  0  0  1  0  0  0  0  0999 V2000
   39.7950   29.4690   41.8510 C   0  0  1  0  0  0  0  0  0  0  0  0
   38.8330   29.8030   42.8900 C   0  0  0  0  0  0  0  0  0  0  0  0
   38.3030   29.3410   41.5830 C   0  0  2  0  0  0  0  0  0  0  0  0
   40.3700   28.5260   41.9020 H   0  0  0  0  0  0  0  0  0  0  0  0
   38.8800   29.2410   43.8080 H   0  0  0  0  0  0  0  0  0  0  0  0
   38.7430   30.9170   43.0990 H   0  0  0  0  0  0  0  0  0  0  0  0
   37.9540   30.0330   40.8050 H   0  0  0  0  0  0  0  0  0  0  0  0
   37.8230   27.9360   41.5060 C   0  0  0  0  0  0  0  0  0  0  0  0
   37.8640   27.0360   42.5520 C   0  0  0  0  0  0  0  0  0  0  0  0
   37.4060   25.7390   42.3950 C   0  0  0  0  0  0  0  0  0  0  0  0
   36.9020   25.3250   41.1940 C   0  0  0  0  0  0  0  0  0  0  0  0
   36.4480   24.0580   41.0140 N   0  0  0  0  0  0  0  0  0  0  0  0
   35.9510   23.6660   39.8070 C   0  0  0  0  0  0  0  0  0  0  0  0
   35.8710   24.5140   38.6820 C   0  0  0  0  0  0  0  0  0  0  0  0
   36.3300   25.8030   38.8580 C   0  0  0  0  0  0  0  0  0  0  0  0
   36.8370   26.1890   40.1040 C   0  0  0  0  0  0  0  0  0  0  0  0
   37.3030   27.4740   40.2980 C   0  0  0  0  0  0  0  0  0  0  0  0
   38.2720   27.3990   43.4950 H   0  0  0  0  0  0  0  0  0  0  0  0
   37.4520   25.0550   43.2360 H   0  0  0  0  0  0  0  0  0  0  0  0
   35.5990   22.6450   39.7060 H   0  0  0  0  0  0  0  0  0  0  0  0
   35.4640   24.1230   37.7610 H   0  0  0  0  0  0  0  0  0  0  0  0
   36.2900   26.4910   38.0250 H   0  0  0  0  0  0  0  0  0  0  0  0
   37.2250   28.0830   39.4080 H   0  0  0  0  0  0  0  0  0  0  0  0
   40.1550   31.9120   41.3370 C   0  0  0  0  0  0  0  0  0  0  0  0
   40.5210   30.5530   41.1160 C   0  0  0  0  0  0  0  0  0  0  0  0
   41.5240   30.2890   40.2170 C   0  0  0  0  0  0  0  0  0  0  0  0
   42.1090   31.3460   39.5900 N   0  0  0  0  0  0  0  0  0  0  0  0
   41.7490   32.6370   39.8110 C   0  0  0  0  0  0  0  0  0  0  0  0
   40.7710   32.9150   40.6870 N   0  0  0  0  0  0  0  0  0  0  0  0
   39.3610   32.1330   42.0480 H   0  0  0  0  0  0  0  0  0  0  0  0
   41.8260   29.2850   40.0250 H   0  0  0  0  0  0  0  0  0  0  0  0
   42.4640   33.7050   39.0630 C   0  0  2  0  0  0  0  0  0  0  0  0
   41.8350   34.9870   38.7870 C   0  0  0  0  0  0  0  0  0  0  0  0
   41.8540   33.9860   37.6550 C   0  0  1  0  0  0  0  0  0  0  0  0
   43.5850   33.5970   39.0120 H   0  0  0  0  0  0  0  0  0  0  0  0
   40.8780   35.1930   39.3130 H   0  0  0  0  0  0  0  0  0  0  0  0
   42.5040   35.8760   38.7510 H   0  0  0  0  0  0  0  0  0  0  0  0
   40.8700   33.5450   37.4390 H   0  0  0  0  0  0  0  0  0  0  0  0
   42.7430   34.3240   36.6490 O   0  0  0  0  0  0  0  0  0  0  0  0
   43.5320   33.7250   36.6720 H   0  0  0  0  0  0  0  0  0  0  0  0
  1  4  1  1  0  0  0
  1  2  1  0  0  0  0
  2  6  1  0  0  0  0
  2  5  1  0  0  0  0
  3  7  1  6  0  0  0
  3  1  1  0  0  0  0
  3  2  1  0  0  0  0
  8  3  1  0  0  0  0
  8  9  1  0  0  0  0
  9 18  1  0  0  0  0
 10  9  2  0  0  0  0
 10 19  1  0  0  0  0
 11 10  1  0  0  0  0
 12 11  1  0  0  0  0
 13 12  2  0  0  0  0
 14 15  2  0  0  0  0
 14 13  1  0  0  0  0
 15 16  1  0  0  0  0
 16 17  1  0  0  0  0
 16 11  2  0  0  0  0
 17  8  2  0  0  0  0
 20 13  1  0  0  0  0
 21 14  1  0  0  0  0
 22 15  1  0  0  0  0
 23 17  1  0  0  0  0
 24 30  1  0  0  0  0
 25 24  1  0  0  0  0
 25  1  1  0  0  0  0
 26 25  2  0  0  0  0
 27 28  2  0  0  0  0
 27 26  1  0  0  0  0
 28 29  1  0  0  0  0
 29 24  2  0  0  0  0
 31 26  1  0  0  0  0
 32 35  1  1  0  0  0
 32 28  1  0  0  0  0
 33 32  1  0  0  0  0
 33 36  1  0  0  0  0
 34 38  1  6  0  0  0
 34 33  1  0  0  0  0
 34 32  1  0  0  0  0
 37 33  1  0  0  0  0
 39 40  1  0  0  0  0
 39 34  1  0  0  0  0
M  END
>  <minimizedAffinity>
-5.77839136

$$$$

 OpenBabel03252503253D

 40 44  0  0  1  0  0  0  0  0999 V2000
   37.5030   29.9200   39.6300 C   0  0  1  0  0  0  0  0  0  0  0  0
   36.2390   30.6050   39.4100 C   0  0  0  0  0  0  0  0  0  0  0  0
   37.0720   31.0500   40.5530 C   0  0  2  0  0  0  0  0  0  0  0  0
   38.3700   30.1210   38.9750 H   0  0  0  0  0  0  0  0  0  0  0  0
   36.1060   31.1090   38.4670 H   0  0  0  0  0  0  0  0  0  0  0  0
   35.3220   29.9860   39.6730 H   0  0  0  0  0  0  0  0  0  0  0  0
   36.9000   30.7100   41.5830 H   0  0  0  0  0  0  0  0  0  0  0  0
   37.8530   32.3040   40.3740 C   0  0  0  0  0  0  0  0  0  0  0  0
   37.3240   33.4990   39.9290 C   0  0  0  0  0  0  0  0  0  0  0  0
   38.1220   34.6190   39.7790 C   0  0  0  0  0  0  0  0  0  0  0  0
   39.4560   34.5620   40.0710 C   0  0  0  0  0  0  0  0  0  0  0  0
   40.2600   35.6470   39.9310 N   0  0  0  0  0  0  0  0  0  0  0  0
   41.5880   35.5670   40.2260 C   0  0  0  0  0  0  0  0  0  0  0  0
   42.2160   34.3890   40.6850 C   0  0  0  0  0  0  0  0  0  0  0  0
   41.4060   33.2830   40.8300 C   0  0  0  0  0  0  0  0  0  0  0  0
   40.0440   33.3830   40.5230 C   0  0  0  0  0  0  0  0  0  0  0  0
   39.2170   32.2870   40.6600 C   0  0  0  0  0  0  0  0  0  0  0  0
   36.2570   33.5090   39.7050 H   0  0  0  0  0  0  0  0  0  0  0  0
   37.6770   35.5440   39.4270 H   0  0  0  0  0  0  0  0  0  0  0  0
   42.1940   36.4560   40.1000 H   0  0  0  0  0  0  0  0  0  0  0  0
   43.2760   34.4110   40.8960 H   0  0  0  0  0  0  0  0  0  0  0  0
   41.8410   32.3580   41.1790 H   0  0  0  0  0  0  0  0  0  0  0  0
   39.7450   31.4090   41.0090 H   0  0  0  0  0  0  0  0  0  0  0  0
   36.6100   27.5630   39.7310 C   0  0  0  0  0  0  0  0  0  0  0  0
   37.5240   28.5430   40.2170 C   0  0  0  0  0  0  0  0  0  0  0  0
   38.3840   28.1850   41.2240 C   0  0  0  0  0  0  0  0  0  0  0  0
   38.3110   26.9110   41.6990 N   0  0  0  0  0  0  0  0  0  0  0  0
   37.4340   25.9870   41.2260 C   0  0  0  0  0  0  0  0  0  0  0  0
   36.5860   26.3190   40.2400 N   0  0  0  0  0  0  0  0  0  0  0  0
   35.9240   27.8360   38.9320 H   0  0  0  0  0  0  0  0  0  0  0  0
   39.0820   28.8890   41.6140 H   0  0  0  0  0  0  0  0  0  0  0  0
   37.4510   24.6270   41.8270 C   0  0  2  0  0  0  0  0  0  0  0  0
   38.6100   24.1360   42.5540 C   0  0  0  0  0  0  0  0  0  0  0  0
   38.4540   23.6570   41.1290 C   0  0  1  0  0  0  0  0  0  0  0  0
   36.4430   24.1450   41.9680 H   0  0  0  0  0  0  0  0  0  0  0  0
   39.3990   24.8810   42.7920 H   0  0  0  0  0  0  0  0  0  0  0  0
   38.4140   23.4370   43.3980 H   0  0  0  0  0  0  0  0  0  0  0  0
   39.1780   24.1030   40.4320 H   0  0  0  0  0  0  0  0  0  0  0  0
   38.0750   22.3280   41.0430 O   0  0  0  0  0  0  0  0  0  0  0  0
   37.1280   22.2590   40.7580 H   0  0  0  0  0  0  0  0  0  0  0  0
  1  4  1  6  0  0  0
  1 25  1  0  0  0  0
  1  3  1  0  0  0  0
  2  1  1  0  0  0  0
  2  6  1  0  0  0  0
  2  3  1  0  0  0  0
  3  7  1  1  0  0  0
  5  2  1  0  0  0  0
  8  3  1  0  0  0  0
  8 17  1  0  0  0  0
  9  8  2  0  0  0  0
 10  9  1  0  0  0  0
 10 11  2  0  0  0  0
 11 16  1  0  0  0  0
 12 11  1  0  0  0  0
 12 13  2  0  0  0  0
 13 14  1  0  0  0  0
 14 15  2  0  0  0  0
 14 21  1  0  0  0  0
 15 22  1  0  0  0  0
 16 17  2  0  0  0  0
 16 15  1  0  0  0  0
 17 23  1  0  0  0  0
 18  9  1  0  0  0  0
 19 10  1  0  0  0  0
 20 13  1  0  0  0  0
 24 25  2  0  0  0  0
 24 29  1  0  0  0  0
 25 26  1  0  0  0  0
 26 31  1  0  0  0  0
 26 27  2  0  0  0  0
 28 27  1  0  0  0  0
 28 32  1  0  0  0  0
 29 28  2  0  0  0  0
 30 24  1  0  0  0  0
 32 35  1  1  0  0  0
 32 33  1  0  0  0  0
 33 36  1  0  0  0  0
 33 37  1  0  0  0  0
 34 38  1  6  0  0  0
 34 32  1  0  0  0  0
 34 33  1  0  0  0  0
 39 34  1  0  0  0  0
 40 39  1  0  0  0  0
M  END
>  <minimizedAffinity>
-5.75213718

$$$$

 OpenBabel03252503253D

 40 44  0  0  1  0  0  0  0  0999 V2000
   36.3700   27.9440   41.2410 C   0  0  1  0  0  0  0  0  0  0  0  0
   36.2540   29.3710   40.9850 C   0  0  0  0  0  0  0  0  0  0  0  0
   36.6400   28.4970   39.8500 C   0  0  2  0  0  0  0  0  0  0  0  0
   35.4650   27.3200   41.3580 H   0  0  0  0  0  0  0  0  0  0  0  0
   35.2940   29.8290   41.1560 H   0  0  0  0  0  0  0  0  0  0  0  0
   37.0890   29.9950   41.4400 H   0  0  0  0  0  0  0  0  0  0  0  0
   37.6830   28.3560   39.5370 H   0  0  0  0  0  0  0  0  0  0  0  0
   35.5830   28.1710   38.8570 C   0  0  0  0  0  0  0  0  0  0  0  0
   34.5340   29.0050   38.5270 C   0  0  0  0  0  0  0  0  0  0  0  0
   33.5830   28.6220   37.5980 C   0  0  0  0  0  0  0  0  0  0  0  0
   33.6660   27.4020   36.9860 C   0  0  0  0  0  0  0  0  0  0  0  0
   32.7460   27.0020   36.0720 N   0  0  0  0  0  0  0  0  0  0  0  0
   32.8480   25.7810   35.4760 C   0  0  0  0  0  0  0  0  0  0  0  0
   33.8830   24.8620   35.7510 C   0  0  0  0  0  0  0  0  0  0  0  0
   34.8220   25.2610   36.6780 C   0  0  0  0  0  0  0  0  0  0  0  0
   34.7030   26.5190   37.2810 C   0  0  0  0  0  0  0  0  0  0  0  0
   35.6320   26.9360   38.2120 C   0  0  0  0  0  0  0  0  0  0  0  0
   34.4970   29.9700   39.0330 H   0  0  0  0  0  0  0  0  0  0  0  0
   32.7700   29.3000   37.3600 H   0  0  0  0  0  0  0  0  0  0  0  0
   32.0910   25.5000   34.7520 H   0  0  0  0  0  0  0  0  0  0  0  0
   33.8900   23.9120   35.2340 H   0  0  0  0  0  0  0  0  0  0  0  0
   35.6350   24.5920   36.9220 H   0  0  0  0  0  0  0  0  0  0  0  0
   36.4010   26.1970   38.3920 H   0  0  0  0  0  0  0  0  0  0  0  0
   38.4330   28.3090   42.6460 C   0  0  0  0  0  0  0  0  0  0  0  0
   37.5470   27.4050   41.9920 C   0  0  0  0  0  0  0  0  0  0  0  0
   37.8210   26.0620   42.0650 C   0  0  0  0  0  0  0  0  0  0  0  0
   38.9270   25.6760   42.7590 N   0  0  0  0  0  0  0  0  0  0  0  0
   39.7630   26.5510   43.3780 C   0  0  0  0  0  0  0  0  0  0  0  0
   39.5100   27.8670   43.3180 N   0  0  0  0  0  0  0  0  0  0  0  0
   38.2250   29.3760   42.5950 H   0  0  0  0  0  0  0  0  0  0  0  0
   37.1830   25.3540   41.5890 H   0  0  0  0  0  0  0  0  0  0  0  0
   40.9390   26.0060   44.1060 C   0  0  2  0  0  0  0  0  0  0  0  0
   42.1390   26.8020   44.3100 C   0  0  0  0  0  0  0  0  0  0  0  0
   42.1830   25.7870   43.1910 C   0  0  1  0  0  0  0  0  0  0  0  0
   40.7370   25.1030   44.7500 H   0  0  0  0  0  0  0  0  0  0  0  0
   42.0660   27.8820   44.0590 H   0  0  0  0  0  0  0  0  0  0  0  0
   42.7100   26.6180   45.2470 H   0  0  0  0  0  0  0  0  0  0  0  0
   42.1510   26.2340   42.1880 H   0  0  0  0  0  0  0  0  0  0  0  0
   42.9840   24.6950   43.4830 O   0  0  0  0  0  0  0  0  0  0  0  0
   42.4250   23.8970   43.6600 H   0  0  0  0  0  0  0  0  0  0  0  0
  1  4  1  1  0  0  0
  1 25  1  0  0  0  0
  2  5  1  0  0  0  0
  2  1  1  0  0  0  0
  2  6  1  0  0  0  0
  3  7  1  6  0  0  0
  3  2  1  0  0  0  0
  3  1  1  0  0  0  0
  8  3  1  0  0  0  0
  9  8  1  0  0  0  0
  9 18  1  0  0  0  0
 10  9  2  0  0  0  0
 11 16  1  0  0  0  0
 11 10  1  0  0  0  0
 12 11  2  0  0  0  0
 13 14  2  0  0  0  0
 13 12  1  0  0  0  0
 14 15  1  0  0  0  0
 15 22  1  0  0  0  0
 15 16  2  0  0  0  0
 16 17  1  0  0  0  0
 17 23  1  0  0  0  0
 17  8  2  0  0  0  0
 19 10  1  0  0  0  0
 20 13  1  0  0  0  0
 21 14  1  0  0  0  0
 24 29  1  0  0  0  0
 25 26  1  0  0  0  0
 25 24  2  0  0  0  0
 26 27  2  0  0  0  0
 27 28  1  0  0  0  0
 28 32  1  0  0  0  0
 29 28  2  0  0  0  0
 30 24  1  0  0  0  0
 31 26  1  0  0  0  0
 32 33  1  0  0  0  0
 32 35  1  1  0  0  0
 33 37  1  0  0  0  0
 34 38  1  6  0  0  0
 34 39  1  0  0  0  0
 34 32  1  0  0  0  0
 34 33  1  0  0  0  0
 36 33  1  0  0  0  0
 39 40  1  0  0  0  0
M  END
>  <minimizedAffinity>
-5.60705519

$$$$

 OpenBabel03252503253D

 40 44  0  0  1  0  0  0  0  0999 V2000
   37.0700   28.9430   41.5230 C   0  0  1  0  0  0  0  0  0  0  0  0
   37.7860   29.2460   42.7520 C   0  0  0  0  0  0  0  0  0  0  0  0
   38.4560   29.5670   41.4680 C   0  0  2  0  0  0  0  0  0  0  0  0
   36.2280   29.5800   41.1930 H   0  0  0  0  0  0  0  0  0  0  0  0
   37.3250   29.9390   43.4360 H   0  0  0  0  0  0  0  0  0  0  0  0
   38.1750   28.3290   43.3010 H   0  0  0  0  0  0  0  0  0  0  0  0
   39.1980   28.9040   41.0020 H   0  0  0  0  0  0  0  0  0  0  0  0
   38.4580   30.9920   41.0430 C   0  0  0  0  0  0  0  0  0  0  0  0
   37.3440   31.6830   40.6110 C   0  0  0  0  0  0  0  0  0  0  0  0
   37.4320   33.0080   40.2230 C   0  0  0  0  0  0  0  0  0  0  0  0
   38.6330   33.6610   40.2610 C   0  0  0  0  0  0  0  0  0  0  0  0
   38.7460   34.9600   39.8840 N   0  0  0  0  0  0  0  0  0  0  0  0
   39.9540   35.5900   39.9290 C   0  0  0  0  0  0  0  0  0  0  0  0
   41.1460   34.9660   40.3550 C   0  0  0  0  0  0  0  0  0  0  0  0
   41.0380   33.6460   40.7390 C   0  0  0  0  0  0  0  0  0  0  0  0
   39.7910   33.0140   40.6880 C   0  0  0  0  0  0  0  0  0  0  0  0
   39.6630   31.6930   41.0670 C   0  0  0  0  0  0  0  0  0  0  0  0
   36.4030   31.1320   40.5930 H   0  0  0  0  0  0  0  0  0  0  0  0
   36.5390   33.5230   39.8880 H   0  0  0  0  0  0  0  0  0  0  0  0
   40.0000   36.6280   39.6190 H   0  0  0  0  0  0  0  0  0  0  0  0
   42.0630   35.5390   40.3590 H   0  0  0  0  0  0  0  0  0  0  0  0
   41.9240   33.1250   41.0740 H   0  0  0  0  0  0  0  0  0  0  0  0
   40.6030   31.2580   41.3800 H   0  0  0  0  0  0  0  0  0  0  0  0
   37.3640   26.4670   41.9020 C   0  0  0  0  0  0  0  0  0  0  0  0
   36.9480   27.5280   41.0480 C   0  0  0  0  0  0  0  0  0  0  0  0
   36.4630   27.2080   39.8040 C   0  0  0  0  0  0  0  0  0  0  0  0
   36.4090   25.8910   39.4630 N   0  0  0  0  0  0  0  0  0  0  0  0
   36.8100   24.8900   40.2890 C   0  0  0  0  0  0  0  0  0  0  0  0
   37.2860   25.1830   41.5090 N   0  0  0  0  0  0  0  0  0  0  0  0
   37.7500   26.7090   42.8900 H   0  0  0  0  0  0  0  0  0  0  0  0
   36.1420   27.9740   39.1360 H   0  0  0  0  0  0  0  0  0  0  0  0
   36.7020   23.4890   39.8010 C   0  0  2  0  0  0  0  0  0  0  0  0
   37.6320   22.4610   40.2390 C   0  0  0  0  0  0  0  0  0  0  0  0
   37.8850   23.0650   38.8770 C   0  0  1  0  0  0  0  0  0  0  0  0
   35.7070   23.2050   39.3530 H   0  0  0  0  0  0  0  0  0  0  0  0
   38.3030   22.7270   41.0840 H   0  0  0  0  0  0  0  0  0  0  0  0
   37.2330   21.4250   40.3200 H   0  0  0  0  0  0  0  0  0  0  0  0
   38.7580   23.7320   38.8460 H   0  0  0  0  0  0  0  0  0  0  0  0
   37.5830   22.2020   37.8380 O   0  0  0  0  0  0  0  0  0  0  0  0
   36.7530   22.4910   37.3810 H   0  0  0  0  0  0  0  0  0  0  0  0
  1  4  1  6  0  0  0
  1  2  1  0  0  0  0
  2  6  1  0  0  0  0
  2  5  1  0  0  0  0
  3  7  1  6  0  0  0
  3  1  1  0  0  0  0
  3  2  1  0  0  0  0
  8 17  1  0  0  0  0
  8  3  1  0  0  0  0
  9  8  2  0  0  0  0
 10 11  2  0  0  0  0
 10  9  1  0  0  0  0
 11 16  1  0  0  0  0
 12 13  2  0  0  0  0
 12 11  1  0  0  0  0
 13 14  1  0  0  0  0
 14 21  1  0  0  0  0
 14 15  2  0  0  0  0
 15 22  1  0  0  0  0
 16 15  1  0  0  0  0
 16 17  2  0  0  0  0
 17 23  1  0  0  0  0
 18  9  1  0  0  0  0
 19 10  1  0  0  0  0
 20 13  1  0  0  0  0
 24 30  1  0  0  0  0
 25  1  1  0  0  0  0
 25 24  2  0  0  0  0
 26 25  1  0  0  0  0
 27 26  2  0  0  0  0
 27 28  1  0  0  0  0
 28 29  2  0  0  0  0
 29 24  1  0  0  0  0
 31 26  1  0  0  0  0
 32 35  1  6  0  0  0
 32 33  1  0  0  0  0
 32 28  1  0  0  0  0
 33 37  1  0  0  0  0
 33 36  1  0  0  0  0
 34 38  1  6  0  0  0
 34 32  1  0  0  0  0
 34 33  1  0  0  0  0
 39 34  1  0  0  0  0
 40 39  1  0  0  0  0
M  END
>  <minimizedAffinity>
-5.59378862

$$$$
