
 OpenBabel03242522133D

 19 20  0  0  0  0  0  0  0  0999 V2000
   44.4900   35.6940   45.1050 C   0  0  0  0  0  0  0  0  0  0  0  0
   45.1190   35.5390   43.8590 C   0  0  0  0  0  0  0  0  0  0  0  0
   45.9630   34.4610   43.6890 C   0  0  0  0  0  0  0  0  0  0  0  0
   46.1290   33.6100   44.7580 N   0  0  0  0  0  0  0  0  0  0  0  0
   45.5080   33.7960   45.9290 C   0  0  0  0  0  0  0  0  0  0  0  0
   44.6900   34.8370   46.1020 N   0  0  0  0  0  0  0  0  0  0  0  0
   43.8200   36.5240   45.2840 H   0  0  0  0  0  0  0  0  0  0  0  0
   45.7570   33.0280   46.6550 H   0  0  0  0  0  0  0  0  0  0  0  0
   46.6660   34.2270   42.4060 C   0  0  0  0  0  0  0  0  0  0  0  0
   46.4520   33.1220   41.6310 C   0  0  0  0  0  0  0  0  0  0  0  0
   47.5790   33.3860   40.2050 S   0  0  0  0  0  0  0  0  0  0  0  0
   48.1640   35.0170   40.9490 C   0  0  0  0  0  0  0  0  0  0  0  0
   47.5460   35.0590   41.9160 N   0  0  0  0  0  0  0  0  0  0  0  0
   45.7600   32.3130   41.8610 H   0  0  0  0  0  0  0  0  0  0  0  0
   49.1370   35.9600   40.4300 O   0  0  0  0  0  0  0  0  0  0  0  0
   49.1170   36.1690   39.4530 H   0  0  0  0  0  0  0  0  0  0  0  0
   44.8290   36.5120   42.8780 N   0  0  0  0  0  0  0  0  0  0  0  0
   45.4830   36.8210   42.1230 H   0  0  0  0  0  0  0  0  0  0  0  0
   43.8990   36.9900   42.8670 H   0  0  0  0  0  0  0  0  0  0  0  0
  1  7  1  0  0  0  0
  1  6  1  0  0  0  0
  2  1  2  0  0  0  0
  3  2  1  0  0  0  0
  3  4  2  0  0  0  0
  4  5  1  0  0  0  0
  5  6  2  0  0  0  0
  5  8  1  0  0  0  0
  9  3  1  0  0  0  0
 10 14  1  0  0  0  0
 10  9  2  0  0  0  0
 11 12  1  0  0  0  0
 11 10  1  0  0  0  0
 12 13  2  0  0  0  0
 13  9  1  0  0  0  0
 15 12  1  0  0  0  0
 16 15  1  0  0  0  0
 17  2  1  0  0  0  0
 18 17  1  0  0  0  0
 19 17  1  0  0  0  0
M  END
>  <minimizedAffinity>
-4.69958639

>  <minimizedRMSD>
0.536701858

$$$$
