
 OpenBabel03252502133D

 30 32  0  0  0  0  0  0  0  0999 V2000
   36.6360   25.8970   40.2620 Cl  0  0  0  0  0  0  0  0  0  0  0  0
   37.1000   27.1870   41.3430 C   0  0  0  0  0  0  0  0  0  0  0  0
   37.5420   28.3830   40.8880 C   0  0  0  0  0  0  0  0  0  0  0  0
   37.8750   29.3090   41.8390 C   0  0  0  0  0  0  0  0  0  0  0  0
   37.7830   29.0890   43.1760 C   0  0  0  0  0  0  0  0  0  0  0  0
   37.3330   27.8700   43.6240 C   0  0  0  0  0  0  0  0  0  0  0  0
   36.9950   26.9280   42.6970 C   0  0  0  0  0  0  0  0  0  0  0  0
   38.0600   29.8580   43.8950 H   0  0  0  0  0  0  0  0  0  0  0  0
   37.2440   27.6490   44.6890 H   0  0  0  0  0  0  0  0  0  0  0  0
   36.6410   25.9710   43.0590 H   0  0  0  0  0  0  0  0  0  0  0  0
   38.8430   28.6060   37.3440 C   0  0  0  0  0  0  0  0  0  0  0  0
   38.7900   28.3910   38.7280 C   0  0  0  0  0  0  0  0  0  0  0  0
   37.6320   28.5960   39.4530 C   0  0  0  0  0  0  0  0  0  0  0  0
   36.5430   29.0200   38.7410 N   0  0  0  0  0  0  0  0  0  0  0  0
   36.6020   29.2240   37.4120 C   0  0  0  0  0  0  0  0  0  0  0  0
   37.7180   29.0260   36.7160 N   0  0  0  0  0  0  0  0  0  0  0  0
   39.7420   28.4470   36.7830 H   0  0  0  0  0  0  0  0  0  0  0  0
   39.6830   28.0580   39.2280 H   0  0  0  0  0  0  0  0  0  0  0  0
   35.6710   29.5580   36.9730 H   0  0  0  0  0  0  0  0  0  0  0  0
   38.3640   30.6340   41.3670 C   0  0  0  0  0  0  0  0  0  0  0  0
   39.7290   30.8780   41.4720 C   0  0  0  0  0  0  0  0  0  0  0  0
   40.0730   32.1170   41.0130 C   0  0  0  0  0  0  0  0  0  0  0  0
   39.2390   33.0640   40.4970 C   0  0  0  0  0  0  0  0  0  0  0  0
   37.8820   32.7310   40.4300 C   0  0  0  0  0  0  0  0  0  0  0  0
   37.5210   31.5160   40.8770 N   0  0  0  0  0  0  0  0  0  0  0  0
   40.4480   30.1700   41.8720 H   0  0  0  0  0  0  0  0  0  0  0  0
   41.1590   32.3800   41.0680 H   0  0  0  0  0  0  0  0  0  0  0  0
   39.5240   34.0310   40.1420 H   0  0  0  0  0  0  0  0  0  0  0  0
   36.8960   33.5540   39.9430 O   0  0  0  0  0  0  0  0  0  0  0  0
   37.0470   34.5560   40.0310 H   0  0  0  0  0  0  0  0  0  0  0  0
  1  2  1  0  0  0  0
  2  7  1  0  0  0  0
  3  2  2  0  0  0  0
  3  4  1  0  0  0  0
  4  5  2  0  0  0  0
  5  6  1  0  0  0  0
  5  8  1  0  0  0  0
  6  9  1  0  0  0  0
  7 10  1  0  0  0  0
  7  6  2  0  0  0  0
 11 12  1  0  0  0  0
 12 18  1  0  0  0  0
 12 13  2  0  0  0  0
 13  3  1  0  0  0  0
 14 13  1  0  0  0  0
 15 14  2  0  0  0  0
 16 11  2  0  0  0  0
 16 15  1  0  0  0  0
 17 11  1  0  0  0  0
 19 15  1  0  0  0  0
 20 21  1  0  0  0  0
 20  4  1  0  0  0  0
 21 26  1  0  0  0  0
 22 27  1  0  0  0  0
 22 21  2  0  0  0  0
 23 22  1  0  0  0  0
 24 23  2  0  0  0  0
 24 25  1  0  0  0  0
 25 20  2  0  0  0  0
 28 23  1  0  0  0  0
 29 30  1  0  0  0  0
 29 24  1  0  0  0  0
M  END
>  <minimizedAffinity>
-5.59955454

$$$$

 OpenBabel03252502133D

 30 32  0  0  0  0  0  0  0  0999 V2000
   37.4800   23.7670   41.1300 Cl  0  0  0  0  0  0  0  0  0  0  0  0
   36.8090   24.9190   40.0030 C   0  0  0  0  0  0  0  0  0  0  0  0
   37.0280   26.2500   40.1180 C   0  0  0  0  0  0  0  0  0  0  0  0
   36.4440   27.0460   39.1700 C   0  0  0  0  0  0  0  0  0  0  0  0
   35.6810   26.5740   38.1500 C   0  0  0  0  0  0  0  0  0  0  0  0
   35.4670   25.2210   38.0450 C   0  0  0  0  0  0  0  0  0  0  0  0
   36.0370   24.4040   38.9780 C   0  0  0  0  0  0  0  0  0  0  0  0
   35.2380   27.2480   37.4200 H   0  0  0  0  0  0  0  0  0  0  0  0
   34.8610   24.7980   37.2430 H   0  0  0  0  0  0  0  0  0  0  0  0
   35.8640   23.3390   38.8870 H   0  0  0  0  0  0  0  0  0  0  0  0
   38.1680   27.4410   43.5220 C   0  0  0  0  0  0  0  0  0  0  0  0
   37.3490   26.9770   42.4830 C   0  0  0  0  0  0  0  0  0  0  0  0
   37.8480   26.7320   41.2180 C   0  0  0  0  0  0  0  0  0  0  0  0
   39.1840   26.9680   41.0410 N   0  0  0  0  0  0  0  0  0  0  0  0
   39.9630   27.4140   42.0430 C   0  0  0  0  0  0  0  0  0  0  0  0
   39.4810   27.6490   43.2600 N   0  0  0  0  0  0  0  0  0  0  0  0
   37.7800   27.6310   44.5030 H   0  0  0  0  0  0  0  0  0  0  0  0
   36.3060   26.8120   42.6900 H   0  0  0  0  0  0  0  0  0  0  0  0
   40.9990   27.5590   41.7690 H   0  0  0  0  0  0  0  0  0  0  0  0
   36.6680   28.5140   39.2720 C   0  0  0  0  0  0  0  0  0  0  0  0
   37.5070   29.0930   38.3260 C   0  0  0  0  0  0  0  0  0  0  0  0
   37.6450   30.4390   38.5080 C   0  0  0  0  0  0  0  0  0  0  0  0
   37.0640   31.2040   39.4760 C   0  0  0  0  0  0  0  0  0  0  0  0
   36.2350   30.5360   40.3840 C   0  0  0  0  0  0  0  0  0  0  0  0
   36.0860   29.2100   40.2240 N   0  0  0  0  0  0  0  0  0  0  0  0
   38.0010   28.5460   37.5300 H   0  0  0  0  0  0  0  0  0  0  0  0
   38.3080   30.9710   37.7800 H   0  0  0  0  0  0  0  0  0  0  0  0
   37.1820   32.2570   39.6050 H   0  0  0  0  0  0  0  0  0  0  0  0
   35.5680   31.1360   41.4240 O   0  0  0  0  0  0  0  0  0  0  0  0
   35.9920   31.9700   41.8240 H   0  0  0  0  0  0  0  0  0  0  0  0
  2  3  1  0  0  0  0
  2  1  1  0  0  0  0
  3 13  1  0  0  0  0
  4 20  1  0  0  0  0
  4  3  2  0  0  0  0
  5  4  1  0  0  0  0
  6  5  2  0  0  0  0
  6  7  1  0  0  0  0
  7  2  2  0  0  0  0
  8  5  1  0  0  0  0
  9  6  1  0  0  0  0
 10  7  1  0  0  0  0
 11 17  1  0  0  0  0
 12 18  1  0  0  0  0
 12 11  2  0  0  0  0
 13 12  1  0  0  0  0
 14 13  2  0  0  0  0
 14 15  1  0  0  0  0
 15 16  2  0  0  0  0
 16 11  1  0  0  0  0
 19 15  1  0  0  0  0
 20 25  1  0  0  0  0
 21 22  1  0  0  0  0
 21 20  2  0  0  0  0
 22 23  2  0  0  0  0
 23 28  1  0  0  0  0
 23 24  1  0  0  0  0
 24 29  1  0  0  0  0
 25 24  2  0  0  0  0
 26 21  1  0  0  0  0
 27 22  1  0  0  0  0
 29 30  1  0  0  0  0
M  END
>  <minimizedAffinity>
-5.59306908

$$$$

 OpenBabel03252502133D

 30 32  0  0  0  0  0  0  0  0999 V2000
   36.0990   23.9680   38.2660 Cl  0  0  0  0  0  0  0  0  0  0  0  0
   36.5240   24.7860   39.7490 C   0  0  0  0  0  0  0  0  0  0  0  0
   36.8050   26.1100   39.7860 C   0  0  0  0  0  0  0  0  0  0  0  0
   37.1250   26.6280   41.0110 C   0  0  0  0  0  0  0  0  0  0  0  0
   37.1690   25.8980   42.1550 C   0  0  0  0  0  0  0  0  0  0  0  0
   36.8820   24.5550   42.1040 C   0  0  0  0  0  0  0  0  0  0  0  0
   36.5600   24.0110   40.8940 C   0  0  0  0  0  0  0  0  0  0  0  0
   37.4290   26.3570   43.1070 H   0  0  0  0  0  0  0  0  0  0  0  0
   36.9060   23.9300   42.9970 H   0  0  0  0  0  0  0  0  0  0  0  0
   36.3350   22.9530   40.8620 H   0  0  0  0  0  0  0  0  0  0  0  0
   37.7510   27.7730   36.5240 C   0  0  0  0  0  0  0  0  0  0  0  0
   37.8370   27.0330   37.7110 C   0  0  0  0  0  0  0  0  0  0  0  0
   36.7510   26.8710   38.5490 C   0  0  0  0  0  0  0  0  0  0  0  0
   35.5900   27.4770   38.1520 N   0  0  0  0  0  0  0  0  0  0  0  0
   35.5150   28.1870   37.0120 C   0  0  0  0  0  0  0  0  0  0  0  0
   36.5620   28.3400   36.2060 N   0  0  0  0  0  0  0  0  0  0  0  0
   38.5950   27.8980   35.8750 H   0  0  0  0  0  0  0  0  0  0  0  0
   38.7810   26.5820   37.9640 H   0  0  0  0  0  0  0  0  0  0  0  0
   34.5400   28.6120   36.8170 H   0  0  0  0  0  0  0  0  0  0  0  0
   37.4380   28.0820   41.0810 C   0  0  0  0  0  0  0  0  0  0  0  0
   38.7790   28.4440   41.0050 C   0  0  0  0  0  0  0  0  0  0  0  0
   38.9580   29.7950   41.0780 C   0  0  0  0  0  0  0  0  0  0  0  0
   37.9920   30.7480   41.2110 C   0  0  0  0  0  0  0  0  0  0  0  0
   36.6720   30.2920   41.2790 C   0  0  0  0  0  0  0  0  0  0  0  0
   36.4720   28.9640   41.2100 N   0  0  0  0  0  0  0  0  0  0  0  0
   39.5980   27.7400   40.8990 H   0  0  0  0  0  0  0  0  0  0  0  0
   40.0150   30.1570   41.0220 H   0  0  0  0  0  0  0  0  0  0  0  0
   38.1480   31.8030   41.2670 H   0  0  0  0  0  0  0  0  0  0  0  0
   35.5690   31.1000   41.4130 O   0  0  0  0  0  0  0  0  0  0  0  0
   35.7010   31.9830   41.9000 H   0  0  0  0  0  0  0  0  0  0  0  0
  1  2  1  0  0  0  0
  2  3  2  0  0  0  0
  2  7  1  0  0  0  0
  3  4  1  0  0  0  0
  4 20  1  0  0  0  0
  4  5  2  0  0  0  0
  5  8  1  0  0  0  0
  6  5  1  0  0  0  0
  6  9  1  0  0  0  0
  7  6  2  0  0  0  0
 10  7  1  0  0  0  0
 11 12  1  0  0  0  0
 12 18  1  0  0  0  0
 12 13  2  0  0  0  0
 13  3  1  0  0  0  0
 14 13  1  0  0  0  0
 15 14  2  0  0  0  0
 16 11  2  0  0  0  0
 16 15  1  0  0  0  0
 17 11  1  0  0  0  0
 19 15  1  0  0  0  0
 20 25  1  0  0  0  0
 21 22  1  0  0  0  0
 21 20  2  0  0  0  0
 22 23  2  0  0  0  0
 23 28  1  0  0  0  0
 23 24  1  0  0  0  0
 24 29  1  0  0  0  0
 25 24  2  0  0  0  0
 26 21  1  0  0  0  0
 27 22  1  0  0  0  0
 29 30  1  0  0  0  0
M  END
>  <minimizedAffinity>
-5.31928205

$$$$

 OpenBabel03252502133D

 30 32  0  0  0  0  0  0  0  0999 V2000
   41.2450   26.5140   43.6800 Cl  0  0  0  0  0  0  0  0  0  0  0  0
   41.1210   28.1290   43.0270 C   0  0  0  0  0  0  0  0  0  0  0  0
   40.0860   28.5090   42.2400 C   0  0  0  0  0  0  0  0  0  0  0  0
   40.1080   29.8020   41.7930 C   0  0  0  0  0  0  0  0  0  0  0  0
   41.0890   30.6920   42.0930 C   0  0  0  0  0  0  0  0  0  0  0  0
   42.1330   30.2930   42.8920 C   0  0  0  0  0  0  0  0  0  0  0  0
   42.1370   29.0080   43.3520 C   0  0  0  0  0  0  0  0  0  0  0  0
   41.0610   31.7110   41.7120 H   0  0  0  0  0  0  0  0  0  0  0  0
   42.9420   30.9730   43.1580 H   0  0  0  0  0  0  0  0  0  0  0  0
   42.9630   28.7020   43.9810 H   0  0  0  0  0  0  0  0  0  0  0  0
   36.9980   26.3370   42.4470 C   0  0  0  0  0  0  0  0  0  0  0  0
   37.9830   27.2780   42.7740 C   0  0  0  0  0  0  0  0  0  0  0  0
   39.0480   27.5400   41.9330 C   0  0  0  0  0  0  0  0  0  0  0  0
   39.0820   26.8270   40.7660 N   0  0  0  0  0  0  0  0  0  0  0  0
   38.1320   25.9240   40.4590 C   0  0  0  0  0  0  0  0  0  0  0  0
   37.1080   25.6740   41.2700 N   0  0  0  0  0  0  0  0  0  0  0  0
   36.1730   26.1340   43.1000 H   0  0  0  0  0  0  0  0  0  0  0  0
   37.8960   27.8050   43.7090 H   0  0  0  0  0  0  0  0  0  0  0  0
   38.2790   25.4310   39.5070 H   0  0  0  0  0  0  0  0  0  0  0  0
   38.9820   30.2480   40.9260 C   0  0  0  0  0  0  0  0  0  0  0  0
   39.2430   30.3720   39.5650 C   0  0  0  0  0  0  0  0  0  0  0  0
   38.1480   30.7850   38.8620 C   0  0  0  0  0  0  0  0  0  0  0  0
   36.9080   31.0640   39.3560 C   0  0  0  0  0  0  0  0  0  0  0  0
   36.7380   30.9110   40.7360 C   0  0  0  0  0  0  0  0  0  0  0  0
   37.8040   30.5060   41.4490 N   0  0  0  0  0  0  0  0  0  0  0  0
   40.2030   30.1670   39.1050 H   0  0  0  0  0  0  0  0  0  0  0  0
   38.2860   30.9060   37.7590 H   0  0  0  0  0  0  0  0  0  0  0  0
   36.0600   31.3870   38.7920 H   0  0  0  0  0  0  0  0  0  0  0  0
   35.5660   31.1450   41.4130 O   0  0  0  0  0  0  0  0  0  0  0  0
   34.9370   31.8410   41.0180 H   0  0  0  0  0  0  0  0  0  0  0  0
  2  7  1  0  0  0  0
  2  1  1  0  0  0  0
  3  2  2  0  0  0  0
  4  5  2  0  0  0  0
  4  3  1  0  0  0  0
  5  6  1  0  0  0  0
  6  9  1  0  0  0  0
  6  7  2  0  0  0  0
  7 10  1  0  0  0  0
  8  5  1  0  0  0  0
 11 12  1  0  0  0  0
 11 17  1  0  0  0  0
 12 18  1  0  0  0  0
 13  3  1  0  0  0  0
 13 12  2  0  0  0  0
 14 13  1  0  0  0  0
 15 14  2  0  0  0  0
 15 16  1  0  0  0  0
 16 11  2  0  0  0  0
 19 15  1  0  0  0  0
 20 25  1  0  0  0  0
 20  4  1  0  0  0  0
 21 20  2  0  0  0  0
 22 23  2  0  0  0  0
 22 21  1  0  0  0  0
 23 24  1  0  0  0  0
 24 29  1  0  0  0  0
 24 25  2  0  0  0  0
 26 21  1  0  0  0  0
 27 22  1  0  0  0  0
 28 23  1  0  0  0  0
 30 29  1  0  0  0  0
M  END
>  <minimizedAffinity>
-5.30359888

$$$$

 OpenBabel03252502133D

 30 32  0  0  0  0  0  0  0  0999 V2000
   36.9510   30.3740   36.5440 Cl  0  0  0  0  0  0  0  0  0  0  0  0
   37.2880   30.8640   38.1860 C   0  0  0  0  0  0  0  0  0  0  0  0
   37.4960   29.9640   39.1770 C   0  0  0  0  0  0  0  0  0  0  0  0
   37.7490   30.4780   40.4190 C   0  0  0  0  0  0  0  0  0  0  0  0
   37.8010   31.8070   40.6940 C   0  0  0  0  0  0  0  0  0  0  0  0
   37.5870   32.7090   39.6800 C   0  0  0  0  0  0  0  0  0  0  0  0
   37.3310   32.2240   38.4300 C   0  0  0  0  0  0  0  0  0  0  0  0
   38.0060   32.1670   41.7010 H   0  0  0  0  0  0  0  0  0  0  0  0
   37.6180   33.7850   39.8550 H   0  0  0  0  0  0  0  0  0  0  0  0
   37.1650   32.9420   37.6360 H   0  0  0  0  0  0  0  0  0  0  0  0
   36.2430   26.4470   38.5770 C   0  0  0  0  0  0  0  0  0  0  0  0
   36.2660   27.8130   38.8890 C   0  0  0  0  0  0  0  0  0  0  0  0
   37.4370   28.5470   38.8590 C   0  0  0  0  0  0  0  0  0  0  0  0
   38.5680   27.8630   38.5060 N   0  0  0  0  0  0  0  0  0  0  0  0
   38.5380   26.5510   38.2080 C   0  0  0  0  0  0  0  0  0  0  0  0
   37.4100   25.8460   38.2370 N   0  0  0  0  0  0  0  0  0  0  0  0
   35.3350   25.8780   38.6010 H   0  0  0  0  0  0  0  0  0  0  0  0
   35.3400   28.2910   39.1590 H   0  0  0  0  0  0  0  0  0  0  0  0
   39.5000   26.1330   37.9460 H   0  0  0  0  0  0  0  0  0  0  0  0
   37.9830   29.5120   41.5280 C   0  0  0  0  0  0  0  0  0  0  0  0
   39.3050   29.2600   41.8790 C   0  0  0  0  0  0  0  0  0  0  0  0
   39.4090   28.3630   42.9030 C   0  0  0  0  0  0  0  0  0  0  0  0
   38.3900   27.7410   43.5600 C   0  0  0  0  0  0  0  0  0  0  0  0
   37.0930   28.0560   43.1400 C   0  0  0  0  0  0  0  0  0  0  0  0
   36.9670   28.9360   42.1320 N   0  0  0  0  0  0  0  0  0  0  0  0
   40.1640   29.7190   41.3990 H   0  0  0  0  0  0  0  0  0  0  0  0
   40.4470   28.1130   43.2370 H   0  0  0  0  0  0  0  0  0  0  0  0
   38.4870   27.0400   44.3600 H   0  0  0  0  0  0  0  0  0  0  0  0
   35.9440   27.5310   43.6800 O   0  0  0  0  0  0  0  0  0  0  0  0
   36.0080   26.5980   44.0800 H   0  0  0  0  0  0  0  0  0  0  0  0
  1  2  1  0  0  0  0
  2  7  2  0  0  0  0
  2  3  1  0  0  0  0
  3  4  2  0  0  0  0
  4  5  1  0  0  0  0
  4 20  1  0  0  0  0
  5  8  1  0  0  0  0
  6  9  1  0  0  0  0
  6  5  2  0  0  0  0
  7  6  1  0  0  0  0
 10  7  1  0  0  0  0
 11 17  1  0  0  0  0
 11 12  1  0  0  0  0
 12 18  1  0  0  0  0
 13 12  2  0  0  0  0
 13  3  1  0  0  0  0
 14 13  1  0  0  0  0
 15 16  1  0  0  0  0
 15 14  2  0  0  0  0
 16 11  2  0  0  0  0
 19 15  1  0  0  0  0
 20 21  2  0  0  0  0
 20 25  1  0  0  0  0
 21 22  1  0  0  0  0
 22 27  1  0  0  0  0
 22 23  2  0  0  0  0
 23 28  1  0  0  0  0
 24 23  1  0  0  0  0
 24 29  1  0  0  0  0
 25 24  2  0  0  0  0
 26 21  1  0  0  0  0
 29 30  1  0  0  0  0
M  END
>  <minimizedAffinity>
-5.23033905

$$$$

 OpenBabel03252502133D

 30 32  0  0  0  0  0  0  0  0999 V2000
   38.7800   29.3470   42.9840 Cl  0  0  0  0  0  0  0  0  0  0  0  0
   37.9490   28.3010   41.8590 C   0  0  0  0  0  0  0  0  0  0  0  0
   37.5490   28.7290   40.6390 C   0  0  0  0  0  0  0  0  0  0  0  0
   36.9080   27.8110   39.8530 C   0  0  0  0  0  0  0  0  0  0  0  0
   36.6630   26.5290   40.2310 C   0  0  0  0  0  0  0  0  0  0  0  0
   37.0740   26.1080   41.4730 C   0  0  0  0  0  0  0  0  0  0  0  0
   37.7160   27.0030   42.2770 C   0  0  0  0  0  0  0  0  0  0  0  0
   36.1480   25.8360   39.5690 H   0  0  0  0  0  0  0  0  0  0  0  0
   36.8990   25.0880   41.8170 H   0  0  0  0  0  0  0  0  0  0  0  0
   38.0370   26.6620   43.2540 H   0  0  0  0  0  0  0  0  0  0  0  0
   37.2600   32.4690   40.1560 C   0  0  0  0  0  0  0  0  0  0  0  0
   36.9670   31.1530   40.5390 C   0  0  0  0  0  0  0  0  0  0  0  0
   37.8220   30.1050   40.2560 C   0  0  0  0  0  0  0  0  0  0  0  0
   38.9690   30.4280   39.5830 N   0  0  0  0  0  0  0  0  0  0  0  0
   39.2430   31.6940   39.2190 C   0  0  0  0  0  0  0  0  0  0  0  0
   38.4180   32.7020   39.4920 N   0  0  0  0  0  0  0  0  0  0  0  0
   36.5960   33.2810   40.3750 H   0  0  0  0  0  0  0  0  0  0  0  0
   36.0470   30.9670   41.0660 H   0  0  0  0  0  0  0  0  0  0  0  0
   40.1810   31.8110   38.6930 H   0  0  0  0  0  0  0  0  0  0  0  0
   36.4570   28.2550   38.5050 C   0  0  0  0  0  0  0  0  0  0  0  0
   35.1570   28.7390   38.4010 C   0  0  0  0  0  0  0  0  0  0  0  0
   34.8450   29.1190   37.1280 C   0  0  0  0  0  0  0  0  0  0  0  0
   35.6520   29.0640   36.0300 C   0  0  0  0  0  0  0  0  0  0  0  0
   36.9430   28.5640   36.2300 C   0  0  0  0  0  0  0  0  0  0  0  0
   37.2720   28.1830   37.4760 N   0  0  0  0  0  0  0  0  0  0  0  0
   34.4630   28.8110   39.2310 H   0  0  0  0  0  0  0  0  0  0  0  0
   33.8120   29.5190   36.9710 H   0  0  0  0  0  0  0  0  0  0  0  0
   35.3920   29.3650   35.0390 H   0  0  0  0  0  0  0  0  0  0  0  0
   37.8940   28.4330   35.2470 O   0  0  0  0  0  0  0  0  0  0  0  0
   37.5580   28.2780   34.2990 H   0  0  0  0  0  0  0  0  0  0  0  0
  2  7  1  0  0  0  0
  2  1  1  0  0  0  0
  3  2  2  0  0  0  0
  4  5  2  0  0  0  0
  4  3  1  0  0  0  0
  5  6  1  0  0  0  0
  6  9  1  0  0  0  0
  6  7  2  0  0  0  0
  7 10  1  0  0  0  0
  8  5  1  0  0  0  0
 11 17  1  0  0  0  0
 11 12  1  0  0  0  0
 12 18  1  0  0  0  0
 13 12  2  0  0  0  0
 13  3  1  0  0  0  0
 14 13  1  0  0  0  0
 15 16  1  0  0  0  0
 15 14  2  0  0  0  0
 16 11  2  0  0  0  0
 19 15  1  0  0  0  0
 20  4  1  0  0  0  0
 21 20  1  0  0  0  0
 21 26  1  0  0  0  0
 22 21  2  0  0  0  0
 23 24  2  0  0  0  0
 23 22  1  0  0  0  0
 24 25  1  0  0  0  0
 25 20  2  0  0  0  0
 27 22  1  0  0  0  0
 28 23  1  0  0  0  0
 29 24  1  0  0  0  0
 30 29  1  0  0  0  0
M  END
>  <minimizedAffinity>
-5.21916389

$$$$

 OpenBabel03252502133D

 30 32  0  0  0  0  0  0  0  0999 V2000
   36.9870   25.8070   42.4820 Cl  0  0  0  0  0  0  0  0  0  0  0  0
   38.3330   26.9170   42.5450 C   0  0  0  0  0  0  0  0  0  0  0  0
   38.3890   28.0270   41.7720 C   0  0  0  0  0  0  0  0  0  0  0  0
   39.4990   28.8120   41.9170 C   0  0  0  0  0  0  0  0  0  0  0  0
   40.5150   28.5380   42.7760 C   0  0  0  0  0  0  0  0  0  0  0  0
   40.4460   27.4080   43.5550 C   0  0  0  0  0  0  0  0  0  0  0  0
   39.3500   26.6060   43.4300 C   0  0  0  0  0  0  0  0  0  0  0  0
   41.3790   29.1960   42.8550 H   0  0  0  0  0  0  0  0  0  0  0  0
   41.2390   27.1490   44.2570 H   0  0  0  0  0  0  0  0  0  0  0  0
   39.3030   25.7180   44.0480 H   0  0  0  0  0  0  0  0  0  0  0  0
   36.1570   28.0830   38.7200 C   0  0  0  0  0  0  0  0  0  0  0  0
   37.2320   27.8010   39.5730 C   0  0  0  0  0  0  0  0  0  0  0  0
   37.2900   28.3000   40.8610 C   0  0  0  0  0  0  0  0  0  0  0  0
   36.2380   29.0830   41.2500 N   0  0  0  0  0  0  0  0  0  0  0  0
   35.2090   29.3500   40.4240 C   0  0  0  0  0  0  0  0  0  0  0  0
   35.1560   28.8680   39.1860 N   0  0  0  0  0  0  0  0  0  0  0  0
   36.1130   27.6960   37.7210 H   0  0  0  0  0  0  0  0  0  0  0  0
   38.0270   27.1770   39.2040 H   0  0  0  0  0  0  0  0  0  0  0  0
   34.4450   29.9810   40.8570 H   0  0  0  0  0  0  0  0  0  0  0  0
   39.5870   30.0400   41.0790 C   0  0  0  0  0  0  0  0  0  0  0  0
   40.1510   29.9030   39.8150 C   0  0  0  0  0  0  0  0  0  0  0  0
   40.1830   31.0840   39.1300 C   0  0  0  0  0  0  0  0  0  0  0  0
   39.7360   32.2980   39.5590 C   0  0  0  0  0  0  0  0  0  0  0  0
   39.1830   32.3400   40.8440 C   0  0  0  0  0  0  0  0  0  0  0  0
   39.1420   31.1890   41.5370 N   0  0  0  0  0  0  0  0  0  0  0  0
   40.5260   28.9690   39.4100 H   0  0  0  0  0  0  0  0  0  0  0  0
   40.6260   31.0470   38.1030 H   0  0  0  0  0  0  0  0  0  0  0  0
   39.7690   33.2140   39.0110 H   0  0  0  0  0  0  0  0  0  0  0  0
   38.6830   33.4690   41.4450 O   0  0  0  0  0  0  0  0  0  0  0  0
   39.0910   34.3590   41.1680 H   0  0  0  0  0  0  0  0  0  0  0  0
  1  2  1  0  0  0  0
  2  7  1  0  0  0  0
  3  4  1  0  0  0  0
  3  2  2  0  0  0  0
  4  5  2  0  0  0  0
  5  8  1  0  0  0  0
  5  6  1  0  0  0  0
  6  9  1  0  0  0  0
  7  6  2  0  0  0  0
  7 10  1  0  0  0  0
 11 16  2  0  0  0  0
 11 12  1  0  0  0  0
 12 13  2  0  0  0  0
 13 14  1  0  0  0  0
 13  3  1  0  0  0  0
 15 19  1  0  0  0  0
 15 14  2  0  0  0  0
 16 15  1  0  0  0  0
 17 11  1  0  0  0  0
 18 12  1  0  0  0  0
 20 25  1  0  0  0  0
 20  4  1  0  0  0  0
 21 20  2  0  0  0  0
 22 23  2  0  0  0  0
 22 21  1  0  0  0  0
 23 24  1  0  0  0  0
 24 29  1  0  0  0  0
 24 25  2  0  0  0  0
 26 21  1  0  0  0  0
 27 22  1  0  0  0  0
 28 23  1  0  0  0  0
 30 29  1  0  0  0  0
M  END
>  <minimizedAffinity>
-5.17846727

$$$$

 OpenBabel03252502133D

 30 32  0  0  0  0  0  0  0  0999 V2000
   40.1810   30.1080   42.6430 Cl  0  0  0  0  0  0  0  0  0  0  0  0
   38.7570   29.1100   42.4830 C   0  0  0  0  0  0  0  0  0  0  0  0
   37.9440   29.1850   41.4030 C   0  0  0  0  0  0  0  0  0  0  0  0
   36.8600   28.3490   41.4010 C   0  0  0  0  0  0  0  0  0  0  0  0
   36.5740   27.4760   42.4000 C   0  0  0  0  0  0  0  0  0  0  0  0
   37.4080   27.4110   43.4910 C   0  0  0  0  0  0  0  0  0  0  0  0
   38.4960   28.2340   43.5200 C   0  0  0  0  0  0  0  0  0  0  0  0
   35.6990   26.8310   42.3520 H   0  0  0  0  0  0  0  0  0  0  0  0
   37.2170   26.7250   44.3170 H   0  0  0  0  0  0  0  0  0  0  0  0
   39.1480   28.1760   44.3820 H   0  0  0  0  0  0  0  0  0  0  0  0
   39.3450   30.7290   38.2480 C   0  0  0  0  0  0  0  0  0  0  0  0
   39.0490   29.7970   39.2520 C   0  0  0  0  0  0  0  0  0  0  0  0
   38.2700   30.1270   40.3450 C   0  0  0  0  0  0  0  0  0  0  0  0
   37.8070   31.4130   40.3880 N   0  0  0  0  0  0  0  0  0  0  0  0
   38.0950   32.3030   39.4200 C   0  0  0  0  0  0  0  0  0  0  0  0
   38.8450   31.9830   38.3690 N   0  0  0  0  0  0  0  0  0  0  0  0
   39.9500   30.4730   37.4010 H   0  0  0  0  0  0  0  0  0  0  0  0
   39.4460   28.8010   39.1570 H   0  0  0  0  0  0  0  0  0  0  0  0
   37.6670   33.2830   39.5760 H   0  0  0  0  0  0  0  0  0  0  0  0
   35.9490   28.4090   40.2250 C   0  0  0  0  0  0  0  0  0  0  0  0
   34.8720   29.2860   40.3040 C   0  0  0  0  0  0  0  0  0  0  0  0
   34.1000   29.2650   39.1780 C   0  0  0  0  0  0  0  0  0  0  0  0
   34.2920   28.5060   38.0620 C   0  0  0  0  0  0  0  0  0  0  0  0
   35.4020   27.6540   38.0710 C   0  0  0  0  0  0  0  0  0  0  0  0
   36.1750   27.6580   39.1700 N   0  0  0  0  0  0  0  0  0  0  0  0
   34.6590   29.9190   41.1600 H   0  0  0  0  0  0  0  0  0  0  0  0
   33.2140   29.9480   39.1740 H   0  0  0  0  0  0  0  0  0  0  0  0
   33.6790   28.5010   37.1880 H   0  0  0  0  0  0  0  0  0  0  0  0
   35.7550   26.8160   37.0410 O   0  0  0  0  0  0  0  0  0  0  0  0
   35.0030   26.4710   36.4500 H   0  0  0  0  0  0  0  0  0  0  0  0
  2  1  1  0  0  0  0
  2  7  1  0  0  0  0
  3  2  2  0  0  0  0
  4  3  1  0  0  0  0
  4  5  2  0  0  0  0
  5  6  1  0  0  0  0
  6  7  2  0  0  0  0
  6  9  1  0  0  0  0
  7 10  1  0  0  0  0
  8  5  1  0  0  0  0
 11 16  2  0  0  0  0
 11 12  1  0  0  0  0
 12 13  2  0  0  0  0
 13 14  1  0  0  0  0
 13  3  1  0  0  0  0
 15 19  1  0  0  0  0
 15 14  2  0  0  0  0
 16 15  1  0  0  0  0
 17 11  1  0  0  0  0
 18 12  1  0  0  0  0
 20 21  1  0  0  0  0
 20  4  1  0  0  0  0
 21 26  1  0  0  0  0
 22 21  2  0  0  0  0
 23 24  2  0  0  0  0
 23 22  1  0  0  0  0
 24 25  1  0  0  0  0
 25 20  2  0  0  0  0
 27 22  1  0  0  0  0
 28 23  1  0  0  0  0
 29 24  1  0  0  0  0
 30 29  1  0  0  0  0
M  END
>  <minimizedAffinity>
-5.12723637

$$$$

 OpenBabel03252502133D

 30 32  0  0  0  0  0  0  0  0999 V2000
   35.2280   25.7400   36.9620 Cl  0  0  0  0  0  0  0  0  0  0  0  0
   35.8520   25.3110   38.5350 C   0  0  0  0  0  0  0  0  0  0  0  0
   36.5520   26.1870   39.2950 C   0  0  0  0  0  0  0  0  0  0  0  0
   36.9860   25.7260   40.5080 C   0  0  0  0  0  0  0  0  0  0  0  0
   36.7530   24.4700   40.9690 C   0  0  0  0  0  0  0  0  0  0  0  0
   36.0420   23.5910   40.1880 C   0  0  0  0  0  0  0  0  0  0  0  0
   35.5970   24.0240   38.9730 C   0  0  0  0  0  0  0  0  0  0  0  0
   37.1210   24.1500   41.9420 H   0  0  0  0  0  0  0  0  0  0  0  0
   35.8320   22.5730   40.5170 H   0  0  0  0  0  0  0  0  0  0  0  0
   35.0370   23.3260   38.3640 H   0  0  0  0  0  0  0  0  0  0  0  0
   36.1680   29.8550   38.4600 C   0  0  0  0  0  0  0  0  0  0  0  0
   35.9100   28.5750   38.9690 C   0  0  0  0  0  0  0  0  0  0  0  0
   36.7890   27.5260   38.7810 C   0  0  0  0  0  0  0  0  0  0  0  0
   37.9220   27.8100   38.0690 N   0  0  0  0  0  0  0  0  0  0  0  0
   38.1630   29.0420   37.5830 C   0  0  0  0  0  0  0  0  0  0  0  0
   37.3160   30.0510   37.7670 N   0  0  0  0  0  0  0  0  0  0  0  0
   35.4860   30.6690   38.6070 H   0  0  0  0  0  0  0  0  0  0  0  0
   34.9990   28.4190   39.5200 H   0  0  0  0  0  0  0  0  0  0  0  0
   39.0950   29.1300   37.0410 H   0  0  0  0  0  0  0  0  0  0  0  0
   37.7580   26.6680   41.3640 C   0  0  0  0  0  0  0  0  0  0  0  0
   39.1460   26.5810   41.3070 C   0  0  0  0  0  0  0  0  0  0  0  0
   39.7570   27.4860   42.1270 C   0  0  0  0  0  0  0  0  0  0  0  0
   39.1540   28.4010   42.9390 C   0  0  0  0  0  0  0  0  0  0  0  0
   37.7550   28.4160   42.9310 C   0  0  0  0  0  0  0  0  0  0  0  0
   37.1330   27.5330   42.1310 N   0  0  0  0  0  0  0  0  0  0  0  0
   39.6900   25.8790   40.6850 H   0  0  0  0  0  0  0  0  0  0  0  0
   40.8750   27.4720   42.1320 H   0  0  0  0  0  0  0  0  0  0  0  0
   39.6470   29.1030   43.5750 H   0  0  0  0  0  0  0  0  0  0  0  0
   36.9760   29.2640   43.6790 O   0  0  0  0  0  0  0  0  0  0  0  0
   37.3630   29.5860   44.5630 H   0  0  0  0  0  0  0  0  0  0  0  0
  1  2  1  0  0  0  0
  2  7  2  0  0  0  0
  2  3  1  0  0  0  0
  3  4  2  0  0  0  0
  4  5  1  0  0  0  0
  4 20  1  0  0  0  0
  5  8  1  0  0  0  0
  6  9  1  0  0  0  0
  6  5  2  0  0  0  0
  7  6  1  0  0  0  0
 10  7  1  0  0  0  0
 11 17  1  0  0  0  0
 11 12  1  0  0  0  0
 12 18  1  0  0  0  0
 13 12  2  0  0  0  0
 13  3  1  0  0  0  0
 14 13  1  0  0  0  0
 15 16  1  0  0  0  0
 15 14  2  0  0  0  0
 16 11  2  0  0  0  0
 19 15  1  0  0  0  0
 20 25  1  0  0  0  0
 21 20  2  0  0  0  0
 21 22  1  0  0  0  0
 22 27  1  0  0  0  0
 22 23  2  0  0  0  0
 23 28  1  0  0  0  0
 24 23  1  0  0  0  0
 24 29  1  0  0  0  0
 25 24  2  0  0  0  0
 26 21  1  0  0  0  0
 29 30  1  0  0  0  0
M  END
>  <minimizedAffinity>
-5.09775257

$$$$
