
 OpenBabel03252503263D

 14 14  0  0  0  0  0  0  0  0999 V2000
   38.4930   24.4530   42.2410 C   0  0  0  0  0  0  0  0  0  0  0  0
   37.5530   25.5190   42.2210 C   0  0  0  0  0  0  0  0  0  0  0  0
   37.8970   26.6690   42.9320 C   0  0  0  0  0  0  0  0  0  0  0  0
   39.0850   26.7010   43.5890 N   0  0  0  0  0  0  0  0  0  0  0  0
   39.9450   25.6610   43.5800 C   0  0  0  0  0  0  0  0  0  0  0  0
   39.6480   24.5460   42.9090 N   0  0  0  0  0  0  0  0  0  0  0  0
   36.6750   25.3180   41.6530 H   0  0  0  0  0  0  0  0  0  0  0  0
   40.8870   25.7080   44.1120 H   0  0  0  0  0  0  0  0  0  0  0  0
   36.9070   27.7470   42.8890 C   0  0  0  0  0  0  0  0  0  0  0  0
   35.8250   27.4100   43.6800 F   0  0  0  0  0  0  0  0  0  0  0  0
   36.4130   27.7800   41.5960 F   0  0  0  0  0  0  0  0  0  0  0  0
   37.3780   28.9540   43.3000 F   0  0  0  0  0  0  0  0  0  0  0  0
   38.2190   23.2700   41.5520 O   0  0  0  0  0  0  0  0  0  0  0  0
   37.2840   22.9510   41.3510 H   0  0  0  0  0  0  0  0  0  0  0  0
  1  6  1  0  0  0  0
  2  1  2  0  0  0  0
  2  3  1  0  0  0  0
  3  4  2  0  0  0  0
  5  4  1  0  0  0  0
  5  8  1  0  0  0  0
  6  5  2  0  0  0  0
  7  2  1  0  0  0  0
  9  3  1  0  0  0  0
  9 12  1  0  0  0  0
  9 10  1  0  0  0  0
 11  9  1  0  0  0  0
 13  1  1  0  0  0  0
 14 13  1  0  0  0  0
M  END
>  <minimizedAffinity>
-4.1055932

$$$$

 OpenBabel03252503263D

 14 14  0  0  0  0  0  0  0  0999 V2000
   36.7040   30.1430   41.4270 C   0  0  0  0  0  0  0  0  0  0  0  0
   36.4630   28.8290   41.9110 C   0  0  0  0  0  0  0  0  0  0  0  0
   37.5700   27.9840   42.0040 C   0  0  0  0  0  0  0  0  0  0  0  0
   38.7870   28.4570   41.6320 N   0  0  0  0  0  0  0  0  0  0  0  0
   38.9650   29.7150   41.1760 C   0  0  0  0  0  0  0  0  0  0  0  0
   37.9290   30.5500   41.0760 N   0  0  0  0  0  0  0  0  0  0  0  0
   35.4450   28.6310   42.1560 H   0  0  0  0  0  0  0  0  0  0  0  0
   39.9450   30.0720   40.8850 H   0  0  0  0  0  0  0  0  0  0  0  0
   37.2860   26.6380   42.5070 C   0  0  0  0  0  0  0  0  0  0  0  0
   36.2930   26.7050   43.4650 F   0  0  0  0  0  0  0  0  0  0  0  0
   38.4180   26.2240   43.1880 F   0  0  0  0  0  0  0  0  0  0  0  0
   36.8990   25.7550   41.5490 F   0  0  0  0  0  0  0  0  0  0  0  0
   35.6450   31.0460   41.3070 O   0  0  0  0  0  0  0  0  0  0  0  0
   34.6880   30.7600   41.1770 H   0  0  0  0  0  0  0  0  0  0  0  0
  1  2  1  0  0  0  0
  2  3  2  0  0  0  0
  2  7  1  0  0  0  0
  3  9  1  0  0  0  0
  4  3  1  0  0  0  0
  5  4  2  0  0  0  0
  6  5  1  0  0  0  0
  6  1  2  0  0  0  0
  8  5  1  0  0  0  0
  9 11  1  0  0  0  0
  9 10  1  0  0  0  0
 12  9  1  0  0  0  0
 13  1  1  0  0  0  0
 14 13  1  0  0  0  0
M  END
>  <minimizedAffinity>
-4.09070206

$$$$

 OpenBabel03252503263D

 14 14  0  0  0  0  0  0  0  0999 V2000
   37.2750   32.0650   40.5110 C   0  0  0  0  0  0  0  0  0  0  0  0
   36.3870   30.9550   40.5260 C   0  0  0  0  0  0  0  0  0  0  0  0
   36.8920   29.7570   41.0320 C   0  0  0  0  0  0  0  0  0  0  0  0
   38.1770   29.7220   41.4700 N   0  0  0  0  0  0  0  0  0  0  0  0
   38.9830   30.8050   41.4340 C   0  0  0  0  0  0  0  0  0  0  0  0
   38.5320   31.9660   40.9570 N   0  0  0  0  0  0  0  0  0  0  0  0
   35.4150   31.1660   40.1430 H   0  0  0  0  0  0  0  0  0  0  0  0
   40.0050   30.7540   41.7890 H   0  0  0  0  0  0  0  0  0  0  0  0
   35.9510   28.6350   41.0340 C   0  0  0  0  0  0  0  0  0  0  0  0
   35.9800   28.0120   42.2660 F   0  0  0  0  0  0  0  0  0  0  0  0
   36.4510   27.6980   40.1450 F   0  0  0  0  0  0  0  0  0  0  0  0
   34.6670   28.9830   40.7590 F   0  0  0  0  0  0  0  0  0  0  0  0
   36.8400   33.2980   40.0190 O   0  0  0  0  0  0  0  0  0  0  0  0
   36.0980   33.3920   39.3440 H   0  0  0  0  0  0  0  0  0  0  0  0
  1  2  2  0  0  0  0
  1  6  1  0  0  0  0
  2  3  1  0  0  0  0
  3  9  1  0  0  0  0
  3  4  2  0  0  0  0
  5  4  1  0  0  0  0
  5  8  1  0  0  0  0
  6  5  2  0  0  0  0
  7  2  1  0  0  0  0
  9 10  1  0  0  0  0
 11  9  1  0  0  0  0
 12  9  1  0  0  0  0
 13  1  1  0  0  0  0
 14 13  1  0  0  0  0
M  END
>  <minimizedAffinity>
-4.01318073

$$$$

 OpenBabel03252503263D

 14 14  0  0  0  0  0  0  0  0999 V2000
   36.4780   30.8170   40.6790 C   0  0  0  0  0  0  0  0  0  0  0  0
   36.9470   30.0410   41.7730 C   0  0  0  0  0  0  0  0  0  0  0  0
   36.7180   28.6660   41.7070 C   0  0  0  0  0  0  0  0  0  0  0  0
   36.0720   28.1610   40.6250 N   0  0  0  0  0  0  0  0  0  0  0  0
   35.6440   28.9410   39.6100 C   0  0  0  0  0  0  0  0  0  0  0  0
   35.8470   30.2590   39.6400 N   0  0  0  0  0  0  0  0  0  0  0  0
   37.4320   30.6050   42.5350 H   0  0  0  0  0  0  0  0  0  0  0  0
   35.1300   28.5170   38.7560 H   0  0  0  0  0  0  0  0  0  0  0  0
   37.2140   27.8960   42.8500 C   0  0  0  0  0  0  0  0  0  0  0  0
   36.1440   27.4310   43.5910 F   0  0  0  0  0  0  0  0  0  0  0  0
   37.8640   28.7940   43.6800 F   0  0  0  0  0  0  0  0  0  0  0  0
   37.9940   26.8360   42.5120 F   0  0  0  0  0  0  0  0  0  0  0  0
   36.6720   32.2000   40.6730 O   0  0  0  0  0  0  0  0  0  0  0  0
   36.7760   32.7470   41.5130 H   0  0  0  0  0  0  0  0  0  0  0  0
  1  2  1  0  0  0  0
  2  7  1  0  0  0  0
  3  2  2  0  0  0  0
  3  9  1  0  0  0  0
  4  3  1  0  0  0  0
  5  6  1  0  0  0  0
  5  4  2  0  0  0  0
  6  1  2  0  0  0  0
  8  5  1  0  0  0  0
  9 10  1  0  0  0  0
  9 11  1  0  0  0  0
 12  9  1  0  0  0  0
 13  1  1  0  0  0  0
 13 14  1  0  0  0  0
M  END
>  <minimizedAffinity>
-3.9951818

$$$$

 OpenBabel03252503263D

 14 14  0  0  0  0  0  0  0  0999 V2000
   36.0650   29.8490   40.8580 C   0  0  0  0  0  0  0  0  0  0  0  0
   36.3670   28.9370   41.9060 C   0  0  0  0  0  0  0  0  0  0  0  0
   36.6910   27.6340   41.5270 C   0  0  0  0  0  0  0  0  0  0  0  0
   36.6970   27.3200   40.2060 N   0  0  0  0  0  0  0  0  0  0  0  0
   36.4020   28.2220   39.2470 C   0  0  0  0  0  0  0  0  0  0  0  0
   36.0880   29.4770   39.5740 N   0  0  0  0  0  0  0  0  0  0  0  0
   36.3130   29.3580   42.8830 H   0  0  0  0  0  0  0  0  0  0  0  0
   36.4130   27.9500   38.1980 H   0  0  0  0  0  0  0  0  0  0  0  0
   36.9970   26.7220   42.6310 C   0  0  0  0  0  0  0  0  0  0  0  0
   36.1140   26.9440   43.6700 F   0  0  0  0  0  0  0  0  0  0  0  0
   38.2350   27.0970   43.1230 F   0  0  0  0  0  0  0  0  0  0  0  0
   36.9430   25.4060   42.2970 F   0  0  0  0  0  0  0  0  0  0  0  0
   35.7320   31.1710   41.1600 O   0  0  0  0  0  0  0  0  0  0  0  0
   35.3280   31.4520   42.0400 H   0  0  0  0  0  0  0  0  0  0  0  0
  1 13  1  0  0  0  0
  1  2  1  0  0  0  0
  2  7  1  0  0  0  0
  3  2  2  0  0  0  0
  3  9  1  0  0  0  0
  4  3  1  0  0  0  0
  5  6  1  0  0  0  0
  5  4  2  0  0  0  0
  6  1  2  0  0  0  0
  8  5  1  0  0  0  0
  9 11  1  0  0  0  0
  9 10  1  0  0  0  0
 12  9  1  0  0  0  0
 13 14  1  0  0  0  0
M  END
>  <minimizedAffinity>
-3.99187422

$$$$

 OpenBabel03252503263D

 14 14  0  0  0  0  0  0  0  0999 V2000
   37.7870   28.3210   43.0280 C   0  0  0  0  0  0  0  0  0  0  0  0
   37.2060   27.1010   42.5870 C   0  0  0  0  0  0  0  0  0  0  0  0
   38.0890   26.0640   42.2830 C   0  0  0  0  0  0  0  0  0  0  0  0
   39.4220   26.2770   42.4220 N   0  0  0  0  0  0  0  0  0  0  0  0
   39.9260   27.4560   42.8440 C   0  0  0  0  0  0  0  0  0  0  0  0
   39.1110   28.4690   43.1440 N   0  0  0  0  0  0  0  0  0  0  0  0
   36.1430   27.1130   42.5380 H   0  0  0  0  0  0  0  0  0  0  0  0
   40.9930   27.6050   42.9480 H   0  0  0  0  0  0  0  0  0  0  0  0
   37.4580   24.8210   41.8320 C   0  0  0  0  0  0  0  0  0  0  0  0
   37.0000   24.9800   40.5390 F   0  0  0  0  0  0  0  0  0  0  0  0
   36.3190   24.6540   42.6010 F   0  0  0  0  0  0  0  0  0  0  0  0
   38.2760   23.7360   41.8670 F   0  0  0  0  0  0  0  0  0  0  0  0
   36.9670   29.4050   43.3510 O   0  0  0  0  0  0  0  0  0  0  0  0
   36.0470   29.5370   42.9610 H   0  0  0  0  0  0  0  0  0  0  0  0
  1  6  1  0  0  0  0
  1 13  1  0  0  0  0
  2  1  2  0  0  0  0
  3  4  2  0  0  0  0
  3  2  1  0  0  0  0
  4  5  1  0  0  0  0
  5  8  1  0  0  0  0
  5  6  2  0  0  0  0
  7  2  1  0  0  0  0
  9 12  1  0  0  0  0
  9  3  1  0  0  0  0
  9 11  1  0  0  0  0
 10  9  1  0  0  0  0
 14 13  1  0  0  0  0
M  END
>  <minimizedAffinity>
-3.90177822

$$$$

 OpenBabel03252503263D

 14 14  0  0  0  0  0  0  0  0999 V2000
   37.0150   32.1470   39.7460 C   0  0  0  0  0  0  0  0  0  0  0  0
   36.3930   31.0670   40.4300 C   0  0  0  0  0  0  0  0  0  0  0  0
   36.2180   29.8870   39.7060 C   0  0  0  0  0  0  0  0  0  0  0  0
   36.6420   29.8410   38.4170 N   0  0  0  0  0  0  0  0  0  0  0  0
   37.2270   30.8960   37.8110 C   0  0  0  0  0  0  0  0  0  0  0  0
   37.4100   32.0390   38.4730 N   0  0  0  0  0  0  0  0  0  0  0  0
   36.1260   31.2820   41.4380 H   0  0  0  0  0  0  0  0  0  0  0  0
   37.5570   30.8370   36.7810 H   0  0  0  0  0  0  0  0  0  0  0  0
   35.5750   28.7950   40.4410 C   0  0  0  0  0  0  0  0  0  0  0  0
   35.7770   27.6060   39.7670 F   0  0  0  0  0  0  0  0  0  0  0  0
   34.2110   29.0220   40.3730 F   0  0  0  0  0  0  0  0  0  0  0  0
   36.0180   28.6450   41.7170 F   0  0  0  0  0  0  0  0  0  0  0  0
   37.2240   33.3610   40.4050 O   0  0  0  0  0  0  0  0  0  0  0  0
   36.6610   33.6730   41.1800 H   0  0  0  0  0  0  0  0  0  0  0  0
  1 13  1  0  0  0  0
  1  2  1  0  0  0  0
  2  7  1  0  0  0  0
  3  2  2  0  0  0  0
  3  9  1  0  0  0  0
  4  3  1  0  0  0  0
  5  4  2  0  0  0  0
  5  6  1  0  0  0  0
  6  1  2  0  0  0  0
  8  5  1  0  0  0  0
  9 12  1  0  0  0  0
 10  9  1  0  0  0  0
 11  9  1  0  0  0  0
 13 14  1  0  0  0  0
M  END
>  <minimizedAffinity>
-3.89611268

$$$$

 OpenBabel03252503263D

 14 14  0  0  0  0  0  0  0  0999 V2000
   37.6880   31.5880   36.9230 C   0  0  0  0  0  0  0  0  0  0  0  0
   37.7310   31.9600   38.2940 C   0  0  0  0  0  0  0  0  0  0  0  0
   37.0830   31.1110   39.1920 C   0  0  0  0  0  0  0  0  0  0  0  0
   36.4600   30.0040   38.7120 N   0  0  0  0  0  0  0  0  0  0  0  0
   36.4460   29.6940   37.3980 C   0  0  0  0  0  0  0  0  0  0  0  0
   37.0570   30.4830   36.5130 N   0  0  0  0  0  0  0  0  0  0  0  0
   38.2650   32.8610   38.4880 H   0  0  0  0  0  0  0  0  0  0  0  0
   35.9430   28.8050   37.0380 H   0  0  0  0  0  0  0  0  0  0  0  0
   37.1470   31.5220   40.5960 C   0  0  0  0  0  0  0  0  0  0  0  0
   35.9480   31.2280   41.2170 F   0  0  0  0  0  0  0  0  0  0  0  0
   37.2260   32.9050   40.6000 F   0  0  0  0  0  0  0  0  0  0  0  0
   38.1500   30.9390   41.3030 F   0  0  0  0  0  0  0  0  0  0  0  0
   38.3160   32.3880   35.9650 O   0  0  0  0  0  0  0  0  0  0  0  0
   38.4760   33.3760   36.0890 H   0  0  0  0  0  0  0  0  0  0  0  0
  1  2  1  0  0  0  0
  2  7  1  0  0  0  0
  2  3  2  0  0  0  0
  3  9  1  0  0  0  0
  4  3  1  0  0  0  0
  5  4  2  0  0  0  0
  6  1  2  0  0  0  0
  6  5  1  0  0  0  0
  8  5  1  0  0  0  0
  9 11  1  0  0  0  0
  9 10  1  0  0  0  0
  9 12  1  0  0  0  0
 13 14  1  0  0  0  0
 13  1  1  0  0  0  0
M  END
>  <minimizedAffinity>
-3.81610918

$$$$

 OpenBabel03252503263D

 14 14  0  0  0  0  0  0  0  0999 V2000
   36.2670   30.0140   41.0450 C   0  0  0  0  0  0  0  0  0  0  0  0
   36.4750   31.1210   40.1790 C   0  0  0  0  0  0  0  0  0  0  0  0
   37.7080   31.7660   40.2760 C   0  0  0  0  0  0  0  0  0  0  0  0
   38.6170   31.3100   41.1760 N   0  0  0  0  0  0  0  0  0  0  0  0
   38.3710   30.2530   41.9790 C   0  0  0  0  0  0  0  0  0  0  0  0
   37.2030   29.6120   41.9120 N   0  0  0  0  0  0  0  0  0  0  0  0
   35.6530   31.3370   39.5380 H   0  0  0  0  0  0  0  0  0  0  0  0
   39.1110   29.9060   42.6900 H   0  0  0  0  0  0  0  0  0  0  0  0
   37.8900   32.9020   39.3690 C   0  0  0  0  0  0  0  0  0  0  0  0
   37.2090   33.9980   39.8610 F   0  0  0  0  0  0  0  0  0  0  0  0
   37.2430   32.5740   38.1900 F   0  0  0  0  0  0  0  0  0  0  0  0
   39.1870   33.2560   39.1730 F   0  0  0  0  0  0  0  0  0  0  0  0
   35.0570   29.3160   41.0050 O   0  0  0  0  0  0  0  0  0  0  0  0
   34.1910   29.7300   40.6980 H   0  0  0  0  0  0  0  0  0  0  0  0
  1  6  1  0  0  0  0
  2  3  1  0  0  0  0
  2  1  2  0  0  0  0
  3  4  2  0  0  0  0
  4  5  1  0  0  0  0
  5  8  1  0  0  0  0
  6  5  2  0  0  0  0
  7  2  1  0  0  0  0
  9 10  1  0  0  0  0
  9  3  1  0  0  0  0
 11  9  1  0  0  0  0
 12  9  1  0  0  0  0
 13  1  1  0  0  0  0
 14 13  1  0  0  0  0
M  END
>  <minimizedAffinity>
-3.73805761

$$$$
