
 OpenBabel03252508333D

 25 26  0  0  1  0  0  0  0  0999 V2000
   38.4960   31.4370   40.4440 N   0  0  0  0  0  0  0  0  0  0  0  0
   37.1120   31.6000   40.1990 C   0  0  1  0  0  0  0  0  0  0  0  0
   36.2000   30.9300   41.1520 C   0  0  0  0  0  0  0  0  0  0  0  0
   36.6350   29.7220   41.7300 N   0  0  0  0  0  0  0  0  0  0  0  0
   38.0270   29.4410   41.7440 C   0  0  0  0  0  0  0  0  0  0  0  0
   38.7930   30.7550   41.6650 C   0  0  0  0  0  0  0  0  0  0  0  0
   36.9370   31.2840   39.1270 H   0  0  0  0  0  0  0  0  0  0  0  0
   35.8960   31.6590   41.9580 H   0  0  0  0  0  0  0  0  0  0  0  0
   35.2280   30.7330   40.6190 H   0  0  0  0  0  0  0  0  0  0  0  0
   36.2100   29.6320   42.6810 H   0  0  0  0  0  0  0  0  0  0  0  0
   38.2870   28.9020   40.8050 H   0  0  0  0  0  0  0  0  0  0  0  0
   38.3700   28.8350   42.5800 H   0  0  0  0  0  0  0  0  0  0  0  0
   39.8320   30.5080   41.8540 H   0  0  0  0  0  0  0  0  0  0  0  0
   38.3900   31.3670   42.5240 H   0  0  0  0  0  0  0  0  0  0  0  0
   40.3650   32.8590   39.9750 C   0  0  0  0  0  0  0  0  0  0  0  0
   39.4170   31.9520   39.4830 C   0  0  0  0  0  0  0  0  0  0  0  0
   39.4370   31.6150   38.1270 C   0  0  0  0  0  0  0  0  0  0  0  0
   40.3770   32.1850   37.3340 N   0  0  0  0  0  0  0  0  0  0  0  0
   41.2810   33.0590   37.8310 C   0  0  0  0  0  0  0  0  0  0  0  0
   41.2770   33.3940   39.1340 N   0  0  0  0  0  0  0  0  0  0  0  0
   40.4900   33.2210   40.9650 H   0  0  0  0  0  0  0  0  0  0  0  0
   38.6930   30.9170   37.7940 H   0  0  0  0  0  0  0  0  0  0  0  0
   42.0030   33.4720   37.1280 H   0  0  0  0  0  0  0  0  0  0  0  0
   36.8280   32.9850   40.2340 O   0  0  0  0  0  0  0  0  0  0  0  0
   37.6470   33.4360   40.5530 H   0  0  0  0  0  0  0  0  0  0  0  0
  1  6  1  0  0  0  0
  2  7  1  6  0  0  0
  2 24  1  0  0  0  0
  2  1  1  0  0  0  0
  2  3  1  0  0  0  0
  3  4  1  0  0  0  0
  3  8  1  0  0  0  0
  4  5  1  0  0  0  0
  4 10  1  0  0  0  0
  5 12  1  0  0  0  0
  6  5  1  0  0  0  0
  6 13  1  0  0  0  0
  6 14  1  0  0  0  0
  9  3  1  0  0  0  0
 11  5  1  0  0  0  0
 15 21  1  0  0  0  0
 16 15  1  0  0  0  0
 16  1  1  0  0  0  0
 17 16  2  0  0  0  0
 18 19  2  0  0  0  0
 18 17  1  0  0  0  0
 19 20  1  0  0  0  0
 20 15  2  0  0  0  0
 22 17  1  0  0  0  0
 23 19  1  0  0  0  0
 24 25  1  0  0  0  0
M  END
>  <minimizedAffinity>
-4.15180922

$$$$

 OpenBabel03252508333D

 25 26  0  0  1  0  0  0  0  0999 V2000
   37.1510   30.2130   39.9190 N   0  0  0  0  0  0  0  0  0  0  0  0
   37.4380   31.5970   39.8390 C   0  0  1  0  0  0  0  0  0  0  0  0
   37.3800   32.1950   38.4870 C   0  0  0  0  0  0  0  0  0  0  0  0
   37.7390   31.3780   37.3980 N   0  0  0  0  0  0  0  0  0  0  0  0
   37.6960   29.9690   37.5650 C   0  0  0  0  0  0  0  0  0  0  0  0
   36.7170   29.6380   38.6840 C   0  0  0  0  0  0  0  0  0  0  0  0
   38.4380   31.7460   40.3440 H   0  0  0  0  0  0  0  0  0  0  0  0
   36.3590   32.6440   38.3170 H   0  0  0  0  0  0  0  0  0  0  0  0
   38.0500   33.1000   38.4810 H   0  0  0  0  0  0  0  0  0  0  0  0
   37.2030   31.6870   36.5550 H   0  0  0  0  0  0  0  0  0  0  0  0
   38.6860   29.6280   37.9440 H   0  0  0  0  0  0  0  0  0  0  0  0
   37.4720   29.4000   36.6650 H   0  0  0  0  0  0  0  0  0  0  0  0
   36.5840   28.5620   38.6590 H   0  0  0  0  0  0  0  0  0  0  0  0
   35.7550   30.1420   38.3740 H   0  0  0  0  0  0  0  0  0  0  0  0
   36.4060   28.5360   41.4570 C   0  0  0  0  0  0  0  0  0  0  0  0
   37.3200   29.5600   41.1770 C   0  0  0  0  0  0  0  0  0  0  0  0
   38.3100   29.8650   42.1150 C   0  0  0  0  0  0  0  0  0  0  0  0
   38.3470   29.1530   43.2690 N   0  0  0  0  0  0  0  0  0  0  0  0
   37.4540   28.1700   43.5170 C   0  0  0  0  0  0  0  0  0  0  0  0
   36.4950   27.8630   42.6250 N   0  0  0  0  0  0  0  0  0  0  0  0
   35.6010   28.1790   40.8630 H   0  0  0  0  0  0  0  0  0  0  0  0
   38.9870   30.6570   41.8590 H   0  0  0  0  0  0  0  0  0  0  0  0
   37.5510   27.6450   44.4670 H   0  0  0  0  0  0  0  0  0  0  0  0
   36.5010   32.2780   40.6500 O   0  0  0  0  0  0  0  0  0  0  0  0
   35.8300   31.6100   40.9350 H   0  0  0  0  0  0  0  0  0  0  0  0
  1 16  1  0  0  0  0
  2  1  1  0  0  0  0
  2  7  1  1  0  0  0
  2 24  1  0  0  0  0
  3  2  1  0  0  0  0
  4  5  1  0  0  0  0
  4  3  1  0  0  0  0
  5 11  1  0  0  0  0
  5  6  1  0  0  0  0
  6  1  1  0  0  0  0
  8  3  1  0  0  0  0
  9  3  1  0  0  0  0
 10  4  1  0  0  0  0
 12  5  1  0  0  0  0
 13  6  1  0  0  0  0
 14  6  1  0  0  0  0
 15 20  1  0  0  0  0
 16 15  2  0  0  0  0
 16 17  1  0  0  0  0
 17 18  2  0  0  0  0
 18 19  1  0  0  0  0
 19 23  1  0  0  0  0
 20 19  2  0  0  0  0
 21 15  1  0  0  0  0
 22 17  1  0  0  0  0
 24 25  1  0  0  0  0
M  END
>  <minimizedAffinity>
-4.14271355

$$$$

 OpenBabel03252508333D

 25 26  0  0  1  0  0  0  0  0999 V2000
   37.6300   30.2390   40.2180 N   0  0  0  0  0  0  0  0  0  0  0  0
   37.1620   31.5110   40.6240 C   0  0  1  0  0  0  0  0  0  0  0  0
   37.1830   32.5720   39.5930 C   0  0  0  0  0  0  0  0  0  0  0  0
   38.2030   32.5170   38.6240 N   0  0  0  0  0  0  0  0  0  0  0  0
   38.8560   31.2770   38.3970 C   0  0  0  0  0  0  0  0  0  0  0  0
   37.9260   30.1480   38.8210 C   0  0  0  0  0  0  0  0  0  0  0  0
   37.7490   31.7870   41.5510 H   0  0  0  0  0  0  0  0  0  0  0  0
   36.1730   32.6290   39.0920 H   0  0  0  0  0  0  0  0  0  0  0  0
   37.2530   33.5640   40.1200 H   0  0  0  0  0  0  0  0  0  0  0  0
   37.8460   32.9380   37.7360 H   0  0  0  0  0  0  0  0  0  0  0  0
   39.7260   31.2050   39.0880 H   0  0  0  0  0  0  0  0  0  0  0  0
   39.2240   31.1240   37.3840 H   0  0  0  0  0  0  0  0  0  0  0  0
   38.3870   29.2320   38.4720 H   0  0  0  0  0  0  0  0  0  0  0  0
   36.9750   30.3360   38.2420 H   0  0  0  0  0  0  0  0  0  0  0  0
   38.6450   29.4890   42.2530 C   0  0  0  0  0  0  0  0  0  0  0  0
   37.7540   29.2170   41.2060 C   0  0  0  0  0  0  0  0  0  0  0  0
   37.0620   28.0030   41.2000 C   0  0  0  0  0  0  0  0  0  0  0  0
   37.2820   27.1300   42.2130 N   0  0  0  0  0  0  0  0  0  0  0  0
   38.1470   27.4140   43.2110 C   0  0  0  0  0  0  0  0  0  0  0  0
   38.8210   28.5780   43.2330 N   0  0  0  0  0  0  0  0  0  0  0  0
   39.2450   30.3510   42.4110 H   0  0  0  0  0  0  0  0  0  0  0  0
   36.3910   27.8370   40.3790 H   0  0  0  0  0  0  0  0  0  0  0  0
   38.2670   26.6590   43.9880 H   0  0  0  0  0  0  0  0  0  0  0  0
   35.8250   31.3600   41.0570 O   0  0  0  0  0  0  0  0  0  0  0  0
   35.5520   30.4380   40.8280 H   0  0  0  0  0  0  0  0  0  0  0  0
  1  2  1  0  0  0  0
  1 16  1  0  0  0  0
  2 24  1  0  0  0  0
  2  7  1  1  0  0  0
  3  9  1  0  0  0  0
  3  2  1  0  0  0  0
  4  3  1  0  0  0  0
  5  4  1  0  0  0  0
  5  6  1  0  0  0  0
  5 11  1  0  0  0  0
  6  1  1  0  0  0  0
  8  3  1  0  0  0  0
 10  4  1  0  0  0  0
 12  5  1  0  0  0  0
 13  6  1  0  0  0  0
 14  6  1  0  0  0  0
 15 21  1  0  0  0  0
 15 20  1  0  0  0  0
 16 15  2  0  0  0  0
 17 16  1  0  0  0  0
 17 18  2  0  0  0  0
 18 19  1  0  0  0  0
 19 20  2  0  0  0  0
 19 23  1  0  0  0  0
 22 17  1  0  0  0  0
 25 24  1  0  0  0  0
M  END
>  <minimizedAffinity>
-4.13765907

$$$$

 OpenBabel03252508333D

 25 26  0  0  1  0  0  0  0  0999 V2000
   38.0570   31.9580   39.7220 N   0  0  0  0  0  0  0  0  0  0  0  0
   37.6980   33.2470   40.1830 C   0  0  1  0  0  0  0  0  0  0  0  0
   38.8170   34.1610   40.4990 C   0  0  0  0  0  0  0  0  0  0  0  0
   40.0070   33.5870   40.9890 N   0  0  0  0  0  0  0  0  0  0  0  0
   40.2470   32.2110   40.7410 C   0  0  0  0  0  0  0  0  0  0  0  0
   39.4610   31.7900   39.5060 C   0  0  0  0  0  0  0  0  0  0  0  0
   36.9980   33.0900   41.0580 H   0  0  0  0  0  0  0  0  0  0  0  0
   39.0390   34.8090   39.6020 H   0  0  0  0  0  0  0  0  0  0  0  0
   38.4500   34.9070   41.2570 H   0  0  0  0  0  0  0  0  0  0  0  0
   40.8130   34.1840   40.6940 H   0  0  0  0  0  0  0  0  0  0  0  0
   39.8050   31.6200   41.5740 H   0  0  0  0  0  0  0  0  0  0  0  0
   41.2950   31.9290   40.6550 H   0  0  0  0  0  0  0  0  0  0  0  0
   39.8070   30.7940   39.2540 H   0  0  0  0  0  0  0  0  0  0  0  0
   39.7880   32.5160   38.7050 H   0  0  0  0  0  0  0  0  0  0  0  0
   36.3410   30.5950   40.6850 C   0  0  0  0  0  0  0  0  0  0  0  0
   37.0210   30.9970   39.5280 C   0  0  0  0  0  0  0  0  0  0  0  0
   36.6490   30.4520   38.2960 C   0  0  0  0  0  0  0  0  0  0  0  0
   35.6390   29.5470   38.2690 N   0  0  0  0  0  0  0  0  0  0  0  0
   34.9990   29.1740   39.3990 C   0  0  0  0  0  0  0  0  0  0  0  0
   35.3440   29.6890   40.5930 N   0  0  0  0  0  0  0  0  0  0  0  0
   36.4930   30.9040   41.6900 H   0  0  0  0  0  0  0  0  0  0  0  0
   37.1970   30.7880   37.4370 H   0  0  0  0  0  0  0  0  0  0  0  0
   34.1990   28.4420   39.2920 H   0  0  0  0  0  0  0  0  0  0  0  0
   36.9130   33.8610   39.1790 O   0  0  0  0  0  0  0  0  0  0  0  0
   36.9510   33.2710   38.3870 H   0  0  0  0  0  0  0  0  0  0  0  0
  1  2  1  0  0  0  0
  2  3  1  0  0  0  0
  2  7  1  1  0  0  0
  3  4  1  0  0  0  0
  3  9  1  0  0  0  0
  5  4  1  0  0  0  0
  5 11  1  0  0  0  0
  6  1  1  0  0  0  0
  6  5  1  0  0  0  0
  8  3  1  0  0  0  0
 10  4  1  0  0  0  0
 12  5  1  0  0  0  0
 13  6  1  0  0  0  0
 14  6  1  0  0  0  0
 15 21  1  0  0  0  0
 16  1  1  0  0  0  0
 16 15  2  0  0  0  0
 17 16  1  0  0  0  0
 18 17  2  0  0  0  0
 18 19  1  0  0  0  0
 19 20  2  0  0  0  0
 20 15  1  0  0  0  0
 22 17  1  0  0  0  0
 23 19  1  0  0  0  0
 24  2  1  0  0  0  0
 25 24  1  0  0  0  0
M  END
>  <minimizedAffinity>
-4.06120348

$$$$

 OpenBabel03252508333D

 25 26  0  0  1  0  0  0  0  0999 V2000
   38.0620   28.9660   41.6570 N   0  0  0  0  0  0  0  0  0  0  0  0
   36.9690   28.5060   42.4300 C   0  0  1  0  0  0  0  0  0  0  0  0
   36.9260   27.0520   42.6970 C   0  0  0  0  0  0  0  0  0  0  0  0
   37.4490   26.1940   41.7100 N   0  0  0  0  0  0  0  0  0  0  0  0
   38.3630   26.7280   40.7640 C   0  0  0  0  0  0  0  0  0  0  0  0
   39.0320   27.9560   41.3670 C   0  0  0  0  0  0  0  0  0  0  0  0
   36.0340   28.8880   41.9210 H   0  0  0  0  0  0  0  0  0  0  0  0
   37.4090   26.8380   43.6940 H   0  0  0  0  0  0  0  0  0  0  0  0
   35.8520   26.7660   42.8760 H   0  0  0  0  0  0  0  0  0  0  0  0
   37.8260   25.3370   42.1760 H   0  0  0  0  0  0  0  0  0  0  0  0
   37.7850   27.1160   39.8950 H   0  0  0  0  0  0  0  0  0  0  0  0
   39.1020   26.0250   40.3830 H   0  0  0  0  0  0  0  0  0  0  0  0
   39.8370   28.2220   40.6910 H   0  0  0  0  0  0  0  0  0  0  0  0
   39.4670   27.5880   42.3420 H   0  0  0  0  0  0  0  0  0  0  0  0
   39.2600   31.0360   41.5500 C   0  0  0  0  0  0  0  0  0  0  0  0
   38.0810   30.3360   41.2610 C   0  0  0  0  0  0  0  0  0  0  0  0
   37.0330   31.0030   40.6200 C   0  0  0  0  0  0  0  0  0  0  0  0
   37.2000   32.3110   40.3010 N   0  0  0  0  0  0  0  0  0  0  0  0
   38.3460   32.9650   40.5910 C   0  0  0  0  0  0  0  0  0  0  0  0
   39.3650   32.3380   41.2070 N   0  0  0  0  0  0  0  0  0  0  0  0
   40.1420   30.6870   42.0270 H   0  0  0  0  0  0  0  0  0  0  0  0
   36.1490   30.4290   40.4190 H   0  0  0  0  0  0  0  0  0  0  0  0
   38.4010   34.0140   40.3020 H   0  0  0  0  0  0  0  0  0  0  0  0
   37.0150   29.1700   43.6780 O   0  0  0  0  0  0  0  0  0  0  0  0
   37.8710   29.6640   43.7070 H   0  0  0  0  0  0  0  0  0  0  0  0
  1  2  1  0  0  0  0
  2  7  1  6  0  0  0
  2  3  1  0  0  0  0
  2 24  1  0  0  0  0
  3  9  1  0  0  0  0
  3  8  1  0  0  0  0
  4 10  1  0  0  0  0
  4  3  1  0  0  0  0
  5  6  1  0  0  0  0
  5  4  1  0  0  0  0
  6  1  1  0  0  0  0
  6 14  1  0  0  0  0
 11  5  1  0  0  0  0
 12  5  1  0  0  0  0
 13  6  1  0  0  0  0
 15 21  1  0  0  0  0
 16 15  1  0  0  0  0
 16  1  1  0  0  0  0
 17 16  2  0  0  0  0
 18 19  2  0  0  0  0
 18 17  1  0  0  0  0
 19 20  1  0  0  0  0
 20 15  2  0  0  0  0
 22 17  1  0  0  0  0
 23 19  1  0  0  0  0
 24 25  1  0  0  0  0
M  END
>  <minimizedAffinity>
-3.99786901

$$$$

 OpenBabel03252508333D

 25 26  0  0  1  0  0  0  0  0999 V2000
   38.8820   31.6980   40.1360 N   0  0  0  0  0  0  0  0  0  0  0  0
   38.3580   32.9130   40.6400 C   0  0  1  0  0  0  0  0  0  0  0  0
   38.7750   34.1430   39.9330 C   0  0  0  0  0  0  0  0  0  0  0  0
   40.0620   34.1610   39.3610 N   0  0  0  0  0  0  0  0  0  0  0  0
   40.6990   32.9220   39.0900 C   0  0  0  0  0  0  0  0  0  0  0  0
   39.6330   31.8470   38.9280 C   0  0  0  0  0  0  0  0  0  0  0  0
   38.6050   32.9340   41.7440 H   0  0  0  0  0  0  0  0  0  0  0  0
   38.0010   34.4130   39.1570 H   0  0  0  0  0  0  0  0  0  0  0  0
   38.7030   35.0000   40.6600 H   0  0  0  0  0  0  0  0  0  0  0  0
   40.0480   34.7840   38.5220 H   0  0  0  0  0  0  0  0  0  0  0  0
   41.2760   32.6170   39.9920 H   0  0  0  0  0  0  0  0  0  0  0  0
   41.3840   32.9270   38.2440 H   0  0  0  0  0  0  0  0  0  0  0  0
   40.1460   30.9680   38.5540 H   0  0  0  0  0  0  0  0  0  0  0  0
   38.9460   32.2510   38.1290 H   0  0  0  0  0  0  0  0  0  0  0  0
   39.1030   30.4580   42.1730 C   0  0  0  0  0  0  0  0  0  0  0  0
   38.6170   30.4970   40.8600 C   0  0  0  0  0  0  0  0  0  0  0  0
   37.9210   29.3930   40.3590 C   0  0  0  0  0  0  0  0  0  0  0  0
   37.7440   28.3200   41.1690 N   0  0  0  0  0  0  0  0  0  0  0  0
   38.2230   28.3060   42.4320 C   0  0  0  0  0  0  0  0  0  0  0  0
   38.8940   29.3600   42.9300 N   0  0  0  0  0  0  0  0  0  0  0  0
   39.6460   31.2000   42.7050 H   0  0  0  0  0  0  0  0  0  0  0  0
   37.5670   29.4660   39.3480 H   0  0  0  0  0  0  0  0  0  0  0  0
   38.0380   27.4060   43.0180 H   0  0  0  0  0  0  0  0  0  0  0  0
   36.9480   32.8350   40.5710 O   0  0  0  0  0  0  0  0  0  0  0  0
   36.7310   32.0120   40.0680 H   0  0  0  0  0  0  0  0  0  0  0  0
  1  2  1  0  0  0  0
  1 16  1  0  0  0  0
  2  7  1  1  0  0  0
  3  2  1  0  0  0  0
  3  9  1  0  0  0  0
  4  3  1  0  0  0  0
  5  4  1  0  0  0  0
  5 11  1  0  0  0  0
  6  5  1  0  0  0  0
  6  1  1  0  0  0  0
  8  3  1  0  0  0  0
 10  4  1  0  0  0  0
 12  5  1  0  0  0  0
 13  6  1  0  0  0  0
 14  6  1  0  0  0  0
 15 21  1  0  0  0  0
 15 20  1  0  0  0  0
 16 15  2  0  0  0  0
 17 16  1  0  0  0  0
 17 18  2  0  0  0  0
 18 19  1  0  0  0  0
 19 20  2  0  0  0  0
 19 23  1  0  0  0  0
 22 17  1  0  0  0  0
 24  2  1  0  0  0  0
 25 24  1  0  0  0  0
M  END
>  <minimizedAffinity>
-3.97353268

$$$$

 OpenBabel03252508333D

 25 26  0  0  1  0  0  0  0  0999 V2000
   37.2940   30.4220   40.0900 N   0  0  0  0  0  0  0  0  0  0  0  0
   35.8850   30.4080   40.2260 C   0  0  1  0  0  0  0  0  0  0  0  0
   35.2190   29.1150   39.9580 C   0  0  0  0  0  0  0  0  0  0  0  0
   35.8010   28.2700   38.9930 N   0  0  0  0  0  0  0  0  0  0  0  0
   37.1700   28.4570   38.6680 C   0  0  0  0  0  0  0  0  0  0  0  0
   37.8650   29.1340   39.8420 C   0  0  0  0  0  0  0  0  0  0  0  0
   35.4930   31.2480   39.5790 H   0  0  0  0  0  0  0  0  0  0  0  0
   35.0750   28.5560   40.9280 H   0  0  0  0  0  0  0  0  0  0  0  0
   34.1610   29.3320   39.6400 H   0  0  0  0  0  0  0  0  0  0  0  0
   35.5930   27.2770   39.2460 H   0  0  0  0  0  0  0  0  0  0  0  0
   37.2380   29.1930   37.8350 H   0  0  0  0  0  0  0  0  0  0  0  0
   37.7020   27.5590   38.3610 H   0  0  0  0  0  0  0  0  0  0  0  0
   38.9270   29.0980   39.6240 H   0  0  0  0  0  0  0  0  0  0  0  0
   37.6390   28.4670   40.7240 H   0  0  0  0  0  0  0  0  0  0  0  0
   37.3160   32.7750   39.6490 C   0  0  0  0  0  0  0  0  0  0  0  0
   37.9720   31.6710   40.2100 C   0  0  0  0  0  0  0  0  0  0  0  0
   39.2080   31.8600   40.8360 C   0  0  0  0  0  0  0  0  0  0  0  0
   39.7270   33.1120   40.8740 N   0  0  0  0  0  0  0  0  0  0  0  0
   39.0760   34.1610   40.3250 C   0  0  0  0  0  0  0  0  0  0  0  0
   37.8850   33.9970   39.7200 N   0  0  0  0  0  0  0  0  0  0  0  0
   36.3830   32.8090   39.1430 H   0  0  0  0  0  0  0  0  0  0  0  0
   39.6740   30.9870   41.2500 H   0  0  0  0  0  0  0  0  0  0  0  0
   39.5600   35.1340   40.3990 H   0  0  0  0  0  0  0  0  0  0  0  0
   35.5770   30.7820   41.5550 O   0  0  0  0  0  0  0  0  0  0  0  0
   36.4330   30.8150   42.0480 H   0  0  0  0  0  0  0  0  0  0  0  0
  1 16  1  0  0  0  0
  1  2  1  0  0  0  0
  2  7  1  6  0  0  0
  2 24  1  0  0  0  0
  3  2  1  0  0  0  0
  3  8  1  0  0  0  0
  4 10  1  0  0  0  0
  4  3  1  0  0  0  0
  5  4  1  0  0  0  0
  5  6  1  0  0  0  0
  6  1  1  0  0  0  0
  6 14  1  0  0  0  0
  9  3  1  0  0  0  0
 11  5  1  0  0  0  0
 12  5  1  0  0  0  0
 13  6  1  0  0  0  0
 15 20  2  0  0  0  0
 15 16  1  0  0  0  0
 16 17  2  0  0  0  0
 17 18  1  0  0  0  0
 17 22  1  0  0  0  0
 19 23  1  0  0  0  0
 19 18  2  0  0  0  0
 20 19  1  0  0  0  0
 21 15  1  0  0  0  0
 24 25  1  0  0  0  0
M  END
>  <minimizedAffinity>
-3.95865655

$$$$

 OpenBabel03252508333D

 25 26  0  0  1  0  0  0  0  0999 V2000
   39.4100   32.2370   38.6090 N   0  0  0  0  0  0  0  0  0  0  0  0
   38.0530   31.9550   38.3200 C   0  0  1  0  0  0  0  0  0  0  0  0
   37.0520   32.6610   39.1490 C   0  0  0  0  0  0  0  0  0  0  0  0
   37.4010   32.9540   40.4820 N   0  0  0  0  0  0  0  0  0  0  0  0
   38.7770   32.9840   40.8310 C   0  0  0  0  0  0  0  0  0  0  0  0
   39.5940   33.2720   39.5780 C   0  0  0  0  0  0  0  0  0  0  0  0
   37.9440   30.8300   38.3610 H   0  0  0  0  0  0  0  0  0  0  0  0
   36.7180   33.5990   38.6190 H   0  0  0  0  0  0  0  0  0  0  0  0
   36.1140   32.0380   39.1630 H   0  0  0  0  0  0  0  0  0  0  0  0
   36.9060   33.8280   40.7740 H   0  0  0  0  0  0  0  0  0  0  0  0
   39.0840   31.9600   41.1420 H   0  0  0  0  0  0  0  0  0  0  0  0
   39.0380   33.6680   41.6360 H   0  0  0  0  0  0  0  0  0  0  0  0
   40.6070   33.4580   39.9160 H   0  0  0  0  0  0  0  0  0  0  0  0
   39.1530   34.2270   39.1680 H   0  0  0  0  0  0  0  0  0  0  0  0
   41.4550   32.2360   37.3630 C   0  0  0  0  0  0  0  0  0  0  0  0
   40.4150   31.4860   37.9280 C   0  0  0  0  0  0  0  0  0  0  0  0
   40.4300   30.0940   37.7980 C   0  0  0  0  0  0  0  0  0  0  0  0
   41.4570   29.5210   37.1240 N   0  0  0  0  0  0  0  0  0  0  0  0
   42.4490   30.2650   36.5860 C   0  0  0  0  0  0  0  0  0  0  0  0
   42.4500   31.6050   36.7030 N   0  0  0  0  0  0  0  0  0  0  0  0
   41.5970   33.2880   37.3670 H   0  0  0  0  0  0  0  0  0  0  0  0
   39.6140   29.5610   38.2460 H   0  0  0  0  0  0  0  0  0  0  0  0
   43.2370   29.7280   36.0600 H   0  0  0  0  0  0  0  0  0  0  0  0
   37.8180   32.3070   36.9710 O   0  0  0  0  0  0  0  0  0  0  0  0
   38.6290   32.7740   36.6520 H   0  0  0  0  0  0  0  0  0  0  0  0
  1  6  1  0  0  0  0
  2  7  1  1  0  0  0
  2  1  1  0  0  0  0
  2  3  1  0  0  0  0
  3  9  1  0  0  0  0
  3  4  1  0  0  0  0
  4 10  1  0  0  0  0
  4  5  1  0  0  0  0
  5 11  1  0  0  0  0
  5 12  1  0  0  0  0
  6 13  1  0  0  0  0
  6  5  1  0  0  0  0
  8  3  1  0  0  0  0
 14  6  1  0  0  0  0
 15 21  1  0  0  0  0
 15 16  1  0  0  0  0
 16  1  1  0  0  0  0
 17 16  2  0  0  0  0
 17 22  1  0  0  0  0
 18 17  1  0  0  0  0
 19 20  1  0  0  0  0
 19 18  2  0  0  0  0
 20 15  2  0  0  0  0
 23 19  1  0  0  0  0
 24  2  1  0  0  0  0
 25 24  1  0  0  0  0
M  END
>  <minimizedAffinity>
-3.84989619

$$$$

 OpenBabel03252508333D

 25 26  0  0  1  0  0  0  0  0999 V2000
   38.2080   31.0540   40.9530 N   0  0  0  0  0  0  0  0  0  0  0  0
   39.3570   31.8700   40.8230 C   0  0  1  0  0  0  0  0  0  0  0  0
   39.1590   33.1680   40.1420 C   0  0  0  0  0  0  0  0  0  0  0  0
   38.1820   33.2280   39.1280 N   0  0  0  0  0  0  0  0  0  0  0  0
   37.1620   32.2410   39.1110 C   0  0  0  0  0  0  0  0  0  0  0  0
   36.9990   31.6810   40.5180 C   0  0  0  0  0  0  0  0  0  0  0  0
   40.1500   31.2310   40.3310 H   0  0  0  0  0  0  0  0  0  0  0  0
   38.9720   33.9730   40.9110 H   0  0  0  0  0  0  0  0  0  0  0  0
   40.1450   33.4780   39.6960 H   0  0  0  0  0  0  0  0  0  0  0  0
   37.7890   34.1970   39.0990 H   0  0  0  0  0  0  0  0  0  0  0  0
   37.5150   31.3800   38.5010 H   0  0  0  0  0  0  0  0  0  0  0  0
   36.2070   32.5670   38.7040 H   0  0  0  0  0  0  0  0  0  0  0  0
   36.1040   31.0680   40.4950 H   0  0  0  0  0  0  0  0  0  0  0  0
   36.8160   32.5900   41.1630 H   0  0  0  0  0  0  0  0  0  0  0  0
   37.5180   29.4030   42.5450 C   0  0  0  0  0  0  0  0  0  0  0  0
   38.3700   29.7390   41.4850 C   0  0  0  0  0  0  0  0  0  0  0  0
   39.2920   28.7940   41.0260 C   0  0  0  0  0  0  0  0  0  0  0  0
   39.3260   27.5810   41.6300 N   0  0  0  0  0  0  0  0  0  0  0  0
   38.4950   27.2800   42.6520 C   0  0  0  0  0  0  0  0  0  0  0  0
   37.6010   28.1780   43.1060 N   0  0  0  0  0  0  0  0  0  0  0  0
   36.7690   29.9940   43.0120 H   0  0  0  0  0  0  0  0  0  0  0  0
   39.9240   29.0940   40.2130 H   0  0  0  0  0  0  0  0  0  0  0  0
   38.5860   26.2840   43.0840 H   0  0  0  0  0  0  0  0  0  0  0  0
   39.8440   32.1380   42.1230 O   0  0  0  0  0  0  0  0  0  0  0  0
   39.1690   31.7930   42.7580 H   0  0  0  0  0  0  0  0  0  0  0  0
  1 16  1  0  0  0  0
  2  7  1  6  0  0  0
  2  1  1  0  0  0  0
  2 24  1  0  0  0  0
  3  2  1  0  0  0  0
  3  8  1  0  0  0  0
  4  3  1  0  0  0  0
  5  4  1  0  0  0  0
  5  6  1  0  0  0  0
  6  1  1  0  0  0  0
  6 14  1  0  0  0  0
  9  3  1  0  0  0  0
 10  4  1  0  0  0  0
 11  5  1  0  0  0  0
 12  5  1  0  0  0  0
 13  6  1  0  0  0  0
 15 21  1  0  0  0  0
 15 20  1  0  0  0  0
 16 15  2  0  0  0  0
 17 16  1  0  0  0  0
 17 18  2  0  0  0  0
 18 19  1  0  0  0  0
 19 23  1  0  0  0  0
 19 20  2  0  0  0  0
 22 17  1  0  0  0  0
 24 25  1  0  0  0  0
M  END
>  <minimizedAffinity>
-3.83240771

$$$$
