
 OpenBabel03252506293D

 40 43  0  0  0  0  0  0  0  0999 V2000
   35.8430   29.4630   38.4370 C   0  0  0  0  0  0  0  0  0  0  0  0
   35.8480   30.5290   38.7640 H   0  0  0  0  0  0  0  0  0  0  0  0
   34.7810   29.2650   38.1520 H   0  0  0  0  0  0  0  0  0  0  0  0
   36.4590   27.3070   39.6810 C   0  0  0  0  0  0  0  0  0  0  0  0
   36.2290   28.6610   39.5930 C   0  0  0  0  0  0  0  0  0  0  0  0
   36.3830   29.3940   40.7730 C   0  0  0  0  0  0  0  0  0  0  0  0
   36.7430   28.7920   41.9530 C   0  0  0  0  0  0  0  0  0  0  0  0
   36.9580   29.2230   43.1990 N   0  0  0  0  0  0  0  0  0  0  0  0
   37.2990   28.2180   44.0150 C   0  0  0  0  0  0  0  0  0  0  0  0
   37.3140   27.0460   43.2800 C   0  0  0  0  0  0  0  0  0  0  0  0
   36.9660   27.4460   42.0180 C   0  0  0  0  0  0  0  0  0  0  0  0
   36.8200   26.7150   40.8680 C   0  0  0  0  0  0  0  0  0  0  0  0
   36.3270   26.7770   38.7360 H   0  0  0  0  0  0  0  0  0  0  0  0
   36.2320   30.4660   40.8420 H   0  0  0  0  0  0  0  0  0  0  0  0
   36.8840   30.2050   43.5470 H   0  0  0  0  0  0  0  0  0  0  0  0
   37.5340   28.2670   45.0900 H   0  0  0  0  0  0  0  0  0  0  0  0
   37.5530   26.0920   43.6830 H   0  0  0  0  0  0  0  0  0  0  0  0
   37.0440   25.2740   40.8740 C   0  0  0  0  0  0  0  0  0  0  0  0
   38.1590   24.7700   40.6370 O   0  0  0  0  0  0  0  0  0  0  0  0
   36.2350   24.5900   41.0870 H   0  0  0  0  0  0  0  0  0  0  0  0
   36.6860   29.3370   37.2200 C   0  0  0  0  0  0  0  0  0  0  0  0
   36.2290   29.8610   36.3820 H   0  0  0  0  0  0  0  0  0  0  0  0
   36.8010   28.2640   36.9990 H   0  0  0  0  0  0  0  0  0  0  0  0
   39.6280   31.2540   37.9150 C   0  0  0  0  0  0  0  0  0  0  0  0
   40.1560   29.9540   37.7570 C   0  0  0  0  0  0  0  0  0  0  0  0
   39.1430   29.1110   37.4860 C   0  0  0  0  0  0  0  0  0  0  0  0
   38.0300   29.8400   37.4730 N   0  0  0  0  0  0  0  0  0  0  0  0
   38.2960   31.1250   37.7270 N   0  0  0  0  0  0  0  0  0  0  0  0
   41.2220   29.7520   37.8550 H   0  0  0  0  0  0  0  0  0  0  0  0
   39.2010   28.0450   37.3110 H   0  0  0  0  0  0  0  0  0  0  0  0
   40.9560   34.1490   39.6970 C   0  0  0  0  0  0  0  0  0  0  0  0
   41.8840   34.6870   38.8010 C   0  0  0  0  0  0  0  0  0  0  0  0
   42.0410   34.0300   37.5700 C   0  0  0  0  0  0  0  0  0  0  0  0
   41.2840   32.9330   37.3540 N   0  0  0  0  0  0  0  0  0  0  0  0
   40.4120   32.4420   38.2160 C   0  0  0  0  0  0  0  0  0  0  0  0
   40.2400   33.0530   39.4030 N   0  0  0  0  0  0  0  0  0  0  0  0
   40.8640   34.6920   40.6440 H   0  0  0  0  0  0  0  0  0  0  0  0
   42.4900   35.5620   38.9710 H   0  0  0  0  0  0  0  0  0  0  0  0
   42.9070   34.4200   36.5750 O   0  0  0  0  0  0  0  0  0  0  0  0
   43.6090   35.1030   36.8090 H   0  0  0  0  0  0  0  0  0  0  0  0
  1  2  1  0  0  0  0
  1  5  1  0  0  0  0
  3  1  1  0  0  0  0
  4 12  1  0  0  0  0
  5  4  2  0  0  0  0
  5  6  1  0  0  0  0
  6 14  1  0  0  0  0
  6  7  2  0  0  0  0
  7 11  1  0  0  0  0
  7  8  1  0  0  0  0
  8 15  1  0  0  0  0
  8  9  1  0  0  0  0
  9 16  1  0  0  0  0
 10 17  1  0  0  0  0
 10  9  2  0  0  0  0
 11 10  1  0  0  0  0
 12 18  1  0  0  0  0
 12 11  2  0  0  0  0
 13  4  1  0  0  0  0
 18 20  1  0  0  0  0
 19 18  2  0  0  0  0
 21 27  1  0  0  0  0
 21  1  1  0  0  0  0
 22 21  1  0  0  0  0
 23 21  1  0  0  0  0
 24 35  1  0  0  0  0
 25 29  1  0  0  0  0
 25 24  1  0  0  0  0
 26 25  2  0  0  0  0
 27 26  1  0  0  0  0
 27 28  1  0  0  0  0
 28 24  2  0  0  0  0
 30 26  1  0  0  0  0
 31 37  1  0  0  0  0
 32 38  1  0  0  0  0
 32 31  2  0  0  0  0
 33 32  1  0  0  0  0
 34 33  2  0  0  0  0
 34 35  1  0  0  0  0
 35 36  2  0  0  0  0
 36 31  1  0  0  0  0
 39 40  1  0  0  0  0
 39 33  1  0  0  0  0
M  END
>  <minimizedAffinity>
-6.5900054

$$$$

 OpenBabel03252506293D

 40 43  0  0  0  0  0  0  0  0999 V2000
   35.6870   29.5430   39.1260 C   0  0  0  0  0  0  0  0  0  0  0  0
   35.3820   30.4210   39.7420 H   0  0  0  0  0  0  0  0  0  0  0  0
   34.7530   29.2420   38.5920 H   0  0  0  0  0  0  0  0  0  0  0  0
   36.3090   28.5670   41.4140 C   0  0  0  0  0  0  0  0  0  0  0  0
   36.1140   28.5010   40.0530 C   0  0  0  0  0  0  0  0  0  0  0  0
   36.3570   27.2630   39.4510 C   0  0  0  0  0  0  0  0  0  0  0  0
   36.7670   26.1760   40.1820 C   0  0  0  0  0  0  0  0  0  0  0  0
   37.0660   24.9070   39.8890 N   0  0  0  0  0  0  0  0  0  0  0  0
   37.4230   24.2210   40.9820 C   0  0  0  0  0  0  0  0  0  0  0  0
   37.3610   25.0720   42.0700 C   0  0  0  0  0  0  0  0  0  0  0  0
   36.9540   26.2640   41.5330 C   0  0  0  0  0  0  0  0  0  0  0  0
   36.7190   27.4710   42.1350 C   0  0  0  0  0  0  0  0  0  0  0  0
   36.1080   29.5520   41.8390 H   0  0  0  0  0  0  0  0  0  0  0  0
   36.2430   27.0750   38.3890 H   0  0  0  0  0  0  0  0  0  0  0  0
   37.0420   24.4560   38.9470 H   0  0  0  0  0  0  0  0  0  0  0  0
   37.7220   23.1630   41.0510 H   0  0  0  0  0  0  0  0  0  0  0  0
   37.5950   24.7860   43.0670 H   0  0  0  0  0  0  0  0  0  0  0  0
   36.9010   27.6280   43.5740 C   0  0  0  0  0  0  0  0  0  0  0  0
   37.4680   28.6200   44.0720 O   0  0  0  0  0  0  0  0  0  0  0  0
   36.5420   26.8750   44.2610 H   0  0  0  0  0  0  0  0  0  0  0  0
   36.6790   29.9940   38.1170 C   0  0  0  0  0  0  0  0  0  0  0  0
   36.1800   30.2900   37.1960 H   0  0  0  0  0  0  0  0  0  0  0  0
   37.3780   29.1620   37.9360 H   0  0  0  0  0  0  0  0  0  0  0  0
   39.2250   32.3530   38.9940 C   0  0  0  0  0  0  0  0  0  0  0  0
   38.1110   32.8450   39.7080 C   0  0  0  0  0  0  0  0  0  0  0  0
   37.0600   32.0410   39.4680 C   0  0  0  0  0  0  0  0  0  0  0  0
   37.4860   31.0870   38.6440 N   0  0  0  0  0  0  0  0  0  0  0  0
   38.7780   31.2540   38.3460 N   0  0  0  0  0  0  0  0  0  0  0  0
   38.1760   33.7380   40.3290 H   0  0  0  0  0  0  0  0  0  0  0  0
   36.0550   32.1340   39.8580 H   0  0  0  0  0  0  0  0  0  0  0  0
   42.4460   33.5920   40.1810 C   0  0  0  0  0  0  0  0  0  0  0  0
   43.0540   34.0850   39.0230 C   0  0  0  0  0  0  0  0  0  0  0  0
   42.3290   33.9790   37.8250 C   0  0  0  0  0  0  0  0  0  0  0  0
   41.1060   33.4120   37.8900 N   0  0  0  0  0  0  0  0  0  0  0  0
   40.5500   32.9530   38.9980 C   0  0  0  0  0  0  0  0  0  0  0  0
   41.2220   33.0420   40.1600 N   0  0  0  0  0  0  0  0  0  0  0  0
   43.0440   33.6940   41.0930 H   0  0  0  0  0  0  0  0  0  0  0  0
   44.0310   34.5380   38.9680 H   0  0  0  0  0  0  0  0  0  0  0  0
   42.7730   34.4090   36.5960 O   0  0  0  0  0  0  0  0  0  0  0  0
   43.7490   34.6410   36.5080 H   0  0  0  0  0  0  0  0  0  0  0  0
  1  2  1  0  0  0  0
  1  5  1  0  0  0  0
  3  1  1  0  0  0  0
  4 13  1  0  0  0  0
  4 12  1  0  0  0  0
  5  4  2  0  0  0  0
  6  5  1  0  0  0  0
  6  7  2  0  0  0  0
  7 11  1  0  0  0  0
  8  7  1  0  0  0  0
  8  9  1  0  0  0  0
  9 16  1  0  0  0  0
  9 10  2  0  0  0  0
 10 17  1  0  0  0  0
 11 10  1  0  0  0  0
 11 12  2  0  0  0  0
 12 18  1  0  0  0  0
 14  6  1  0  0  0  0
 15  8  1  0  0  0  0
 18 19  2  0  0  0  0
 18 20  1  0  0  0  0
 21 27  1  0  0  0  0
 21  1  1  0  0  0  0
 22 21  1  0  0  0  0
 23 21  1  0  0  0  0
 24 35  1  0  0  0  0
 24 25  1  0  0  0  0
 25 29  1  0  0  0  0
 26 25  2  0  0  0  0
 26 30  1  0  0  0  0
 27 26  1  0  0  0  0
 28 27  1  0  0  0  0
 28 24  2  0  0  0  0
 31 37  1  0  0  0  0
 32 31  2  0  0  0  0
 33 34  2  0  0  0  0
 33 32  1  0  0  0  0
 34 35  1  0  0  0  0
 35 36  2  0  0  0  0
 36 31  1  0  0  0  0
 38 32  1  0  0  0  0
 39 33  1  0  0  0  0
 40 39  1  0  0  0  0
M  END
>  <minimizedAffinity>
-6.44199133

$$$$

 OpenBabel03252506293D

 40 43  0  0  0  0  0  0  0  0999 V2000
   37.1700   31.4990   39.2920 C   0  0  0  0  0  0  0  0  0  0  0  0
   36.2560   31.5660   38.6580 H   0  0  0  0  0  0  0  0  0  0  0  0
   38.0130   31.4500   38.5600 H   0  0  0  0  0  0  0  0  0  0  0  0
   36.8670   28.9730   39.6080 C   0  0  0  0  0  0  0  0  0  0  0  0
   37.0700   30.2590   40.0530 C   0  0  0  0  0  0  0  0  0  0  0  0
   37.2030   30.4220   41.4350 C   0  0  0  0  0  0  0  0  0  0  0  0
   37.1330   29.3550   42.2960 C   0  0  0  0  0  0  0  0  0  0  0  0
   37.2210   29.2120   43.6220 N   0  0  0  0  0  0  0  0  0  0  0  0
   37.0840   27.9310   43.9870 C   0  0  0  0  0  0  0  0  0  0  0  0
   36.8930   27.1700   42.8480 C   0  0  0  0  0  0  0  0  0  0  0  0
   36.9300   28.0860   41.8310 C   0  0  0  0  0  0  0  0  0  0  0  0
   36.7990   27.9120   40.4790 C   0  0  0  0  0  0  0  0  0  0  0  0
   36.7690   28.8940   38.5230 H   0  0  0  0  0  0  0  0  0  0  0  0
   37.3660   31.3800   41.9170 H   0  0  0  0  0  0  0  0  0  0  0  0
   37.3760   29.9660   44.3270 H   0  0  0  0  0  0  0  0  0  0  0  0
   37.1100   27.5100   45.0050 H   0  0  0  0  0  0  0  0  0  0  0  0
   36.7550   26.1160   42.8500 H   0  0  0  0  0  0  0  0  0  0  0  0
   36.5800   26.5820   39.9220 C   0  0  0  0  0  0  0  0  0  0  0  0
   35.9100   26.3910   38.8890 O   0  0  0  0  0  0  0  0  0  0  0  0
   37.0020   25.7080   40.3990 H   0  0  0  0  0  0  0  0  0  0  0  0
   37.2990   32.7580   40.0710 C   0  0  0  0  0  0  0  0  0  0  0  0
   37.1340   32.5700   41.1300 H   0  0  0  0  0  0  0  0  0  0  0  0
   36.5590   33.4740   39.6780 H   0  0  0  0  0  0  0  0  0  0  0  0
   40.6610   33.5890   39.1660 C   0  0  0  0  0  0  0  0  0  0  0  0
   40.2460   34.7510   39.8510 C   0  0  0  0  0  0  0  0  0  0  0  0
   38.9740   34.5790   40.2560 C   0  0  0  0  0  0  0  0  0  0  0  0
   38.6030   33.3670   39.8500 N   0  0  0  0  0  0  0  0  0  0  0  0
   39.5960   32.7570   39.1950 N   0  0  0  0  0  0  0  0  0  0  0  0
   40.9080   35.6060   39.9840 H   0  0  0  0  0  0  0  0  0  0  0  0
   38.3570   35.2760   40.8060 H   0  0  0  0  0  0  0  0  0  0  0  0
   43.3540   32.2120   37.1240 C   0  0  0  0  0  0  0  0  0  0  0  0
   44.4540   33.0070   37.4540 C   0  0  0  0  0  0  0  0  0  0  0  0
   44.2470   34.0290   38.3960 C   0  0  0  0  0  0  0  0  0  0  0  0
   43.0020   34.1580   38.9040 N   0  0  0  0  0  0  0  0  0  0  0  0
   41.9760   33.3920   38.5760 C   0  0  0  0  0  0  0  0  0  0  0  0
   42.1470   32.4060   37.6780 N   0  0  0  0  0  0  0  0  0  0  0  0
   43.5590   31.4270   36.3870 H   0  0  0  0  0  0  0  0  0  0  0  0
   45.4480   32.9070   37.0500 H   0  0  0  0  0  0  0  0  0  0  0  0
   45.2140   34.9030   38.8350 O   0  0  0  0  0  0  0  0  0  0  0  0
   46.0760   34.9420   38.3160 H   0  0  0  0  0  0  0  0  0  0  0  0
  1  5  1  0  0  0  0
  1 21  1  0  0  0  0
  2  1  1  0  0  0  0
  3  1  1  0  0  0  0
  4  5  2  0  0  0  0
  4 12  1  0  0  0  0
  5  6  1  0  0  0  0
  6 14  1  0  0  0  0
  6  7  2  0  0  0  0
  7  8  1  0  0  0  0
  8  9  1  0  0  0  0
  8 15  1  0  0  0  0
  9 16  1  0  0  0  0
 10 17  1  0  0  0  0
 10  9  2  0  0  0  0
 11  7  1  0  0  0  0
 11 10  1  0  0  0  0
 12 11  2  0  0  0  0
 13  4  1  0  0  0  0
 18 20  1  0  0  0  0
 18 12  1  0  0  0  0
 19 18  2  0  0  0  0
 21 22  1  0  0  0  0
 23 21  1  0  0  0  0
 24 28  2  0  0  0  0
 24 25  1  0  0  0  0
 25 29  1  0  0  0  0
 25 26  2  0  0  0  0
 26 30  1  0  0  0  0
 27 21  1  0  0  0  0
 27 26  1  0  0  0  0
 28 27  1  0  0  0  0
 31 32  2  0  0  0  0
 31 36  1  0  0  0  0
 32 33  1  0  0  0  0
 33 39  1  0  0  0  0
 33 34  2  0  0  0  0
 35 34  1  0  0  0  0
 35 24  1  0  0  0  0
 36 35  2  0  0  0  0
 37 31  1  0  0  0  0
 38 32  1  0  0  0  0
 40 39  1  0  0  0  0
M  END
>  <minimizedAffinity>
-6.4024086

$$$$

 OpenBabel03252506293D

 40 43  0  0  0  0  0  0  0  0999 V2000
   35.8330   29.7250   38.0120 C   0  0  0  0  0  0  0  0  0  0  0  0
   35.6190   29.8490   36.9250 H   0  0  0  0  0  0  0  0  0  0  0  0
   34.9000   30.0700   38.5200 H   0  0  0  0  0  0  0  0  0  0  0  0
   38.2610   30.5430   37.9040 C   0  0  0  0  0  0  0  0  0  0  0  0
   36.9530   30.6040   38.3290 C   0  0  0  0  0  0  0  0  0  0  0  0
   36.6310   31.6560   39.1920 C   0  0  0  0  0  0  0  0  0  0  0  0
   37.5700   32.5740   39.5900 C   0  0  0  0  0  0  0  0  0  0  0  0
   37.5520   33.6510   40.3810 N   0  0  0  0  0  0  0  0  0  0  0  0
   38.7580   34.2280   40.4520 C   0  0  0  0  0  0  0  0  0  0  0  0
   39.6360   33.5020   39.6670 C   0  0  0  0  0  0  0  0  0  0  0  0
   38.8620   32.4940   39.1550 C   0  0  0  0  0  0  0  0  0  0  0  0
   39.1930   31.4690   38.3090 C   0  0  0  0  0  0  0  0  0  0  0  0
   38.4660   29.7070   37.2330 H   0  0  0  0  0  0  0  0  0  0  0  0
   35.6390   31.8190   39.6000 H   0  0  0  0  0  0  0  0  0  0  0  0
   36.7330   34.0360   40.9020 H   0  0  0  0  0  0  0  0  0  0  0  0
   39.0490   35.1240   41.0230 H   0  0  0  0  0  0  0  0  0  0  0  0
   40.6640   33.7410   39.5420 H   0  0  0  0  0  0  0  0  0  0  0  0
   40.5560   31.3300   37.8120 C   0  0  0  0  0  0  0  0  0  0  0  0
   41.0480   32.1180   36.9800 O   0  0  0  0  0  0  0  0  0  0  0  0
   41.1910   30.5260   38.1560 H   0  0  0  0  0  0  0  0  0  0  0  0
   36.0140   28.2780   38.2960 C   0  0  0  0  0  0  0  0  0  0  0  0
   36.7390   27.8420   37.6110 H   0  0  0  0  0  0  0  0  0  0  0  0
   35.0320   27.7890   38.1930 H   0  0  0  0  0  0  0  0  0  0  0  0
   37.6310   27.4370   41.3770 C   0  0  0  0  0  0  0  0  0  0  0  0
   36.4560   28.0770   41.8280 C   0  0  0  0  0  0  0  0  0  0  0  0
   35.7360   28.4540   40.7560 C   0  0  0  0  0  0  0  0  0  0  0  0
   36.4200   28.0730   39.6800 N   0  0  0  0  0  0  0  0  0  0  0  0
   37.5570   27.4620   40.0280 N   0  0  0  0  0  0  0  0  0  0  0  0
   36.2420   28.2040   42.8880 H   0  0  0  0  0  0  0  0  0  0  0  0
   34.7850   28.9690   40.7480 H   0  0  0  0  0  0  0  0  0  0  0  0
   40.4760   27.2380   43.6540 C   0  0  0  0  0  0  0  0  0  0  0  0
   40.6260   25.8660   43.8720 C   0  0  0  0  0  0  0  0  0  0  0  0
   39.7240   25.0120   43.2160 C   0  0  0  0  0  0  0  0  0  0  0  0
   38.7870   25.5860   42.4310 N   0  0  0  0  0  0  0  0  0  0  0  0
   38.6650   26.8880   42.2400 C   0  0  0  0  0  0  0  0  0  0  0  0
   39.5170   27.7290   42.8550 N   0  0  0  0  0  0  0  0  0  0  0  0
   41.1990   27.8690   44.1830 H   0  0  0  0  0  0  0  0  0  0  0  0
   41.3710   25.4050   44.4990 H   0  0  0  0  0  0  0  0  0  0  0  0
   39.7250   23.6400   43.3170 O   0  0  0  0  0  0  0  0  0  0  0  0
   40.2790   23.2260   44.0490 H   0  0  0  0  0  0  0  0  0  0  0  0
  1 21  1  0  0  0  0
  1  5  1  0  0  0  0
  1  3  1  0  0  0  0
  2  1  1  0  0  0  0
  4 12  2  0  0  0  0
  4  5  1  0  0  0  0
  5  6  2  0  0  0  0
  6  7  1  0  0  0  0
  6 14  1  0  0  0  0
  7  8  1  0  0  0  0
  8  9  1  0  0  0  0
  8 15  1  0  0  0  0
  9 16  1  0  0  0  0
 10  9  2  0  0  0  0
 11  7  2  0  0  0  0
 11 10  1  0  0  0  0
 12 11  1  0  0  0  0
 13  4  1  0  0  0  0
 17 10  1  0  0  0  0
 18 20  1  0  0  0  0
 18 12  1  0  0  0  0
 19 18  2  0  0  0  0
 21 27  1  0  0  0  0
 22 21  1  0  0  0  0
 23 21  1  0  0  0  0
 24 25  1  0  0  0  0
 24 35  1  0  0  0  0
 25 29  1  0  0  0  0
 26 25  2  0  0  0  0
 27 28  1  0  0  0  0
 27 26  1  0  0  0  0
 28 24  2  0  0  0  0
 30 26  1  0  0  0  0
 31 32  1  0  0  0  0
 31 37  1  0  0  0  0
 32 38  1  0  0  0  0
 33 39  1  0  0  0  0
 33 32  2  0  0  0  0
 34 33  1  0  0  0  0
 35 34  2  0  0  0  0
 35 36  1  0  0  0  0
 36 31  2  0  0  0  0
 39 40  1  0  0  0  0
M  END
>  <minimizedAffinity>
-6.18199682

$$$$

 OpenBabel03252506293D

 40 43  0  0  0  0  0  0  0  0999 V2000
   37.0940   27.2120   43.0840 C   0  0  0  0  0  0  0  0  0  0  0  0
   36.3950   26.7610   43.8260 H   0  0  0  0  0  0  0  0  0  0  0  0
   36.6240   28.1900   42.8200 H   0  0  0  0  0  0  0  0  0  0  0  0
   36.7910   26.5760   40.6190 C   0  0  0  0  0  0  0  0  0  0  0  0
   37.1220   26.3200   41.9300 C   0  0  0  0  0  0  0  0  0  0  0  0
   37.5510   25.0210   42.2190 C   0  0  0  0  0  0  0  0  0  0  0  0
   37.6350   24.0580   41.2450 C   0  0  0  0  0  0  0  0  0  0  0  0
   37.9990   22.7720   41.2260 N   0  0  0  0  0  0  0  0  0  0  0  0
   37.9050   22.2530   39.9960 C   0  0  0  0  0  0  0  0  0  0  0  0
   37.4540   23.2410   39.1390 C   0  0  0  0  0  0  0  0  0  0  0  0
   37.3010   24.3330   39.9490 C   0  0  0  0  0  0  0  0  0  0  0  0
   36.8790   25.6030   39.6520 C   0  0  0  0  0  0  0  0  0  0  0  0
   36.4620   27.6010   40.4410 H   0  0  0  0  0  0  0  0  0  0  0  0
   37.8410   24.6880   43.2090 H   0  0  0  0  0  0  0  0  0  0  0  0
   38.3220   22.1980   42.0360 H   0  0  0  0  0  0  0  0  0  0  0  0
   38.1350   21.2250   39.6740 H   0  0  0  0  0  0  0  0  0  0  0  0
   37.2890   23.0990   38.0980 H   0  0  0  0  0  0  0  0  0  0  0  0
   36.5090   25.9580   38.2870 C   0  0  0  0  0  0  0  0  0  0  0  0
   35.3420   25.8540   37.8620 O   0  0  0  0  0  0  0  0  0  0  0  0
   37.2490   26.3300   37.5920 H   0  0  0  0  0  0  0  0  0  0  0  0
   38.3910   27.4800   43.7580 C   0  0  0  0  0  0  0  0  0  0  0  0
   38.9720   26.5640   43.8470 H   0  0  0  0  0  0  0  0  0  0  0  0
   38.1730   27.9060   44.7500 H   0  0  0  0  0  0  0  0  0  0  0  0
   39.5480   30.3480   41.9560 C   0  0  0  0  0  0  0  0  0  0  0  0
   40.7310   29.5910   42.0930 C   0  0  0  0  0  0  0  0  0  0  0  0
   40.4420   28.4620   42.7650 C   0  0  0  0  0  0  0  0  0  0  0  0
   39.1400   28.5020   43.0390 N   0  0  0  0  0  0  0  0  0  0  0  0
   38.5850   29.6210   42.5650 N   0  0  0  0  0  0  0  0  0  0  0  0
   41.6830   29.9370   41.6920 H   0  0  0  0  0  0  0  0  0  0  0  0
   41.1200   27.6660   43.0390 H   0  0  0  0  0  0  0  0  0  0  0  0
   40.5060   33.5440   40.4760 C   0  0  0  0  0  0  0  0  0  0  0  0
   39.2940   34.0720   40.0240 C   0  0  0  0  0  0  0  0  0  0  0  0
   38.1390   33.3010   40.2400 C   0  0  0  0  0  0  0  0  0  0  0  0
   38.2960   32.1150   40.8660 N   0  0  0  0  0  0  0  0  0  0  0  0
   39.4540   31.6370   41.2860 C   0  0  0  0  0  0  0  0  0  0  0  0
   40.5750   32.3540   41.0920 N   0  0  0  0  0  0  0  0  0  0  0  0
   41.3810   34.1760   40.2870 H   0  0  0  0  0  0  0  0  0  0  0  0
   39.1650   35.0170   39.5230 H   0  0  0  0  0  0  0  0  0  0  0  0
   36.8680   33.6650   39.8620 O   0  0  0  0  0  0  0  0  0  0  0  0
   36.7750   34.4380   39.2230 H   0  0  0  0  0  0  0  0  0  0  0  0
  1 21  1  0  0  0  0
  1  2  1  0  0  0  0
  3  1  1  0  0  0  0
  4  5  1  0  0  0  0
  5  6  2  0  0  0  0
  5  1  1  0  0  0  0
  6 14  1  0  0  0  0
  7  6  1  0  0  0  0
  8  7  1  0  0  0  0
  8 15  1  0  0  0  0
  9  8  1  0  0  0  0
 10 11  1  0  0  0  0
 10  9  2  0  0  0  0
 11  7  2  0  0  0  0
 12 11  1  0  0  0  0
 12  4  2  0  0  0  0
 13  4  1  0  0  0  0
 16  9  1  0  0  0  0
 17 10  1  0  0  0  0
 18 12  1  0  0  0  0
 19 18  2  0  0  0  0
 20 18  1  0  0  0  0
 21 22  1  0  0  0  0
 21 23  1  0  0  0  0
 24 25  1  0  0  0  0
 24 28  2  0  0  0  0
 25 26  2  0  0  0  0
 26 27  1  0  0  0  0
 26 30  1  0  0  0  0
 27 21  1  0  0  0  0
 28 27  1  0  0  0  0
 29 25  1  0  0  0  0
 31 36  1  0  0  0  0
 32 33  1  0  0  0  0
 32 31  2  0  0  0  0
 33 34  2  0  0  0  0
 34 35  1  0  0  0  0
 35 24  1  0  0  0  0
 36 35  2  0  0  0  0
 37 31  1  0  0  0  0
 38 32  1  0  0  0  0
 39 33  1  0  0  0  0
 40 39  1  0  0  0  0
M  END
>  <minimizedAffinity>
-6.16304874

$$$$

 OpenBabel03252506293D

 40 43  0  0  0  0  0  0  0  0999 V2000
   36.3320   29.0260   41.1670 C   0  0  0  0  0  0  0  0  0  0  0  0
   36.7540   29.9600   41.6060 H   0  0  0  0  0  0  0  0  0  0  0  0
   35.2880   28.9810   41.5620 H   0  0  0  0  0  0  0  0  0  0  0  0
   36.9080   26.5620   41.5810 C   0  0  0  0  0  0  0  0  0  0  0  0
   37.1300   27.9170   41.6790 C   0  0  0  0  0  0  0  0  0  0  0  0
   38.2830   28.3090   42.3650 C   0  0  0  0  0  0  0  0  0  0  0  0
   39.1430   27.3890   42.9100 C   0  0  0  0  0  0  0  0  0  0  0  0
   40.2860   27.4660   43.5990 N   0  0  0  0  0  0  0  0  0  0  0  0
   40.7530   26.2520   43.9130 C   0  0  0  0  0  0  0  0  0  0  0  0
   39.8790   25.3050   43.4110 C   0  0  0  0  0  0  0  0  0  0  0  0
   38.9040   26.0480   42.8020 C   0  0  0  0  0  0  0  0  0  0  0  0
   37.7770   25.6500   42.1310 C   0  0  0  0  0  0  0  0  0  0  0  0
   35.9980   26.3040   41.0380 H   0  0  0  0  0  0  0  0  0  0  0  0
   38.5750   29.3430   42.5140 H   0  0  0  0  0  0  0  0  0  0  0  0
   40.7930   28.3340   43.8820 H   0  0  0  0  0  0  0  0  0  0  0  0
   41.6670   26.0000   44.4740 H   0  0  0  0  0  0  0  0  0  0  0  0
   40.0090   24.2550   43.5170 H   0  0  0  0  0  0  0  0  0  0  0  0
   37.4670   24.2330   41.9810 C   0  0  0  0  0  0  0  0  0  0  0  0
   36.6870   23.8080   41.1070 O   0  0  0  0  0  0  0  0  0  0  0  0
   37.9130   23.4980   42.6360 H   0  0  0  0  0  0  0  0  0  0  0  0
   36.2690   29.1840   39.6910 C   0  0  0  0  0  0  0  0  0  0  0  0
   35.4180   29.8020   39.4090 H   0  0  0  0  0  0  0  0  0  0  0  0
   36.1910   28.1790   39.2480 H   0  0  0  0  0  0  0  0  0  0  0  0
   39.1340   31.1760   38.8930 C   0  0  0  0  0  0  0  0  0  0  0  0
   39.3560   30.0190   38.1150 C   0  0  0  0  0  0  0  0  0  0  0  0
   38.3380   29.1640   38.3200 C   0  0  0  0  0  0  0  0  0  0  0  0
   37.5120   29.7510   39.1820 N   0  0  0  0  0  0  0  0  0  0  0  0
   37.9680   30.9550   39.5390 N   0  0  0  0  0  0  0  0  0  0  0  0
   40.2350   29.9140   37.4800 H   0  0  0  0  0  0  0  0  0  0  0  0
   38.1990   28.1860   37.8790 H   0  0  0  0  0  0  0  0  0  0  0  0
   40.8820   34.1310   40.1300 C   0  0  0  0  0  0  0  0  0  0  0  0
   41.6790   34.5170   39.0490 C   0  0  0  0  0  0  0  0  0  0  0  0
   41.6010   33.7350   37.8840 C   0  0  0  0  0  0  0  0  0  0  0  0
   40.7630   32.6770   37.9060 N   0  0  0  0  0  0  0  0  0  0  0  0
   40.0170   32.3320   38.9410 C   0  0  0  0  0  0  0  0  0  0  0  0
   40.0720   33.0640   40.0690 N   0  0  0  0  0  0  0  0  0  0  0  0
   40.9740   34.7680   41.0170 H   0  0  0  0  0  0  0  0  0  0  0  0
   42.3500   35.3600   39.0290 H   0  0  0  0  0  0  0  0  0  0  0  0
   42.3130   33.9670   36.7310 O   0  0  0  0  0  0  0  0  0  0  0  0
   43.0780   34.6200   36.7790 H   0  0  0  0  0  0  0  0  0  0  0  0
  1  3  1  0  0  0  0
  1  2  1  0  0  0  0
  1  5  1  0  0  0  0
  4  5  2  0  0  0  0
  4 12  1  0  0  0  0
  5  6  1  0  0  0  0
  6 14  1  0  0  0  0
  6  7  2  0  0  0  0
  7  8  1  0  0  0  0
  8 15  1  0  0  0  0
  8  9  1  0  0  0  0
  9 16  1  0  0  0  0
 10 17  1  0  0  0  0
 10  9  2  0  0  0  0
 11  7  1  0  0  0  0
 11 10  1  0  0  0  0
 12 11  2  0  0  0  0
 13  4  1  0  0  0  0
 18 12  1  0  0  0  0
 18 20  1  0  0  0  0
 19 18  2  0  0  0  0
 21  1  1  0  0  0  0
 22 21  1  0  0  0  0
 23 21  1  0  0  0  0
 24 35  1  0  0  0  0
 24 28  2  0  0  0  0
 25 26  2  0  0  0  0
 25 24  1  0  0  0  0
 26 27  1  0  0  0  0
 27 28  1  0  0  0  0
 27 21  1  0  0  0  0
 29 25  1  0  0  0  0
 30 26  1  0  0  0  0
 31 37  1  0  0  0  0
 32 31  2  0  0  0  0
 33 34  2  0  0  0  0
 33 32  1  0  0  0  0
 34 35  1  0  0  0  0
 35 36  2  0  0  0  0
 36 31  1  0  0  0  0
 38 32  1  0  0  0  0
 39 40  1  0  0  0  0
 39 33  1  0  0  0  0
M  END
>  <minimizedAffinity>
-6.06211281

$$$$

 OpenBabel03252506293D

 40 43  0  0  0  0  0  0  0  0999 V2000
   36.7640   31.2810   39.6050 C   0  0  0  0  0  0  0  0  0  0  0  0
   36.7610   30.3010   39.0730 H   0  0  0  0  0  0  0  0  0  0  0  0
   35.9220   31.8510   39.1420 H   0  0  0  0  0  0  0  0  0  0  0  0
   38.6190   33.0280   39.8910 C   0  0  0  0  0  0  0  0  0  0  0  0
   38.0450   31.9180   39.3160 C   0  0  0  0  0  0  0  0  0  0  0  0
   38.7790   31.2950   38.3030 C   0  0  0  0  0  0  0  0  0  0  0  0
   40.0050   31.7680   37.9070 C   0  0  0  0  0  0  0  0  0  0  0  0
   40.9070   31.3910   36.9960 N   0  0  0  0  0  0  0  0  0  0  0  0
   41.9720   32.2010   36.9950 C   0  0  0  0  0  0  0  0  0  0  0  0
   41.7790   33.1770   37.9560 C   0  0  0  0  0  0  0  0  0  0  0  0
   40.5570   32.8720   38.4930 C   0  0  0  0  0  0  0  0  0  0  0  0
   39.8480   33.4930   39.4870 C   0  0  0  0  0  0  0  0  0  0  0  0
   38.0100   33.4810   40.6760 H   0  0  0  0  0  0  0  0  0  0  0  0
   38.4420   30.4130   37.7670 H   0  0  0  0  0  0  0  0  0  0  0  0
   40.8410   30.5790   36.3430 H   0  0  0  0  0  0  0  0  0  0  0  0
   42.8690   32.1420   36.3580 H   0  0  0  0  0  0  0  0  0  0  0  0
   42.4740   33.9530   38.1680 H   0  0  0  0  0  0  0  0  0  0  0  0
   40.3840   34.6760   40.1500 C   0  0  0  0  0  0  0  0  0  0  0  0
   41.3880   34.6310   40.8880 O   0  0  0  0  0  0  0  0  0  0  0  0
   39.9180   35.6420   40.0190 H   0  0  0  0  0  0  0  0  0  0  0  0
   36.4400   31.0440   41.0350 C   0  0  0  0  0  0  0  0  0  0  0  0
   35.3640   30.9530   41.1730 H   0  0  0  0  0  0  0  0  0  0  0  0
   36.8410   31.8900   41.6170 H   0  0  0  0  0  0  0  0  0  0  0  0
   37.6610   27.7570   41.7530 C   0  0  0  0  0  0  0  0  0  0  0  0
   38.4510   28.5550   42.6070 C   0  0  0  0  0  0  0  0  0  0  0  0
   38.0950   29.8420   42.4410 C   0  0  0  0  0  0  0  0  0  0  0  0
   37.1270   29.8570   41.5280 N   0  0  0  0  0  0  0  0  0  0  0  0
   36.8510   28.6210   41.1020 N   0  0  0  0  0  0  0  0  0  0  0  0
   39.2050   28.1220   43.2630 H   0  0  0  0  0  0  0  0  0  0  0  0
   38.5030   30.7100   42.9420 H   0  0  0  0  0  0  0  0  0  0  0  0
   37.0130   24.3320   40.6690 C   0  0  0  0  0  0  0  0  0  0  0  0
   37.9060   23.5740   41.4290 C   0  0  0  0  0  0  0  0  0  0  0  0
   38.7370   24.2690   42.3240 C   0  0  0  0  0  0  0  0  0  0  0  0
   38.6040   25.6120   42.3740 N   0  0  0  0  0  0  0  0  0  0  0  0
   37.7510   26.3080   41.6450 C   0  0  0  0  0  0  0  0  0  0  0  0
   36.9420   25.6680   40.7810 N   0  0  0  0  0  0  0  0  0  0  0  0
   36.3840   23.7520   39.9850 H   0  0  0  0  0  0  0  0  0  0  0  0
   38.0160   22.5020   41.3910 H   0  0  0  0  0  0  0  0  0  0  0  0
   39.6720   23.6850   43.1460 O   0  0  0  0  0  0  0  0  0  0  0  0
   39.9150   22.7240   42.9670 H   0  0  0  0  0  0  0  0  0  0  0  0
  1 21  1  0  0  0  0
  2  1  1  0  0  0  0
  3  1  1  0  0  0  0
  4 13  1  0  0  0  0
  5  1  1  0  0  0  0
  5  4  2  0  0  0  0
  6  5  1  0  0  0  0
  7  6  2  0  0  0  0
  7 11  1  0  0  0  0
  8  7  1  0  0  0  0
  9  8  1  0  0  0  0
  9 10  2  0  0  0  0
 10 17  1  0  0  0  0
 10 11  1  0  0  0  0
 11 12  2  0  0  0  0
 12  4  1  0  0  0  0
 12 18  1  0  0  0  0
 14  6  1  0  0  0  0
 15  8  1  0  0  0  0
 16  9  1  0  0  0  0
 18 19  2  0  0  0  0
 20 18  1  0  0  0  0
 21 22  1  0  0  0  0
 21 27  1  0  0  0  0
 21 23  1  0  0  0  0
 24 25  1  0  0  0  0
 25 29  1  0  0  0  0
 26 25  2  0  0  0  0
 26 30  1  0  0  0  0
 27 26  1  0  0  0  0
 28 27  1  0  0  0  0
 28 24  2  0  0  0  0
 31 36  2  0  0  0  0
 31 32  1  0  0  0  0
 32 33  2  0  0  0  0
 33 34  1  0  0  0  0
 33 39  1  0  0  0  0
 35 24  1  0  0  0  0
 35 34  2  0  0  0  0
 36 35  1  0  0  0  0
 37 31  1  0  0  0  0
 38 32  1  0  0  0  0
 40 39  1  0  0  0  0
M  END
>  <minimizedAffinity>
-6.05873299

$$$$

 OpenBabel03252506293D

 40 43  0  0  0  0  0  0  0  0999 V2000
   35.8580   29.7460   38.7540 C   0  0  0  0  0  0  0  0  0  0  0  0
   35.3020   30.5610   39.2730 H   0  0  0  0  0  0  0  0  0  0  0  0
   35.0770   29.2120   38.1600 H   0  0  0  0  0  0  0  0  0  0  0  0
   36.9630   27.6250   39.6780 C   0  0  0  0  0  0  0  0  0  0  0  0
   36.4070   28.8780   39.7910 C   0  0  0  0  0  0  0  0  0  0  0  0
   36.3490   29.4170   41.0800 C   0  0  0  0  0  0  0  0  0  0  0  0
   36.8220   28.7290   42.1690 C   0  0  0  0  0  0  0  0  0  0  0  0
   36.8970   28.9840   43.4790 N   0  0  0  0  0  0  0  0  0  0  0  0
   37.4590   27.9680   44.1450 C   0  0  0  0  0  0  0  0  0  0  0  0
   37.7800   26.9750   43.2370 C   0  0  0  0  0  0  0  0  0  0  0  0
   37.3710   27.4850   42.0340 C   0  0  0  0  0  0  0  0  0  0  0  0
   37.4340   26.9450   40.7760 C   0  0  0  0  0  0  0  0  0  0  0  0
   36.9870   27.2450   38.6550 H   0  0  0  0  0  0  0  0  0  0  0  0
   35.9360   30.3930   41.3070 H   0  0  0  0  0  0  0  0  0  0  0  0
   36.5750   29.8460   43.9720 H   0  0  0  0  0  0  0  0  0  0  0  0
   37.6530   27.8900   45.2260 H   0  0  0  0  0  0  0  0  0  0  0  0
   38.2400   26.0520   43.4970 H   0  0  0  0  0  0  0  0  0  0  0  0
   38.0090   25.6210   40.5680 C   0  0  0  0  0  0  0  0  0  0  0  0
   38.7140   25.3470   39.5770 O   0  0  0  0  0  0  0  0  0  0  0  0
   37.8370   24.8260   41.2800 H   0  0  0  0  0  0  0  0  0  0  0  0
   36.8270   30.3600   37.8100 C   0  0  0  0  0  0  0  0  0  0  0  0
   36.3150   30.7300   36.9240 H   0  0  0  0  0  0  0  0  0  0  0  0
   37.5710   29.5920   37.5430 H   0  0  0  0  0  0  0  0  0  0  0  0
   39.2740   32.5930   39.1660 C   0  0  0  0  0  0  0  0  0  0  0  0
   38.0660   33.2110   39.5560 C   0  0  0  0  0  0  0  0  0  0  0  0
   37.0400   32.4670   39.1050 C   0  0  0  0  0  0  0  0  0  0  0  0
   37.5710   31.4300   38.4630 N   0  0  0  0  0  0  0  0  0  0  0  0
   38.9060   31.4850   38.4870 N   0  0  0  0  0  0  0  0  0  0  0  0
   38.0540   34.1390   40.1260 H   0  0  0  0  0  0  0  0  0  0  0  0
   35.9820   32.6570   39.2290 H   0  0  0  0  0  0  0  0  0  0  0  0
   42.5890   34.0560   38.7260 C   0  0  0  0  0  0  0  0  0  0  0  0
   43.1210   34.0560   40.0180 C   0  0  0  0  0  0  0  0  0  0  0  0
   42.3110   33.5410   41.0440 C   0  0  0  0  0  0  0  0  0  0  0  0
   41.0870   33.0890   40.6970 N   0  0  0  0  0  0  0  0  0  0  0  0
   40.6050   33.0990   39.4670 C   0  0  0  0  0  0  0  0  0  0  0  0
   41.3600   33.5850   38.4650 N   0  0  0  0  0  0  0  0  0  0  0  0
   43.2520   34.4650   37.9560 H   0  0  0  0  0  0  0  0  0  0  0  0
   44.0970   34.4170   40.2980 H   0  0  0  0  0  0  0  0  0  0  0  0
   42.6720   33.4650   42.3690 O   0  0  0  0  0  0  0  0  0  0  0  0
   43.4870   33.9800   42.6600 H   0  0  0  0  0  0  0  0  0  0  0  0
  1  2  1  0  0  0  0
  1  5  1  0  0  0  0
  3  1  1  0  0  0  0
  4  5  2  0  0  0  0
  4 12  1  0  0  0  0
  5  6  1  0  0  0  0
  6 14  1  0  0  0  0
  6  7  2  0  0  0  0
  7  8  1  0  0  0  0
  8 15  1  0  0  0  0
  8  9  1  0  0  0  0
  9 16  1  0  0  0  0
 10 17  1  0  0  0  0
 10  9  2  0  0  0  0
 11  7  1  0  0  0  0
 11 10  1  0  0  0  0
 12 11  2  0  0  0  0
 13  4  1  0  0  0  0
 18 12  1  0  0  0  0
 18 20  1  0  0  0  0
 19 18  2  0  0  0  0
 21 27  1  0  0  0  0
 21  1  1  0  0  0  0
 22 21  1  0  0  0  0
 23 21  1  0  0  0  0
 24 35  1  0  0  0  0
 24 25  1  0  0  0  0
 25 29  1  0  0  0  0
 26 30  1  0  0  0  0
 26 25  2  0  0  0  0
 27 28  1  0  0  0  0
 27 26  1  0  0  0  0
 28 24  2  0  0  0  0
 31 32  1  0  0  0  0
 32 38  1  0  0  0  0
 32 33  2  0  0  0  0
 33 39  1  0  0  0  0
 34 33  1  0  0  0  0
 35 34  2  0  0  0  0
 36 31  2  0  0  0  0
 36 35  1  0  0  0  0
 37 31  1  0  0  0  0
 39 40  1  0  0  0  0
M  END
>  <minimizedAffinity>
-5.99261236

$$$$

 OpenBabel03252506293D

 40 43  0  0  0  0  0  0  0  0999 V2000
   35.5450   28.9260   38.6870 C   0  0  0  0  0  0  0  0  0  0  0  0
   35.3920   29.9160   39.1760 H   0  0  0  0  0  0  0  0  0  0  0  0
   34.5190   28.6050   38.3830 H   0  0  0  0  0  0  0  0  0  0  0  0
   36.4980   28.3090   40.9860 C   0  0  0  0  0  0  0  0  0  0  0  0
   36.0910   28.0310   39.7020 C   0  0  0  0  0  0  0  0  0  0  0  0
   36.2100   26.7000   39.2890 C   0  0  0  0  0  0  0  0  0  0  0  0
   36.7060   25.7300   40.1220 C   0  0  0  0  0  0  0  0  0  0  0  0
   36.9290   24.4170   40.0060 N   0  0  0  0  0  0  0  0  0  0  0  0
   37.4380   23.9030   41.1320 C   0  0  0  0  0  0  0  0  0  0  0  0
   37.5670   24.9240   42.0580 C   0  0  0  0  0  0  0  0  0  0  0  0
   37.1050   26.0290   41.3940 C   0  0  0  0  0  0  0  0  0  0  0  0
   36.9940   27.3290   41.8120 C   0  0  0  0  0  0  0  0  0  0  0  0
   36.3880   29.3590   41.2640 H   0  0  0  0  0  0  0  0  0  0  0  0
   35.9260   26.3470   38.3030 H   0  0  0  0  0  0  0  0  0  0  0  0
   36.7470   23.8200   39.1690 H   0  0  0  0  0  0  0  0  0  0  0  0
   37.7220   22.8580   41.3340 H   0  0  0  0  0  0  0  0  0  0  0  0
   37.9480   24.7940   43.0420 H   0  0  0  0  0  0  0  0  0  0  0  0
   37.4030   27.7100   43.1590 C   0  0  0  0  0  0  0  0  0  0  0  0
   36.6200   27.6820   44.1290 O   0  0  0  0  0  0  0  0  0  0  0  0
   38.4150   28.0350   43.3580 H   0  0  0  0  0  0  0  0  0  0  0  0
   36.3570   29.1250   37.4590 C   0  0  0  0  0  0  0  0  0  0  0  0
   35.7990   29.6990   36.7210 H   0  0  0  0  0  0  0  0  0  0  0  0
   36.6230   28.1310   37.0660 H   0  0  0  0  0  0  0  0  0  0  0  0
   38.9990   31.3170   38.4720 C   0  0  0  0  0  0  0  0  0  0  0  0
   39.7140   30.1850   38.0240 C   0  0  0  0  0  0  0  0  0  0  0  0
   38.8310   29.2600   37.6050 C   0  0  0  0  0  0  0  0  0  0  0  0
   37.6190   29.7810   37.7790 N   0  0  0  0  0  0  0  0  0  0  0  0
   37.6950   31.0100   38.2970 N   0  0  0  0  0  0  0  0  0  0  0  0
   40.8020   30.1470   38.0470 H   0  0  0  0  0  0  0  0  0  0  0  0
   39.0440   28.2790   37.2030 H   0  0  0  0  0  0  0  0  0  0  0  0
   41.3220   34.0940   38.9360 C   0  0  0  0  0  0  0  0  0  0  0  0
   40.7610   34.8180   39.9910 C   0  0  0  0  0  0  0  0  0  0  0  0
   39.5630   34.3270   40.5380 C   0  0  0  0  0  0  0  0  0  0  0  0
   39.0540   33.1980   40.0010 N   0  0  0  0  0  0  0  0  0  0  0  0
   39.6040   32.5300   39.0020 C   0  0  0  0  0  0  0  0  0  0  0  0
   40.7510   32.9770   38.4590 N   0  0  0  0  0  0  0  0  0  0  0  0
   42.2540   34.5100   38.5380 H   0  0  0  0  0  0  0  0  0  0  0  0
   41.1640   35.7200   40.4220 H   0  0  0  0  0  0  0  0  0  0  0  0
   38.8750   34.9110   41.5770 O   0  0  0  0  0  0  0  0  0  0  0  0
   39.1350   35.8480   41.8400 H   0  0  0  0  0  0  0  0  0  0  0  0
  1  2  1  0  0  0  0
  1  5  1  0  0  0  0
  3  1  1  0  0  0  0
  4 13  1  0  0  0  0
  4 12  1  0  0  0  0
  5  4  2  0  0  0  0
  6  5  1  0  0  0  0
  6  7  2  0  0  0  0
  7 11  1  0  0  0  0
  8  7  1  0  0  0  0
  8  9  1  0  0  0  0
  9 16  1  0  0  0  0
  9 10  2  0  0  0  0
 10 17  1  0  0  0  0
 11 12  2  0  0  0  0
 11 10  1  0  0  0  0
 12 18  1  0  0  0  0
 14  6  1  0  0  0  0
 15  8  1  0  0  0  0
 18 20  1  0  0  0  0
 18 19  2  0  0  0  0
 21 27  1  0  0  0  0
 21  1  1  0  0  0  0
 22 21  1  0  0  0  0
 23 21  1  0  0  0  0
 24 35  1  0  0  0  0
 25 29  1  0  0  0  0
 25 24  1  0  0  0  0
 26 27  1  0  0  0  0
 26 25  2  0  0  0  0
 27 28  1  0  0  0  0
 28 24  2  0  0  0  0
 30 26  1  0  0  0  0
 31 32  1  0  0  0  0
 32 38  1  0  0  0  0
 32 33  2  0  0  0  0
 33 39  1  0  0  0  0
 34 33  1  0  0  0  0
 35 34  2  0  0  0  0
 36 31  2  0  0  0  0
 36 35  1  0  0  0  0
 37 31  1  0  0  0  0
 39 40  1  0  0  0  0
M  END
>  <minimizedAffinity>
-5.92942762

$$$$
