
 OpenBabel03252509353D

 37 38  0  0  1  0  0  0  0  0999 V2000
   46.5780   34.8940   43.2280 O   0  0  0  0  0  0  0  0  0  0  0  0
   46.8190   33.9650   42.2100 C   0  0  1  0  0  0  0  0  0  0  0  0
   46.0980   34.3970   40.9300 C   0  0  0  0  0  0  0  0  0  0  0  0
   46.7230   33.4610   39.9280 C   0  0  0  0  0  0  0  0  0  0  0  0
   48.1000   33.1350   40.4600 C   0  0  0  0  0  0  0  0  0  0  0  0
   48.2390   33.9570   41.7320 C   0  0  1  0  0  0  0  0  0  0  0  0
   46.4680   32.9610   42.4310 H   0  0  0  0  0  0  0  0  0  0  0  0
   45.0060   34.1700   41.0000 H   0  0  0  0  0  0  0  0  0  0  0  0
   46.1880   35.4550   40.7070 H   0  0  0  0  0  0  0  0  0  0  0  0
   46.1040   32.5470   39.7940 H   0  0  0  0  0  0  0  0  0  0  0  0
   46.8790   34.0220   38.9800 H   0  0  0  0  0  0  0  0  0  0  0  0
   48.0980   32.0610   40.7280 H   0  0  0  0  0  0  0  0  0  0  0  0
   48.9000   33.3660   39.7550 H   0  0  0  0  0  0  0  0  0  0  0  0
   48.8430   33.4210   42.5070 H   0  0  0  0  0  0  0  0  0  0  0  0
   48.7720   35.3370   41.4540 C   0  0  0  0  0  0  0  0  0  0  0  0
   47.9980   36.1200   41.3660 H   0  0  0  0  0  0  0  0  0  0  0  0
   49.3280   35.2900   40.4750 H   0  0  0  0  0  0  0  0  0  0  0  0
   49.6520   35.7660   42.4210 O   0  0  0  0  0  0  0  0  0  0  0  0
   49.1270   35.9830   43.2420 H   0  0  0  0  0  0  0  0  0  0  0  0
   44.7760   35.3210   45.0230 O   0  0  0  0  0  0  0  0  0  0  0  0
   45.5930   34.2120   44.3920 P   0  0  1  0  0  0  0  0  0  0  0  0
   44.5880   33.0440   43.6870 O   0  0  0  0  0  0  0  0  0  0  0  0
   43.6530   33.3580   43.7840 H   0  0  0  0  0  0  0  0  0  0  0  0
   46.5000   33.4170   45.5420 O   0  0  0  0  0  0  0  0  0  0  0  0
   46.1650   32.0990   45.5430 C   0  0  0  0  0  0  0  0  0  0  0  0
   45.3860   31.7620   44.8690 H   0  0  0  0  0  0  0  0  0  0  0  0
   47.0950   31.5450   45.2140 H   0  0  0  0  0  0  0  0  0  0  0  0
   45.6180   31.9740   49.2210 C   0  0  0  0  0  0  0  0  0  0  0  0
   45.8980   32.5030   47.9560 C   0  0  0  0  0  0  0  0  0  0  0  0
   45.8710   31.5890   46.8920 C   0  0  0  0  0  0  0  0  0  0  0  0
   45.5800   30.2740   47.1390 N   0  0  0  0  0  0  0  0  0  0  0  0
   45.3160   29.8080   48.3770 C   0  0  0  0  0  0  0  0  0  0  0  0
   45.3360   30.6580   49.4020 N   0  0  0  0  0  0  0  0  0  0  0  0
   45.6160   32.6050   50.1000 H   0  0  0  0  0  0  0  0  0  0  0  0
   46.1190   33.5510   47.8390 H   0  0  0  0  0  0  0  0  0  0  0  0
   45.0430   28.4470   48.4340 O   0  0  0  0  0  0  0  0  0  0  0  0
   44.3570   28.0690   49.1050 H   0  0  0  0  0  0  0  0  0  0  0  0
  1 21  1  0  0  0  0
  2  7  1  1  0  0  0
  2  1  1  0  0  0  0
  3  8  1  0  0  0  0
  3  2  1  0  0  0  0
  4  5  1  0  0  0  0
  4  3  1  0  0  0  0
  5 12  1  0  0  0  0
  5  6  1  0  0  0  0
  6  2  1  0  0  0  0
  6 14  1  1  0  0  0
  9  3  1  0  0  0  0
 10  4  1  0  0  0  0
 11  4  1  0  0  0  0
 13  5  1  0  0  0  0
 15  6  1  0  0  0  0
 15 18  1  0  0  0  0
 16 15  1  0  0  0  0
 17 15  1  0  0  0  0
 18 19  1  0  0  0  0
 21 20  2  1  0  0  0
 21 24  1  0  0  0  0
 22 23  1  0  0  0  0
 22 21  1  0  0  0  0
 24 25  1  0  0  0  0
 25 30  1  0  0  0  0
 26 25  1  0  0  0  0
 27 25  1  0  0  0  0
 28 33  1  0  0  0  0
 28 34  1  0  0  0  0
 29 28  2  0  0  0  0
 30 31  2  0  0  0  0
 30 29  1  0  0  0  0
 31 32  1  0  0  0  0
 32 36  1  0  0  0  0
 32 33  2  0  0  0  0
 35 29  1  0  0  0  0
 36 37  1  0  0  0  0
M  END
>  <minimizedAffinity>
-5.22413254

>  <minimizedRMSD>
0.0990221351

$$$$
