
 OpenBabel03242516123D

 32 34  0  0  0  0  0  0  0  0999 V2000
   37.4110   27.7540   42.2840 C   0  0  0  0  0  0  0  0  0  0  0  0
   38.0030   27.6070   43.6790 C   0  0  0  0  0  0  0  0  0  0  0  0
   36.5800   27.3840   43.4420 C   0  0  0  0  0  0  0  0  0  0  0  0
   38.6990   26.8040   43.9120 H   0  0  0  0  0  0  0  0  0  0  0  0
   38.3330   28.5750   44.1400 H   0  0  0  0  0  0  0  0  0  0  0  0
   35.8700   28.1470   43.8440 H   0  0  0  0  0  0  0  0  0  0  0  0
   36.1560   26.3560   43.4470 H   0  0  0  0  0  0  0  0  0  0  0  0
   37.8140   26.6650   41.3300 C   0  0  0  0  0  0  0  0  0  0  0  0
   37.5540   26.9630   39.8710 C   0  0  0  0  0  0  0  0  0  0  0  0
   38.1860   25.7840   39.1160 C   0  0  0  0  0  0  0  0  0  0  0  0
   37.3260   24.7130   39.2860 O   0  0  0  0  0  0  0  0  0  0  0  0
   37.5480   24.3140   40.6280 C   0  0  0  0  0  0  0  0  0  0  0  0
   37.0100   25.3850   41.5600 C   0  0  0  0  0  0  0  0  0  0  0  0
   38.8870   26.3860   41.4120 H   0  0  0  0  0  0  0  0  0  0  0  0
   36.4880   27.0570   39.6230 H   0  0  0  0  0  0  0  0  0  0  0  0
   38.1620   27.8450   39.5190 H   0  0  0  0  0  0  0  0  0  0  0  0
   38.2720   26.1000   38.0520 H   0  0  0  0  0  0  0  0  0  0  0  0
   39.1710   25.6230   39.5980 H   0  0  0  0  0  0  0  0  0  0  0  0
   38.6400   24.2420   40.7850 H   0  0  0  0  0  0  0  0  0  0  0  0
   37.0120   23.3780   40.7630 H   0  0  0  0  0  0  0  0  0  0  0  0
   35.9630   25.5900   41.2550 H   0  0  0  0  0  0  0  0  0  0  0  0
   37.0850   25.0300   42.5920 H   0  0  0  0  0  0  0  0  0  0  0  0
   36.1050   29.6350   41.3130 C   0  0  0  0  0  0  0  0  0  0  0  0
   37.3300   29.1410   41.7280 C   0  0  0  0  0  0  0  0  0  0  0  0
   38.4860   29.9650   41.6170 C   0  0  0  0  0  0  0  0  0  0  0  0
   38.3120   31.2150   41.0980 N   0  0  0  0  0  0  0  0  0  0  0  0
   37.1130   31.6460   40.7110 C   0  0  0  0  0  0  0  0  0  0  0  0
   36.0190   30.8930   40.8060 N   0  0  0  0  0  0  0  0  0  0  0  0
   35.2410   28.9900   41.4070 H   0  0  0  0  0  0  0  0  0  0  0  0
   39.4270   29.5850   41.9360 H   0  0  0  0  0  0  0  0  0  0  0  0
   36.8780   32.9160   40.1720 O   0  0  0  0  0  0  0  0  0  0  0  0
   37.6640   33.5350   40.1780 H   0  0  0  0  0  0  0  0  0  0  0  0
  1  3  1  0  0  0  0
  1  2  1  0  0  0  0
  2  4  1  0  0  0  0
  2  5  1  0  0  0  0
  3  7  1  0  0  0  0
  3  2  1  0  0  0  0
  3  6  1  0  0  0  0
  8 14  1  0  0  0  0
  8 13  1  0  0  0  0
  8  1  1  0  0  0  0
  9  8  1  0  0  0  0
 10 11  1  0  0  0  0
 10 18  1  0  0  0  0
 10  9  1  0  0  0  0
 11 12  1  0  0  0  0
 12 20  1  0  0  0  0
 12 19  1  0  0  0  0
 12 13  1  0  0  0  0
 13 22  1  0  0  0  0
 15  9  1  0  0  0  0
 16  9  1  0  0  0  0
 17 10  1  0  0  0  0
 21 13  1  0  0  0  0
 23 29  1  0  0  0  0
 23 24  1  0  0  0  0
 24  1  1  0  0  0  0
 25 24  2  0  0  0  0
 25 30  1  0  0  0  0
 26 25  1  0  0  0  0
 27 28  1  0  0  0  0
 27 26  2  0  0  0  0
 28 23  2  0  0  0  0
 31 32  1  0  0  0  0
 31 27  1  0  0  0  0
M  END
>  <minimizedAffinity>
-4.95648193

$$$$

 OpenBabel03242516123D

 32 34  0  0  0  0  0  0  0  0999 V2000
   36.1190   29.1130   40.2210 C   0  0  0  0  0  0  0  0  0  0  0  0
   34.6290   29.2540   39.9360 C   0  0  0  0  0  0  0  0  0  0  0  0
   35.4730   28.3960   39.1090 C   0  0  0  0  0  0  0  0  0  0  0  0
   33.8860   28.8650   40.6280 H   0  0  0  0  0  0  0  0  0  0  0  0
   34.3320   30.2630   39.5470 H   0  0  0  0  0  0  0  0  0  0  0  0
   35.6860   28.7410   38.0680 H   0  0  0  0  0  0  0  0  0  0  0  0
   35.4150   27.2890   39.1930 H   0  0  0  0  0  0  0  0  0  0  0  0
   36.4320   28.3390   41.4710 C   0  0  0  0  0  0  0  0  0  0  0  0
   37.3450   29.0440   42.4490 C   0  0  0  0  0  0  0  0  0  0  0  0
   37.3770   28.1240   43.6800 C   0  0  0  0  0  0  0  0  0  0  0  0
   38.1890   27.0560   43.3390 O   0  0  0  0  0  0  0  0  0  0  0  0
   37.3840   26.2890   42.4610 C   0  0  0  0  0  0  0  0  0  0  0  0
   37.2000   27.0530   41.1620 C   0  0  0  0  0  0  0  0  0  0  0  0
   35.5260   28.0400   42.0400 H   0  0  0  0  0  0  0  0  0  0  0  0
   38.3590   29.2130   42.0630 H   0  0  0  0  0  0  0  0  0  0  0  0
   36.8680   29.9840   42.8480 H   0  0  0  0  0  0  0  0  0  0  0  0
   37.7930   28.7300   44.5150 H   0  0  0  0  0  0  0  0  0  0  0  0
   36.3240   27.8240   43.8480 H   0  0  0  0  0  0  0  0  0  0  0  0
   36.3910   26.1660   42.9290 H   0  0  0  0  0  0  0  0  0  0  0  0
   37.9190   25.3580   42.2900 H   0  0  0  0  0  0  0  0  0  0  0  0
   38.2100   27.3450   40.8060 H   0  0  0  0  0  0  0  0  0  0  0  0
   36.6690   26.4180   40.4460 H   0  0  0  0  0  0  0  0  0  0  0  0
   38.0290   30.1860   39.0450 C   0  0  0  0  0  0  0  0  0  0  0  0
   36.9760   30.3060   39.9350 C   0  0  0  0  0  0  0  0  0  0  0  0
   36.7320   31.5630   40.5590 C   0  0  0  0  0  0  0  0  0  0  0  0
   37.5680   32.5920   40.2330 N   0  0  0  0  0  0  0  0  0  0  0  0
   38.5690   32.4280   39.3710 C   0  0  0  0  0  0  0  0  0  0  0  0
   38.8150   31.2620   38.7770 N   0  0  0  0  0  0  0  0  0  0  0  0
   38.1950   29.2210   38.5830 H   0  0  0  0  0  0  0  0  0  0  0  0
   35.9220   31.6550   41.2430 H   0  0  0  0  0  0  0  0  0  0  0  0
   39.4550   33.4460   39.0030 O   0  0  0  0  0  0  0  0  0  0  0  0
   39.2350   34.3540   39.3610 H   0  0  0  0  0  0  0  0  0  0  0  0
  1  8  1  0  0  0  0
  2  1  1  0  0  0  0
  2  4  1  0  0  0  0
  3  7  1  0  0  0  0
  3  2  1  0  0  0  0
  3  1  1  0  0  0  0
  5  2  1  0  0  0  0
  6  3  1  0  0  0  0
  8 14  1  0  0  0  0
  8  9  1  0  0  0  0
  9 16  1  0  0  0  0
  9 10  1  0  0  0  0
 10 18  1  0  0  0  0
 10 17  1  0  0  0  0
 11 10  1  0  0  0  0
 12 19  1  0  0  0  0
 12 11  1  0  0  0  0
 13  8  1  0  0  0  0
 13 12  1  0  0  0  0
 15  9  1  0  0  0  0
 20 12  1  0  0  0  0
 21 13  1  0  0  0  0
 22 13  1  0  0  0  0
 23 24  1  0  0  0  0
 24  1  1  0  0  0  0
 24 25  2  0  0  0  0
 25 30  1  0  0  0  0
 26 25  1  0  0  0  0
 27 26  2  0  0  0  0
 28 23  2  0  0  0  0
 28 27  1  0  0  0  0
 29 23  1  0  0  0  0
 31 32  1  0  0  0  0
 31 27  1  0  0  0  0
M  END
>  <minimizedAffinity>
-4.86261511

$$$$

 OpenBabel03242516123D

 32 34  0  0  0  0  0  0  0  0999 V2000
   36.1770   29.0380   39.8290 C   0  0  0  0  0  0  0  0  0  0  0  0
   34.6740   29.1910   39.6380 C   0  0  0  0  0  0  0  0  0  0  0  0
   35.3810   28.0240   39.1170 C   0  0  0  0  0  0  0  0  0  0  0  0
   33.9920   29.1420   40.4840 H   0  0  0  0  0  0  0  0  0  0  0  0
   34.3850   30.0130   38.9310 H   0  0  0  0  0  0  0  0  0  0  0  0
   35.4960   27.9510   38.0070 H   0  0  0  0  0  0  0  0  0  0  0  0
   35.2790   27.0310   39.6060 H   0  0  0  0  0  0  0  0  0  0  0  0
   36.5870   28.7430   41.2450 C   0  0  0  0  0  0  0  0  0  0  0  0
   37.8210   29.4760   41.7210 C   0  0  0  0  0  0  0  0  0  0  0  0
   37.9280   29.1270   43.2130 C   0  0  0  0  0  0  0  0  0  0  0  0
   38.4000   27.8270   43.2690 O   0  0  0  0  0  0  0  0  0  0  0  0
   37.2780   27.0450   42.8980 C   0  0  0  0  0  0  0  0  0  0  0  0
   36.9780   27.2760   41.4270 C   0  0  0  0  0  0  0  0  0  0  0  0
   35.7860   28.9530   41.9860 H   0  0  0  0  0  0  0  0  0  0  0  0
   38.7370   29.1900   41.1870 H   0  0  0  0  0  0  0  0  0  0  0  0
   37.6540   30.5910   41.7330 H   0  0  0  0  0  0  0  0  0  0  0  0
   38.6370   29.8600   43.6590 H   0  0  0  0  0  0  0  0  0  0  0  0
   36.8990   29.2250   43.6110 H   0  0  0  0  0  0  0  0  0  0  0  0
   36.4090   27.3970   43.4830 H   0  0  0  0  0  0  0  0  0  0  0  0
   37.5520   26.0090   43.0790 H   0  0  0  0  0  0  0  0  0  0  0  0
   37.9220   27.1100   40.8690 H   0  0  0  0  0  0  0  0  0  0  0  0
   36.1800   26.5950   41.1150 H   0  0  0  0  0  0  0  0  0  0  0  0
   38.0540   29.4490   38.2500 C   0  0  0  0  0  0  0  0  0  0  0  0
   37.0540   29.9690   39.0540 C   0  0  0  0  0  0  0  0  0  0  0  0
   36.8840   31.3810   39.1250 C   0  0  0  0  0  0  0  0  0  0  0  0
   37.7330   32.1490   38.3810 N   0  0  0  0  0  0  0  0  0  0  0  0
   38.6800   31.6020   37.6230 C   0  0  0  0  0  0  0  0  0  0  0  0
   38.8570   30.2850   37.5410 N   0  0  0  0  0  0  0  0  0  0  0  0
   38.1650   28.3720   38.2130 H   0  0  0  0  0  0  0  0  0  0  0  0
   36.1160   31.7810   39.7430 H   0  0  0  0  0  0  0  0  0  0  0  0
   39.5770   32.3400   36.8420 O   0  0  0  0  0  0  0  0  0  0  0  0
   39.4050   33.3260   36.8100 H   0  0  0  0  0  0  0  0  0  0  0  0
  1  8  1  0  0  0  0
  2  1  1  0  0  0  0
  2  4  1  0  0  0  0
  3  7  1  0  0  0  0
  3  2  1  0  0  0  0
  3  1  1  0  0  0  0
  5  2  1  0  0  0  0
  6  3  1  0  0  0  0
  8 13  1  0  0  0  0
  8  9  1  0  0  0  0
  8 14  1  0  0  0  0
  9 16  1  0  0  0  0
  9 10  1  0  0  0  0
 10 11  1  0  0  0  0
 10 18  1  0  0  0  0
 10 17  1  0  0  0  0
 12 20  1  0  0  0  0
 12 11  1  0  0  0  0
 12 19  1  0  0  0  0
 13 12  1  0  0  0  0
 15  9  1  0  0  0  0
 21 13  1  0  0  0  0
 22 13  1  0  0  0  0
 23 24  1  0  0  0  0
 24 25  2  0  0  0  0
 24  1  1  0  0  0  0
 25 30  1  0  0  0  0
 26 25  1  0  0  0  0
 27 26  2  0  0  0  0
 28 27  1  0  0  0  0
 28 23  2  0  0  0  0
 29 23  1  0  0  0  0
 31 27  1  0  0  0  0
 32 31  1  0  0  0  0
M  END
>  <minimizedAffinity>
-4.85358047

$$$$

 OpenBabel03242516123D

 32 34  0  0  0  0  0  0  0  0999 V2000
   37.7280   27.6050   42.5910 C   0  0  0  0  0  0  0  0  0  0  0  0
   36.6690   27.3870   43.6640 C   0  0  0  0  0  0  0  0  0  0  0  0
   37.3740   28.6610   43.5540 C   0  0  0  0  0  0  0  0  0  0  0  0
   35.6210   27.2640   43.4020 H   0  0  0  0  0  0  0  0  0  0  0  0
   36.9740   26.6650   44.4660 H   0  0  0  0  0  0  0  0  0  0  0  0
   38.1110   28.9080   44.3570 H   0  0  0  0  0  0  0  0  0  0  0  0
   36.8630   29.5610   43.1460 H   0  0  0  0  0  0  0  0  0  0  0  0
   37.1740   27.7080   41.1970 C   0  0  0  0  0  0  0  0  0  0  0  0
   37.8780   26.8580   40.1640 C   0  0  0  0  0  0  0  0  0  0  0  0
   37.0370   27.0240   38.8890 C   0  0  0  0  0  0  0  0  0  0  0  0
   37.3370   28.2800   38.3920 O   0  0  0  0  0  0  0  0  0  0  0  0
   36.6560   29.1600   39.2700 C   0  0  0  0  0  0  0  0  0  0  0  0
   37.3280   29.1200   40.6310 C   0  0  0  0  0  0  0  0  0  0  0  0
   36.0940   27.4560   41.1350 H   0  0  0  0  0  0  0  0  0  0  0  0
   38.9200   27.1550   39.9840 H   0  0  0  0  0  0  0  0  0  0  0  0
   37.7720   25.7610   40.3970 H   0  0  0  0  0  0  0  0  0  0  0  0
   37.3450   26.2050   38.2000 H   0  0  0  0  0  0  0  0  0  0  0  0
   35.9840   26.9350   39.2200 H   0  0  0  0  0  0  0  0  0  0  0  0
   35.6220   28.7890   39.3890 H   0  0  0  0  0  0  0  0  0  0  0  0
   36.7300   30.1510   38.8300 H   0  0  0  0  0  0  0  0  0  0  0  0
   38.4110   29.2990   40.4690 H   0  0  0  0  0  0  0  0  0  0  0  0
   36.8700   29.8760   41.2770 H   0  0  0  0  0  0  0  0  0  0  0  0
   38.9920   25.4750   42.8160 C   0  0  0  0  0  0  0  0  0  0  0  0
   39.0140   26.8580   42.7510 C   0  0  0  0  0  0  0  0  0  0  0  0
   40.2620   27.5380   42.8380 C   0  0  0  0  0  0  0  0  0  0  0  0
   41.3810   26.7700   42.9830 N   0  0  0  0  0  0  0  0  0  0  0  0
   41.3090   25.4420   43.0420 C   0  0  0  0  0  0  0  0  0  0  0  0
   40.1540   24.7850   42.9620 N   0  0  0  0  0  0  0  0  0  0  0  0
   38.0310   24.9800   42.7480 H   0  0  0  0  0  0  0  0  0  0  0  0
   40.2790   28.6010   42.7880 H   0  0  0  0  0  0  0  0  0  0  0  0
   42.4220   24.6070   43.1900 O   0  0  0  0  0  0  0  0  0  0  0  0
   43.3100   25.0680   43.1560 H   0  0  0  0  0  0  0  0  0  0  0  0
  1 24  1  0  0  0  0
  1  3  1  0  0  0  0
  1  2  1  0  0  0  0
  2  5  1  0  0  0  0
  3  2  1  0  0  0  0
  3  6  1  0  0  0  0
  4  2  1  0  0  0  0
  7  3  1  0  0  0  0
  8  1  1  0  0  0  0
  9 16  1  0  0  0  0
  9  8  1  0  0  0  0
 10 18  1  0  0  0  0
 10  9  1  0  0  0  0
 11 10  1  0  0  0  0
 11 12  1  0  0  0  0
 12 19  1  0  0  0  0
 12 13  1  0  0  0  0
 13  8  1  0  0  0  0
 13 22  1  0  0  0  0
 14  8  1  0  0  0  0
 15  9  1  0  0  0  0
 17 10  1  0  0  0  0
 20 12  1  0  0  0  0
 21 13  1  0  0  0  0
 23 28  1  0  0  0  0
 24 23  2  0  0  0  0
 24 25  1  0  0  0  0
 25 26  2  0  0  0  0
 26 27  1  0  0  0  0
 27 31  1  0  0  0  0
 28 27  2  0  0  0  0
 29 23  1  0  0  0  0
 30 25  1  0  0  0  0
 32 31  1  0  0  0  0
M  END
>  <minimizedAffinity>
-4.53908777

$$$$

 OpenBabel03242516123D

 32 34  0  0  0  0  0  0  0  0999 V2000
   39.6370   30.1030   41.7080 C   0  0  0  0  0  0  0  0  0  0  0  0
   40.9820   30.0340   42.4180 C   0  0  0  0  0  0  0  0  0  0  0  0
   39.9610   30.9900   42.8380 C   0  0  0  0  0  0  0  0  0  0  0  0
   41.2600   29.1650   43.0110 H   0  0  0  0  0  0  0  0  0  0  0  0
   41.8450   30.3960   41.8000 H   0  0  0  0  0  0  0  0  0  0  0  0
   40.1530   32.0700   42.6200 H   0  0  0  0  0  0  0  0  0  0  0  0
   39.3870   30.8350   43.7770 H   0  0  0  0  0  0  0  0  0  0  0  0
   38.7430   28.9240   41.9720 C   0  0  0  0  0  0  0  0  0  0  0  0
   37.5320   28.8230   41.0720 C   0  0  0  0  0  0  0  0  0  0  0  0
   36.8880   27.4780   41.4390 C   0  0  0  0  0  0  0  0  0  0  0  0
   36.2530   27.6740   42.6530 O   0  0  0  0  0  0  0  0  0  0  0  0
   37.3200   27.7170   43.5870 C   0  0  0  0  0  0  0  0  0  0  0  0
   38.1200   28.9880   43.3670 C   0  0  0  0  0  0  0  0  0  0  0  0
   39.2720   27.9490   41.9040 H   0  0  0  0  0  0  0  0  0  0  0  0
   36.8160   29.6460   41.2030 H   0  0  0  0  0  0  0  0  0  0  0  0
   37.8340   28.6750   39.9970 H   0  0  0  0  0  0  0  0  0  0  0  0
   36.1770   27.2350   40.6180 H   0  0  0  0  0  0  0  0  0  0  0  0
   37.7290   26.7600   41.5070 H   0  0  0  0  0  0  0  0  0  0  0  0
   37.9820   26.8560   43.3850 H   0  0  0  0  0  0  0  0  0  0  0  0
   36.8640   27.7110   44.5730 H   0  0  0  0  0  0  0  0  0  0  0  0
   37.4020   29.8340   43.3730 H   0  0  0  0  0  0  0  0  0  0  0  0
   38.8770   29.0730   44.1530 H   0  0  0  0  0  0  0  0  0  0  0  0
   39.1100   31.9070   40.0780 C   0  0  0  0  0  0  0  0  0  0  0  0
   39.6380   30.6490   40.3140 C   0  0  0  0  0  0  0  0  0  0  0  0
   40.1690   29.9020   39.2250 C   0  0  0  0  0  0  0  0  0  0  0  0
   40.1250   30.4840   37.9910 N   0  0  0  0  0  0  0  0  0  0  0  0
   39.6070   31.6970   37.8130 C   0  0  0  0  0  0  0  0  0  0  0  0
   39.1050   32.4130   38.8170 N   0  0  0  0  0  0  0  0  0  0  0  0
   38.7120   32.4560   40.9220 H   0  0  0  0  0  0  0  0  0  0  0  0
   40.5740   28.9350   39.4060 H   0  0  0  0  0  0  0  0  0  0  0  0
   39.5360   32.3410   36.5720 O   0  0  0  0  0  0  0  0  0  0  0  0
   39.9920   31.8660   35.8180 H   0  0  0  0  0  0  0  0  0  0  0  0
  1  8  1  0  0  0  0
  1  2  1  0  0  0  0
  1  3  1  0  0  0  0
  2  3  1  0  0  0  0
  2  4  1  0  0  0  0
  3  7  1  0  0  0  0
  5  2  1  0  0  0  0
  6  3  1  0  0  0  0
  8 13  1  0  0  0  0
  9 15  1  0  0  0  0
  9 10  1  0  0  0  0
  9  8  1  0  0  0  0
 10 18  1  0  0  0  0
 10 11  1  0  0  0  0
 11 12  1  0  0  0  0
 12 20  1  0  0  0  0
 13 21  1  0  0  0  0
 13 12  1  0  0  0  0
 13 22  1  0  0  0  0
 14  8  1  0  0  0  0
 16  9  1  0  0  0  0
 17 10  1  0  0  0  0
 19 12  1  0  0  0  0
 23 24  1  0  0  0  0
 23 29  1  0  0  0  0
 24  1  1  0  0  0  0
 25 30  1  0  0  0  0
 25 24  2  0  0  0  0
 26 25  1  0  0  0  0
 27 26  2  0  0  0  0
 27 28  1  0  0  0  0
 28 23  2  0  0  0  0
 31 27  1  0  0  0  0
 32 31  1  0  0  0  0
M  END
>  <minimizedAffinity>
-4.53299713

$$$$

 OpenBabel03242516123D

 32 34  0  0  0  0  0  0  0  0999 V2000
   38.5010   31.9130   39.7220 C   0  0  0  0  0  0  0  0  0  0  0  0
   37.2020   32.7060   39.7650 C   0  0  0  0  0  0  0  0  0  0  0  0
   37.2960   31.4630   39.0060 C   0  0  0  0  0  0  0  0  0  0  0  0
   36.6300   32.7980   40.6860 H   0  0  0  0  0  0  0  0  0  0  0  0
   37.2460   33.6840   39.2170 H   0  0  0  0  0  0  0  0  0  0  0  0
   37.2870   31.5440   37.8910 H   0  0  0  0  0  0  0  0  0  0  0  0
   36.8110   30.5330   39.3740 H   0  0  0  0  0  0  0  0  0  0  0  0
   38.8460   31.2320   41.0180 C   0  0  0  0  0  0  0  0  0  0  0  0
   40.2540   30.6880   41.1000 C   0  0  0  0  0  0  0  0  0  0  0  0
   40.3940   30.1940   42.5480 C   0  0  0  0  0  0  0  0  0  0  0  0
   39.6860   29.0060   42.6190 O   0  0  0  0  0  0  0  0  0  0  0  0
   38.3310   29.4220   42.6140 C   0  0  0  0  0  0  0  0  0  0  0  0
   37.9900   29.9850   41.2460 C   0  0  0  0  0  0  0  0  0  0  0  0
   38.7030   31.8830   41.9060 H   0  0  0  0  0  0  0  0  0  0  0  0
   40.4550   29.8730   40.3910 H   0  0  0  0  0  0  0  0  0  0  0  0
   41.0160   31.5150   41.0400 H   0  0  0  0  0  0  0  0  0  0  0  0
   41.4830   30.0550   42.7300 H   0  0  0  0  0  0  0  0  0  0  0  0
   39.9500   30.9930   43.1740 H   0  0  0  0  0  0  0  0  0  0  0  0
   38.2220   30.2340   43.3550 H   0  0  0  0  0  0  0  0  0  0  0  0
   37.7380   28.5360   42.8270 H   0  0  0  0  0  0  0  0  0  0  0  0
   38.2950   29.2290   40.4930 H   0  0  0  0  0  0  0  0  0  0  0  0
   36.9190   30.2080   41.2090 H   0  0  0  0  0  0  0  0  0  0  0  0
   40.0310   31.9400   37.7610 C   0  0  0  0  0  0  0  0  0  0  0  0
   39.6360   32.5170   38.9570 C   0  0  0  0  0  0  0  0  0  0  0  0
   40.3190   33.6730   39.4300 C   0  0  0  0  0  0  0  0  0  0  0  0
   41.3410   34.1510   38.6610 N   0  0  0  0  0  0  0  0  0  0  0  0
   41.6850   33.5610   37.5180 C   0  0  0  0  0  0  0  0  0  0  0  0
   41.0600   32.4800   37.0570 N   0  0  0  0  0  0  0  0  0  0  0  0
   39.4960   31.0620   37.4220 H   0  0  0  0  0  0  0  0  0  0  0  0
   40.0160   34.1160   40.3480 H   0  0  0  0  0  0  0  0  0  0  0  0
   42.7230   34.0070   36.6920 O   0  0  0  0  0  0  0  0  0  0  0  0
   43.1460   34.8710   36.9670 H   0  0  0  0  0  0  0  0  0  0  0  0
  1  2  1  0  0  0  0
  1  8  1  0  0  0  0
  2  4  1  0  0  0  0
  3  7  1  0  0  0  0
  3  1  1  0  0  0  0
  3  2  1  0  0  0  0
  5  2  1  0  0  0  0
  6  3  1  0  0  0  0
  8  9  1  0  0  0  0
  8 13  1  0  0  0  0
  8 14  1  0  0  0  0
  9 10  1  0  0  0  0
 10 11  1  0  0  0  0
 10 17  1  0  0  0  0
 10 18  1  0  0  0  0
 12 11  1  0  0  0  0
 12 20  1  0  0  0  0
 12 19  1  0  0  0  0
 13 12  1  0  0  0  0
 15  9  1  0  0  0  0
 16  9  1  0  0  0  0
 21 13  1  0  0  0  0
 22 13  1  0  0  0  0
 23 24  1  0  0  0  0
 24 25  2  0  0  0  0
 24  1  1  0  0  0  0
 25 30  1  0  0  0  0
 26 25  1  0  0  0  0
 27 26  2  0  0  0  0
 28 27  1  0  0  0  0
 28 23  2  0  0  0  0
 29 23  1  0  0  0  0
 31 32  1  0  0  0  0
 31 27  1  0  0  0  0
M  END
>  <minimizedAffinity>
-4.52574635

$$$$

 OpenBabel03242516123D

 32 34  0  0  0  0  0  0  0  0999 V2000
   37.3130   27.3780   42.3070 C   0  0  0  0  0  0  0  0  0  0  0  0
   37.8090   27.8130   43.6800 C   0  0  0  0  0  0  0  0  0  0  0  0
   36.4430   27.3320   43.4940 C   0  0  0  0  0  0  0  0  0  0  0  0
   38.5720   27.2450   44.2080 H   0  0  0  0  0  0  0  0  0  0  0  0
   37.9900   28.9170   43.7720 H   0  0  0  0  0  0  0  0  0  0  0  0
   35.6220   28.0860   43.5730 H   0  0  0  0  0  0  0  0  0  0  0  0
   36.1400   26.3250   43.8550 H   0  0  0  0  0  0  0  0  0  0  0  0
   37.9100   26.0870   41.8210 C   0  0  0  0  0  0  0  0  0  0  0  0
   38.4710   26.1290   40.4170 C   0  0  0  0  0  0  0  0  0  0  0  0
   39.1450   24.7620   40.2290 C   0  0  0  0  0  0  0  0  0  0  0  0
   38.1200   23.8510   40.0380 O   0  0  0  0  0  0  0  0  0  0  0  0
   37.5660   23.6930   41.3330 C   0  0  0  0  0  0  0  0  0  0  0  0
   36.8620   24.9780   41.7320 C   0  0  0  0  0  0  0  0  0  0  0  0
   38.7220   25.7060   42.4770 H   0  0  0  0  0  0  0  0  0  0  0  0
   37.7100   26.2970   39.6430 H   0  0  0  0  0  0  0  0  0  0  0  0
   39.3330   26.8500   40.3430 H   0  0  0  0  0  0  0  0  0  0  0  0
   39.8060   24.8560   39.3380 H   0  0  0  0  0  0  0  0  0  0  0  0
   39.7080   24.5820   41.1660 H   0  0  0  0  0  0  0  0  0  0  0  0
   38.3980   23.5250   42.0410 H   0  0  0  0  0  0  0  0  0  0  0  0
   36.8600   22.8690   41.2660 H   0  0  0  0  0  0  0  0  0  0  0  0
   36.1670   25.2410   40.9070 H   0  0  0  0  0  0  0  0  0  0  0  0
   36.3450   24.8210   42.6830 H   0  0  0  0  0  0  0  0  0  0  0  0
   38.1790   29.2880   40.9690 C   0  0  0  0  0  0  0  0  0  0  0  0
   37.1190   28.4560   41.2880 C   0  0  0  0  0  0  0  0  0  0  0  0
   35.8660   28.6460   40.6380 C   0  0  0  0  0  0  0  0  0  0  0  0
   35.7860   29.6560   39.7220 N   0  0  0  0  0  0  0  0  0  0  0  0
   36.8340   30.4300   39.4500 C   0  0  0  0  0  0  0  0  0  0  0  0
   38.0140   30.2710   40.0450 N   0  0  0  0  0  0  0  0  0  0  0  0
   39.1210   29.1250   41.4770 H   0  0  0  0  0  0  0  0  0  0  0  0
   35.0520   28.0070   40.8830 H   0  0  0  0  0  0  0  0  0  0  0  0
   36.8090   31.4780   38.5220 O   0  0  0  0  0  0  0  0  0  0  0  0
   35.9640   31.5590   37.9920 H   0  0  0  0  0  0  0  0  0  0  0  0
  1  3  1  0  0  0  0
  1  2  1  0  0  0  0
  2  5  1  0  0  0  0
  2  4  1  0  0  0  0
  3  6  1  0  0  0  0
  3  2  1  0  0  0  0
  3  7  1  0  0  0  0
  8  1  1  0  0  0  0
  8 14  1  0  0  0  0
  9  8  1  0  0  0  0
 10  9  1  0  0  0  0
 10 18  1  0  0  0  0
 11 10  1  0  0  0  0
 11 12  1  0  0  0  0
 12 13  1  0  0  0  0
 12 19  1  0  0  0  0
 13  8  1  0  0  0  0
 13 22  1  0  0  0  0
 15  9  1  0  0  0  0
 16  9  1  0  0  0  0
 17 10  1  0  0  0  0
 20 12  1  0  0  0  0
 21 13  1  0  0  0  0
 23 24  1  0  0  0  0
 23 29  1  0  0  0  0
 24  1  1  0  0  0  0
 25 30  1  0  0  0  0
 25 24  2  0  0  0  0
 26 25  1  0  0  0  0
 27 26  2  0  0  0  0
 27 28  1  0  0  0  0
 28 23  2  0  0  0  0
 31 27  1  0  0  0  0
 32 31  1  0  0  0  0
M  END
>  <minimizedAffinity>
-4.50856113

$$$$

 OpenBabel03242516123D

 32 34  0  0  0  0  0  0  0  0999 V2000
   37.6960   27.5900   42.6290 C   0  0  0  0  0  0  0  0  0  0  0  0
   36.6010   27.4610   43.6790 C   0  0  0  0  0  0  0  0  0  0  0  0
   36.8050   26.4190   42.6780 C   0  0  0  0  0  0  0  0  0  0  0  0
   36.8440   27.3290   44.7310 H   0  0  0  0  0  0  0  0  0  0  0  0
   35.7540   28.1850   43.5480 H   0  0  0  0  0  0  0  0  0  0  0  0
   36.0280   26.3180   41.8810 H   0  0  0  0  0  0  0  0  0  0  0  0
   37.2690   25.4470   42.9530 H   0  0  0  0  0  0  0  0  0  0  0  0
   39.0890   27.4380   43.1750 C   0  0  0  0  0  0  0  0  0  0  0  0
   40.1460   28.2570   42.4700 C   0  0  0  0  0  0  0  0  0  0  0  0
   41.4190   28.0460   43.3030 C   0  0  0  0  0  0  0  0  0  0  0  0
   41.8730   26.7750   42.9950 O   0  0  0  0  0  0  0  0  0  0  0  0
   40.9690   25.9210   43.6780 C   0  0  0  0  0  0  0  0  0  0  0  0
   39.6070   26.0090   43.0130 C   0  0  0  0  0  0  0  0  0  0  0  0
   39.1640   27.6840   44.2560 H   0  0  0  0  0  0  0  0  0  0  0  0
   40.3110   27.9590   41.4250 H   0  0  0  0  0  0  0  0  0  0  0  0
   39.9500   29.3610   42.5810 H   0  0  0  0  0  0  0  0  0  0  0  0
   42.1340   28.8420   42.9950 H   0  0  0  0  0  0  0  0  0  0  0  0
   41.0970   28.1410   44.3580 H   0  0  0  0  0  0  0  0  0  0  0  0
   40.8680   26.2920   44.7140 H   0  0  0  0  0  0  0  0  0  0  0  0
   41.3760   24.9170   43.5970 H   0  0  0  0  0  0  0  0  0  0  0  0
   39.7580   25.8300   41.9280 H   0  0  0  0  0  0  0  0  0  0  0  0
   38.9390   25.2730   43.4710 H   0  0  0  0  0  0  0  0  0  0  0  0
   37.3370   29.9540   41.9430 C   0  0  0  0  0  0  0  0  0  0  0  0
   37.4970   28.6290   41.5710 C   0  0  0  0  0  0  0  0  0  0  0  0
   37.4680   28.2860   40.1900 C   0  0  0  0  0  0  0  0  0  0  0  0
   37.2820   29.3040   39.2990 N   0  0  0  0  0  0  0  0  0  0  0  0
   37.1320   30.5630   39.7050 C   0  0  0  0  0  0  0  0  0  0  0  0
   37.1560   30.9070   40.9910 N   0  0  0  0  0  0  0  0  0  0  0  0
   37.3630   30.1900   42.9990 H   0  0  0  0  0  0  0  0  0  0  0  0
   37.5910   27.2690   39.9040 H   0  0  0  0  0  0  0  0  0  0  0  0
   36.9370   31.6440   38.8370 O   0  0  0  0  0  0  0  0  0  0  0  0
   37.0100   31.4280   37.8620 H   0  0  0  0  0  0  0  0  0  0  0  0
  1  3  1  0  0  0  0
  1  8  1  0  0  0  0
  1  2  1  0  0  0  0
  2  4  1  0  0  0  0
  3  7  1  0  0  0  0
  3  2  1  0  0  0  0
  5  2  1  0  0  0  0
  6  3  1  0  0  0  0
  8 14  1  0  0  0  0
  9 16  1  0  0  0  0
  9  8  1  0  0  0  0
  9 10  1  0  0  0  0
 10 18  1  0  0  0  0
 11 10  1  0  0  0  0
 11 12  1  0  0  0  0
 12 19  1  0  0  0  0
 13  8  1  0  0  0  0
 13 22  1  0  0  0  0
 13 12  1  0  0  0  0
 15  9  1  0  0  0  0
 17 10  1  0  0  0  0
 20 12  1  0  0  0  0
 21 13  1  0  0  0  0
 23 29  1  0  0  0  0
 24 23  1  0  0  0  0
 24  1  1  0  0  0  0
 25 24  2  0  0  0  0
 26 27  2  0  0  0  0
 26 25  1  0  0  0  0
 27 28  1  0  0  0  0
 28 23  2  0  0  0  0
 30 25  1  0  0  0  0
 31 27  1  0  0  0  0
 32 31  1  0  0  0  0
M  END
>  <minimizedAffinity>
-4.4319973

$$$$

 OpenBabel03242516123D

 32 34  0  0  0  0  0  0  0  0999 V2000
   37.8920   27.7330   42.4530 C   0  0  0  0  0  0  0  0  0  0  0  0
   36.9200   27.6990   43.6240 C   0  0  0  0  0  0  0  0  0  0  0  0
   36.4520   27.9790   42.2690 C   0  0  0  0  0  0  0  0  0  0  0  0
   36.7020   26.7700   44.1470 H   0  0  0  0  0  0  0  0  0  0  0  0
   37.0410   28.5500   44.3440 H   0  0  0  0  0  0  0  0  0  0  0  0
   36.1210   29.0230   42.0490 H   0  0  0  0  0  0  0  0  0  0  0  0
   35.8820   27.2160   41.6950 H   0  0  0  0  0  0  0  0  0  0  0  0
   38.4310   26.3840   42.0650 C   0  0  0  0  0  0  0  0  0  0  0  0
   38.9350   26.2800   40.6430 C   0  0  0  0  0  0  0  0  0  0  0  0
   39.5610   24.8800   40.5560 C   0  0  0  0  0  0  0  0  0  0  0  0
   38.5030   23.9900   40.4890 O   0  0  0  0  0  0  0  0  0  0  0  0
   37.9980   23.9680   41.8130 C   0  0  0  0  0  0  0  0  0  0  0  0
   37.3490   25.3060   42.1180 C   0  0  0  0  0  0  0  0  0  0  0  0
   39.2580   26.0380   42.7220 H   0  0  0  0  0  0  0  0  0  0  0  0
   38.1480   26.4020   39.8860 H   0  0  0  0  0  0  0  0  0  0  0  0
   39.8140   26.9630   40.4710 H   0  0  0  0  0  0  0  0  0  0  0  0
   40.1880   24.8720   39.6360 H   0  0  0  0  0  0  0  0  0  0  0  0
   40.1560   24.7680   41.4840 H   0  0  0  0  0  0  0  0  0  0  0  0
   38.8520   23.8380   42.5010 H   0  0  0  0  0  0  0  0  0  0  0  0
   37.2660   23.1650   41.8490 H   0  0  0  0  0  0  0  0  0  0  0  0
   36.6280   25.5160   41.3000 H   0  0  0  0  0  0  0  0  0  0  0  0
   36.8660   25.2530   43.0990 H   0  0  0  0  0  0  0  0  0  0  0  0
   40.1660   28.6830   42.7930 C   0  0  0  0  0  0  0  0  0  0  0  0
   38.8510   28.8810   42.4050 C   0  0  0  0  0  0  0  0  0  0  0  0
   38.4410   30.1730   41.9700 C   0  0  0  0  0  0  0  0  0  0  0  0
   39.3880   31.1570   41.9610 N   0  0  0  0  0  0  0  0  0  0  0  0
   40.6410   30.9180   42.3440 C   0  0  0  0  0  0  0  0  0  0  0  0
   41.0460   29.7180   42.7540 N   0  0  0  0  0  0  0  0  0  0  0  0
   40.4530   27.6920   43.1200 H   0  0  0  0  0  0  0  0  0  0  0  0
   37.4310   30.3250   41.6730 H   0  0  0  0  0  0  0  0  0  0  0  0
   41.6500   31.8870   42.3560 O   0  0  0  0  0  0  0  0  0  0  0  0
   41.3970   32.7720   41.9630 H   0  0  0  0  0  0  0  0  0  0  0  0
  1  2  1  0  0  0  0
  2  4  1  0  0  0  0
  2  5  1  0  0  0  0
  3  1  1  0  0  0  0
  3  2  1  0  0  0  0
  6  3  1  0  0  0  0
  7  3  1  0  0  0  0
  8 13  1  0  0  0  0
  8  1  1  0  0  0  0
  8 14  1  0  0  0  0
  9  8  1  0  0  0  0
 10  9  1  0  0  0  0
 10 18  1  0  0  0  0
 11 10  1  0  0  0  0
 11 12  1  0  0  0  0
 12 20  1  0  0  0  0
 12 13  1  0  0  0  0
 12 19  1  0  0  0  0
 13 22  1  0  0  0  0
 15  9  1  0  0  0  0
 16  9  1  0  0  0  0
 17 10  1  0  0  0  0
 21 13  1  0  0  0  0
 23 29  1  0  0  0  0
 24  1  1  0  0  0  0
 24 23  2  0  0  0  0
 25 24  1  0  0  0  0
 26 25  2  0  0  0  0
 26 27  1  0  0  0  0
 27 31  1  0  0  0  0
 27 28  2  0  0  0  0
 28 23  1  0  0  0  0
 30 25  1  0  0  0  0
 32 31  1  0  0  0  0
M  END
>  <minimizedAffinity>
-4.41839361

$$$$
