
 OpenBabel03252508303D

 25 26  0  0  1  0  0  0  0  0999 V2000
   45.7670   34.4860   42.0210 N   0  0  0  0  0  0  0  0  0  0  0  0
   47.1120   34.3450   41.6020 C   0  0  1  0  0  0  0  0  0  0  0  0
   47.3280   34.2090   40.1450 C   0  0  0  0  0  0  0  0  0  0  0  0
   46.3280   33.5600   39.3960 N   0  0  0  0  0  0  0  0  0  0  0  0
   45.0200   33.4780   39.9420 C   0  0  0  0  0  0  0  0  0  0  0  0
   44.8340   34.6100   40.9440 C   0  0  0  0  0  0  0  0  0  0  0  0
   47.5420   33.4820   42.1930 H   0  0  0  0  0  0  0  0  0  0  0  0
   47.5510   35.2230   39.7010 H   0  0  0  0  0  0  0  0  0  0  0  0
   48.2960   33.6550   39.9900 H   0  0  0  0  0  0  0  0  0  0  0  0
   46.3220   33.9570   38.4280 H   0  0  0  0  0  0  0  0  0  0  0  0
   44.9490   32.5460   40.5480 H   0  0  0  0  0  0  0  0  0  0  0  0
   44.2120   33.4610   39.2130 H   0  0  0  0  0  0  0  0  0  0  0  0
   43.7810   34.6140   41.2000 H   0  0  0  0  0  0  0  0  0  0  0  0
   45.0840   35.5440   40.3610 H   0  0  0  0  0  0  0  0  0  0  0  0
   44.7550   35.5830   43.8930 C   0  0  0  0  0  0  0  0  0  0  0  0
   45.4920   34.4890   43.4210 C   0  0  0  0  0  0  0  0  0  0  0  0
   45.8940   33.4990   44.3220 C   0  0  0  0  0  0  0  0  0  0  0  0
   45.5540   33.6390   45.6270 N   0  0  0  0  0  0  0  0  0  0  0  0
   44.8440   34.7040   46.0590 C   0  0  0  0  0  0  0  0  0  0  0  0
   44.4480   35.6650   45.2050 N   0  0  0  0  0  0  0  0  0  0  0  0
   44.3750   36.4150   43.3520 H   0  0  0  0  0  0  0  0  0  0  0  0
   46.4570   32.6800   43.9170 H   0  0  0  0  0  0  0  0  0  0  0  0
   44.6110   34.7410   47.1230 H   0  0  0  0  0  0  0  0  0  0  0  0
   47.8200   35.4890   42.0360 O   0  0  0  0  0  0  0  0  0  0  0  0
   47.1490   36.1230   42.3900 H   0  0  0  0  0  0  0  0  0  0  0  0
  1 16  1  0  0  0  0
  2  1  1  0  0  0  0
  2 24  1  0  0  0  0
  2  7  1  1  0  0  0
  3  2  1  0  0  0  0
  4  5  1  0  0  0  0
  4  3  1  0  0  0  0
  5 11  1  0  0  0  0
  5  6  1  0  0  0  0
  6 13  1  0  0  0  0
  6  1  1  0  0  0  0
  8  3  1  0  0  0  0
  9  3  1  0  0  0  0
 10  4  1  0  0  0  0
 12  5  1  0  0  0  0
 14  6  1  0  0  0  0
 15 20  1  0  0  0  0
 16 15  2  0  0  0  0
 16 17  1  0  0  0  0
 17 18  2  0  0  0  0
 18 19  1  0  0  0  0
 19 23  1  0  0  0  0
 20 19  2  0  0  0  0
 21 15  1  0  0  0  0
 22 17  1  0  0  0  0
 24 25  1  0  0  0  0
M  END
>  <minimizedAffinity>
-3.8956964

>  <minimizedRMSD>
2.2983191

$$$$
