
 OpenBabel03252503233D

 40 44  0  0  1  0  0  0  0  0999 V2000
   46.7600   33.3630   42.6850 C   0  0  1  0  0  0  0  0  0  0  0  0
   46.9030   34.7240   42.1940 C   0  0  0  0  0  0  0  0  0  0  0  0
   48.1130   33.8660   42.2050 C   0  0  2  0  0  0  0  0  0  0  0  0
   46.2710   32.5910   42.0620 H   0  0  0  0  0  0  0  0  0  0  0  0
   46.3150   35.0070   41.3370 H   0  0  0  0  0  0  0  0  0  0  0  0
   46.8490   35.5190   43.0050 H   0  0  0  0  0  0  0  0  0  0  0  0
   48.8590   33.9010   43.0100 H   0  0  0  0  0  0  0  0  0  0  0  0
   48.5450   33.2870   40.9050 C   0  0  0  0  0  0  0  0  0  0  0  0
   49.4590   32.2620   40.7680 C   0  0  0  0  0  0  0  0  0  0  0  0
   49.8150   31.7860   39.5190 C   0  0  0  0  0  0  0  0  0  0  0  0
   49.2640   32.3270   38.3900 C   0  0  0  0  0  0  0  0  0  0  0  0
   49.5980   31.8790   37.1540 N   0  0  0  0  0  0  0  0  0  0  0  0
   49.0380   32.4330   36.0420 C   0  0  0  0  0  0  0  0  0  0  0  0
   48.0970   33.4840   36.0830 C   0  0  0  0  0  0  0  0  0  0  0  0
   47.7520   33.9440   37.3370 C   0  0  0  0  0  0  0  0  0  0  0  0
   48.3370   33.3630   38.4680 C   0  0  0  0  0  0  0  0  0  0  0  0
   48.0070   33.8110   39.7300 C   0  0  0  0  0  0  0  0  0  0  0  0
   49.8790   31.8550   41.6880 H   0  0  0  0  0  0  0  0  0  0  0  0
   50.5370   30.9800   39.4450 H   0  0  0  0  0  0  0  0  0  0  0  0
   49.3320   32.0460   35.0730 H   0  0  0  0  0  0  0  0  0  0  0  0
   47.7010   33.8680   35.1530 H   0  0  0  0  0  0  0  0  0  0  0  0
   47.0350   34.7480   37.4200 H   0  0  0  0  0  0  0  0  0  0  0  0
   47.2870   34.6190   39.7100 H   0  0  0  0  0  0  0  0  0  0  0  0
   45.7450   33.9130   44.9270 C   0  0  0  0  0  0  0  0  0  0  0  0
   46.6210   33.0990   44.1520 C   0  0  0  0  0  0  0  0  0  0  0  0
   47.3210   32.1070   44.7910 C   0  0  0  0  0  0  0  0  0  0  0  0
   47.1350   31.9610   46.1320 N   0  0  0  0  0  0  0  0  0  0  0  0
   46.2960   32.7450   46.8580 C   0  0  0  0  0  0  0  0  0  0  0  0
   45.6030   33.7190   46.2500 N   0  0  0  0  0  0  0  0  0  0  0  0
   45.1850   34.7020   44.4310 H   0  0  0  0  0  0  0  0  0  0  0  0
   47.9860   31.4780   44.2460 H   0  0  0  0  0  0  0  0  0  0  0  0
   46.1780   32.4860   48.3180 C   0  0  2  0  0  0  0  0  0  0  0  0
   46.6830   31.2590   48.9130 C   0  0  0  0  0  0  0  0  0  0  0  0
   45.1950   31.3240   48.6610 C   0  0  1  0  0  0  0  0  0  0  0  0
   45.9840   33.3930   48.9590 H   0  0  0  0  0  0  0  0  0  0  0  0
   47.3160   30.6170   48.2620 H   0  0  0  0  0  0  0  0  0  0  0  0
   47.0730   31.3290   49.9530 H   0  0  0  0  0  0  0  0  0  0  0  0
   44.8600   30.6910   47.8280 H   0  0  0  0  0  0  0  0  0  0  0  0
   44.4550   31.4600   49.8240 O   0  0  0  0  0  0  0  0  0  0  0  0
   44.0890   32.3780   49.8930 H   0  0  0  0  0  0  0  0  0  0  0  0
  1  4  1  6  0  0  0
  1 25  1  0  0  0  0
  2  3  1  0  0  0  0
  2  1  1  0  0  0  0
  2  6  1  0  0  0  0
  3  1  1  0  0  0  0
  3  7  1  1  0  0  0
  5  2  1  0  0  0  0
  8  3  1  0  0  0  0
  9  8  1  0  0  0  0
  9 18  1  0  0  0  0
 10  9  2  0  0  0  0
 11 16  1  0  0  0  0
 11 10  1  0  0  0  0
 12 11  2  0  0  0  0
 13 14  2  0  0  0  0
 13 12  1  0  0  0  0
 14 15  1  0  0  0  0
 15 22  1  0  0  0  0
 15 16  2  0  0  0  0
 16 17  1  0  0  0  0
 17  8  2  0  0  0  0
 19 10  1  0  0  0  0
 20 13  1  0  0  0  0
 21 14  1  0  0  0  0
 23 17  1  0  0  0  0
 24 29  1  0  0  0  0
 25 26  1  0  0  0  0
 25 24  2  0  0  0  0
 26 27  2  0  0  0  0
 27 28  1  0  0  0  0
 28 32  1  0  0  0  0
 29 28  2  0  0  0  0
 30 24  1  0  0  0  0
 31 26  1  0  0  0  0
 32 34  1  0  0  0  0
 32 33  1  0  0  0  0
 32 35  1  1  0  0  0
 33 37  1  0  0  0  0
 34 38  1  6  0  0  0
 34 33  1  0  0  0  0
 34 39  1  0  0  0  0
 36 33  1  0  0  0  0
 39 40  1  0  0  0  0
M  END
>  <minimizedAffinity>
-5.5872736

>  <minimizedRMSD>
0.482238889

$$$$
