
 OpenBabel03252500073D

 21 22  0  0  0  0  0  0  0  0999 V2000
   45.4780   32.5790   41.3350 Cl  0  0  0  0  0  0  0  0  0  0  0  0
   46.7930   33.7160   41.1800 C   0  0  0  0  0  0  0  0  0  0  0  0
   47.3130   34.3380   42.2820 C   0  0  0  0  0  0  0  0  0  0  0  0
   48.3720   35.2580   42.1840 C   0  0  0  0  0  0  0  0  0  0  0  0
   48.8450   35.4860   40.9110 C   0  0  0  0  0  0  0  0  0  0  0  0
   48.3170   34.8550   39.8040 C   0  0  0  0  0  0  0  0  0  0  0  0
   47.2950   33.9710   39.9220 C   0  0  0  0  0  0  0  0  0  0  0  0
   48.7720   35.7390   43.0570 H   0  0  0  0  0  0  0  0  0  0  0  0
   49.6490   36.1750   40.7750 H   0  0  0  0  0  0  0  0  0  0  0  0
   48.7210   35.0630   38.8120 H   0  0  0  0  0  0  0  0  0  0  0  0
   46.8840   33.4800   39.0580 H   0  0  0  0  0  0  0  0  0  0  0  0
   46.7380   32.7520   45.5540 C   0  0  0  0  0  0  0  0  0  0  0  0
   45.6810   33.5230   46.0790 C   0  0  0  0  0  0  0  0  0  0  0  0
   45.1850   34.5640   45.3110 C   0  0  0  0  0  0  0  0  0  0  0  0
   45.7380   34.7940   44.0940 N   0  0  0  0  0  0  0  0  0  0  0  0
   46.7560   34.0430   43.6030 C   0  0  0  0  0  0  0  0  0  0  0  0
   47.2430   33.0290   44.3410 N   0  0  0  0  0  0  0  0  0  0  0  0
   47.1290   31.9330   46.1550 H   0  0  0  0  0  0  0  0  0  0  0  0
   45.2550   33.3300   47.0380 H   0  0  0  0  0  0  0  0  0  0  0  0
   44.1410   35.3370   45.8100 O   0  0  0  0  0  0  0  0  0  0  0  0
   44.1870   36.3600   45.6750 H   0  0  0  0  0  0  0  0  0  0  0  0
  2  1  1  0  0  0  0
  2  3  1  0  0  0  0
  3 16  1  0  0  0  0
  4  3  2  0  0  0  0
  4  8  1  0  0  0  0
  5  4  1  0  0  0  0
  6  7  1  0  0  0  0
  6  5  2  0  0  0  0
  7  2  2  0  0  0  0
  9  5  1  0  0  0  0
 10  6  1  0  0  0  0
 11  7  1  0  0  0  0
 12 13  1  0  0  0  0
 12 18  1  0  0  0  0
 13 19  1  0  0  0  0
 14 20  1  0  0  0  0
 14 13  2  0  0  0  0
 15 14  1  0  0  0  0
 16 15  2  0  0  0  0
 16 17  1  0  0  0  0
 17 12  2  0  0  0  0
 21 20  1  0  0  0  0
M  END
>  <minimizedAffinity>
-5.17937565

>  <minimizedRMSD>
1.24999928

$$$$
