
 OpenBabel03252504023D

 29 31  0  0  0  0  0  0  0  0999 V2000
   46.0670   31.4200   45.1220 C   0  0  0  0  0  0  0  0  0  0  0  0
   46.0230   32.7780   45.4250 C   0  0  0  0  0  0  0  0  0  0  0  0
   45.7620   33.1690   46.7190 C   0  0  0  0  0  0  0  0  0  0  0  0
   45.5500   32.1970   47.6810 C   0  0  0  0  0  0  0  0  0  0  0  0
   45.2780   32.2690   49.0040 N   0  0  0  0  0  0  0  0  0  0  0  0
   45.1520   31.0400   49.5280 C   0  0  0  0  0  0  0  0  0  0  0  0
   45.3480   30.1210   48.5190 C   0  0  0  0  0  0  0  0  0  0  0  0
   45.5930   30.8360   47.3750 C   0  0  0  0  0  0  0  0  0  0  0  0
   45.8550   30.4560   46.0810 C   0  0  0  0  0  0  0  0  0  0  0  0
   46.2720   31.0980   44.1080 H   0  0  0  0  0  0  0  0  0  0  0  0
   45.7270   34.2180   46.9630 H   0  0  0  0  0  0  0  0  0  0  0  0
   45.1720   33.1380   49.5720 H   0  0  0  0  0  0  0  0  0  0  0  0
   44.9340   30.7830   50.5670 H   0  0  0  0  0  0  0  0  0  0  0  0
   45.3030   29.0520   48.6570 H   0  0  0  0  0  0  0  0  0  0  0  0
   45.8920   29.4030   45.8320 H   0  0  0  0  0  0  0  0  0  0  0  0
   47.6890   34.6300   42.7650 C   0  0  0  0  0  0  0  0  0  0  0  0
   46.7130   35.5020   42.3020 C   0  0  0  0  0  0  0  0  0  0  0  0
   45.4760   35.4490   42.9130 C   0  0  0  0  0  0  0  0  0  0  0  0
   45.2880   34.5600   43.9150 N   0  0  0  0  0  0  0  0  0  0  0  0
   46.2600   33.7250   44.3410 C   0  0  0  0  0  0  0  0  0  0  0  0
   47.4760   33.7550   43.7640 N   0  0  0  0  0  0  0  0  0  0  0  0
   46.9010   36.1990   41.4980 H   0  0  0  0  0  0  0  0  0  0  0  0
   48.9650   34.7200   42.0980 C   0  0  0  0  0  0  0  0  0  0  0  0
   50.0700   34.3140   42.5270 O   0  0  0  0  0  0  0  0  0  0  0  0
   48.7390   35.3590   40.8540 N   0  0  0  0  0  0  0  0  0  0  0  0
   48.2160   36.2270   40.6560 H   0  0  0  0  0  0  0  0  0  0  0  0
   49.2130   34.7860   40.1080 H   0  0  0  0  0  0  0  0  0  0  0  0
   44.4800   36.3140   42.4670 O   0  0  0  0  0  0  0  0  0  0  0  0
   44.2900   37.2090   42.8560 H   0  0  0  0  0  0  0  0  0  0  0  0
  1  2  2  0  0  0  0
  1  9  1  0  0  0  0
  2  3  1  0  0  0  0
  3 11  1  0  0  0  0
  3  4  2  0  0  0  0
  4  5  1  0  0  0  0
  5  6  1  0  0  0  0
  5 12  1  0  0  0  0
  6 13  1  0  0  0  0
  7 14  1  0  0  0  0
  7  6  2  0  0  0  0
  8  4  1  0  0  0  0
  8  7  1  0  0  0  0
  9  8  2  0  0  0  0
 10  1  1  0  0  0  0
 15  9  1  0  0  0  0
 16 21  1  0  0  0  0
 17 16  2  0  0  0  0
 17 18  1  0  0  0  0
 18 19  2  0  0  0  0
 19 20  1  0  0  0  0
 20  2  1  0  0  0  0
 21 20  2  0  0  0  0
 22 17  1  0  0  0  0
 23 24  2  0  0  0  0
 23 16  1  0  0  0  0
 25 23  1  0  0  0  0
 26 25  1  0  0  0  0
 27 25  1  0  0  0  0
 28 29  1  0  0  0  0
 28 18  1  0  0  0  0
M  END
>  <minimizedAffinity>
-6.15016365

>  <minimizedRMSD>
1.00356293

$$$$
