
 OpenBabel03252509153D

 38 41  0  0  1  0  0  0  0  0999 V2000
   40.2240   29.8800   42.2310 C   0  0  0  0  0  0  0  0  0  0  0  0
   39.2310   30.5860   41.5670 C   0  0  0  0  0  0  0  0  0  0  0  0
   37.8930   30.2230   41.5820 C   0  0  0  0  0  0  0  0  0  0  0  0
   37.5220   29.0870   42.3030 C   0  0  0  0  0  0  0  0  0  0  0  0
   36.3540   28.4500   42.5380 N   0  0  0  0  0  0  0  0  0  0  0  0
   36.5730   27.3720   43.3230 C   0  0  0  0  0  0  0  0  0  0  0  0
   37.8910   27.3630   43.5610 N   0  0  0  0  0  0  0  0  0  0  0  0
   38.5060   28.4020   42.9510 C   0  0  0  0  0  0  0  0  0  0  0  0
   39.8530   28.7360   42.9570 C   0  0  0  0  0  0  0  0  0  0  0  0
   41.2550   30.2110   42.1830 H   0  0  0  0  0  0  0  0  0  0  0  0
   35.4430   28.7850   42.1450 H   0  0  0  0  0  0  0  0  0  0  0  0
   35.8390   26.6680   43.6810 H   0  0  0  0  0  0  0  0  0  0  0  0
   40.6000   28.1610   43.4870 H   0  0  0  0  0  0  0  0  0  0  0  0
   39.5850   34.0950   40.5500 C   0  0  0  0  0  0  0  0  0  0  0  0
   40.3400   34.0090   39.3860 C   0  0  0  0  0  0  0  0  0  0  0  0
   40.7250   32.7400   38.9550 C   0  0  0  0  0  0  0  0  0  0  0  0
   40.3540   31.6340   39.6790 N   0  0  0  0  0  0  0  0  0  0  0  0
   39.6160   31.7800   40.8070 C   0  0  0  0  0  0  0  0  0  0  0  0
   39.2160   32.9930   41.2720 N   0  0  0  0  0  0  0  0  0  0  0  0
   39.2980   35.0970   40.8640 H   0  0  0  0  0  0  0  0  0  0  0  0
   40.6400   34.8460   38.8070 H   0  0  0  0  0  0  0  0  0  0  0  0
   41.3140   32.6170   38.0540 H   0  0  0  0  0  0  0  0  0  0  0  0
   36.6530   31.1540   40.7190 S   0  0  0  0  0  0  0  0  0  0  0  0
   37.4460   31.7140   38.2810 N   0  0  0  0  0  0  0  0  0  0  0  0
   36.5750   30.7860   38.9460 C   0  0  1  0  0  0  0  0  0  0  0  0
   37.0760   29.3460   38.8070 C   0  0  0  0  0  0  0  0  0  0  0  0
   37.5050   29.0420   37.5300 O   0  0  0  0  0  0  0  0  0  0  0  0
   37.2240   29.9700   36.5700 C   0  0  0  0  0  0  0  0  0  0  0  0
   37.8600   31.2880   36.9760 C   0  0  1  0  0  0  0  0  0  0  0  0
   36.8730   32.5970   38.1300 H   0  0  0  0  0  0  0  0  0  0  0  0
   35.5350   30.8290   38.6230 H   0  0  0  0  0  0  0  0  0  0  0  0
   36.2860   28.6330   39.0100 H   0  0  0  0  0  0  0  0  0  0  0  0
   37.9460   29.2670   39.4980 H   0  0  0  0  0  0  0  0  0  0  0  0
   36.1280   30.1580   36.4120 H   0  0  0  0  0  0  0  0  0  0  0  0
   37.6600   29.6460   35.6270 H   0  0  0  0  0  0  0  0  0  0  0  0
   38.9540   31.0990   37.0140 H   0  0  0  0  0  0  0  0  0  0  0  0
   37.6850   32.2670   35.9870 O   0  0  0  0  0  0  0  0  0  0  0  0
   36.7390   32.1760   35.6980 H   0  0  0  0  0  0  0  0  0  0  0  0
  1  9  1  0  0  0  0
  2  3  1  0  0  0  0
  2  1  2  0  0  0  0
  3  4  2  0  0  0  0
  4  5  1  0  0  0  0
  4  8  1  0  0  0  0
  5  6  1  0  0  0  0
  6  7  2  0  0  0  0
  6 12  1  0  0  0  0
  8  9  2  0  0  0  0
  8  7  1  0  0  0  0
  9 13  1  0  0  0  0
 10  1  1  0  0  0  0
 11  5  1  0  0  0  0
 14 20  1  0  0  0  0
 14 19  1  0  0  0  0
 15 14  2  0  0  0  0
 16 15  1  0  0  0  0
 16 17  2  0  0  0  0
 17 18  1  0  0  0  0
 18 19  2  0  0  0  0
 18  2  1  0  0  0  0
 21 15  1  0  0  0  0
 22 16  1  0  0  0  0
 23  3  1  0  0  0  0
 24 25  1  0  0  0  0
 25 31  1  6  0  0  0
 25 23  1  0  0  0  0
 26 25  1  0  0  0  0
 26 32  1  0  0  0  0
 26 33  1  0  0  0  0
 27 26  1  0  0  0  0
 28 29  1  0  0  0  0
 28 27  1  0  0  0  0
 29 36  1  1  0  0  0
 29 24  1  0  0  0  0
 30 24  1  0  0  0  0
 34 28  1  0  0  0  0
 35 28  1  0  0  0  0
 37 29  1  0  0  0  0
 38 37  1  0  0  0  0
M  END
>  <minimizedAffinity>
-5.98606396

$$$$

 OpenBabel03252509153D

 38 41  0  0  1  0  0  0  0  0999 V2000
   37.3010   33.0170   39.5500 C   0  0  0  0  0  0  0  0  0  0  0  0
   37.6360   31.6730   39.6180 C   0  0  0  0  0  0  0  0  0  0  0  0
   38.8950   31.2130   39.9680 C   0  0  0  0  0  0  0  0  0  0  0  0
   39.8830   32.1530   40.2700 C   0  0  0  0  0  0  0  0  0  0  0  0
   41.1810   32.0810   40.6390 N   0  0  0  0  0  0  0  0  0  0  0  0
   41.6760   33.3280   40.8060 C   0  0  0  0  0  0  0  0  0  0  0  0
   40.6600   34.1560   40.5330 N   0  0  0  0  0  0  0  0  0  0  0  0
   39.5430   33.4700   40.2000 C   0  0  0  0  0  0  0  0  0  0  0  0
   38.2940   33.9640   39.8530 C   0  0  0  0  0  0  0  0  0  0  0  0
   36.2980   33.3180   39.2700 H   0  0  0  0  0  0  0  0  0  0  0  0
   41.6800   31.1690   40.7630 H   0  0  0  0  0  0  0  0  0  0  0  0
   42.6790   33.5950   41.0990 H   0  0  0  0  0  0  0  0  0  0  0  0
   38.0690   35.0210   39.8110 H   0  0  0  0  0  0  0  0  0  0  0  0
   35.5140   29.3400   37.7380 C   0  0  0  0  0  0  0  0  0  0  0  0
   34.6670   28.8300   38.7160 C   0  0  0  0  0  0  0  0  0  0  0  0
   34.8310   29.2920   40.0210 C   0  0  0  0  0  0  0  0  0  0  0  0
   35.8040   30.2200   40.2970 N   0  0  0  0  0  0  0  0  0  0  0  0
   36.6010   30.6820   39.3010 C   0  0  0  0  0  0  0  0  0  0  0  0
   36.4840   30.2640   38.0130 N   0  0  0  0  0  0  0  0  0  0  0  0
   35.3650   28.9620   36.7280 H   0  0  0  0  0  0  0  0  0  0  0  0
   33.9070   28.1130   38.5300 H   0  0  0  0  0  0  0  0  0  0  0  0
   34.1970   28.9270   40.8200 H   0  0  0  0  0  0  0  0  0  0  0  0
   39.2820   29.4830   40.0420 S   0  0  0  0  0  0  0  0  0  0  0  0
   37.6760   28.3810   41.8010 N   0  0  0  0  0  0  0  0  0  0  0  0
   39.0570   28.7610   41.6890 C   0  0  1  0  0  0  0  0  0  0  0  0
   39.9810   27.5420   41.7290 C   0  0  0  0  0  0  0  0  0  0  0  0
   39.6290   26.6270   42.7030 O   0  0  0  0  0  0  0  0  0  0  0  0
   38.6790   27.0370   43.5920 C   0  0  0  0  0  0  0  0  0  0  0  0
   37.4250   27.4020   42.8180 C   0  0  1  0  0  0  0  0  0  0  0  0
   37.1550   29.2570   42.1050 H   0  0  0  0  0  0  0  0  0  0  0  0
   39.3900   29.4810   42.4370 H   0  0  0  0  0  0  0  0  0  0  0  0
   40.9980   27.8260   41.9720 H   0  0  0  0  0  0  0  0  0  0  0  0
   39.8720   27.0550   40.7340 H   0  0  0  0  0  0  0  0  0  0  0  0
   38.9700   27.9330   44.2030 H   0  0  0  0  0  0  0  0  0  0  0  0
   38.4490   26.2160   44.2660 H   0  0  0  0  0  0  0  0  0  0  0  0
   37.0960   26.4690   42.3130 H   0  0  0  0  0  0  0  0  0  0  0  0
   36.3740   27.7500   43.6800 O   0  0  0  0  0  0  0  0  0  0  0  0
   36.7880   28.3340   44.3690 H   0  0  0  0  0  0  0  0  0  0  0  0
  1  2  2  0  0  0  0
  1  9  1  0  0  0  0
  2  3  1  0  0  0  0
  3 23  1  0  0  0  0
  3  4  2  0  0  0  0
  4  5  1  0  0  0  0
  5 11  1  0  0  0  0
  5  6  1  0  0  0  0
  6 12  1  0  0  0  0
  7  6  2  0  0  0  0
  8  4  1  0  0  0  0
  8  7  1  0  0  0  0
  9  8  2  0  0  0  0
 10  1  1  0  0  0  0
 13  9  1  0  0  0  0
 14 19  2  0  0  0  0
 14 15  1  0  0  0  0
 15 16  2  0  0  0  0
 16 17  1  0  0  0  0
 16 22  1  0  0  0  0
 18  2  1  0  0  0  0
 18 17  2  0  0  0  0
 19 18  1  0  0  0  0
 20 14  1  0  0  0  0
 21 15  1  0  0  0  0
 23 25  1  0  0  0  0
 24 30  1  0  0  0  0
 24 29  1  0  0  0  0
 25 26  1  0  0  0  0
 25 24  1  0  0  0  0
 25 31  1  1  0  0  0
 26 32  1  0  0  0  0
 26 27  1  0  0  0  0
 27 28  1  0  0  0  0
 28 34  1  0  0  0  0
 28 35  1  0  0  0  0
 29 36  1  6  0  0  0
 29 28  1  0  0  0  0
 29 37  1  0  0  0  0
 33 26  1  0  0  0  0
 37 38  1  0  0  0  0
M  END
>  <minimizedAffinity>
-5.80707121

$$$$

 OpenBabel03252509153D

 38 41  0  0  1  0  0  0  0  0999 V2000
   39.4700   30.3880   42.1000 C   0  0  0  0  0  0  0  0  0  0  0  0
   38.2520   29.9330   41.6160 C   0  0  0  0  0  0  0  0  0  0  0  0
   37.3740   30.7210   40.8880 C   0  0  0  0  0  0  0  0  0  0  0  0
   37.7330   32.0450   40.6260 C   0  0  0  0  0  0  0  0  0  0  0  0
   37.1520   33.0750   39.9720 N   0  0  0  0  0  0  0  0  0  0  0  0
   37.9560   34.1590   40.0250 C   0  0  0  0  0  0  0  0  0  0  0  0
   39.0320   33.7730   40.7220 N   0  0  0  0  0  0  0  0  0  0  0  0
   38.9300   32.4800   41.1070 C   0  0  0  0  0  0  0  0  0  0  0  0
   39.8310   31.7210   41.8380 C   0  0  0  0  0  0  0  0  0  0  0  0
   40.1160   29.7260   42.6640 H   0  0  0  0  0  0  0  0  0  0  0  0
   36.2160   32.9900   39.5090 H   0  0  0  0  0  0  0  0  0  0  0  0
   37.7670   35.1300   39.5970 H   0  0  0  0  0  0  0  0  0  0  0  0
   40.7730   32.1100   42.2000 H   0  0  0  0  0  0  0  0  0  0  0  0
   36.9000   26.9650   43.2990 C   0  0  0  0  0  0  0  0  0  0  0  0
   37.1620   25.9440   42.3920 C   0  0  0  0  0  0  0  0  0  0  0  0
   37.8030   26.2830   41.2020 C   0  0  0  0  0  0  0  0  0  0  0  0
   38.1520   27.5900   40.9650 N   0  0  0  0  0  0  0  0  0  0  0  0
   37.8720   28.5430   41.8880 C   0  0  0  0  0  0  0  0  0  0  0  0
   37.2470   28.2670   43.0630 N   0  0  0  0  0  0  0  0  0  0  0  0
   36.3980   26.6730   44.2200 H   0  0  0  0  0  0  0  0  0  0  0  0
   36.9030   24.9270   42.5490 H   0  0  0  0  0  0  0  0  0  0  0  0
   38.0300   25.5260   40.4610 H   0  0  0  0  0  0  0  0  0  0  0  0
   35.8250   30.0990   40.2860 S   0  0  0  0  0  0  0  0  0  0  0  0
   37.2070   29.2310   38.2310 N   0  0  0  0  0  0  0  0  0  0  0  0
   35.8620   29.6360   38.5340 C   0  0  1  0  0  0  0  0  0  0  0  0
   34.8810   28.4690   38.4010 C   0  0  0  0  0  0  0  0  0  0  0  0
   35.0960   27.7060   37.2700 O   0  0  0  0  0  0  0  0  0  0  0  0
   35.9800   28.2170   36.3650 C   0  0  0  0  0  0  0  0  0  0  0  0
   37.3160   28.4150   37.0570 C   0  0  1  0  0  0  0  0  0  0  0  0
   37.7390   30.1260   38.0130 H   0  0  0  0  0  0  0  0  0  0  0  0
   35.4960   30.4740   37.9410 H   0  0  0  0  0  0  0  0  0  0  0  0
   33.8610   28.8210   38.3060 H   0  0  0  0  0  0  0  0  0  0  0  0
   35.0580   27.8290   39.2950 H   0  0  0  0  0  0  0  0  0  0  0  0
   35.6760   29.2060   35.9280 H   0  0  0  0  0  0  0  0  0  0  0  0
   36.1060   27.5040   35.5530 H   0  0  0  0  0  0  0  0  0  0  0  0
   37.6440   27.4040   37.3790 H   0  0  0  0  0  0  0  0  0  0  0  0
   38.2980   28.8570   36.1590 O   0  0  0  0  0  0  0  0  0  0  0  0
   37.8510   29.5550   35.6110 H   0  0  0  0  0  0  0  0  0  0  0  0
  1 10  1  0  0  0  0
  2 18  1  0  0  0  0
  2  1  2  0  0  0  0
  3  2  1  0  0  0  0
  4  3  2  0  0  0  0
  4  8  1  0  0  0  0
  5  6  1  0  0  0  0
  5  4  1  0  0  0  0
  6  7  2  0  0  0  0
  7  8  1  0  0  0  0
  8  9  2  0  0  0  0
  9  1  1  0  0  0  0
  9 13  1  0  0  0  0
 11  5  1  0  0  0  0
 12  6  1  0  0  0  0
 14 20  1  0  0  0  0
 15 21  1  0  0  0  0
 15 14  2  0  0  0  0
 16 15  1  0  0  0  0
 17 16  2  0  0  0  0
 17 18  1  0  0  0  0
 18 19  2  0  0  0  0
 19 14  1  0  0  0  0
 22 16  1  0  0  0  0
 23  3  1  0  0  0  0
 24 25  1  0  0  0  0
 25 31  1  6  0  0  0
 25 23  1  0  0  0  0
 26 25  1  0  0  0  0
 26 33  1  0  0  0  0
 27 26  1  0  0  0  0
 28 29  1  0  0  0  0
 28 27  1  0  0  0  0
 29 36  1  1  0  0  0
 29 24  1  0  0  0  0
 30 24  1  0  0  0  0
 32 26  1  0  0  0  0
 34 28  1  0  0  0  0
 35 28  1  0  0  0  0
 37 29  1  0  0  0  0
 38 37  1  0  0  0  0
M  END
>  <minimizedAffinity>
-5.67868519

$$$$

 OpenBabel03252509153D

 38 41  0  0  1  0  0  0  0  0999 V2000
   36.6200   26.4910   39.7850 C   0  0  0  0  0  0  0  0  0  0  0  0
   36.2300   27.7720   39.4220 C   0  0  0  0  0  0  0  0  0  0  0  0
   36.3170   28.8680   40.2660 C   0  0  0  0  0  0  0  0  0  0  0  0
   36.8240   28.6750   41.5520 C   0  0  0  0  0  0  0  0  0  0  0  0
   37.0500   29.4790   42.6150 N   0  0  0  0  0  0  0  0  0  0  0  0
   37.5660   28.7550   43.6310 C   0  0  0  0  0  0  0  0  0  0  0  0
   37.6510   27.5000   43.1720 N   0  0  0  0  0  0  0  0  0  0  0  0
   37.2040   27.4140   41.8980 C   0  0  0  0  0  0  0  0  0  0  0  0
   37.1310   26.2950   41.0800 C   0  0  0  0  0  0  0  0  0  0  0  0
   36.5290   25.6710   39.0820 H   0  0  0  0  0  0  0  0  0  0  0  0
   36.8370   30.5050   42.5980 H   0  0  0  0  0  0  0  0  0  0  0  0
   37.8500   29.1150   44.6080 H   0  0  0  0  0  0  0  0  0  0  0  0
   37.4450   25.3110   41.3980 H   0  0  0  0  0  0  0  0  0  0  0  0
   33.8770   28.0450   36.6180 C   0  0  0  0  0  0  0  0  0  0  0  0
   34.7030   28.3670   35.5460 C   0  0  0  0  0  0  0  0  0  0  0  0
   36.0690   28.4900   35.7950 C   0  0  0  0  0  0  0  0  0  0  0  0
   36.5500   28.2920   37.0660 N   0  0  0  0  0  0  0  0  0  0  0  0
   35.6960   27.9780   38.0710 C   0  0  0  0  0  0  0  0  0  0  0  0
   34.3560   27.8480   37.8840 N   0  0  0  0  0  0  0  0  0  0  0  0
   32.8150   27.9550   36.3960 H   0  0  0  0  0  0  0  0  0  0  0  0
   34.3580   28.5260   34.5550 H   0  0  0  0  0  0  0  0  0  0  0  0
   36.7560   28.7400   34.9950 H   0  0  0  0  0  0  0  0  0  0  0  0
   35.8060   30.4910   39.7610 S   0  0  0  0  0  0  0  0  0  0  0  0
   37.4320   32.2660   40.8050 N   0  0  0  0  0  0  0  0  0  0  0  0
   37.1840   31.6450   39.5340 C   0  0  1  0  0  0  0  0  0  0  0  0
   38.3670   30.7830   39.0880 C   0  0  0  0  0  0  0  0  0  0  0  0
   39.5900   31.3940   39.2910 O   0  0  0  0  0  0  0  0  0  0  0  0
   39.5470   32.7110   39.6440 C   0  0  0  0  0  0  0  0  0  0  0  0
   38.7410   32.8390   40.9240 C   0  0  1  0  0  0  0  0  0  0  0  0
   36.7510   33.0800   40.8710 H   0  0  0  0  0  0  0  0  0  0  0  0
   36.9320   32.3390   38.7320 H   0  0  0  0  0  0  0  0  0  0  0  0
   38.3320   30.5850   38.0230 H   0  0  0  0  0  0  0  0  0  0  0  0
   38.3220   29.8680   39.7210 H   0  0  0  0  0  0  0  0  0  0  0  0
   39.0730   33.3810   38.8780 H   0  0  0  0  0  0  0  0  0  0  0  0
   40.5610   33.0590   39.8310 H   0  0  0  0  0  0  0  0  0  0  0  0
   39.2950   32.2570   41.6920 H   0  0  0  0  0  0  0  0  0  0  0  0
   38.7320   34.1600   41.3940 O   0  0  0  0  0  0  0  0  0  0  0  0
   38.5800   34.7200   40.5860 H   0  0  0  0  0  0  0  0  0  0  0  0
  1  9  1  0  0  0  0
  2  1  2  0  0  0  0
  2  3  1  0  0  0  0
  3  4  2  0  0  0  0
  4  8  1  0  0  0  0
  4  5  1  0  0  0  0
  5  6  1  0  0  0  0
  6 12  1  0  0  0  0
  7  6  2  0  0  0  0
  8  7  1  0  0  0  0
  9 13  1  0  0  0  0
  9  8  2  0  0  0  0
 10  1  1  0  0  0  0
 11  5  1  0  0  0  0
 14 19  1  0  0  0  0
 15 16  1  0  0  0  0
 15 14  2  0  0  0  0
 16 17  2  0  0  0  0
 17 18  1  0  0  0  0
 18  2  1  0  0  0  0
 19 18  2  0  0  0  0
 20 14  1  0  0  0  0
 21 15  1  0  0  0  0
 22 16  1  0  0  0  0
 23  3  1  0  0  0  0
 24 30  1  0  0  0  0
 24 29  1  0  0  0  0
 25 31  1  6  0  0  0
 25 23  1  0  0  0  0
 25 24  1  0  0  0  0
 26 27  1  0  0  0  0
 26 25  1  0  0  0  0
 26 33  1  0  0  0  0
 27 28  1  0  0  0  0
 28 35  1  0  0  0  0
 28 29  1  0  0  0  0
 29 37  1  0  0  0  0
 29 36  1  1  0  0  0
 32 26  1  0  0  0  0
 34 28  1  0  0  0  0
 38 37  1  0  0  0  0
M  END
>  <minimizedAffinity>
-5.64522266

$$$$

 OpenBabel03252509153D

 38 41  0  0  1  0  0  0  0  0999 V2000
   34.6100   28.5520   38.4770 C   0  0  0  0  0  0  0  0  0  0  0  0
   35.9450   28.8310   38.7350 C   0  0  0  0  0  0  0  0  0  0  0  0
   36.8390   29.2610   37.7670 C   0  0  0  0  0  0  0  0  0  0  0  0
   36.3740   29.4230   36.4600 C   0  0  0  0  0  0  0  0  0  0  0  0
   36.9350   29.8120   35.2940 N   0  0  0  0  0  0  0  0  0  0  0  0
   36.0060   29.7880   34.3130 C   0  0  0  0  0  0  0  0  0  0  0  0
   34.8750   29.3790   34.9000 N   0  0  0  0  0  0  0  0  0  0  0  0
   35.0630   29.1460   36.2190 C   0  0  0  0  0  0  0  0  0  0  0  0
   34.1420   28.7140   37.1620 C   0  0  0  0  0  0  0  0  0  0  0  0
   33.9570   28.2180   39.2740 H   0  0  0  0  0  0  0  0  0  0  0  0
   37.9450   30.0800   35.2180 H   0  0  0  0  0  0  0  0  0  0  0  0
   36.1500   30.0450   33.2750 H   0  0  0  0  0  0  0  0  0  0  0  0
   33.1070   28.5060   36.9230 H   0  0  0  0  0  0  0  0  0  0  0  0
   36.9460   29.5790   42.1860 C   0  0  0  0  0  0  0  0  0  0  0  0
   37.3570   28.3410   42.6680 C   0  0  0  0  0  0  0  0  0  0  0  0
   37.2860   27.2520   41.8010 C   0  0  0  0  0  0  0  0  0  0  0  0
   36.8230   27.4300   40.5200 N   0  0  0  0  0  0  0  0  0  0  0  0
   36.4380   28.6620   40.1060 C   0  0  0  0  0  0  0  0  0  0  0  0
   36.4850   29.7570   40.9110 N   0  0  0  0  0  0  0  0  0  0  0  0
   37.0120   30.4120   42.8840 H   0  0  0  0  0  0  0  0  0  0  0  0
   37.7180   28.1750   43.6520 H   0  0  0  0  0  0  0  0  0  0  0  0
   37.5930   26.2650   42.1270 H   0  0  0  0  0  0  0  0  0  0  0  0
   38.5390   29.6070   38.1390 S   0  0  0  0  0  0  0  0  0  0  0  0
   37.5410   31.9030   38.9250 N   0  0  0  0  0  0  0  0  0  0  0  0
   38.8280   31.3100   38.6870 C   0  0  1  0  0  0  0  0  0  0  0  0
   39.6390   31.1900   39.9790 C   0  0  0  0  0  0  0  0  0  0  0  0
   39.5750   32.3240   40.7670 O   0  0  0  0  0  0  0  0  0  0  0  0
   38.9970   33.4180   40.1920 C   0  0  0  0  0  0  0  0  0  0  0  0
   37.5820   33.0530   39.7810 C   0  0  1  0  0  0  0  0  0  0  0  0
   37.2030   32.2570   37.9800 H   0  0  0  0  0  0  0  0  0  0  0  0
   39.4320   31.8230   37.9390 H   0  0  0  0  0  0  0  0  0  0  0  0
   40.6940   31.0580   39.7720 H   0  0  0  0  0  0  0  0  0  0  0  0
   39.1780   30.3460   40.5410 H   0  0  0  0  0  0  0  0  0  0  0  0
   39.5270   33.7960   39.2770 H   0  0  0  0  0  0  0  0  0  0  0  0
   38.9540   34.2200   40.9250 H   0  0  0  0  0  0  0  0  0  0  0  0
   37.0500   32.7920   40.7210 H   0  0  0  0  0  0  0  0  0  0  0  0
   36.8970   34.1610   39.2620 O   0  0  0  0  0  0  0  0  0  0  0  0
   37.5490   34.6080   38.6600 H   0  0  0  0  0  0  0  0  0  0  0  0
  1  2  1  0  0  0  0
  1 10  1  0  0  0  0
  2 18  1  0  0  0  0
  3 23  1  0  0  0  0
  3  2  2  0  0  0  0
  4  3  1  0  0  0  0
  5  4  1  0  0  0  0
  6  7  2  0  0  0  0
  6  5  1  0  0  0  0
  7  8  1  0  0  0  0
  8  4  2  0  0  0  0
  8  9  1  0  0  0  0
  9  1  2  0  0  0  0
 11  5  1  0  0  0  0
 12  6  1  0  0  0  0
 13  9  1  0  0  0  0
 14 15  1  0  0  0  0
 14 20  1  0  0  0  0
 15 21  1  0  0  0  0
 16 22  1  0  0  0  0
 16 15  2  0  0  0  0
 17 16  1  0  0  0  0
 18 17  2  0  0  0  0
 18 19  1  0  0  0  0
 19 14  2  0  0  0  0
 23 25  1  0  0  0  0
 24 29  1  0  0  0  0
 25 31  1  6  0  0  0
 25 24  1  0  0  0  0
 25 26  1  0  0  0  0
 26 33  1  0  0  0  0
 26 27  1  0  0  0  0
 28 27  1  0  0  0  0
 28 35  1  0  0  0  0
 29 28  1  0  0  0  0
 29 36  1  1  0  0  0
 30 24  1  0  0  0  0
 32 26  1  0  0  0  0
 34 28  1  0  0  0  0
 37 29  1  0  0  0  0
 38 37  1  0  0  0  0
M  END
>  <minimizedAffinity>
-5.59533834

$$$$

 OpenBabel03252509153D

 38 41  0  0  1  0  0  0  0  0999 V2000
   36.8410   30.1800   39.6410 C   0  0  0  0  0  0  0  0  0  0  0  0
   37.6730   29.7840   40.6790 C   0  0  0  0  0  0  0  0  0  0  0  0
   38.5170   30.6490   41.3570 C   0  0  0  0  0  0  0  0  0  0  0  0
   38.5340   31.9930   40.9770 C   0  0  0  0  0  0  0  0  0  0  0  0
   39.2040   33.0900   41.3930 N   0  0  0  0  0  0  0  0  0  0  0  0
   38.8270   34.1590   40.6590 C   0  0  0  0  0  0  0  0  0  0  0  0
   37.9200   33.6960   39.7900 N   0  0  0  0  0  0  0  0  0  0  0  0
   37.7140   32.3700   39.9570 C   0  0  0  0  0  0  0  0  0  0  0  0
   36.8580   31.5310   39.2570 C   0  0  0  0  0  0  0  0  0  0  0  0
   36.2020   29.4580   39.1470 H   0  0  0  0  0  0  0  0  0  0  0  0
   39.9010   33.0590   42.1750 H   0  0  0  0  0  0  0  0  0  0  0  0
   39.1850   35.1720   40.7540 H   0  0  0  0  0  0  0  0  0  0  0  0
   36.2230   31.8770   38.4520 H   0  0  0  0  0  0  0  0  0  0  0  0
   36.8350   26.6850   42.4580 C   0  0  0  0  0  0  0  0  0  0  0  0
   37.6340   25.7370   41.8280 C   0  0  0  0  0  0  0  0  0  0  0  0
   38.4580   26.1700   40.7910 C   0  0  0  0  0  0  0  0  0  0  0  0
   38.4590   27.4940   40.4290 N   0  0  0  0  0  0  0  0  0  0  0  0
   37.6580   28.3740   41.0810 C   0  0  0  0  0  0  0  0  0  0  0  0
   36.8350   28.0040   42.0980 N   0  0  0  0  0  0  0  0  0  0  0  0
   36.2010   26.3200   43.2650 H   0  0  0  0  0  0  0  0  0  0  0  0
   37.6540   24.7070   42.0870 H   0  0  0  0  0  0  0  0  0  0  0  0
   39.1000   25.4720   40.2670 H   0  0  0  0  0  0  0  0  0  0  0  0
   39.5650   30.1020   42.6800 S   0  0  0  0  0  0  0  0  0  0  0  0
   41.6780   31.5850   43.1480 N   0  0  0  0  0  0  0  0  0  0  0  0
   41.3250   30.4190   42.3870 C   0  0  1  0  0  0  0  0  0  0  0  0
   42.0530   29.1730   42.8970 C   0  0  0  0  0  0  0  0  0  0  0  0
   43.3890   29.3990   43.1680 O   0  0  0  0  0  0  0  0  0  0  0  0
   43.8880   30.5970   42.7490 C   0  0  0  0  0  0  0  0  0  0  0  0
   43.0840   31.7070   43.4030 C   0  0  1  0  0  0  0  0  0  0  0  0
   41.4200   32.4200   42.5410 H   0  0  0  0  0  0  0  0  0  0  0  0
   41.4920   30.5100   41.3140 H   0  0  0  0  0  0  0  0  0  0  0  0
   42.0520   28.3850   42.1540 H   0  0  0  0  0  0  0  0  0  0  0  0
   41.5430   28.9000   43.8480 H   0  0  0  0  0  0  0  0  0  0  0  0
   43.8430   30.7570   41.6380 H   0  0  0  0  0  0  0  0  0  0  0  0
   44.9250   30.6790   43.0690 H   0  0  0  0  0  0  0  0  0  0  0  0
   43.2400   31.5920   44.4970 H   0  0  0  0  0  0  0  0  0  0  0  0
   43.6020   32.9710   43.0840 O   0  0  0  0  0  0  0  0  0  0  0  0
   43.8000   32.9310   42.1110 H   0  0  0  0  0  0  0  0  0  0  0  0
  1  2  1  0  0  0  0
  2 18  1  0  0  0  0
  2  3  2  0  0  0  0
  3 23  1  0  0  0  0
  4  3  1  0  0  0  0
  4  5  1  0  0  0  0
  5 11  1  0  0  0  0
  6 12  1  0  0  0  0
  6  5  1  0  0  0  0
  7  8  1  0  0  0  0
  7  6  2  0  0  0  0
  8  4  2  0  0  0  0
  9  1  2  0  0  0  0
  9  8  1  0  0  0  0
 10  1  1  0  0  0  0
 13  9  1  0  0  0  0
 14 20  1  0  0  0  0
 15 21  1  0  0  0  0
 15 14  2  0  0  0  0
 16 15  1  0  0  0  0
 17 16  2  0  0  0  0
 17 18  1  0  0  0  0
 18 19  2  0  0  0  0
 19 14  1  0  0  0  0
 22 16  1  0  0  0  0
 24 29  1  0  0  0  0
 25 31  1  6  0  0  0
 25 23  1  0  0  0  0
 25 26  1  0  0  0  0
 25 24  1  0  0  0  0
 26 27  1  0  0  0  0
 26 33  1  0  0  0  0
 28 35  1  0  0  0  0
 28 27  1  0  0  0  0
 28 29  1  0  0  0  0
 29 36  1  1  0  0  0
 30 24  1  0  0  0  0
 32 26  1  0  0  0  0
 34 28  1  0  0  0  0
 37 29  1  0  0  0  0
 38 37  1  0  0  0  0
M  END
>  <minimizedAffinity>
-5.49261332

$$$$

 OpenBabel03252509153D

 38 41  0  0  1  0  0  0  0  0999 V2000
   37.1760   28.7250   42.9070 C   0  0  0  0  0  0  0  0  0  0  0  0
   37.5420   28.9600   41.5890 C   0  0  0  0  0  0  0  0  0  0  0  0
   37.6800   27.9580   40.6420 C   0  0  0  0  0  0  0  0  0  0  0  0
   37.4380   26.6390   41.0310 C   0  0  0  0  0  0  0  0  0  0  0  0
   37.4720   25.4420   40.4050 N   0  0  0  0  0  0  0  0  0  0  0  0
   37.1420   24.4640   41.2770 C   0  0  0  0  0  0  0  0  0  0  0  0
   36.9080   25.0840   42.4400 N   0  0  0  0  0  0  0  0  0  0  0  0
   37.0800   26.4210   42.3270 C   0  0  0  0  0  0  0  0  0  0  0  0
   36.9340   27.3980   43.3010 C   0  0  0  0  0  0  0  0  0  0  0  0
   37.0850   29.5490   43.6050 H   0  0  0  0  0  0  0  0  0  0  0  0
   37.7240   25.3450   39.3930 H   0  0  0  0  0  0  0  0  0  0  0  0
   37.0810   23.4060   41.0740 H   0  0  0  0  0  0  0  0  0  0  0  0
   36.6460   27.1760   44.3200 H   0  0  0  0  0  0  0  0  0  0  0  0
   37.0790   32.2910   40.1180 C   0  0  0  0  0  0  0  0  0  0  0  0
   38.2790   32.9310   40.4070 C   0  0  0  0  0  0  0  0  0  0  0  0
   39.2440   32.2110   41.1100 C   0  0  0  0  0  0  0  0  0  0  0  0
   38.9870   30.9160   41.4880 N   0  0  0  0  0  0  0  0  0  0  0  0
   37.7980   30.3440   41.1760 C   0  0  0  0  0  0  0  0  0  0  0  0
   36.8220   31.0010   40.4940 N   0  0  0  0  0  0  0  0  0  0  0  0
   36.3430   32.8750   39.5680 H   0  0  0  0  0  0  0  0  0  0  0  0
   38.5040   33.9300   40.1280 H   0  0  0  0  0  0  0  0  0  0  0  0
   40.1970   32.6630   41.3610 H   0  0  0  0  0  0  0  0  0  0  0  0
   38.1500   28.3030   38.9660 S   0  0  0  0  0  0  0  0  0  0  0  0
   35.5880   28.6400   38.5130 N   0  0  0  0  0  0  0  0  0  0  0  0
   36.7670   28.2360   37.7980 C   0  0  1  0  0  0  0  0  0  0  0  0
   37.1210   29.2300   36.6900 C   0  0  0  0  0  0  0  0  0  0  0  0
   36.0220   29.6440   35.9610 O   0  0  0  0  0  0  0  0  0  0  0  0
   34.8630   28.9630   36.1910 C   0  0  0  0  0  0  0  0  0  0  0  0
   34.5200   29.0830   37.6650 C   0  0  1  0  0  0  0  0  0  0  0  0
   35.2280   27.7660   39.0000 H   0  0  0  0  0  0  0  0  0  0  0  0
   36.7160   27.2350   37.3690 H   0  0  0  0  0  0  0  0  0  0  0  0
   37.7850   28.7860   35.9580 H   0  0  0  0  0  0  0  0  0  0  0  0
   37.5500   30.1150   37.2120 H   0  0  0  0  0  0  0  0  0  0  0  0
   34.9110   27.8690   35.9440 H   0  0  0  0  0  0  0  0  0  0  0  0
   34.0650   29.4160   35.6070 H   0  0  0  0  0  0  0  0  0  0  0  0
   34.3670   30.1670   37.8550 H   0  0  0  0  0  0  0  0  0  0  0  0
   33.2880   28.4780   37.9550 O   0  0  0  0  0  0  0  0  0  0  0  0
   33.3010   27.6170   37.4590 H   0  0  0  0  0  0  0  0  0  0  0  0
  1  9  1  0  0  0  0
  1 10  1  0  0  0  0
  2  1  2  0  0  0  0
  3  4  2  0  0  0  0
  3  2  1  0  0  0  0
  4  8  1  0  0  0  0
  5  4  1  0  0  0  0
  5  6  1  0  0  0  0
  6  7  2  0  0  0  0
  8  7  1  0  0  0  0
  8  9  2  0  0  0  0
  9 13  1  0  0  0  0
 11  5  1  0  0  0  0
 12  6  1  0  0  0  0
 14 15  2  0  0  0  0
 14 19  1  0  0  0  0
 15 16  1  0  0  0  0
 16 22  1  0  0  0  0
 16 17  2  0  0  0  0
 18 17  1  0  0  0  0
 18  2  1  0  0  0  0
 19 18  2  0  0  0  0
 20 14  1  0  0  0  0
 21 15  1  0  0  0  0
 23  3  1  0  0  0  0
 24 30  1  0  0  0  0
 25 31  1  6  0  0  0
 25 24  1  0  0  0  0
 25 23  1  0  0  0  0
 26 33  1  0  0  0  0
 26 25  1  0  0  0  0
 27 28  1  0  0  0  0
 27 26  1  0  0  0  0
 28 29  1  0  0  0  0
 29 36  1  1  0  0  0
 29 37  1  0  0  0  0
 29 24  1  0  0  0  0
 32 26  1  0  0  0  0
 34 28  1  0  0  0  0
 35 28  1  0  0  0  0
 38 37  1  0  0  0  0
M  END
>  <minimizedAffinity>
-5.3576293

$$$$

 OpenBabel03252509153D

 38 41  0  0  1  0  0  0  0  0999 V2000
   36.9970   30.1160   36.9470 C   0  0  0  0  0  0  0  0  0  0  0  0
   36.3620   29.4750   38.0010 C   0  0  0  0  0  0  0  0  0  0  0  0
   36.2640   30.0090   39.2760 C   0  0  0  0  0  0  0  0  0  0  0  0
   36.8350   31.2600   39.5160 C   0  0  0  0  0  0  0  0  0  0  0  0
   36.9340   32.0680   40.5950 N   0  0  0  0  0  0  0  0  0  0  0  0
   37.6050   33.1920   40.2610 C   0  0  0  0  0  0  0  0  0  0  0  0
   37.9130   33.0550   38.9650 N   0  0  0  0  0  0  0  0  0  0  0  0
   37.4550   31.8810   38.4740 C   0  0  0  0  0  0  0  0  0  0  0  0
   37.5720   31.3760   37.1870 C   0  0  0  0  0  0  0  0  0  0  0  0
   37.0430   29.6490   35.9700 H   0  0  0  0  0  0  0  0  0  0  0  0
   36.5320   31.8110   41.5270 H   0  0  0  0  0  0  0  0  0  0  0  0
   37.8430   34.0230   40.9060 H   0  0  0  0  0  0  0  0  0  0  0  0
   38.0740   31.9060   36.3890 H   0  0  0  0  0  0  0  0  0  0  0  0
   33.9370   26.8770   37.0810 C   0  0  0  0  0  0  0  0  0  0  0  0
   34.6460   25.6990   37.2900 C   0  0  0  0  0  0  0  0  0  0  0  0
   35.9590   25.8050   37.7470 C   0  0  0  0  0  0  0  0  0  0  0  0
   36.5030   27.0450   37.9740 N   0  0  0  0  0  0  0  0  0  0  0  0
   35.7620   28.1590   37.7530 C   0  0  0  0  0  0  0  0  0  0  0  0
   34.4790   28.1130   37.3070 N   0  0  0  0  0  0  0  0  0  0  0  0
   32.9150   26.7660   36.7240 H   0  0  0  0  0  0  0  0  0  0  0  0
   34.2510   24.7280   37.1230 H   0  0  0  0  0  0  0  0  0  0  0  0
   36.5550   24.9180   37.9260 H   0  0  0  0  0  0  0  0  0  0  0  0
   35.4440   29.1540   40.5970 S   0  0  0  0  0  0  0  0  0  0  0  0
   37.5380   27.5830   40.7770 N   0  0  0  0  0  0  0  0  0  0  0  0
   36.5660   28.1910   41.6430 C   0  0  1  0  0  0  0  0  0  0  0  0
   37.2130   29.2050   42.5890 C   0  0  0  0  0  0  0  0  0  0  0  0
   38.3940   28.7530   43.1440 O   0  0  0  0  0  0  0  0  0  0  0  0
   38.6820   27.4350   42.9420 C   0  0  0  0  0  0  0  0  0  0  0  0
   38.7400   27.1810   41.4460 C   0  0  1  0  0  0  0  0  0  0  0  0
   37.0910   26.6870   40.4190 H   0  0  0  0  0  0  0  0  0  0  0  0
   35.9800   27.4850   42.2320 H   0  0  0  0  0  0  0  0  0  0  0  0
   36.5720   29.4170   43.4370 H   0  0  0  0  0  0  0  0  0  0  0  0
   37.4390   30.0950   41.9590 H   0  0  0  0  0  0  0  0  0  0  0  0
   37.9300   26.7230   43.3760 H   0  0  0  0  0  0  0  0  0  0  0  0
   39.6560   27.2160   43.3740 H   0  0  0  0  0  0  0  0  0  0  0  0
   39.5680   27.8140   41.0620 H   0  0  0  0  0  0  0  0  0  0  0  0
   39.1210   25.8600   41.1650 O   0  0  0  0  0  0  0  0  0  0  0  0
   38.6000   25.3010   41.8010 H   0  0  0  0  0  0  0  0  0  0  0  0
  1  9  2  0  0  0  0
  1  2  1  0  0  0  0
  2  3  2  0  0  0  0
  3  4  1  0  0  0  0
  3 23  1  0  0  0  0
  4  5  1  0  0  0  0
  5 11  1  0  0  0  0
  6  5  1  0  0  0  0
  6 12  1  0  0  0  0
  7  6  2  0  0  0  0
  8  7  1  0  0  0  0
  8  4  2  0  0  0  0
  9  8  1  0  0  0  0
 10  1  1  0  0  0  0
 13  9  1  0  0  0  0
 14 15  2  0  0  0  0
 14 19  1  0  0  0  0
 15 16  1  0  0  0  0
 16 22  1  0  0  0  0
 16 17  2  0  0  0  0
 18 17  1  0  0  0  0
 18  2  1  0  0  0  0
 19 18  2  0  0  0  0
 20 14  1  0  0  0  0
 21 15  1  0  0  0  0
 23 25  1  0  0  0  0
 24 29  1  0  0  0  0
 24 25  1  0  0  0  0
 25 31  1  1  0  0  0
 25 26  1  0  0  0  0
 26 27  1  0  0  0  0
 26 32  1  0  0  0  0
 28 27  1  0  0  0  0
 28 35  1  0  0  0  0
 28 34  1  0  0  0  0
 29 36  1  6  0  0  0
 29 28  1  0  0  0  0
 30 24  1  0  0  0  0
 33 26  1  0  0  0  0
 37 29  1  0  0  0  0
 37 38  1  0  0  0  0
M  END
>  <minimizedAffinity>
-5.30441952

$$$$

 OpenBabel03252509153D

 38 41  0  0  1  0  0  0  0  0999 V2000
   36.8990   24.3970   41.4370 C   0  0  0  0  0  0  0  0  0  0  0  0
   37.6250   25.4970   41.0040 C   0  0  0  0  0  0  0  0  0  0  0  0
   37.5020   26.0450   39.7360 C   0  0  0  0  0  0  0  0  0  0  0  0
   36.6000   25.4600   38.8460 C   0  0  0  0  0  0  0  0  0  0  0  0
   36.2240   25.7110   37.5720 N   0  0  0  0  0  0  0  0  0  0  0  0
   35.2910   24.8120   37.1880 C   0  0  0  0  0  0  0  0  0  0  0  0
   35.1060   24.0120   38.2450 N   0  0  0  0  0  0  0  0  0  0  0  0
   35.8930   24.3810   39.2820 C   0  0  0  0  0  0  0  0  0  0  0  0
   35.9910   23.8070   40.5420 C   0  0  0  0  0  0  0  0  0  0  0  0
   37.0370   24.0110   42.4400 H   0  0  0  0  0  0  0  0  0  0  0  0
   36.6290   26.4980   37.0120 H   0  0  0  0  0  0  0  0  0  0  0  0
   34.8000   24.7540   36.2290 H   0  0  0  0  0  0  0  0  0  0  0  0
   35.4070   22.9480   40.8450 H   0  0  0  0  0  0  0  0  0  0  0  0
   39.0900   27.8040   43.4540 C   0  0  0  0  0  0  0  0  0  0  0  0
   40.3510   27.2630   43.6780 C   0  0  0  0  0  0  0  0  0  0  0  0
   40.6920   26.1030   42.9840 C   0  0  0  0  0  0  0  0  0  0  0  0
   39.7900   25.5410   42.1140 N   0  0  0  0  0  0  0  0  0  0  0  0
   38.5740   26.1140   41.9360 C   0  0  0  0  0  0  0  0  0  0  0  0
   38.1910   27.2430   42.5890 N   0  0  0  0  0  0  0  0  0  0  0  0
   38.8490   28.7090   44.0090 H   0  0  0  0  0  0  0  0  0  0  0  0
   41.0670   27.6770   44.3440 H   0  0  0  0  0  0  0  0  0  0  0  0
   41.6620   25.6410   43.1210 H   0  0  0  0  0  0  0  0  0  0  0  0
   38.4500   27.4530   39.2210 S   0  0  0  0  0  0  0  0  0  0  0  0
   37.1680   29.3370   40.5230 N   0  0  0  0  0  0  0  0  0  0  0  0
   37.4920   28.9900   39.1670 C   0  0  1  0  0  0  0  0  0  0  0  0
   38.4190   30.0260   38.5280 C   0  0  0  0  0  0  0  0  0  0  0  0
   38.0470   31.3280   38.8000 O   0  0  0  0  0  0  0  0  0  0  0  0
   36.8300   31.4890   39.3950 C   0  0  0  0  0  0  0  0  0  0  0  0
   36.8290   30.7180   40.7020 C   0  0  1  0  0  0  0  0  0  0  0  0
   36.2890   28.7880   40.7620 H   0  0  0  0  0  0  0  0  0  0  0  0
   36.6280   28.8430   38.5180 H   0  0  0  0  0  0  0  0  0  0  0  0
   38.4040   29.9550   37.4470 H   0  0  0  0  0  0  0  0  0  0  0  0
   39.4210   29.8450   38.9790 H   0  0  0  0  0  0  0  0  0  0  0  0
   35.9630   31.1190   38.7840 H   0  0  0  0  0  0  0  0  0  0  0  0
   36.6780   32.5450   39.6080 H   0  0  0  0  0  0  0  0  0  0  0  0
   37.6220   31.1810   41.3290 H   0  0  0  0  0  0  0  0  0  0  0  0
   35.6340   30.9130   41.4110 O   0  0  0  0  0  0  0  0  0  0  0  0
   34.9160   30.8440   40.7280 H   0  0  0  0  0  0  0  0  0  0  0  0
  1 10  1  0  0  0  0
  2  1  1  0  0  0  0
  2 18  1  0  0  0  0
  3  2  2  0  0  0  0
  4  8  2  0  0  0  0
  4  3  1  0  0  0  0
  5  4  1  0  0  0  0
  6  5  1  0  0  0  0
  6  7  2  0  0  0  0
  7  8  1  0  0  0  0
  8  9  1  0  0  0  0
  9 13  1  0  0  0  0
  9  1  2  0  0  0  0
 11  5  1  0  0  0  0
 12  6  1  0  0  0  0
 14 15  1  0  0  0  0
 14 20  1  0  0  0  0
 15 21  1  0  0  0  0
 16 22  1  0  0  0  0
 16 15  2  0  0  0  0
 17 16  1  0  0  0  0
 18 17  2  0  0  0  0
 18 19  1  0  0  0  0
 19 14  2  0  0  0  0
 23  3  1  0  0  0  0
 24 29  1  0  0  0  0
 24 30  1  0  0  0  0
 25 31  1  6  0  0  0
 25 23  1  0  0  0  0
 25 24  1  0  0  0  0
 26 27  1  0  0  0  0
 26 33  1  0  0  0  0
 26 25  1  0  0  0  0
 27 28  1  0  0  0  0
 28 35  1  0  0  0  0
 28 29  1  0  0  0  0
 29 36  1  1  0  0  0
 29 37  1  0  0  0  0
 32 26  1  0  0  0  0
 34 28  1  0  0  0  0
 38 37  1  0  0  0  0
M  END
>  <minimizedAffinity>
-5.29158306

$$$$
