
 OpenBabel03252503353D

 15 15  0  0  0  0  0  0  0  0999 V2000
   44.5120   36.0490   44.5930 C   0  0  0  0  0  0  0  0  0  0  0  0
   45.2040   36.0220   43.3600 C   0  0  0  0  0  0  0  0  0  0  0  0
   46.1020   34.9630   43.1250 C   0  0  0  0  0  0  0  0  0  0  0  0
   46.2680   34.0130   44.0830 N   0  0  0  0  0  0  0  0  0  0  0  0
   45.5810   34.0790   45.2550 C   0  0  0  0  0  0  0  0  0  0  0  0
   44.7230   35.0730   45.5060 N   0  0  0  0  0  0  0  0  0  0  0  0
   43.8770   36.9090   44.6160 H   0  0  0  0  0  0  0  0  0  0  0  0
   45.1200   36.7340   42.5690 H   0  0  0  0  0  0  0  0  0  0  0  0
   45.7030   33.3300   46.0270 H   0  0  0  0  0  0  0  0  0  0  0  0
   46.2940   34.2090   40.7740 C   0  0  0  0  0  0  0  0  0  0  0  0
   45.1590   33.6700   40.9590 O   0  0  0  0  0  0  0  0  0  0  0  0
   46.8220   34.8810   41.9140 N   0  0  0  0  0  0  0  0  0  0  0  0
   47.7830   35.3030   41.7660 H   0  0  0  0  0  0  0  0  0  0  0  0
   46.8700   34.0850   39.5190 O   0  0  0  0  0  0  0  0  0  0  0  0
   46.7300   34.7960   38.7850 H   0  0  0  0  0  0  0  0  0  0  0  0
  1  7  1  0  0  0  0
  1  6  1  0  0  0  0
  2  1  2  0  0  0  0
  3  2  1  0  0  0  0
  3  4  2  0  0  0  0
  4  5  1  0  0  0  0
  5  6  2  0  0  0  0
  5  9  1  0  0  0  0
  8  2  1  0  0  0  0
 10 11  2  0  0  0  0
 10 12  1  0  0  0  0
 12  3  1  0  0  0  0
 13 12  1  0  0  0  0
 14 10  1  0  0  0  0
 15 14  1  0  0  0  0
M  END
>  <minimizedAffinity>
-3.63006163

>  <minimizedRMSD>
0.0657214448

$$$$
