
 OpenBabel03242515013D

 36 38  0  0  0  0  0  0  0  0999 V2000
   44.2160   35.2350   41.4670 S   0  0  0  0  0  0  0  0  0  0  0  0
   45.2530   34.4470   42.6990 C   0  0  0  0  0  0  0  0  0  0  0  0
   46.4640   33.9030   42.2410 C   0  0  0  0  0  0  0  0  0  0  0  0
   47.3060   33.2800   43.1620 C   0  0  0  0  0  0  0  0  0  0  0  0
   46.9020   33.2360   44.4490 N   0  0  0  0  0  0  0  0  0  0  0  0
   45.7450   33.7560   44.8870 C   0  0  0  0  0  0  0  0  0  0  0  0
   44.9380   34.3560   43.9940 N   0  0  0  0  0  0  0  0  0  0  0  0
   46.8070   33.9270   41.2150 H   0  0  0  0  0  0  0  0  0  0  0  0
   48.2440   32.8520   42.8350 H   0  0  0  0  0  0  0  0  0  0  0  0
   45.4040   33.6580   46.2880 C   0  0  0  0  0  0  0  0  0  0  0  0
   44.6320   34.5120   46.7840 O   0  0  0  0  0  0  0  0  0  0  0  0
   45.8660   32.6620   47.1930 N   0  0  0  0  0  0  0  0  0  0  0  0
   44.9230   31.6250   47.5700 C   0  0  0  0  0  3  0  0  0  0  0  0
   44.0030   31.6630   46.9890 H   0  0  0  0  0  0  0  0  0  0  0  0
   45.6110   30.2970   47.2510 C   0  0  0  0  0  3  0  0  0  0  0  0
   45.0140   29.5130   47.7640 H   0  0  0  0  0  0  0  0  0  0  0  0
   46.8820   30.2240   47.7670 O   0  0  0  0  0  0  0  0  0  0  0  0
   47.7360   31.2140   47.3490 C   0  0  0  0  0  2  0  0  0  0  0  0
   47.1910   32.5830   47.7770 C   0  0  0  0  0  2  0  0  0  0  0  0
   42.5270   34.6410   41.5080 C   0  0  0  0  0  0  0  0  0  0  0  0
   42.4330   33.7320   40.8440 H   0  0  0  0  0  0  0  0  0  0  0  0
   42.2270   34.2770   42.5300 H   0  0  0  0  0  0  0  0  0  0  0  0
   41.5190   35.6410   41.0510 C   0  0  0  0  0  0  0  0  0  0  0  0
   40.9320   36.0260   41.9330 H   0  0  0  0  0  0  0  0  0  0  0  0
   41.9870   36.5290   40.5810 H   0  0  0  0  0  0  0  0  0  0  0  0
   42.3430   35.8280   38.1250 Cl  0  0  0  0  0  0  0  0  0  0  0  0
   40.8730   35.1010   38.6840 C   0  0  0  0  0  0  0  0  0  0  0  0
   40.5910   35.0690   40.0560 C   0  0  0  0  0  0  0  0  0  0  0  0
   39.4010   34.4730   40.4180 C   0  0  0  0  0  0  0  0  0  0  0  0
   38.4620   33.9070   39.5690 C   0  0  0  0  0  0  0  0  0  0  0  0
   38.7690   33.9540   38.2160 C   0  0  0  0  0  0  0  0  0  0  0  0
   37.6310   33.2590   37.0680 Cl  0  0  0  0  0  0  0  0  0  0  0  0
   39.9450   34.5380   37.8020 C   0  0  0  0  0  0  0  0  0  0  0  0
   39.1740   34.4430   41.4820 H   0  0  0  0  0  0  0  0  0  0  0  0
   37.5610   33.4670   39.9740 H   0  0  0  0  0  0  0  0  0  0  0  0
   40.1580   34.5600   36.7340 H   0  0  0  0  0  0  0  0  0  0  0  0
  1 20  1  0  0  0  0
  1  2  1  0  0  0  0
  2  7  1  0  0  0  0
  3  2  2  0  0  0  0
  3  4  1  0  0  0  0
  4  5  2  0  0  0  0
  5  6  1  0  0  0  0
  6 10  1  0  0  0  0
  7  6  2  0  0  0  0
  8  3  1  0  0  0  0
  9  4  1  0  0  0  0
 10 11  2  0  0  0  0
 10 12  1  0  0  0  0
 12 13  1  0  0  0  0
 12 19  1  0  0  0  0
 14 13  1  0  0  0  0
 15 13  1  0  0  0  0
 15 16  1  0  0  0  0
 15 17  1  0  0  0  0
 18 17  1  0  0  0  0
 18 19  1  0  0  0  0
 20 22  1  0  0  0  0
 21 20  1  0  0  0  0
 23 20  1  0  0  0  0
 23 24  1  0  0  0  0
 25 23  1  0  0  0  0
 26 27  1  0  0  0  0
 27 28  1  0  0  0  0
 28 29  2  0  0  0  0
 28 23  1  0  0  0  0
 29 34  1  0  0  0  0
 30 35  1  0  0  0  0
 30 29  1  0  0  0  0
 31 30  2  0  0  0  0
 32 31  1  0  0  0  0
 33 31  1  0  0  0  0
 33 27  2  0  0  0  0
 36 33  1  0  0  0  0
M  END
>  <minimizedAffinity>
-6.33231354

>  <minimizedRMSD>
0.873656034

$$$$
